0:0
     RDKit          3D

 45 47  0  0  0  0  0  0  0  0999 V2000
  149.0320  154.1520  132.6010 C   0  0  0  0  0  0  0  0  0  0  0  0
  148.1110  154.4510  133.7380 C   0  0  0  0  0  0  0  0  0  0  0  0
  147.6890  153.5650  134.6090 O   0  0  0  0  0  0  0  0  0  0  0  0
  146.8740  154.2130  135.4120 C   0  0  0  0  0  0  0  0  0  0  0  0
  146.2770  153.6770  136.3810 O   0  0  0  0  0  0  0  0  0  0  0  0
  146.7490  155.4810  135.0910 O   0  0  0  0  0  0  0  0  0  0  0  0
  147.5130  155.6610  134.0390 C   0  0  0  0  0  0  0  0  0  0  0  0
  147.6770  156.9610  133.3180 C   0  0  0  0  0  0  0  0  0  0  0  0
  146.4150  157.4400  132.8630 O   0  0  0  0  0  0  0  0  0  0  0  0
  145.7630  158.5490  133.4150 C   0  0  0  0  0  0  0  0  0  0  0  0
  146.4400  159.5180  133.8560 O   0  0  0  0  0  0  0  0  0  0  0  0
  144.3220  158.5820  133.4900 N   0  0  0  0  0  0  0  0  0  0  0  0
  143.6530  159.8180  133.9120 C   0  0  0  0  0  0  0  0  0  0  0  0
  143.5430  157.3800  133.3230 C   0  0  0  0  0  0  0  0  0  0  0  0
  144.0180  156.4110  132.6700 O   0  0  0  0  0  0  0  0  0  0  0  0
  142.2410  157.2500  133.9210 N   0  0  0  0  0  0  0  0  0  0  0  0
  141.9200  156.6170  135.0850 C   0  0  0  0  0  0  0  0  0  0  0  0
  142.8640  155.8540  135.9350 C   0  0  0  0  0  0  0  0  0  0  0  0
  144.2430  155.7360  135.5790 N   0  0  0  0  0  0  0  0  0  0  0  0
  142.4620  155.3110  136.9970 O   0  0  0  0  0  0  0  0  0  0  0  0
  140.5500  156.7260  135.3310 C   0  0  0  0  0  0  0  0  0  0  0  0
  140.0450  157.4540  134.2780 C   0  0  0  0  0  0  0  0  0  0  0  0
  138.7400  157.8520  134.0070 C   0  0  0  0  0  0  0  0  0  0  0  0
  138.5070  158.6020  132.8420 C   0  0  0  0  0  0  0  0  0  0  0  0
  139.5780  158.9460  131.9780 C   0  0  0  0  0  0  0  0  0  0  0  0
  139.3240  159.7380  130.7290 C   0  0  0  0  0  0  0  0  0  0  0  0
  138.7500  158.9280  129.7650 F   0  0  0  0  0  0  0  0  0  0  0  0
  138.4680  160.7870  131.0110 F   0  0  0  0  0  0  0  0  0  0  0  0
  140.8890  158.5180  132.2840 C   0  0  0  0  0  0  0  0  0  0  0  0
  141.0870  157.7620  133.4440 C   0  0  0  0  0  0  0  0  0  0  0  0
  150.0091  153.8348  132.9943 H   0  0  0  0  0  0  0  0  0  0  0  0
  148.6053  153.3462  131.9856 H   0  0  0  0  0  0  0  0  0  0  0  0
  149.1600  155.0547  131.9856 H   0  0  0  0  0  0  0  0  0  0  0  0
  148.1205  157.7006  134.0009 H   0  0  0  0  0  0  0  0  0  0  0  0
  148.3339  156.8064  132.4493 H   0  0  0  0  0  0  0  0  0  0  0  0
  143.6278  159.8645  135.0107 H   0  0  0  0  0  0  0  0  0  0  0  0
  144.2047  160.6855  133.5208 H   0  0  0  0  0  0  0  0  0  0  0  0
  142.6250  159.8304  133.5208 H   0  0  0  0  0  0  0  0  0  0  0  0
  144.9030  155.2260  136.2070 H   0  0  0  0  0  0  0  0  0  0  0  0
  144.6130  156.1210  134.6830 H   0  0  0  0  0  0  0  0  0  0  0  0
  139.9921  156.3164  136.1860 H   0  0  0  0  0  0  0  0  0  0  0  0
  137.9149  157.5874  134.6847 H   0  0  0  0  0  0  0  0  0  0  0  0
  137.4844  158.9254  132.5977 H   0  0  0  0  0  0  0  0  0  0  0  0
  140.2805  160.1304  130.3533 H   0  0  0  0  0  0  0  0  0  0  0  0
  141.7331  158.7729  131.6264 H   0  0  0  0  0  0  0  0  0  0  0  0
  1  2  1  0
  2  3  1  0
  3  4  1  0
  4  5  2  0
  4  6  1  0
  6  7  1  0
  7  8  1  0
  8  9  1  0
  9 10  1  0
 10 11  2  0
 10 12  1  0
 12 13  1  0
 12 14  1  0
 14 15  2  0
 14 16  1  0
 16 17  1  0
 17 18  1  0
 18 19  1  0
 18 20  2  0
 17 21  2  0
 21 22  1  0
 22 23  2  0
 23 24  1  0
 24 25  2  0
 25 26  1  0
 26 27  1  0
 26 28  1  0
 25 29  1  0
 29 30  2  0
  7  2  2  0
 30 16  1  0
 30 22  1  0
  1 31  1  0
  1 32  1  0
  1 33  1  0
  8 34  1  0
  8 35  1  0
 13 36  1  0
 13 37  1  0
 13 38  1  0
 19 39  1  0
 19 40  1  0
 21 41  1  0
 23 42  1  0
 24 43  1  0
 26 44  1  0
 29 45  1  0
M  END
>  <UniqueID>  (1) 
1

>  <SMILES>  (1) 
Cc1oc(=O)oc1COC(=O)N(C)C(=O)n1c(C(N)=O)cc2ccc(C(F)F)cc21

>  <Energy>  (1) 
114.19827048044905

>  <Genealogy>  (1) 
Cc1oc(=O)oc1COC(=O)N(C)C(=O)n1c(C(N)=O)cc2ccc(C(F)F)cc21 (3D coordinates assigned)
Cc1oc(=O)oc1COC(=O)N(C)C(=O)n1c(C(N)=O)cc2ccc(C(F)F)cc21 (optimized conformer: 114.19827048044905 kcal/mol)

>  <smiles>  (1) 
Cc1oc(=O)oc1COC(=O)N(C)C(=O)n1c(C(N)=O)cc2ccc(C(F)F)cc21

>  <score_type>  (1) 
oracle

>  <origin>  (1) 
adg

>  <m_score__min__energy>  (1) 
-7.29

>  <m_primary>  (1) 
energy

$$$$
1:0
     RDKit          3D

 43 44  0  0  0  0  0  0  0  0999 V2000
  139.8500  156.2600  132.9680 C   0  0  0  0  0  0  0  0  0  0  0  0
  141.2870  156.5800  132.9800 N   0  0  0  0  0  0  0  0  0  0  0  0
  142.0000  155.7470  133.9600 C   0  0  0  0  0  0  0  0  0  0  0  0
  141.4830  157.9840  133.2750 C   0  0  0  0  0  0  0  0  0  0  0  0
  141.0250  158.8430  132.5310 O   0  0  0  0  0  0  0  0  0  0  0  0
  142.2900  158.4100  134.4720 C   0  0  0  0  0  0  0  0  0  0  0  0
  143.5980  159.0030  134.0280 C   0  0  0  0  0  0  0  0  0  0  0  0
  143.8130  160.4020  134.1150 C   0  0  0  0  0  0  0  0  0  0  0  0
  145.0530  160.9580  133.7580 C   0  0  0  0  0  0  0  0  0  0  0  0
  146.0540  160.0950  133.3210 C   0  0  0  0  0  0  0  0  0  0  0  0
  147.3530  160.3600  132.9550 C   0  0  0  0  0  0  0  0  0  0  0  0
  147.9080  159.1210  132.6360 C   0  0  0  0  0  0  0  0  0  0  0  0
  149.2790  158.9540  132.1150 C   0  0  0  0  0  0  0  0  0  0  0  0
  149.8150  157.6570  131.8630 N   0  0  0  0  0  0  0  0  0  0  0  0
  149.9720  159.9710  131.8420 O   0  0  0  0  0  0  0  0  0  0  0  0
  146.9890  158.1290  132.8060 N   0  0  0  0  0  0  0  0  0  0  0  0
  147.1940  156.7130  132.6880 C   0  0  0  0  0  0  0  0  0  0  0  0
  147.0260  156.1440  131.5760 O   0  0  0  0  0  0  0  0  0  0  0  0
  147.5620  155.9700  133.8160 O   0  0  0  0  0  0  0  0  0  0  0  0
  147.5210  154.5450  133.8660 C   0  0  0  0  0  0  0  0  0  0  0  0
  148.5700  153.9350  132.9330 C   0  0  0  0  0  0  0  0  0  0  0  0
  149.5300  154.8940  132.5800 O   0  0  0  0  0  0  0  0  0  0  0  0
  145.8590  158.7420  133.2230 C   0  0  0  0  0  0  0  0  0  0  0  0
  144.6390  158.1580  133.5870 C   0  0  0  0  0  0  0  0  0  0  0  0
  139.4839  156.1785  134.0021 H   0  0  0  0  0  0  0  0  0  0  0  0
  139.3010  157.0579  132.4465 H   0  0  0  0  0  0  0  0  0  0  0  0
  139.6915  155.3045  132.4465 H   0  0  0  0  0  0  0  0  0  0  0  0
  141.6730  156.3630  132.0310 H   0  0  0  0  0  0  0  0  0  0  0  0
  141.7284  156.0644  134.9776 H   0  0  0  0  0  0  0  0  0  0  0  0
  141.7201  154.6927  133.8177 H   0  0  0  0  0  0  0  0  0  0  0  0
  143.0848  155.8608  133.8177 H   0  0  0  0  0  0  0  0  0  0  0  0
  141.7250  159.1614  135.0431 H   0  0  0  0  0  0  0  0  0  0  0  0
  142.4886  157.5317  135.1037 H   0  0  0  0  0  0  0  0  0  0  0  0
  143.0020  161.0576  134.4650 H   0  0  0  0  0  0  0  0  0  0  0  0
  145.2274  162.0422  133.8219 H   0  0  0  0  0  0  0  0  0  0  0  0
  147.8490  161.3412  132.9211 H   0  0  0  0  0  0  0  0  0  0  0  0
  149.1870  156.8430  131.6820 H   0  0  0  0  0  0  0  0  0  0  0  0
  147.7200  154.2150  134.8963 H   0  0  0  0  0  0  0  0  0  0  0  0
  146.5248  154.2106  133.5409 H   0  0  0  0  0  0  0  0  0  0  0  0
  149.0663  153.0973  133.4448 H   0  0  0  0  0  0  0  0  0  0  0  0
  148.0702  153.5790  132.0200 H   0  0  0  0  0  0  0  0  0  0  0  0
  149.0320  155.6810  132.2350 H   0  0  0  0  0  0  0  0  0  0  0  0
  144.4959  157.0688  133.5306 H   0  0  0  0  0  0  0  0  0  0  0  0
  1  2  1  0
  2  3  1  0
  2  4  1  0
  4  5  2  0
  4  6  1  0
  6  7  1  0
  7  8  2  0
  8  9  1  0
  9 10  2  0
 10 11  1  0
 11 12  2  0
 12 13  1  0
 13 14  1  0
 13 15  2  0
 12 16  1  0
 16 17  1  0
 17 18  2  0
 17 19  1  0
 19 20  1  0
 20 21  1  0
 21 22  1  0
 16 23  1  0
 23 24  2  0
 24  7  1  0
 23 10  1  0
  1 25  1  0
  1 26  1  0
  1 27  1  0
  2 28  1  0
  3 29  1  0
  3 30  1  0
  3 31  1  0
  6 32  1  0
  6 33  1  0
  8 34  1  0
  9 35  1  0
 11 36  1  0
 14 37  1  0
 20 38  1  0
 20 39  1  0
 21 40  1  0
 21 41  1  0
 22 42  1  0
 24 43  1  0
M  CHG  2   2   1  14  -1
M  END
>  <UniqueID>  (2) 
2

>  <SMILES>  (2) 
C[NH+](C)C(=O)Cc1ccc2cc(C([NH-])=O)n(C(=O)OCCO)c2c1

>  <Energy>  (2) 
75.376598916863

>  <Genealogy>  (2) 
C[NH+](C)C(=O)Cc1ccc2cc(C([NH-])=O)n(C(=O)OCCO)c2c1 (protonated)
C[NH+](C)C(=O)Cc1ccc2cc(C([NH-])=O)n(C(=O)OCCO)c2c1 (3D coordinates assigned)
C[NH+](C)C(=O)Cc1ccc2cc(C([NH-])=O)n(C(=O)OCCO)c2c1 (optimized conformer: 75.376598916863 kcal/mol)

>  <smiles>  (2) 
CN(C)C(=O)Cc1ccc2cc(C(N)=O)n(C(=O)OCCO)c2c1

>  <score_type>  (2) 
oracle

>  <origin>  (2) 
adg

>  <m_score__min__energy>  (2) 
-5.9900000000000002

>  <m_primary>  (2) 
energy

$$$$
2:0
     RDKit          3D

 42 43  0  0  0  0  0  0  0  0999 V2000
  141.1180  157.8690  134.6790 C   0  0  0  0  0  0  0  0  0  0  0  0
  142.4260  157.6280  135.4270 C   0  0  0  0  0  0  0  0  0  0  0  0
  143.4490  157.0590  134.5370 N   0  0  0  0  0  0  0  0  0  0  0  0
  144.0050  155.7590  134.8150 C   0  0  0  0  0  0  0  0  0  0  0  0
  145.1750  155.6490  135.2710 O   0  0  0  0  0  0  0  0  0  0  0  0
  143.2690  154.6060  134.5690 O   0  0  0  0  0  0  0  0  0  0  0  0
  143.8550  157.7830  133.3580 C   0  0  0  0  0  0  0  0  0  0  0  0
  143.1060  157.8180  132.3450 O   0  0  0  0  0  0  0  0  0  0  0  0
  145.1060  158.4800  133.3250 N   0  0  0  0  0  0  0  0  0  0  0  0
  145.3220  159.8150  133.4710 C   0  0  0  0  0  0  0  0  0  0  0  0
  144.2840  160.8250  133.7680 C   0  0  0  0  0  0  0  0  0  0  0  0
  142.9270  160.5760  133.4090 N   0  0  0  0  0  0  0  0  0  0  0  0
  144.5850  161.9110  134.3300 O   0  0  0  0  0  0  0  0  0  0  0  0
  146.6790  160.1050  133.3330 C   0  0  0  0  0  0  0  0  0  0  0  0
  147.2860  158.8920  133.0860 C   0  0  0  0  0  0  0  0  0  0  0  0
  148.6220  158.5860  132.8520 C   0  0  0  0  0  0  0  0  0  0  0  0
  148.9590  157.2440  132.6060 C   0  0  0  0  0  0  0  0  0  0  0  0
  147.9590  156.2320  132.5930 C   0  0  0  0  0  0  0  0  0  0  0  0
  148.2730  154.8470  132.3370 N   0  0  0  0  0  0  0  0  0  0  0  0
  148.7430  153.8970  133.3530 C   0  0  0  0  0  0  0  0  0  0  0  0
  148.9520  152.5120  132.7280 C   0  0  0  0  0  0  0  0  0  0  0  0
  147.7320  153.8080  134.5020 C   0  0  0  0  0  0  0  0  0  0  0  0
  146.6120  156.5910  132.8250 C   0  0  0  0  0  0  0  0  0  0  0  0
  146.3120  157.9310  133.0820 C   0  0  0  0  0  0  0  0  0  0  0  0
  140.3037  158.0190  135.4032 H   0  0  0  0  0  0  0  0  0  0  0  0
  141.2164  158.7641  134.0473 H   0  0  0  0  0  0  0  0  0  0  0  0
  140.8909  156.9976  134.0473 H   0  0  0  0  0  0  0  0  0  0  0  0
  142.7914  158.5846  135.8287 H   0  0  0  0  0  0  0  0  0  0  0  0
  142.2356  156.9135  136.2414 H   0  0  0  0  0  0  0  0  0  0  0  0
  142.6890  159.9410  132.6150 H   0  0  0  0  0  0  0  0  0  0  0  0
  147.1618  161.0907  133.4057 H   0  0  0  0  0  0  0  0  0  0  0  0
  149.3924  159.3711  132.8592 H   0  0  0  0  0  0  0  0  0  0  0  0
  150.0089  156.9727  132.4212 H   0  0  0  0  0  0  0  0  0  0  0  0
  148.1390  154.4970  131.3610 H   0  0  0  0  0  0  0  0  0  0  0  0
  149.7038  154.2547  133.7517 H   0  0  0  0  0  0  0  0  0  0  0  0
  149.0650  151.7630  133.5257 H   0  0  0  0  0  0  0  0  0  0  0  0
  148.0823  152.2558  132.1050 H   0  0  0  0  0  0  0  0  0  0  0  0
  149.8585  152.5238  132.1050 H   0  0  0  0  0  0  0  0  0  0  0  0
  148.2645  153.8549  135.4634 H   0  0  0  0  0  0  0  0  0  0  0  0
  147.0243  154.6473  134.4335 H   0  0  0  0  0  0  0  0  0  0  0  0
  147.1818  152.8579  134.4335 H   0  0  0  0  0  0  0  0  0  0  0  0
  145.8166  155.8315  132.8037 H   0  0  0  0  0  0  0  0  0  0  0  0
  1  2  1  0
  2  3  1  0
  3  4  1  0
  4  5  2  0
  4  6  1  0
  3  7  1  0
  7  8  2  0
  7  9  1  0
  9 10  1  0
 10 11  1  0
 11 12  1  0
 11 13  2  0
 10 14  2  0
 14 15  1  0
 15 16  2  0
 16 17  1  0
 17 18  2  0
 18 19  1  0
 19 20  1  0
 20 21  1  0
 20 22  1  0
 18 23  1  0
 23 24  2  0
 24  9  1  0
 24 15  1  0
  1 25  1  0
  1 26  1  0
  1 27  1  0
  2 28  1  0
  2 29  1  0
 12 30  1  0
 14 31  1  0
 16 32  1  0
 17 33  1  0
 19 34  1  0
 20 35  1  0
 21 36  1  0
 21 37  1  0
 21 38  1  0
 22 39  1  0
 22 40  1  0
 22 41  1  0
 23 42  1  0
M  CHG  2   6  -1  12  -1
M  END
>  <UniqueID>  (3) 
3

>  <SMILES>  (3) 
CCN(C(=O)[O-])C(=O)n1c(C([NH-])=O)cc2ccc(NC(C)C)cc21

>  <Energy>  (3) 
76.68504340739896

>  <Genealogy>  (3) 
CCN(C(=O)[O-])C(=O)n1c(C([NH-])=O)cc2ccc(NC(C)C)cc21 (protonated)
CCN(C(=O)[O-])C(=O)n1c(C([NH-])=O)cc2ccc(NC(C)C)cc21 (3D coordinates assigned)
CCN(C(=O)[O-])C(=O)n1c(C([NH-])=O)cc2ccc(NC(C)C)cc21 (optimized conformer: 76.68504340739896 kcal/mol)

>  <smiles>  (3) 
CCN(C(=O)O)C(=O)n1c(C(N)=O)cc2ccc(NC(C)C)cc21

>  <score_type>  (3) 
oracle

>  <origin>  (3) 
adg

>  <m_score__min__energy>  (3) 
-7.1600000000000001

>  <m_primary>  (3) 
energy

$$$$
3:0
     RDKit          3D

 36 37  0  0  0  0  0  0  0  0999 V2000
  141.3400  158.9100  135.4310 C   0  0  0  0  0  0  0  0  0  0  0  0
  142.3070  158.1800  134.6020 N   0  0  0  0  0  0  0  0  0  0  0  0
  141.9970  156.8050  134.1920 C   0  0  0  0  0  0  0  0  0  0  0  0
  143.5450  158.8100  134.1860 C   0  0  0  0  0  0  0  0  0  0  0  0
  143.6550  160.2280  134.1330 C   0  0  0  0  0  0  0  0  0  0  0  0
  144.8510  160.8460  133.7300 C   0  0  0  0  0  0  0  0  0  0  0  0
  145.9200  160.0330  133.3750 C   0  0  0  0  0  0  0  0  0  0  0  0
  147.1910  160.3700  132.9690 C   0  0  0  0  0  0  0  0  0  0  0  0
  147.8430  159.1570  132.7560 C   0  0  0  0  0  0  0  0  0  0  0  0
  149.2280  159.0540  132.2480 C   0  0  0  0  0  0  0  0  0  0  0  0
  149.7940  157.7920  131.9060 N   0  0  0  0  0  0  0  0  0  0  0  0
  149.9120  160.1000  132.0840 O   0  0  0  0  0  0  0  0  0  0  0  0
  147.0090  158.1140  133.0240 N   0  0  0  0  0  0  0  0  0  0  0  0
  147.3280  156.7110  132.9890 C   0  0  0  0  0  0  0  0  0  0  0  0
  147.2950  156.0940  131.8910 O   0  0  0  0  0  0  0  0  0  0  0  0
  147.7310  155.9690  134.2290 C   0  0  0  0  0  0  0  0  0  0  0  0
  146.6560  155.9350  135.1370 O   0  0  0  0  0  0  0  0  0  0  0  0
  146.0750  154.3340  135.2180 P   0  0  0  0  0  0  0  0  0  0  0  0
  146.2530  153.6780  133.8690 O   0  0  0  0  0  0  0  0  0  0  0  0
  144.4320  154.3330  135.6210 O   0  0  0  0  0  0  0  0  0  0  0  0
  146.9430  153.4580  136.3780 O   0  0  0  0  0  0  0  0  0  0  0  0
  145.8360  158.6670  133.4040 C   0  0  0  0  0  0  0  0  0  0  0  0
  144.6670  158.0230  133.8230 C   0  0  0  0  0  0  0  0  0  0  0  0
  141.5659  158.7395  136.4940 H   0  0  0  0  0  0  0  0  0  0  0  0
  141.4059  159.9856  135.2101 H   0  0  0  0  0  0  0  0  0  0  0  0
  140.3236  158.5519  135.2101 H   0  0  0  0  0  0  0  0  0  0  0  0
  141.8558  156.1790  135.0854 H   0  0  0  0  0  0  0  0  0  0  0  0
  141.0753  156.8004  133.5917 H   0  0  0  0  0  0  0  0  0  0  0  0
  142.8276  156.4053  133.5917 H   0  0  0  0  0  0  0  0  0  0  0  0
  142.7911  160.8493  134.4116 H   0  0  0  0  0  0  0  0  0  0  0  0
  144.9382  161.9420  133.6966 H   0  0  0  0  0  0  0  0  0  0  0  0
  147.6042  161.3813  132.8401 H   0  0  0  0  0  0  0  0  0  0  0  0
  149.2090  157.0380  131.4830 H   0  0  0  0  0  0  0  0  0  0  0  0
  148.0160  154.9406  133.9624 H   0  0  0  0  0  0  0  0  0  0  0  0
  148.5844  156.4816  134.6968 H   0  0  0  0  0  0  0  0  0  0  0  0
  144.6191  156.9250  133.8700 H   0  0  0  0  0  0  0  0  0  0  0  0
  1  2  1  0
  2  3  1  0
  2  4  1  0
  4  5  2  0
  5  6  1  0
  6  7  2  0
  7  8  1  0
  8  9  2  0
  9 10  1  0
 10 11  1  0
 10 12  2  0
  9 13  1  0
 13 14  1  0
 14 15  2  0
 14 16  1  0
 16 17  1  0
 17 18  1  0
 18 19  2  0
 18 20  1  0
 18 21  1  0
 13 22  1  0
 22 23  2  0
 23  4  1  0
 22  7  1  0
  1 24  1  0
  1 25  1  0
  1 26  1  0
  3 27  1  0
  3 28  1  0
  3 29  1  0
  5 30  1  0
  6 31  1  0
  8 32  1  0
 11 33  1  0
 16 34  1  0
 16 35  1  0
 23 36  1  0
M  CHG  3  11  -1  20  -1  21  -1
M  END
>  <UniqueID>  (4) 
4

>  <SMILES>  (4) 
CN(C)c1ccc2cc(C([NH-])=O)n(C(=O)COP(=O)([O-])[O-])c2c1

>  <Energy>  (4) 
74.49454195384351

>  <Genealogy>  (4) 
CN(C)c1ccc2cc(C([NH-])=O)n(C(=O)COP(=O)([O-])[O-])c2c1 (protonated)
CN(C)c1ccc2cc(C([NH-])=O)n(C(=O)COP(=O)([O-])[O-])c2c1 (3D coordinates assigned)
CN(C)c1ccc2cc(C([NH-])=O)n(C(=O)COP(=O)([O-])[O-])c2c1 (optimized conformer: 74.49454195384351 kcal/mol)

>  <smiles>  (4) 
CN(C)c1ccc2cc(C(N)=O)n(C(=O)COP(=O)(O)O)c2c1

>  <score_type>  (4) 
oracle

>  <origin>  (4) 
adg

>  <m_score__min__energy>  (4) 
-6.3300000000000001

>  <m_primary>  (4) 
energy

$$$$
4:0
     RDKit          3D

 42 43  0  0  0  0  0  0  0  0999 V2000
  148.4950  154.8140  132.5630 C   0  0  0  0  0  0  0  0  0  0  0  0
  148.0730  156.2460  132.7010 C   0  0  0  0  0  0  0  0  0  0  0  0
  149.0350  157.2820  132.6120 C   0  0  0  0  0  0  0  0  0  0  0  0
  148.6550  158.6260  132.7630 C   0  0  0  0  0  0  0  0  0  0  0  0
  147.3150  158.9000  133.0230 C   0  0  0  0  0  0  0  0  0  0  0  0
  146.6780  160.1060  133.1960 C   0  0  0  0  0  0  0  0  0  0  0  0
  145.3400  159.7880  133.4270 C   0  0  0  0  0  0  0  0  0  0  0  0
  144.3110  160.7960  133.7540 C   0  0  0  0  0  0  0  0  0  0  0  0
  142.9570  160.5790  133.3590 N   0  0  0  0  0  0  0  0  0  0  0  0
  144.6160  161.8640  134.3460 O   0  0  0  0  0  0  0  0  0  0  0  0
  145.1580  158.4360  133.3920 N   0  0  0  0  0  0  0  0  0  0  0  0
  143.9280  157.7060  133.5330 C   0  0  0  0  0  0  0  0  0  0  0  0
  143.0430  157.7830  132.6380 O   0  0  0  0  0  0  0  0  0  0  0  0
  143.7330  156.8890  134.6530 O   0  0  0  0  0  0  0  0  0  0  0  0
  142.4750  156.3130  134.9950 C   0  0  0  0  0  0  0  0  0  0  0  0
  141.6300  157.3010  135.7530 C   0  0  0  0  0  0  0  0  0  0  0  0
  141.5580  157.1850  137.0070 O   0  0  0  0  0  0  0  0  0  0  0  0
  140.8970  158.3500  135.0810 N   0  0  0  0  0  0  0  0  0  0  0  0
  140.9710  159.7370  135.5520 C   0  0  0  0  0  0  0  0  0  0  0  0
  140.1110  158.0500  133.8740 C   0  0  0  0  0  0  0  0  0  0  0  0
  139.9930  159.2890  132.9820 C   0  0  0  0  0  0  0  0  0  0  0  0
  140.7850  159.1540  131.8330 O   0  0  0  0  0  0  0  0  0  0  0  0
  146.3780  157.9070  133.1460 C   0  0  0  0  0  0  0  0  0  0  0  0
  146.7250  156.5610  132.9800 C   0  0  0  0  0  0  0  0  0  0  0  0
  148.6252  154.3722  133.5619 H   0  0  0  0  0  0  0  0  0  0  0  0
  147.7232  154.2557  132.0129 H   0  0  0  0  0  0  0  0  0  0  0  0
  149.4462  154.7634  132.0129 H   0  0  0  0  0  0  0  0  0  0  0  0
  150.0893  157.0318  132.4229 H   0  0  0  0  0  0  0  0  0  0  0  0
  149.3934  159.4369  132.6784 H   0  0  0  0  0  0  0  0  0  0  0  0
  147.1282  161.1090  133.1599 H   0  0  0  0  0  0  0  0  0  0  0  0
  142.7240  159.9250  132.5790 H   0  0  0  0  0  0  0  0  0  0  0  0
  141.9496  156.0189  134.0744 H   0  0  0  0  0  0  0  0  0  0  0  0
  142.6487  155.4325  135.6311 H   0  0  0  0  0  0  0  0  0  0  0  0
  140.9717  159.7512  136.6519 H   0  0  0  0  0  0  0  0  0  0  0  0
  141.8952  160.2022  135.1787 H   0  0  0  0  0  0  0  0  0  0  0  0
  140.1015  160.2979  135.1787 H   0  0  0  0  0  0  0  0  0  0  0  0
  140.6071  157.2458  133.3109 H   0  0  0  0  0  0  0  0  0  0  0  0
  139.1015  157.7366  134.1786 H   0  0  0  0  0  0  0  0  0  0  0  0
  138.9425  159.4187  132.6824 H   0  0  0  0  0  0  0  0  0  0  0  0
  140.3412  160.1652  133.5486 H   0  0  0  0  0  0  0  0  0  0  0  0
  141.7270  159.2860  132.1190 H   0  0  0  0  0  0  0  0  0  0  0  0
  145.9667  155.7687  133.0647 H   0  0  0  0  0  0  0  0  0  0  0  0
  1  2  1  0
  2  3  2  0
  3  4  1  0
  4  5  2  0
  5  6  1  0
  6  7  2  0
  7  8  1  0
  8  9  1  0
  8 10  2  0
  7 11  1  0
 11 12  1  0
 12 13  2  0
 12 14  1  0
 14 15  1  0
 15 16  1  0
 16 17  2  0
 16 18  1  0
 18 19  1  0
 18 20  1  0
 20 21  1  0
 21 22  1  0
 11 23  1  0
 23 24  2  0
 24  2  1  0
 23  5  1  0
  1 25  1  0
  1 26  1  0
  1 27  1  0
  3 28  1  0
  4 29  1  0
  6 30  1  0
  9 31  1  0
 15 32  1  0
 15 33  1  0
 19 34  1  0
 19 35  1  0
 19 36  1  0
 20 37  1  0
 20 38  1  0
 21 39  1  0
 21 40  1  0
 22 41  1  0
 24 42  1  0
M  CHG  1   9  -1
M  END
>  <UniqueID>  (5) 
5

>  <SMILES>  (5) 
Cc1ccc2cc(C([NH-])=O)n(C(=O)OCC(=O)N(C)CCO)c2c1

>  <Energy>  (5) 
73.2279680553128

>  <Genealogy>  (5) 
Cc1ccc2cc(C([NH-])=O)n(C(=O)OCC(=O)N(C)CCO)c2c1 (protonated)
Cc1ccc2cc(C([NH-])=O)n(C(=O)OCC(=O)N(C)CCO)c2c1 (3D coordinates assigned)
Cc1ccc2cc(C([NH-])=O)n(C(=O)OCC(=O)N(C)CCO)c2c1 (optimized conformer: 73.2279680553128 kcal/mol)

>  <smiles>  (5) 
Cc1ccc2cc(C(N)=O)n(C(=O)OCC(=O)N(C)CCO)c2c1

>  <score_type>  (5) 
oracle

>  <origin>  (5) 
adg

>  <m_score__min__energy>  (5) 
-5.7999999999999998

>  <m_primary>  (5) 
energy

$$$$
5:0
     RDKit          3D

 45 46  0  0  0  0  0  0  0  0999 V2000
  138.8520  157.9180  134.3080 C   0  0  0  0  0  0  0  0  0  0  0  0
  139.6720  157.4870  133.1620 N   0  0  0  0  0  0  0  0  0  0  0  0
  139.2730  158.1950  131.9350 C   0  0  0  0  0  0  0  0  0  0  0  0
  139.6950  156.0100  132.9970 C   0  0  0  0  0  0  0  0  0  0  0  0
  140.8830  155.2930  133.6670 C   0  0  0  0  0  0  0  0  0  0  0  0
  141.5720  156.1890  134.5130 O   0  0  0  0  0  0  0  0  0  0  0  0
  142.7960  155.6140  134.9200 C   0  0  0  0  0  0  0  0  0  0  0  0
  143.9550  156.2970  134.1890 C   0  0  0  0  0  0  0  0  0  0  0  0
  143.5160  157.4770  133.3630 C   0  0  0  0  0  0  0  0  0  0  0  0
  142.6100  157.3420  132.4950 O   0  0  0  0  0  0  0  0  0  0  0  0
  144.2370  158.7150  133.4380 N   0  0  0  0  0  0  0  0  0  0  0  0
  143.7570  159.9570  133.7330 C   0  0  0  0  0  0  0  0  0  0  0  0
  142.3360  160.3130  133.9100 C   0  0  0  0  0  0  0  0  0  0  0  0
  141.4080  159.3310  134.3650 N   0  0  0  0  0  0  0  0  0  0  0  0
  141.9340  161.4850  133.6870 O   0  0  0  0  0  0  0  0  0  0  0  0
  144.7980  160.8830  133.7710 C   0  0  0  0  0  0  0  0  0  0  0  0
  145.9380  160.1660  133.4830 C   0  0  0  0  0  0  0  0  0  0  0  0
  147.2640  160.5820  133.3930 C   0  0  0  0  0  0  0  0  0  0  0  0
  148.2380  159.6120  133.0980 C   0  0  0  0  0  0  0  0  0  0  0  0
  147.8720  158.2580  132.9010 C   0  0  0  0  0  0  0  0  0  0  0  0
  148.8730  157.2810  132.6090 N   0  0  0  0  0  0  0  0  0  0  0  0
  146.5180  157.8730  132.9990 C   0  0  0  0  0  0  0  0  0  0  0  0
  145.5700  158.8610  133.2840 C   0  0  0  0  0  0  0  0  0  0  0  0
  139.3619  157.6500  135.2451 H   0  0  0  0  0  0  0  0  0  0  0  0
  138.7089  159.0079  134.2672 H   0  0  0  0  0  0  0  0  0  0  0  0
  137.8731  157.4179  134.2672 H   0  0  0  0  0  0  0  0  0  0  0  0
  140.6570  157.7750  133.3710 H   0  0  0  0  0  0  0  0  0  0  0  0
  138.7491  159.1247  132.2020 H   0  0  0  0  0  0  0  0  0  0  0  0
  140.1683  158.4357  131.3430 H   0  0  0  0  0  0  0  0  0  0  0  0
  138.6034  157.5538  131.3430 H   0  0  0  0  0  0  0  0  0  0  0  0
  138.7669  155.6051  133.4269 H   0  0  0  0  0  0  0  0  0  0  0  0
  139.7967  155.8252  131.9174 H   0  0  0  0  0  0  0  0  0  0  0  0
  140.5094  154.4456  134.2606 H   0  0  0  0  0  0  0  0  0  0  0  0
  141.5706  154.9290  132.8894 H   0  0  0  0  0  0  0  0  0  0  0  0
  142.9193  155.7463  136.0050 H   0  0  0  0  0  0  0  0  0  0  0  0
  142.7934  154.5412  134.6767 H   0  0  0  0  0  0  0  0  0  0  0  0
  144.6846  156.6438  134.9356 H   0  0  0  0  0  0  0  0  0  0  0  0
  144.3912  155.5579  133.5010 H   0  0  0  0  0  0  0  0  0  0  0  0
  141.5280  158.3240  134.1190 H   0  0  0  0  0  0  0  0  0  0  0  0
  144.7245  161.9593  133.9857 H   0  0  0  0  0  0  0  0  0  0  0  0
  147.5404  161.6354  133.5477 H   0  0  0  0  0  0  0  0  0  0  0  0
  149.2947  159.9075  133.0194 H   0  0  0  0  0  0  0  0  0  0  0  0
  149.6550  157.1010  133.2790 H   0  0  0  0  0  0  0  0  0  0  0  0
  148.8400  156.7300  131.7240 H   0  0  0  0  0  0  0  0  0  0  0  0
  146.2165  156.8249  132.8552 H   0  0  0  0  0  0  0  0  0  0  0  0
  1  2  1  0
  2  3  1  0
  2  4  1  0
  4  5  1  0
  5  6  1  0
  6  7  1  0
  7  8  1  0
  8  9  1  0
  9 10  2  0
  9 11  1  0
 11 12  1  0
 12 13  1  0
 13 14  1  0
 13 15  2  0
 12 16  2  0
 16 17  1  0
 17 18  2  0
 18 19  1  0
 19 20  2  0
 20 21  1  0
 20 22  1  0
 22 23  2  0
 23 11  1  0
 23 17  1  0
  1 24  1  0
  1 25  1  0
  1 26  1  0
  2 27  1  0
  3 28  1  0
  3 29  1  0
  3 30  1  0
  4 31  1  0
  4 32  1  0
  5 33  1  0
  5 34  1  0
  7 35  1  0
  7 36  1  0
  8 37  1  0
  8 38  1  0
 14 39  1  0
 16 40  1  0
 18 41  1  0
 19 42  1  0
 21 43  1  0
 21 44  1  0
 22 45  1  0
M  CHG  2   2   1  14  -1
M  END
>  <UniqueID>  (6) 
6

>  <SMILES>  (6) 
C[NH+](C)CCOCCC(=O)n1c(C([NH-])=O)cc2ccc(N)cc21

>  <Energy>  (6) 
84.08203694229812

>  <Genealogy>  (6) 
C[NH+](C)CCOCCC(=O)n1c(C([NH-])=O)cc2ccc(N)cc21 (protonated)
C[NH+](C)CCOCCC(=O)n1c(C([NH-])=O)cc2ccc(N)cc21 (3D coordinates assigned)
C[NH+](C)CCOCCC(=O)n1c(C([NH-])=O)cc2ccc(N)cc21 (optimized conformer: 84.08203694229812 kcal/mol)

>  <smiles>  (6) 
CN(C)CCOCCC(=O)n1c(C(N)=O)cc2ccc(N)cc21

>  <score_type>  (6) 
oracle

>  <origin>  (6) 
adg

>  <m_score__min__energy>  (6) 
-5.1100000000000003

>  <m_primary>  (6) 
energy

$$$$
6:0
     RDKit          3D

 40 41  0  0  0  0  0  0  0  0999 V2000
  139.4340  157.2690  132.5910 C   0  0  0  0  0  0  0  0  0  0  0  0
  139.1490  158.6740  133.1180 C   0  0  2  0  0  0  0  0  0  0  0  0
  138.3800  159.4210  132.1260 N   0  0  0  0  0  0  0  0  0  0  0  0
  138.6760  159.4110  130.7280 C   0  0  0  0  0  0  0  0  0  0  0  0
  138.3300  160.3680  129.9860 O   0  0  0  0  0  0  0  0  0  0  0  0
  140.4320  159.3910  133.4250 C   0  0  0  0  0  0  0  0  0  0  0  0
  141.0000  160.0830  132.5340 O   0  0  0  0  0  0  0  0  0  0  0  0
  140.9800  159.2950  134.7070 O   0  0  0  0  0  0  0  0  0  0  0  0
  141.8010  158.2050  135.1120 C   0  0  0  0  0  0  0  0  0  0  0  0
  143.1710  158.5520  134.9450 O   0  0  0  0  0  0  0  0  0  0  0  0
  143.8480  158.4030  133.7290 C   0  0  0  0  0  0  0  0  0  0  0  0
  143.3100  157.7780  132.7740 O   0  0  0  0  0  0  0  0  0  0  0  0
  145.1490  158.9870  133.5600 N   0  0  0  0  0  0  0  0  0  0  0  0
  145.4770  160.3100  133.5730 C   0  0  0  0  0  0  0  0  0  0  0  0
  144.5720  161.4240  133.9250 C   0  0  0  0  0  0  0  0  0  0  0  0
  143.1670  161.2880  133.7210 N   0  0  0  0  0  0  0  0  0  0  0  0
  145.0280  162.5100  134.3690 O   0  0  0  0  0  0  0  0  0  0  0  0
  146.8300  160.4820  133.2870 C   0  0  0  0  0  0  0  0  0  0  0  0
  147.3270  159.2120  133.1020 C   0  0  0  0  0  0  0  0  0  0  0  0
  148.6150  158.7930  132.7820 C   0  0  0  0  0  0  0  0  0  0  0  0
  148.8400  157.4160  132.6220 C   0  0  0  0  0  0  0  0  0  0  0  0
  147.7790  156.4890  132.7780 C   0  0  0  0  0  0  0  0  0  0  0  0
  148.0190  155.0180  132.5900 C   0  0  0  0  0  0  0  0  0  0  0  0
  149.3610  154.7920  132.3400 F   0  0  0  0  0  0  0  0  0  0  0  0
  147.6460  154.3350  133.7330 F   0  0  0  0  0  0  0  0  0  0  0  0
  146.4850  156.9510  133.1020 C   0  0  0  0  0  0  0  0  0  0  0  0
  146.2940  158.3280  133.2730 C   0  0  0  0  0  0  0  0  0  0  0  0
  139.5736  156.5810  133.4379 H   0  0  0  0  0  0  0  0  0  0  0  0
  138.5866  156.9285  131.9778 H   0  0  0  0  0  0  0  0  0  0  0  0
  140.3471  157.2856  131.9778 H   0  0  0  0  0  0  0  0  0  0  0  0
  138.5656  158.5957  134.0473 H   0  0  0  0  0  0  0  0  0  0  0  0
  139.2137  158.5552  130.2938 H   0  0  0  0  0  0  0  0  0  0  0  0
  141.6080  157.9746  136.1701 H   0  0  0  0  0  0  0  0  0  0  0  0
  141.5693  157.3241  134.4954 H   0  0  0  0  0  0  0  0  0  0  0  0
  142.6920  160.3680  133.8590 H   0  0  0  0  0  0  0  0  0  0  0  0
  147.3830  161.4307  133.2228 H   0  0  0  0  0  0  0  0  0  0  0  0
  149.4324  159.5187  132.6581 H   0  0  0  0  0  0  0  0  0  0  0  0
  149.8484  157.0536  132.3734 H   0  0  0  0  0  0  0  0  0  0  0  0
  147.4216  154.6621  131.7376 H   0  0  0  0  0  0  0  0  0  0  0  0
  145.6476  156.2471  133.2173 H   0  0  0  0  0  0  0  0  0  0  0  0
  1  2  1  0
  2  3  1  0
  3  4  1  0
  4  5  2  0
  2  6  1  0
  6  7  2  0
  6  8  1  0
  8  9  1  0
  9 10  1  0
 10 11  1  0
 11 12  2  0
 11 13  1  0
 13 14  1  0
 14 15  1  0
 15 16  1  0
 15 17  2  0
 14 18  2  0
 18 19  1  0
 19 20  2  0
 20 21  1  0
 21 22  2  0
 22 23  1  0
 23 24  1  0
 23 25  1  0
 22 26  1  0
 26 27  2  0
 27 13  1  0
 27 19  1  0
  1 28  1  0
  1 29  1  0
  1 30  1  0
  2 31  1  1
  4 32  1  0
  9 33  1  0
  9 34  1  0
 16 35  1  0
 18 36  1  0
 20 37  1  0
 21 38  1  0
 23 39  1  0
 26 40  1  0
M  CHG  2   3  -1  16  -1
M  END
>  <UniqueID>  (7) 
7

>  <SMILES>  (7) 
C[C@H]([N-]C=O)C(=O)OCOC(=O)n1c(C([NH-])=O)cc2ccc(C(F)F)cc21

>  <Energy>  (7) 
69.94043335209136

>  <Genealogy>  (7) 
CC([N-]C=O)C(=O)OCOC(=O)n1c(C([NH-])=O)cc2ccc(C(F)F)cc21 (protonated)
C[C@H]([N-]C=O)C(=O)OCOC(=O)n1c(C([NH-])=O)cc2ccc(C(F)F)cc21 (chirality)
C[C@H]([N-]C=O)C(=O)OCOC(=O)n1c(C([NH-])=O)cc2ccc(C(F)F)cc21 (3D coordinates assigned)
C[C@H]([N-]C=O)C(=O)OCOC(=O)n1c(C([NH-])=O)cc2ccc(C(F)F)cc21 (optimized conformer: 69.94043335209136 kcal/mol)

>  <smiles>  (7) 
CC(NC=O)C(=O)OCOC(=O)n1c(C(N)=O)cc2ccc(C(F)F)cc21

>  <score_type>  (7) 
oracle

>  <origin>  (7) 
adg

>  <m_score__min__energy>  (7) 
-6.46

>  <m_primary>  (7) 
energy

$$$$
7:0
     RDKit          3D

 46 47  0  0  0  0  0  0  0  0999 V2000
  148.9370  161.8410  130.4280 C   0  0  0  0  0  0  0  0  0  0  0  0
  148.8580  160.5140  131.1200 C   0  0  0  0  0  0  0  0  0  0  0  0
  150.0180  159.7110  131.2540 C   0  0  0  0  0  0  0  0  0  0  0  0
  149.9600  158.4730  131.9180 C   0  0  0  0  0  0  0  0  0  0  0  0
  148.7360  158.0770  132.4510 C   0  0  0  0  0  0  0  0  0  0  0  0
  148.3900  156.9250  133.1210 C   0  0  0  0  0  0  0  0  0  0  0  0
  147.0340  157.0600  133.4150 C   0  0  0  0  0  0  0  0  0  0  0  0
  146.2530  156.0590  134.1720 C   0  0  0  0  0  0  0  0  0  0  0  0
  145.0320  156.4100  134.8160 N   0  0  0  0  0  0  0  0  0  0  0  0
  146.6850  154.8780  134.2720 O   0  0  0  0  0  0  0  0  0  0  0  0
  146.5640  158.2510  132.9470 N   0  0  0  0  0  0  0  0  0  0  0  0
  145.2180  158.7450  133.0000 C   0  0  0  0  0  0  0  0  0  0  0  0
  144.2750  158.0090  132.6020 O   0  0  0  0  0  0  0  0  0  0  0  0
  144.9430  160.0950  133.5390 C   0  0  0  0  0  0  0  0  0  0  0  0
  145.9160  160.8470  133.8160 O   0  0  0  0  0  0  0  0  0  0  0  0
  143.5660  160.5830  133.7780 C   0  0  0  0  0  0  0  0  0  0  0  0
  143.3190  161.8180  133.7340 O   0  0  0  0  0  0  0  0  0  0  0  0
  142.5110  159.6510  134.0660 N   0  0  0  0  0  0  0  0  0  0  0  0
  141.1400  160.0680  134.3640 C   0  0  0  0  0  0  0  0  0  0  0  0
  140.6180  159.3740  135.6300 C   0  0  0  0  0  0  0  0  0  0  0  0
  141.7440  158.8080  136.5020 C   0  0  0  0  0  0  0  0  0  0  0  0
  142.3450  157.6430  135.8640 N   0  0  0  0  0  0  0  0  0  0  0  0
  141.6360  156.4210  135.6530 C   0  0  0  0  0  0  0  0  0  0  0  0
  141.0520  155.8480  136.6120 O   0  0  0  0  0  0  0  0  0  0  0  0
  141.5490  155.8470  134.2790 C   0  0  0  0  0  0  0  0  0  0  0  0
  142.4070  156.5520  133.4280 O   0  0  0  0  0  0  0  0  0  0  0  0
  147.6150  158.8590  132.3580 C   0  0  0  0  0  0  0  0  0  0  0  0
  147.6380  160.0870  131.6890 C   0  0  0  0  0  0  0  0  0  0  0  0
  148.9848  162.6437  131.1786 H   0  0  0  0  0  0  0  0  0  0  0  0
  149.8387  161.8733  129.7987 H   0  0  0  0  0  0  0  0  0  0  0  0
  148.0455  161.9800  129.7987 H   0  0  0  0  0  0  0  0  0  0  0  0
  150.9732  160.0597  130.8344 H   0  0  0  0  0  0  0  0  0  0  0  0
  150.8529  157.8377  132.0134 H   0  0  0  0  0  0  0  0  0  0  0  0
  149.0450  156.0774  133.3713 H   0  0  0  0  0  0  0  0  0  0  0  0
  144.3180  156.9970  134.3330 H   0  0  0  0  0  0  0  0  0  0  0  0
  142.6980  158.6270  133.9700 H   0  0  0  0  0  0  0  0  0  0  0  0
  141.1202  161.1572  134.5164 H   0  0  0  0  0  0  0  0  0  0  0  0
  140.4957  159.7860  133.5182 H   0  0  0  0  0  0  0  0  0  0  0  0
  140.0480  160.1050  136.2223 H   0  0  0  0  0  0  0  0  0  0  0  0
  139.9892  158.5298  135.3106 H   0  0  0  0  0  0  0  0  0  0  0  0
  142.5142  159.5802  136.6455 H   0  0  0  0  0  0  0  0  0  0  0  0
  141.3253  158.5062  137.4734 H   0  0  0  0  0  0  0  0  0  0  0  0
  141.8449  154.7878  134.3039 H   0  0  0  0  0  0  0  0  0  0  0  0
  140.5158  155.9285  133.9105 H   0  0  0  0  0  0  0  0  0  0  0  0
  143.1300  156.9140  134.0060 H   0  0  0  0  0  0  0  0  0  0  0  0
  146.7306  160.7035  131.6082 H   0  0  0  0  0  0  0  0  0  0  0  0
  1  2  1  0
  2  3  2  0
  3  4  1  0
  4  5  2  0
  5  6  1  0
  6  7  2  0
  7  8  1  0
  8  9  1  0
  8 10  2  0
  7 11  1  0
 11 12  1  0
 12 13  2  0
 12 14  1  0
 14 15  2  0
 14 16  1  0
 16 17  2  0
 16 18  1  0
 18 19  1  0
 19 20  1  0
 20 21  1  0
 21 22  1  0
 22 23  1  0
 23 24  2  0
 23 25  1  0
 25 26  1  0
 11 27  1  0
 27 28  2  0
 28  2  1  0
 27  5  1  0
  1 29  1  0
  1 30  1  0
  1 31  1  0
  3 32  1  0
  4 33  1  0
  6 34  1  0
  9 35  1  0
 18 36  1  0
 19 37  1  0
 19 38  1  0
 20 39  1  0
 20 40  1  0
 21 41  1  0
 21 42  1  0
 25 43  1  0
 25 44  1  0
 26 45  1  0
 28 46  1  0
M  CHG  2   9  -1  22  -1
M  END
>  <UniqueID>  (8) 
8

>  <SMILES>  (8) 
Cc1ccc2cc(C([NH-])=O)n(C(=O)C(=O)C(=O)NCCC[N-]C(=O)CO)c2c1

>  <Energy>  (8) 
74.15098771117353

>  <Genealogy>  (8) 
Cc1ccc2cc(C([NH-])=O)n(C(=O)C(=O)C(=O)NCCC[N-]C(=O)CO)c2c1 (protonated)
Cc1ccc2cc(C([NH-])=O)n(C(=O)C(=O)C(=O)NCCC[N-]C(=O)CO)c2c1 (3D coordinates assigned)
Cc1ccc2cc(C([NH-])=O)n(C(=O)C(=O)C(=O)NCCC[N-]C(=O)CO)c2c1 (optimized conformer: 74.15098771117353 kcal/mol)

>  <smiles>  (8) 
Cc1ccc2cc(C(N)=O)n(C(=O)C(=O)C(=O)NCCCNC(=O)CO)c2c1

>  <score_type>  (8) 
oracle

>  <origin>  (8) 
adg

>  <m_score__min__energy>  (8) 
-6.1699999999999999

>  <m_primary>  (8) 
energy

$$$$
8:0
     RDKit          3D

 40 41  0  0  0  0  0  0  0  0999 V2000
  142.8520  158.3120  134.4860 H   0  0  0  0  0  0  0  0  0  0  0  0
  142.7600  159.2920  134.3540 O   0  0  0  0  0  0  0  0  0  0  0  0
  141.3900  159.5520  134.2130 C   0  0  0  0  0  0  0  0  0  0  0  0
  141.0334  159.1204  133.2661 H   0  0  0  0  0  0  0  0  0  0  0  0
  141.2283  160.6401  134.2129 H   0  0  0  0  0  0  0  0  0  0  0  0
  140.6270  158.9410  135.3570 C   0  0  0  0  0  0  0  0  0  0  0  0
  140.8603  159.3058  136.3682 H   0  0  0  0  0  0  0  0  0  0  0  0
  139.6820  157.9850  135.2500 C   0  0  0  0  0  0  0  0  0  0  0  0
  139.1544  157.7034  136.1732 H   0  0  0  0  0  0  0  0  0  0  0  0
  139.2760  157.2610  133.9830 C   0  0  2  0  0  0  0  0  0  0  0  0
  138.4840  156.5540  134.2710 H   0  0  0  0  0  0  0  0  0  0  0  0
  140.3770  156.5310  133.4370 O   0  0  0  0  0  0  0  0  0  0  0  0
  140.3280  155.1530  133.1860 C   0  0  0  0  0  0  0  0  0  0  0  0
  139.2290  154.5860  132.9390 O   0  0  0  0  0  0  0  0  0  0  0  0
  141.5410  154.3870  133.1660 N   0  0  0  0  0  0  0  0  0  0  0  0
  142.8190  154.8560  133.1390 C   0  0  0  0  0  0  0  0  0  0  0  0
  143.2230  156.2730  133.2440 C   0  0  0  0  0  0  0  0  0  0  0  0
  144.0870  156.6060  134.0980 O   0  0  0  0  0  0  0  0  0  0  0  0
  142.6160  157.2810  132.4350 N   0  0  0  0  0  0  0  0  0  0  0  0
  141.7690  157.0780  131.8590 H   0  0  0  0  0  0  0  0  0  0  0  0
  142.9550  158.2680  132.4880 H   0  0  0  0  0  0  0  0  0  0  0  0
  143.7240  153.8030  133.0200 C   0  0  0  0  0  0  0  0  0  0  0  0
  144.8208  153.8683  132.9676 H   0  0  0  0  0  0  0  0  0  0  0  0
  142.9520  152.6630  132.9820 C   0  0  0  0  0  0  0  0  0  0  0  0
  143.3280  151.3310  132.8410 C   0  0  0  0  0  0  0  0  0  0  0  0
  144.3882  151.0434  132.7830 H   0  0  0  0  0  0  0  0  0  0  0  0
  142.3090  150.3640  132.7750 C   0  0  0  0  0  0  0  0  0  0  0  0
  142.5728  149.3007  132.6758 H   0  0  0  0  0  0  0  0  0  0  0  0
  140.9460  150.7460  132.8350 C   0  0  0  0  0  0  0  0  0  0  0  0
  139.8700  149.7020  132.7280 C   0  0  0  0  0  0  0  0  0  0  0  0
  139.4235  149.5413  133.7204 H   0  0  0  0  0  0  0  0  0  0  0  0
  140.4130  148.5160  132.2710 F   0  0  0  0  0  0  0  0  0  0  0  0
  138.8960  150.1290  131.8450 F   0  0  0  0  0  0  0  0  0  0  0  0
  140.6060  152.1100  132.9680 C   0  0  0  0  0  0  0  0  0  0  0  0
  139.5533  152.4281  132.9945 H   0  0  0  0  0  0  0  0  0  0  0  0
  141.6380  153.0450  133.0650 C   0  0  0  0  0  0  0  0  0  0  0  0
  138.6750  158.1920  132.9290 C   0  0  0  0  0  0  0  0  0  0  0  0
  138.1433  159.0157  133.4278 H   0  0  0  0  0  0  0  0  0  0  0  0
  139.4793  158.6021  132.3006 H   0  0  0  0  0  0  0  0  0  0  0  0
  137.9702  157.6279  132.3006 H   0  0  0  0  0  0  0  0  0  0  0  0
  1  2  1  0
  2  3  1  0
  3  4  1  0
  3  5  1  0
  3  6  1  0
  6  7  1  0
  6  8  2  0
  8  9  1  0
  8 10  1  0
 10 11  1  1
 10 12  1  0
 12 13  1  0
 13 14  2  0
 13 15  1  0
 15 16  1  0
 16 17  1  0
 17 18  2  0
 17 19  1  0
 19 20  1  0
 19 21  1  0
 16 22  2  0
 22 23  1  0
 22 24  1  0
 24 25  2  0
 25 26  1  0
 25 27  1  0
 27 28  1  0
 27 29  2  0
 29 30  1  0
 30 31  1  0
 30 32  1  0
 30 33  1  0
 29 34  1  0
 34 35  1  0
 34 36  2  0
 10 37  1  0
 37 38  1  0
 37 39  1  0
 37 40  1  0
 36 15  1  0
 36 24  1  0
M  END
>  <UniqueID>  (9) 
9

>  <SMILES>  (9) 
C[C@H](/C=C\CO)OC(=O)n1c(C(N)=O)cc2ccc(C(F)F)cc21

>  <Energy>  (9) 
76.27064131224458

>  <Genealogy>  (9) 
C[C@H](/C=C\CO)OC(=O)n1c(C(N)=O)cc2ccc(C(F)F)cc21 (chirality)
C[C@H](/C=C\CO)OC(=O)n1c(C(N)=O)cc2ccc(C(F)F)cc21 (cis-trans isomerization)
C[C@H](/C=C\CO)OC(=O)n1c(C(N)=O)cc2ccc(C(F)F)cc21 (3D coordinates assigned)
C[C@H](/C=C\CO)OC(=O)n1c(C(N)=O)cc2ccc(C(F)F)cc21 (optimized conformer: 76.27064131224458 kcal/mol)

>  <smiles>  (9) 
CC(/C=C\CO)OC(=O)n1c(C(N)=O)cc2ccc(C(F)F)cc21

>  <score_type>  (9) 
oracle

>  <origin>  (9) 
adg

>  <m_score__min__energy>  (9) 
-6.4000000000000004

>  <m_primary>  (9) 
energy

$$$$
9:0
     RDKit          3D

 31 32  0  0  0  0  0  0  0  0999 V2000
  148.4640  154.2410  133.3390 C   0  0  0  0  0  0  0  0  0  0  0  0
  147.5370  154.4970  132.2350 N   0  0  0  0  0  0  0  0  0  0  0  0
  146.5960  155.5240  132.6040 C   0  0  0  0  0  0  0  0  0  0  0  0
  145.2810  155.1750  133.0070 C   0  0  0  0  0  0  0  0  0  0  0  0
  144.3600  156.1670  133.3850 C   0  0  0  0  0  0  0  0  0  0  0  0
  144.7840  157.4920  133.3650 C   0  0  0  0  0  0  0  0  0  0  0  0
  144.0930  158.6470  133.6580 C   0  0  0  0  0  0  0  0  0  0  0  0
  145.0050  159.6820  133.4640 C   0  0  0  0  0  0  0  0  0  0  0  0
  144.7000  161.0980  133.7530 C   0  0  0  0  0  0  0  0  0  0  0  0
  145.7330  162.0120  134.1110 N   0  0  0  0  0  0  0  0  0  0  0  0
  143.5040  161.4950  133.7300 O   0  0  0  0  0  0  0  0  0  0  0  0
  146.2100  159.1880  133.0600 N   0  0  0  0  0  0  0  0  0  0  0  0
  147.3740  159.9310  132.6640 C   0  0  0  0  0  0  0  0  0  0  0  0
  148.0970  160.4800  133.5400 O   0  0  0  0  0  0  0  0  0  0  0  0
  147.7110  160.0240  131.3100 O   0  0  0  0  0  0  0  0  0  0  0  0
  148.6540  160.9630  130.8040 C   0  0  0  0  0  0  0  0  0  0  0  0
  149.9550  160.1200  129.9230 Cl  0  0  0  0  0  0  0  0  0  0  0  0
  146.0590  157.8460  133.0050 C   0  0  0  0  0  0  0  0  0  0  0  0
  146.9910  156.8820  132.6060 C   0  0  0  0  0  0  0  0  0  0  0  0
  147.9424  154.3851  134.2967 H   0  0  0  0  0  0  0  0  0  0  0  0
  148.8340  153.2071  133.2749 H   0  0  0  0  0  0  0  0  0  0  0  0
  149.3121  154.9385  133.2749 H   0  0  0  0  0  0  0  0  0  0  0  0
  148.0800  154.7920  131.3900 H   0  0  0  0  0  0  0  0  0  0  0  0
  147.0300  153.6110  132.0000 H   0  0  0  0  0  0  0  0  0  0  0  0
  144.9794  154.1173  133.0237 H   0  0  0  0  0  0  0  0  0  0  0  0
  143.3356  155.9040  133.6873 H   0  0  0  0  0  0  0  0  0  0  0  0
  143.0439  158.7337  133.9773 H   0  0  0  0  0  0  0  0  0  0  0  0
  146.6170  162.0660  133.5580 H   0  0  0  0  0  0  0  0  0  0  0  0
  148.1436  161.6573  130.1203 H   0  0  0  0  0  0  0  0  0  0  0  0
  149.0934  161.5180  131.6460 H   0  0  0  0  0  0  0  0  0  0  0  0
  148.0069  157.1733  132.3011 H   0  0  0  0  0  0  0  0  0  0  0  0
  1  2  1  0
  2  3  1  0
  3  4  2  0
  4  5  1  0
  5  6  2  0
  6  7  1  0
  7  8  2  0
  8  9  1  0
  9 10  1  0
  9 11  2  0
  8 12  1  0
 12 13  1  0
 13 14  2  0
 13 15  1  0
 15 16  1  0
 16 17  1  0
 12 18  1  0
 18 19  2  0
 19  3  1  0
 18  6  1  0
  1 20  1  0
  1 21  1  0
  1 22  1  0
  2 23  1  0
  2 24  1  0
  4 25  1  0
  5 26  1  0
  7 27  1  0
 10 28  1  0
 16 29  1  0
 16 30  1  0
 19 31  1  0
M  CHG  2   2   1  10  -1
M  END
>  <UniqueID>  (10) 
10

>  <SMILES>  (10) 
C[NH2+]c1ccc2cc(C([NH-])=O)n(C(=O)OCCl)c2c1

>  <Energy>  (10) 
68.56581016859259

>  <Genealogy>  (10) 
C[NH2+]c1ccc2cc(C([NH-])=O)n(C(=O)OCCl)c2c1 (protonated)
C[NH2+]c1ccc2cc(C([NH-])=O)n(C(=O)OCCl)c2c1 (3D coordinates assigned)
C[NH2+]c1ccc2cc(C([NH-])=O)n(C(=O)OCCl)c2c1 (optimized conformer: 68.56581016859259 kcal/mol)

>  <smiles>  (10) 
CNc1ccc2cc(C(N)=O)n(C(=O)OCCl)c2c1

>  <score_type>  (10) 
oracle

>  <origin>  (10) 
adg

>  <m_score__min__energy>  (10) 
-5.79

>  <m_primary>  (10) 
energy

$$$$
10:0
     RDKit          3D

 49 52  0  0  0  0  0  0  0  0999 V2000
  141.1610  158.1470  134.9820 C   0  0  0  0  0  0  0  0  0  0  0  0
  141.3280  157.4530  133.6150 C   0  0  0  0  0  0  0  0  0  0  0  0
  140.4690  158.1930  132.5770 C   0  0  0  0  0  0  0  0  0  0  0  0
  140.8650  155.9850  133.6930 C   0  0  0  0  0  0  0  0  0  0  0  0
  142.6890  157.5260  133.1680 O   0  0  0  0  0  0  0  0  0  0  0  0
  143.8340  157.2830  133.9390 C   0  0  0  0  0  0  0  0  0  0  0  0
  143.8150  156.4390  134.8730 O   0  0  0  0  0  0  0  0  0  0  0  0
  145.0430  158.0060  133.6550 N   0  0  0  0  0  0  0  0  0  0  0  0
  145.1790  159.3520  133.4910 C   0  0  0  0  0  0  0  0  0  0  0  0
  144.1330  160.3640  133.7400 C   0  0  0  0  0  0  0  0  0  0  0  0
  142.8450  160.2610  133.1320 N   0  0  0  0  0  0  0  0  0  0  0  0
  144.3620  161.3060  134.5460 O   0  0  0  0  0  0  0  0  0  0  0  0
  146.4730  159.6710  133.0860 C   0  0  0  0  0  0  0  0  0  0  0  0
  147.1380  158.4680  133.0170 C   0  0  0  0  0  0  0  0  0  0  0  0
  148.4510  158.1950  132.6460 C   0  0  0  0  0  0  0  0  0  0  0  0
  148.8610  156.8500  132.6190 C   0  0  0  0  0  0  0  0  0  0  0  0
  147.9540  155.8170  132.9500 C   0  0  0  0  0  0  0  0  0  0  0  0
  148.3780  154.4540  132.9020 N   0  0  0  0  0  0  0  0  0  0  0  0
  147.7780  153.1180  133.1430 C   0  0  0  0  0  0  0  0  0  0  0  0
  149.0210  152.3760  132.8260 C   0  0  0  0  0  0  0  0  0  0  0  0
  149.6250  151.3800  133.7650 C   0  0  0  0  0  0  0  0  0  0  0  0
  149.6360  150.3890  132.7530 O   0  0  0  0  0  0  0  0  0  0  0  0
  149.0650  151.2790  131.8080 C   0  0  0  0  0  0  0  0  0  0  0  0
  149.6210  153.7090  132.5840 C   0  0  0  0  0  0  0  0  0  0  0  0
  146.6300  156.1300  133.3200 C   0  0  0  0  0  0  0  0  0  0  0  0
  146.2530  157.4780  133.3610 C   0  0  0  0  0  0  0  0  0  0  0  0
  141.3364  157.4182  135.7871 H   0  0  0  0  0  0  0  0  0  0  0  0
  141.8870  158.9690  135.0670 H   0  0  0  0  0  0  0  0  0  0  0  0
  140.1405  158.5488  135.0670 H   0  0  0  0  0  0  0  0  0  0  0  0
  139.7335  158.8266  133.0943 H   0  0  0  0  0  0  0  0  0  0  0  0
  141.1156  158.8214  131.9469 H   0  0  0  0  0  0  0  0  0  0  0  0
  139.9432  157.4605  131.9469 H   0  0  0  0  0  0  0  0  0  0  0  0
  140.7706  155.6858  134.7473 H   0  0  0  0  0  0  0  0  0  0  0  0
  139.8904  155.8809  133.1937 H   0  0  0  0  0  0  0  0  0  0  0  0
  141.6035  155.3406  133.1937 H   0  0  0  0  0  0  0  0  0  0  0  0
  142.5670  159.4060  132.5990 H   0  0  0  0  0  0  0  0  0  0  0  0
  142.1280  161.0040  133.2890 H   0  0  0  0  0  0  0  0  0  0  0  0
  146.8770  160.6706  132.8680 H   0  0  0  0  0  0  0  0  0  0  0  0
  149.1463  159.0055  132.3822 H   0  0  0  0  0  0  0  0  0  0  0  0
  149.8947  156.5998  132.3384 H   0  0  0  0  0  0  0  0  0  0  0  0
  147.4437  152.9761  134.1813 H   0  0  0  0  0  0  0  0  0  0  0  0
  146.8640  152.8548  132.5905 H   0  0  0  0  0  0  0  0  0  0  0  0
  150.6264  151.6589  134.1249 H   0  0  0  0  0  0  0  0  0  0  0  0
  149.1367  151.1716  134.7284 H   0  0  0  0  0  0  0  0  0  0  0  0
  149.7177  151.4949  130.9493 H   0  0  0  0  0  0  0  0  0  0  0  0
  148.1482  150.9932  131.2715 H   0  0  0  0  0  0  0  0  0  0  0  0
  150.4496  153.9399  133.2696 H   0  0  0  0  0  0  0  0  0  0  0  0
  150.0975  153.8916  131.6095 H   0  0  0  0  0  0  0  0  0  0  0  0
  145.9115  155.3355  133.5701 H   0  0  0  0  0  0  0  0  0  0  0  0
  1  2  1  0
  2  3  1  0
  2  4  1  0
  2  5  1  0
  5  6  1  0
  6  7  2  0
  6  8  1  0
  8  9  1  0
  9 10  1  0
 10 11  1  0
 10 12  2  0
  9 13  2  0
 13 14  1  0
 14 15  2  0
 15 16  1  0
 16 17  2  0
 17 18  1  0
 18 19  1  0
 19 20  1  0
 20 21  1  0
 21 22  1  0
 22 23  1  0
 20 24  1  0
 17 25  1  0
 25 26  2  0
 26  8  1  0
 26 14  1  0
 24 18  1  0
 23 20  1  0
  1 27  1  0
  1 28  1  0
  1 29  1  0
  3 30  1  0
  3 31  1  0
  3 32  1  0
  4 33  1  0
  4 34  1  0
  4 35  1  0
 11 36  1  0
 11 37  1  0
 13 38  1  0
 15 39  1  0
 16 40  1  0
 19 41  1  0
 19 42  1  0
 21 43  1  0
 21 44  1  0
 23 45  1  0
 23 46  1  0
 24 47  1  0
 24 48  1  0
 25 49  1  0
M  END
>  <UniqueID>  (11) 
11

>  <SMILES>  (11) 
CC(C)(C)OC(=O)n1c(C(N)=O)cc2ccc(N3CC4(COC4)C3)cc21

>  <Energy>  (11) 
208.81942490638724

>  <Genealogy>  (11) 
CC(C)(C)OC(=O)n1c(C(N)=O)cc2ccc(N3CC4(COC4)C3)cc21 (3D coordinates assigned)
CC(C)(C)OC(=O)n1c(C(N)=O)cc2ccc(N3CC4(COC4)C3)cc21 (nonaromatic ring conformer: 208.81942490638724 kcal/mol)

>  <smiles>  (11) 
CC(C)(C)OC(=O)n1c(C(N)=O)cc2ccc(N3CC4(COC4)C3)cc21

>  <score_type>  (11) 
oracle

>  <origin>  (11) 
adg

>  <m_score__min__energy>  (11) 
-8.2200000000000006

>  <m_primary>  (11) 
energy

$$$$
11:0
     RDKit          3D

 38 39  0  0  0  0  0  0  0  0999 V2000
  142.6030  160.8770  133.6070 N   0  0  0  0  0  0  0  0  0  0  0  0
  144.0060  161.0920  133.7380 C   0  0  0  0  0  0  0  0  0  0  0  0
  144.4250  162.2250  134.0940 O   0  0  0  0  0  0  0  0  0  0  0  0
  144.9680  159.9920  133.5220 C   0  0  0  0  0  0  0  0  0  0  0  0
  146.3350  160.1970  133.3460 C   0  0  0  0  0  0  0  0  0  0  0  0
  146.8870  158.9380  133.2830 C   0  0  0  0  0  0  0  0  0  0  0  0
  148.2140  158.5510  133.1260 C   0  0  0  0  0  0  0  0  0  0  0  0
  148.5000  157.1770  133.0830 C   0  0  0  0  0  0  0  0  0  0  0  0
  147.4590  156.2160  133.1710 C   0  0  0  0  0  0  0  0  0  0  0  0
  147.7870  154.7440  133.1670 C   0  0  0  0  0  0  0  0  0  0  0  0
  146.7490  154.0120  132.6150 F   0  0  0  0  0  0  0  0  0  0  0  0
  147.9950  154.3210  134.4650 F   0  0  0  0  0  0  0  0  0  0  0  0
  148.9290  154.5020  132.4240 F   0  0  0  0  0  0  0  0  0  0  0  0
  146.1260  156.6500  133.3500 C   0  0  0  0  0  0  0  0  0  0  0  0
  145.8720  158.0260  133.4100 C   0  0  0  0  0  0  0  0  0  0  0  0
  144.6840  158.6580  133.5550 N   0  0  0  0  0  0  0  0  0  0  0  0
  143.3950  158.0300  133.6420 C   0  0  0  0  0  0  0  0  0  0  0  0
  142.6090  158.0580  132.6550 O   0  0  0  0  0  0  0  0  0  0  0  0
  143.0330  157.3570  134.8100 O   0  0  0  0  0  0  0  0  0  0  0  0
  142.1180  157.8840  135.7630 C   0  0  0  0  0  0  0  0  0  0  0  0
  140.9820  158.5150  135.0320 C   0  0  0  0  0  0  0  0  0  0  0  0
  140.6950  159.7260  135.2380 O   0  0  0  0  0  0  0  0  0  0  0  0
  140.1920  157.7190  134.1440 N   0  0  0  0  0  0  0  0  0  0  0  0
  139.0350  158.2280  133.4160 C   0  0  0  0  0  0  0  0  0  0  0  0
  139.4770  158.8730  132.1010 C   0  0  0  0  0  0  0  0  0  0  0  0
  140.5080  159.7940  132.3350 O   0  0  0  0  0  0  0  0  0  0  0  0
  142.1960  159.9190  133.6850 H   0  0  0  0  0  0  0  0  0  0  0  0
  146.8610  161.1603  133.2729 H   0  0  0  0  0  0  0  0  0  0  0  0
  149.0155  159.2993  133.0382 H   0  0  0  0  0  0  0  0  0  0  0  0
  149.5425  156.8415  132.9799 H   0  0  0  0  0  0  0  0  0  0  0  0
  145.3057  155.9227  133.4403 H   0  0  0  0  0  0  0  0  0  0  0  0
  141.7418  157.0728  136.4037 H   0  0  0  0  0  0  0  0  0  0  0  0
  142.6210  158.6316  136.3939 H   0  0  0  0  0  0  0  0  0  0  0  0
  138.3480  157.3967  133.1995 H   0  0  0  0  0  0  0  0  0  0  0  0
  138.5283  158.9846  134.0332 H   0  0  0  0  0  0  0  0  0  0  0  0
  139.8369  158.0912  131.4160 H   0  0  0  0  0  0  0  0  0  0  0  0
  138.6207  159.3993  131.6542 H   0  0  0  0  0  0  0  0  0  0  0  0
  141.0340  159.4440  133.1010 H   0  0  0  0  0  0  0  0  0  0  0  0
  1  2  1  0
  2  3  2  0
  2  4  1  0
  4  5  2  0
  5  6  1  0
  6  7  2  0
  7  8  1  0
  8  9  2  0
  9 10  1  0
 10 11  1  0
 10 12  1  0
 10 13  1  0
  9 14  1  0
 14 15  2  0
 15 16  1  0
 16 17  1  0
 17 18  2  0
 17 19  1  0
 19 20  1  0
 20 21  1  0
 21 22  2  0
 21 23  1  0
 23 24  1  0
 24 25  1  0
 25 26  1  0
 16  4  1  0
 15  6  1  0
  1 27  1  0
  5 28  1  0
  7 29  1  0
  8 30  1  0
 14 31  1  0
 20 32  1  0
 20 33  1  0
 24 34  1  0
 24 35  1  0
 25 36  1  0
 25 37  1  0
 26 38  1  0
M  CHG  2   1  -1  23  -1
M  END
>  <UniqueID>  (12) 
12

>  <SMILES>  (12) 
[NH-]C(=O)c1cc2ccc(C(F)(F)F)cc2n1C(=O)OCC(=O)[N-]CCO

>  <Energy>  (12) 
69.59735172836466

>  <Genealogy>  (12) 
[NH-]C(=O)c1cc2ccc(C(F)(F)F)cc2n1C(=O)OCC(=O)[N-]CCO (protonated)
[NH-]C(=O)c1cc2ccc(C(F)(F)F)cc2n1C(=O)OCC(=O)[N-]CCO (3D coordinates assigned)
[NH-]C(=O)c1cc2ccc(C(F)(F)F)cc2n1C(=O)OCC(=O)[N-]CCO (optimized conformer: 69.59735172836466 kcal/mol)

>  <smiles>  (12) 
NC(=O)c1cc2ccc(C(F)(F)F)cc2n1C(=O)OCC(=O)NCCO

>  <score_type>  (12) 
oracle

>  <origin>  (12) 
adg

>  <m_score__min__energy>  (12) 
-5.0899999999999999

>  <m_primary>  (12) 
energy

$$$$
12:0
     RDKit          3D

 50 52  0  0  0  0  0  0  0  0999 V2000
  140.7810  151.4090  132.5740 C   0  0  0  0  0  0  0  0  0  0  0  0
  141.0410  152.8420  133.0090 C   0  0  0  0  0  0  0  0  0  0  0  0
  142.3730  152.9550  133.4570 O   0  0  0  0  0  0  0  0  0  0  0  0
  142.6800  154.5900  133.8320 P   0  0  1  0  0  0  0  0  0  0  0  0
  141.4640  155.4210  133.4810 O   0  0  0  0  0  0  0  0  0  0  0  0
  142.9730  154.7140  135.4940 O   0  0  0  0  0  0  0  0  0  0  0  0
  144.0310  155.1440  132.9500 O   0  0  0  0  0  0  0  0  0  0  0  0
  145.1820  154.4800  133.4150 C   0  0  0  0  0  0  0  0  0  0  0  0
  145.7750  155.2800  134.5690 C   0  0  0  0  0  0  0  0  0  0  0  0
  146.9490  155.9630  134.1330 O   0  0  0  0  0  0  0  0  0  0  0  0
  147.0020  156.7600  132.9860 C   0  0  0  0  0  0  0  0  0  0  0  0
  147.2920  156.2420  131.8730 O   0  0  0  0  0  0  0  0  0  0  0  0
  146.7540  158.1760  133.0820 N   0  0  0  0  0  0  0  0  0  0  0  0
  147.6380  159.1950  132.8710 C   0  0  0  0  0  0  0  0  0  0  0  0
  149.0090  159.0630  132.3360 C   0  0  0  0  0  0  0  0  0  0  0  0
  149.6030  157.7800  132.1530 N   0  0  0  0  0  0  0  0  0  0  0  0
  149.6360  160.0930  131.9710 O   0  0  0  0  0  0  0  0  0  0  0  0
  147.0350  160.4280  133.1030 C   0  0  0  0  0  0  0  0  0  0  0  0
  145.7330  160.1410  133.4360 C   0  0  0  0  0  0  0  0  0  0  0  0
  144.6730  161.0000  133.7090 C   0  0  0  0  0  0  0  0  0  0  0  0
  143.4160  160.4320  133.9740 C   0  0  0  0  0  0  0  0  0  0  0  0
  143.2490  159.0260  133.9830 C   0  0  0  0  0  0  0  0  0  0  0  0
  141.8880  158.4200  134.1830 C   0  0  0  0  0  0  0  0  0  0  0  0
  141.7100  158.0680  135.5900 N   0  0  0  0  0  0  0  0  0  0  0  0
  141.5440  158.9330  136.6090 C   0  0  0  0  0  0  0  0  0  0  0  0
  141.5180  158.2040  137.7800 C   0  0  0  0  0  0  0  0  0  0  0  0
  141.3800  158.6860  139.0390 F   0  0  0  0  0  0  0  0  0  0  0  0
  141.6870  156.8840  137.4100 C   0  0  0  0  0  0  0  0  0  0  0  0
  141.8050  156.8370  136.0700 N   0  0  0  0  0  0  0  0  0  0  0  0
  144.3510  158.1850  133.7180 C   0  0  0  0  0  0  0  0  0  0  0  0
  145.5860  158.7760  133.4220 C   0  0  0  0  0  0  0  0  0  0  0  0
  140.6653  150.7713  133.4628 H   0  0  0  0  0  0  0  0  0  0  0  0
  139.8611  151.3697  131.9722 H   0  0  0  0  0  0  0  0  0  0  0  0
  141.6285  151.0490  131.9722 H   0  0  0  0  0  0  0  0  0  0  0  0
  140.8801  153.5200  132.1579 H   0  0  0  0  0  0  0  0  0  0  0  0
  140.3526  153.1122  133.8233 H   0  0  0  0  0  0  0  0  0  0  0  0
  144.9125  153.4720  133.7633 H   0  0  0  0  0  0  0  0  0  0  0  0
  145.9182  154.3924  132.6024 H   0  0  0  0  0  0  0  0  0  0  0  0
  145.0357  156.0141  134.9218 H   0  0  0  0  0  0  0  0  0  0  0  0
  146.0378  154.5942  135.3879 H   0  0  0  0  0  0  0  0  0  0  0  0
  149.2190  157.1050  131.4560 H   0  0  0  0  0  0  0  0  0  0  0  0
  147.5018  161.4216  133.0343 H   0  0  0  0  0  0  0  0  0  0  0  0
  144.8151  162.0908  133.7170 H   0  0  0  0  0  0  0  0  0  0  0  0
  142.5541  161.0849  134.1762 H   0  0  0  0  0  0  0  0  0  0  0  0
  141.1168  159.1463  133.8870 H   0  0  0  0  0  0  0  0  0  0  0  0
  141.7972  157.5142  133.5655 H   0  0  0  0  0  0  0  0  0  0  0  0
  141.4466  160.0253  136.5229 H   0  0  0  0  0  0  0  0  0  0  0  0
  141.7195  156.0214  138.0918 H   0  0  0  0  0  0  0  0  0  0  0  0
  141.9660  155.9810  135.4940 H   0  0  0  0  0  0  0  0  0  0  0  0
  144.2426  157.0906  133.7433 H   0  0  0  0  0  0  0  0  0  0  0  0
  1  2  1  0
  2  3  1  0
  3  4  1  0
  4  5  2  0
  4  6  1  1
  4  7  1  0
  7  8  1  0
  8  9  1  0
  9 10  1  0
 10 11  1  0
 11 12  2  0
 11 13  1  0
 13 14  1  0
 14 15  1  0
 15 16  1  0
 15 17  2  0
 14 18  2  0
 18 19  1  0
 19 20  2  0
 20 21  1  0
 21 22  2  0
 22 23  1  0
 23 24  1  0
 24 25  1  0
 25 26  2  0
 26 27  1  0
 26 28  1  0
 28 29  2  0
 22 30  1  0
 30 31  2  0
 31 13  1  0
 31 19  1  0
 29 24  1  0
  1 32  1  0
  1 33  1  0
  1 34  1  0
  2 35  1  0
  2 36  1  0
  8 37  1  0
  8 38  1  0
  9 39  1  0
  9 40  1  0
 16 41  1  0
 18 42  1  0
 20 43  1  0
 21 44  1  0
 23 45  1  0
 23 46  1  0
 25 47  1  0
 28 48  1  0
 29 49  1  0
 30 50  1  0
M  CHG  3   6  -1  16  -1  29   1
M  END
>  <UniqueID>  (13) 
13

>  <SMILES>  (13) 
CCO[P@@](=O)([O-])OCCOC(=O)n1c(C([NH-])=O)cc2ccc(Cn3cc(F)c[nH+]3)cc21

>  <Energy>  (13) 
111.779431678528

>  <Genealogy>  (13) 
CCOP(=O)([O-])OCCOC(=O)n1c(C([NH-])=O)cc2ccc(Cn3cc(F)c[nH+]3)cc21 (protonated)
CCO[P@@](=O)([O-])OCCOC(=O)n1c(C([NH-])=O)cc2ccc(Cn3cc(F)c[nH+]3)cc21 (chirality)
CCO[P@@](=O)([O-])OCCOC(=O)n1c(C([NH-])=O)cc2ccc(Cn3cc(F)c[nH+]3)cc21 (3D coordinates assigned)
CCO[P@@](=O)([O-])OCCOC(=O)n1c(C([NH-])=O)cc2ccc(Cn3cc(F)c[nH+]3)cc21 (optimized conformer: 111.779431678528 kcal/mol)

>  <smiles>  (13) 
CCOP(=O)(O)OCCOC(=O)n1c(C(N)=O)cc2ccc(Cn3cc(F)cn3)cc21

>  <score_type>  (13) 
oracle

>  <origin>  (13) 
adg

>  <m_score__min__energy>  (13) 
-6.1699999999999999

>  <m_primary>  (13) 
energy

$$$$
13:0
     RDKit          3D

 47 49  0  0  0  0  0  0  0  0999 V2000
  138.1590  157.7730  133.1870 N   0  0  0  0  0  0  0  0  0  0  0  0
  139.0500  158.8070  132.7580 C   0  0  0  0  0  0  0  0  0  0  0  0
  138.6110  159.7470  132.0400 O   0  0  0  0  0  0  0  0  0  0  0  0
  140.4890  158.7580  133.0910 C   0  0  0  0  0  0  0  0  0  0  0  0
  141.3190  159.8740  133.0630 C   0  0  0  0  0  0  0  0  0  0  0  0
  142.5780  159.3960  133.3430 C   0  0  0  0  0  0  0  0  0  0  0  0
  143.7950  160.0690  133.4130 C   0  0  0  0  0  0  0  0  0  0  0  0
  144.9480  159.3180  133.6900 C   0  0  0  0  0  0  0  0  0  0  0  0
  144.8650  157.9180  133.9040 C   0  0  0  0  0  0  0  0  0  0  0  0
  146.1220  157.1180  134.1490 C   0  0  0  0  0  0  0  0  0  0  0  0
  147.1210  157.1600  132.9750 C   0  0  0  0  0  0  0  0  0  0  0  0
  148.3950  157.9830  133.2540 C   0  0  0  0  0  0  0  0  0  0  0  0
  148.7360  158.9400  132.1370 C   0  0  0  0  0  0  0  0  0  0  0  0
  149.9730  158.8490  131.4740 C   0  0  0  0  0  0  0  0  0  0  0  0
  150.3070  159.7690  130.4750 C   0  0  0  0  0  0  0  0  0  0  0  0
  149.4070  160.7780  130.1220 C   0  0  0  0  0  0  0  0  0  0  0  0
  148.1670  160.8610  130.7580 C   0  0  0  0  0  0  0  0  0  0  0  0
  147.8260  159.9420  131.7550 C   0  0  0  0  0  0  0  0  0  0  0  0
  143.6050  157.2810  133.8800 C   0  0  0  0  0  0  0  0  0  0  0  0
  142.4790  158.0440  133.5480 C   0  0  0  0  0  0  0  0  0  0  0  0
  141.2000  157.6350  133.3930 N   0  0  0  0  0  0  0  0  0  0  0  0
  140.6860  156.3050  133.5810 C   0  0  0  0  0  0  0  0  0  0  0  0
  140.0400  155.7390  132.6550 O   0  0  0  0  0  0  0  0  0  0  0  0
  140.8920  155.6460  134.7990 O   0  0  0  0  0  0  0  0  0  0  0  0
  141.3130  156.3210  135.9800 C   0  0  0  0  0  0  0  0  0  0  0  0
  140.4030  157.4740  136.2390 C   0  0  0  0  0  0  0  0  0  0  0  0
  140.7830  158.4330  136.9600 O   0  0  0  0  0  0  0  0  0  0  0  0
  139.1330  157.4980  135.6720 O   0  0  0  0  0  0  0  0  0  0  0  0
  137.1380  157.8530  132.9950 H   0  0  0  0  0  0  0  0  0  0  0  0
  138.5180  156.9110  133.6500 H   0  0  0  0  0  0  0  0  0  0  0  0
  141.0302  160.9159  132.8603 H   0  0  0  0  0  0  0  0  0  0  0  0
  143.8511  161.1563  133.2560 H   0  0  0  0  0  0  0  0  0  0  0  0
  145.9255  159.8198  133.7417 H   0  0  0  0  0  0  0  0  0  0  0  0
  146.6203  157.5192  135.0438 H   0  0  0  0  0  0  0  0  0  0  0  0
  145.8165  156.0687  134.2743 H   0  0  0  0  0  0  0  0  0  0  0  0
  147.4219  156.1280  132.7418 H   0  0  0  0  0  0  0  0  0  0  0  0
  146.6039  157.6542  132.1393 H   0  0  0  0  0  0  0  0  0  0  0  0
  148.2433  158.5616  134.1771 H   0  0  0  0  0  0  0  0  0  0  0  0
  149.2309  157.2740  133.3463 H   0  0  0  0  0  0  0  0  0  0  0  0
  150.6808  158.0508  131.7423 H   0  0  0  0  0  0  0  0  0  0  0  0
  151.2798  159.6982  129.9663 H   0  0  0  0  0  0  0  0  0  0  0  0
  149.6755  161.5068  129.3431 H   0  0  0  0  0  0  0  0  0  0  0  0
  147.4565  161.6513  130.4740 H   0  0  0  0  0  0  0  0  0  0  0  0
  146.8419  160.0029  132.2427 H   0  0  0  0  0  0  0  0  0  0  0  0
  143.5104  156.2109  134.1165 H   0  0  0  0  0  0  0  0  0  0  0  0
  141.2783  155.6266  136.8324 H   0  0  0  0  0  0  0  0  0  0  0  0
  142.3424  156.6859  135.8491 H   0  0  0  0  0  0  0  0  0  0  0  0
  1  2  1  0
  2  3  2  0
  2  4  1  0
  4  5  2  0
  5  6  1  0
  6  7  2  0
  7  8  1  0
  8  9  2  0
  9 10  1  0
 10 11  1  0
 11 12  1  0
 12 13  1  0
 13 14  2  0
 14 15  1  0
 15 16  2  0
 16 17  1  0
 17 18  2  0
  9 19  1  0
 19 20  2  0
 20 21  1  0
 21 22  1  0
 22 23  2  0
 22 24  1  0
 24 25  1  0
 25 26  1  0
 26 27  2  0
 26 28  1  0
 21  4  1  0
 20  6  1  0
 18 13  1  0
  1 29  1  0
  1 30  1  0
  5 31  1  0
  7 32  1  0
  8 33  1  0
 10 34  1  0
 10 35  1  0
 11 36  1  0
 11 37  1  0
 12 38  1  0
 12 39  1  0
 14 40  1  0
 15 41  1  0
 16 42  1  0
 17 43  1  0
 18 44  1  0
 19 45  1  0
 25 46  1  0
 25 47  1  0
M  CHG  1  28  -1
M  END
>  <UniqueID>  (14) 
14

>  <SMILES>  (14) 
NC(=O)c1cc2ccc(CCCc3ccccc3)cc2n1C(=O)OCC(=O)[O-]

>  <Energy>  (14) 
78.60201520948382

>  <Genealogy>  (14) 
NC(=O)c1cc2ccc(CCCc3ccccc3)cc2n1C(=O)OCC(=O)[O-] (protonated)
NC(=O)c1cc2ccc(CCCc3ccccc3)cc2n1C(=O)OCC(=O)[O-] (3D coordinates assigned)
NC(=O)c1cc2ccc(CCCc3ccccc3)cc2n1C(=O)OCC(=O)[O-] (optimized conformer: 78.60201520948382 kcal/mol)

>  <smiles>  (14) 
NC(=O)c1cc2ccc(CCCc3ccccc3)cc2n1C(=O)OCC(=O)O

>  <score_type>  (14) 
oracle

>  <origin>  (14) 
adg

>  <m_score__min__energy>  (14) 
-8.8800000000000008

>  <m_primary>  (14) 
energy

$$$$
14:0
     RDKit          3D

 36 37  0  0  0  0  0  0  0  0999 V2000
  146.2230  162.2970  134.4720 N   0  0  0  0  0  0  0  0  0  0  0  0
  145.0960  161.6030  133.9450 C   0  0  0  0  0  0  0  0  0  0  0  0
  144.0110  162.2230  133.7780 O   0  0  0  0  0  0  0  0  0  0  0  0
  145.1640  160.1570  133.6440 C   0  0  0  0  0  0  0  0  0  0  0  0
  144.0440  159.3320  133.5920 C   0  0  0  0  0  0  0  0  0  0  0  0
  144.5340  158.0620  133.3840 C   0  0  0  0  0  0  0  0  0  0  0  0
  143.8600  156.8550  133.2420 C   0  0  0  0  0  0  0  0  0  0  0  0
  144.6230  155.6980  133.0100 C   0  0  0  0  0  0  0  0  0  0  0  0
  146.0360  155.7630  132.9180 C   0  0  0  0  0  0  0  0  0  0  0  0
  146.7740  154.5500  132.6660 N   0  0  0  0  0  0  0  0  0  0  0  0
  147.9880  154.1490  133.3790 C   0  0  0  0  0  0  0  0  0  0  0  0
  149.2350  154.4280  132.5410 C   0  0  0  0  0  0  0  0  0  0  0  0
  149.5470  155.7920  132.5950 O   0  0  0  0  0  0  0  0  0  0  0  0
  146.6830  157.0160  133.0570 C   0  0  0  0  0  0  0  0  0  0  0  0
  145.8990  158.1470  133.3100 C   0  0  0  0  0  0  0  0  0  0  0  0
  146.3020  159.4280  133.4650 N   0  0  0  0  0  0  0  0  0  0  0  0
  147.6540  159.9060  133.3820 C   0  0  0  0  0  0  0  0  0  0  0  0
  148.5340  159.4400  134.1560 O   0  0  0  0  0  0  0  0  0  0  0  0
  147.9800  160.9060  132.4590 O   0  0  0  0  0  0  0  0  0  0  0  0
  148.3360  160.6380  131.1050 C   0  0  0  0  0  0  0  0  0  0  0  0
  149.3600  159.5500  131.0410 C   0  0  0  0  0  0  0  0  0  0  0  0
  150.5470  159.8190  130.7200 O   0  0  0  0  0  0  0  0  0  0  0  0
  148.9980  158.2350  131.3050 O   0  0  0  0  0  0  0  0  0  0  0  0
  147.1920  162.0620  134.1630 H   0  0  0  0  0  0  0  0  0  0  0  0
  142.9905  159.6312  133.6952 H   0  0  0  0  0  0  0  0  0  0  0  0
  142.7631  156.8068  133.3092 H   0  0  0  0  0  0  0  0  0  0  0  0
  144.1165  154.7280  132.8982 H   0  0  0  0  0  0  0  0  0  0  0  0
  146.4300  153.9080  131.9160 H   0  0  0  0  0  0  0  0  0  0  0  0
  148.0544  154.7131  134.3210 H   0  0  0  0  0  0  0  0  0  0  0  0
  147.9355  153.0685  133.5786 H   0  0  0  0  0  0  0  0  0  0  0  0
  150.0792  153.8443  132.9368 H   0  0  0  0  0  0  0  0  0  0  0  0
  149.0429  154.1403  131.4968 H   0  0  0  0  0  0  0  0  0  0  0  0
  149.0860  156.2100  131.8220 H   0  0  0  0  0  0  0  0  0  0  0  0
  147.7764  157.0977  132.9681 H   0  0  0  0  0  0  0  0  0  0  0  0
  147.4395  160.3252  130.5496 H   0  0  0  0  0  0  0  0  0  0  0  0
  148.7572  161.5512  130.6592 H   0  0  0  0  0  0  0  0  0  0  0  0
  1  2  1  0
  2  3  2  0
  2  4  1  0
  4  5  2  0
  5  6  1  0
  6  7  2  0
  7  8  1  0
  8  9  2  0
  9 10  1  0
 10 11  1  0
 11 12  1  0
 12 13  1  0
  9 14  1  0
 14 15  2  0
 15 16  1  0
 16 17  1  0
 17 18  2  0
 17 19  1  0
 19 20  1  0
 20 21  1  0
 21 22  2  0
 21 23  1  0
 16  4  1  0
 15  6  1  0
  1 24  1  0
  5 25  1  0
  7 26  1  0
  8 27  1  0
 10 28  1  0
 11 29  1  0
 11 30  1  0
 12 31  1  0
 12 32  1  0
 13 33  1  0
 14 34  1  0
 20 35  1  0
 20 36  1  0
M  CHG  2   1  -1  23  -1
M  END
>  <UniqueID>  (15) 
15

>  <SMILES>  (15) 
[NH-]C(=O)c1cc2ccc(NCCO)cc2n1C(=O)OCC(=O)[O-]

>  <Energy>  (15) 
69.99628977419067

>  <Genealogy>  (15) 
[NH-]C(=O)c1cc2ccc(NCCO)cc2n1C(=O)OCC(=O)[O-] (protonated)
[NH-]C(=O)c1cc2ccc(NCCO)cc2n1C(=O)OCC(=O)[O-] (3D coordinates assigned)
[NH-]C(=O)c1cc2ccc(NCCO)cc2n1C(=O)OCC(=O)[O-] (optimized conformer: 69.99628977419067 kcal/mol)

>  <smiles>  (15) 
NC(=O)c1cc2ccc(NCCO)cc2n1C(=O)OCC(=O)O

>  <score_type>  (15) 
oracle

>  <origin>  (15) 
adg

>  <m_score__min__energy>  (15) 
-6.1299999999999999

>  <m_primary>  (15) 
energy

$$$$
15:0
     RDKit          3D

 41 43  0  0  0  0  0  0  0  0999 V2000
  138.4740  157.7860  132.9050 N   0  0  0  0  0  0  0  0  0  0  0  0
  139.4700  156.8070  133.2040 C   0  0  0  0  0  0  0  0  0  0  0  0
  139.1210  155.6070  133.3570 O   0  0  0  0  0  0  0  0  0  0  0  0
  140.8880  157.1970  133.3670 C   0  0  0  0  0  0  0  0  0  0  0  0
  141.8660  156.3630  133.9080 C   0  0  0  0  0  0  0  0  0  0  0  0
  143.0450  157.0610  133.7900 C   0  0  0  0  0  0  0  0  0  0  0  0
  144.3340  156.7090  134.1760 C   0  0  0  0  0  0  0  0  0  0  0  0
  145.3660  157.6350  133.9560 C   0  0  0  0  0  0  0  0  0  0  0  0
  145.0980  158.9010  133.3650 C   0  0  0  0  0  0  0  0  0  0  0  0
  146.1300  159.8900  133.1290 N   0  0  0  0  0  0  0  0  0  0  0  0
  147.5890  159.6990  133.1340 C   0  0  2  0  0  0  0  0  0  0  0  0
  148.3140  160.5250  132.0730 C   0  0  0  0  0  0  0  0  0  0  0  0
  149.0430  159.6640  131.2260 O   0  0  0  0  0  0  0  0  0  0  0  0
  149.1790  158.4330  131.8980 C   0  0  0  0  0  0  0  0  0  0  0  0
  148.0030  158.2680  132.8520 C   0  0  1  0  0  0  0  0  0  0  0  0
  148.3580  157.5670  134.0210 O   0  0  0  0  0  0  0  0  0  0  0  0
  143.7720  159.2140  132.9880 C   0  0  0  0  0  0  0  0  0  0  0  0
  142.7660  158.2630  133.2000 C   0  0  0  0  0  0  0  0  0  0  0  0
  141.4440  158.3640  132.9330 N   0  0  0  0  0  0  0  0  0  0  0  0
  140.7720  159.5010  132.3670 C   0  0  0  0  0  0  0  0  0  0  0  0
  140.7710  160.6020  132.9810 O   0  0  0  0  0  0  0  0  0  0  0  0
  140.1320  159.3850  131.1300 O   0  0  0  0  0  0  0  0  0  0  0  0
  139.0680  160.2450  130.7290 C   0  0  0  0  0  0  0  0  0  0  0  0
  138.3450  160.6540  131.8540 O   0  0  0  0  0  0  0  0  0  0  0  0
  138.7290  158.7810  132.7150 H   0  0  0  0  0  0  0  0  0  0  0  0
  137.4700  157.5070  132.8300 H   0  0  0  0  0  0  0  0  0  0  0  0
  141.7245  155.3603  134.3377 H   0  0  0  0  0  0  0  0  0  0  0  0
  144.5390  155.7331  134.6403 H   0  0  0  0  0  0  0  0  0  0  0  0
  146.3959  157.3781  134.2445 H   0  0  0  0  0  0  0  0  0  0  0  0
  145.8100  160.8650  132.9240 H   0  0  0  0  0  0  0  0  0  0  0  0
  147.8694  160.0132  134.1502 H   0  0  0  0  0  0  0  0  0  0  0  0
  147.5780  161.0871  131.4794 H   0  0  0  0  0  0  0  0  0  0  0  0
  149.0032  161.2286  132.5628 H   0  0  0  0  0  0  0  0  0  0  0  0
  149.1821  157.6104  131.1677 H   0  0  0  0  0  0  0  0  0  0  0  0
  150.1245  158.4139  132.4599 H   0  0  0  0  0  0  0  0  0  0  0  0
  147.1864  157.6651  132.4283 H   0  0  0  0  0  0  0  0  0  0  0  0
  149.3430  157.6210  134.1320 H   0  0  0  0  0  0  0  0  0  0  0  0
  143.5343  160.1882  132.5357 H   0  0  0  0  0  0  0  0  0  0  0  0
  139.4828  161.1274  130.2199 H   0  0  0  0  0  0  0  0  0  0  0  0
  138.4000  159.7036  130.0429 H   0  0  0  0  0  0  0  0  0  0  0  0
  138.8470  161.4180  132.2430 H   0  0  0  0  0  0  0  0  0  0  0  0
  1  2  1  0
  2  3  2  0
  2  4  1  0
  4  5  2  0
  5  6  1  0
  6  7  2  0
  7  8  1  0
  8  9  2  0
  9 10  1  0
 10 11  1  0
 11 12  1  0
 12 13  1  0
 13 14  1  0
 14 15  1  0
 15 16  1  0
  9 17  1  0
 17 18  2  0
 18 19  1  0
 19 20  1  0
 20 21  2  0
 20 22  1  0
 22 23  1  0
 23 24  1  0
 19  4  1  0
 18  6  1  0
 15 11  1  0
  1 25  1  0
  1 26  1  0
  5 27  1  0
  7 28  1  0
  8 29  1  0
 10 30  1  0
 11 31  1  1
 12 32  1  0
 12 33  1  0
 14 34  1  0
 14 35  1  0
 15 36  1  6
 16 37  1  0
 17 38  1  0
 23 39  1  0
 23 40  1  0
 24 41  1  0
M  END
>  <UniqueID>  (16) 
16

>  <SMILES>  (16) 
NC(=O)c1cc2ccc(N[C@@H]3COC[C@H]3O)cc2n1C(=O)OCO

>  <Energy>  (16) 
85.37877615500494

>  <Genealogy>  (16) 
NC(=O)c1cc2ccc(N[C@@H]3COC[C@H]3O)cc2n1C(=O)OCO (3D coordinates assigned)
NC(=O)c1cc2ccc(N[C@@H]3COC[C@H]3O)cc2n1C(=O)OCO (nonaromatic ring conformer: 85.37877615500494 kcal/mol)

>  <smiles>  (16) 
NC(=O)c1cc2ccc(N[C@@H]3COC[C@H]3O)cc2n1C(=O)OCO

>  <score_type>  (16) 
oracle

>  <origin>  (16) 
adg

>  <m_score__min__energy>  (16) 
-7.2699999999999996

>  <m_primary>  (16) 
energy

$$$$
16:0
     RDKit          3D

 42 44  0  0  0  0  0  0  0  0999 V2000
  142.8430  150.3040  132.6200 C   0  0  0  0  0  0  0  0  0  0  0  0
  143.7540  151.4840  132.6070 C   0  0  0  0  0  0  0  0  0  0  0  0
  145.0390  151.4420  132.2010 N   0  0  0  0  0  0  0  0  0  0  0  0
  145.4840  152.7020  132.3360 C   0  0  0  0  0  0  0  0  0  0  0  0
  144.4410  153.4680  132.8120 C   0  0  0  0  0  0  0  0  0  0  0  0
  144.4860  154.9200  133.1580 C   0  0  0  0  0  0  0  0  0  0  0  0
  145.6710  155.1890  134.0320 C   0  0  0  0  0  0  0  0  0  0  0  0
  145.7590  154.6400  135.1610 O   0  0  0  0  0  0  0  0  0  0  0  0
  146.7450  156.0070  133.5550 N   0  0  0  0  0  0  0  0  0  0  0  0
  147.9910  155.6110  133.1800 C   0  0  0  0  0  0  0  0  0  0  0  0
  148.4830  154.2180  133.1740 C   0  0  0  0  0  0  0  0  0  0  0  0
  148.0660  153.3120  134.1930 N   0  0  0  0  0  0  0  0  0  0  0  0
  149.2720  153.8200  132.2770 O   0  0  0  0  0  0  0  0  0  0  0  0
  148.7500  156.7130  132.7870 C   0  0  0  0  0  0  0  0  0  0  0  0
  147.9200  157.8020  132.9410 C   0  0  0  0  0  0  0  0  0  0  0  0
  148.1560  159.1520  132.7110 C   0  0  0  0  0  0  0  0  0  0  0  0
  147.1160  160.0580  132.9800 C   0  0  0  0  0  0  0  0  0  0  0  0
  145.8590  159.6090  133.4720 C   0  0  0  0  0  0  0  0  0  0  0  0
  144.8010  160.5530  133.7670 N   0  0  0  0  0  0  0  0  0  0  0  0
  145.1200  161.9420  134.1150 C   0  0  0  0  0  0  0  0  0  0  0  0
  143.3990  160.1220  133.7520 C   0  0  0  0  0  0  0  0  0  0  0  0
  145.6610  158.2210  133.6800 C   0  0  0  0  0  0  0  0  0  0  0  0
  146.7150  157.3470  133.4040 C   0  0  0  0  0  0  0  0  0  0  0  0
  143.3910  152.6950  132.9690 O   0  0  0  0  0  0  0  0  0  0  0  0
  142.6245  150.0209  133.6602 H   0  0  0  0  0  0  0  0  0  0  0  0
  141.9052  150.5591  132.1047 H   0  0  0  0  0  0  0  0  0  0  0  0
  143.3271  149.4613  132.1047 H   0  0  0  0  0  0  0  0  0  0  0  0
  145.5760  150.6130  131.8640 H   0  0  0  0  0  0  0  0  0  0  0  0
  146.4991  153.0590  132.1076 H   0  0  0  0  0  0  0  0  0  0  0  0
  144.5682  155.5141  132.2359 H   0  0  0  0  0  0  0  0  0  0  0  0
  143.5658  155.1978  133.6928 H   0  0  0  0  0  0  0  0  0  0  0  0
  147.0550  153.0950  134.3350 H   0  0  0  0  0  0  0  0  0  0  0  0
  149.7904  156.7129  132.4299 H   0  0  0  0  0  0  0  0  0  0  0  0
  149.1272  159.5008  132.3300 H   0  0  0  0  0  0  0  0  0  0  0  0
  147.2766  161.1324  132.8072 H   0  0  0  0  0  0  0  0  0  0  0  0
  145.1447  162.0494  135.2095 H   0  0  0  0  0  0  0  0  0  0  0  0
  146.1026  162.2080  133.6982 H   0  0  0  0  0  0  0  0  0  0  0  0
  144.3519  162.6101  133.6982 H   0  0  0  0  0  0  0  0  0  0  0  0
  143.0384  160.0111  134.7853 H   0  0  0  0  0  0  0  0  0  0  0  0
  142.7897  160.8743  133.2297 H   0  0  0  0  0  0  0  0  0  0  0  0
  143.3175  159.1573  133.2297 H   0  0  0  0  0  0  0  0  0  0  0  0
  144.6979  157.8403  134.0508 H   0  0  0  0  0  0  0  0  0  0  0  0
  1  2  1  0
  2  3  2  0
  3  4  1  0
  4  5  2  0
  5  6  1  0
  6  7  1  0
  7  8  2  0
  7  9  1  0
  9 10  1  0
 10 11  1  0
 11 12  1  0
 11 13  2  0
 10 14  2  0
 14 15  1  0
 15 16  2  0
 16 17  1  0
 17 18  2  0
 18 19  1  0
 19 20  1  0
 19 21  1  0
 18 22  1  0
 22 23  2  0
  5 24  1  0
 24  2  1  0
 23  9  1  0
 23 15  1  0
  1 25  1  0
  1 26  1  0
  1 27  1  0
  3 28  1  0
  4 29  1  0
  6 30  1  0
  6 31  1  0
 12 32  1  0
 14 33  1  0
 16 34  1  0
 17 35  1  0
 20 36  1  0
 20 37  1  0
 20 38  1  0
 21 39  1  0
 21 40  1  0
 21 41  1  0
 22 42  1  0
M  CHG  2   3   1  12  -1
M  END
>  <UniqueID>  (17) 
17

>  <SMILES>  (17) 
Cc1[nH+]cc(CC(=O)n2c(C([NH-])=O)cc3ccc(N(C)C)cc32)o1

>  <Energy>  (17) 
109.77967659027252

>  <Genealogy>  (17) 
Cc1[nH+]cc(CC(=O)n2c(C([NH-])=O)cc3ccc(N(C)C)cc32)o1 (protonated)
Cc1[nH+]cc(CC(=O)n2c(C([NH-])=O)cc3ccc(N(C)C)cc32)o1 (3D coordinates assigned)
Cc1[nH+]cc(CC(=O)n2c(C([NH-])=O)cc3ccc(N(C)C)cc32)o1 (optimized conformer: 109.77967659027252 kcal/mol)

>  <smiles>  (17) 
Cc1ncc(CC(=O)n2c(C(N)=O)cc3ccc(N(C)C)cc32)o1

>  <score_type>  (17) 
oracle

>  <origin>  (17) 
adg

>  <m_score__min__energy>  (17) 
-6.4900000000000002

>  <m_primary>  (17) 
energy

$$$$
17:0
     RDKit          3D

 32 33  0  0  0  0  0  0  0  0999 V2000
  148.3250  153.9560  132.7140 C   0  0  0  0  0  0  0  0  0  0  0  0
  148.0850  155.1320  132.8340 C   0  0  0  0  0  0  0  0  0  0  0  0
  147.7980  156.5350  132.9760 C   0  0  0  0  0  0  0  0  0  0  0  0
  148.8440  157.4810  132.8780 C   0  0  0  0  0  0  0  0  0  0  0  0
  148.5750  158.8550  133.0040 C   0  0  0  0  0  0  0  0  0  0  0  0
  147.2570  159.2430  133.2330 C   0  0  0  0  0  0  0  0  0  0  0  0
  146.7160  160.5000  133.3680 C   0  0  0  0  0  0  0  0  0  0  0  0
  145.3520  160.2970  133.5700 C   0  0  0  0  0  0  0  0  0  0  0  0
  144.3990  161.3920  133.8490 C   0  0  0  0  0  0  0  0  0  0  0  0
  142.9990  161.1650  133.7110 N   0  0  0  0  0  0  0  0  0  0  0  0
  144.8090  162.5380  134.1730 O   0  0  0  0  0  0  0  0  0  0  0  0
  145.0590  158.9650  133.5510 N   0  0  0  0  0  0  0  0  0  0  0  0
  143.7710  158.3410  133.6610 C   0  0  0  0  0  0  0  0  0  0  0  0
  143.0330  158.2350  132.6430 O   0  0  0  0  0  0  0  0  0  0  0  0
  143.3490  157.8320  134.8930 O   0  0  0  0  0  0  0  0  0  0  0  0
  142.7270  156.5610  135.0290 C   0  0  0  0  0  0  0  0  0  0  0  0
  141.3470  156.7090  134.8050 O   0  0  0  0  0  0  0  0  0  0  0  0
  140.8220  158.1400  135.5730 P   0  0  2  0  0  0  0  0  0  0  0  0
  141.5790  158.3400  136.8680 O   0  0  0  0  0  0  0  0  0  0  0  0
  139.1740  157.9950  135.9200 O   0  0  0  0  0  0  0  0  0  0  0  0
  141.0490  159.4790  134.5590 O   0  0  0  0  0  0  0  0  0  0  0  0
  146.2360  158.3330  133.3460 C   0  0  0  0  0  0  0  0  0  0  0  0
  146.4750  156.9590  133.2080 C   0  0  0  0  0  0  0  0  0  0  0  0
  148.5439  152.8836  132.6046 H   0  0  0  0  0  0  0  0  0  0  0  0
  149.8748  157.1398  132.7021 H   0  0  0  0  0  0  0  0  0  0  0  0
  149.3801  159.6003  132.9242 H   0  0  0  0  0  0  0  0  0  0  0  0
  147.2474  161.4622  133.3255 H   0  0  0  0  0  0  0  0  0  0  0  0
  142.6360  160.2700  133.3160 H   0  0  0  0  0  0  0  0  0  0  0  0
  143.1488  155.8616  134.2922 H   0  0  0  0  0  0  0  0  0  0  0  0
  142.9025  156.1637  136.0396 H   0  0  0  0  0  0  0  0  0  0  0  0
  141.9670  159.3810  134.1990 H   0  0  0  0  0  0  0  0  0  0  0  0
  145.6525  156.2321  133.2789 H   0  0  0  0  0  0  0  0  0  0  0  0
  1  2  3  0
  2  3  1  0
  3  4  2  0
  4  5  1  0
  5  6  2  0
  6  7  1  0
  7  8  2  0
  8  9  1  0
  9 10  1  0
  9 11  2  0
  8 12  1  0
 12 13  1  0
 13 14  2  0
 13 15  1  0
 15 16  1  0
 16 17  1  0
 17 18  1  0
 18 19  2  0
 18 20  1  1
 18 21  1  0
 12 22  1  0
 22 23  2  0
 23  3  1  0
 22  6  1  0
  1 24  1  0
  4 25  1  0
  5 26  1  0
  7 27  1  0
 10 28  1  0
 16 29  1  0
 16 30  1  0
 21 31  1  0
 23 32  1  0
M  CHG  2  10  -1  20  -1
M  END
>  <UniqueID>  (18) 
18

>  <SMILES>  (18) 
C#Cc1ccc2cc(C([NH-])=O)n(C(=O)OCO[P@](=O)([O-])O)c2c1

>  <Energy>  (18) 
65.80192455411797

>  <Genealogy>  (18) 
C#Cc1ccc2cc(C([NH-])=O)n(C(=O)OCOP(=O)([O-])O)c2c1 (protonated)
C#Cc1ccc2cc(C([NH-])=O)n(C(=O)OCO[P@](=O)([O-])O)c2c1 (chirality)
C#Cc1ccc2cc(C([NH-])=O)n(C(=O)OCO[P@](=O)([O-])O)c2c1 (3D coordinates assigned)
C#Cc1ccc2cc(C([NH-])=O)n(C(=O)OCO[P@](=O)([O-])O)c2c1 (optimized conformer: 65.80192455411797 kcal/mol)

>  <smiles>  (18) 
C#Cc1ccc2cc(C(N)=O)n(C(=O)OCOP(=O)(O)O)c2c1

>  <score_type>  (18) 
oracle

>  <origin>  (18) 
adg

>  <m_score__min__energy>  (18) 
-5.9500000000000002

>  <m_primary>  (18) 
energy

$$$$
18:0
     RDKit          3D

 44 45  0  0  0  0  0  0  0  0999 V2000
  139.1490  159.9590  131.6100 C   0  0  0  0  0  0  0  0  0  0  0  0
  140.0960  159.8330  132.5500 C   0  0  0  0  0  0  0  0  0  0  0  0
  140.4480  158.4970  133.1760 C   0  0  0  0  0  0  0  0  0  0  0  0
  139.4400  157.4380  132.6720 C   0  0  0  0  0  0  0  0  0  0  0  0
  140.3670  158.6140  134.7120 C   0  0  0  0  0  0  0  0  0  0  0  0
  141.7850  158.1700  132.7670 O   0  0  0  0  0  0  0  0  0  0  0  0
  142.9720  158.6550  133.3440 C   0  0  0  0  0  0  0  0  0  0  0  0
  143.0780  159.8680  133.6700 O   0  0  0  0  0  0  0  0  0  0  0  0
  144.0720  157.7570  133.5730 N   0  0  0  0  0  0  0  0  0  0  0  0
  144.0010  156.4530  133.9690 C   0  0  0  0  0  0  0  0  0  0  0  0
  142.7880  155.7490  134.4340 C   0  0  0  0  0  0  0  0  0  0  0  0
  141.6670  155.5670  133.5680 N   0  0  0  0  0  0  0  0  0  0  0  0
  142.7150  155.3650  135.6300 O   0  0  0  0  0  0  0  0  0  0  0  0
  145.2630  155.8670  133.9740 C   0  0  0  0  0  0  0  0  0  0  0  0
  146.1280  156.8650  133.5940 C   0  0  0  0  0  0  0  0  0  0  0  0
  147.5120  156.8390  133.4510 C   0  0  0  0  0  0  0  0  0  0  0  0
  148.1570  158.0220  133.0550 C   0  0  0  0  0  0  0  0  0  0  0  0
  147.4130  159.2020  132.8110 C   0  0  0  0  0  0  0  0  0  0  0  0
  148.1140  160.4620  132.3770 C   0  0  0  0  0  0  0  0  0  0  0  0
  149.4340  160.1360  131.6760 C   0  0  0  0  0  0  0  0  0  0  0  0
  149.5310  160.8670  130.3720 C   0  0  0  0  0  0  0  0  0  0  0  0
  149.6370  160.2270  129.2900 O   0  0  0  0  0  0  0  0  0  0  0  0
  149.5670  162.2550  130.3540 O   0  0  0  0  0  0  0  0  0  0  0  0
  146.0080  159.1850  132.9400 C   0  0  0  0  0  0  0  0  0  0  0  0
  145.3890  157.9980  133.3570 C   0  0  0  0  0  0  0  0  0  0  0  0
  138.9261  160.9479  131.1829 H   0  0  0  0  0  0  0  0  0  0  0  0
  138.5947  159.0735  131.2656 H   0  0  0  0  0  0  0  0  0  0  0  0
  140.6380  160.7316  132.8797 H   0  0  0  0  0  0  0  0  0  0  0  0
  138.9680  156.9421  133.5330 H   0  0  0  0  0  0  0  0  0  0  0  0
  138.6670  157.9286  132.0623 H   0  0  0  0  0  0  0  0  0  0  0  0
  139.9681  156.6901  132.0623 H   0  0  0  0  0  0  0  0  0  0  0  0
  140.9355  157.7927  135.1728 H   0  0  0  0  0  0  0  0  0  0  0  0
  140.7923  159.5775  135.0293 H   0  0  0  0  0  0  0  0  0  0  0  0
  139.3154  158.5552  135.0293 H   0  0  0  0  0  0  0  0  0  0  0  0
  140.8410  155.0190  133.8910 H   0  0  0  0  0  0  0  0  0  0  0  0
  141.6550  155.9880  132.6120 H   0  0  0  0  0  0  0  0  0  0  0  0
  145.5147  154.8267  134.2280 H   0  0  0  0  0  0  0  0  0  0  0  0
  148.0839  155.9191  133.6425 H   0  0  0  0  0  0  0  0  0  0  0  0
  149.2502  158.0321  132.9332 H   0  0  0  0  0  0  0  0  0  0  0  0
  147.4642  161.0153  131.6829 H   0  0  0  0  0  0  0  0  0  0  0  0
  148.3290  161.0703  133.2679 H   0  0  0  0  0  0  0  0  0  0  0  0
  150.2712  160.4372  132.3228 H   0  0  0  0  0  0  0  0  0  0  0  0
  149.4751  159.0542  131.4809 H   0  0  0  0  0  0  0  0  0  0  0  0
  145.4119  160.0825  132.7185 H   0  0  0  0  0  0  0  0  0  0  0  0
  1  2  2  0
  2  3  1  0
  3  4  1  0
  3  5  1  0
  3  6  1  0
  6  7  1  0
  7  8  2  0
  7  9  1  0
  9 10  1  0
 10 11  1  0
 11 12  1  0
 11 13  2  0
 10 14  2  0
 14 15  1  0
 15 16  2  0
 16 17  1  0
 17 18  2  0
 18 19  1  0
 19 20  1  0
 20 21  1  0
 21 22  2  0
 21 23  1  0
 18 24  1  0
 24 25  2  0
 25  9  1  0
 25 15  1  0
  1 26  1  0
  1 27  1  0
  2 28  1  0
  4 29  1  0
  4 30  1  0
  4 31  1  0
  5 32  1  0
  5 33  1  0
  5 34  1  0
 12 35  1  0
 12 36  1  0
 14 37  1  0
 16 38  1  0
 17 39  1  0
 19 40  1  0
 19 41  1  0
 20 42  1  0
 20 43  1  0
 24 44  1  0
M  CHG  1  23  -1
M  END
>  <UniqueID>  (19) 
19

>  <SMILES>  (19) 
C=CC(C)(C)OC(=O)n1c(C(N)=O)cc2ccc(CCC(=O)[O-])cc21

>  <Energy>  (19) 
75.18372484725454

>  <Genealogy>  (19) 
C=CC(C)(C)OC(=O)n1c(C(N)=O)cc2ccc(CCC(=O)[O-])cc21 (protonated)
C=CC(C)(C)OC(=O)n1c(C(N)=O)cc2ccc(CCC(=O)[O-])cc21 (3D coordinates assigned)
C=CC(C)(C)OC(=O)n1c(C(N)=O)cc2ccc(CCC(=O)[O-])cc21 (optimized conformer: 75.18372484725454 kcal/mol)

>  <smiles>  (19) 
C=CC(C)(C)OC(=O)n1c(C(N)=O)cc2ccc(CCC(=O)O)cc21

>  <score_type>  (19) 
oracle

>  <origin>  (19) 
adg

>  <m_score__min__energy>  (19) 
-8.3300000000000001

>  <m_primary>  (19) 
energy

$$$$
19:0
     RDKit          3D

 39 40  0  0  0  0  0  0  0  0999 V2000
  144.7780  161.8780  134.1380 C   0  0  0  0  0  0  0  0  0  0  0  0
  144.9910  160.3760  133.9690 C   0  0  0  0  0  0  0  0  0  0  0  0
  145.8960  160.1030  132.8520 N   0  0  0  0  0  0  0  0  0  0  0  0
  146.7630  158.9550  132.7590 C   0  0  0  0  0  0  0  0  0  0  0  0
  148.0910  159.1360  132.2960 C   0  0  0  0  0  0  0  0  0  0  0  0
  148.9780  158.0510  132.2050 C   0  0  0  0  0  0  0  0  0  0  0  0
  148.5100  156.7930  132.5710 C   0  0  0  0  0  0  0  0  0  0  0  0
  149.1640  155.5830  132.6070 C   0  0  0  0  0  0  0  0  0  0  0  0
  148.2180  154.6680  133.0630 C   0  0  0  0  0  0  0  0  0  0  0  0
  148.4840  153.2220  133.1920 C   0  0  0  0  0  0  0  0  0  0  0  0
  148.6390  152.6090  134.4730 N   0  0  0  0  0  0  0  0  0  0  0  0
  148.5210  152.5050  132.1570 O   0  0  0  0  0  0  0  0  0  0  0  0
  147.0310  155.2890  133.3130 N   0  0  0  0  0  0  0  0  0  0  0  0
  145.8420  154.7120  133.8800 C   0  0  0  0  0  0  0  0  0  0  0  0
  144.8840  154.3860  133.1270 O   0  0  0  0  0  0  0  0  0  0  0  0
  145.7630  154.5170  135.2650 O   0  0  0  0  0  0  0  0  0  0  0  0
  146.8470  154.2390  136.1060 C   0  0  0  0  0  0  0  0  0  0  0  0
  147.8100  155.0480  136.2170 O   0  0  0  0  0  0  0  0  0  0  0  0
  146.8410  153.0450  136.8300 O   0  0  0  0  0  0  0  0  0  0  0  0
  147.6030  152.8610  138.0180 C   0  0  0  0  0  0  0  0  0  0  0  0
  149.0300  152.6230  137.6530 C   0  0  0  0  0  0  0  0  0  0  0  0
  149.9420  153.3100  138.1820 O   0  0  0  0  0  0  0  0  0  0  0  0
  149.3520  151.6810  136.6830 O   0  0  0  0  0  0  0  0  0  0  0  0
  147.2260  156.5910  133.0050 C   0  0  0  0  0  0  0  0  0  0  0  0
  146.3300  157.6600  133.1340 C   0  0  0  0  0  0  0  0  0  0  0  0
  144.7430  162.1251  135.2093 H   0  0  0  0  0  0  0  0  0  0  0  0
  145.6080  162.4218  133.6632 H   0  0  0  0  0  0  0  0  0  0  0  0
  143.8295  162.1696  133.6632 H   0  0  0  0  0  0  0  0  0  0  0  0
  145.4249  159.9669  134.8933 H   0  0  0  0  0  0  0  0  0  0  0  0
  144.0200  159.9030  133.7604 H   0  0  0  0  0  0  0  0  0  0  0  0
  145.9210  160.8060  132.0790 H   0  0  0  0  0  0  0  0  0  0  0  0
  148.4313  160.1405  132.0040 H   0  0  0  0  0  0  0  0  0  0  0  0
  150.0113  158.1915  131.8550 H   0  0  0  0  0  0  0  0  0  0  0  0
  150.2103  155.3813  132.3340 H   0  0  0  0  0  0  0  0  0  0  0  0
  148.8680  151.5920  134.5430 H   0  0  0  0  0  0  0  0  0  0  0  0
  148.4460  153.1400  135.3510 H   0  0  0  0  0  0  0  0  0  0  0  0
  147.5289  153.7612  138.6458 H   0  0  0  0  0  0  0  0  0  0  0  0
  147.2149  151.9962  138.5760 H   0  0  0  0  0  0  0  0  0  0  0  0
  145.3123  157.4970  133.5182 H   0  0  0  0  0  0  0  0  0  0  0  0
  1  2  1  0
  2  3  1  0
  3  4  1  0
  4  5  2  0
  5  6  1  0
  6  7  2  0
  7  8  1  0
  8  9  2  0
  9 10  1  0
 10 11  1  0
 10 12  2  0
  9 13  1  0
 13 14  1  0
 14 15  2  0
 14 16  1  0
 16 17  1  0
 17 18  2  0
 17 19  1  0
 19 20  1  0
 20 21  1  0
 21 22  2  0
 21 23  1  0
 13 24  1  0
 24 25  2  0
 25  4  1  0
 24  7  1  0
  1 26  1  0
  1 27  1  0
  1 28  1  0
  2 29  1  0
  2 30  1  0
  3 31  1  0
  5 32  1  0
  6 33  1  0
  8 34  1  0
 11 35  1  0
 11 36  1  0
 20 37  1  0
 20 38  1  0
 25 39  1  0
M  CHG  1  23  -1
M  END
>  <UniqueID>  (20) 
20

>  <SMILES>  (20) 
CCNc1ccc2cc(C(N)=O)n(C(=O)OC(=O)OCC(=O)[O-])c2c1

>  <Energy>  (20) 
73.26884320020908

>  <Genealogy>  (20) 
CCNc1ccc2cc(C(N)=O)n(C(=O)OC(=O)OCC(=O)[O-])c2c1 (protonated)
CCNc1ccc2cc(C(N)=O)n(C(=O)OC(=O)OCC(=O)[O-])c2c1 (3D coordinates assigned)
CCNc1ccc2cc(C(N)=O)n(C(=O)OC(=O)OCC(=O)[O-])c2c1 (optimized conformer: 73.26884320020908 kcal/mol)

>  <smiles>  (20) 
CCNc1ccc2cc(C(N)=O)n(C(=O)OC(=O)OCC(=O)O)c2c1

>  <score_type>  (20) 
oracle

>  <origin>  (20) 
adg

>  <m_score__min__energy>  (20) 
-7.1399999999999997

>  <m_primary>  (20) 
energy

$$$$
20:0
     RDKit          3D

 33 34  0  0  0  0  0  0  0  0999 V2000
  144.3230  154.3890  131.9240 C   0  0  0  0  0  0  0  0  0  0  0  0
  143.8420  155.3320  132.9420 N   0  0  0  0  0  0  0  0  0  0  0  0
  142.7030  154.9450  133.7840 C   0  0  0  0  0  0  0  0  0  0  0  0
  144.4830  156.6230  133.1150 C   0  0  0  0  0  0  0  0  0  0  0  0
  145.8970  156.7550  132.9970 C   0  0  0  0  0  0  0  0  0  0  0  0
  146.5280  157.9980  133.1700 C   0  0  0  0  0  0  0  0  0  0  0  0
  145.7320  159.1000  133.4540 C   0  0  0  0  0  0  0  0  0  0  0  0
  146.0820  160.4120  133.6830 C   0  0  0  0  0  0  0  0  0  0  0  0
  144.8810  161.0770  133.9220 C   0  0  0  0  0  0  0  0  0  0  0  0
  144.7810  162.5370  134.1340 C   0  0  0  0  0  0  0  0  0  0  0  0
  143.8610  163.3050  133.3610 N   0  0  0  0  0  0  0  0  0  0  0  0
  145.4780  163.1100  135.0130 O   0  0  0  0  0  0  0  0  0  0  0  0
  143.8330  160.2080  133.8520 N   0  0  0  0  0  0  0  0  0  0  0  0
  142.4430  160.4780  134.0900 C   0  0  0  0  0  0  0  0  0  0  0  0
  141.8540  161.3360  133.3790 O   0  0  0  0  0  0  0  0  0  0  0  0
  141.7120  159.6970  135.1120 C   0  0  0  0  0  0  0  0  0  0  0  0
  140.7070  158.8430  134.8750 C   0  0  0  0  0  0  0  0  0  0  0  0
  139.9680  158.4820  133.1420 Br  0  0  0  0  0  0  0  0  0  0  0  0
  139.9060  157.9390  136.3540 Br  0  0  0  0  0  0  0  0  0  0  0  0
  144.3710  159.0050  133.5600 C   0  0  0  0  0  0  0  0  0  0  0  0
  143.7140  157.7800  133.4070 C   0  0  0  0  0  0  0  0  0  0  0  0
  144.7697  153.5132  132.4174 H   0  0  0  0  0  0  0  0  0  0  0  0
  143.4797  154.0657  131.2961 H   0  0  0  0  0  0  0  0  0  0  0  0
  145.0798  154.8819  131.2961 H   0  0  0  0  0  0  0  0  0  0  0  0
  142.9817  155.0397  134.8439 H   0  0  0  0  0  0  0  0  0  0  0  0
  141.8481  155.6031  133.5694 H   0  0  0  0  0  0  0  0  0  0  0  0
  142.4260  153.9023  133.5694 H   0  0  0  0  0  0  0  0  0  0  0  0
  146.5051  155.8679  132.7663 H   0  0  0  0  0  0  0  0  0  0  0  0
  147.6202  158.0956  133.0831 H   0  0  0  0  0  0  0  0  0  0  0  0
  147.0940  160.8432  133.6783 H   0  0  0  0  0  0  0  0  0  0  0  0
  142.8320  163.2220  133.5150 H   0  0  0  0  0  0  0  0  0  0  0  0
  142.0210  159.8291  136.1594 H   0  0  0  0  0  0  0  0  0  0  0  0
  142.6209  157.7141  133.5110 H   0  0  0  0  0  0  0  0  0  0  0  0
  1  2  1  0
  2  3  1  0
  2  4  1  0
  4  5  2  0
  5  6  1  0
  6  7  2  0
  7  8  1  0
  8  9  2  0
  9 10  1  0
 10 11  1  0
 10 12  2  0
  9 13  1  0
 13 14  1  0
 14 15  2  0
 14 16  1  0
 16 17  2  3
 17 18  1  0
 17 19  1  0
 13 20  1  0
 20 21  2  0
 21  4  1  0
 20  7  1  0
  1 22  1  0
  1 23  1  0
  1 24  1  0
  3 25  1  0
  3 26  1  0
  3 27  1  0
  5 28  1  0
  6 29  1  0
  8 30  1  0
 11 31  1  0
 16 32  1  0
 21 33  1  0
M  CHG  1  11  -1
M  END
>  <UniqueID>  (21) 
21

>  <SMILES>  (21) 
CN(C)c1ccc2cc(C([NH-])=O)n(C(=O)C=C(Br)Br)c2c1

>  <Energy>  (21) 
76.23611844241105

>  <Genealogy>  (21) 
CN(C)c1ccc2cc(C([NH-])=O)n(C(=O)C=C(Br)Br)c2c1 (protonated)
CN(C)c1ccc2cc(C([NH-])=O)n(C(=O)C=C(Br)Br)c2c1 (3D coordinates assigned)
CN(C)c1ccc2cc(C([NH-])=O)n(C(=O)C=C(Br)Br)c2c1 (optimized conformer: 76.23611844241105 kcal/mol)

>  <smiles>  (21) 
CN(C)c1ccc2cc(C(N)=O)n(C(=O)C=C(Br)Br)c2c1

>  <score_type>  (21) 
oracle

>  <origin>  (21) 
adg

>  <m_score__min__energy>  (21) 
-7.4500000000000002

>  <m_primary>  (21) 
energy

$$$$
21:0
     RDKit          3D

 39 41  0  0  0  0  0  0  0  0999 V2000
  149.3930  161.8140  130.3440 C   0  0  0  0  0  0  0  0  0  0  0  0
  149.0480  160.5840  131.1130 C   0  0  0  0  0  0  0  0  0  0  0  0
  149.9500  159.6360  131.4440 N   0  0  0  0  0  0  0  0  0  0  0  0
  149.2240  158.7420  132.1410 C   0  0  0  0  0  0  0  0  0  0  0  0
  147.9150  159.1830  132.2090 C   0  0  0  0  0  0  0  0  0  0  0  0
  146.7670  158.5270  132.8730 C   0  0  0  0  0  0  0  0  0  0  0  0
  145.5370  159.2250  132.9830 C   0  0  0  0  0  0  0  0  0  0  0  0
  144.4310  158.6390  133.6180 C   0  0  0  0  0  0  0  0  0  0  0  0
  144.5750  157.3510  134.1250 C   0  0  0  0  0  0  0  0  0  0  0  0
  143.6790  156.5670  134.8140 C   0  0  0  0  0  0  0  0  0  0  0  0
  144.3620  155.3850  135.0890 C   0  0  0  0  0  0  0  0  0  0  0  0
  143.7430  154.2300  135.7700 C   0  0  0  0  0  0  0  0  0  0  0  0
  144.2100  153.7860  137.0450 N   0  0  0  0  0  0  0  0  0  0  0  0
  142.8230  153.5910  135.1920 O   0  0  0  0  0  0  0  0  0  0  0  0
  145.6340  155.4390  134.6050 N   0  0  0  0  0  0  0  0  0  0  0  0
  146.6790  154.4690  134.7810 C   0  0  0  0  0  0  0  0  0  0  0  0
  146.6130  153.3590  134.1860 O   0  0  0  0  0  0  0  0  0  0  0  0
  147.7650  154.7590  135.6130 O   0  0  0  0  0  0  0  0  0  0  0  0
  147.9410  154.1630  136.8940 C   0  0  0  0  0  0  0  0  0  0  0  0
  146.9500  153.1800  137.0870 O   0  0  0  0  0  0  0  0  0  0  0  0
  146.7860  152.9050  138.7620 P   0  0  0  0  0  0  0  0  0  0  0  0
  147.3680  154.0650  139.5380 O   0  0  0  0  0  0  0  0  0  0  0  0
  147.5750  151.4750  139.2050 O   0  0  0  0  0  0  0  0  0  0  0  0
  145.1430  152.7620  139.1360 O   0  0  0  0  0  0  0  0  0  0  0  0
  145.7480  156.6510  134.0130 C   0  0  0  0  0  0  0  0  0  0  0  0
  146.8740  157.2200  133.4050 C   0  0  0  0  0  0  0  0  0  0  0  0
  147.8440  160.3230  131.5670 O   0  0  0  0  0  0  0  0  0  0  0  0
  149.6223  162.6315  131.0434 H   0  0  0  0  0  0  0  0  0  0  0  0
  150.2704  161.6164  129.7106 H   0  0  0  0  0  0  0  0  0  0  0  0
  148.5408  162.1015  129.7106 H   0  0  0  0  0  0  0  0  0  0  0  0
  149.6093  157.8120  132.5844 H   0  0  0  0  0  0  0  0  0  0  0  0
  145.4489  160.2387  132.5652 H   0  0  0  0  0  0  0  0  0  0  0  0
  143.4788  159.1816  133.7121 H   0  0  0  0  0  0  0  0  0  0  0  0
  142.6443  156.8197  135.0889 H   0  0  0  0  0  0  0  0  0  0  0  0
  145.0770  154.1810  137.4690 H   0  0  0  0  0  0  0  0  0  0  0  0
  143.7330  152.9930  137.5290 H   0  0  0  0  0  0  0  0  0  0  0  0
  148.9364  153.6981  136.9500 H   0  0  0  0  0  0  0  0  0  0  0  0
  147.8554  154.9328  137.6750 H   0  0  0  0  0  0  0  0  0  0  0  0
  147.8207  156.6633  133.3423 H   0  0  0  0  0  0  0  0  0  0  0  0
  1  2  1  0
  2  3  2  0
  3  4  1  0
  4  5  2  0
  5  6  1  0
  6  7  2  0
  7  8  1  0
  8  9  2  0
  9 10  1  0
 10 11  2  0
 11 12  1  0
 12 13  1  0
 12 14  2  0
 11 15  1  0
 15 16  1  0
 16 17  2  0
 16 18  1  0
 18 19  1  0
 19 20  1  0
 20 21  1  0
 21 22  2  0
 21 23  1  0
 21 24  1  0
 15 25  1  0
 25 26  2  0
  5 27  1  0
 27  2  1  0
 26  6  1  0
 25  9  1  0
  1 28  1  0
  1 29  1  0
  1 30  1  0
  4 31  1  0
  7 32  1  0
  8 33  1  0
 10 34  1  0
 13 35  1  0
 13 36  1  0
 19 37  1  0
 19 38  1  0
 26 39  1  0
M  CHG  2  23  -1  24  -1
M  END
>  <UniqueID>  (22) 
22

>  <SMILES>  (22) 
Cc1ncc(-c2ccc3cc(C(N)=O)n(C(=O)OCOP(=O)([O-])[O-])c3c2)o1

>  <Energy>  (22) 
106.96109246150678

>  <Genealogy>  (22) 
Cc1ncc(-c2ccc3cc(C(N)=O)n(C(=O)OCOP(=O)([O-])[O-])c3c2)o1 (protonated)
Cc1ncc(-c2ccc3cc(C(N)=O)n(C(=O)OCOP(=O)([O-])[O-])c3c2)o1 (3D coordinates assigned)
Cc1ncc(-c2ccc3cc(C(N)=O)n(C(=O)OCOP(=O)([O-])[O-])c3c2)o1 (optimized conformer: 106.96109246150678 kcal/mol)

>  <smiles>  (22) 
Cc1ncc(-c2ccc3cc(C(N)=O)n(C(=O)OCOP(=O)(O)O)c3c2)o1

>  <score_type>  (22) 
oracle

>  <origin>  (22) 
adg

>  <m_score__min__energy>  (22) 
-7.3700000000000001

>  <m_primary>  (22) 
energy

$$$$
22:0
     RDKit          3D

 35 36  0  0  0  0  0  0  0  0999 V2000
  149.9600  160.4480  128.8960 C   0  0  0  0  0  0  0  0  0  0  0  0
  150.0410  160.2430  130.3350 N   0  0  0  0  0  0  0  0  0  0  0  0
  148.8820  160.1700  131.1700 C   0  0  0  0  0  0  0  0  0  0  0  0
  147.7410  160.4340  130.7040 O   0  0  0  0  0  0  0  0  0  0  0  0
  149.0340  159.8210  132.6200 C   0  0  0  0  0  0  0  0  0  0  0  0
  148.6570  158.3590  132.8910 C   0  0  0  0  0  0  0  0  0  0  0  0
  147.1920  158.2130  133.2160 C   0  0  0  0  0  0  0  0  0  0  0  0
  146.6060  156.9240  133.2930 C   0  0  0  0  0  0  0  0  0  0  0  0
  145.2380  156.7760  133.5750 C   0  0  0  0  0  0  0  0  0  0  0  0
  144.4800  157.9310  133.7510 C   0  0  0  0  0  0  0  0  0  0  0  0
  143.1430  158.0790  134.0470 C   0  0  0  0  0  0  0  0  0  0  0  0
  142.9290  159.4560  134.1100 C   0  0  0  0  0  0  0  0  0  0  0  0
  141.6060  160.0680  134.3570 C   0  0  0  0  0  0  0  0  0  0  0  0
  140.9590  160.8520  133.3580 N   0  0  0  0  0  0  0  0  0  0  0  0
  141.0250  159.8740  135.4580 O   0  0  0  0  0  0  0  0  0  0  0  0
  144.0870  160.1280  133.8600 N   0  0  0  0  0  0  0  0  0  0  0  0
  144.3010  161.5480  133.8750 C   0  0  0  0  0  0  0  0  0  0  0  0
  143.4420  162.3140  133.3610 O   0  0  0  0  0  0  0  0  0  0  0  0
  145.5120  162.1180  134.4810 C   0  0  0  0  0  0  0  0  0  0  0  0
  145.4500  162.7090  135.5910 O   0  0  0  0  0  0  0  0  0  0  0  0
  146.7380  161.9930  133.8390 O   0  0  0  0  0  0  0  0  0  0  0  0
  145.0260  159.1830  133.6500 C   0  0  0  0  0  0  0  0  0  0  0  0
  146.3900  159.3600  133.3960 C   0  0  0  0  0  0  0  0  0  0  0  0
  149.5629  161.4531  128.6906 H   0  0  0  0  0  0  0  0  0  0  0  0
  150.9633  160.3529  128.4550 H   0  0  0  0  0  0  0  0  0  0  0  0
  149.2926  159.6929  128.4550 H   0  0  0  0  0  0  0  0  0  0  0  0
  150.0807  159.9809  132.9179 H   0  0  0  0  0  0  0  0  0  0  0  0
  148.3575  160.4644  133.2017 H   0  0  0  0  0  0  0  0  0  0  0  0
  148.8854  157.7601  131.9970 H   0  0  0  0  0  0  0  0  0  0  0  0
  149.2374  158.0097  133.7577 H   0  0  0  0  0  0  0  0  0  0  0  0
  147.2285  156.0318  133.1304 H   0  0  0  0  0  0  0  0  0  0  0  0
  144.7798  155.7791  133.6543 H   0  0  0  0  0  0  0  0  0  0  0  0
  142.4017  157.2811  134.2010 H   0  0  0  0  0  0  0  0  0  0  0  0
  141.3890  161.7360  133.0070 H   0  0  0  0  0  0  0  0  0  0  0  0
  146.8266  160.3680  133.3380 H   0  0  0  0  0  0  0  0  0  0  0  0
  1  2  1  0
  2  3  1  0
  3  4  2  0
  3  5  1  0
  5  6  1  0
  6  7  1  0
  7  8  2  0
  8  9  1  0
  9 10  2  0
 10 11  1  0
 11 12  2  0
 12 13  1  0
 13 14  1  0
 13 15  2  0
 12 16  1  0
 16 17  1  0
 17 18  2  0
 17 19  1  0
 19 20  2  0
 19 21  1  0
 16 22  1  0
 22 23  2  0
 23  7  1  0
 22 10  1  0
  1 24  1  0
  1 25  1  0
  1 26  1  0
  5 27  1  0
  5 28  1  0
  6 29  1  0
  6 30  1  0
  8 31  1  0
  9 32  1  0
 11 33  1  0
 14 34  1  0
 23 35  1  0
M  CHG  3   2  -1  14  -1  21  -1
M  END
>  <UniqueID>  (23) 
23

>  <SMILES>  (23) 
C[N-]C(=O)CCc1ccc2cc(C([NH-])=O)n(C(=O)C(=O)[O-])c2c1

>  <Energy>  (23) 
67.31278875555232

>  <Genealogy>  (23) 
C[N-]C(=O)CCc1ccc2cc(C([NH-])=O)n(C(=O)C(=O)[O-])c2c1 (protonated)
C[N-]C(=O)CCc1ccc2cc(C([NH-])=O)n(C(=O)C(=O)[O-])c2c1 (3D coordinates assigned)
C[N-]C(=O)CCc1ccc2cc(C([NH-])=O)n(C(=O)C(=O)[O-])c2c1 (optimized conformer: 67.31278875555232 kcal/mol)

>  <smiles>  (23) 
CNC(=O)CCc1ccc2cc(C(N)=O)n(C(=O)C(=O)O)c2c1

>  <score_type>  (23) 
oracle

>  <origin>  (23) 
adg

>  <m_score__min__energy>  (23) 
-6.4199999999999999

>  <m_primary>  (23) 
energy

$$$$
23:0
     RDKit          3D

 40 42  0  0  0  0  0  0  0  0999 V2000
  144.2800  163.3770  133.6360 N   0  0  0  0  0  0  0  0  0  0  0  0
  145.2180  162.5670  134.3410 C   0  0  0  0  0  0  0  0  0  0  0  0
  145.9120  163.0830  135.2560 O   0  0  0  0  0  0  0  0  0  0  0  0
  145.3800  161.1430  133.9800 C   0  0  0  0  0  0  0  0  0  0  0  0
  146.6110  160.5400  133.7240 C   0  0  0  0  0  0  0  0  0  0  0  0
  146.3270  159.2140  133.4890 C   0  0  0  0  0  0  0  0  0  0  0  0
  147.1750  158.1500  133.1950 C   0  0  0  0  0  0  0  0  0  0  0  0
  146.6010  156.8830  132.9930 C   0  0  0  0  0  0  0  0  0  0  0  0
  145.1950  156.7040  133.0660 C   0  0  0  0  0  0  0  0  0  0  0  0
  144.5860  155.3360  132.8880 C   0  0  0  0  0  0  0  0  0  0  0  0
  143.2200  155.3810  133.1100 F   0  0  0  0  0  0  0  0  0  0  0  0
  144.8000  154.8650  131.6040 F   0  0  0  0  0  0  0  0  0  0  0  0
  145.1630  154.4600  133.7900 F   0  0  0  0  0  0  0  0  0  0  0  0
  144.3690  157.8050  133.3900 C   0  0  0  0  0  0  0  0  0  0  0  0
  144.9710  159.0500  133.6000 C   0  0  0  0  0  0  0  0  0  0  0  0
  144.3780  160.2240  133.9030 N   0  0  0  0  0  0  0  0  0  0  0  0
  142.9760  160.4430  134.1150 C   0  0  0  0  0  0  0  0  0  0  0  0
  142.3810  161.3390  133.4560 O   0  0  0  0  0  0  0  0  0  0  0  0
  142.2600  159.7030  135.2100 C   0  0  0  0  0  0  0  0  0  0  0  0
  141.1450  158.8530  134.6710 C   0  0  0  0  0  0  0  0  0  0  0  0
  140.7930  157.8330  135.3220 O   0  0  0  0  0  0  0  0  0  0  0  0
  140.4960  159.2200  133.4360 N   0  0  0  0  0  0  0  0  0  0  0  0
  139.2940  158.6280  132.8200 C   0  0  0  0  0  0  0  0  0  0  0  0
  138.6340  159.4220  131.7350 C   0  0  0  0  0  0  0  0  0  0  0  0
  139.2200  160.4190  131.2370 O   0  0  0  0  0  0  0  0  0  0  0  0
  137.3570  159.0900  131.3060 O   0  0  0  0  0  0  0  0  0  0  0  0
  138.3850  157.7470  133.6690 C   0  0  0  0  0  0  0  0  0  0  0  0
  139.3060  157.1190  132.6180 C   0  0  0  0  0  0  0  0  0  0  0  0
  143.6800  162.9730  132.8840 H   0  0  0  0  0  0  0  0  0  0  0  0
  147.5997  161.0220  133.7124 H   0  0  0  0  0  0  0  0  0  0  0  0
  148.2628  158.2965  133.1229 H   0  0  0  0  0  0  0  0  0  0  0  0
  147.2486  156.0207  132.7759 H   0  0  0  0  0  0  0  0  0  0  0  0
  143.2788  157.6852  133.4749 H   0  0  0  0  0  0  0  0  0  0  0  0
  142.9801  159.0564  135.7329 H   0  0  0  0  0  0  0  0  0  0  0  0
  141.8243  160.4444  135.8960 H   0  0  0  0  0  0  0  0  0  0  0  0
  140.9570  159.9770  132.8830 H   0  0  0  0  0  0  0  0  0  0  0  0
  138.5960  157.6082  134.7396 H   0  0  0  0  0  0  0  0  0  0  0  0
  137.3056  157.7144  133.8785 H   0  0  0  0  0  0  0  0  0  0  0  0
  140.1788  156.5284  132.9334 H   0  0  0  0  0  0  0  0  0  0  0  0
  139.1627  156.4473  131.7588 H   0  0  0  0  0  0  0  0  0  0  0  0
  1  2  1  0
  2  3  2  0
  2  4  1  0
  4  5  2  0
  5  6  1  0
  6  7  2  0
  7  8  1  0
  8  9  2  0
  9 10  1  0
 10 11  1  0
 10 12  1  0
 10 13  1  0
  9 14  1  0
 14 15  2  0
 15 16  1  0
 16 17  1  0
 17 18  2  0
 17 19  1  0
 19 20  1  0
 20 21  2  0
 20 22  1  0
 22 23  1  0
 23 24  1  0
 24 25  2  0
 24 26  1  0
 23 27  1  0
 27 28  1  0
 16  4  1  0
 28 23  1  0
 15  6  1  0
  1 29  1  0
  5 30  1  0
  7 31  1  0
  8 32  1  0
 14 33  1  0
 19 34  1  0
 19 35  1  0
 22 36  1  0
 27 37  1  0
 27 38  1  0
 28 39  1  0
 28 40  1  0
M  CHG  2   1  -1  26  -1
M  END
>  <UniqueID>  (24) 
24

>  <SMILES>  (24) 
[NH-]C(=O)c1cc2ccc(C(F)(F)F)cc2n1C(=O)CC(=O)NC1(C(=O)[O-])CC1

>  <Energy>  (24) 
353.7384908503832

>  <Genealogy>  (24) 
[NH-]C(=O)c1cc2ccc(C(F)(F)F)cc2n1C(=O)CC(=O)NC1(C(=O)[O-])CC1 (protonated)
[NH-]C(=O)c1cc2ccc(C(F)(F)F)cc2n1C(=O)CC(=O)NC1(C(=O)[O-])CC1 (3D coordinates assigned)
[NH-]C(=O)c1cc2ccc(C(F)(F)F)cc2n1C(=O)CC(=O)NC1(C(=O)[O-])CC1 (nonaromatic ring conformer: 353.7384908503832 kcal/mol)

>  <smiles>  (24) 
NC(=O)c1cc2ccc(C(F)(F)F)cc2n1C(=O)CC(=O)NC1(C(=O)O)CC1

>  <score_type>  (24) 
oracle

>  <origin>  (24) 
adg

>  <m_score__min__energy>  (24) 
-7.71

>  <m_primary>  (24) 
energy

$$$$
24:0
     RDKit          3D

 38 40  0  0  0  0  0  0  0  0999 V2000
  138.0190  159.3320  131.2930 C   0  0  0  0  0  0  0  0  0  0  0  0
  139.2940  159.2100  132.0610 C   0  0  0  0  0  0  0  0  0  0  0  0
  140.1820  160.1670  132.1900 O   0  0  0  0  0  0  0  0  0  0  0  0
  141.1570  159.6570  132.9080 C   0  0  0  0  0  0  0  0  0  0  0  0
  142.1910  160.2950  133.2370 O   0  0  0  0  0  0  0  0  0  0  0  0
  140.9370  158.4060  133.2450 O   0  0  0  0  0  0  0  0  0  0  0  0
  139.7740  158.0940  132.7230 C   0  0  0  0  0  0  0  0  0  0  0  0
  139.1140  156.7550  132.8530 C   0  0  0  0  0  0  0  0  0  0  0  0
  140.0450  155.7080  132.5910 O   0  0  0  0  0  0  0  0  0  0  0  0
  140.8980  155.1760  133.5650 C   0  0  0  0  0  0  0  0  0  0  0  0
  140.6450  155.3390  134.7890 O   0  0  0  0  0  0  0  0  0  0  0  0
  142.0710  154.4520  133.1630 N   0  0  0  0  0  0  0  0  0  0  0  0
  143.3260  154.9520  132.9800 C   0  0  0  0  0  0  0  0  0  0  0  0
  143.6960  156.3810  132.9860 C   0  0  0  0  0  0  0  0  0  0  0  0
  142.8410  157.3700  132.4100 N   0  0  0  0  0  0  0  0  0  0  0  0
  144.8100  156.7300  133.4600 O   0  0  0  0  0  0  0  0  0  0  0  0
  144.2340  153.9260  132.7380 C   0  0  0  0  0  0  0  0  0  0  0  0
  143.4910  152.7680  132.7710 C   0  0  0  0  0  0  0  0  0  0  0  0
  143.8910  151.4470  132.6040 C   0  0  0  0  0  0  0  0  0  0  0  0
  142.9150  150.4430  132.7270 C   0  0  0  0  0  0  0  0  0  0  0  0
  141.5710  150.7720  133.0430 C   0  0  0  0  0  0  0  0  0  0  0  0
  140.5270  149.6890  133.1400 C   0  0  0  0  0  0  0  0  0  0  0  0
  140.9890  148.5140  132.5730 F   0  0  0  0  0  0  0  0  0  0  0  0
  140.2300  149.4620  134.4700 F   0  0  0  0  0  0  0  0  0  0  0  0
  139.3700  150.0620  132.4770 F   0  0  0  0  0  0  0  0  0  0  0  0
  141.2010  152.1300  133.1830 C   0  0  0  0  0  0  0  0  0  0  0  0
  142.1890  153.1110  133.0320 C   0  0  0  0  0  0  0  0  0  0  0  0
  137.1751  159.4127  131.9939 H   0  0  0  0  0  0  0  0  0  0  0  0
  138.0570  160.2306  130.6597 H   0  0  0  0  0  0  0  0  0  0  0  0
  137.8859  158.4425  130.6597 H   0  0  0  0  0  0  0  0  0  0  0  0
  138.7224  156.6429  133.8748 H   0  0  0  0  0  0  0  0  0  0  0  0
  138.2947  156.6916  132.1217 H   0  0  0  0  0  0  0  0  0  0  0  0
  141.9950  157.0990  131.8620 H   0  0  0  0  0  0  0  0  0  0  0  0
  143.0990  158.3810  132.4620 H   0  0  0  0  0  0  0  0  0  0  0  0
  145.3152  154.0203  132.5586 H   0  0  0  0  0  0  0  0  0  0  0  0
  144.9387  151.1954  132.3825 H   0  0  0  0  0  0  0  0  0  0  0  0
  143.1961  149.3902  132.5766 H   0  0  0  0  0  0  0  0  0  0  0  0
  140.1606  152.4093  133.4055 H   0  0  0  0  0  0  0  0  0  0  0  0
  1  2  1  0
  2  3  1  0
  3  4  1  0
  4  5  2  0
  4  6  1  0
  6  7  1  0
  7  8  1  0
  8  9  1  0
  9 10  1  0
 10 11  2  0
 10 12  1  0
 12 13  1  0
 13 14  1  0
 14 15  1  0
 14 16  2  0
 13 17  2  0
 17 18  1  0
 18 19  2  0
 19 20  1  0
 20 21  2  0
 21 22  1  0
 22 23  1  0
 22 24  1  0
 22 25  1  0
 21 26  1  0
 26 27  2  0
  7  2  2  0
 27 12  1  0
 27 18  1  0
  1 28  1  0
  1 29  1  0
  1 30  1  0
  8 31  1  0
  8 32  1  0
 15 33  1  0
 15 34  1  0
 17 35  1  0
 19 36  1  0
 20 37  1  0
 26 38  1  0
M  END
>  <UniqueID>  (25) 
25

>  <SMILES>  (25) 
Cc1oc(=O)oc1COC(=O)n1c(C(N)=O)cc2ccc(C(F)(F)F)cc21

>  <Energy>  (25) 
109.25631777938173

>  <Genealogy>  (25) 
Cc1oc(=O)oc1COC(=O)n1c(C(N)=O)cc2ccc(C(F)(F)F)cc21 (3D coordinates assigned)
Cc1oc(=O)oc1COC(=O)n1c(C(N)=O)cc2ccc(C(F)(F)F)cc21 (optimized conformer: 109.25631777938173 kcal/mol)

>  <smiles>  (25) 
Cc1oc(=O)oc1COC(=O)n1c(C(N)=O)cc2ccc(C(F)(F)F)cc21

>  <score_type>  (25) 
oracle

>  <origin>  (25) 
adg

>  <m_score__min__energy>  (25) 
-6.7300000000000004

>  <m_primary>  (25) 
energy

$$$$
25:0
     RDKit          3D

 41 42  0  0  0  0  0  0  0  0999 V2000
  140.7370  156.5330  134.0790 C   0  0  0  0  0  0  0  0  0  0  0  0
  141.9660  157.2240  134.5090 N   0  0  1  0  0  0  0  0  0  0  0  0
  142.8090  156.4110  135.4300 C   0  0  0  0  0  0  0  0  0  0  0  0
  142.0370  155.7430  136.5420 C   0  0  0  0  0  0  0  0  0  0  0  0
  141.3480  154.7140  136.2920 O   0  0  0  0  0  0  0  0  0  0  0  0
  142.1060  156.2500  137.8450 O   0  0  0  0  0  0  0  0  0  0  0  0
  141.3650  157.3900  138.2820 C   0  0  0  0  0  0  0  0  0  0  0  0
  140.9940  158.2760  137.1300 C   0  0  0  0  0  0  0  0  0  0  0  0
  139.9570  158.0460  136.4500 O   0  0  0  0  0  0  0  0  0  0  0  0
  141.8150  159.3470  136.7900 O   0  0  0  0  0  0  0  0  0  0  0  0
  142.6940  157.7160  133.3540 C   0  0  0  0  0  0  0  0  0  0  0  0
  142.6020  157.1530  132.2290 O   0  0  0  0  0  0  0  0  0  0  0  0
  143.5170  158.8860  133.4750 N   0  0  0  0  0  0  0  0  0  0  0  0
  143.1160  160.1670  133.6880 C   0  0  0  0  0  0  0  0  0  0  0  0
  141.7150  160.6210  133.8400 C   0  0  0  0  0  0  0  0  0  0  0  0
  140.6670  159.6980  134.1200 N   0  0  0  0  0  0  0  0  0  0  0  0
  141.4400  161.8450  133.7300 O   0  0  0  0  0  0  0  0  0  0  0  0
  144.2230  161.0040  133.8070 C   0  0  0  0  0  0  0  0  0  0  0  0
  145.3190  160.1920  133.6450 C   0  0  0  0  0  0  0  0  0  0  0  0
  146.6790  160.4990  133.6560 C   0  0  0  0  0  0  0  0  0  0  0  0
  147.5930  159.4420  133.4880 C   0  0  0  0  0  0  0  0  0  0  0  0
  147.1380  158.1070  133.3280 C   0  0  0  0  0  0  0  0  0  0  0  0
  148.1300  156.9810  133.1540 C   0  0  0  0  0  0  0  0  0  0  0  0
  147.6070  155.9960  132.3330 F   0  0  0  0  0  0  0  0  0  0  0  0
  148.4220  156.4290  134.3890 F   0  0  0  0  0  0  0  0  0  0  0  0
  149.2990  157.4490  132.5780 F   0  0  0  0  0  0  0  0  0  0  0  0
  145.7470  157.8430  133.2810 C   0  0  0  0  0  0  0  0  0  0  0  0
  144.8650  158.9120  133.4600 C   0  0  0  0  0  0  0  0  0  0  0  0
  140.1676  156.2129  134.9640 H   0  0  0  0  0  0  0  0  0  0  0  0
  140.1230  157.2181  133.4760 H   0  0  0  0  0  0  0  0  0  0  0  0
  141.0033  155.6524  133.4760 H   0  0  0  0  0  0  0  0  0  0  0  0
  141.6530  158.0650  135.0570 H   0  0  0  0  0  0  0  0  0  0  0  0
  143.3111  155.6300  134.8402 H   0  0  0  0  0  0  0  0  0  0  0  0
  143.5178  157.1039  135.9070 H   0  0  0  0  0  0  0  0  0  0  0  0
  140.4463  157.0495  138.7820 H   0  0  0  0  0  0  0  0  0  0  0  0
  141.9950  157.9678  138.9743 H   0  0  0  0  0  0  0  0  0  0  0  0
  140.7450  159.0230  134.9160 H   0  0  0  0  0  0  0  0  0  0  0  0
  144.2201  162.0883  133.9920 H   0  0  0  0  0  0  0  0  0  0  0  0
  147.0264  161.5339  133.7916 H   0  0  0  0  0  0  0  0  0  0  0  0
  148.6726  159.6529  133.4806 H   0  0  0  0  0  0  0  0  0  0  0  0
  145.3712  156.8237  133.1082 H   0  0  0  0  0  0  0  0  0  0  0  0
  1  2  1  0
  2  3  1  0
  3  4  1  0
  4  5  2  0
  4  6  1  0
  6  7  1  0
  7  8  1  0
  8  9  2  0
  8 10  1  0
  2 11  1  0
 11 12  2  0
 11 13  1  0
 13 14  1  0
 14 15  1  0
 15 16  1  0
 15 17  2  0
 14 18  2  0
 18 19  1  0
 19 20  2  0
 20 21  1  0
 21 22  2  0
 22 23  1  0
 23 24  1  0
 23 25  1  0
 23 26  1  0
 22 27  1  0
 27 28  2  0
 28 13  1  0
 28 19  1  0
  1 29  1  0
  1 30  1  0
  1 31  1  0
  2 32  1  1
  3 33  1  0
  3 34  1  0
  7 35  1  0
  7 36  1  0
 16 37  1  0
 18 38  1  0
 20 39  1  0
 21 40  1  0
 27 41  1  0
M  CHG  3   2   1  10  -1  16  -1
M  END
>  <UniqueID>  (26) 
26

>  <SMILES>  (26) 
C[N@@H+](CC(=O)OCC(=O)[O-])C(=O)n1c(C([NH-])=O)cc2ccc(C(F)(F)F)cc21

>  <Energy>  (26) 
86.4269748927186

>  <Genealogy>  (26) 
C[NH+](CC(=O)OCC(=O)[O-])C(=O)n1c(C([NH-])=O)cc2ccc(C(F)(F)F)cc21 (protonated)
C[N@@H+](CC(=O)OCC(=O)[O-])C(=O)n1c(C([NH-])=O)cc2ccc(C(F)(F)F)cc21 (chirality)
C[N@@H+](CC(=O)OCC(=O)[O-])C(=O)n1c(C([NH-])=O)cc2ccc(C(F)(F)F)cc21 (3D coordinates assigned)
C[N@@H+](CC(=O)OCC(=O)[O-])C(=O)n1c(C([NH-])=O)cc2ccc(C(F)(F)F)cc21 (optimized conformer: 86.4269748927186 kcal/mol)

>  <smiles>  (26) 
CN(CC(=O)OCC(=O)O)C(=O)n1c(C(N)=O)cc2ccc(C(F)(F)F)cc21

>  <score_type>  (26) 
oracle

>  <origin>  (26) 
adg

>  <m_score__min__energy>  (26) 
-5.8499999999999996

>  <m_primary>  (26) 
energy

$$$$
26:0
     RDKit          3D

 66 67  0  0  0  0  0  0  0  0999 V2000
  143.3650  153.5050  135.0310 C   0  0  0  0  0  0  0  0  0  0  0  0
  143.7850  153.5690  133.6270 N   0  0  0  0  0  0  0  0  0  0  0  0
  143.0190  152.8650  132.5890 C   0  0  0  0  0  0  0  0  0  0  0  0
  142.9850  151.3530  132.8530 C   0  0  0  0  0  0  0  0  0  0  0  0
  141.6800  150.7800  132.4950 N   0  0  0  0  0  0  0  0  0  0  0  0
  140.4590  151.5810  132.6240 C   0  0  0  0  0  0  0  0  0  0  0  0
  141.5900  149.4190  132.0370 C   0  0  0  0  0  0  0  0  0  0  0  0
  142.0130  148.4820  132.7690 O   0  0  0  0  0  0  0  0  0  0  0  0
  141.0370  149.1490  130.7760 O   0  0  0  0  0  0  0  0  0  0  0  0
  139.7400  148.5910  130.5160 C   0  0  0  0  0  0  0  0  0  0  0  0
  139.2430  149.1980  129.1950 C   0  0  0  0  0  0  0  0  0  0  0  0
  139.8350  147.0610  130.3550 C   0  0  0  0  0  0  0  0  0  0  0  0
  138.7500  148.9600  131.6370 C   0  0  0  0  0  0  0  0  0  0  0  0
  144.9490  154.3390  133.2720 C   0  0  0  0  0  0  0  0  0  0  0  0
  144.8630  155.2400  132.3920 O   0  0  0  0  0  0  0  0  0  0  0  0
  146.1730  154.0890  133.9020 O   0  0  0  0  0  0  0  0  0  0  0  0
  146.5680  154.7420  135.1030 C   0  0  0  0  0  0  0  0  0  0  0  0
  147.2430  155.9540  134.7830 O   0  0  0  0  0  0  0  0  0  0  0  0
  147.2450  156.5010  133.4970 C   0  0  0  0  0  0  0  0  0  0  0  0
  147.6480  155.8140  132.5180 O   0  0  0  0  0  0  0  0  0  0  0  0
  146.7620  157.8400  133.2870 N   0  0  0  0  0  0  0  0  0  0  0  0
  147.4660  158.9180  132.8380 C   0  0  0  0  0  0  0  0  0  0  0  0
  148.8420  158.8940  132.3000 C   0  0  0  0  0  0  0  0  0  0  0  0
  149.5320  157.6540  132.1730 N   0  0  0  0  0  0  0  0  0  0  0  0
  149.4320  159.9630  131.9970 O   0  0  0  0  0  0  0  0  0  0  0  0
  146.6740  160.0630  132.8520 C   0  0  0  0  0  0  0  0  0  0  0  0
  145.4470  159.6520  133.3170 C   0  0  0  0  0  0  0  0  0  0  0  0
  144.2800  160.3810  133.5230 C   0  0  0  0  0  0  0  0  0  0  0  0
  143.1580  159.7020  134.0250 C   0  0  0  0  0  0  0  0  0  0  0  0
  143.2280  158.3190  134.3280 C   0  0  0  0  0  0  0  0  0  0  0  0
  142.0150  157.5960  134.8400 C   0  0  0  0  0  0  0  0  0  0  0  0
  140.7500  158.7930  135.3660 P   0  0  1  0  0  0  0  0  0  0  0  0
  141.3450  159.7360  136.3870 O   0  0  0  0  0  0  0  0  0  0  0  0
  140.2200  159.6800  134.0280 O   0  0  0  0  0  0  0  0  0  0  0  0
  139.4350  157.9740  136.0510 O   0  0  0  0  0  0  0  0  0  0  0  0
  144.4300  157.6110  134.1010 C   0  0  0  0  0  0  0  0  0  0  0  0
  145.5260  158.3070  133.5770 C   0  0  0  0  0  0  0  0  0  0  0  0
  144.2413  153.6385  135.6823 H   0  0  0  0  0  0  0  0  0  0  0  0
  142.6341  154.3021  135.2318 H   0  0  0  0  0  0  0  0  0  0  0  0
  142.9047  152.5263  135.2318 H   0  0  0  0  0  0  0  0  0  0  0  0
  141.9889  153.2508  132.5796 H   0  0  0  0  0  0  0  0  0  0  0  0
  143.5070  153.0381  131.6185 H   0  0  0  0  0  0  0  0  0  0  0  0
  143.7675  150.8663  132.2523 H   0  0  0  0  0  0  0  0  0  0  0  0
  143.1574  151.1829  133.9260 H   0  0  0  0  0  0  0  0  0  0  0  0
  140.2299  151.7313  133.6893 H   0  0  0  0  0  0  0  0  0  0  0  0
  140.6081  152.5573  132.1397 H   0  0  0  0  0  0  0  0  0  0  0  0
  139.6228  151.0554  132.1397 H   0  0  0  0  0  0  0  0  0  0  0  0
  138.5595  150.0328  129.4093 H   0  0  0  0  0  0  0  0  0  0  0  0
  140.1018  149.5669  128.6150 H   0  0  0  0  0  0  0  0  0  0  0  0
  138.7119  148.4289  128.6150 H   0  0  0  0  0  0  0  0  0  0  0  0
  139.8643  146.5889  131.3481 H   0  0  0  0  0  0  0  0  0  0  0  0
  138.9578  146.6954  129.8010 H   0  0  0  0  0  0  0  0  0  0  0  0
  140.7507  146.8068  129.8010 H   0  0  0  0  0  0  0  0  0  0  0  0
  139.2215  148.7843  132.6151 H   0  0  0  0  0  0  0  0  0  0  0  0
  138.4744  150.0212  131.5482 H   0  0  0  0  0  0  0  0  0  0  0  0
  137.8471  148.3380  131.5482 H   0  0  0  0  0  0  0  0  0  0  0  0
  145.6775  154.9668  135.7083 H   0  0  0  0  0  0  0  0  0  0  0  0
  147.2421  154.0858  135.6731 H   0  0  0  0  0  0  0  0  0  0  0  0
  149.2010  156.9200  131.5090 H   0  0  0  0  0  0  0  0  0  0  0  0
  146.9675  161.0804  132.5543 H   0  0  0  0  0  0  0  0  0  0  0  0
  144.2375  161.4572  133.2993 H   0  0  0  0  0  0  0  0  0  0  0  0
  142.2165  160.2481  134.1845 H   0  0  0  0  0  0  0  0  0  0  0  0
  141.6053  156.9612  134.0405 H   0  0  0  0  0  0  0  0  0  0  0  0
  142.3027  156.9744  135.7007 H   0  0  0  0  0  0  0  0  0  0  0  0
  139.0160  158.6300  136.6630 H   0  0  0  0  0  0  0  0  0  0  0  0
  144.5027  156.5377  134.3307 H   0  0  0  0  0  0  0  0  0  0  0  0
  1  2  1  0
  2  3  1  0
  3  4  1  0
  4  5  1  0
  5  6  1  0
  5  7  1  0
  7  8  2  0
  7  9  1  0
  9 10  1  0
 10 11  1  0
 10 12  1  0
 10 13  1  0
  2 14  1  0
 14 15  2  0
 14 16  1  0
 16 17  1  0
 17 18  1  0
 18 19  1  0
 19 20  2  0
 19 21  1  0
 21 22  1  0
 22 23  1  0
 23 24  1  0
 23 25  2  0
 22 26  2  0
 26 27  1  0
 27 28  2  0
 28 29  1  0
 29 30  2  0
 30 31  1  0
 31 32  1  0
 32 33  2  0
 32 34  1  6
 32 35  1  0
 30 36  1  0
 36 37  2  0
 37 21  1  0
 37 27  1  0
  1 38  1  0
  1 39  1  0
  1 40  1  0
  3 41  1  0
  3 42  1  0
  4 43  1  0
  4 44  1  0
  6 45  1  0
  6 46  1  0
  6 47  1  0
 11 48  1  0
 11 49  1  0
 11 50  1  0
 12 51  1  0
 12 52  1  0
 12 53  1  0
 13 54  1  0
 13 55  1  0
 13 56  1  0
 17 57  1  0
 17 58  1  0
 24 59  1  0
 26 60  1  0
 28 61  1  0
 29 62  1  0
 31 63  1  0
 31 64  1  0
 35 65  1  0
 36 66  1  0
M  CHG  2  24  -1  34  -1
M  END
>  <UniqueID>  (27) 
27

>  <SMILES>  (27) 
CN(CCN(C)C(=O)OC(C)(C)C)C(=O)OCOC(=O)n1c(C([NH-])=O)cc2ccc(C[P@@](=O)([O-])O)cc21

>  <Energy>  (27) 
78.44740548982554

>  <Genealogy>  (27) 
CN(CCN(C)C(=O)OC(C)(C)C)C(=O)OCOC(=O)n1c(C([NH-])=O)cc2ccc(CP(=O)([O-])O)cc21 (protonated)
CN(CCN(C)C(=O)OC(C)(C)C)C(=O)OCOC(=O)n1c(C([NH-])=O)cc2ccc(C[P@@](=O)([O-])O)cc21 (chirality)
CN(CCN(C)C(=O)OC(C)(C)C)C(=O)OCOC(=O)n1c(C([NH-])=O)cc2ccc(C[P@@](=O)([O-])O)cc21 (3D coordinates assigned)
CN(CCN(C)C(=O)OC(C)(C)C)C(=O)OCOC(=O)n1c(C([NH-])=O)cc2ccc(C[P@@](=O)([O-])O)cc21 (optimized conformer: 78.44740548982554 kcal/mol)

>  <smiles>  (27) 
CN(CCN(C)C(=O)OC(C)(C)C)C(=O)OCOC(=O)n1c(C(N)=O)cc2ccc(CP(=O)(O)O)cc21

>  <score_type>  (27) 
oracle

>  <origin>  (27) 
adg

>  <m_score__min__energy>  (27) 
-8.0199999999999996

>  <m_primary>  (27) 
energy

$$$$
27:0
     RDKit          3D

 42 43  0  0  0  0  0  0  0  0999 V2000
  139.0910  159.5360  131.0390 C   0  0  0  0  0  0  0  0  0  0  0  0
  138.4040  158.7360  131.8530 C   0  0  0  0  0  0  0  0  0  0  0  0
  139.0100  158.0880  133.0250 C   0  0  0  0  0  0  0  0  0  0  0  0
  138.4760  158.1900  134.1630 O   0  0  0  0  0  0  0  0  0  0  0  0
  140.1870  157.3550  132.8560 O   0  0  0  0  0  0  0  0  0  0  0  0
  140.7900  156.5800  133.8910 C   0  0  2  0  0  0  0  0  0  0  0  0
  142.1310  157.0220  134.1010 O   0  0  0  0  0  0  0  0  0  0  0  0
  142.9190  157.6410  133.1230 C   0  0  0  0  0  0  0  0  0  0  0  0
  143.0600  157.1180  131.9850 O   0  0  0  0  0  0  0  0  0  0  0  0
  143.5880  158.8730  133.4340 N   0  0  0  0  0  0  0  0  0  0  0  0
  143.0300  160.0720  133.7650 C   0  0  0  0  0  0  0  0  0  0  0  0
  141.5930  160.3240  134.0010 C   0  0  0  0  0  0  0  0  0  0  0  0
  140.8670  159.5030  134.9130 N   0  0  0  0  0  0  0  0  0  0  0  0
  140.9890  161.2380  133.3800 O   0  0  0  0  0  0  0  0  0  0  0  0
  144.0180  161.0390  133.9280 C   0  0  0  0  0  0  0  0  0  0  0  0
  145.2080  160.3890  133.6850 C   0  0  0  0  0  0  0  0  0  0  0  0
  146.5090  160.8730  133.6920 C   0  0  0  0  0  0  0  0  0  0  0  0
  147.5480  159.9850  133.3670 C   0  0  0  0  0  0  0  0  0  0  0  0
  147.2800  158.6240  133.0320 C   0  0  0  0  0  0  0  0  0  0  0  0
  148.3610  157.7150  132.6790 N   0  0  0  0  0  0  0  0  0  0  0  0
  148.2660  156.2820  132.9930 C   0  0  0  0  0  0  0  0  0  0  0  0
  149.5600  158.2070  131.9880 C   0  0  0  0  0  0  0  0  0  0  0  0
  145.9300  158.1800  133.0450 C   0  0  0  0  0  0  0  0  0  0  0  0
  144.9220  159.0850  133.3880 C   0  0  0  0  0  0  0  0  0  0  0  0
  140.8150  155.1490  133.4580 C   0  0  0  0  0  0  0  0  0  0  0  0
  139.9690  154.7210  132.6300 O   0  0  0  0  0  0  0  0  0  0  0  0
  141.8000  154.2960  133.9360 O   0  0  0  0  0  0  0  0  0  0  0  0
  138.5936  159.9986  130.1738 H   0  0  0  0  0  0  0  0  0  0  0  0
  140.1557  159.7340  131.2321 H   0  0  0  0  0  0  0  0  0  0  0  0
  137.3406  158.5530  131.6395 H   0  0  0  0  0  0  0  0  0  0  0  0
  140.2170  156.6919  134.8233 H   0  0  0  0  0  0  0  0  0  0  0  0
  140.5770  158.5340  134.6500 H   0  0  0  0  0  0  0  0  0  0  0  0
  143.8782  162.0971  134.1942 H   0  0  0  0  0  0  0  0  0  0  0  0
  146.7205  161.9224  133.9449 H   0  0  0  0  0  0  0  0  0  0  0  0
  148.5873  160.3455  133.3708 H   0  0  0  0  0  0  0  0  0  0  0  0
  148.2570  156.1456  134.0845 H   0  0  0  0  0  0  0  0  0  0  0  0
  147.3388  155.8735  132.5647 H   0  0  0  0  0  0  0  0  0  0  0  0
  149.1312  155.7547  132.5647 H   0  0  0  0  0  0  0  0  0  0  0  0
  150.3107  158.5151  132.7306 H   0  0  0  0  0  0  0  0  0  0  0  0
  149.9746  157.4063  131.3579 H   0  0  0  0  0  0  0  0  0  0  0  0
  149.2927  159.0681  131.3579 H   0  0  0  0  0  0  0  0  0  0  0  0
  145.6822  157.1393  132.7888 H   0  0  0  0  0  0  0  0  0  0  0  0
  1  2  2  0
  2  3  1  0
  3  4  2  0
  3  5  1  0
  5  6  1  0
  6  7  1  0
  7  8  1  0
  8  9  2  0
  8 10  1  0
 10 11  1  0
 11 12  1  0
 12 13  1  0
 12 14  2  0
 11 15  2  0
 15 16  1  0
 16 17  2  0
 17 18  1  0
 18 19  2  0
 19 20  1  0
 20 21  1  0
 20 22  1  0
 19 23  1  0
 23 24  2  0
  6 25  1  0
 25 26  2  0
 25 27  1  0
 24 10  1  0
 24 16  1  0
  1 28  1  0
  1 29  1  0
  2 30  1  0
  6 31  1  1
 13 32  1  0
 15 33  1  0
 17 34  1  0
 18 35  1  0
 21 36  1  0
 21 37  1  0
 21 38  1  0
 22 39  1  0
 22 40  1  0
 22 41  1  0
 23 42  1  0
M  CHG  2  13  -1  27  -1
M  END
>  <UniqueID>  (28) 
28

>  <SMILES>  (28) 
C=CC(=O)O[C@H](OC(=O)n1c(C([NH-])=O)cc2ccc(N(C)C)cc21)C(=O)[O-]

>  <Energy>  (28) 
77.17091301625774

>  <Genealogy>  (28) 
C=CC(=O)OC(OC(=O)n1c(C([NH-])=O)cc2ccc(N(C)C)cc21)C(=O)[O-] (protonated)
C=CC(=O)O[C@H](OC(=O)n1c(C([NH-])=O)cc2ccc(N(C)C)cc21)C(=O)[O-] (chirality)
C=CC(=O)O[C@H](OC(=O)n1c(C([NH-])=O)cc2ccc(N(C)C)cc21)C(=O)[O-] (3D coordinates assigned)
C=CC(=O)O[C@H](OC(=O)n1c(C([NH-])=O)cc2ccc(N(C)C)cc21)C(=O)[O-] (optimized conformer: 77.17091301625774 kcal/mol)

>  <smiles>  (28) 
C=CC(=O)OC(OC(=O)n1c(C(N)=O)cc2ccc(N(C)C)cc21)C(=O)O

>  <score_type>  (28) 
oracle

>  <origin>  (28) 
adg

>  <m_score__min__energy>  (28) 
-6.8899999999999997

>  <m_primary>  (28) 
energy

$$$$
28:0
     RDKit          3D

 38 39  0  0  0  0  0  0  0  0999 V2000
  145.3820  155.6130  135.0270 C   0  0  0  0  0  0  0  0  0  0  0  0
  146.5790  155.7670  134.1940 N   0  0  0  0  0  0  0  0  0  0  0  0
  147.8020  155.0260  134.5380 C   0  0  0  0  0  0  0  0  0  0  0  0
  148.1260  153.9590  133.4880 C   0  0  0  0  0  0  0  0  0  0  0  0
  148.6530  154.5690  132.2710 N   0  0  0  0  0  0  0  0  0  0  0  0
  146.5120  156.5550  132.9880 C   0  0  0  0  0  0  0  0  0  0  0  0
  146.5770  155.9950  131.8590 O   0  0  0  0  0  0  0  0  0  0  0  0
  146.3690  157.9810  133.0510 N   0  0  0  0  0  0  0  0  0  0  0  0
  147.3390  158.9210  132.8780 C   0  0  0  0  0  0  0  0  0  0  0  0
  148.7340  158.6380  132.4690 C   0  0  0  0  0  0  0  0  0  0  0  0
  149.0850  157.3940  131.8570 N   0  0  0  0  0  0  0  0  0  0  0  0
  149.6360  159.4950  132.6690 O   0  0  0  0  0  0  0  0  0  0  0  0
  146.8170  160.1980  133.0970 C   0  0  0  0  0  0  0  0  0  0  0  0
  145.4940  160.0010  133.4250 C   0  0  0  0  0  0  0  0  0  0  0  0
  144.5060  160.9210  133.7670 C   0  0  0  0  0  0  0  0  0  0  0  0
  143.2310  160.4270  134.0920 C   0  0  0  0  0  0  0  0  0  0  0  0
  142.9670  159.0340  134.0660 C   0  0  0  0  0  0  0  0  0  0  0  0
  141.6150  158.5150  134.4580 C   0  0  0  0  0  0  0  0  0  0  0  0
  141.4040  158.6560  136.2190 Cl  0  0  0  0  0  0  0  0  0  0  0  0
  143.9990  158.1310  133.7280 C   0  0  0  0  0  0  0  0  0  0  0  0
  145.2520  158.6530  133.3950 C   0  0  0  0  0  0  0  0  0  0  0  0
  145.6670  155.6497  136.0888 H   0  0  0  0  0  0  0  0  0  0  0  0
  144.6760  156.4277  134.8085 H   0  0  0  0  0  0  0  0  0  0  0  0
  144.9052  154.6461  134.8085 H   0  0  0  0  0  0  0  0  0  0  0  0
  148.6425  155.7328  134.6004 H   0  0  0  0  0  0  0  0  0  0  0  0
  147.6408  154.5229  135.5029 H   0  0  0  0  0  0  0  0  0  0  0  0
  148.8761  153.2666  133.8977 H   0  0  0  0  0  0  0  0  0  0  0  0
  147.2007  153.4192  133.2383 H   0  0  0  0  0  0  0  0  0  0  0  0
  147.9740  154.3770  131.4990 H   0  0  0  0  0  0  0  0  0  0  0  0
  148.6580  155.6070  132.4020 H   0  0  0  0  0  0  0  0  0  0  0  0
  150.0790  157.2000  131.6050 H   0  0  0  0  0  0  0  0  0  0  0  0
  148.3640  156.6820  131.6100 H   0  0  0  0  0  0  0  0  0  0  0  0
  147.3497  161.1576  133.0231 H   0  0  0  0  0  0  0  0  0  0  0  0
  144.7169  162.0005  133.7823 H   0  0  0  0  0  0  0  0  0  0  0  0
  142.4299  161.1279  134.3693 H   0  0  0  0  0  0  0  0  0  0  0  0
  140.8365  159.1019  133.9486 H   0  0  0  0  0  0  0  0  0  0  0  0
  141.5325  157.4579  134.1654 H   0  0  0  0  0  0  0  0  0  0  0  0
  143.8213  157.0454  133.7269 H   0  0  0  0  0  0  0  0  0  0  0  0
  1  2  1  0
  2  3  1  0
  3  4  1  0
  4  5  1  0
  2  6  1  0
  6  7  2  0
  6  8  1  0
  8  9  1  0
  9 10  1  0
 10 11  1  0
 10 12  2  0
  9 13  2  0
 13 14  1  0
 14 15  2  0
 15 16  1  0
 16 17  2  0
 17 18  1  0
 18 19  1  0
 17 20  1  0
 20 21  2  0
 21  8  1  0
 21 14  1  0
  1 22  1  0
  1 23  1  0
  1 24  1  0
  3 25  1  0
  3 26  1  0
  4 27  1  0
  4 28  1  0
  5 29  1  0
  5 30  1  0
 11 31  1  0
 11 32  1  0
 13 33  1  0
 15 34  1  0
 16 35  1  0
 18 36  1  0
 18 37  1  0
 20 38  1  0
M  END
>  <UniqueID>  (29) 
29

>  <SMILES>  (29) 
CN(CCN)C(=O)n1c(C(N)=O)cc2ccc(CCl)cc21

>  <Energy>  (29) 
70.9959313517502

>  <Genealogy>  (29) 
CN(CCN)C(=O)n1c(C(N)=O)cc2ccc(CCl)cc21 (3D coordinates assigned)
CN(CCN)C(=O)n1c(C(N)=O)cc2ccc(CCl)cc21 (optimized conformer: 70.9959313517502 kcal/mol)

>  <smiles>  (29) 
CN(CCN)C(=O)n1c(C(N)=O)cc2ccc(CCl)cc21

>  <score_type>  (29) 
oracle

>  <origin>  (29) 
adg

>  <m_score__min__energy>  (29) 
-6.75

>  <m_primary>  (29) 
energy

$$$$
29:0
     RDKit          3D

 47 48  0  0  0  0  0  0  0  0999 V2000
  146.0360  153.3640  137.3290 C   0  0  0  0  0  0  0  0  0  0  0  0
  147.3770  153.2260  136.7340 N   0  0  0  0  0  0  0  0  0  0  0  0
  148.3900  153.2990  137.7990 C   0  0  0  0  0  0  0  0  0  0  0  0
  147.6190  154.2790  135.7250 C   0  0  0  0  0  0  0  0  0  0  0  0
  147.3470  153.7470  134.3090 C   0  0  0  0  0  0  0  0  0  0  0  0
  147.9360  154.6370  133.2920 N   0  0  0  0  0  0  0  0  0  0  0  0
  148.8720  154.0800  132.3080 C   0  0  0  0  0  0  0  0  0  0  0  0
  147.6100  156.0500  133.2530 C   0  0  0  0  0  0  0  0  0  0  0  0
  148.6260  157.0210  133.0350 C   0  0  0  0  0  0  0  0  0  0  0  0
  148.3260  158.3930  133.0150 C   0  0  0  0  0  0  0  0  0  0  0  0
  147.0060  158.7750  133.2280 C   0  0  0  0  0  0  0  0  0  0  0  0
  146.4390  160.0290  133.2520 C   0  0  0  0  0  0  0  0  0  0  0  0
  145.0850  159.8170  133.5090 C   0  0  0  0  0  0  0  0  0  0  0  0
  144.1070  160.9100  133.6910 C   0  0  0  0  0  0  0  0  0  0  0  0
  142.7370  160.6980  133.3570 N   0  0  0  0  0  0  0  0  0  0  0  0
  144.4720  162.0380  134.1130 O   0  0  0  0  0  0  0  0  0  0  0  0
  144.8280  158.4850  133.6350 N   0  0  0  0  0  0  0  0  0  0  0  0
  143.5610  157.8480  133.8680 C   0  0  0  0  0  0  0  0  0  0  0  0
  143.4530  156.9830  134.7780 O   0  0  0  0  0  0  0  0  0  0  0  0
  142.4180  158.2100  133.0790 N   0  0  0  0  0  0  0  0  0  0  0  0
  141.0730  157.7250  133.3750 C   0  0  0  0  0  0  0  0  0  0  0  0
  140.0520  158.5620  132.6710 C   0  0  0  0  0  0  0  0  0  0  0  0
  140.4150  159.5240  131.9440 O   0  0  0  0  0  0  0  0  0  0  0  0
  138.6990  158.2910  132.8290 O   0  0  0  0  0  0  0  0  0  0  0  0
  146.0130  157.8620  133.4570 C   0  0  0  0  0  0  0  0  0  0  0  0
  146.2760  156.4880  133.4480 C   0  0  0  0  0  0  0  0  0  0  0  0
  146.1189  153.3555  138.4258 H   0  0  0  0  0  0  0  0  0  0  0  0
  145.5860  154.3132  137.0027 H   0  0  0  0  0  0  0  0  0  0  0  0
  145.4021  152.5263  137.0027 H   0  0  0  0  0  0  0  0  0  0  0  0
  147.8938  153.2632  138.7801 H   0  0  0  0  0  0  0  0  0  0  0  0
  149.0812  152.4483  137.7065 H   0  0  0  0  0  0  0  0  0  0  0  0
  148.9521  154.2400  137.7065 H   0  0  0  0  0  0  0  0  0  0  0  0
  146.9524  155.1308  135.9250 H   0  0  0  0  0  0  0  0  0  0  0  0
  148.6708  154.5946  135.7883 H   0  0  0  0  0  0  0  0  0  0  0  0
  147.7885  152.7444  134.2097 H   0  0  0  0  0  0  0  0  0  0  0  0
  146.2591  153.7043  134.1519 H   0  0  0  0  0  0  0  0  0  0  0  0
  149.7033  153.5853  132.8317 H   0  0  0  0  0  0  0  0  0  0  0  0
  148.3478  153.3468  131.6774 H   0  0  0  0  0  0  0  0  0  0  0  0
  149.2664  154.8905  131.6774 H   0  0  0  0  0  0  0  0  0  0  0  0
  149.6641  156.6920  132.8795 H   0  0  0  0  0  0  0  0  0  0  0  0
  149.1112  159.1424  132.8363 H   0  0  0  0  0  0  0  0  0  0  0  0
  146.9461  160.9933  133.1006 H   0  0  0  0  0  0  0  0  0  0  0  0
  142.4670  160.2710  132.4430 H   0  0  0  0  0  0  0  0  0  0  0  0
  142.5530  158.8290  132.2480 H   0  0  0  0  0  0  0  0  0  0  0  0
  140.9813  156.6817  133.0386 H   0  0  0  0  0  0  0  0  0  0  0  0
  140.9008  157.7880  134.4596 H   0  0  0  0  0  0  0  0  0  0  0  0
  145.4627  155.7610  133.5896 H   0  0  0  0  0  0  0  0  0  0  0  0
  1  2  1  0
  2  3  1  0
  2  4  1  0
  4  5  1  0
  5  6  1  0
  6  7  1  0
  6  8  1  0
  8  9  2  0
  9 10  1  0
 10 11  2  0
 11 12  1  0
 12 13  2  0
 13 14  1  0
 14 15  1  0
 14 16  2  0
 13 17  1  0
 17 18  1  0
 18 19  2  0
 18 20  1  0
 20 21  1  0
 21 22  1  0
 22 23  2  0
 22 24  1  0
 17 25  1  0
 25 26  2  0
 26  8  1  0
 25 11  1  0
  1 27  1  0
  1 28  1  0
  1 29  1  0
  3 30  1  0
  3 31  1  0
  3 32  1  0
  4 33  1  0
  4 34  1  0
  5 35  1  0
  5 36  1  0
  7 37  1  0
  7 38  1  0
  7 39  1  0
  9 40  1  0
 10 41  1  0
 12 42  1  0
 15 43  1  0
 20 44  1  0
 21 45  1  0
 21 46  1  0
 26 47  1  0
M  CHG  2  15  -1  24  -1
M  END
>  <UniqueID>  (30) 
30

>  <SMILES>  (30) 
CN(C)CCN(C)c1ccc2cc(C([NH-])=O)n(C(=O)NCC(=O)[O-])c2c1

>  <Energy>  (30) 
81.67385332750676

>  <Genealogy>  (30) 
CN(C)CCN(C)c1ccc2cc(C([NH-])=O)n(C(=O)NCC(=O)[O-])c2c1 (protonated)
CN(C)CCN(C)c1ccc2cc(C([NH-])=O)n(C(=O)NCC(=O)[O-])c2c1 (3D coordinates assigned)
CN(C)CCN(C)c1ccc2cc(C([NH-])=O)n(C(=O)NCC(=O)[O-])c2c1 (optimized conformer: 81.67385332750676 kcal/mol)

>  <smiles>  (30) 
CN(C)CCN(C)c1ccc2cc(C(N)=O)n(C(=O)NCC(=O)O)c2c1

>  <score_type>  (30) 
oracle

>  <origin>  (30) 
adg

>  <m_score__min__energy>  (30) 
-7.3099999999999996

>  <m_primary>  (30) 
energy

$$$$
30:0
     RDKit          3D

 40 42  0  0  0  0  0  0  0  0999 V2000
  149.3250  161.3600  130.4010 C   0  0  0  0  0  0  0  0  0  0  0  0
  149.6220  160.3720  131.2480 C   0  0  0  0  0  0  0  0  0  0  0  0
  149.2140  158.9530  130.9690 C   0  0  0  0  0  0  0  0  0  0  0  0
  149.3680  158.1470  132.1350 O   0  0  0  0  0  0  0  0  0  0  0  0
  148.5220  158.2330  133.2470 C   0  0  0  0  0  0  0  0  0  0  0  0
  148.8930  158.8540  134.2800 O   0  0  0  0  0  0  0  0  0  0  0  0
  147.2260  157.6160  133.2090 N   0  0  0  0  0  0  0  0  0  0  0  0
  146.0140  158.2250  133.3340 C   0  0  0  0  0  0  0  0  0  0  0  0
  145.7780  159.6820  133.3740 C   0  0  0  0  0  0  0  0  0  0  0  0
  146.8620  160.6090  133.2920 N   0  0  0  0  0  0  0  0  0  0  0  0
  144.5970  160.1160  133.4260 O   0  0  0  0  0  0  0  0  0  0  0  0
  144.9900  157.2810  133.3660 C   0  0  0  0  0  0  0  0  0  0  0  0
  145.6160  156.0620  133.2400 C   0  0  0  0  0  0  0  0  0  0  0  0
  145.0790  154.7780  133.2230 C   0  0  0  0  0  0  0  0  0  0  0  0
  145.9680  153.6950  133.1170 C   0  0  0  0  0  0  0  0  0  0  0  0
  147.3630  153.9150  133.0410 C   0  0  0  0  0  0  0  0  0  0  0  0
  148.2560  152.8040  132.9470 N   0  0  0  0  0  0  0  0  0  0  0  0
  149.2750  152.1500  133.7930 C   0  0  0  0  0  0  0  0  0  0  0  0
  149.6400  151.0880  132.8020 C   0  0  0  0  0  0  0  0  0  0  0  0
  150.9490  151.2030  132.2930 O   0  0  0  0  0  0  0  0  0  0  0  0
  148.5970  151.7590  131.9610 C   0  0  0  0  0  0  0  0  0  0  0  0
  147.8750  155.2270  133.0640 C   0  0  0  0  0  0  0  0  0  0  0  0
  146.9670  156.2910  133.1480 C   0  0  0  0  0  0  0  0  0  0  0  0
  149.6349  162.3908  130.6279 H   0  0  0  0  0  0  0  0  0  0  0  0
  148.7704  161.1434  129.4761 H   0  0  0  0  0  0  0  0  0  0  0  0
  150.1771  160.6014  132.1696 H   0  0  0  0  0  0  0  0  0  0  0  0
  148.1602  158.9353  130.6541 H   0  0  0  0  0  0  0  0  0  0  0  0
  149.8565  158.5499  130.1724 H   0  0  0  0  0  0  0  0  0  0  0  0
  147.8310  160.2890  133.0730 H   0  0  0  0  0  0  0  0  0  0  0  0
  146.6790  161.6350  133.3640 H   0  0  0  0  0  0  0  0  0  0  0  0
  143.9113  157.4697  133.4698 H   0  0  0  0  0  0  0  0  0  0  0  0
  143.9931  154.6162  133.2904 H   0  0  0  0  0  0  0  0  0  0  0  0
  145.5757  152.6676  133.0929 H   0  0  0  0  0  0  0  0  0  0  0  0
  150.1178  152.8145  134.0341 H   0  0  0  0  0  0  0  0  0  0  0  0
  148.9598  151.8173  134.7930 H   0  0  0  0  0  0  0  0  0  0  0  0
  149.6494  150.0116  133.0286 H   0  0  0  0  0  0  0  0  0  0  0  0
  151.0700  152.1080  131.9020 H   0  0  0  0  0  0  0  0  0  0  0  0
  149.0051  152.1725  131.0269 H   0  0  0  0  0  0  0  0  0  0  0  0
  147.7736  151.1329  131.5869 H   0  0  0  0  0  0  0  0  0  0  0  0
  148.9584  155.4114  133.0173 H   0  0  0  0  0  0  0  0  0  0  0  0
  1  2  2  0
  2  3  1  0
  3  4  1  0
  4  5  1  0
  5  6  2  0
  5  7  1  0
  7  8  1  0
  8  9  1  0
  9 10  1  0
  9 11  2  0
  8 12  2  0
 12 13  1  0
 13 14  2  0
 14 15  1  0
 15 16  2  0
 16 17  1  0
 17 18  1  0
 18 19  1  0
 19 20  1  0
 19 21  1  0
 16 22  1  0
 22 23  2  0
 23  7  1  0
 23 13  1  0
 21 17  1  0
  1 24  1  0
  1 25  1  0
  2 26  1  0
  3 27  1  0
  3 28  1  0
 10 29  1  0
 10 30  1  0
 12 31  1  0
 14 32  1  0
 15 33  1  0
 18 34  1  0
 18 35  1  0
 19 36  1  0
 20 37  1  0
 21 38  1  0
 21 39  1  0
 22 40  1  0
M  END
>  <UniqueID>  (31) 
31

>  <SMILES>  (31) 
C=CCOC(=O)n1c(C(N)=O)cc2ccc(N3CC(O)C3)cc21

>  <Energy>  (31) 
122.54276092984415

>  <Genealogy>  (31) 
C=CCOC(=O)n1c(C(N)=O)cc2ccc(N3CC(O)C3)cc21 (3D coordinates assigned)
C=CCOC(=O)n1c(C(N)=O)cc2ccc(N3CC(O)C3)cc21 (nonaromatic ring conformer: 122.54276092984415 kcal/mol)

>  <smiles>  (31) 
C=CCOC(=O)n1c(C(N)=O)cc2ccc(N3CC(O)C3)cc21

>  <score_type>  (31) 
oracle

>  <origin>  (31) 
adg

>  <m_score__min__energy>  (31) 
-7.0899999999999999

>  <m_primary>  (31) 
energy

$$$$
31:0
     RDKit          3D

 49 50  0  0  0  0  0  0  0  0999 V2000
  149.6450  160.9880  129.3940 C   0  0  0  0  0  0  0  0  0  0  0  0
  148.8600  161.2790  130.6680 C   0  0  0  0  0  0  0  0  0  0  0  0
  148.5680  160.0070  131.4150 C   0  0  0  0  0  0  0  0  0  0  0  0
  149.6070  159.0800  131.6780 C   0  0  0  0  0  0  0  0  0  0  0  0
  149.3500  157.9040  132.4030 C   0  0  0  0  0  0  0  0  0  0  0  0
  148.0540  157.6910  132.8640 C   0  0  0  0  0  0  0  0  0  0  0  0
  147.5240  156.6330  133.5680 C   0  0  0  0  0  0  0  0  0  0  0  0
  146.1810  156.9470  133.7540 C   0  0  0  0  0  0  0  0  0  0  0  0
  145.2380  156.0990  134.5160 C   0  0  0  0  0  0  0  0  0  0  0  0
  143.8560  156.0470  134.1790 N   0  0  0  0  0  0  0  0  0  0  0  0
  145.6590  155.4270  135.4960 O   0  0  0  0  0  0  0  0  0  0  0  0
  145.8940  158.1550  133.1930 N   0  0  0  0  0  0  0  0  0  0  0  0
  144.6230  158.8170  133.1320 C   0  0  0  0  0  0  0  0  0  0  0  0
  143.6380  158.2290  132.6130 O   0  0  0  0  0  0  0  0  0  0  0  0
  144.4510  160.1670  133.6840 C   0  0  0  0  0  0  0  0  0  0  0  0
  145.3350  160.6550  134.4400 O   0  0  0  0  0  0  0  0  0  0  0  0
  143.2940  160.8940  133.3820 O   0  0  0  0  0  0  0  0  0  0  0  0
  142.0760  160.7640  134.1080 C   0  0  0  0  0  0  0  0  0  0  0  0
  141.7330  159.3210  134.3000 C   0  0  0  0  0  0  0  0  0  0  0  0
  142.3890  158.6320  135.1240 O   0  0  0  0  0  0  0  0  0  0  0  0
  140.6360  158.7540  133.5760 N   0  0  0  0  0  0  0  0  0  0  0  0
  139.7220  157.7040  134.0360 C   0  0  0  0  0  0  0  0  0  0  0  0
  138.3850  157.9080  133.3020 C   0  0  0  0  0  0  0  0  0  0  0  0
  139.4870  157.8430  135.5520 C   0  0  0  0  0  0  0  0  0  0  0  0
  140.3000  156.3120  133.6930 C   0  0  0  0  0  0  0  0  0  0  0  0
  141.5490  156.4310  133.0670 O   0  0  0  0  0  0  0  0  0  0  0  0
  147.0480  158.5920  132.6450 C   0  0  0  0  0  0  0  0  0  0  0  0
  147.2680  159.7610  131.9100 C   0  0  0  0  0  0  0  0  0  0  0  0
  150.6465  160.6168  129.6571 H   0  0  0  0  0  0  0  0  0  0  0  0
  149.1153  160.2265  128.8028 H   0  0  0  0  0  0  0  0  0  0  0  0
  149.7397  161.9108  128.8028 H   0  0  0  0  0  0  0  0  0  0  0  0
  149.4507  161.9479  131.3112 H   0  0  0  0  0  0  0  0  0  0  0  0
  147.9068  161.7554  130.3949 H   0  0  0  0  0  0  0  0  0  0  0  0
  150.6240  159.2828  131.3113 H   0  0  0  0  0  0  0  0  0  0  0  0
  150.1488  157.1739  132.6002 H   0  0  0  0  0  0  0  0  0  0  0  0
  148.0508  155.7303  133.9109 H   0  0  0  0  0  0  0  0  0  0  0  0
  143.2540  156.8970  134.2540 H   0  0  0  0  0  0  0  0  0  0  0  0
  142.1877  161.2437  135.0916 H   0  0  0  0  0  0  0  0  0  0  0  0
  141.2690  161.2492  133.5394 H   0  0  0  0  0  0  0  0  0  0  0  0
  137.5774  158.0312  134.0386 H   0  0  0  0  0  0  0  0  0  0  0  0
  138.4464  158.8072  132.6714 H   0  0  0  0  0  0  0  0  0  0  0  0
  138.1754  157.0314  132.6714 H   0  0  0  0  0  0  0  0  0  0  0  0
  140.3095  157.3564  136.0967 H   0  0  0  0  0  0  0  0  0  0  0  0
  139.4491  158.9089  135.8210 H   0  0  0  0  0  0  0  0  0  0  0  0
  138.5346  157.3629  135.8210 H   0  0  0  0  0  0  0  0  0  0  0  0
  140.4153  155.7312  134.6200 H   0  0  0  0  0  0  0  0  0  0  0  0
  139.6085  155.8032  133.0053 H   0  0  0  0  0  0  0  0  0  0  0  0
  142.0550  157.1080  133.5870 H   0  0  0  0  0  0  0  0  0  0  0  0
  146.4493  160.4712  131.7220 H   0  0  0  0  0  0  0  0  0  0  0  0
  1  2  1  0
  2  3  1  0
  3  4  2  0
  4  5  1  0
  5  6  2  0
  6  7  1  0
  7  8  2  0
  8  9  1  0
  9 10  1  0
  9 11  2  0
  8 12  1  0
 12 13  1  0
 13 14  2  0
 13 15  1  0
 15 16  2  0
 15 17  1  0
 17 18  1  0
 18 19  1  0
 19 20  2  0
 19 21  1  0
 21 22  1  0
 22 23  1  0
 22 24  1  0
 22 25  1  0
 25 26  1  0
 12 27  1  0
 27 28  2  0
 28  3  1  0
 27  6  1  0
  1 29  1  0
  1 30  1  0
  1 31  1  0
  2 32  1  0
  2 33  1  0
  4 34  1  0
  5 35  1  0
  7 36  1  0
 10 37  1  0
 18 38  1  0
 18 39  1  0
 23 40  1  0
 23 41  1  0
 23 42  1  0
 24 43  1  0
 24 44  1  0
 24 45  1  0
 25 46  1  0
 25 47  1  0
 26 48  1  0
 28 49  1  0
M  CHG  2  10  -1  21  -1
M  END
>  <UniqueID>  (32) 
32

>  <SMILES>  (32) 
CCc1ccc2cc(C([NH-])=O)n(C(=O)C(=O)OCC(=O)[N-]C(C)(C)CO)c2c1

>  <Energy>  (32) 
76.91741031207924

>  <Genealogy>  (32) 
CCc1ccc2cc(C([NH-])=O)n(C(=O)C(=O)OCC(=O)[N-]C(C)(C)CO)c2c1 (protonated)
CCc1ccc2cc(C([NH-])=O)n(C(=O)C(=O)OCC(=O)[N-]C(C)(C)CO)c2c1 (3D coordinates assigned)
CCc1ccc2cc(C([NH-])=O)n(C(=O)C(=O)OCC(=O)[N-]C(C)(C)CO)c2c1 (optimized conformer: 76.91741031207924 kcal/mol)

>  <smiles>  (32) 
CCc1ccc2cc(C(N)=O)n(C(=O)C(=O)OCC(=O)NC(C)(C)CO)c2c1

>  <score_type>  (32) 
oracle

>  <origin>  (32) 
adg

>  <m_score__min__energy>  (32) 
-6.7400000000000002

>  <m_primary>  (32) 
energy

$$$$
32:0
     RDKit          3D

 38 40  0  0  0  0  0  0  0  0999 V2000
  145.5800  161.9640  134.3740 N   0  0  0  0  0  0  0  0  0  0  0  0
  144.5620  161.0990  133.8750 C   0  0  0  0  0  0  0  0  0  0  0  0
  143.4380  161.5780  133.5680 O   0  0  0  0  0  0  0  0  0  0  0  0
  144.8230  159.6510  133.7490 C   0  0  0  0  0  0  0  0  0  0  0  0
  143.8510  158.6650  133.9180 C   0  0  0  0  0  0  0  0  0  0  0  0
  144.4940  157.4740  133.6600 C   0  0  0  0  0  0  0  0  0  0  0  0
  144.0130  156.1680  133.6920 C   0  0  0  0  0  0  0  0  0  0  0  0
  144.9130  155.1280  133.4050 C   0  0  0  0  0  0  0  0  0  0  0  0
  146.2720  155.4060  133.0960 C   0  0  0  0  0  0  0  0  0  0  0  0
  147.2130  154.2950  132.8100 C   0  0  0  0  0  0  0  0  0  0  0  0
  146.7760  152.9620  132.8650 C   0  0  0  0  0  0  0  0  0  0  0  0
  147.6700  151.9290  132.5820 C   0  0  0  0  0  0  0  0  0  0  0  0
  148.9990  152.2190  132.2420 C   0  0  0  0  0  0  0  0  0  0  0  0
  149.9580  151.1370  131.9290 C   0  0  0  0  0  0  0  0  0  0  0  0
  149.7650  150.3720  130.9470 O   0  0  0  0  0  0  0  0  0  0  0  0
  151.0890  150.9490  132.7170 O   0  0  0  0  0  0  0  0  0  0  0  0
  149.3990  153.5630  132.2000 C   0  0  0  0  0  0  0  0  0  0  0  0
  148.5130  154.5590  132.4800 N   0  0  0  0  0  0  0  0  0  0  0  0
  146.7170  156.7480  133.0670 C   0  0  0  0  0  0  0  0  0  0  0  0
  145.7960  157.7590  133.3500 C   0  0  0  0  0  0  0  0  0  0  0  0
  146.0130  159.0890  133.4020 N   0  0  0  0  0  0  0  0  0  0  0  0
  147.2820  159.7380  133.2410 C   0  0  0  0  0  0  0  0  0  0  0  0
  147.3360  160.8640  132.6780 O   0  0  0  0  0  0  0  0  0  0  0  0
  148.5440  159.0800  133.7190 C   0  0  0  0  0  0  0  0  0  0  0  0
  149.2590  158.4190  132.5830 C   0  0  0  0  0  0  0  0  0  0  0  0
  149.3470  157.1640  132.5350 O   0  0  0  0  0  0  0  0  0  0  0  0
  149.7930  159.1860  131.5550 O   0  0  0  0  0  0  0  0  0  0  0  0
  146.2680  162.4100  133.7280 H   0  0  0  0  0  0  0  0  0  0  0  0
  142.7967  158.8077  134.1975 H   0  0  0  0  0  0  0  0  0  0  0  0
  142.9610  155.9569  133.9344 H   0  0  0  0  0  0  0  0  0  0  0  0
  144.5614  154.0858  133.4197 H   0  0  0  0  0  0  0  0  0  0  0  0
  145.7333  152.7330  133.1301 H   0  0  0  0  0  0  0  0  0  0  0  0
  147.3311  150.8834  132.6258 H   0  0  0  0  0  0  0  0  0  0  0  0
  150.4374  153.8147  131.9386 H   0  0  0  0  0  0  0  0  0  0  0  0
  148.8600  155.5450  132.4580 H   0  0  0  0  0  0  0  0  0  0  0  0
  147.7630  156.9897  132.8274 H   0  0  0  0  0  0  0  0  0  0  0  0
  149.2011  159.8408  134.1654 H   0  0  0  0  0  0  0  0  0  0  0  0
  148.2832  158.3153  134.4655 H   0  0  0  0  0  0  0  0  0  0  0  0
  1  2  1  0
  2  3  2  0
  2  4  1  0
  4  5  2  0
  5  6  1  0
  6  7  2  0
  7  8  1  0
  8  9  2  0
  9 10  1  0
 10 11  2  0
 11 12  1  0
 12 13  2  0
 13 14  1  0
 14 15  2  0
 14 16  1  0
 13 17  1  0
 17 18  2  0
  9 19  1  0
 19 20  2  0
 20 21  1  0
 21 22  1  0
 22 23  2  0
 22 24  1  0
 24 25  1  0
 25 26  2  0
 25 27  1  0
 21  4  1  0
 20  6  1  0
 18 10  1  0
  1 28  1  0
  5 29  1  0
  7 30  1  0
  8 31  1  0
 11 32  1  0
 12 33  1  0
 17 34  1  0
 18 35  1  0
 19 36  1  0
 24 37  1  0
 24 38  1  0
M  CHG  4   1  -1  16  -1  18   1  27  -1
M  END
>  <UniqueID>  (33) 
33

>  <SMILES>  (33) 
[NH-]C(=O)c1cc2ccc(-c3ccc(C(=O)[O-])c[nH+]3)cc2n1C(=O)CC(=O)[O-]

>  <Energy>  (33) 
84.74125542199488

>  <Genealogy>  (33) 
[NH-]C(=O)c1cc2ccc(-c3ccc(C(=O)[O-])c[nH+]3)cc2n1C(=O)CC(=O)[O-] (protonated)
[NH-]C(=O)c1cc2ccc(-c3ccc(C(=O)[O-])c[nH+]3)cc2n1C(=O)CC(=O)[O-] (3D coordinates assigned)
[NH-]C(=O)c1cc2ccc(-c3ccc(C(=O)[O-])c[nH+]3)cc2n1C(=O)CC(=O)[O-] (optimized conformer: 84.74125542199488 kcal/mol)

>  <smiles>  (33) 
NC(=O)c1cc2ccc(-c3ccc(C(=O)O)cn3)cc2n1C(=O)CC(=O)O

>  <score_type>  (33) 
oracle

>  <origin>  (33) 
adg

>  <m_score__min__energy>  (33) 
-6.9400000000000004

>  <m_primary>  (33) 
energy

$$$$
33:0
     RDKit          3D

 42 43  0  0  0  0  0  0  0  0999 V2000
  149.0210  158.4310  131.3110 N   0  0  0  0  0  0  0  0  0  0  0  0
  148.6720  158.9830  132.5780 C   0  0  0  0  0  0  0  0  0  0  0  0
  149.5860  159.3540  133.3610 O   0  0  0  0  0  0  0  0  0  0  0  0
  147.2510  159.0950  132.9660 C   0  0  0  0  0  0  0  0  0  0  0  0
  146.5990  160.3070  133.1910 C   0  0  0  0  0  0  0  0  0  0  0  0
  145.2960  159.9720  133.4830 C   0  0  0  0  0  0  0  0  0  0  0  0
  144.2130  160.7820  133.8070 C   0  0  0  0  0  0  0  0  0  0  0  0
  142.9860  160.1610  134.0940 C   0  0  0  0  0  0  0  0  0  0  0  0
  142.8630  158.7440  134.0620 C   0  0  0  0  0  0  0  0  0  0  0  0
  141.6180  158.0880  134.3640 N   0  0  0  0  0  0  0  0  0  0  0  0
  140.5080  158.7500  135.0540 C   0  0  0  0  0  0  0  0  0  0  0  0
  140.7500  158.8080  136.5610 C   0  0  0  0  0  0  0  0  0  0  0  0
  140.6130  160.1080  137.0130 F   0  0  0  0  0  0  0  0  0  0  0  0
  142.0300  158.3650  136.8420 F   0  0  0  0  0  0  0  0  0  0  0  0
  143.9900  157.9600  133.7310 C   0  0  0  0  0  0  0  0  0  0  0  0
  145.1920  158.6070  133.4310 C   0  0  0  0  0  0  0  0  0  0  0  0
  146.3810  158.0550  133.1100 N   0  0  0  0  0  0  0  0  0  0  0  0
  146.6720  156.6510  133.0150 C   0  0  0  0  0  0  0  0  0  0  0  0
  147.2380  156.2000  131.9830 O   0  0  0  0  0  0  0  0  0  0  0  0
  146.3130  155.7320  134.1030 C   0  0  0  0  0  0  0  0  0  0  0  0
  146.9220  155.7920  135.2060 O   0  0  0  0  0  0  0  0  0  0  0  0
  145.2870  154.8020  133.9080 O   0  0  0  0  0  0  0  0  0  0  0  0
  144.7330  154.5300  132.6250 C   0  0  0  0  0  0  0  0  0  0  0  0
  143.2400  154.2610  132.7620 C   0  0  0  0  0  0  0  0  0  0  0  0
  142.5820  155.4680  133.0650 O   0  0  0  0  0  0  0  0  0  0  0  0
  141.0470  155.0970  133.7100 P   0  0  0  0  0  0  0  0  0  0  0  0
  140.7000  153.6540  133.4240 O   0  0  0  0  0  0  0  0  0  0  0  0
  139.8920  156.0960  132.9850 O   0  0  0  0  0  0  0  0  0  0  0  0
  141.0310  155.3630  135.3810 O   0  0  0  0  0  0  0  0  0  0  0  0
  148.7160  157.4700  131.0410 H   0  0  0  0  0  0  0  0  0  0  0  0
  147.0336  161.3165  133.1449 H   0  0  0  0  0  0  0  0  0  0  0  0
  144.3142  161.8769  133.8377 H   0  0  0  0  0  0  0  0  0  0  0  0
  142.1105  160.7773  134.3463 H   0  0  0  0  0  0  0  0  0  0  0  0
  141.5070  157.0890  134.0730 H   0  0  0  0  0  0  0  0  0  0  0  0
  140.4053  159.7747  134.6674 H   0  0  0  0  0  0  0  0  0  0  0  0
  139.5900  158.1724  134.8707 H   0  0  0  0  0  0  0  0  0  0  0  0
  140.0128  158.1659  137.0652 H   0  0  0  0  0  0  0  0  0  0  0  0
  143.9232  156.8622  133.7097 H   0  0  0  0  0  0  0  0  0  0  0  0
  144.8902  155.3971  131.9666 H   0  0  0  0  0  0  0  0  0  0  0  0
  145.2261  153.6467  132.1930 H   0  0  0  0  0  0  0  0  0  0  0  0
  142.8501  153.8559  131.8166 H   0  0  0  0  0  0  0  0  0  0  0  0
  143.0665  153.5314  133.5667 H   0  0  0  0  0  0  0  0  0  0  0  0
  1  2  1  0
  2  3  2  0
  2  4  1  0
  4  5  2  0
  5  6  1  0
  6  7  2  0
  7  8  1  0
  8  9  2  0
  9 10  1  0
 10 11  1  0
 11 12  1  0
 12 13  1  0
 12 14  1  0
  9 15  1  0
 15 16  2  0
 16 17  1  0
 17 18  1  0
 18 19  2  0
 18 20  1  0
 20 21  2  0
 20 22  1  0
 22 23  1  0
 23 24  1  0
 24 25  1  0
 25 26  1  0
 26 27  2  0
 26 28  1  0
 26 29  1  0
 17  4  1  0
 16  6  1  0
  1 30  1  0
  5 31  1  0
  7 32  1  0
  8 33  1  0
 10 34  1  0
 11 35  1  0
 11 36  1  0
 12 37  1  0
 15 38  1  0
 23 39  1  0
 23 40  1  0
 24 41  1  0
 24 42  1  0
M  CHG  3   1  -1  28  -1  29  -1
M  END
>  <UniqueID>  (34) 
34

>  <SMILES>  (34) 
[NH-]C(=O)c1cc2ccc(NCC(F)F)cc2n1C(=O)C(=O)OCCOP(=O)([O-])[O-]

>  <Energy>  (34) 
72.04315220438319

>  <Genealogy>  (34) 
[NH-]C(=O)c1cc2ccc(NCC(F)F)cc2n1C(=O)C(=O)OCCOP(=O)([O-])[O-] (protonated)
[NH-]C(=O)c1cc2ccc(NCC(F)F)cc2n1C(=O)C(=O)OCCOP(=O)([O-])[O-] (3D coordinates assigned)
[NH-]C(=O)c1cc2ccc(NCC(F)F)cc2n1C(=O)C(=O)OCCOP(=O)([O-])[O-] (optimized conformer: 72.04315220438319 kcal/mol)

>  <smiles>  (34) 
NC(=O)c1cc2ccc(NCC(F)F)cc2n1C(=O)C(=O)OCCOP(=O)(O)O

>  <score_type>  (34) 
oracle

>  <origin>  (34) 
adg

>  <m_score__min__energy>  (34) 
-5.2800000000000002

>  <m_primary>  (34) 
energy

$$$$
34:0
     RDKit          3D

 50 51  0  0  0  0  0  0  0  0999 V2000
  140.1200  159.2080  132.9550 C   0  0  0  0  0  0  0  0  0  0  0  0
  141.0440  158.0560  133.3700 C   0  0  0  0  0  0  0  0  0  0  0  0
  140.2270  156.8340  133.8110 C   0  0  0  0  0  0  0  0  0  0  0  0
  142.0000  158.4650  134.4270 N   0  0  0  0  0  0  0  0  0  0  0  0
  141.7310  158.1310  135.8410 C   0  0  0  0  0  0  0  0  0  0  0  0
  140.5360  158.8660  136.3800 C   0  0  0  0  0  0  0  0  0  0  0  0
  140.6100  160.0810  136.7060 O   0  0  0  0  0  0  0  0  0  0  0  0
  139.3400  158.1840  136.5580 O   0  0  0  0  0  0  0  0  0  0  0  0
  143.2800  159.0540  134.0690 C   0  0  0  0  0  0  0  0  0  0  0  0
  143.4570  160.4670  134.0610 C   0  0  0  0  0  0  0  0  0  0  0  0
  144.6930  161.0400  133.7250 C   0  0  0  0  0  0  0  0  0  0  0  0
  145.7370  160.1890  133.3820 C   0  0  0  0  0  0  0  0  0  0  0  0
  147.0390  160.4770  133.0430 C   0  0  0  0  0  0  0  0  0  0  0  0
  147.6410  159.2430  132.8100 C   0  0  0  0  0  0  0  0  0  0  0  0
  149.0340  159.0930  132.3400 C   0  0  0  0  0  0  0  0  0  0  0  0
  149.6120  157.8030  132.1610 N   0  0  0  0  0  0  0  0  0  0  0  0
  149.7070  160.1170  132.0480 O   0  0  0  0  0  0  0  0  0  0  0  0
  146.7470  158.2320  133.0020 N   0  0  0  0  0  0  0  0  0  0  0  0
  146.9990  156.8190  132.9580 C   0  0  0  0  0  0  0  0  0  0  0  0
  147.2450  156.2640  131.8530 O   0  0  0  0  0  0  0  0  0  0  0  0
  146.9450  156.0730  134.1440 O   0  0  0  0  0  0  0  0  0  0  0  0
  146.8860  154.6420  134.2470 C   0  0  0  0  0  0  0  0  0  0  0  0
  148.0930  153.9980  133.5400 C   0  0  0  0  0  0  0  0  0  0  0  0
  146.8220  154.2030  135.7220 C   0  0  0  0  0  0  0  0  0  0  0  0
  145.5980  154.1920  133.5400 C   0  0  0  0  0  0  0  0  0  0  0  0
  145.5860  158.8290  133.3510 C   0  0  0  0  0  0  0  0  0  0  0  0
  144.3730  158.2280  133.7010 C   0  0  0  0  0  0  0  0  0  0  0  0
  139.7236  159.7022  133.8542 H   0  0  0  0  0  0  0  0  0  0  0  0
  140.6875  159.9359  132.3566 H   0  0  0  0  0  0  0  0  0  0  0  0
  139.2863  158.8120  132.3566 H   0  0  0  0  0  0  0  0  0  0  0  0
  141.6371  157.7769  132.4866 H   0  0  0  0  0  0  0  0  0  0  0  0
  140.1974  156.7898  134.9097 H   0  0  0  0  0  0  0  0  0  0  0  0
  139.2023  156.9174  133.4197 H   0  0  0  0  0  0  0  0  0  0  0  0
  140.6956  155.9190  133.4197 H   0  0  0  0  0  0  0  0  0  0  0  0
  141.5474  157.0494  135.9209 H   0  0  0  0  0  0  0  0  0  0  0  0
  142.6082  158.4326  136.4322 H   0  0  0  0  0  0  0  0  0  0  0  0
  142.6111  161.1198  134.3225 H   0  0  0  0  0  0  0  0  0  0  0  0
  144.8317  162.1312  133.7328 H   0  0  0  0  0  0  0  0  0  0  0  0
  147.5053  161.4707  132.9713 H   0  0  0  0  0  0  0  0  0  0  0  0
  149.2030  157.1190  131.4860 H   0  0  0  0  0  0  0  0  0  0  0  0
  148.8005  153.6205  134.2930 H   0  0  0  0  0  0  0  0  0  0  0  0
  147.7476  153.1643  132.9110 H   0  0  0  0  0  0  0  0  0  0  0  0
  148.5931  154.7491  132.9110 H   0  0  0  0  0  0  0  0  0  0  0  0
  146.9500  155.0813  136.3718 H   0  0  0  0  0  0  0  0  0  0  0  0
  145.8464  153.7367  135.9238 H   0  0  0  0  0  0  0  0  0  0  0  0
  147.6239  153.4776  135.9238 H   0  0  0  0  0  0  0  0  0  0  0  0
  144.8402  153.9272  134.2921 H   0  0  0  0  0  0  0  0  0  0  0  0
  145.2197  155.0112  132.9109 H   0  0  0  0  0  0  0  0  0  0  0  0
  145.8121  153.3154  132.9109 H   0  0  0  0  0  0  0  0  0  0  0  0
  144.2680  157.1331  133.6912 H   0  0  0  0  0  0  0  0  0  0  0  0
  1  2  1  0
  2  3  1  0
  2  4  1  0
  4  5  1  0
  5  6  1  0
  6  7  2  0
  6  8  1  0
  4  9  1  0
  9 10  2  0
 10 11  1  0
 11 12  2  0
 12 13  1  0
 13 14  2  0
 14 15  1  0
 15 16  1  0
 15 17  2  0
 14 18  1  0
 18 19  1  0
 19 20  2  0
 19 21  1  0
 21 22  1  0
 22 23  1  0
 22 24  1  0
 22 25  1  0
 18 26  1  0
 26 27  2  0
 27  9  1  0
 26 12  1  0
  1 28  1  0
  1 29  1  0
  1 30  1  0
  2 31  1  0
  3 32  1  0
  3 33  1  0
  3 34  1  0
  5 35  1  0
  5 36  1  0
 10 37  1  0
 11 38  1  0
 13 39  1  0
 16 40  1  0
 23 41  1  0
 23 42  1  0
 23 43  1  0
 24 44  1  0
 24 45  1  0
 24 46  1  0
 25 47  1  0
 25 48  1  0
 25 49  1  0
 27 50  1  0
M  CHG  2   8  -1  16  -1
M  END
>  <UniqueID>  (35) 
35

>  <SMILES>  (35) 
CC(C)N(CC(=O)[O-])c1ccc2cc(C([NH-])=O)n(C(=O)OC(C)(C)C)c2c1

>  <Energy>  (35) 
85.10740292688509

>  <Genealogy>  (35) 
CC(C)N(CC(=O)[O-])c1ccc2cc(C([NH-])=O)n(C(=O)OC(C)(C)C)c2c1 (protonated)
CC(C)N(CC(=O)[O-])c1ccc2cc(C([NH-])=O)n(C(=O)OC(C)(C)C)c2c1 (3D coordinates assigned)
CC(C)N(CC(=O)[O-])c1ccc2cc(C([NH-])=O)n(C(=O)OC(C)(C)C)c2c1 (optimized conformer: 85.10740292688509 kcal/mol)

>  <smiles>  (35) 
CC(C)N(CC(=O)O)c1ccc2cc(C(N)=O)n(C(=O)OC(C)(C)C)c2c1

>  <score_type>  (35) 
oracle

>  <origin>  (35) 
adg

>  <m_score__min__energy>  (35) 
-7.3499999999999996

>  <m_primary>  (35) 
energy

$$$$
35:0
     RDKit          3D

 34 35  0  0  0  0  0  0  0  0999 V2000
  142.7100  149.8480  132.2210 C   0  0  0  0  0  0  0  0  0  0  0  0
  141.2020  150.1560  132.3070 C   0  0  0  0  0  0  0  0  0  0  0  0
  140.6040  149.6140  133.6160 C   0  0  0  0  0  0  0  0  0  0  0  0
  140.5410  149.4510  131.1890 C   0  0  0  0  0  0  0  0  0  0  0  0
  140.0250  148.8980  130.3120 N   0  0  0  0  0  0  0  0  0  0  0  0
  140.9260  151.6030  132.1770 N   0  0  0  0  0  0  0  0  0  0  0  0
  141.1970  152.6150  133.1670 C   0  0  0  0  0  0  0  0  0  0  0  0
  142.1350  152.3320  134.1900 C   0  0  0  0  0  0  0  0  0  0  0  0
  142.4410  153.2840  135.1750 C   0  0  0  0  0  0  0  0  0  0  0  0
  141.8120  154.5220  135.1000 C   0  0  0  0  0  0  0  0  0  0  0  0
  141.9020  155.6090  135.9380 C   0  0  0  0  0  0  0  0  0  0  0  0
  141.0560  156.5670  135.3870 C   0  0  0  0  0  0  0  0  0  0  0  0
  140.8950  157.9250  135.9460 C   0  0  0  0  0  0  0  0  0  0  0  0
  139.6160  158.4060  136.3620 N   0  0  0  0  0  0  0  0  0  0  0  0
  141.8920  158.6910  136.0040 O   0  0  0  0  0  0  0  0  0  0  0  0
  140.4540  156.0890  134.2610 N   0  0  0  0  0  0  0  0  0  0  0  0
  139.4310  156.7290  133.4790 C   0  0  0  0  0  0  0  0  0  0  0  0
  139.4270  156.6170  132.2250 O   0  0  0  0  0  0  0  0  0  0  0  0
  138.4340  157.4760  134.0950 O   0  0  0  0  0  0  0  0  0  0  0  0
  140.9300  154.8340  134.0970 C   0  0  0  0  0  0  0  0  0  0  0  0
  140.5930  153.8940  133.1160 C   0  0  0  0  0  0  0  0  0  0  0  0
  143.1254  149.7632  133.2360 H   0  0  0  0  0  0  0  0  0  0  0  0
  142.8606  148.9006  131.6828 H   0  0  0  0  0  0  0  0  0  0  0  0
  143.2201  150.6605  131.6828 H   0  0  0  0  0  0  0  0  0  0  0  0
  141.1155  150.0776  134.4724 H   0  0  0  0  0  0  0  0  0  0  0  0
  139.5312  149.8538  133.6560 H   0  0  0  0  0  0  0  0  0  0  0  0
  140.7375  148.5229  133.6560 H   0  0  0  0  0  0  0  0  0  0  0  0
  140.6890  151.9610  131.2230 H   0  0  0  0  0  0  0  0  0  0  0  0
  142.6314  151.3507  134.2129 H   0  0  0  0  0  0  0  0  0  0  0  0
  143.1554  153.0581  135.9804 H   0  0  0  0  0  0  0  0  0  0  0  0
  142.5120  155.7014  136.8487 H   0  0  0  0  0  0  0  0  0  0  0  0
  139.5270  159.3540  136.7890 H   0  0  0  0  0  0  0  0  0  0  0  0
  138.7460  157.8620  136.1690 H   0  0  0  0  0  0  0  0  0  0  0  0
  139.8738  154.1441  132.3221 H   0  0  0  0  0  0  0  0  0  0  0  0
  1  2  1  0
  2  3  1  0
  2  4  1  0
  4  5  3  0
  2  6  1  0
  6  7  1  0
  7  8  2  0
  8  9  1  0
  9 10  2  0
 10 11  1  0
 11 12  2  0
 12 13  1  0
 13 14  1  0
 13 15  2  0
 12 16  1  0
 16 17  1  0
 17 18  2  0
 17 19  1  0
 16 20  1  0
 20 21  2  0
 21  7  1  0
 20 10  1  0
  1 22  1  0
  1 23  1  0
  1 24  1  0
  3 25  1  0
  3 26  1  0
  3 27  1  0
  6 28  1  0
  8 29  1  0
  9 30  1  0
 11 31  1  0
 14 32  1  0
 14 33  1  0
 21 34  1  0
M  CHG  1  19  -1
M  END
>  <UniqueID>  (36) 
36

>  <SMILES>  (36) 
CC(C)(C#N)Nc1ccc2cc(C(N)=O)n(C(=O)[O-])c2c1

>  <Energy>  (36) 
76.6572611105079

>  <Genealogy>  (36) 
CC(C)(C#N)Nc1ccc2cc(C(N)=O)n(C(=O)[O-])c2c1 (protonated)
CC(C)(C#N)Nc1ccc2cc(C(N)=O)n(C(=O)[O-])c2c1 (3D coordinates assigned)
CC(C)(C#N)Nc1ccc2cc(C(N)=O)n(C(=O)[O-])c2c1 (optimized conformer: 76.6572611105079 kcal/mol)

>  <smiles>  (36) 
CC(C)(C#N)Nc1ccc2cc(C(N)=O)n(C(=O)O)c2c1

>  <score_type>  (36) 
oracle

>  <origin>  (36) 
adg

>  <m_score__min__energy>  (36) 
-7.2599999999999998

>  <m_primary>  (36) 
energy

$$$$
36:0
     RDKit          3D

 43 44  0  0  0  0  0  0  0  0999 V2000
  149.6790  160.6140  129.1880 C   0  0  0  0  0  0  0  0  0  0  0  0
  149.5710  161.2810  130.5520 C   0  0  0  0  0  0  0  0  0  0  0  0
  149.4210  160.2860  131.5580 O   0  0  0  0  0  0  0  0  0  0  0  0
  148.2410  159.5570  131.7260 C   0  0  0  0  0  0  0  0  0  0  0  0
  147.1150  160.1140  131.6020 O   0  0  0  0  0  0  0  0  0  0  0  0
  148.3160  158.1180  132.1230 C   0  0  0  0  0  0  0  0  0  0  0  0
  148.1860  158.0020  133.5820 N   0  0  0  0  0  0  0  0  0  0  0  0
  148.8500  158.9830  134.4490 C   0  0  0  0  0  0  0  0  0  0  0  0
  147.4430  156.8980  134.1510 C   0  0  0  0  0  0  0  0  0  0  0  0
  147.8060  156.4130  135.2580 O   0  0  0  0  0  0  0  0  0  0  0  0
  146.2740  156.2770  133.4240 C   0  0  0  0  0  0  0  0  0  0  0  0
  145.0650  157.1780  133.4380 C   0  0  0  0  0  0  0  0  0  0  0  0
  145.2260  158.5850  133.4580 C   0  0  0  0  0  0  0  0  0  0  0  0
  144.1060  159.4310  133.4430 C   0  0  0  0  0  0  0  0  0  0  0  0
  142.8440  158.8440  133.3920 C   0  0  0  0  0  0  0  0  0  0  0  0
  141.5970  159.4270  133.3830 C   0  0  0  0  0  0  0  0  0  0  0  0
  140.6940  158.3670  133.3290 C   0  0  0  0  0  0  0  0  0  0  0  0
  139.2310  158.5530  133.2190 C   0  0  0  0  0  0  0  0  0  0  0  0
  138.3270  157.6210  133.8060 N   0  0  0  0  0  0  0  0  0  0  0  0
  138.7750  159.5220  132.5530 O   0  0  0  0  0  0  0  0  0  0  0  0
  141.3560  157.1740  133.3140 N   0  0  0  0  0  0  0  0  0  0  0  0
  140.7890  155.8530  133.3550 C   0  0  0  0  0  0  0  0  0  0  0  0
  139.7880  155.5670  132.6470 O   0  0  0  0  0  0  0  0  0  0  0  0
  141.3230  154.8860  134.1970 O   0  0  0  0  0  0  0  0  0  0  0  0
  142.6720  157.4840  133.3480 C   0  0  0  0  0  0  0  0  0  0  0  0
  143.7690  156.6170  133.3790 C   0  0  0  0  0  0  0  0  0  0  0  0
  149.8536  159.5360  129.3198 H   0  0  0  0  0  0  0  0  0  0  0  0
  148.7441  160.7685  128.6293 H   0  0  0  0  0  0  0  0  0  0  0  0
  150.5173  161.0556  128.6293 H   0  0  0  0  0  0  0  0  0  0  0  0
  150.4825  161.8650  130.7474 H   0  0  0  0  0  0  0  0  0  0  0  0
  148.6969  161.9487  130.5646 H   0  0  0  0  0  0  0  0  0  0  0  0
  147.5010  157.5613  131.6374 H   0  0  0  0  0  0  0  0  0  0  0  0
  149.2845  157.7021  131.8082 H   0  0  0  0  0  0  0  0  0  0  0  0
  148.6725  158.7208  135.5024 H   0  0  0  0  0  0  0  0  0  0  0  0
  149.9313  158.9782  134.2471 H   0  0  0  0  0  0  0  0  0  0  0  0
  148.4437  159.9851  134.2471 H   0  0  0  0  0  0  0  0  0  0  0  0
  146.5641  156.0862  132.3802 H   0  0  0  0  0  0  0  0  0  0  0  0
  146.0095  155.3409  133.9375 H   0  0  0  0  0  0  0  0  0  0  0  0
  146.2367  159.0182  133.4855 H   0  0  0  0  0  0  0  0  0  0  0  0
  144.2215  160.5246  133.4707 H   0  0  0  0  0  0  0  0  0  0  0  0
  141.3630  160.5014  133.4122 H   0  0  0  0  0  0  0  0  0  0  0  0
  138.0620  156.7440  133.3070 H   0  0  0  0  0  0  0  0  0  0  0  0
  143.6268  155.5264  133.3580 H   0  0  0  0  0  0  0  0  0  0  0  0
  1  2  1  0
  2  3  1  0
  3  4  1  0
  4  5  2  0
  4  6  1  0
  6  7  1  0
  7  8  1  0
  7  9  1  0
  9 10  2  0
  9 11  1  0
 11 12  1  0
 12 13  2  0
 13 14  1  0
 14 15  2  0
 15 16  1  0
 16 17  2  0
 17 18  1  0
 18 19  1  0
 18 20  2  0
 17 21  1  0
 21 22  1  0
 22 23  2  0
 22 24  1  0
 21 25  1  0
 25 26  2  0
 26 12  1  0
 25 15  1  0
  1 27  1  0
  1 28  1  0
  1 29  1  0
  2 30  1  0
  2 31  1  0
  6 32  1  0
  6 33  1  0
  8 34  1  0
  8 35  1  0
  8 36  1  0
 11 37  1  0
 11 38  1  0
 13 39  1  0
 14 40  1  0
 16 41  1  0
 19 42  1  0
 26 43  1  0
M  CHG  2  19  -1  24  -1
M  END
>  <UniqueID>  (37) 
37

>  <SMILES>  (37) 
CCOC(=O)CN(C)C(=O)Cc1ccc2cc(C([NH-])=O)n(C(=O)[O-])c2c1

>  <Energy>  (37) 
73.93995486798998

>  <Genealogy>  (37) 
CCOC(=O)CN(C)C(=O)Cc1ccc2cc(C([NH-])=O)n(C(=O)[O-])c2c1 (protonated)
CCOC(=O)CN(C)C(=O)Cc1ccc2cc(C([NH-])=O)n(C(=O)[O-])c2c1 (3D coordinates assigned)
CCOC(=O)CN(C)C(=O)Cc1ccc2cc(C([NH-])=O)n(C(=O)[O-])c2c1 (optimized conformer: 73.93995486798998 kcal/mol)

>  <smiles>  (37) 
CCOC(=O)CN(C)C(=O)Cc1ccc2cc(C(N)=O)n(C(=O)O)c2c1

>  <score_type>  (37) 
oracle

>  <origin>  (37) 
adg

>  <m_score__min__energy>  (37) 
-6.5599999999999996

>  <m_primary>  (37) 
energy

$$$$
37:0
     RDKit          3D

 39 40  0  0  0  0  0  0  0  0999 V2000
  144.6750  152.7070  133.2280 C   0  0  0  0  0  0  0  0  0  0  0  0
  143.3520  152.2650  132.7760 N   0  0  0  0  0  0  0  0  0  0  0  0
  143.3050  150.8070  132.6070 C   0  0  0  0  0  0  0  0  0  0  0  0
  141.9360  150.2880  132.9200 C   0  0  0  0  0  0  0  0  0  0  0  0
  141.6760  149.0650  132.7520 O   0  0  0  0  0  0  0  0  0  0  0  0
  140.9750  151.1580  133.4360 O   0  0  0  0  0  0  0  0  0  0  0  0
  140.2590  152.0850  132.6270 C   0  0  0  0  0  0  0  0  0  0  0  0
  140.8570  153.3720  132.7340 O   0  0  0  0  0  0  0  0  0  0  0  0
  140.1290  154.5210  133.0610 C   0  0  0  0  0  0  0  0  0  0  0  0
  138.8720  154.5270  132.9670 O   0  0  0  0  0  0  0  0  0  0  0  0
  140.8160  155.6890  133.5360 N   0  0  0  0  0  0  0  0  0  0  0  0
  141.8100  155.7510  134.4680 C   0  0  0  0  0  0  0  0  0  0  0  0
  142.5120  154.5970  135.0640 C   0  0  0  0  0  0  0  0  0  0  0  0
  141.8580  153.3400  135.2210 N   0  0  0  0  0  0  0  0  0  0  0  0
  143.7230  154.7070  135.3960 O   0  0  0  0  0  0  0  0  0  0  0  0
  142.1410  157.0770  134.7390 C   0  0  0  0  0  0  0  0  0  0  0  0
  141.3190  157.8310  133.9340 C   0  0  0  0  0  0  0  0  0  0  0  0
  141.2030  159.2120  133.8170 C   0  0  0  0  0  0  0  0  0  0  0  0
  140.2330  159.7210  132.9360 C   0  0  0  0  0  0  0  0  0  0  0  0
  139.4070  158.8460  132.1830 C   0  0  0  0  0  0  0  0  0  0  0  0
  138.3240  159.4030  131.2940 C   0  0  0  0  0  0  0  0  0  0  0  0
  137.1050  158.8130  131.5800 F   0  0  0  0  0  0  0  0  0  0  0  0
  138.6470  159.1510  129.9730 F   0  0  0  0  0  0  0  0  0  0  0  0
  138.1980  160.7690  131.4740 F   0  0  0  0  0  0  0  0  0  0  0  0
  139.5410  157.4480  132.3490 C   0  0  0  0  0  0  0  0  0  0  0  0
  140.5280  156.9710  133.2190 C   0  0  0  0  0  0  0  0  0  0  0  0
  144.7026  152.7162  134.3276 H   0  0  0  0  0  0  0  0  0  0  0  0
  145.4420  152.0163  132.8477 H   0  0  0  0  0  0  0  0  0  0  0  0
  144.8729  153.7200  132.8477 H   0  0  0  0  0  0  0  0  0  0  0  0
  142.6690  152.5190  133.5280 H   0  0  0  0  0  0  0  0  0  0  0  0
  143.5590  150.5545  131.5669 H   0  0  0  0  0  0  0  0  0  0  0  0
  144.0273  150.3450  133.2960 H   0  0  0  0  0  0  0  0  0  0  0  0
  140.2872  151.7541  131.5783 H   0  0  0  0  0  0  0  0  0  0  0  0
  139.2145  152.1375  132.9681 H   0  0  0  0  0  0  0  0  0  0  0  0
  141.9010  152.6130  134.4730 H   0  0  0  0  0  0  0  0  0  0  0  0
  142.8991  157.4434  135.4468 H   0  0  0  0  0  0  0  0  0  0  0  0
  141.8510  159.8859  134.3966 H   0  0  0  0  0  0  0  0  0  0  0  0
  140.1128  160.8092  132.8290 H   0  0  0  0  0  0  0  0  0  0  0  0
  138.8846  156.7515  131.8068 H   0  0  0  0  0  0  0  0  0  0  0  0
  1  2  1  0
  2  3  1  0
  3  4  1  0
  4  5  2  0
  4  6  1  0
  6  7  1  0
  7  8  1  0
  8  9  1  0
  9 10  2  0
  9 11  1  0
 11 12  1  0
 12 13  1  0
 13 14  1  0
 13 15  2  0
 12 16  2  0
 16 17  1  0
 17 18  2  0
 18 19  1  0
 19 20  2  0
 20 21  1  0
 21 22  1  0
 21 23  1  0
 21 24  1  0
 20 25  1  0
 25 26  2  0
 26 11  1  0
 26 17  1  0
  1 27  1  0
  1 28  1  0
  1 29  1  0
  2 30  1  0
  3 31  1  0
  3 32  1  0
  7 33  1  0
  7 34  1  0
 14 35  1  0
 16 36  1  0
 18 37  1  0
 19 38  1  0
 25 39  1  0
M  CHG  1  14  -1
M  END
>  <UniqueID>  (38) 
38

>  <SMILES>  (38) 
CNCC(=O)OCOC(=O)n1c(C([NH-])=O)cc2ccc(C(F)(F)F)cc21

>  <Energy>  (38) 
72.62073599859262

>  <Genealogy>  (38) 
CNCC(=O)OCOC(=O)n1c(C([NH-])=O)cc2ccc(C(F)(F)F)cc21 (protonated)
CNCC(=O)OCOC(=O)n1c(C([NH-])=O)cc2ccc(C(F)(F)F)cc21 (3D coordinates assigned)
CNCC(=O)OCOC(=O)n1c(C([NH-])=O)cc2ccc(C(F)(F)F)cc21 (optimized conformer: 72.62073599859262 kcal/mol)

>  <smiles>  (38) 
CNCC(=O)OCOC(=O)n1c(C(N)=O)cc2ccc(C(F)(F)F)cc21

>  <score_type>  (38) 
oracle

>  <origin>  (38) 
adg

>  <m_score__min__energy>  (38) 
-4.8399999999999999

>  <m_primary>  (38) 
energy

$$$$
38:0
     RDKit          3D

 39 40  0  0  0  0  0  0  0  0999 V2000
  148.4800  156.9500  133.7340 N   0  0  0  0  0  0  0  0  0  0  0  0
  148.0850  158.3210  133.6360 C   0  0  0  0  0  0  0  0  0  0  0  0
  148.9720  159.2120  133.5790 O   0  0  0  0  0  0  0  0  0  0  0  0
  146.6530  158.6910  133.5650 C   0  0  0  0  0  0  0  0  0  0  0  0
  146.1810  159.9970  133.6780 C   0  0  0  0  0  0  0  0  0  0  0  0
  144.8100  159.8930  133.6620 C   0  0  0  0  0  0  0  0  0  0  0  0
  143.8370  160.8850  133.7410 C   0  0  0  0  0  0  0  0  0  0  0  0
  142.4890  160.4920  133.6820 C   0  0  0  0  0  0  0  0  0  0  0  0
  142.1420  159.1250  133.5330 C   0  0  0  0  0  0  0  0  0  0  0  0
  140.6940  158.7120  133.4810 C   0  0  0  0  0  0  0  0  0  0  0  0
  139.9460  159.3530  132.3010 C   0  0  0  0  0  0  0  0  0  0  0  0
  138.6570  158.6100  131.9300 C   0  0  0  0  0  0  0  0  0  0  0  0
  137.9860  159.2860  130.9040 O   0  0  0  0  0  0  0  0  0  0  0  0
  143.1580  158.1480  133.4560 C   0  0  0  0  0  0  0  0  0  0  0  0
  144.4910  158.5650  133.5400 C   0  0  0  0  0  0  0  0  0  0  0  0
  145.6130  157.8140  133.4790 N   0  0  0  0  0  0  0  0  0  0  0  0
  145.6770  156.3890  133.3050 C   0  0  0  0  0  0  0  0  0  0  0  0
  146.2600  155.9040  132.2970 O   0  0  0  0  0  0  0  0  0  0  0  0
  145.0730  155.5470  134.2460 O   0  0  0  0  0  0  0  0  0  0  0  0
  145.5240  154.2230  134.5210 C   0  0  0  0  0  0  0  0  0  0  0  0
  147.2050  154.2560  135.2170 P   0  0  0  0  0  0  0  0  0  0  0  0
  148.2120  154.0410  134.1120 O   0  0  0  0  0  0  0  0  0  0  0  0
  147.4790  155.7590  135.9410 O   0  0  0  0  0  0  0  0  0  0  0  0
  147.3770  153.0380  136.3780 O   0  0  0  0  0  0  0  0  0  0  0  0
  147.7750  156.1880  133.8390 H   0  0  0  0  0  0  0  0  0  0  0  0
  149.4940  156.6980  133.7420 H   0  0  0  0  0  0  0  0  0  0  0  0
  146.7786  160.9166  133.7622 H   0  0  0  0  0  0  0  0  0  0  0  0
  144.1146  161.9442  133.8464 H   0  0  0  0  0  0  0  0  0  0  0  0
  141.6962  161.2513  133.7520 H   0  0  0  0  0  0  0  0  0  0  0  0
  140.6417  157.6179  133.3805 H   0  0  0  0  0  0  0  0  0  0  0  0
  140.2133  159.0538  134.4095 H   0  0  0  0  0  0  0  0  0  0  0  0
  139.6882  160.3878  132.5707 H   0  0  0  0  0  0  0  0  0  0  0  0
  140.6129  159.3086  131.4273 H   0  0  0  0  0  0  0  0  0  0  0  0
  138.9081  157.5939  131.5917 H   0  0  0  0  0  0  0  0  0  0  0  0
  138.0042  158.5616  132.8140 H   0  0  0  0  0  0  0  0  0  0  0  0
  137.6200  158.5840  130.3060 H   0  0  0  0  0  0  0  0  0  0  0  0
  142.9077  157.0840  133.3329 H   0  0  0  0  0  0  0  0  0  0  0  0
  144.8420  153.7507  135.2434 H   0  0  0  0  0  0  0  0  0  0  0  0
  145.5380  153.6491  133.5827 H   0  0  0  0  0  0  0  0  0  0  0  0
  1  2  1  0
  2  3  2  0
  2  4  1  0
  4  5  2  0
  5  6  1  0
  6  7  2  0
  7  8  1  0
  8  9  2  0
  9 10  1  0
 10 11  1  0
 11 12  1  0
 12 13  1  0
  9 14  1  0
 14 15  2  0
 15 16  1  0
 16 17  1  0
 17 18  2  0
 17 19  1  0
 19 20  1  0
 20 21  1  0
 21 22  2  0
 21 23  1  0
 21 24  1  0
 16  4  1  0
 15  6  1  0
  1 25  1  0
  1 26  1  0
  5 27  1  0
  7 28  1  0
  8 29  1  0
 10 30  1  0
 10 31  1  0
 11 32  1  0
 11 33  1  0
 12 34  1  0
 12 35  1  0
 13 36  1  0
 14 37  1  0
 20 38  1  0
 20 39  1  0
M  CHG  2  23  -1  24  -1
M  END
>  <UniqueID>  (39) 
39

>  <SMILES>  (39) 
NC(=O)c1cc2ccc(CCCO)cc2n1C(=O)OCP(=O)([O-])[O-]

>  <Energy>  (39) 
68.12743198312326

>  <Genealogy>  (39) 
NC(=O)c1cc2ccc(CCCO)cc2n1C(=O)OCP(=O)([O-])[O-] (protonated)
NC(=O)c1cc2ccc(CCCO)cc2n1C(=O)OCP(=O)([O-])[O-] (3D coordinates assigned)
NC(=O)c1cc2ccc(CCCO)cc2n1C(=O)OCP(=O)([O-])[O-] (optimized conformer: 68.12743198312326 kcal/mol)

>  <smiles>  (39) 
NC(=O)c1cc2ccc(CCCO)cc2n1C(=O)OCP(=O)(O)O

>  <score_type>  (39) 
oracle

>  <origin>  (39) 
adg

>  <m_score__min__energy>  (39) 
-7.04

>  <m_primary>  (39) 
energy

$$$$
39:0
     RDKit          3D

 41 43  0  0  0  0  0  0  0  0999 V2000
  149.2050  157.4140  132.3190 N   0  0  0  0  0  0  0  0  0  0  0  0
  148.7300  158.7160  132.6530 C   0  0  0  0  0  0  0  0  0  0  0  0
  149.5320  159.6860  132.6410 O   0  0  0  0  0  0  0  0  0  0  0  0
  147.3000  158.9180  132.9680 C   0  0  0  0  0  0  0  0  0  0  0  0
  146.6880  160.1690  132.9890 C   0  0  0  0  0  0  0  0  0  0  0  0
  145.3980  159.9360  133.4090 C   0  0  0  0  0  0  0  0  0  0  0  0
  144.3470  160.8250  133.6010 C   0  0  0  0  0  0  0  0  0  0  0  0
  143.1110  160.3050  134.0170 C   0  0  0  0  0  0  0  0  0  0  0  0
  142.9360  158.9090  134.2270 C   0  0  0  0  0  0  0  0  0  0  0  0
  141.6540  158.3840  134.6440 N   0  0  0  0  0  0  0  0  0  0  0  0
  140.9280  158.8510  135.8160 C   0  0  0  0  0  0  0  0  0  0  0  0
  139.7440  157.9080  135.9790 C   0  0  0  0  0  0  0  0  0  0  0  0
  139.5810  157.2070  134.6240 C   0  0  1  0  0  0  0  0  0  0  0  0
  138.5490  157.8540  133.8080 N   0  0  0  0  0  0  0  0  0  0  0  0
  140.9460  157.3190  133.9460 C   0  0  0  0  0  0  0  0  0  0  0  0
  144.0370  158.0410  134.0170 C   0  0  0  0  0  0  0  0  0  0  0  0
  145.2610  158.5910  133.6210 C   0  0  0  0  0  0  0  0  0  0  0  0
  146.4200  157.9490  133.3510 N   0  0  0  0  0  0  0  0  0  0  0  0
  146.6390  156.5300  133.4090 C   0  0  0  0  0  0  0  0  0  0  0  0
  146.6960  155.8580  132.3430 O   0  0  0  0  0  0  0  0  0  0  0  0
  146.7630  155.8990  134.6510 O   0  0  0  0  0  0  0  0  0  0  0  0
  146.8630  154.4850  134.8050 C   0  0  0  0  0  0  0  0  0  0  0  0
  147.3820  154.1440  136.1660 C   0  0  0  0  0  0  0  0  0  0  0  0
  148.2460  154.8770  136.7130 O   0  0  0  0  0  0  0  0  0  0  0  0
  146.9330  153.0030  136.8180 O   0  0  0  0  0  0  0  0  0  0  0  0
  148.5940  156.7320  131.8160 H   0  0  0  0  0  0  0  0  0  0  0  0
  147.1394  161.1370  132.7260 H   0  0  0  0  0  0  0  0  0  0  0  0
  144.4796  161.9038  133.4321 H   0  0  0  0  0  0  0  0  0  0  0  0
  142.2647  160.9878  134.1831 H   0  0  0  0  0  0  0  0  0  0  0  0
  141.5732  158.8119  136.7060 H   0  0  0  0  0  0  0  0  0  0  0  0
  140.5992  159.8940  135.6973 H   0  0  0  0  0  0  0  0  0  0  0  0
  139.9469  157.1710  136.7700 H   0  0  0  0  0  0  0  0  0  0  0  0
  138.8311  158.4493  136.2682 H   0  0  0  0  0  0  0  0  0  0  0  0
  139.2629  156.1615  134.7500 H   0  0  0  0  0  0  0  0  0  0  0  0
  137.9220  158.4220  134.4240 H   0  0  0  0  0  0  0  0  0  0  0  0
  137.9630  157.1110  133.3630 H   0  0  0  0  0  0  0  0  0  0  0  0
  141.4966  156.3710  134.0360 H   0  0  0  0  0  0  0  0  0  0  0  0
  140.8463  157.5372  132.8725 H   0  0  0  0  0  0  0  0  0  0  0  0
  143.9310  156.9558  134.1626 H   0  0  0  0  0  0  0  0  0  0  0  0
  145.8680  154.0348  134.6732 H   0  0  0  0  0  0  0  0  0  0  0  0
  147.5588  154.0921  134.0490 H   0  0  0  0  0  0  0  0  0  0  0  0
  1  2  1  0
  2  3  2  0
  2  4  1  0
  4  5  2  0
  5  6  1  0
  6  7  2  0
  7  8  1  0
  8  9  2  0
  9 10  1  0
 10 11  1  0
 11 12  1  0
 12 13  1  0
 13 14  1  0
 13 15  1  0
  9 16  1  0
 16 17  2  0
 17 18  1  0
 18 19  1  0
 19 20  2  0
 19 21  1  0
 21 22  1  0
 22 23  1  0
 23 24  2  0
 23 25  1  0
 18  4  1  0
 17  6  1  0
 15 10  1  0
  1 26  1  0
  5 27  1  0
  7 28  1  0
  8 29  1  0
 11 30  1  0
 11 31  1  0
 12 32  1  0
 12 33  1  0
 13 34  1  1
 14 35  1  0
 14 36  1  0
 15 37  1  0
 15 38  1  0
 16 39  1  0
 22 40  1  0
 22 41  1  0
M  CHG  2   1  -1  25  -1
M  END
>  <UniqueID>  (40) 
40

>  <SMILES>  (40) 
[NH-]C(=O)c1cc2ccc(N3CC[C@@H](N)C3)cc2n1C(=O)OCC(=O)[O-]

>  <Energy>  (40) 
80.58738618130798

>  <Genealogy>  (40) 
[NH-]C(=O)c1cc2ccc(N3CCC(N)C3)cc2n1C(=O)OCC(=O)[O-] (protonated)
[NH-]C(=O)c1cc2ccc(N3CC[C@@H](N)C3)cc2n1C(=O)OCC(=O)[O-] (chirality)
[NH-]C(=O)c1cc2ccc(N3CC[C@@H](N)C3)cc2n1C(=O)OCC(=O)[O-] (3D coordinates assigned)
[NH-]C(=O)c1cc2ccc(N3CC[C@@H](N)C3)cc2n1C(=O)OCC(=O)[O-] (nonaromatic ring conformer: 80.58738618130798 kcal/mol)

>  <smiles>  (40) 
NC(=O)c1cc2ccc(N3CCC(N)C3)cc2n1C(=O)OCC(=O)O

>  <score_type>  (40) 
oracle

>  <origin>  (40) 
adg

>  <m_score__min__energy>  (40) 
-7.4900000000000002

>  <m_primary>  (40) 
energy

$$$$
40:0
     RDKit          3D

 37 38  0  0  0  0  0  0  0  0999 V2000
  138.4770  157.3360  133.3450 N   0  0  0  0  0  0  0  0  0  0  0  0
  139.3830  156.2340  133.2550 C   0  0  0  0  0  0  0  0  0  0  0  0
  138.9290  155.0780  133.0470 O   0  0  0  0  0  0  0  0  0  0  0  0
  140.8440  156.4350  133.3380 C   0  0  0  0  0  0  0  0  0  0  0  0
  141.7400  155.4170  133.6470 C   0  0  0  0  0  0  0  0  0  0  0  0
  142.9880  155.9910  133.5570 C   0  0  0  0  0  0  0  0  0  0  0  0
  144.2460  155.4370  133.7760 C   0  0  0  0  0  0  0  0  0  0  0  0
  145.3660  156.2750  133.6460 C   0  0  0  0  0  0  0  0  0  0  0  0
  145.2040  157.6390  133.3130 C   0  0  0  0  0  0  0  0  0  0  0  0
  146.3590  158.4890  133.1970 C   0  0  0  0  0  0  0  0  0  0  0  0
  147.3280  159.2020  133.1030 C   0  0  0  0  0  0  0  0  0  0  0  0
  148.5060  160.0680  132.9860 C   0  0  0  0  0  0  0  0  0  0  0  0
  149.2660  159.7890  131.6880 C   0  0  0  0  0  0  0  0  0  0  0  0
  149.7510  160.9810  131.1300 O   0  0  0  0  0  0  0  0  0  0  0  0
  143.9170  158.1710  133.0980 C   0  0  0  0  0  0  0  0  0  0  0  0
  142.8190  157.3090  133.2130 C   0  0  0  0  0  0  0  0  0  0  0  0
  141.5060  157.5980  133.0790 N   0  0  0  0  0  0  0  0  0  0  0  0
  140.9340  158.8930  132.8310 C   0  0  0  0  0  0  0  0  0  0  0  0
  140.2110  159.0760  131.8130 O   0  0  0  0  0  0  0  0  0  0  0  0
  141.1810  159.9460  133.7190 O   0  0  0  0  0  0  0  0  0  0  0  0
  141.7160  159.7580  135.0260 C   0  0  0  0  0  0  0  0  0  0  0  0
  140.7540  158.9900  135.8750 C   0  0  0  0  0  0  0  0  0  0  0  0
  141.0670  158.6550  137.0480 O   0  0  0  0  0  0  0  0  0  0  0  0
  139.5190  158.6170  135.3590 O   0  0  0  0  0  0  0  0  0  0  0  0
  137.4470  157.1690  133.3270 H   0  0  0  0  0  0  0  0  0  0  0  0
  138.8230  158.3210  133.3430 H   0  0  0  0  0  0  0  0  0  0  0  0
  141.5021  154.3752  133.9078 H   0  0  0  0  0  0  0  0  0  0  0  0
  144.3597  154.3759  134.0426 H   0  0  0  0  0  0  0  0  0  0  0  0
  146.3752  155.8671  133.8043 H   0  0  0  0  0  0  0  0  0  0  0  0
  148.1817  161.1191  132.9939 H   0  0  0  0  0  0  0  0  0  0  0  0
  149.1758  159.8644  133.8345 H   0  0  0  0  0  0  0  0  0  0  0  0
  150.1126  159.1202  131.9022 H   0  0  0  0  0  0  0  0  0  0  0  0
  148.5783  159.3175  130.9706 H   0  0  0  0  0  0  0  0  0  0  0  0
  150.7430  160.9280  131.1570 H   0  0  0  0  0  0  0  0  0  0  0  0
  143.7786  159.2330  132.8470 H   0  0  0  0  0  0  0  0  0  0  0  0
  142.6617  159.2007  134.9543 H   0  0  0  0  0  0  0  0  0  0  0  0
  141.8923  160.7418  135.4854 H   0  0  0  0  0  0  0  0  0  0  0  0
  1  2  1  0
  2  3  2  0
  2  4  1  0
  4  5  2  0
  5  6  1  0
  6  7  2  0
  7  8  1  0
  8  9  2  0
  9 10  1  0
 10 11  3  0
 11 12  1  0
 12 13  1  0
 13 14  1  0
  9 15  1  0
 15 16  2  0
 16 17  1  0
 17 18  1  0
 18 19  2  0
 18 20  1  0
 20 21  1  0
 21 22  1  0
 22 23  2  0
 22 24  1  0
 17  4  1  0
 16  6  1  0
  1 25  1  0
  1 26  1  0
  5 27  1  0
  7 28  1  0
  8 29  1  0
 12 30  1  0
 12 31  1  0
 13 32  1  0
 13 33  1  0
 14 34  1  0
 15 35  1  0
 21 36  1  0
 21 37  1  0
M  CHG  1  24  -1
M  END
>  <UniqueID>  (41) 
41

>  <SMILES>  (41) 
NC(=O)c1cc2ccc(C#CCCO)cc2n1C(=O)OCC(=O)[O-]

>  <Energy>  (41) 
67.53504398723837

>  <Genealogy>  (41) 
NC(=O)c1cc2ccc(C#CCCO)cc2n1C(=O)OCC(=O)[O-] (protonated)
NC(=O)c1cc2ccc(C#CCCO)cc2n1C(=O)OCC(=O)[O-] (3D coordinates assigned)
NC(=O)c1cc2ccc(C#CCCO)cc2n1C(=O)OCC(=O)[O-] (optimized conformer: 67.53504398723837 kcal/mol)

>  <smiles>  (41) 
NC(=O)c1cc2ccc(C#CCCO)cc2n1C(=O)OCC(=O)O

>  <score_type>  (41) 
oracle

>  <origin>  (41) 
adg

>  <m_score__min__energy>  (41) 
-7.1100000000000003

>  <m_primary>  (41) 
energy

$$$$
41:0
     RDKit          3D

 42 44  0  0  0  0  0  0  0  0999 V2000
  144.2920  155.2030  135.4100 C   0  0  0  0  0  0  0  0  0  0  0  0
  142.9160  154.7000  135.4570 N   0  0  0  0  0  0  0  0  0  0  0  0
  142.6030  153.5050  136.2610 C   0  0  0  0  0  0  0  0  0  0  0  0
  141.6990  153.8470  137.4310 C   0  0  0  0  0  0  0  0  0  0  0  0
  141.6280  155.1900  137.8470 C   0  0  0  0  0  0  0  0  0  0  0  0
  140.8970  155.5510  138.9780 C   0  0  0  0  0  0  0  0  0  0  0  0
  140.2260  154.5770  139.7140 C   0  0  0  0  0  0  0  0  0  0  0  0
  140.2730  153.2420  139.3140 C   0  0  0  0  0  0  0  0  0  0  0  0
  140.9920  152.8560  138.1670 C   0  0  0  0  0  0  0  0  0  0  0  0
  140.9790  151.4250  137.7830 C   0  0  0  0  0  0  0  0  0  0  0  0
  140.6080  151.0840  136.6290 O   0  0  0  0  0  0  0  0  0  0  0  0
  141.4240  150.4450  138.6620 O   0  0  0  0  0  0  0  0  0  0  0  0
  141.9090  155.3230  134.6270 C   0  0  0  0  0  0  0  0  0  0  0  0
  141.0520  154.5260  133.8250 C   0  0  0  0  0  0  0  0  0  0  0  0
  140.0800  155.1180  133.0030 C   0  0  0  0  0  0  0  0  0  0  0  0
  139.9940  156.5070  132.9910 C   0  0  0  0  0  0  0  0  0  0  0  0
  139.1300  157.3310  132.3060 C   0  0  0  0  0  0  0  0  0  0  0  0
  139.4910  158.6240  132.6730 C   0  0  0  0  0  0  0  0  0  0  0  0
  138.8540  159.8340  132.1160 C   0  0  0  0  0  0  0  0  0  0  0  0
  139.4780  161.1140  132.2210 N   0  0  0  0  0  0  0  0  0  0  0  0
  137.7690  159.7260  131.4850 O   0  0  0  0  0  0  0  0  0  0  0  0
  140.5260  158.6030  133.5610 N   0  0  0  0  0  0  0  0  0  0  0  0
  141.1130  159.7220  134.2470 C   0  0  0  0  0  0  0  0  0  0  0  0
  141.7440  160.6020  133.6050 O   0  0  0  0  0  0  0  0  0  0  0  0
  140.9920  159.8450  135.6260 O   0  0  0  0  0  0  0  0  0  0  0  0
  140.8230  157.2970  133.7430 C   0  0  0  0  0  0  0  0  0  0  0  0
  141.7800  156.7320  134.5950 C   0  0  0  0  0  0  0  0  0  0  0  0
  144.6674  155.3402  136.4348 H   0  0  0  0  0  0  0  0  0  0  0  0
  144.9290  154.4796  134.8800 H   0  0  0  0  0  0  0  0  0  0  0  0
  144.3122  156.1667  134.8800 H   0  0  0  0  0  0  0  0  0  0  0  0
  142.0975  152.7659  135.6221 H   0  0  0  0  0  0  0  0  0  0  0  0
  143.5447  153.0981  136.6580 H   0  0  0  0  0  0  0  0  0  0  0  0
  142.1563  155.9649  137.2721 H   0  0  0  0  0  0  0  0  0  0  0  0
  140.8501  156.6050  139.2892 H   0  0  0  0  0  0  0  0  0  0  0  0
  139.6582  154.8615  140.6121 H   0  0  0  0  0  0  0  0  0  0  0  0
  139.7410  152.4802  139.9027 H   0  0  0  0  0  0  0  0  0  0  0  0
  141.1504  153.4306  133.8475 H   0  0  0  0  0  0  0  0  0  0  0  0
  139.4071  154.5030  132.3874 H   0  0  0  0  0  0  0  0  0  0  0  0
  138.3268  157.0318  131.6166 H   0  0  0  0  0  0  0  0  0  0  0  0
  140.4530  161.2110  132.5820 H   0  0  0  0  0  0  0  0  0  0  0  0
  138.9960  161.9640  131.8530 H   0  0  0  0  0  0  0  0  0  0  0  0
  142.4174  157.3693  135.2255 H   0  0  0  0  0  0  0  0  0  0  0  0
  1  2  1  0
  2  3  1  0
  3  4  1  0
  4  5  2  0
  5  6  1  0
  6  7  2  0
  7  8  1  0
  8  9  2  0
  9 10  1  0
 10 11  2  0
 10 12  1  0
  2 13  1  0
 13 14  2  0
 14 15  1  0
 15 16  2  0
 16 17  1  0
 17 18  2  0
 18 19  1  0
 19 20  1  0
 19 21  2  0
 18 22  1  0
 22 23  1  0
 23 24  2  0
 23 25  1  0
 22 26  1  0
 26 27  2  0
  9  4  1  0
 27 13  1  0
 26 16  1  0
  1 28  1  0
  1 29  1  0
  1 30  1  0
  3 31  1  0
  3 32  1  0
  5 33  1  0
  6 34  1  0
  7 35  1  0
  8 36  1  0
 14 37  1  0
 15 38  1  0
 17 39  1  0
 20 40  1  0
 20 41  1  0
 27 42  1  0
M  CHG  2  12  -1  25  -1
M  END
>  <UniqueID>  (42) 
42

>  <SMILES>  (42) 
CN(Cc1ccccc1C(=O)[O-])c1ccc2cc(C(N)=O)n(C(=O)[O-])c2c1

>  <Energy>  (42) 
91.4177955613196

>  <Genealogy>  (42) 
CN(Cc1ccccc1C(=O)[O-])c1ccc2cc(C(N)=O)n(C(=O)[O-])c2c1 (protonated)
CN(Cc1ccccc1C(=O)[O-])c1ccc2cc(C(N)=O)n(C(=O)[O-])c2c1 (3D coordinates assigned)
CN(Cc1ccccc1C(=O)[O-])c1ccc2cc(C(N)=O)n(C(=O)[O-])c2c1 (optimized conformer: 91.4177955613196 kcal/mol)

>  <smiles>  (42) 
CN(Cc1ccccc1C(=O)O)c1ccc2cc(C(N)=O)n(C(=O)O)c2c1

>  <score_type>  (42) 
oracle

>  <origin>  (42) 
adg

>  <m_score__min__energy>  (42) 
-8.2200000000000006

>  <m_primary>  (42) 
energy

$$$$
42:0
     RDKit          3D

 43 45  0  0  0  0  0  0  0  0999 V2000
  142.6590  158.6920  133.2360 N   0  0  0  0  0  0  0  0  0  0  0  0
  142.4740  157.7430  134.2820 C   0  0  0  0  0  0  0  0  0  0  0  0
  142.3730  158.1510  135.4710 O   0  0  0  0  0  0  0  0  0  0  0  0
  142.4400  156.2910  134.0020 C   0  0  0  0  0  0  0  0  0  0  0  0
  143.5210  155.4400  134.2240 C   0  0  0  0  0  0  0  0  0  0  0  0
  143.1080  154.2030  133.7830 C   0  0  0  0  0  0  0  0  0  0  0  0
  143.7790  152.9860  133.7770 C   0  0  0  0  0  0  0  0  0  0  0  0
  143.0930  151.8570  133.2980 C   0  0  0  0  0  0  0  0  0  0  0  0
  141.7440  151.9490  132.8590 C   0  0  0  0  0  0  0  0  0  0  0  0
  141.0290  150.7720  132.4110 N   0  0  0  0  0  0  0  0  0  0  0  0
  141.7500  149.4980  132.2460 C   0  0  0  0  0  0  0  0  0  0  0  0
  140.7920  148.3090  132.1390 C   0  0  0  0  0  0  0  0  0  0  0  0
  139.7590  148.5820  131.1330 N   0  0  0  0  0  0  0  0  0  0  0  0
  139.2870  147.5330  130.2660 C   0  0  0  0  0  0  0  0  0  0  0  0
  138.3940  147.7690  129.4090 O   0  0  0  0  0  0  0  0  0  0  0  0
  139.8090  146.2470  130.3600 O   0  0  0  0  0  0  0  0  0  0  0  0
  139.1370  149.9120  131.0620 C   0  0  0  0  0  0  0  0  0  0  0  0
  139.5700  150.8140  132.2240 C   0  0  0  0  0  0  0  0  0  0  0  0
  141.1040  153.2140  132.8760 C   0  0  0  0  0  0  0  0  0  0  0  0
  141.8240  154.3270  133.3250 C   0  0  0  0  0  0  0  0  0  0  0  0
  141.4000  155.6050  133.4470 N   0  0  0  0  0  0  0  0  0  0  0  0
  140.0930  156.0960  133.1150 C   0  0  0  0  0  0  0  0  0  0  0  0
  139.0890  155.3410  133.2310 O   0  0  0  0  0  0  0  0  0  0  0  0
  139.9230  157.4370  132.6410 N   0  0  0  0  0  0  0  0  0  0  0  0
  138.7030  157.8840  132.2530 O   0  0  0  0  0  0  0  0  0  0  0  0
  138.9700  159.4010  131.5610 S   0  0  0  0  0  0  0  0  0  0  0  0
  140.0080  160.1280  132.3680 O   0  0  0  0  0  0  0  0  0  0  0  0
  137.6990  160.2040  131.5590 O   0  0  0  0  0  0  0  0  0  0  0  0
  139.5280  159.2180  129.9860 O   0  0  0  0  0  0  0  0  0  0  0  0
  141.8580  159.0020  132.6400 H   0  0  0  0  0  0  0  0  0  0  0  0
  144.4969  155.7012  134.6591 H   0  0  0  0  0  0  0  0  0  0  0  0
  144.8158  152.9088  134.1363 H   0  0  0  0  0  0  0  0  0  0  0  0
  143.6084  150.8859  133.2622 H   0  0  0  0  0  0  0  0  0  0  0  0
  142.3570  149.5490  131.3300 H   0  0  0  0  0  0  0  0  0  0  0  0
  142.3824  149.3471  133.1333 H   0  0  0  0  0  0  0  0  0  0  0  0
  141.3570  147.4119  131.8460 H   0  0  0  0  0  0  0  0  0  0  0  0
  140.3102  148.1462  133.1144 H   0  0  0  0  0  0  0  0  0  0  0  0
  139.4280  150.3896  130.1148 H   0  0  0  0  0  0  0  0  0  0  0  0
  138.0467  149.7798  131.1238 H   0  0  0  0  0  0  0  0  0  0  0  0
  139.2649  151.8487  132.0088 H   0  0  0  0  0  0  0  0  0  0  0  0
  139.0889  150.4530  133.1450 H   0  0  0  0  0  0  0  0  0  0  0  0
  140.0610  153.3187  132.5425 H   0  0  0  0  0  0  0  0  0  0  0  0
  140.7240  158.1070  132.6880 H   0  0  0  0  0  0  0  0  0  0  0  0
  1  2  1  0
  2  3  2  0
  2  4  1  0
  4  5  2  0
  5  6  1  0
  6  7  2  0
  7  8  1  0
  8  9  2  0
  9 10  1  0
 10 11  1  0
 11 12  1  0
 12 13  1  0
 13 14  1  0
 14 15  2  0
 14 16  1  0
 13 17  1  0
 17 18  1  0
  9 19  1  0
 19 20  2  0
 20 21  1  0
 21 22  1  0
 22 23  2  0
 22 24  1  0
 24 25  1  0
 25 26  1  0
 26 27  2  0
 26 28  2  0
 26 29  1  0
 21  4  1  0
 20  6  1  0
 18 10  1  0
  1 30  1  0
  5 31  1  0
  7 32  1  0
  8 33  1  0
 11 34  1  0
 11 35  1  0
 12 36  1  0
 12 37  1  0
 17 38  1  0
 17 39  1  0
 18 40  1  0
 18 41  1  0
 19 42  1  0
 24 43  1  0
M  CHG  3   1  -1  16  -1  29  -1
M  END
>  <UniqueID>  (43) 
43

>  <SMILES>  (43) 
[NH-]C(=O)c1cc2ccc(N3CCN(C(=O)[O-])CC3)cc2n1C(=O)NOS(=O)(=O)[O-]

>  <Energy>  (43) 
83.31384781169616

>  <Genealogy>  (43) 
[NH-]C(=O)c1cc2ccc(N3CCN(C(=O)[O-])CC3)cc2n1C(=O)NOS(=O)(=O)[O-] (protonated)
[NH-]C(=O)c1cc2ccc(N3CCN(C(=O)[O-])CC3)cc2n1C(=O)NOS(=O)(=O)[O-] (3D coordinates assigned)
[NH-]C(=O)c1cc2ccc(N3CCN(C(=O)[O-])CC3)cc2n1C(=O)NOS(=O)(=O)[O-] (nonaromatic ring conformer: 83.31384781169616 kcal/mol)

>  <smiles>  (43) 
NC(=O)c1cc2ccc(N3CCN(C(=O)O)CC3)cc2n1C(=O)NOS(=O)(=O)O

>  <score_type>  (43) 
oracle

>  <origin>  (43) 
adg

>  <m_score__min__energy>  (43) 
-8.7100000000000009

>  <m_primary>  (43) 
energy

$$$$
43:0
     RDKit          3D

 38 39  0  0  0  0  0  0  0  0999 V2000
  149.3000  150.6080  133.3660 C   0  0  0  0  0  0  0  0  0  0  0  0
  149.5370  151.9750  133.6710 O   0  0  0  0  0  0  0  0  0  0  0  0
  149.1090  153.0210  132.8430 C   0  0  0  0  0  0  0  0  0  0  0  0
  149.3010  152.9700  131.5980 O   0  0  0  0  0  0  0  0  0  0  0  0
  148.3960  154.2050  133.4240 C   0  0  0  0  0  0  0  0  0  0  0  0
  148.0370  155.1750  132.3900 N   0  0  0  0  0  0  0  0  0  0  0  0
  147.8070  156.5770  132.6320 C   0  0  0  0  0  0  0  0  0  0  0  0
  148.8660  157.5260  132.5950 C   0  0  0  0  0  0  0  0  0  0  0  0
  148.6170  158.8880  132.8360 C   0  0  0  0  0  0  0  0  0  0  0  0
  147.3090  159.2750  133.1070 C   0  0  0  0  0  0  0  0  0  0  0  0
  146.7990  160.5190  133.3980 C   0  0  0  0  0  0  0  0  0  0  0  0
  145.4330  160.3210  133.5890 C   0  0  0  0  0  0  0  0  0  0  0  0
  144.4810  161.4230  133.8440 C   0  0  0  0  0  0  0  0  0  0  0  0
  143.0780  161.1920  133.7190 N   0  0  0  0  0  0  0  0  0  0  0  0
  144.8880  162.5570  134.2040 O   0  0  0  0  0  0  0  0  0  0  0  0
  145.1130  159.0050  133.4310 N   0  0  0  0  0  0  0  0  0  0  0  0
  143.8300  158.3820  133.5990 C   0  0  0  0  0  0  0  0  0  0  0  0
  143.2460  157.8650  132.6070 O   0  0  0  0  0  0  0  0  0  0  0  0
  143.2230  158.3720  134.8590 O   0  0  0  0  0  0  0  0  0  0  0  0
  142.0000  157.6930  135.1340 C   0  0  0  0  0  0  0  0  0  0  0  0
  140.9660  158.6590  135.6140 C   0  0  0  0  0  0  0  0  0  0  0  0
  141.2530  159.8770  135.7460 O   0  0  0  0  0  0  0  0  0  0  0  0
  139.6940  158.2120  135.9450 O   0  0  0  0  0  0  0  0  0  0  0  0
  146.2730  158.3790  133.1320 C   0  0  0  0  0  0  0  0  0  0  0  0
  146.4930  157.0160  132.9090 C   0  0  0  0  0  0  0  0  0  0  0  0
  149.2008  150.0357  134.3002 H   0  0  0  0  0  0  0  0  0  0  0  0
  148.3729  150.5183  132.7808 H   0  0  0  0  0  0  0  0  0  0  0  0
  150.1428  150.2114  132.7808 H   0  0  0  0  0  0  0  0  0  0  0  0
  147.4791  153.8600  133.9242 H   0  0  0  0  0  0  0  0  0  0  0  0
  149.0710  154.6973  134.1396 H   0  0  0  0  0  0  0  0  0  0  0  0
  147.8930  154.8070  131.4210 H   0  0  0  0  0  0  0  0  0  0  0  0
  149.8903  157.1904  132.3755 H   0  0  0  0  0  0  0  0  0  0  0  0
  149.4324  159.6259  132.8110 H   0  0  0  0  0  0  0  0  0  0  0  0
  147.3516  161.4677  133.4655 H   0  0  0  0  0  0  0  0  0  0  0  0
  142.6390  160.3310  134.1150 H   0  0  0  0  0  0  0  0  0  0  0  0
  141.6417  157.2048  134.2157 H   0  0  0  0  0  0  0  0  0  0  0  0
  142.1771  156.9407  135.9168 H   0  0  0  0  0  0  0  0  0  0  0  0
  145.6592  156.2997  132.9485 H   0  0  0  0  0  0  0  0  0  0  0  0
  1  2  1  0
  2  3  1  0
  3  4  2  0
  3  5  1  0
  5  6  1  0
  6  7  1  0
  7  8  2  0
  8  9  1  0
  9 10  2  0
 10 11  1  0
 11 12  2  0
 12 13  1  0
 13 14  1  0
 13 15  2  0
 12 16  1  0
 16 17  1  0
 17 18  2  0
 17 19  1  0
 19 20  1  0
 20 21  1  0
 21 22  2  0
 21 23  1  0
 16 24  1  0
 24 25  2  0
 25  7  1  0
 24 10  1  0
  1 26  1  0
  1 27  1  0
  1 28  1  0
  5 29  1  0
  5 30  1  0
  6 31  1  0
  8 32  1  0
  9 33  1  0
 11 34  1  0
 14 35  1  0
 20 36  1  0
 20 37  1  0
 25 38  1  0
M  CHG  2  14  -1  23  -1
M  END
>  <UniqueID>  (44) 
44

>  <SMILES>  (44) 
COC(=O)CNc1ccc2cc(C([NH-])=O)n(C(=O)OCC(=O)[O-])c2c1

>  <Energy>  (44) 
71.73404943350518

>  <Genealogy>  (44) 
COC(=O)CNc1ccc2cc(C([NH-])=O)n(C(=O)OCC(=O)[O-])c2c1 (protonated)
COC(=O)CNc1ccc2cc(C([NH-])=O)n(C(=O)OCC(=O)[O-])c2c1 (3D coordinates assigned)
COC(=O)CNc1ccc2cc(C([NH-])=O)n(C(=O)OCC(=O)[O-])c2c1 (optimized conformer: 71.73404943350518 kcal/mol)

>  <smiles>  (44) 
COC(=O)CNc1ccc2cc(C(N)=O)n(C(=O)OCC(=O)O)c2c1

>  <score_type>  (44) 
oracle

>  <origin>  (44) 
adg

>  <m_score__min__energy>  (44) 
-6.25

>  <m_primary>  (44) 
energy

$$$$
44:0
     RDKit          3D

 33 35  0  0  0  0  0  0  0  0999 V2000
  140.1570  159.7440  132.3850 N   0  0  0  0  0  0  0  0  0  0  0  0
  140.7170  158.9680  133.4410 C   0  0  0  0  0  0  0  0  0  0  0  0
  139.9490  158.4210  134.2770 O   0  0  0  0  0  0  0  0  0  0  0  0
  142.1740  158.7470  133.5320 C   0  0  0  0  0  0  0  0  0  0  0  0
  142.7610  157.4830  133.4970 C   0  0  0  0  0  0  0  0  0  0  0  0
  144.1170  157.7090  133.5140 C   0  0  0  0  0  0  0  0  0  0  0  0
  145.1750  156.8050  133.5100 C   0  0  0  0  0  0  0  0  0  0  0  0
  146.4810  157.3190  133.5670 C   0  0  0  0  0  0  0  0  0  0  0  0
  146.7050  158.7170  133.6300 C   0  0  0  0  0  0  0  0  0  0  0  0
  148.1050  159.2570  133.7420 C   0  0  0  0  0  0  0  0  0  0  0  0
  148.5800  159.7060  132.4250 N   0  0  0  0  0  0  0  0  0  0  0  0
  148.1200  160.8600  131.9220 N   0  0  0  0  0  0  0  0  0  0  0  0
  148.5500  161.3330  130.7240 C   0  0  0  0  0  0  0  0  0  0  0  0
  149.4940  160.6010  130.0120 C   0  0  0  0  0  0  0  0  0  0  0  0
  149.9140  161.0110  128.8990 O   0  0  0  0  0  0  0  0  0  0  0  0
  149.9630  159.4410  130.5300 N   0  0  0  0  0  0  0  0  0  0  0  0
  149.5180  158.9870  131.7290 C   0  0  0  0  0  0  0  0  0  0  0  0
  149.9780  157.9070  132.1870 O   0  0  0  0  0  0  0  0  0  0  0  0
  145.6050  159.6040  133.6400 C   0  0  0  0  0  0  0  0  0  0  0  0
  144.3150  159.0650  133.5640 C   0  0  0  0  0  0  0  0  0  0  0  0
  143.1310  159.7170  133.5790 N   0  0  0  0  0  0  0  0  0  0  0  0
  142.9380  161.1340  133.7240 C   0  0  0  0  0  0  0  0  0  0  0  0
  141.7760  161.6190  133.7330 O   0  0  0  0  0  0  0  0  0  0  0  0
  144.0320  161.9840  133.8260 O   0  0  0  0  0  0  0  0  0  0  0  0
  140.3900  160.7570  132.2820 H   0  0  0  0  0  0  0  0  0  0  0  0
  142.2478  156.5106  133.4630 H   0  0  0  0  0  0  0  0  0  0  0  0
  144.9941  155.7210  133.4636 H   0  0  0  0  0  0  0  0  0  0  0  0
  147.3382  156.6297  133.5627 H   0  0  0  0  0  0  0  0  0  0  0  0
  148.1124  160.1067  134.4406 H   0  0  0  0  0  0  0  0  0  0  0  0
  148.7690  158.4621  134.1125 H   0  0  0  0  0  0  0  0  0  0  0  0
  147.4140  161.4240  132.4490 H   0  0  0  0  0  0  0  0  0  0  0  0
  148.1581  162.2795  130.3233 H   0  0  0  0  0  0  0  0  0  0  0  0
  145.7584  160.6913  133.7059 H   0  0  0  0  0  0  0  0  0  0  0  0
  1  2  1  0
  2  3  2  0
  2  4  1  0
  4  5  2  0
  5  6  1  0
  6  7  2  0
  7  8  1  0
  8  9  2  0
  9 10  1  0
 10 11  1  0
 11 12  1  0
 12 13  2  0
 13 14  1  0
 14 15  2  0
 14 16  1  0
 16 17  1  0
 17 18  2  0
  9 19  1  0
 19 20  2  0
 20 21  1  0
 21 22  1  0
 22 23  2  0
 22 24  1  0
 21  4  1  0
 20  6  1  0
 17 11  1  0
  1 25  1  0
  5 26  1  0
  7 27  1  0
  8 28  1  0
 10 29  1  0
 10 30  1  0
 12 31  1  0
 13 32  1  0
 19 33  1  0
M  CHG  4   1  -1  12   1  16  -1  24  -1
M  END
>  <UniqueID>  (45) 
45

>  <SMILES>  (45) 
[NH-]C(=O)c1cc2ccc(Cn3[nH+]cc(=O)[n-]c3=O)cc2n1C(=O)[O-]

>  <Energy>  (45) 
77.28286160070616

>  <Genealogy>  (45) 
[NH-]C(=O)c1cc2ccc(Cn3[nH+]cc(=O)[n-]c3=O)cc2n1C(=O)[O-] (protonated)
[NH-]C(=O)c1cc2ccc(Cn3[nH+]cc(=O)[n-]c3=O)cc2n1C(=O)[O-] (3D coordinates assigned)
[NH-]C(=O)c1cc2ccc(Cn3[nH+]cc(=O)[n-]c3=O)cc2n1C(=O)[O-] (optimized conformer: 77.28286160070616 kcal/mol)

>  <smiles>  (45) 
NC(=O)c1cc2ccc(Cn3ncc(=O)[nH]c3=O)cc2n1C(=O)O

>  <score_type>  (45) 
oracle

>  <origin>  (45) 
adg

>  <m_score__min__energy>  (45) 
-7.3700000000000001

>  <m_primary>  (45) 
energy

$$$$
45:0
     RDKit          3D

 45 47  0  0  0  0  0  0  0  0999 V2000
  138.7470  146.9030  130.3540 N   0  0  0  0  0  0  0  0  0  0  0  0
  138.5560  148.3100  130.2340 C   0  0  0  0  0  0  0  0  0  0  0  0
  138.4080  148.8300  129.0950 O   0  0  0  0  0  0  0  0  0  0  0  0
  138.4790  149.1620  131.4620 C   0  0  0  0  0  0  0  0  0  0  0  0
  139.8500  149.6480  131.8390 C   0  0  0  0  0  0  0  0  0  0  0  0
  140.9590  148.7660  131.7790 C   0  0  0  0  0  0  0  0  0  0  0  0
  142.2470  149.2150  132.1110 C   0  0  0  0  0  0  0  0  0  0  0  0
  142.4000  150.5480  132.4800 C   0  0  0  0  0  0  0  0  0  0  0  0
  143.5280  151.2360  132.8620 C   0  0  0  0  0  0  0  0  0  0  0  0
  143.1010  152.5370  133.1160 C   0  0  0  0  0  0  0  0  0  0  0  0
  144.0100  153.6500  133.4670 C   0  0  0  0  0  0  0  0  0  0  0  0
  143.7970  154.9600  132.9370 N   0  0  0  0  0  0  0  0  0  0  0  0
  144.9650  153.4600  134.2670 O   0  0  0  0  0  0  0  0  0  0  0  0
  141.7580  152.6500  132.9010 N   0  0  0  0  0  0  0  0  0  0  0  0
  140.9370  153.8090  133.1150 C   0  0  0  0  0  0  0  0  0  0  0  0
  139.7800  153.8590  132.6150 O   0  0  0  0  0  0  0  0  0  0  0  0
  141.4290  154.8720  133.8860 O   0  0  0  0  0  0  0  0  0  0  0  0
  141.3320  156.2280  133.5460 C   0  0  0  0  0  0  0  0  0  0  0  0
  142.3400  156.8740  133.1490 O   0  0  0  0  0  0  0  0  0  0  0  0
  139.9960  156.9120  133.6550 C   0  0  0  0  0  0  0  0  0  0  0  0
  140.1070  158.2620  134.3980 C   0  0  0  0  0  0  0  0  0  0  0  0
  140.1090  159.4360  133.4060 C   0  0  0  0  0  0  0  0  0  0  0  0
  138.9330  159.5150  132.6090 O   0  0  0  0  0  0  0  0  0  0  0  0
  138.3610  158.2520  132.2780 C   0  0  0  0  0  0  0  0  0  0  0  0
  139.3630  157.0860  132.2600 C   0  0  0  0  0  0  0  0  0  0  0  0
  141.3450  151.4230  132.5130 C   0  0  0  0  0  0  0  0  0  0  0  0
  140.0460  150.9980  132.2070 C   0  0  0  0  0  0  0  0  0  0  0  0
  137.9730  146.2370  130.1360 H   0  0  0  0  0  0  0  0  0  0  0  0
  137.8278  150.0264  131.2651 H   0  0  0  0  0  0  0  0  0  0  0  0
  138.0680  148.5652  132.2896 H   0  0  0  0  0  0  0  0  0  0  0  0
  140.8086  147.7212  131.4697 H   0  0  0  0  0  0  0  0  0  0  0  0
  143.1097  148.5333  132.0803 H   0  0  0  0  0  0  0  0  0  0  0  0
  144.5513  150.8419  132.9486 H   0  0  0  0  0  0  0  0  0  0  0  0
  143.0460  155.1460  132.2370 H   0  0  0  0  0  0  0  0  0  0  0  0
  144.4220  155.7470  133.2200 H   0  0  0  0  0  0  0  0  0  0  0  0
  139.3335  156.2699  134.2539 H   0  0  0  0  0  0  0  0  0  0  0  0
  139.2510  158.3688  135.0805 H   0  0  0  0  0  0  0  0  0  0  0  0
  141.0518  158.2764  134.9611 H   0  0  0  0  0  0  0  0  0  0  0  0
  140.2054  160.3718  133.9761 H   0  0  0  0  0  0  0  0  0  0  0  0
  140.9522  159.2738  132.7185 H   0  0  0  0  0  0  0  0  0  0  0  0
  137.5803  158.0233  133.0184 H   0  0  0  0  0  0  0  0  0  0  0  0
  137.9679  158.3439  131.2547 H   0  0  0  0  0  0  0  0  0  0  0  0
  138.8393  156.1602  131.9797 H   0  0  0  0  0  0  0  0  0  0  0  0
  140.1556  157.3028  131.5287 H   0  0  0  0  0  0  0  0  0  0  0  0
  139.1989  151.6983  132.2521 H   0  0  0  0  0  0  0  0  0  0  0  0
  1  2  1  0
  2  3  2  0
  2  4  1  0
  4  5  1  0
  5  6  2  0
  6  7  1  0
  7  8  2  0
  8  9  1  0
  9 10  2  0
 10 11  1  0
 11 12  1  0
 11 13  2  0
 10 14  1  0
 14 15  1  0
 15 16  2  0
 15 17  1  0
 17 18  1  0
 18 19  2  0
 18 20  1  0
 20 21  1  0
 21 22  1  0
 22 23  1  0
 23 24  1  0
 24 25  1  0
 14 26  1  0
 26 27  2  0
 27  5  1  0
 26  8  1  0
 25 20  1  0
  1 28  1  0
  4 29  1  0
  4 30  1  0
  6 31  1  0
  7 32  1  0
  9 33  1  0
 12 34  1  0
 12 35  1  0
 20 36  1  0
 21 37  1  0
 21 38  1  0
 22 39  1  0
 22 40  1  0
 24 41  1  0
 24 42  1  0
 25 43  1  0
 25 44  1  0
 27 45  1  0
M  CHG  1   1  -1
M  END
>  <UniqueID>  (46) 
46

>  <SMILES>  (46) 
[NH-]C(=O)Cc1ccc2cc(C(N)=O)n(C(=O)OC(=O)C3CCOCC3)c2c1

>  <Energy>  (46) 
92.85670649304812

>  <Genealogy>  (46) 
[NH-]C(=O)Cc1ccc2cc(C(N)=O)n(C(=O)OC(=O)C3CCOCC3)c2c1 (protonated)
[NH-]C(=O)Cc1ccc2cc(C(N)=O)n(C(=O)OC(=O)C3CCOCC3)c2c1 (3D coordinates assigned)
[NH-]C(=O)Cc1ccc2cc(C(N)=O)n(C(=O)OC(=O)C3CCOCC3)c2c1 (nonaromatic ring conformer: 92.85670649304812 kcal/mol)

>  <smiles>  (46) 
NC(=O)Cc1ccc2cc(C(N)=O)n(C(=O)OC(=O)C3CCOCC3)c2c1

>  <score_type>  (46) 
oracle

>  <origin>  (46) 
adg

>  <m_score__min__energy>  (46) 
-8.4199999999999999

>  <m_primary>  (46) 
energy

$$$$
46:0
     RDKit          3D

 37 38  0  0  0  0  0  0  0  0999 V2000
  149.0280  153.9520  132.6490 C   0  0  0  0  0  0  0  0  0  0  0  0
  148.5760  155.0670  132.7410 C   0  0  0  0  0  0  0  0  0  0  0  0
  148.0360  156.3970  132.8470 C   0  0  0  0  0  0  0  0  0  0  0  0
  148.8380  157.5120  132.5120 C   0  0  0  0  0  0  0  0  0  0  0  0
  148.3150  158.8130  132.5850 C   0  0  0  0  0  0  0  0  0  0  0  0
  146.9960  158.9630  133.0040 C   0  0  0  0  0  0  0  0  0  0  0  0
  146.2340  160.1000  133.1310 C   0  0  0  0  0  0  0  0  0  0  0  0
  144.9860  159.6620  133.5700 C   0  0  0  0  0  0  0  0  0  0  0  0
  143.8800  160.5780  133.9180 C   0  0  0  0  0  0  0  0  0  0  0  0
  142.6690  160.0810  134.4810 N   0  0  0  0  0  0  0  0  0  0  0  0
  144.0270  161.8190  133.7650 O   0  0  0  0  0  0  0  0  0  0  0  0
  144.9720  158.3040  133.6990 N   0  0  0  0  0  0  0  0  0  0  0  0
  143.8500  157.4660  134.0210 C   0  0  0  0  0  0  0  0  0  0  0  0
  143.5980  157.1830  135.2240 O   0  0  0  0  0  0  0  0  0  0  0  0
  143.0520  156.9500  132.9950 O   0  0  0  0  0  0  0  0  0  0  0  0
  142.0800  155.9340  133.2130 C   0  0  0  0  0  0  0  0  0  0  0  0
  140.7770  156.4580  132.9790 O   0  0  0  0  0  0  0  0  0  0  0  0
  140.0630  157.1760  133.9420 C   0  0  0  0  0  0  0  0  0  0  0  0
  138.8070  157.0790  134.0150 O   0  0  0  0  0  0  0  0  0  0  0  0
  140.7720  158.0240  134.8510 N   0  0  0  0  0  0  0  0  0  0  0  0
  140.0790  158.8060  135.8720 C   0  0  0  0  0  0  0  0  0  0  0  0
  141.0190  159.1940  136.9700 C   0  0  0  0  0  0  0  0  0  0  0  0
  142.1620  158.6710  137.0430 O   0  0  0  0  0  0  0  0  0  0  0  0
  140.6130  160.1010  137.9410 O   0  0  0  0  0  0  0  0  0  0  0  0
  146.2120  157.8910  133.3520 C   0  0  0  0  0  0  0  0  0  0  0  0
  146.7040  156.5820  133.2700 C   0  0  0  0  0  0  0  0  0  0  0  0
  149.4400  152.9355  132.5651 H   0  0  0  0  0  0  0  0  0  0  0  0
  149.8792  157.3592  132.1918 H   0  0  0  0  0  0  0  0  0  0  0  0
  148.9285  159.6866  132.3194 H   0  0  0  0  0  0  0  0  0  0  0  0
  146.5437  161.1360  132.9289 H   0  0  0  0  0  0  0  0  0  0  0  0
  142.6440  159.1680  134.9850 H   0  0  0  0  0  0  0  0  0  0  0  0
  142.2662  155.0962  132.5249 H   0  0  0  0  0  0  0  0  0  0  0  0
  142.1492  155.5808  134.2524 H   0  0  0  0  0  0  0  0  0  0  0  0
  141.8130  158.0740  134.7650 H   0  0  0  0  0  0  0  0  0  0  0  0
  139.6663  159.7158  135.4117 H   0  0  0  0  0  0  0  0  0  0  0  0
  139.2708  158.1936  136.2984 H   0  0  0  0  0  0  0  0  0  0  0  0
  146.0685  155.7222  133.5285 H   0  0  0  0  0  0  0  0  0  0  0  0
  1  2  3  0
  2  3  1  0
  3  4  2  0
  4  5  1  0
  5  6  2  0
  6  7  1  0
  7  8  2  0
  8  9  1  0
  9 10  1  0
  9 11  2  0
  8 12  1  0
 12 13  1  0
 13 14  2  0
 13 15  1  0
 15 16  1  0
 16 17  1  0
 17 18  1  0
 18 19  2  0
 18 20  1  0
 20 21  1  0
 21 22  1  0
 22 23  2  0
 22 24  1  0
 12 25  1  0
 25 26  2  0
 26  3  1  0
 25  6  1  0
  1 27  1  0
  4 28  1  0
  5 29  1  0
  7 30  1  0
 10 31  1  0
 16 32  1  0
 16 33  1  0
 20 34  1  0
 21 35  1  0
 21 36  1  0
 26 37  1  0
M  CHG  2  10  -1  24  -1
M  END
>  <UniqueID>  (47) 
47

>  <SMILES>  (47) 
C#Cc1ccc2cc(C([NH-])=O)n(C(=O)OCOC(=O)NCC(=O)[O-])c2c1

>  <Energy>  (47) 
68.10429077902648

>  <Genealogy>  (47) 
C#Cc1ccc2cc(C([NH-])=O)n(C(=O)OCOC(=O)NCC(=O)[O-])c2c1 (protonated)
C#Cc1ccc2cc(C([NH-])=O)n(C(=O)OCOC(=O)NCC(=O)[O-])c2c1 (3D coordinates assigned)
C#Cc1ccc2cc(C([NH-])=O)n(C(=O)OCOC(=O)NCC(=O)[O-])c2c1 (optimized conformer: 68.10429077902648 kcal/mol)

>  <smiles>  (47) 
C#Cc1ccc2cc(C(N)=O)n(C(=O)OCOC(=O)NCC(=O)O)c2c1

>  <score_type>  (47) 
oracle

>  <origin>  (47) 
adg

>  <m_score__min__energy>  (47) 
-6.9100000000000001

>  <m_primary>  (47) 
energy

$$$$
47:0
     RDKit          3D

 57 60  0  0  0  0  0  0  0  0999 V2000
  147.7320  153.9960  135.2040 C   0  0  0  0  0  0  0  0  0  0  0  0
  147.5620  154.5350  133.7710 C   0  0  0  0  0  0  0  0  0  0  0  0
  148.7120  154.0050  132.9000 C   0  0  0  0  0  0  0  0  0  0  0  0
  146.2230  154.0660  133.1680 C   0  0  0  0  0  0  0  0  0  0  0  0
  147.6490  155.9670  133.7530 O   0  0  0  0  0  0  0  0  0  0  0  0
  147.3850  156.8000  132.6560 C   0  0  0  0  0  0  0  0  0  0  0  0
  147.3400  156.3360  131.4840 O   0  0  0  0  0  0  0  0  0  0  0  0
  147.1830  158.2050  132.8710 N   0  0  0  0  0  0  0  0  0  0  0  0
  148.0430  159.2270  132.5950 C   0  0  0  0  0  0  0  0  0  0  0  0
  149.4480  159.0870  132.1570 C   0  0  0  0  0  0  0  0  0  0  0  0
  150.0090  157.8040  131.8940 N   0  0  0  0  0  0  0  0  0  0  0  0
  150.1770  160.1120  132.0590 O   0  0  0  0  0  0  0  0  0  0  0  0
  147.4420  160.4570  132.8610 C   0  0  0  0  0  0  0  0  0  0  0  0
  146.1810  160.1550  133.3170 C   0  0  0  0  0  0  0  0  0  0  0  0
  145.1470  160.9980  133.7110 C   0  0  0  0  0  0  0  0  0  0  0  0
  143.9340  160.4100  134.1090 C   0  0  0  0  0  0  0  0  0  0  0  0
  143.7740  159.0010  134.1070 C   0  0  0  0  0  0  0  0  0  0  0  0
  142.5170  158.4110  134.4980 N   0  0  0  0  0  0  0  0  0  0  0  0
  142.0790  157.1240  133.9490 C   0  0  0  0  0  0  0  0  0  0  0  0
  140.7620  157.2870  133.1730 C   0  0  0  0  0  0  0  0  0  0  0  0
  139.8260  158.3970  133.7640 C   0  0  0  0  0  0  0  0  0  0  0  0
  138.3630  158.0380  133.5780 C   0  0  0  0  0  0  0  0  0  0  0  0
  138.0300  158.6140  132.2100 C   0  0  0  0  0  0  0  0  0  0  0  0
  139.0100  159.5600  131.8420 O   0  0  0  0  0  0  0  0  0  0  0  0
  139.9020  159.6790  132.9250 C   0  0  0  0  0  0  0  0  0  0  0  0
  140.1620  158.6710  135.2530 C   0  0  0  0  0  0  0  0  0  0  0  0
  141.6210  159.1330  135.4140 C   0  0  0  0  0  0  0  0  0  0  0  0
  144.8460  158.1810  133.6860 C   0  0  0  0  0  0  0  0  0  0  0  0
  146.0480  158.7910  133.3140 C   0  0  0  0  0  0  0  0  0  0  0  0
  147.4823  154.7878  135.9256 H   0  0  0  0  0  0  0  0  0  0  0  0
  147.0610  153.1375  135.3548 H   0  0  0  0  0  0  0  0  0  0  0  0
  148.7741  153.6778  135.3548 H   0  0  0  0  0  0  0  0  0  0  0  0
  149.5202  153.6326  133.5467 H   0  0  0  0  0  0  0  0  0  0  0  0
  148.3436  153.1859  132.2650 H   0  0  0  0  0  0  0  0  0  0  0  0
  149.0954  154.8172  132.2650 H   0  0  0  0  0  0  0  0  0  0  0  0
  145.5217  153.8203  133.9790 H   0  0  0  0  0  0  0  0  0  0  0  0
  145.7990  154.8691  132.5473 H   0  0  0  0  0  0  0  0  0  0  0  0
  146.3929  153.1738  132.5473 H   0  0  0  0  0  0  0  0  0  0  0  0
  149.4280  157.0400  131.4850 H   0  0  0  0  0  0  0  0  0  0  0  0
  147.8833  161.4564  132.7331 H   0  0  0  0  0  0  0  0  0  0  0  0
  145.2747  162.0906  133.7111 H   0  0  0  0  0  0  0  0  0  0  0  0
  143.0982  161.0510  134.4261 H   0  0  0  0  0  0  0  0  0  0  0  0
  142.8535  156.7383  133.2697 H   0  0  0  0  0  0  0  0  0  0  0  0
  141.9168  156.4210  134.7793 H   0  0  0  0  0  0  0  0  0  0  0  0
  141.0007  157.5498  132.1319 H   0  0  0  0  0  0  0  0  0  0  0  0
  140.2208  156.3322  133.2465 H   0  0  0  0  0  0  0  0  0  0  0  0
  138.2206  156.9473  133.5912 H   0  0  0  0  0  0  0  0  0  0  0  0
  137.7190  158.4318  134.3782 H   0  0  0  0  0  0  0  0  0  0  0  0
  138.0073  157.8030  131.4672 H   0  0  0  0  0  0  0  0  0  0  0  0
  137.0464  159.1048  132.2505 H   0  0  0  0  0  0  0  0  0  0  0  0
  140.9264  159.8152  132.5482 H   0  0  0  0  0  0  0  0  0  0  0  0
  139.6309  160.5486  133.5417 H   0  0  0  0  0  0  0  0  0  0  0  0
  139.4922  159.4559  135.6342 H   0  0  0  0  0  0  0  0  0  0  0  0
  140.0255  157.7384  135.8201 H   0  0  0  0  0  0  0  0  0  0  0  0
  141.6812  160.2100  135.1985 H   0  0  0  0  0  0  0  0  0  0  0  0
  141.9387  158.9229  136.4460 H   0  0  0  0  0  0  0  0  0  0  0  0
  144.7369  157.0870  133.6518 H   0  0  0  0  0  0  0  0  0  0  0  0
  1  2  1  0
  2  3  1  0
  2  4  1  0
  2  5  1  0
  5  6  1  0
  6  7  2  0
  6  8  1  0
  8  9  1  0
  9 10  1  0
 10 11  1  0
 10 12  2  0
  9 13  2  0
 13 14  1  0
 14 15  2  0
 15 16  1  0
 16 17  2  0
 17 18  1  0
 18 19  1  0
 19 20  1  0
 20 21  1  0
 21 22  1  0
 22 23  1  0
 23 24  1  0
 24 25  1  0
 21 26  1  0
 26 27  1  0
 17 28  1  0
 28 29  2  0
 29  8  1  0
 29 14  1  0
 27 18  1  0
 25 21  1  0
  1 30  1  0
  1 31  1  0
  1 32  1  0
  3 33  1  0
  3 34  1  0
  3 35  1  0
  4 36  1  0
  4 37  1  0
  4 38  1  0
 11 39  1  0
 13 40  1  0
 15 41  1  0
 16 42  1  0
 19 43  1  0
 19 44  1  0
 20 45  1  0
 20 46  1  0
 22 47  1  0
 22 48  1  0
 23 49  1  0
 23 50  1  0
 25 51  1  0
 25 52  1  0
 26 53  1  0
 26 54  1  0
 27 55  1  0
 27 56  1  0
 28 57  1  0
M  CHG  1  11  -1
M  END
>  <UniqueID>  (48) 
48

>  <SMILES>  (48) 
CC(C)(C)OC(=O)n1c(C([NH-])=O)cc2ccc(N3CCC4(CCOC4)CC3)cc21

>  <Energy>  (48) 
102.82182970486215

>  <Genealogy>  (48) 
CC(C)(C)OC(=O)n1c(C([NH-])=O)cc2ccc(N3CCC4(CCOC4)CC3)cc21 (protonated)
CC(C)(C)OC(=O)n1c(C([NH-])=O)cc2ccc(N3CCC4(CCOC4)CC3)cc21 (3D coordinates assigned)
CC(C)(C)OC(=O)n1c(C([NH-])=O)cc2ccc(N3CCC4(CCOC4)CC3)cc21 (nonaromatic ring conformer: 102.82182970486215 kcal/mol)

>  <smiles>  (48) 
CC(C)(C)OC(=O)n1c(C(N)=O)cc2ccc(N3CCC4(CCOC4)CC3)cc21

>  <score_type>  (48) 
oracle

>  <origin>  (48) 
adg

>  <m_score__min__energy>  (48) 
-8.7599999999999998

>  <m_primary>  (48) 
energy

$$$$
48:0
     RDKit          3D

 47 49  0  0  0  0  0  0  0  0999 V2000
  137.6180  159.7340  131.0830 C   0  0  0  0  0  0  0  0  0  0  0  0
  138.2320  158.9550  132.0860 O   0  0  0  0  0  0  0  0  0  0  0  0
  139.5960  159.3070  132.2230 C   0  0  0  0  0  0  0  0  0  0  0  0
  140.4780  158.0560  132.2200 C   0  0  0  0  0  0  0  0  0  0  0  0
  139.7970  156.9660  132.8170 O   0  0  0  0  0  0  0  0  0  0  0  0
  140.6650  155.8690  133.0340 C   0  0  0  0  0  0  0  0  0  0  0  0
  140.9350  155.6930  134.5300 C   0  0  0  0  0  0  0  0  0  0  0  0
  142.1610  156.4540  134.9420 C   0  0  0  0  0  0  0  0  0  0  0  0
  143.1860  155.8260  135.3200 O   0  0  0  0  0  0  0  0  0  0  0  0
  142.1860  157.8880  134.8800 N   0  0  0  0  0  0  0  0  0  0  0  0
  141.2090  158.7550  135.2640 C   0  0  0  0  0  0  0  0  0  0  0  0
  139.9340  158.3870  135.9170 C   0  0  0  0  0  0  0  0  0  0  0  0
  138.7540  158.2360  135.1330 N   0  0  0  0  0  0  0  0  0  0  0  0
  139.8710  158.2240  137.1640 O   0  0  0  0  0  0  0  0  0  0  0  0
  141.6020  160.0700  135.0170 C   0  0  0  0  0  0  0  0  0  0  0  0
  142.8600  159.9790  134.4640 C   0  0  0  0  0  0  0  0  0  0  0  0
  143.7190  160.9770  134.0170 C   0  0  0  0  0  0  0  0  0  0  0  0
  144.9550  160.5850  133.4710 C   0  0  0  0  0  0  0  0  0  0  0  0
  145.2980  159.2160  133.3780 C   0  0  0  0  0  0  0  0  0  0  0  0
  146.5530  158.8300  132.8170 N   0  0  0  0  0  0  0  0  0  0  0  0
  147.3250  157.5890  132.6250 C   0  0  0  0  0  0  0  0  0  0  0  0
  148.4930  158.2320  131.9530 C   0  0  0  0  0  0  0  0  0  0  0  0
  147.6980  159.4790  132.1540 C   0  0  0  0  0  0  0  0  0  0  0  0
  144.4030  158.2310  133.8380 C   0  0  0  0  0  0  0  0  0  0  0  0
  143.1880  158.6490  134.3930 C   0  0  0  0  0  0  0  0  0  0  0  0
  137.0019  160.5156  131.5515 H   0  0  0  0  0  0  0  0  0  0  0  0
  138.3920  160.2029  130.4577 H   0  0  0  0  0  0  0  0  0  0  0  0
  136.9813  159.0909  130.4577 H   0  0  0  0  0  0  0  0  0  0  0  0
  139.8876  159.9570  131.3848 H   0  0  0  0  0  0  0  0  0  0  0  0
  139.7319  159.8345  133.1786 H   0  0  0  0  0  0  0  0  0  0  0  0
  140.7354  157.7972  131.1823 H   0  0  0  0  0  0  0  0  0  0  0  0
  141.3911  158.2636  132.7972 H   0  0  0  0  0  0  0  0  0  0  0  0
  140.1991  154.9541  132.6393 H   0  0  0  0  0  0  0  0  0  0  0  0
  141.6179  156.0593  132.5185 H   0  0  0  0  0  0  0  0  0  0  0  0
  140.0706  156.0658  135.0990 H   0  0  0  0  0  0  0  0  0  0  0  0
  141.0965  154.6247  134.7364 H   0  0  0  0  0  0  0  0  0  0  0  0
  138.7760  158.3750  134.0980 H   0  0  0  0  0  0  0  0  0  0  0  0
  141.0285  160.9863  135.2208 H   0  0  0  0  0  0  0  0  0  0  0  0
  143.4410  162.0389  134.0880 H   0  0  0  0  0  0  0  0  0  0  0  0
  145.6604  161.3496  133.1135 H   0  0  0  0  0  0  0  0  0  0  0  0
  147.5951  157.1056  133.5754 H   0  0  0  0  0  0  0  0  0  0  0  0
  146.8279  156.7675  132.0883 H   0  0  0  0  0  0  0  0  0  0  0  0
  149.4442  158.1815  132.5032 H   0  0  0  0  0  0  0  0  0  0  0  0
  148.8962  157.9105  130.9814 H   0  0  0  0  0  0  0  0  0  0  0  0
  148.2072  160.2071  132.8025 H   0  0  0  0  0  0  0  0  0  0  0  0
  147.4824  160.0847  131.2615 H   0  0  0  0  0  0  0  0  0  0  0  0
  144.6520  157.1622  133.7632 H   0  0  0  0  0  0  0  0  0  0  0  0
  1  2  1  0
  2  3  1  0
  3  4  1  0
  4  5  1  0
  5  6  1  0
  6  7  1  0
  7  8  1  0
  8  9  2  0
  8 10  1  0
 10 11  1  0
 11 12  1  0
 12 13  1  0
 12 14  2  0
 11 15  2  0
 15 16  1  0
 16 17  2  0
 17 18  1  0
 18 19  2  0
 19 20  1  0
 20 21  1  0
 21 22  1  0
 22 23  1  0
 19 24  1  0
 24 25  2  0
 25 10  1  0
 25 16  1  0
 23 20  1  0
  1 26  1  0
  1 27  1  0
  1 28  1  0
  3 29  1  0
  3 30  1  0
  4 31  1  0
  4 32  1  0
  6 33  1  0
  6 34  1  0
  7 35  1  0
  7 36  1  0
 13 37  1  0
 15 38  1  0
 17 39  1  0
 18 40  1  0
 21 41  1  0
 21 42  1  0
 22 43  1  0
 22 44  1  0
 23 45  1  0
 23 46  1  0
 24 47  1  0
M  CHG  1  13  -1
M  END
>  <UniqueID>  (49) 
49

>  <SMILES>  (49) 
COCCOCCC(=O)n1c(C([NH-])=O)cc2ccc(N3CCC3)cc21

>  <Energy>  (49) 
130.43226202378486

>  <Genealogy>  (49) 
COCCOCCC(=O)n1c(C([NH-])=O)cc2ccc(N3CCC3)cc21 (protonated)
COCCOCCC(=O)n1c(C([NH-])=O)cc2ccc(N3CCC3)cc21 (3D coordinates assigned)
COCCOCCC(=O)n1c(C([NH-])=O)cc2ccc(N3CCC3)cc21 (nonaromatic ring conformer: 130.43226202378486 kcal/mol)

>  <smiles>  (49) 
COCCOCCC(=O)n1c(C(N)=O)cc2ccc(N3CCC3)cc21

>  <score_type>  (49) 
oracle

>  <origin>  (49) 
adg

>  <m_score__min__energy>  (49) 
-6.8099999999999996

>  <m_primary>  (49) 
energy

$$$$
49:0
     RDKit          3D

 48 49  0  0  0  0  0  0  0  0999 V2000
  142.5400  160.4930  133.3390 N   0  0  0  0  0  0  0  0  0  0  0  0
  143.9020  160.7580  133.6690 C   0  0  0  0  0  0  0  0  0  0  0  0
  144.2100  161.8720  134.1680 O   0  0  0  0  0  0  0  0  0  0  0  0
  144.9370  159.7380  133.3950 C   0  0  0  0  0  0  0  0  0  0  0  0
  146.2570  160.0440  133.0690 C   0  0  0  0  0  0  0  0  0  0  0  0
  146.8970  158.8300  132.9620 C   0  0  0  0  0  0  0  0  0  0  0  0
  148.2190  158.5400  132.6440 C   0  0  0  0  0  0  0  0  0  0  0  0
  148.6010  157.1900  132.5760 C   0  0  0  0  0  0  0  0  0  0  0  0
  147.6560  156.1530  132.8150 C   0  0  0  0  0  0  0  0  0  0  0  0
  148.0150  154.7570  132.7430 N   0  0  0  0  0  0  0  0  0  0  0  0
  148.4030  153.9340  133.8960 C   0  0  2  0  0  0  0  0  0  0  0  0
  148.9480  152.5730  133.4130 C   0  0  0  0  0  0  0  0  0  0  0  0
  148.1860  152.0220  132.2000 C   0  0  0  0  0  0  0  0  0  0  0  0
  146.9830  151.4200  132.5950 O   0  0  0  0  0  0  0  0  0  0  0  0
  147.2220  153.7510  134.8150 C   0  0  0  0  0  0  0  0  0  0  0  0
  147.3900  153.6380  136.0580 O   0  0  0  0  0  0  0  0  0  0  0  0
  145.9370  153.7030  134.2910 O   0  0  0  0  0  0  0  0  0  0  0  0
  146.3230  156.4960  133.1310 C   0  0  0  0  0  0  0  0  0  0  0  0
  145.9780  157.8490  133.2140 C   0  0  0  0  0  0  0  0  0  0  0  0
  144.7690  158.3880  133.4840 N   0  0  0  0  0  0  0  0  0  0  0  0
  143.5590  157.6650  133.7550 C   0  0  0  0  0  0  0  0  0  0  0  0
  143.5480  156.7730  134.6460 O   0  0  0  0  0  0  0  0  0  0  0  0
  142.3650  157.9660  133.0230 N   0  0  0  0  0  0  0  0  0  0  0  0
  141.0780  157.3640  133.3760 C   0  0  0  0  0  0  0  0  0  0  0  0
  139.9200  158.3580  133.1990 C   0  0  1  0  0  0  0  0  0  0  0  0
  140.2640  159.5650  133.8300 O   0  0  0  0  0  0  0  0  0  0  0  0
  139.6340  158.6200  131.7080 C   0  0  0  0  0  0  0  0  0  0  0  0
  140.6160  159.4560  131.1580 O   0  0  0  0  0  0  0  0  0  0  0  0
  142.2820  160.0750  132.4170 H   0  0  0  0  0  0  0  0  0  0  0  0
  146.6945  161.0433  132.9273 H   0  0  0  0  0  0  0  0  0  0  0  0
  148.9445  159.3441  132.4513 H   0  0  0  0  0  0  0  0  0  0  0  0
  149.6427  156.9313  132.3352 H   0  0  0  0  0  0  0  0  0  0  0  0
  148.0290  154.3130  131.7950 H   0  0  0  0  0  0  0  0  0  0  0  0
  149.2008  154.4427  134.4570 H   0  0  0  0  0  0  0  0  0  0  0  0
  150.0056  152.6962  133.1369 H   0  0  0  0  0  0  0  0  0  0  0  0
  148.8214  151.8551  134.2368 H   0  0  0  0  0  0  0  0  0  0  0  0
  147.9649  152.8481  131.5081 H   0  0  0  0  0  0  0  0  0  0  0  0
  148.8123  151.2642  131.7066 H   0  0  0  0  0  0  0  0  0  0  0  0
  146.6860  151.8910  133.4170 H   0  0  0  0  0  0  0  0  0  0  0  0
  145.5702  155.7139  133.3085 H   0  0  0  0  0  0  0  0  0  0  0  0
  142.4330  158.6240  132.2130 H   0  0  0  0  0  0  0  0  0  0  0  0
  140.9022  156.4924  132.7284 H   0  0  0  0  0  0  0  0  0  0  0  0
  141.1166  157.0663  134.4343 H   0  0  0  0  0  0  0  0  0  0  0  0
  139.0119  157.9310  133.6496 H   0  0  0  0  0  0  0  0  0  0  0  0
  140.9740  159.9880  133.2790 H   0  0  0  0  0  0  0  0  0  0  0  0
  139.6296  157.6624  131.1668 H   0  0  0  0  0  0  0  0  0  0  0  0
  138.6551  159.1131  131.6153 H   0  0  0  0  0  0  0  0  0  0  0  0
  141.3090  159.5800  131.8580 H   0  0  0  0  0  0  0  0  0  0  0  0
  1  2  1  0
  2  3  2  0
  2  4  1  0
  4  5  2  0
  5  6  1  0
  6  7  2  0
  7  8  1  0
  8  9  2  0
  9 10  1  0
 10 11  1  0
 11 12  1  0
 12 13  1  0
 13 14  1  0
 11 15  1  0
 15 16  2  0
 15 17  1  0
  9 18  1  0
 18 19  2  0
 19 20  1  0
 20 21  1  0
 21 22  2  0
 21 23  1  0
 23 24  1  0
 24 25  1  0
 25 26  1  0
 25 27  1  0
 27 28  1  0
 20  4  1  0
 19  6  1  0
  1 29  1  0
  5 30  1  0
  7 31  1  0
  8 32  1  0
 10 33  1  0
 11 34  1  1
 12 35  1  0
 12 36  1  0
 13 37  1  0
 13 38  1  0
 14 39  1  0
 18 40  1  0
 23 41  1  0
 24 42  1  0
 24 43  1  0
 25 44  1  1
 26 45  1  0
 27 46  1  0
 27 47  1  0
 28 48  1  0
M  CHG  2   1  -1  17  -1
M  END
>  <UniqueID>  (50) 
50

>  <SMILES>  (50) 
[NH-]C(=O)c1cc2ccc(N[C@H](CCO)C(=O)[O-])cc2n1C(=O)NC[C@@H](O)CO

>  <Energy>  (50) 
78.56980709496558

>  <Genealogy>  (50) 
[NH-]C(=O)c1cc2ccc(NC(CCO)C(=O)[O-])cc2n1C(=O)NCC(O)CO (protonated)
[NH-]C(=O)c1cc2ccc(N[C@H](CCO)C(=O)[O-])cc2n1C(=O)NC[C@@H](O)CO (chirality)
[NH-]C(=O)c1cc2ccc(N[C@H](CCO)C(=O)[O-])cc2n1C(=O)NC[C@@H](O)CO (3D coordinates assigned)
[NH-]C(=O)c1cc2ccc(N[C@H](CCO)C(=O)[O-])cc2n1C(=O)NC[C@@H](O)CO (optimized conformer: 78.56980709496558 kcal/mol)

>  <smiles>  (50) 
NC(=O)c1cc2ccc(NC(CCO)C(=O)O)cc2n1C(=O)NCC(O)CO

>  <score_type>  (50) 
oracle

>  <origin>  (50) 
adg

>  <m_score__min__energy>  (50) 
-6.7000000000000002

>  <m_primary>  (50) 
energy

$$$$
50:0
     RDKit          3D

 51 53  0  0  0  0  0  0  0  0999 V2000
  145.5810  155.3330  134.3070 C   0  0  0  0  0  0  0  0  0  0  0  0
  144.9760  154.8510  132.9670 C   0  0  1  0  0  0  0  0  0  0  0  0
  144.9110  153.3110  132.9360 C   0  0  0  0  0  0  0  0  0  0  0  0
  144.0450  152.7750  133.9200 O   0  0  0  0  0  0  0  0  0  0  0  0
  142.8430  153.5160  134.1020 C   0  0  0  0  0  0  0  0  0  0  0  0
  142.4980  154.5230  132.9830 C   0  0  0  0  0  0  0  0  0  0  0  0
  143.6360  155.4210  132.6340 N   0  0  1  0  0  0  0  0  0  0  0  0
  143.4580  156.7990  133.0800 C   0  0  0  0  0  0  0  0  0  0  0  0
  142.1670  157.2430  133.4770 C   0  0  0  0  0  0  0  0  0  0  0  0
  141.9410  158.5770  133.8540 C   0  0  0  0  0  0  0  0  0  0  0  0
  143.0180  159.4550  133.8210 C   0  0  0  0  0  0  0  0  0  0  0  0
  143.0690  160.8030  134.0910 C   0  0  0  0  0  0  0  0  0  0  0  0
  144.3920  161.1760  133.8630 C   0  0  0  0  0  0  0  0  0  0  0  0
  144.9070  162.5390  134.1050 C   0  0  0  0  0  0  0  0  0  0  0  0
  145.9720  162.7680  135.0250 N   0  0  0  0  0  0  0  0  0  0  0  0
  144.3680  163.5210  133.5300 O   0  0  0  0  0  0  0  0  0  0  0  0
  145.1280  160.1010  133.4640 N   0  0  0  0  0  0  0  0  0  0  0  0
  146.4970  160.0880  133.0310 C   0  0  0  0  0  0  0  0  0  0  0  0
  147.2620  161.0370  133.3540 O   0  0  0  0  0  0  0  0  0  0  0  0
  146.9710  159.0030  132.2790 O   0  0  0  0  0  0  0  0  0  0  0  0
  148.1050  158.1800  132.5930 C   0  0  0  0  0  0  0  0  0  0  0  0
  148.4830  158.3200  134.0810 C   0  0  0  0  0  0  0  0  0  0  0  0
  147.8180  156.7080  132.2410 C   0  0  0  0  0  0  0  0  0  0  0  0
  149.2770  158.6780  131.7350 C   0  0  0  0  0  0  0  0  0  0  0  0
  144.2730  159.0550  133.4440 C   0  0  0  0  0  0  0  0  0  0  0  0
  144.5240  157.7380  133.0470 C   0  0  0  0  0  0  0  0  0  0  0  0
  145.0219  154.8875  135.1430 H   0  0  0  0  0  0  0  0  0  0  0  0
  146.6353  155.0246  134.3653 H   0  0  0  0  0  0  0  0  0  0  0  0
  145.5160  156.4295  134.3653 H   0  0  0  0  0  0  0  0  0  0  0  0
  145.6578  155.2313  132.1921 H   0  0  0  0  0  0  0  0  0  0  0  0
  144.5540  152.9949  131.9448 H   0  0  0  0  0  0  0  0  0  0  0  0
  145.9227  152.9341  133.1467 H   0  0  0  0  0  0  0  0  0  0  0  0
  142.0126  152.7986  134.1782 H   0  0  0  0  0  0  0  0  0  0  0  0
  142.9982  154.1189  135.0089 H   0  0  0  0  0  0  0  0  0  0  0  0
  142.2069  153.9608  132.0835 H   0  0  0  0  0  0  0  0  0  0  0  0
  141.6802  155.1583  133.3538 H   0  0  0  0  0  0  0  0  0  0  0  0
  143.6100  155.4600  131.5850 H   0  0  0  0  0  0  0  0  0  0  0  0
  141.3303  156.5290  133.4891 H   0  0  0  0  0  0  0  0  0  0  0  0
  140.9422  158.9165  134.1658 H   0  0  0  0  0  0  0  0  0  0  0  0
  142.2410  161.4493  134.4176 H   0  0  0  0  0  0  0  0  0  0  0  0
  146.9680  162.6780  134.7280 H   0  0  0  0  0  0  0  0  0  0  0  0
  147.6342  158.0056  134.7061 H   0  0  0  0  0  0  0  0  0  0  0  0
  149.3542  157.6849  134.2993 H   0  0  0  0  0  0  0  0  0  0  0  0
  148.7303  159.3694  134.2993 H   0  0  0  0  0  0  0  0  0  0  0  0
  147.7043  156.1250  133.1669 H   0  0  0  0  0  0  0  0  0  0  0  0
  146.8908  156.6458  131.6524 H   0  0  0  0  0  0  0  0  0  0  0  0
  148.6539  156.3020  131.6524 H   0  0  0  0  0  0  0  0  0  0  0  0
  150.0902  159.0235  132.3902 H   0  0  0  0  0  0  0  0  0  0  0  0
  149.6414  157.8570  131.1001 H   0  0  0  0  0  0  0  0  0  0  0  0
  148.9389  159.5102  131.1001 H   0  0  0  0  0  0  0  0  0  0  0  0
  145.5279  157.4345  132.7153 H   0  0  0  0  0  0  0  0  0  0  0  0
  1  2  1  0
  2  3  1  0
  3  4  1  0
  4  5  1  0
  5  6  1  0
  6  7  1  0
  7  8  1  0
  8  9  2  0
  9 10  1  0
 10 11  2  0
 11 12  1  0
 12 13  2  0
 13 14  1  0
 14 15  1  0
 14 16  2  0
 13 17  1  0
 17 18  1  0
 18 19  2  0
 18 20  1  0
 20 21  1  0
 21 22  1  0
 21 23  1  0
 21 24  1  0
 17 25  1  0
 25 26  2  0
  7  2  1  0
 26  8  1  0
 25 11  1  0
  1 27  1  0
  1 28  1  0
  1 29  1  0
  2 30  1  6
  3 31  1  0
  3 32  1  0
  5 33  1  0
  5 34  1  0
  6 35  1  0
  6 36  1  0
  7 37  1  6
  9 38  1  0
 10 39  1  0
 12 40  1  0
 15 41  1  0
 22 42  1  0
 22 43  1  0
 22 44  1  0
 23 45  1  0
 23 46  1  0
 23 47  1  0
 24 48  1  0
 24 49  1  0
 24 50  1  0
 26 51  1  0
M  CHG  2   7   1  15  -1
M  END
>  <UniqueID>  (51) 
51

>  <SMILES>  (51) 
C[C@H]1COCC[N@H+]1c1ccc2cc(C([NH-])=O)n(C(=O)OC(C)(C)C)c2c1

>  <Energy>  (51) 
109.50009690957904

>  <Genealogy>  (51) 
C[C@H]1COCC[NH+]1c1ccc2cc(C([NH-])=O)n(C(=O)OC(C)(C)C)c2c1 (protonated)
C[C@H]1COCC[N@H+]1c1ccc2cc(C([NH-])=O)n(C(=O)OC(C)(C)C)c2c1 (chirality)
C[C@H]1COCC[N@H+]1c1ccc2cc(C([NH-])=O)n(C(=O)OC(C)(C)C)c2c1 (3D coordinates assigned)
C[C@H]1COCC[N@H+]1c1ccc2cc(C([NH-])=O)n(C(=O)OC(C)(C)C)c2c1 (nonaromatic ring conformer: 109.50009690957904 kcal/mol)

>  <smiles>  (51) 
C[C@H]1COCCN1c1ccc2cc(C(N)=O)n(C(=O)OC(C)(C)C)c2c1

>  <score_type>  (51) 
oracle

>  <origin>  (51) 
adg

>  <m_score__min__energy>  (51) 
-7.4699999999999998

>  <m_primary>  (51) 
energy

$$$$
51:0
     RDKit          3D

 45 46  0  0  0  0  0  0  0  0999 V2000
  149.6380  151.6710  131.5400 C   0  0  0  0  0  0  0  0  0  0  0  0
  149.2520  152.9730  131.9200 O   0  0  0  0  0  0  0  0  0  0  0  0
  148.8740  152.9700  133.2800 C   0  0  0  0  0  0  0  0  0  0  0  0
  147.7220  153.9560  133.4960 C   0  0  0  0  0  0  0  0  0  0  0  0
  147.4650  154.7500  132.2840 N   0  0  0  0  0  0  0  0  0  0  0  0
  147.4580  156.1540  132.6100 C   0  0  0  0  0  0  0  0  0  0  0  0
  148.6680  156.8960  132.5990 C   0  0  0  0  0  0  0  0  0  0  0  0
  148.6700  158.2680  132.8990 C   0  0  0  0  0  0  0  0  0  0  0  0
  147.4520  158.8760  133.1870 C   0  0  0  0  0  0  0  0  0  0  0  0
  147.1730  160.1780  133.5310 C   0  0  0  0  0  0  0  0  0  0  0  0
  145.7930  160.2250  133.7130 C   0  0  0  0  0  0  0  0  0  0  0  0
  145.0550  161.4700  134.0130 C   0  0  0  0  0  0  0  0  0  0  0  0
  143.6610  161.5800  133.7370 N   0  0  0  0  0  0  0  0  0  0  0  0
  145.6740  162.4660  134.4730 O   0  0  0  0  0  0  0  0  0  0  0  0
  145.2400  158.9980  133.4970 N   0  0  0  0  0  0  0  0  0  0  0  0
  143.8690  158.6120  133.6810 C   0  0  0  0  0  0  0  0  0  0  0  0
  143.2650  157.9910  132.7650 O   0  0  0  0  0  0  0  0  0  0  0  0
  143.2250  158.9150  134.8890 O   0  0  0  0  0  0  0  0  0  0  0  0
  141.8420  159.0820  135.0500 C   0  0  0  0  0  0  0  0  0  0  0  0
  141.2610  160.1070  134.5950 O   0  0  0  0  0  0  0  0  0  0  0  0
  141.0830  158.0760  135.7400 N   0  0  0  0  0  0  0  0  0  0  0  0
  141.7730  156.8990  136.2730 C   0  0  0  0  0  0  0  0  0  0  0  0
  139.6360  158.2360  135.9050 C   0  0  0  0  0  0  0  0  0  0  0  0
  146.2690  158.1830  133.1730 C   0  0  0  0  0  0  0  0  0  0  0  0
  146.2390  156.8120  132.8990 C   0  0  0  0  0  0  0  0  0  0  0  0
  149.8178  151.0645  132.4399 H   0  0  0  0  0  0  0  0  0  0  0  0
  148.8375  151.2111  130.9418 H   0  0  0  0  0  0  0  0  0  0  0  0
  150.5597  151.7217  130.9418 H   0  0  0  0  0  0  0  0  0  0  0  0
  148.5492  151.9591  133.5673 H   0  0  0  0  0  0  0  0  0  0  0  0
  149.7327  153.2708  133.8982 H   0  0  0  0  0  0  0  0  0  0  0  0
  146.8129  153.3939  133.7558 H   0  0  0  0  0  0  0  0  0  0  0  0
  147.9999  154.6427  134.3091 H   0  0  0  0  0  0  0  0  0  0  0  0
  148.2070  154.5580  131.5700 H   0  0  0  0  0  0  0  0  0  0  0  0
  146.5420  154.4820  131.8710 H   0  0  0  0  0  0  0  0  0  0  0  0
  149.6139  156.3912  132.3530 H   0  0  0  0  0  0  0  0  0  0  0  0
  149.6066  158.8448  132.9061 H   0  0  0  0  0  0  0  0  0  0  0  0
  147.8882  161.0067  133.6394 H   0  0  0  0  0  0  0  0  0  0  0  0
  143.0530  160.7330  133.6970 H   0  0  0  0  0  0  0  0  0  0  0  0
  141.7549  156.9299  137.3724 H   0  0  0  0  0  0  0  0  0  0  0  0
  141.2663  155.9874  135.9234 H   0  0  0  0  0  0  0  0  0  0  0  0
  142.8160  156.8958  135.9234 H   0  0  0  0  0  0  0  0  0  0  0  0
  139.3900  158.2632  136.9768 H   0  0  0  0  0  0  0  0  0  0  0  0
  139.3145  159.1752  135.4310 H   0  0  0  0  0  0  0  0  0  0  0  0
  139.1171  157.3897  135.4310 H   0  0  0  0  0  0  0  0  0  0  0  0
  145.2890  156.2575  132.9079 H   0  0  0  0  0  0  0  0  0  0  0  0
  1  2  1  0
  2  3  1  0
  3  4  1  0
  4  5  1  0
  5  6  1  0
  6  7  2  0
  7  8  1  0
  8  9  2  0
  9 10  1  0
 10 11  2  0
 11 12  1  0
 12 13  1  0
 12 14  2  0
 11 15  1  0
 15 16  1  0
 16 17  2  0
 16 18  1  0
 18 19  1  0
 19 20  2  0
 19 21  1  0
 21 22  1  0
 21 23  1  0
 15 24  1  0
 24 25  2  0
 25  6  1  0
 24  9  1  0
  1 26  1  0
  1 27  1  0
  1 28  1  0
  3 29  1  0
  3 30  1  0
  4 31  1  0
  4 32  1  0
  5 33  1  0
  5 34  1  0
  7 35  1  0
  8 36  1  0
 10 37  1  0
 13 38  1  0
 22 39  1  0
 22 40  1  0
 22 41  1  0
 23 42  1  0
 23 43  1  0
 23 44  1  0
 25 45  1  0
M  CHG  2   5   1  13  -1
M  END
>  <UniqueID>  (52) 
52

>  <SMILES>  (52) 
COCC[NH2+]c1ccc2cc(C([NH-])=O)n(C(=O)OC(=O)N(C)C)c2c1

>  <Energy>  (52) 
80.02583302517617

>  <Genealogy>  (52) 
COCC[NH2+]c1ccc2cc(C([NH-])=O)n(C(=O)OC(=O)N(C)C)c2c1 (protonated)
COCC[NH2+]c1ccc2cc(C([NH-])=O)n(C(=O)OC(=O)N(C)C)c2c1 (3D coordinates assigned)
COCC[NH2+]c1ccc2cc(C([NH-])=O)n(C(=O)OC(=O)N(C)C)c2c1 (optimized conformer: 80.02583302517617 kcal/mol)

>  <smiles>  (52) 
COCCNc1ccc2cc(C(N)=O)n(C(=O)OC(=O)N(C)C)c2c1

>  <score_type>  (52) 
oracle

>  <origin>  (52) 
adg

>  <m_score__min__energy>  (52) 
-6.54

>  <m_primary>  (52) 
energy

$$$$
53:0
     RDKit          3D

 39 40  0  0  0  0  0  0  0  0999 V2000
  148.1030  153.9670  133.7130 C   0  0  0  0  0  0  0  0  0  0  0  0
  147.7400  154.8730  132.6280 N   0  0  0  0  0  0  0  0  0  0  0  0
  147.4580  156.2710  132.8220 C   0  0  0  0  0  0  0  0  0  0  0  0
  148.5310  157.1950  132.8500 C   0  0  0  0  0  0  0  0  0  0  0  0
  148.2970  158.5680  133.0340 C   0  0  0  0  0  0  0  0  0  0  0  0
  146.9810  158.9890  133.1930 C   0  0  0  0  0  0  0  0  0  0  0  0
  146.4730  160.2560  133.3670 C   0  0  0  0  0  0  0  0  0  0  0  0
  145.0930  160.0900  133.4620 C   0  0  0  0  0  0  0  0  0  0  0  0
  144.1580  161.2000  133.7430 C   0  0  0  0  0  0  0  0  0  0  0  0
  142.7530  160.9950  133.6130 N   0  0  0  0  0  0  0  0  0  0  0  0
  144.5880  162.3410  134.0610 O   0  0  0  0  0  0  0  0  0  0  0  0
  144.7600  158.7720  133.3450 N   0  0  0  0  0  0  0  0  0  0  0  0
  143.4460  158.1890  133.3250 C   0  0  0  0  0  0  0  0  0  0  0  0
  142.9810  157.7170  132.2520 O   0  0  0  0  0  0  0  0  0  0  0  0
  142.7030  158.1180  134.5060 O   0  0  0  0  0  0  0  0  0  0  0  0
  141.4960  157.3740  134.6140 C   0  0  0  0  0  0  0  0  0  0  0  0
  140.3690  158.1800  134.0560 C   0  0  0  0  0  0  0  0  0  0  0  0
  139.1890  157.9540  134.4420 O   0  0  0  0  0  0  0  0  0  0  0  0
  140.6280  159.1910  133.0740 N   0  0  0  0  0  0  0  0  0  0  0  0
  139.5520  160.0220  132.5350 C   0  0  0  0  0  0  0  0  0  0  0  0
  139.4040  159.8140  131.0600 C   0  0  0  0  0  0  0  0  0  0  0  0
  140.2720  159.1620  130.4230 O   0  0  0  0  0  0  0  0  0  0  0  0
  138.3010  160.3280  130.3900 O   0  0  0  0  0  0  0  0  0  0  0  0
  145.9290  158.1120  133.1840 C   0  0  0  0  0  0  0  0  0  0  0  0
  146.1310  156.7410  132.9820 C   0  0  0  0  0  0  0  0  0  0  0  0
  147.9074  154.4551  134.6792 H   0  0  0  0  0  0  0  0  0  0  0  0
  147.5039  153.0475  133.6388 H   0  0  0  0  0  0  0  0  0  0  0  0
  149.1713  153.7155  133.6388 H   0  0  0  0  0  0  0  0  0  0  0  0
  147.7110  154.4820  131.6590 H   0  0  0  0  0  0  0  0  0  0  0  0
  149.5621  156.8325  132.7259 H   0  0  0  0  0  0  0  0  0  0  0  0
  149.1287  159.2877  133.0518 H   0  0  0  0  0  0  0  0  0  0  0  0
  147.0366  161.1992  133.4199 H   0  0  0  0  0  0  0  0  0  0  0  0
  142.2970  160.1430  134.0090 H   0  0  0  0  0  0  0  0  0  0  0  0
  141.5912  156.4348  134.0493 H   0  0  0  0  0  0  0  0  0  0  0  0
  141.2974  157.1445  135.6713 H   0  0  0  0  0  0  0  0  0  0  0  0
  141.6120  159.3330  132.7510 H   0  0  0  0  0  0  0  0  0  0  0  0
  138.6078  159.7560  133.0327 H   0  0  0  0  0  0  0  0  0  0  0  0
  139.7986  161.0783  132.7179 H   0  0  0  0  0  0  0  0  0  0  0  0
  145.2795  156.0454  132.9483 H   0  0  0  0  0  0  0  0  0  0  0  0
  1  2  1  0
  2  3  1  0
  3  4  2  0
  4  5  1  0
  5  6  2  0
  6  7  1  0
  7  8  2  0
  8  9  1  0
  9 10  1  0
  9 11  2  0
  8 12  1  0
 12 13  1  0
 13 14  2  0
 13 15  1  0
 15 16  1  0
 16 17  1  0
 17 18  2  0
 17 19  1  0
 19 20  1  0
 20 21  1  0
 21 22  2  0
 21 23  1  0
 12 24  1  0
 24 25  2  0
 25  3  1  0
 24  6  1  0
  1 26  1  0
  1 27  1  0
  1 28  1  0
  2 29  1  0
  4 30  1  0
  5 31  1  0
  7 32  1  0
 10 33  1  0
 16 34  1  0
 16 35  1  0
 19 36  1  0
 20 37  1  0
 20 38  1  0
 25 39  1  0
M  CHG  2  10  -1  23  -1
M  END
>  <UniqueID>  (53) 
53

>  <SMILES>  (53) 
CNc1ccc2cc(C([NH-])=O)n(C(=O)OCC(=O)NCC(=O)[O-])c2c1

>  <Energy>  (53) 
68.57088690065986

>  <Genealogy>  (53) 
CNc1ccc2cc(C([NH-])=O)n(C(=O)OCC(=O)NCC(=O)[O-])c2c1 (protonated)
CNc1ccc2cc(C([NH-])=O)n(C(=O)OCC(=O)NCC(=O)[O-])c2c1 (3D coordinates assigned)
CNc1ccc2cc(C([NH-])=O)n(C(=O)OCC(=O)NCC(=O)[O-])c2c1 (optimized conformer: 68.57088690065986 kcal/mol)

>  <smiles>  (53) 
CNc1ccc2cc(C(N)=O)n(C(=O)OCC(=O)NCC(=O)O)c2c1

>  <score_type>  (53) 
oracle

>  <origin>  (53) 
adg

>  <m_score__min__energy>  (53) 
-6.3700000000000001

>  <m_primary>  (53) 
energy

$$$$
54:0
     RDKit          3D

 50 51  0  0  0  0  0  0  0  0999 V2000
  144.5820  154.8530  135.7480 C   0  0  0  0  0  0  0  0  0  0  0  0
  145.5550  153.9840  135.0820 N   0  0  0  0  0  0  0  0  0  0  0  0
  145.2000  153.3000  133.8310 C   0  0  0  0  0  0  0  0  0  0  0  0
  145.4950  154.2040  132.6280 C   0  0  0  0  0  0  0  0  0  0  0  0
  146.8750  154.7060  132.6760 N   0  0  0  0  0  0  0  0  0  0  0  0
  146.8730  156.1300  132.8990 C   0  0  0  0  0  0  0  0  0  0  0  0
  148.0750  156.8730  132.7760 C   0  0  0  0  0  0  0  0  0  0  0  0
  148.0820  158.2640  132.9720 C   0  0  0  0  0  0  0  0  0  0  0  0
  146.8740  158.8870  133.2700 C   0  0  0  0  0  0  0  0  0  0  0  0
  146.6010  160.2110  133.5270 C   0  0  0  0  0  0  0  0  0  0  0  0
  145.2300  160.2650  133.7700 C   0  0  0  0  0  0  0  0  0  0  0  0
  144.4950  161.5240  134.0110 C   0  0  0  0  0  0  0  0  0  0  0  0
  143.0990  161.5950  133.7330 N   0  0  0  0  0  0  0  0  0  0  0  0
  145.0800  162.5290  134.4950 O   0  0  0  0  0  0  0  0  0  0  0  0
  144.6780  159.0230  133.6710 N   0  0  0  0  0  0  0  0  0  0  0  0
  143.3140  158.6470  133.9230 C   0  0  0  0  0  0  0  0  0  0  0  0
  142.4840  158.6440  132.9760 O   0  0  0  0  0  0  0  0  0  0  0  0
  142.9330  158.2660  135.2190 O   0  0  0  0  0  0  0  0  0  0  0  0
  141.6110  158.3380  135.7710 C   0  0  0  0  0  0  0  0  0  0  0  0
  140.7020  157.2620  135.1480 C   0  0  0  0  0  0  0  0  0  0  0  0
  141.7350  158.0690  137.2790 C   0  0  0  0  0  0  0  0  0  0  0  0
  141.0120  159.7420  135.5650 C   0  0  0  0  0  0  0  0  0  0  0  0
  145.6970  158.1900  133.3630 C   0  0  0  0  0  0  0  0  0  0  0  0
  145.6630  156.8020  133.1930 C   0  0  0  0  0  0  0  0  0  0  0  0
  146.8600  153.8160  135.6650 C   0  0  0  0  0  0  0  0  0  0  0  0
  146.9900  153.3010  136.8080 O   0  0  0  0  0  0  0  0  0  0  0  0
  147.9960  154.2230  134.9740 O   0  0  0  0  0  0  0  0  0  0  0  0
  144.6901  154.7564  136.8384 H   0  0  0  0  0  0  0  0  0  0  0  0
  144.7609  155.8975  135.4529 H   0  0  0  0  0  0  0  0  0  0  0  0
  143.5643  154.5577  135.4529 H   0  0  0  0  0  0  0  0  0  0  0  0
  145.7892  152.3753  133.7432 H   0  0  0  0  0  0  0  0  0  0  0  0
  144.1260  153.0625  133.8453 H   0  0  0  0  0  0  0  0  0  0  0  0
  145.3531  153.6284  131.7014 H   0  0  0  0  0  0  0  0  0  0  0  0
  144.8074  155.0622  132.6560 H   0  0  0  0  0  0  0  0  0  0  0  0
  147.3980  154.2300  133.4480 H   0  0  0  0  0  0  0  0  0  0  0  0
  147.3620  154.4900  131.7740 H   0  0  0  0  0  0  0  0  0  0  0  0
  149.0118  156.3543  132.5244 H   0  0  0  0  0  0  0  0  0  0  0  0
  149.0139  158.8430  132.8923 H   0  0  0  0  0  0  0  0  0  0  0  0
  147.3137  161.0488  133.5382 H   0  0  0  0  0  0  0  0  0  0  0  0
  142.5940  160.7840  133.3110 H   0  0  0  0  0  0  0  0  0  0  0  0
  140.2149  156.6854  135.9481 H   0  0  0  0  0  0  0  0  0  0  0  0
  139.9349  157.7457  134.5254 H   0  0  0  0  0  0  0  0  0  0  0  0
  141.3070  156.5865  134.5254 H   0  0  0  0  0  0  0  0  0  0  0  0
  141.3385  158.9290  137.8387 H   0  0  0  0  0  0  0  0  0  0  0  0
  141.1620  157.1667  137.5389 H   0  0  0  0  0  0  0  0  0  0  0  0
  142.7933  157.9187  137.5389 H   0  0  0  0  0  0  0  0  0  0  0  0
  140.8150  160.2038  136.5437 H   0  0  0  0  0  0  0  0  0  0  0  0
  141.7227  160.3649  135.0021 H   0  0  0  0  0  0  0  0  0  0  0  0
  140.0705  159.6600  135.0021 H   0  0  0  0  0  0  0  0  0  0  0  0
  144.7183  156.2462  133.2856 H   0  0  0  0  0  0  0  0  0  0  0  0
  1  2  1  0
  2  3  1  0
  3  4  1  0
  4  5  1  0
  5  6  1  0
  6  7  2  0
  7  8  1  0
  8  9  2  0
  9 10  1  0
 10 11  2  0
 11 12  1  0
 12 13  1  0
 12 14  2  0
 11 15  1  0
 15 16  1  0
 16 17  2  0
 16 18  1  0
 18 19  1  0
 19 20  1  0
 19 21  1  0
 19 22  1  0
 15 23  1  0
 23 24  2  0
  2 25  1  0
 25 26  2  0
 25 27  1  0
 24  6  1  0
 23  9  1  0
  1 28  1  0
  1 29  1  0
  1 30  1  0
  3 31  1  0
  3 32  1  0
  4 33  1  0
  4 34  1  0
  5 35  1  0
  5 36  1  0
  7 37  1  0
  8 38  1  0
 10 39  1  0
 13 40  1  0
 20 41  1  0
 20 42  1  0
 20 43  1  0
 21 44  1  0
 21 45  1  0
 21 46  1  0
 22 47  1  0
 22 48  1  0
 22 49  1  0
 24 50  1  0
M  CHG  3   5   1  13  -1  27  -1
M  END
>  <UniqueID>  (54) 
54

>  <SMILES>  (54) 
CN(CC[NH2+]c1ccc2cc(C([NH-])=O)n(C(=O)OC(C)(C)C)c2c1)C(=O)[O-]

>  <Energy>  (54) 
78.9845075564234

>  <Genealogy>  (54) 
CN(CC[NH2+]c1ccc2cc(C([NH-])=O)n(C(=O)OC(C)(C)C)c2c1)C(=O)[O-] (protonated)
CN(CC[NH2+]c1ccc2cc(C([NH-])=O)n(C(=O)OC(C)(C)C)c2c1)C(=O)[O-] (3D coordinates assigned)
CN(CC[NH2+]c1ccc2cc(C([NH-])=O)n(C(=O)OC(C)(C)C)c2c1)C(=O)[O-] (optimized conformer: 78.9845075564234 kcal/mol)

>  <smiles>  (54) 
CN(CCNc1ccc2cc(C(N)=O)n(C(=O)OC(C)(C)C)c2c1)C(=O)O

>  <score_type>  (54) 
oracle

>  <origin>  (54) 
adg

>  <m_score__min__energy>  (54) 
-6.5700000000000003

>  <m_primary>  (54) 
energy

$$$$
55:0
     RDKit          3D

 35 36  0  0  0  0  0  0  0  0999 V2000
  143.1450  160.6110  133.4050 N   0  0  0  0  0  0  0  0  0  0  0  0
  144.5180  160.7980  133.7390 C   0  0  0  0  0  0  0  0  0  0  0  0
  144.8670  161.8450  134.3470 O   0  0  0  0  0  0  0  0  0  0  0  0
  145.5230  159.7590  133.4360 C   0  0  0  0  0  0  0  0  0  0  0  0
  146.8470  160.0440  133.1090 C   0  0  0  0  0  0  0  0  0  0  0  0
  147.4650  158.8210  132.9880 C   0  0  0  0  0  0  0  0  0  0  0  0
  148.7830  158.5110  132.6620 C   0  0  0  0  0  0  0  0  0  0  0  0
  149.1390  157.1550  132.5750 C   0  0  0  0  0  0  0  0  0  0  0  0
  148.1750  156.1460  132.8070 C   0  0  0  0  0  0  0  0  0  0  0  0
  148.5480  154.7600  132.7010 C   0  0  0  0  0  0  0  0  0  0  0  0
  148.8590  153.5990  132.6130 C   0  0  0  0  0  0  0  0  0  0  0  0
  149.2370  152.1870  132.5040 C   0  0  0  0  0  0  0  0  0  0  0  0
  150.6280  152.0540  132.6050 O   0  0  0  0  0  0  0  0  0  0  0  0
  146.8490  156.4910  133.1350 C   0  0  0  0  0  0  0  0  0  0  0  0
  146.5260  157.8510  133.2330 C   0  0  0  0  0  0  0  0  0  0  0  0
  145.3280  158.4110  133.5080 N   0  0  0  0  0  0  0  0  0  0  0  0
  144.0910  157.7130  133.7180 C   0  0  0  0  0  0  0  0  0  0  0  0
  143.9600  156.9560  134.7180 O   0  0  0  0  0  0  0  0  0  0  0  0
  143.0430  157.8680  132.8020 O   0  0  0  0  0  0  0  0  0  0  0  0
  141.7420  157.3150  132.9890 C   0  0  0  0  0  0  0  0  0  0  0  0
  140.7010  158.4200  133.1560 C   0  0  0  0  0  0  0  0  0  0  0  0
  140.8740  159.4010  132.1730 O   0  0  0  0  0  0  0  0  0  0  0  0
  142.8650  160.0080  132.6000 H   0  0  0  0  0  0  0  0  0  0  0  0
  147.3018  161.0367  132.9758 H   0  0  0  0  0  0  0  0  0  0  0  0
  149.5228  159.3040  132.4782 H   0  0  0  0  0  0  0  0  0  0  0  0
  150.1733  156.8761  132.3250 H   0  0  0  0  0  0  0  0  0  0  0  0
  148.7569  151.6179  133.3137 H   0  0  0  0  0  0  0  0  0  0  0  0
  148.9071  151.7992  131.5289 H   0  0  0  0  0  0  0  0  0  0  0  0
  151.0240  152.6890  131.9530 H   0  0  0  0  0  0  0  0  0  0  0  0
  146.0890  155.7150  133.3091 H   0  0  0  0  0  0  0  0  0  0  0  0
  141.4810  156.7033  132.1128 H   0  0  0  0  0  0  0  0  0  0  0  0
  141.7493  156.6974  133.8992 H   0  0  0  0  0  0  0  0  0  0  0  0
  139.6940  157.9871  133.0638 H   0  0  0  0  0  0  0  0  0  0  0  0
  140.8231  158.8806  134.1474 H   0  0  0  0  0  0  0  0  0  0  0  0
  141.8540  159.5020  132.0560 H   0  0  0  0  0  0  0  0  0  0  0  0
  1  2  1  0
  2  3  2  0
  2  4  1  0
  4  5  2  0
  5  6  1  0
  6  7  2  0
  7  8  1  0
  8  9  2  0
  9 10  1  0
 10 11  3  0
 11 12  1  0
 12 13  1  0
  9 14  1  0
 14 15  2  0
 15 16  1  0
 16 17  1  0
 17 18  2  0
 17 19  1  0
 19 20  1  0
 20 21  1  0
 21 22  1  0
 16  4  1  0
 15  6  1  0
  1 23  1  0
  5 24  1  0
  7 25  1  0
  8 26  1  0
 12 27  1  0
 12 28  1  0
 13 29  1  0
 14 30  1  0
 20 31  1  0
 20 32  1  0
 21 33  1  0
 21 34  1  0
 22 35  1  0
M  CHG  1   1  -1
M  END
>  <UniqueID>  (55) 
55

>  <SMILES>  (55) 
[NH-]C(=O)c1cc2ccc(C#CCO)cc2n1C(=O)OCCO

>  <Energy>  (55) 
66.21274441364143

>  <Genealogy>  (55) 
[NH-]C(=O)c1cc2ccc(C#CCO)cc2n1C(=O)OCCO (protonated)
[NH-]C(=O)c1cc2ccc(C#CCO)cc2n1C(=O)OCCO (3D coordinates assigned)
[NH-]C(=O)c1cc2ccc(C#CCO)cc2n1C(=O)OCCO (optimized conformer: 66.21274441364143 kcal/mol)

>  <smiles>  (55) 
NC(=O)c1cc2ccc(C#CCO)cc2n1C(=O)OCCO

>  <score_type>  (55) 
oracle

>  <origin>  (55) 
adg

>  <m_score__min__energy>  (55) 
-6.4100000000000001

>  <m_primary>  (55) 
energy

$$$$
56:0
     RDKit          3D

 38 41  0  0  1  0  0  0  0  0999 V2000
  138.2100  157.7290  133.7650 N   0  0  0  0  0  0  0  0  0  0  0  0
  139.0660  158.6500  133.1590 C   0  0  0  0  0  0  0  0  0  0  0  0
  138.4930  159.5250  132.4160 O   0  0  0  0  0  0  0  0  0  0  0  0
  140.5010  158.7420  133.2590 C   0  0  0  0  0  0  0  0  0  0  0  0
  141.1550  159.9650  133.4310 C   0  0  0  0  0  0  0  0  0  0  0  0
  142.5130  159.7560  133.4950 C   0  0  0  0  0  0  0  0  0  0  0  0
  143.5700  160.6270  133.6550 C   0  0  0  0  0  0  0  0  0  0  0  0
  144.8660  160.1630  133.6880 C   0  0  0  0  0  0  0  0  0  0  0  0
  145.0700  158.8080  133.5560 C   0  0  0  0  0  0  0  0  0  0  0  0
  146.4040  158.2900  133.5850 N   0  0  0  0  0  0  0  0  0  0  0  0
  146.6860  156.8660  133.4860 C   0  0  0  0  0  0  0  0  0  0  0  0
  148.1960  156.8500  133.4370 C   0  0  2  0  0  0  0  0  0  0  0  0
  148.4710  157.9530  134.4680 C   0  0  0  0  0  0  0  0  0  0  0  0
  147.6400  159.0010  133.7080 C   0  0  1  0  0  0  0  0  0  0  0  0
  148.3620  158.9270  132.3930 C   0  0  0  0  0  0  0  0  0  0  0  0
  148.5970  157.5000  132.2160 N   0  0  0  0  0  0  0  0  0  0  0  0
  143.9880  157.9420  133.3950 C   0  0  0  0  0  0  0  0  0  0  0  0
  142.6860  158.3840  133.3600 C   0  0  0  0  0  0  0  0  0  0  0  0
  141.4630  157.8060  133.2200 N   0  0  0  0  0  0  0  0  0  0  0  0
  141.3040  156.4130  133.0620 C   0  0  0  0  0  0  0  0  0  0  0  0
  140.1100  155.9630  132.9660 O   0  0  0  0  0  0  0  0  0  0  0  0
  142.2890  155.4700  132.9970 O   0  0  0  0  0  0  0  0  0  0  0  0
  137.8100  157.9580  134.7130 H   0  0  0  0  0  0  0  0  0  0  0  0
  137.9910  156.8440  133.2500 H   0  0  0  0  0  0  0  0  0  0  0  0
  140.6597  160.9445  133.5040 H   0  0  0  0  0  0  0  0  0  0  0  0
  143.3756  161.7048  133.7574 H   0  0  0  0  0  0  0  0  0  0  0  0
  145.7124  160.8539  133.8159 H   0  0  0  0  0  0  0  0  0  0  0  0
  146.3084  156.3214  134.3639 H   0  0  0  0  0  0  0  0  0  0  0  0
  146.2081  156.3771  132.6242 H   0  0  0  0  0  0  0  0  0  0  0  0
  148.6520  155.8563  133.5578 H   0  0  0  0  0  0  0  0  0  0  0  0
  148.0730  157.7235  135.4675 H   0  0  0  0  0  0  0  0  0  0  0  0
  149.5158  158.1909  134.7166 H   0  0  0  0  0  0  0  0  0  0  0  0
  147.5092  160.0217  134.0967 H   0  0  0  0  0  0  0  0  0  0  0  0
  147.7395  159.3272  131.5792 H   0  0  0  0  0  0  0  0  0  0  0  0
  149.2886  159.5197  132.3781 H   0  0  0  0  0  0  0  0  0  0  0  0
  147.9550  157.1130  131.4610 H   0  0  0  0  0  0  0  0  0  0  0  0
  144.1837  156.8645  133.2921 H   0  0  0  0  0  0  0  0  0  0  0  0
  142.8250  155.2370  132.1700 H   0  0  0  0  0  0  0  0  0  0  0  0
  1  2  1  0
  2  3  2  0
  2  4  1  0
  4  5  2  0
  5  6  1  0
  6  7  2  0
  7  8  1  0
  8  9  2  0
  9 10  1  0
 10 11  1  0
 11 12  1  0
 12 13  1  0
 13 14  1  0
 14 15  1  0
 15 16  1  0
  9 17  1  0
 17 18  2  0
 18 19  1  0
 19 20  1  0
 20 21  2  0
 20 22  1  0
 19  4  1  0
 18  6  1  0
 14 10  1  0
 16 12  1  0
  1 23  1  0
  1 24  1  0
  5 25  1  0
  7 26  1  0
  8 27  1  0
 11 28  1  0
 11 29  1  0
 12 30  1  1
 13 31  1  0
 13 32  1  0
 14 33  1  1
 15 34  1  0
 15 35  1  0
 16 36  1  0
 17 37  1  0
 22 38  1  0
M  END
>  <smiles>  (56) 
NC(=O)c1cc2ccc(N3CC4CC3CN4)cc2n1C(=O)O

>  <score_type>  (56) 
oracle

>  <origin>  (56) 
adg

>  <m_score__min__energy>  (56) 
-7.79

>  <m_primary>  (56) 
energy

$$$$
57:0
     RDKit          3D

 40 41  0  0  0  0  0  0  0  0999 V2000
  149.5040  158.5720  131.9100 C   0  0  0  0  0  0  0  0  0  0  0  0
  148.3930  157.7600  132.5670 C   0  0  0  0  0  0  0  0  0  0  0  0
  147.2700  158.6570  133.0130 C   0  0  0  0  0  0  0  0  0  0  0  0
  147.5310  160.0100  133.3460 C   0  0  0  0  0  0  0  0  0  0  0  0
  146.4830  160.8690  133.7190 C   0  0  0  0  0  0  0  0  0  0  0  0
  145.1920  160.3500  133.7490 C   0  0  0  0  0  0  0  0  0  0  0  0
  143.9960  160.9650  134.0420 C   0  0  0  0  0  0  0  0  0  0  0  0
  143.0250  159.9770  133.8920 C   0  0  0  0  0  0  0  0  0  0  0  0
  141.5940  160.1870  134.1890 C   0  0  0  0  0  0  0  0  0  0  0  0
  141.1350  160.1390  135.5390 N   0  0  0  0  0  0  0  0  0  0  0  0
  140.7620  160.3730  133.2610 O   0  0  0  0  0  0  0  0  0  0  0  0
  143.5980  158.7990  133.5150 N   0  0  0  0  0  0  0  0  0  0  0  0
  142.9420  157.5660  133.1790 C   0  0  0  0  0  0  0  0  0  0  0  0
  143.4590  156.7900  132.3320 O   0  0  0  0  0  0  0  0  0  0  0  0
  141.6890  157.2360  133.7900 N   0  0  0  0  0  0  0  0  0  0  0  0
  140.5610  156.6340  133.0850 C   0  0  1  0  0  0  0  0  0  0  0  0
  140.4850  155.1850  133.4720 C   0  0  0  0  0  0  0  0  0  0  0  0
  139.8660  154.3650  132.7430 O   0  0  0  0  0  0  0  0  0  0  0  0
  141.0830  154.7420  134.6460 O   0  0  0  0  0  0  0  0  0  0  0  0
  139.2490  157.3730  133.4480 C   0  0  2  0  0  0  0  0  0  0  0  0
  138.7740  158.3050  132.3220 C   0  0  0  0  0  0  0  0  0  0  0  0
  139.4000  158.1040  134.6390 O   0  0  0  0  0  0  0  0  0  0  0  0
  144.9250  159.0430  133.4340 C   0  0  0  0  0  0  0  0  0  0  0  0
  145.9450  158.1690  133.0430 C   0  0  0  0  0  0  0  0  0  0  0  0
  150.1319  159.0309  132.6879 H   0  0  0  0  0  0  0  0  0  0  0  0
  150.1207  157.9103  131.2841 H   0  0  0  0  0  0  0  0  0  0  0  0
  149.0608  159.3605  131.2841 H   0  0  0  0  0  0  0  0  0  0  0  0
  148.0047  157.0280  131.8435 H   0  0  0  0  0  0  0  0  0  0  0  0
  148.8050  157.2452  133.4475 H   0  0  0  0  0  0  0  0  0  0  0  0
  148.5624  160.3908  133.3122 H   0  0  0  0  0  0  0  0  0  0  0  0
  146.6773  161.9199  133.9794 H   0  0  0  0  0  0  0  0  0  0  0  0
  143.8398  162.0143  134.3330 H   0  0  0  0  0  0  0  0  0  0  0  0
  140.1810  159.7830  135.7690 H   0  0  0  0  0  0  0  0  0  0  0  0
  140.7006  156.7182  131.9972 H   0  0  0  0  0  0  0  0  0  0  0  0
  138.4801  156.5994  133.5905 H   0  0  0  0  0  0  0  0  0  0  0  0
  138.3157  159.2043  132.7592 H   0  0  0  0  0  0  0  0  0  0  0  0
  139.6334  158.5967  131.7004 H   0  0  0  0  0  0  0  0  0  0  0  0
  138.0330  157.7810  131.7004 H   0  0  0  0  0  0  0  0  0  0  0  0
  140.2200  158.6580  134.5490 H   0  0  0  0  0  0  0  0  0  0  0  0
  145.7208  157.1283  132.7660 H   0  0  0  0  0  0  0  0  0  0  0  0
  1  2  1  0
  2  3  1  0
  3  4  2  0
  4  5  1  0
  5  6  2  0
  6  7  1  0
  7  8  2  0
  8  9  1  0
  9 10  1  0
  9 11  2  0
  8 12  1  0
 12 13  1  0
 13 14  2  0
 13 15  1  0
 15 16  1  0
 16 17  1  0
 17 18  2  0
 17 19  1  0
 16 20  1  0
 20 21  1  0
 20 22  1  0
 12 23  1  0
 23 24  2  0
 24  3  1  0
 23  6  1  0
  1 25  1  0
  1 26  1  0
  1 27  1  0
  2 28  1  0
  2 29  1  0
  4 30  1  0
  5 31  1  0
  7 32  1  0
 10 33  1  0
 16 34  1  6
 20 35  1  1
 21 36  1  0
 21 37  1  0
 21 38  1  0
 22 39  1  0
 24 40  1  0
M  CHG  3  10  -1  15  -1  19  -1
M  END
>  <UniqueID>  (57) 
56

>  <SMILES>  (57) 
CCc1ccc2cc(C([NH-])=O)n(C(=O)[N-][C@@H](C(=O)[O-])[C@H](C)O)c2c1

>  <Energy>  (57) 
71.95645597517859

>  <Genealogy>  (57) 
CCc1ccc2cc(C([NH-])=O)n(C(=O)[N-]C(C(=O)[O-])C(C)O)c2c1 (protonated)
CCc1ccc2cc(C([NH-])=O)n(C(=O)[N-][C@@H](C(=O)[O-])[C@H](C)O)c2c1 (chirality)
CCc1ccc2cc(C([NH-])=O)n(C(=O)[N-][C@@H](C(=O)[O-])[C@H](C)O)c2c1 (3D coordinates assigned)
CCc1ccc2cc(C([NH-])=O)n(C(=O)[N-][C@@H](C(=O)[O-])[C@H](C)O)c2c1 (optimized conformer: 71.95645597517859 kcal/mol)

>  <smiles>  (57) 
CCc1ccc2cc(C(N)=O)n(C(=O)NC(C(=O)O)C(C)O)c2c1

>  <score_type>  (57) 
oracle

>  <origin>  (57) 
adg

>  <m_score__min__energy>  (57) 
-7

>  <m_primary>  (57) 
energy

$$$$
58:0
     RDKit          3D

 38 39  0  0  0  0  0  0  0  0999 V2000
  139.9340  158.3410  132.7850 C   0  0  0  0  0  0  0  0  0  0  0  0
  140.7920  158.4150  133.9750 N   0  0  0  0  0  0  0  0  0  0  0  0
  140.2160  158.0630  135.2810 C   0  0  0  0  0  0  0  0  0  0  0  0
  140.8260  158.8830  136.3800 C   0  0  0  0  0  0  0  0  0  0  0  0
  140.6320  160.1240  136.4220 O   0  0  0  0  0  0  0  0  0  0  0  0
  141.6550  158.2900  137.3250 O   0  0  0  0  0  0  0  0  0  0  0  0
  142.1760  158.8540  133.8570 C   0  0  0  0  0  0  0  0  0  0  0  0
  142.5010  160.2410  133.8920 C   0  0  0  0  0  0  0  0  0  0  0  0
  143.8330  160.6780  133.7990 C   0  0  0  0  0  0  0  0  0  0  0  0
  144.8300  159.7190  133.6860 C   0  0  0  0  0  0  0  0  0  0  0  0
  146.1890  159.8740  133.5550 C   0  0  0  0  0  0  0  0  0  0  0  0
  146.6990  158.5820  133.4750 C   0  0  0  0  0  0  0  0  0  0  0  0
  148.1390  158.3040  133.4030 C   0  0  0  0  0  0  0  0  0  0  0  0
  148.6050  156.9630  133.5370 N   0  0  0  0  0  0  0  0  0  0  0  0
  148.9540  159.2130  133.0850 O   0  0  0  0  0  0  0  0  0  0  0  0
  145.6960  157.6520  133.5370 N   0  0  0  0  0  0  0  0  0  0  0  0
  145.8080  156.2120  133.4820 C   0  0  0  0  0  0  0  0  0  0  0  0
  145.9900  155.6500  132.3650 O   0  0  0  0  0  0  0  0  0  0  0  0
  145.6570  155.3600  134.7200 C   0  0  0  0  0  0  0  0  0  0  0  0
  147.2410  154.6720  135.3320 P   0  0  0  0  0  0  0  0  0  0  0  0
  148.0710  155.7490  135.9890 O   0  0  0  0  0  0  0  0  0  0  0  0
  148.1100  154.0250  134.0290 O   0  0  0  0  0  0  0  0  0  0  0  0
  146.9500  153.4330  136.4500 O   0  0  0  0  0  0  0  0  0  0  0  0
  144.5520  158.3730  133.6650 C   0  0  0  0  0  0  0  0  0  0  0  0
  143.2290  157.9120  133.7260 C   0  0  0  0  0  0  0  0  0  0  0  0
  138.8828  158.2504  133.0960 H   0  0  0  0  0  0  0  0  0  0  0  0
  140.0612  159.2535  132.1840 H   0  0  0  0  0  0  0  0  0  0  0  0
  140.2155  157.4638  132.1840 H   0  0  0  0  0  0  0  0  0  0  0  0
  139.1316  158.2457  135.2562 H   0  0  0  0  0  0  0  0  0  0  0  0
  140.4252  157.0016  135.4801 H   0  0  0  0  0  0  0  0  0  0  0  0
  141.6949  160.9825  133.9936 H   0  0  0  0  0  0  0  0  0  0  0  0
  144.0788  161.7500  133.8153 H   0  0  0  0  0  0  0  0  0  0  0  0
  146.7531  160.8177  133.5207 H   0  0  0  0  0  0  0  0  0  0  0  0
  147.9600  156.1960  133.8370 H   0  0  0  0  0  0  0  0  0  0  0  0
  149.6100  156.7320  133.3720 H   0  0  0  0  0  0  0  0  0  0  0  0
  145.2151  155.9776  135.5158 H   0  0  0  0  0  0  0  0  0  0  0  0
  145.0170  154.5072  134.4495 H   0  0  0  0  0  0  0  0  0  0  0  0
  143.0106  156.8352  133.6730 H   0  0  0  0  0  0  0  0  0  0  0  0
  1  2  1  0
  2  3  1  0
  3  4  1  0
  4  5  2  0
  4  6  1  0
  2  7  1  0
  7  8  2  0
  8  9  1  0
  9 10  2  0
 10 11  1  0
 11 12  2  0
 12 13  1  0
 13 14  1  0
 13 15  2  0
 12 16  1  0
 16 17  1  0
 17 18  2  0
 17 19  1  0
 19 20  1  0
 20 21  2  0
 20 22  1  0
 20 23  1  0
 16 24  1  0
 24 25  2  0
 25  7  1  0
 24 10  1  0
  1 26  1  0
  1 27  1  0
  1 28  1  0
  3 29  1  0
  3 30  1  0
  8 31  1  0
  9 32  1  0
 11 33  1  0
 14 34  1  0
 14 35  1  0
 19 36  1  0
 19 37  1  0
 25 38  1  0
M  CHG  3   6  -1  22  -1  23  -1
M  END
>  <UniqueID>  (58) 
57

>  <SMILES>  (58) 
CN(CC(=O)[O-])c1ccc2cc(C(N)=O)n(C(=O)CP(=O)([O-])[O-])c2c1

>  <Energy>  (58) 
78.98447654333104

>  <Genealogy>  (58) 
CN(CC(=O)[O-])c1ccc2cc(C(N)=O)n(C(=O)CP(=O)([O-])[O-])c2c1 (protonated)
CN(CC(=O)[O-])c1ccc2cc(C(N)=O)n(C(=O)CP(=O)([O-])[O-])c2c1 (3D coordinates assigned)
CN(CC(=O)[O-])c1ccc2cc(C(N)=O)n(C(=O)CP(=O)([O-])[O-])c2c1 (optimized conformer: 78.98447654333104 kcal/mol)

>  <smiles>  (58) 
CN(CC(=O)O)c1ccc2cc(C(N)=O)n(C(=O)CP(=O)(O)O)c2c1

>  <score_type>  (58) 
oracle

>  <origin>  (58) 
adg

>  <m_score__min__energy>  (58) 
-6.7300000000000004

>  <m_primary>  (58) 
energy

$$$$
59:0
     RDKit          3D

 49 52  0  0  0  0  0  0  0  0999 V2000
  141.8350  161.1580  133.4550 N   0  0  0  0  0  0  0  0  0  0  0  0
  143.1020  160.5750  133.7520 C   0  0  0  0  0  0  0  0  0  0  0  0
  144.0550  161.3170  134.1070 O   0  0  0  0  0  0  0  0  0  0  0  0
  143.2690  159.1070  133.6810 C   0  0  0  0  0  0  0  0  0  0  0  0
  144.5110  158.4770  133.6550 C   0  0  0  0  0  0  0  0  0  0  0  0
  144.2370  157.1380  133.4930 C   0  0  0  0  0  0  0  0  0  0  0  0
  145.1030  156.0520  133.4070 C   0  0  0  0  0  0  0  0  0  0  0  0
  144.5420  154.7730  133.2620 C   0  0  0  0  0  0  0  0  0  0  0  0
  143.1340  154.5960  133.2120 C   0  0  0  0  0  0  0  0  0  0  0  0
  142.5510  153.2390  133.0690 C   0  0  0  0  0  0  0  0  0  0  0  0
  141.1570  153.0620  132.9990 C   0  0  0  0  0  0  0  0  0  0  0  0
  140.6100  151.7830  132.8720 C   0  0  0  0  0  0  0  0  0  0  0  0
  141.4430  150.6540  132.8230 C   0  0  0  0  0  0  0  0  0  0  0  0
  140.8500  149.3080  132.6850 C   0  0  0  0  0  0  0  0  0  0  0  0
  141.5960  148.2980  132.7760 O   0  0  0  0  0  0  0  0  0  0  0  0
  139.4560  149.1130  132.4110 N   0  0  0  0  0  0  0  0  0  0  0  0
  138.8450  149.2540  131.0940 C   0  0  0  0  0  0  0  0  0  0  0  0
  138.8060  147.9450  130.3270 C   0  0  0  0  0  0  0  0  0  0  0  0
  139.8060  149.0230  129.9410 C   0  0  0  0  0  0  0  0  0  0  0  0
  142.8340  150.8290  132.8680 C   0  0  0  0  0  0  0  0  0  0  0  0
  143.3840  152.1080  132.9960 C   0  0  0  0  0  0  0  0  0  0  0  0
  142.2900  155.7290  133.3040 C   0  0  0  0  0  0  0  0  0  0  0  0
  142.8760  156.9930  133.4300 C   0  0  0  0  0  0  0  0  0  0  0  0
  142.2660  158.1930  133.5470 N   0  0  0  0  0  0  0  0  0  0  0  0
  140.8500  158.4260  133.5780 C   0  0  0  0  0  0  0  0  0  0  0  0
  140.3310  159.0140  134.5650 O   0  0  0  0  0  0  0  0  0  0  0  0
  140.0500  157.9730  132.5220 O   0  0  0  0  0  0  0  0  0  0  0  0
  138.6880  158.3610  132.3440 C   0  0  0  0  0  0  0  0  0  0  0  0
  138.5890  159.6700  131.5580 C   0  0  0  0  0  0  0  0  0  0  0  0
  139.4360  160.6400  132.1120 O   0  0  0  0  0  0  0  0  0  0  0  0
  140.9490  160.6340  133.6290 H   0  0  0  0  0  0  0  0  0  0  0  0
  145.5004  158.9492  133.7448 H   0  0  0  0  0  0  0  0  0  0  0  0
  146.1932  156.1913  133.4513 H   0  0  0  0  0  0  0  0  0  0  0  0
  145.2021  153.8964  133.1861 H   0  0  0  0  0  0  0  0  0  0  0  0
  140.4927  153.9376  133.0446 H   0  0  0  0  0  0  0  0  0  0  0  0
  139.5187  151.6595  132.8099 H   0  0  0  0  0  0  0  0  0  0  0  0
  138.1193  150.0400  131.3499 H   0  0  0  0  0  0  0  0  0  0  0  0
  139.1543  147.0172  130.8044 H   0  0  0  0  0  0  0  0  0  0  0  0
  138.0282  147.3787  129.7939 H   0  0  0  0  0  0  0  0  0  0  0  0
  140.8779  148.8756  130.1392 H   0  0  0  0  0  0  0  0  0  0  0  0
  140.0518  149.5603  129.0131 H   0  0  0  0  0  0  0  0  0  0  0  0
  143.4969  149.9536  132.8021 H   0  0  0  0  0  0  0  0  0  0  0  0
  144.4763  152.2307  133.0399 H   0  0  0  0  0  0  0  0  0  0  0  0
  141.1960  155.6177  133.2770 H   0  0  0  0  0  0  0  0  0  0  0  0
  138.1576  157.5699  131.7936 H   0  0  0  0  0  0  0  0  0  0  0  0
  138.2342  158.5119  133.3346 H   0  0  0  0  0  0  0  0  0  0  0  0
  138.8814  159.4881  130.5133 H   0  0  0  0  0  0  0  0  0  0  0  0
  137.5523  160.0349  131.6033 H   0  0  0  0  0  0  0  0  0  0  0  0
  140.0400  160.1660  132.7410 H   0  0  0  0  0  0  0  0  0  0  0  0
  1  2  1  0
  2  3  2  0
  2  4  1  0
  4  5  2  0
  5  6  1  0
  6  7  2  0
  7  8  1  0
  8  9  2  0
  9 10  1  0
 10 11  2  0
 11 12  1  0
 12 13  2  0
 13 14  1  0
 14 15  2  0
 14 16  1  0
 16 17  1  0
 17 18  1  0
 18 19  1  0
 13 20  1  0
 20 21  2  0
  9 22  1  0
 22 23  2  0
 23 24  1  0
 24 25  1  0
 25 26  2  0
 25 27  1  0
 27 28  1  0
 28 29  1  0
 29 30  1  0
 24  4  1  0
 23  6  1  0
 21 10  1  0
 19 17  1  0
  1 31  1  0
  5 32  1  0
  7 33  1  0
  8 34  1  0
 11 35  1  0
 12 36  1  0
 17 37  1  0
 18 38  1  0
 18 39  1  0
 19 40  1  0
 19 41  1  0
 20 42  1  0
 21 43  1  0
 22 44  1  0
 28 45  1  0
 28 46  1  0
 29 47  1  0
 29 48  1  0
 30 49  1  0
M  CHG  2   1  -1  16  -1
M  END
>  <UniqueID>  (59) 
58

>  <SMILES>  (59) 
[NH-]C(=O)c1cc2ccc(-c3ccc(C(=O)[N-]C4CC4)cc3)cc2n1C(=O)OCCO

>  <Energy>  (59) 
360.7273448407601

>  <Genealogy>  (59) 
[NH-]C(=O)c1cc2ccc(-c3ccc(C(=O)[N-]C4CC4)cc3)cc2n1C(=O)OCCO (protonated)
[NH-]C(=O)c1cc2ccc(-c3ccc(C(=O)[N-]C4CC4)cc3)cc2n1C(=O)OCCO (3D coordinates assigned)
[NH-]C(=O)c1cc2ccc(-c3ccc(C(=O)[N-]C4CC4)cc3)cc2n1C(=O)OCCO (nonaromatic ring conformer: 360.7273448407601 kcal/mol)

>  <smiles>  (59) 
NC(=O)c1cc2ccc(-c3ccc(C(=O)NC4CC4)cc3)cc2n1C(=O)OCCO

>  <score_type>  (59) 
oracle

>  <origin>  (59) 
adg

>  <m_score__min__energy>  (59) 
-8.5199999999999996

>  <m_primary>  (59) 
energy

$$$$
61:0
     RDKit          3D

 45 48  0  0  0  0  0  0  0  0999 V2000
  143.2790  156.8740  132.5170 N   0  0  0  0  0  0  0  0  0  0  0  0
  143.6810  155.8230  133.3930 C   0  0  0  0  0  0  0  0  0  0  0  0
  144.4590  156.0840  134.3480 O   0  0  0  0  0  0  0  0  0  0  0  0
  143.2260  154.4320  133.1780 C   0  0  0  0  0  0  0  0  0  0  0  0
  144.0940  153.3570  132.9940 C   0  0  0  0  0  0  0  0  0  0  0  0
  143.2840  152.2630  132.7970 C   0  0  0  0  0  0  0  0  0  0  0  0
  143.6170  150.9260  132.6030 C   0  0  0  0  0  0  0  0  0  0  0  0
  142.5690  149.9980  132.4770 C   0  0  0  0  0  0  0  0  0  0  0  0
  141.2150  150.4190  132.5360 C   0  0  0  0  0  0  0  0  0  0  0  0
  140.0930  149.4140  132.4630 C   0  0  0  0  0  0  0  0  0  0  0  0
  138.9250  150.0290  132.0450 F   0  0  0  0  0  0  0  0  0  0  0  0
  140.3930  148.4000  131.5700 F   0  0  0  0  0  0  0  0  0  0  0  0
  139.8900  148.8650  133.7150 F   0  0  0  0  0  0  0  0  0  0  0  0
  140.9200  151.7830  132.7630 C   0  0  0  0  0  0  0  0  0  0  0  0
  141.9840  152.6870  132.8640 C   0  0  0  0  0  0  0  0  0  0  0  0
  141.9310  154.0160  133.0930 N   0  0  0  0  0  0  0  0  0  0  0  0
  140.7420  154.7960  133.2840 C   0  0  0  0  0  0  0  0  0  0  0  0
  139.7060  154.5280  132.6180 O   0  0  0  0  0  0  0  0  0  0  0  0
  140.7080  155.9070  134.2990 C   0  0  0  0  0  0  0  0  0  0  0  0
  140.9160  157.2260  133.6490 N   0  0  1  0  0  0  0  0  0  0  0  0
  139.7990  157.7220  132.8360 C   0  0  2  0  0  0  0  0  0  0  0  0
  140.2650  159.1240  132.4020 C   0  0  0  0  0  0  0  0  0  0  0  0
  141.1780  159.5690  133.5470 C   0  0  0  0  0  0  0  0  0  0  0  0
  141.1280  158.3840  134.5270 C   0  0  1  0  0  0  0  0  0  0  0  0
  139.9180  158.5740  135.4970 C   0  0  0  0  0  0  0  0  0  0  0  0
  138.7280  157.8970  135.1050 O   0  0  0  0  0  0  0  0  0  0  0  0
  138.5050  157.8510  133.7000 C   0  0  0  0  0  0  0  0  0  0  0  0
  142.4790  156.7500  131.8590 H   0  0  0  0  0  0  0  0  0  0  0  0
  145.1937  153.3789  133.0042 H   0  0  0  0  0  0  0  0  0  0  0  0
  144.6679  150.6053  132.5499 H   0  0  0  0  0  0  0  0  0  0  0  0
  142.8010  148.9327  132.3309 H   0  0  0  0  0  0  0  0  0  0  0  0
  139.8791  152.1257  132.8580 H   0  0  0  0  0  0  0  0  0  0  0  0
  139.7303  155.9043  134.8032 H   0  0  0  0  0  0  0  0  0  0  0  0
  141.5164  155.7427  135.0267 H   0  0  0  0  0  0  0  0  0  0  0  0
  141.7470  157.1230  133.0130 H   0  0  0  0  0  0  0  0  0  0  0  0
  139.5598  157.0545  131.9951 H   0  0  0  0  0  0  0  0  0  0  0  0
  140.8192  159.0776  131.4529 H   0  0  0  0  0  0  0  0  0  0  0  0
  139.4293  159.8175  132.2269 H   0  0  0  0  0  0  0  0  0  0  0  0
  142.2038  159.7397  133.1884 H   0  0  0  0  0  0  0  0  0  0  0  0
  140.8602  160.5174  134.0047 H   0  0  0  0  0  0  0  0  0  0  0  0
  142.0281  158.2791  135.1505 H   0  0  0  0  0  0  0  0  0  0  0  0
  140.2128  158.2017  136.4892 H   0  0  0  0  0  0  0  0  0  0  0  0
  139.6805  159.6480  135.4902 H   0  0  0  0  0  0  0  0  0  0  0  0
  137.8614  156.9856  133.4837 H   0  0  0  0  0  0  0  0  0  0  0  0
  138.0452  158.8124  133.4276 H   0  0  0  0  0  0  0  0  0  0  0  0
  1  2  1  0
  2  3  2  0
  2  4  1  0
  4  5  2  0
  5  6  1  0
  6  7  2  0
  7  8  1  0
  8  9  2  0
  9 10  1  0
 10 11  1  0
 10 12  1  0
 10 13  1  0
  9 14  1  0
 14 15  2  0
 15 16  1  0
 16 17  1  0
 17 18  2  0
 17 19  1  0
 19 20  1  0
 20 21  1  0
 21 22  1  0
 22 23  1  0
 23 24  1  0
 24 25  1  0
 25 26  1  0
 26 27  1  0
 16  4  1  0
 24 20  1  0
 15  6  1  0
 27 21  1  0
  1 28  1  0
  5 29  1  0
  7 30  1  0
  8 31  1  0
 14 32  1  0
 19 33  1  0
 19 34  1  0
 20 35  1  6
 21 36  1  6
 22 37  1  0
 22 38  1  0
 23 39  1  0
 23 40  1  0
 24 41  1  1
 25 42  1  0
 25 43  1  0
 27 44  1  0
 27 45  1  0
M  CHG  2   1  -1  20   1
M  END
>  <UniqueID>  (60) 
59

>  <SMILES>  (60) 
[NH-]C(=O)c1cc2ccc(C(F)(F)F)cc2n1C(=O)C[NH+]1[C@@H]2CC[C@H]1COC2

>  <Energy>  (60) 
119.9995475445624

>  <Genealogy>  (60) 
[NH-]C(=O)c1cc2ccc(C(F)(F)F)cc2n1C(=O)C[NH+]1C2CCC1COC2 (protonated)
[NH-]C(=O)c1cc2ccc(C(F)(F)F)cc2n1C(=O)C[NH+]1[C@@H]2CC[C@H]1COC2 (chirality)
[NH-]C(=O)c1cc2ccc(C(F)(F)F)cc2n1C(=O)C[NH+]1[C@@H]2CC[C@H]1COC2 (3D coordinates assigned)
[NH-]C(=O)c1cc2ccc(C(F)(F)F)cc2n1C(=O)C[NH+]1[C@@H]2CC[C@H]1COC2 (nonaromatic ring conformer: 119.9995475445624 kcal/mol)

>  <smiles>  (60) 
NC(=O)c1cc2ccc(C(F)(F)F)cc2n1C(=O)CN1C2CCC1COC2

>  <score_type>  (60) 
oracle

>  <origin>  (60) 
adg

>  <m_score__min__energy>  (60) 
-6.3099999999999996

>  <m_primary>  (60) 
energy

$$$$
62:0
     RDKit          3D

 66 67  0  0  0  0  0  0  0  0999 V2000
  143.0310  149.5550  131.8710 C   0  0  0  0  0  0  0  0  0  0  0  0
  141.7730  150.1170  132.3700 N   0  0  0  0  0  0  0  0  0  0  0  0
  141.5690  151.5740  132.4240 C   0  0  0  0  0  0  0  0  0  0  0  0
  141.9010  152.1560  133.8130 C   0  0  0  0  0  0  0  0  0  0  0  0
  142.4830  153.5810  133.7800 C   0  0  0  0  0  0  0  0  0  0  0  0
  143.0800  153.9160  132.4750 N   0  0  0  0  0  0  0  0  0  0  0  0
  144.3430  154.5900  132.6530 C   0  0  0  0  0  0  0  0  0  0  0  0
  145.5560  153.8530  132.6190 C   0  0  0  0  0  0  0  0  0  0  0  0
  146.7930  154.5010  132.7650 C   0  0  0  0  0  0  0  0  0  0  0  0
  146.7900  155.8790  132.9560 C   0  0  0  0  0  0  0  0  0  0  0  0
  147.8400  156.7560  133.1080 C   0  0  0  0  0  0  0  0  0  0  0  0
  147.2540  158.0110  133.2620 C   0  0  0  0  0  0  0  0  0  0  0  0
  148.0270  159.2430  133.5340 C   0  0  0  0  0  0  0  0  0  0  0  0
  147.8490  160.3890  132.7060 N   0  0  0  0  0  0  0  0  0  0  0  0
  148.8700  159.2850  134.4680 O   0  0  0  0  0  0  0  0  0  0  0  0
  145.8970  157.9150  133.2020 N   0  0  0  0  0  0  0  0  0  0  0  0
  144.9310  158.9740  133.2860 C   0  0  0  0  0  0  0  0  0  0  0  0
  145.2670  160.0850  133.7740 O   0  0  0  0  0  0  0  0  0  0  0  0
  143.6180  158.7500  132.8410 O   0  0  0  0  0  0  0  0  0  0  0  0
  142.4190  158.9510  133.6040 C   0  0  0  0  0  0  0  0  0  0  0  0
  142.1300  160.4550  133.7760 C   0  0  0  0  0  0  0  0  0  0  0  0
  142.5260  158.2590  134.9760 C   0  0  0  0  0  0  0  0  0  0  0  0
  141.2660  158.3110  132.8130 C   0  0  0  0  0  0  0  0  0  0  0  0
  145.6290  156.6040  133.0120 C   0  0  0  0  0  0  0  0  0  0  0  0
  144.3830  155.9910  132.8410 C   0  0  0  0  0  0  0  0  0  0  0  0
  140.7040  149.2150  132.7030 C   0  0  0  0  0  0  0  0  0  0  0  0
  140.1450  149.2910  133.8310 O   0  0  0  0  0  0  0  0  0  0  0  0
  140.3020  148.2470  131.7670 O   0  0  0  0  0  0  0  0  0  0  0  0
  139.4260  148.4610  130.6510 C   0  0  0  0  0  0  0  0  0  0  0  0
  140.1410  149.2660  129.5470 C   0  0  0  0  0  0  0  0  0  0  0  0
  138.1380  149.1800  131.1010 C   0  0  0  0  0  0  0  0  0  0  0  0
  139.0530  147.0780  130.0950 C   0  0  0  0  0  0  0  0  0  0  0  0
  143.6682  149.2703  132.7213 H   0  0  0  0  0  0  0  0  0  0  0  0
  142.8182  148.6664  131.2586 H   0  0  0  0  0  0  0  0  0  0  0  0
  143.5509  150.3064  131.2586 H   0  0  0  0  0  0  0  0  0  0  0  0
  142.2186  152.0509  131.6753 H   0  0  0  0  0  0  0  0  0  0  0  0
  140.5073  151.7749  132.2179 H   0  0  0  0  0  0  0  0  0  0  0  0
  140.9763  152.1752  134.4085 H   0  0  0  0  0  0  0  0  0  0  0  0
  142.6766  151.5089  134.2486 H   0  0  0  0  0  0  0  0  0  0  0  0
  141.6755  154.2970  133.9929 H   0  0  0  0  0  0  0  0  0  0  0  0
  143.2802  153.6343  134.5361 H   0  0  0  0  0  0  0  0  0  0  0  0
  142.4380  154.5590  131.9600 H   0  0  0  0  0  0  0  0  0  0  0  0
  143.2120  153.0510  131.9010 H   0  0  0  0  0  0  0  0  0  0  0  0
  145.5264  152.7626  132.4768 H   0  0  0  0  0  0  0  0  0  0  0  0
  147.7362  153.9361  132.7294 H   0  0  0  0  0  0  0  0  0  0  0  0
  148.9137  156.5170  133.1079 H   0  0  0  0  0  0  0  0  0  0  0  0
  146.9180  160.8550  132.6250 H   0  0  0  0  0  0  0  0  0  0  0  0
  142.0831  160.6992  134.8475 H   0  0  0  0  0  0  0  0  0  0  0  0
  142.9323  161.0391  133.3016 H   0  0  0  0  0  0  0  0  0  0  0  0
  141.1683  160.7002  133.3016 H   0  0  0  0  0  0  0  0  0  0  0  0
  142.4103  159.0072  135.7740 H   0  0  0  0  0  0  0  0  0  0  0  0
  141.7344  157.5006  135.0669 H   0  0  0  0  0  0  0  0  0  0  0  0
  143.5096  157.7751  135.0669 H   0  0  0  0  0  0  0  0  0  0  0  0
  140.5247  157.8995  133.5138 H   0  0  0  0  0  0  0  0  0  0  0  0
  140.7884  159.0731  132.1797 H   0  0  0  0  0  0  0  0  0  0  0  0
  141.6602  157.5026  132.1797 H   0  0  0  0  0  0  0  0  0  0  0  0
  143.4569  156.5845  132.8525 H   0  0  0  0  0  0  0  0  0  0  0  0
  140.8041  150.0125  130.0086 H   0  0  0  0  0  0  0  0  0  0  0  0
  140.7360  148.5834  128.9224 H   0  0  0  0  0  0  0  0  0  0  0  0
  139.3930  149.7763  128.9224 H   0  0  0  0  0  0  0  0  0  0  0  0
  138.0960  149.2034  132.1999 H   0  0  0  0  0  0  0  0  0  0  0  0
  138.1374  150.2089  130.7120 H   0  0  0  0  0  0  0  0  0  0  0  0
  137.2619  148.6405  130.7120 H   0  0  0  0  0  0  0  0  0  0  0  0
  138.8663  146.3857  130.9291 H   0  0  0  0  0  0  0  0  0  0  0  0
  138.1457  147.1630  129.4789 H   0  0  0  0  0  0  0  0  0  0  0  0
  139.8800  146.6953  129.4789 H   0  0  0  0  0  0  0  0  0  0  0  0
  1  2  1  0
  2  3  1  0
  3  4  1  0
  4  5  1  0
  5  6  1  0
  6  7  1  0
  7  8  2  0
  8  9  1  0
  9 10  2  0
 10 11  1  0
 11 12  2  0
 12 13  1  0
 13 14  1  0
 13 15  2  0
 12 16  1  0
 16 17  1  0
 17 18  2  0
 17 19  1  0
 19 20  1  0
 20 21  1  0
 20 22  1  0
 20 23  1  0
 16 24  1  0
 24 25  2  0
  2 26  1  0
 26 27  2  0
 26 28  1  0
 28 29  1  0
 29 30  1  0
 29 31  1  0
 29 32  1  0
 25  7  1  0
 24 10  1  0
  1 33  1  0
  1 34  1  0
  1 35  1  0
  3 36  1  0
  3 37  1  0
  4 38  1  0
  4 39  1  0
  5 40  1  0
  5 41  1  0
  6 42  1  0
  6 43  1  0
  8 44  1  0
  9 45  1  0
 11 46  1  0
 14 47  1  0
 21 48  1  0
 21 49  1  0
 21 50  1  0
 22 51  1  0
 22 52  1  0
 22 53  1  0
 23 54  1  0
 23 55  1  0
 23 56  1  0
 25 57  1  0
 30 58  1  0
 30 59  1  0
 30 60  1  0
 31 61  1  0
 31 62  1  0
 31 63  1  0
 32 64  1  0
 32 65  1  0
 32 66  1  0
M  CHG  2   6   1  14  -1
M  END
>  <UniqueID>  (61) 
60

>  <SMILES>  (61) 
CN(CCC[NH2+]c1ccc2cc(C([NH-])=O)n(C(=O)OC(C)(C)C)c2c1)C(=O)OC(C)(C)C

>  <Energy>  (61) 
90.62670190767527

>  <Genealogy>  (61) 
CN(CCC[NH2+]c1ccc2cc(C([NH-])=O)n(C(=O)OC(C)(C)C)c2c1)C(=O)OC(C)(C)C (protonated)
CN(CCC[NH2+]c1ccc2cc(C([NH-])=O)n(C(=O)OC(C)(C)C)c2c1)C(=O)OC(C)(C)C (3D coordinates assigned)
CN(CCC[NH2+]c1ccc2cc(C([NH-])=O)n(C(=O)OC(C)(C)C)c2c1)C(=O)OC(C)(C)C (optimized conformer: 90.62670190767527 kcal/mol)

>  <smiles>  (61) 
CN(CCCNc1ccc2cc(C(N)=O)n(C(=O)OC(C)(C)C)c2c1)C(=O)OC(C)(C)C

>  <score_type>  (61) 
oracle

>  <origin>  (61) 
adg

>  <m_score__min__energy>  (61) 
-8.2799999999999994

>  <m_primary>  (61) 
energy

$$$$
63:0
     RDKit          3D

 54 56  0  0  0  0  0  0  0  0999 V2000
  137.9150  160.1300  130.1970 C   0  0  0  0  0  0  0  0  0  0  0  0
  139.1450  160.3100  130.8910 O   0  0  0  0  0  0  0  0  0  0  0  0
  139.5270  159.5850  132.0290 C   0  0  0  0  0  0  0  0  0  0  0  0
  138.8850  158.3700  132.2900 C   0  0  0  0  0  0  0  0  0  0  0  0
  139.2270  157.6100  133.4140 C   0  0  0  0  0  0  0  0  0  0  0  0
  140.2250  158.0560  134.2980 C   0  0  0  0  0  0  0  0  0  0  0  0
  140.5880  157.2530  135.4950 C   0  0  0  0  0  0  0  0  0  0  0  0
  139.9100  157.4550  136.7270 C   0  0  0  0  0  0  0  0  0  0  0  0
  140.2280  156.6840  137.8580 C   0  0  0  0  0  0  0  0  0  0  0  0
  141.2310  155.7280  137.7350 C   0  0  0  0  0  0  0  0  0  0  0  0
  141.7160  154.8270  138.6570 C   0  0  0  0  0  0  0  0  0  0  0  0
  142.6990  154.1030  137.9830 C   0  0  0  0  0  0  0  0  0  0  0  0
  143.5120  153.0390  138.6120 C   0  0  0  0  0  0  0  0  0  0  0  0
  144.9290  153.0200  138.4750 N   0  0  0  0  0  0  0  0  0  0  0  0
  142.9480  152.1440  139.2950 O   0  0  0  0  0  0  0  0  0  0  0  0
  142.8150  154.5430  136.6990 N   0  0  0  0  0  0  0  0  0  0  0  0
  143.6840  154.0370  135.6780 C   0  0  0  0  0  0  0  0  0  0  0  0
  144.9330  154.0920  135.8380 O   0  0  0  0  0  0  0  0  0  0  0  0
  143.1190  153.5200  134.3910 C   0  0  0  0  0  0  0  0  0  0  0  0
  144.1860  152.8800  133.6130 N   0  0  0  0  0  0  0  0  0  0  0  0
  144.7890  153.8180  132.6600 C   0  0  0  0  0  0  0  0  0  0  0  0
  146.1340  154.2640  133.1510 C   0  0  0  0  0  0  0  0  0  0  0  0
  146.6930  155.2610  132.6180 O   0  0  0  0  0  0  0  0  0  0  0  0
  146.7730  153.5570  134.2230 N   0  0  0  0  0  0  0  0  0  0  0  0
  148.0830  153.9330  134.7530 C   0  0  0  0  0  0  0  0  0  0  0  0
  148.0750  153.8870  136.2770 C   0  0  0  0  0  0  0  0  0  0  0  0
  147.0850  153.0040  136.7260 O   0  0  0  0  0  0  0  0  0  0  0  0
  141.9090  155.5330  136.5620 C   0  0  0  0  0  0  0  0  0  0  0  0
  141.6040  156.2710  135.4140 C   0  0  0  0  0  0  0  0  0  0  0  0
  140.8710  159.2770  134.0340 C   0  0  0  0  0  0  0  0  0  0  0  0
  140.5260  160.0350  132.9120 C   0  0  0  0  0  0  0  0  0  0  0  0
  137.0980  160.0105  130.9238 H   0  0  0  0  0  0  0  0  0  0  0  0
  137.7183  161.0089  129.5655 H   0  0  0  0  0  0  0  0  0  0  0  0
  137.9784  159.2316  129.5655 H   0  0  0  0  0  0  0  0  0  0  0  0
  138.1038  158.0085  131.6051 H   0  0  0  0  0  0  0  0  0  0  0  0
  138.7117  156.6575  133.6071 H   0  0  0  0  0  0  0  0  0  0  0  0
  139.1267  158.2242  136.7964 H   0  0  0  0  0  0  0  0  0  0  0  0
  139.6999  156.8319  138.8115 H   0  0  0  0  0  0  0  0  0  0  0  0
  141.3961  154.7046  139.7023 H   0  0  0  0  0  0  0  0  0  0  0  0
  145.4280  153.7540  137.9250 H   0  0  0  0  0  0  0  0  0  0  0  0
  142.3297  152.7846  134.6058 H   0  0  0  0  0  0  0  0  0  0  0  0
  142.6938  154.3548  133.8145 H   0  0  0  0  0  0  0  0  0  0  0  0
  144.9330  152.5810  134.2830 H   0  0  0  0  0  0  0  0  0  0  0  0
  144.9046  153.3213  131.6854 H   0  0  0  0  0  0  0  0  0  0  0  0
  144.1348  154.6966  132.5592 H   0  0  0  0  0  0  0  0  0  0  0  0
  146.2480  152.7940  134.7070 H   0  0  0  0  0  0  0  0  0  0  0  0
  148.8417  153.2327  134.3736 H   0  0  0  0  0  0  0  0  0  0  0  0
  148.3174  154.9577  134.4290 H   0  0  0  0  0  0  0  0  0  0  0  0
  149.0571  153.5456  136.6360 H   0  0  0  0  0  0  0  0  0  0  0  0
  147.8636  154.8937  136.6668 H   0  0  0  0  0  0  0  0  0  0  0  0
  146.2910  153.5650  136.9280 H   0  0  0  0  0  0  0  0  0  0  0  0
  142.1409  156.0926  134.4706 H   0  0  0  0  0  0  0  0  0  0  0  0
  141.6544  159.6383  134.7165 H   0  0  0  0  0  0  0  0  0  0  0  0
  141.0382  160.9889  132.7179 H   0  0  0  0  0  0  0  0  0  0  0  0
  1  2  1  0
  2  3  1  0
  3  4  2  0
  4  5  1  0
  5  6  2  0
  6  7  1  0
  7  8  2  0
  8  9  1  0
  9 10  2  0
 10 11  1  0
 11 12  2  0
 12 13  1  0
 13 14  1  0
 13 15  2  0
 12 16  1  0
 16 17  1  0
 17 18  2  0
 17 19  1  0
 19 20  1  0
 20 21  1  0
 21 22  1  0
 22 23  2  0
 22 24  1  0
 24 25  1  0
 25 26  1  0
 26 27  1  0
 16 28  1  0
 28 29  2  0
  6 30  1  0
 30 31  2  0
 31  3  1  0
 29  7  1  0
 28 10  1  0
  1 32  1  0
  1 33  1  0
  1 34  1  0
  4 35  1  0
  5 36  1  0
  8 37  1  0
  9 38  1  0
 11 39  1  0
 14 40  1  0
 19 41  1  0
 19 42  1  0
 20 43  1  0
 21 44  1  0
 21 45  1  0
 24 46  1  0
 25 47  1  0
 25 48  1  0
 26 49  1  0
 26 50  1  0
 27 51  1  0
 29 52  1  0
 30 53  1  0
 31 54  1  0
M  CHG  1  14  -1
M  END
>  <UniqueID>  (62) 
61

>  <SMILES>  (62) 
COc1ccc(-c2ccc3cc(C([NH-])=O)n(C(=O)CNCC(=O)NCCO)c3c2)cc1

>  <Energy>  (62) 
93.34355948799636

>  <Genealogy>  (62) 
COc1ccc(-c2ccc3cc(C([NH-])=O)n(C(=O)CNCC(=O)NCCO)c3c2)cc1 (protonated)
COc1ccc(-c2ccc3cc(C([NH-])=O)n(C(=O)CNCC(=O)NCCO)c3c2)cc1 (3D coordinates assigned)
COc1ccc(-c2ccc3cc(C([NH-])=O)n(C(=O)CNCC(=O)NCCO)c3c2)cc1 (optimized conformer: 93.34355948799636 kcal/mol)

>  <smiles>  (62) 
COc1ccc(-c2ccc3cc(C(N)=O)n(C(=O)CNCC(=O)NCCO)c3c2)cc1

>  <score_type>  (62) 
oracle

>  <origin>  (62) 
adg

>  <m_score__min__energy>  (62) 
-7.5599999999999996

>  <m_primary>  (62) 
energy

$$$$
64:0
     RDKit          3D

 43 44  0  0  0  0  0  0  0  0999 V2000
  150.3760  150.7290  132.0770 C   0  0  0  0  0  0  0  0  0  0  0  0
  149.4630  151.5930  132.9400 C   0  0  0  0  0  0  0  0  0  0  0  0
  148.4210  152.1670  132.1530 O   0  0  0  0  0  0  0  0  0  0  0  0
  147.2860  152.7760  132.7020 C   0  0  0  0  0  0  0  0  0  0  0  0
  146.1570  152.2200  132.6150 O   0  0  0  0  0  0  0  0  0  0  0  0
  147.4200  154.0860  133.3610 C   0  0  0  0  0  0  0  0  0  0  0  0
  148.5660  154.6020  133.4550 O   0  0  0  0  0  0  0  0  0  0  0  0
  146.2720  154.8080  133.8540 N   0  0  0  0  0  0  0  0  0  0  0  0
  145.8500  154.5960  135.2460 C   0  0  0  0  0  0  0  0  0  0  0  0
  147.0090  154.1970  136.1060 C   0  0  0  0  0  0  0  0  0  0  0  0
  146.9840  153.1030  136.7300 O   0  0  0  0  0  0  0  0  0  0  0  0
  148.0970  155.0480  136.2600 O   0  0  0  0  0  0  0  0  0  0  0  0
  145.5040  155.6630  132.9770 C   0  0  0  0  0  0  0  0  0  0  0  0
  145.0590  155.2200  131.8830 O   0  0  0  0  0  0  0  0  0  0  0  0
  145.1850  157.0080  133.3580 N   0  0  0  0  0  0  0  0  0  0  0  0
  146.0400  158.0570  133.5090 C   0  0  0  0  0  0  0  0  0  0  0  0
  147.5130  158.0020  133.3860 C   0  0  0  0  0  0  0  0  0  0  0  0
  148.2760  156.9440  133.9660 N   0  0  0  0  0  0  0  0  0  0  0  0
  148.1140  158.9280  132.7800 O   0  0  0  0  0  0  0  0  0  0  0  0
  145.3280  159.2400  133.7050 C   0  0  0  0  0  0  0  0  0  0  0  0
  144.0000  158.8780  133.6590 C   0  0  0  0  0  0  0  0  0  0  0  0
  142.8520  159.6590  133.7570 C   0  0  0  0  0  0  0  0  0  0  0  0
  141.6070  159.0200  133.6160 C   0  0  0  0  0  0  0  0  0  0  0  0
  141.5350  157.6260  133.3660 C   0  0  0  0  0  0  0  0  0  0  0  0
  140.2050  156.9490  133.2020 C   0  0  0  0  0  0  0  0  0  0  0  0
  140.3410  155.5930  133.4370 F   0  0  0  0  0  0  0  0  0  0  0  0
  139.2970  157.4790  134.1010 F   0  0  0  0  0  0  0  0  0  0  0  0
  142.7240  156.8710  133.2590 C   0  0  0  0  0  0  0  0  0  0  0  0
  143.9440  157.5290  133.4310 C   0  0  0  0  0  0  0  0  0  0  0  0
  151.0219  150.1178  132.7244 H   0  0  0  0  0  0  0  0  0  0  0  0
  149.7651  150.0706  131.4420 H   0  0  0  0  0  0  0  0  0  0  0  0
  150.9997  151.3753  131.4420 H   0  0  0  0  0  0  0  0  0  0  0  0
  149.0177  150.9706  133.7302 H   0  0  0  0  0  0  0  0  0  0  0  0
  150.0590  152.4041  133.3837 H   0  0  0  0  0  0  0  0  0  0  0  0
  145.4175  155.5290  135.6363 H   0  0  0  0  0  0  0  0  0  0  0  0
  145.1054  153.7866  135.2658 H   0  0  0  0  0  0  0  0  0  0  0  0
  147.8600  156.2960  134.6670 H   0  0  0  0  0  0  0  0  0  0  0  0
  149.3030  156.8860  133.7910 H   0  0  0  0  0  0  0  0  0  0  0  0
  145.7395  160.2478  133.8628 H   0  0  0  0  0  0  0  0  0  0  0  0
  142.9165  160.7419  133.9390 H   0  0  0  0  0  0  0  0  0  0  0  0
  140.6806  159.6070  133.7004 H   0  0  0  0  0  0  0  0  0  0  0  0
  139.8430  157.1108  132.1760 H   0  0  0  0  0  0  0  0  0  0  0  0
  142.6900  155.7924  133.0457 H   0  0  0  0  0  0  0  0  0  0  0  0
  1  2  1  0
  2  3  1  0
  3  4  1  0
  4  5  2  0
  4  6  1  0
  6  7  2  0
  6  8  1  0
  8  9  1  0
  9 10  1  0
 10 11  2  0
 10 12  1  0
  8 13  1  0
 13 14  2  0
 13 15  1  0
 15 16  1  0
 16 17  1  0
 17 18  1  0
 17 19  2  0
 16 20  2  0
 20 21  1  0
 21 22  2  0
 22 23  1  0
 23 24  2  0
 24 25  1  0
 25 26  1  0
 25 27  1  0
 24 28  1  0
 28 29  2  0
 29 15  1  0
 29 21  1  0
  1 30  1  0
  1 31  1  0
  1 32  1  0
  2 33  1  0
  2 34  1  0
  9 35  1  0
  9 36  1  0
 18 37  1  0
 18 38  1  0
 20 39  1  0
 22 40  1  0
 23 41  1  0
 25 42  1  0
 28 43  1  0
M  CHG  1  12  -1
M  END
>  <UniqueID>  (63) 
62

>  <SMILES>  (63) 
CCOC(=O)C(=O)N(CC(=O)[O-])C(=O)n1c(C(N)=O)cc2ccc(C(F)F)cc21

>  <Energy>  (63) 
82.92732696263299

>  <Genealogy>  (63) 
CCOC(=O)C(=O)N(CC(=O)[O-])C(=O)n1c(C(N)=O)cc2ccc(C(F)F)cc21 (protonated)
CCOC(=O)C(=O)N(CC(=O)[O-])C(=O)n1c(C(N)=O)cc2ccc(C(F)F)cc21 (3D coordinates assigned)
CCOC(=O)C(=O)N(CC(=O)[O-])C(=O)n1c(C(N)=O)cc2ccc(C(F)F)cc21 (optimized conformer: 82.92732696263299 kcal/mol)

>  <smiles>  (63) 
CCOC(=O)C(=O)N(CC(=O)O)C(=O)n1c(C(N)=O)cc2ccc(C(F)F)cc21

>  <score_type>  (63) 
oracle

>  <origin>  (63) 
adg

>  <m_score__min__energy>  (63) 
-6.9000000000000004

>  <m_primary>  (63) 
energy

$$$$
65:0
     RDKit          3D

 37 38  0  0  0  0  0  0  0  0999 V2000
  141.6730  157.4590  136.5330 C   0  0  0  0  0  0  0  0  0  0  0  0
  141.8350  157.3310  135.0820 N   0  0  0  0  0  0  0  0  0  0  0  0
  140.6470  157.3900  134.2170 C   0  0  0  0  0  0  0  0  0  0  0  0
  140.5870  158.7000  133.4910 C   0  0  0  0  0  0  0  0  0  0  0  0
  140.5470  159.7800  134.1370 O   0  0  0  0  0  0  0  0  0  0  0  0
  140.5620  158.7310  132.1020 O   0  0  0  0  0  0  0  0  0  0  0  0
  143.1330  156.9780  134.5600 C   0  0  0  0  0  0  0  0  0  0  0  0
  143.8430  156.1460  135.1890 O   0  0  0  0  0  0  0  0  0  0  0  0
  143.6700  157.5750  133.3160 C   0  0  0  0  0  0  0  0  0  0  0  0
  143.0180  157.5050  132.2410 O   0  0  0  0  0  0  0  0  0  0  0  0
  144.9300  158.2620  133.3270 N   0  0  0  0  0  0  0  0  0  0  0  0
  145.1500  159.5940  133.5320 C   0  0  0  0  0  0  0  0  0  0  0  0
  144.0890  160.6140  133.7350 C   0  0  0  0  0  0  0  0  0  0  0  0
  142.7640  160.4180  133.2300 N   0  0  0  0  0  0  0  0  0  0  0  0
  144.3460  161.6720  134.3690 O   0  0  0  0  0  0  0  0  0  0  0  0
  146.5200  159.8630  133.4880 C   0  0  0  0  0  0  0  0  0  0  0  0
  147.1290  158.6500  133.2580 C   0  0  0  0  0  0  0  0  0  0  0  0
  148.4790  158.3310  133.1390 C   0  0  0  0  0  0  0  0  0  0  0  0
  148.8220  156.9840  132.9260 C   0  0  0  0  0  0  0  0  0  0  0  0
  147.8160  155.9870  132.8470 C   0  0  0  0  0  0  0  0  0  0  0  0
  148.1860  154.5480  132.6260 C   0  0  0  0  0  0  0  0  0  0  0  0
  148.0140  153.8380  133.8010 F   0  0  0  0  0  0  0  0  0  0  0  0
  149.5080  154.4640  132.2310 F   0  0  0  0  0  0  0  0  0  0  0  0
  146.4580  156.3490  132.9780 C   0  0  0  0  0  0  0  0  0  0  0  0
  146.1470  157.7000  133.1690 C   0  0  0  0  0  0  0  0  0  0  0  0
  142.4381  156.8545  137.0421 H   0  0  0  0  0  0  0  0  0  0  0  0
  141.7865  158.5140  136.8230 H   0  0  0  0  0  0  0  0  0  0  0  0
  140.6728  157.1046  136.8230 H   0  0  0  0  0  0  0  0  0  0  0  0
  140.6933  156.5719  133.4831 H   0  0  0  0  0  0  0  0  0  0  0  0
  139.7478  157.2900  134.8426 H   0  0  0  0  0  0  0  0  0  0  0  0
  142.0390  161.1570  133.3740 H   0  0  0  0  0  0  0  0  0  0  0  0
  142.4850  159.5500  132.7260 H   0  0  0  0  0  0  0  0  0  0  0  0
  147.0100  160.8401  133.6114 H   0  0  0  0  0  0  0  0  0  0  0  0
  149.2536  159.1088  133.2095 H   0  0  0  0  0  0  0  0  0  0  0  0
  149.8796  156.7010  132.8197 H   0  0  0  0  0  0  0  0  0  0  0  0
  147.5402  154.1246  131.8426 H   0  0  0  0  0  0  0  0  0  0  0  0
  145.6645  155.5887  132.9311 H   0  0  0  0  0  0  0  0  0  0  0  0
  1  2  1  0
  2  3  1  0
  3  4  1  0
  4  5  2  0
  4  6  1  0
  2  7  1  0
  7  8  2  0
  7  9  1  0
  9 10  2  0
  9 11  1  0
 11 12  1  0
 12 13  1  0
 13 14  1  0
 13 15  2  0
 12 16  2  0
 16 17  1  0
 17 18  2  0
 18 19  1  0
 19 20  2  0
 20 21  1  0
 21 22  1  0
 21 23  1  0
 20 24  1  0
 24 25  2  0
 25 11  1  0
 25 17  1  0
  1 26  1  0
  1 27  1  0
  1 28  1  0
  3 29  1  0
  3 30  1  0
 14 31  1  0
 14 32  1  0
 16 33  1  0
 18 34  1  0
 19 35  1  0
 21 36  1  0
 24 37  1  0
M  CHG  1   6  -1
M  END
>  <UniqueID>  (64) 
63

>  <SMILES>  (64) 
CN(CC(=O)[O-])C(=O)C(=O)n1c(C(N)=O)cc2ccc(C(F)F)cc21

>  <Energy>  (64) 
77.66882509773886

>  <Genealogy>  (64) 
CN(CC(=O)[O-])C(=O)C(=O)n1c(C(N)=O)cc2ccc(C(F)F)cc21 (protonated)
CN(CC(=O)[O-])C(=O)C(=O)n1c(C(N)=O)cc2ccc(C(F)F)cc21 (3D coordinates assigned)
CN(CC(=O)[O-])C(=O)C(=O)n1c(C(N)=O)cc2ccc(C(F)F)cc21 (optimized conformer: 77.66882509773886 kcal/mol)

>  <smiles>  (64) 
CN(CC(=O)O)C(=O)C(=O)n1c(C(N)=O)cc2ccc(C(F)F)cc21

>  <score_type>  (64) 
oracle

>  <origin>  (64) 
adg

>  <m_score__min__energy>  (64) 
-6.0899999999999999

>  <m_primary>  (64) 
energy

$$$$
66:0
     RDKit          3D

 38 39  0  0  0  0  0  0  0  0999 V2000
  139.3260  158.2480  132.9110 C   0  0  0  0  0  0  0  0  0  0  0  0
  139.1840  158.1250  134.3210 O   0  0  0  0  0  0  0  0  0  0  0  0
  140.0530  157.3580  135.1010 C   0  0  0  0  0  0  0  0  0  0  0  0
  140.0480  157.4560  136.3590 O   0  0  0  0  0  0  0  0  0  0  0  0
  141.0330  156.4480  134.4340 C   0  0  0  0  0  0  0  0  0  0  0  0
  142.3690  157.0320  134.4760 N   0  0  0  0  0  0  0  0  0  0  0  0
  142.9510  157.7520  133.3840 C   0  0  0  0  0  0  0  0  0  0  0  0
  142.8710  157.2970  132.2110 O   0  0  0  0  0  0  0  0  0  0  0  0
  143.6390  158.9890  133.6270 N   0  0  0  0  0  0  0  0  0  0  0  0
  143.0960  160.1960  133.9570 C   0  0  0  0  0  0  0  0  0  0  0  0
  141.6720  160.4510  134.2590 C   0  0  0  0  0  0  0  0  0  0  0  0
  141.1460  160.1030  135.5370 N   0  0  0  0  0  0  0  0  0  0  0  0
  140.9050  160.9430  133.3890 O   0  0  0  0  0  0  0  0  0  0  0  0
  144.0910  161.1670  134.0540 C   0  0  0  0  0  0  0  0  0  0  0  0
  145.2690  160.5130  133.7770 C   0  0  0  0  0  0  0  0  0  0  0  0
  146.5720  160.9980  133.7300 C   0  0  0  0  0  0  0  0  0  0  0  0
  147.5990  160.0980  133.3970 C   0  0  0  0  0  0  0  0  0  0  0  0
  147.3030  158.7450  133.1000 C   0  0  0  0  0  0  0  0  0  0  0  0
  148.4130  157.7850  132.7660 C   0  0  0  0  0  0  0  0  0  0  0  0
  149.5960  158.5310  132.1440 C   0  0  0  0  0  0  0  0  0  0  0  0
  149.1990  159.1520  130.8760 C   0  0  0  0  0  0  0  0  0  0  0  0
  148.8880  159.6430  129.8750 N   0  0  0  0  0  0  0  0  0  0  0  0
  145.9690  158.2850  133.1680 C   0  0  0  0  0  0  0  0  0  0  0  0
  144.9700  159.1990  133.5220 C   0  0  0  0  0  0  0  0  0  0  0  0
  140.1396  158.9528  132.6845 H   0  0  0  0  0  0  0  0  0  0  0  0
  139.5621  157.2643  132.4791 H   0  0  0  0  0  0  0  0  0  0  0  0
  138.3860  158.6220  132.4791 H   0  0  0  0  0  0  0  0  0  0  0  0
  141.0429  155.4793  134.9552 H   0  0  0  0  0  0  0  0  0  0  0  0
  140.7354  156.3057  133.3846 H   0  0  0  0  0  0  0  0  0  0  0  0
  140.3170  159.4740  135.6230 H   0  0  0  0  0  0  0  0  0  0  0  0
  143.9617  162.2313  134.3000 H   0  0  0  0  0  0  0  0  0  0  0  0
  146.7919  162.0538  133.9468 H   0  0  0  0  0  0  0  0  0  0  0  0
  148.6416  160.4474  133.3668 H   0  0  0  0  0  0  0  0  0  0  0  0
  148.7454  157.2815  133.6857 H   0  0  0  0  0  0  0  0  0  0  0  0
  148.0387  157.0449  132.0434 H   0  0  0  0  0  0  0  0  0  0  0  0
  149.9377  159.3123  132.8389 H   0  0  0  0  0  0  0  0  0  0  0  0
  150.4083  157.8147  131.9517 H   0  0  0  0  0  0  0  0  0  0  0  0
  145.7219  157.2358  132.9484 H   0  0  0  0  0  0  0  0  0  0  0  0
  1  2  1  0
  2  3  1  0
  3  4  2  0
  3  5  1  0
  5  6  1  0
  6  7  1  0
  7  8  2  0
  7  9  1  0
  9 10  1  0
 10 11  1  0
 11 12  1  0
 11 13  2  0
 10 14  2  0
 14 15  1  0
 15 16  2  0
 16 17  1  0
 17 18  2  0
 18 19  1  0
 19 20  1  0
 20 21  1  0
 21 22  3  0
 18 23  1  0
 23 24  2  0
 24  9  1  0
 24 15  1  0
  1 25  1  0
  1 26  1  0
  1 27  1  0
  5 28  1  0
  5 29  1  0
 12 30  1  0
 14 31  1  0
 16 32  1  0
 17 33  1  0
 19 34  1  0
 19 35  1  0
 20 36  1  0
 20 37  1  0
 23 38  1  0
M  CHG  2   6  -1  12  -1
M  END
>  <UniqueID>  (65) 
64

>  <SMILES>  (65) 
COC(=O)C[N-]C(=O)n1c(C([NH-])=O)cc2ccc(CCC#N)cc21

>  <Energy>  (65) 
67.37848923075586

>  <Genealogy>  (65) 
COC(=O)C[N-]C(=O)n1c(C([NH-])=O)cc2ccc(CCC#N)cc21 (protonated)
COC(=O)C[N-]C(=O)n1c(C([NH-])=O)cc2ccc(CCC#N)cc21 (3D coordinates assigned)
COC(=O)C[N-]C(=O)n1c(C([NH-])=O)cc2ccc(CCC#N)cc21 (optimized conformer: 67.37848923075586 kcal/mol)

>  <smiles>  (65) 
COC(=O)CNC(=O)n1c(C(N)=O)cc2ccc(CCC#N)cc21

>  <score_type>  (65) 
oracle

>  <origin>  (65) 
adg

>  <m_score__min__energy>  (65) 
-6.5700000000000003

>  <m_primary>  (65) 
energy

$$$$
67:0
     RDKit          3D

 44 45  0  0  0  0  0  0  0  0999 V2000
  144.6165  154.9809  136.6833 H   0  0  0  0  0  0  0  0  0  0  0  0
  145.2900  154.5660  135.9190 C   0  0  0  0  0  0  0  0  0  0  0  0
  146.3990  153.7210  136.3990 C   0  0  0  0  0  0  0  0  0  0  0  0
  147.4750  153.6200  135.7570 O   0  0  0  0  0  0  0  0  0  0  0  0
  146.2160  152.9510  137.5400 O   0  0  0  0  0  0  0  0  0  0  0  0
  145.0210  154.8790  134.6420 C   0  0  0  0  0  0  0  0  0  0  0  0
  144.0684  155.3940  134.4489 H   0  0  0  0  0  0  0  0  0  0  0  0
  145.8770  154.6010  133.4680 C   0  0  0  0  0  0  0  0  0  0  0  0
  145.4710  153.7590  132.6230 O   0  0  0  0  0  0  0  0  0  0  0  0
  147.1040  155.3120  133.2150 N   0  0  0  0  0  0  0  0  0  0  0  0
  148.3170  154.7730  132.9020 C   0  0  0  0  0  0  0  0  0  0  0  0
  148.6530  153.3330  132.8880 C   0  0  0  0  0  0  0  0  0  0  0  0
  149.7820  152.9680  132.4620 O   0  0  0  0  0  0  0  0  0  0  0  0
  147.7500  152.3470  133.3930 N   0  0  0  0  0  0  0  0  0  0  0  0
  147.9930  151.3350  133.3240 H   0  0  0  0  0  0  0  0  0  0  0  0
  146.8870  152.6130  133.9130 H   0  0  0  0  0  0  0  0  0  0  0  0
  149.2310  155.7730  132.5840 C   0  0  0  0  0  0  0  0  0  0  0  0
  150.2845  155.6453  132.2946 H   0  0  0  0  0  0  0  0  0  0  0  0
  148.5390  156.9540  132.7080 C   0  0  0  0  0  0  0  0  0  0  0  0
  148.9530  158.2610  132.4740 C   0  0  0  0  0  0  0  0  0  0  0  0
  149.9895  158.4831  132.1803 H   0  0  0  0  0  0  0  0  0  0  0  0
  148.0080  159.2880  132.6240 C   0  0  0  0  0  0  0  0  0  0  0  0
  148.3103  160.3320  132.4548 H   0  0  0  0  0  0  0  0  0  0  0  0
  146.6710  158.9990  132.9900 C   0  0  0  0  0  0  0  0  0  0  0  0
  145.7340  160.0840  133.1260 N   0  0  0  0  0  0  0  0  0  0  0  0
  146.0820  161.0620  132.9940 H   0  0  0  0  0  0  0  0  0  0  0  0
  144.3310  159.9240  133.5170 C   0  0  0  0  0  0  0  0  0  0  0  0
  144.2577  159.1328  134.2777 H   0  0  0  0  0  0  0  0  0  0  0  0
  143.7471  159.6561  132.6241 H   0  0  0  0  0  0  0  0  0  0  0  0
  143.7680  161.2290  134.0950 C   0  0  0  0  0  0  0  0  0  0  0  0
  143.7057  161.1416  135.1897 H   0  0  0  0  0  0  0  0  0  0  0  0
  142.7692  161.4025  133.6680 H   0  0  0  0  0  0  0  0  0  0  0  0
  144.6390  162.3750  133.7480 N   0  0  0  0  0  0  0  0  0  0  0  0
  143.8390  163.5510  133.3660 C   0  0  0  0  0  0  0  0  0  0  0  0
  143.4885  164.0662  134.2725 H   0  0  0  0  0  0  0  0  0  0  0  0
  144.4581  164.2378  132.7701 H   0  0  0  0  0  0  0  0  0  0  0  0
  142.9729  163.2274  132.7701 H   0  0  0  0  0  0  0  0  0  0  0  0
  145.5110  162.7200  134.8820 C   0  0  0  0  0  0  0  0  0  0  0  0
  144.9851  162.5119  135.8255 H   0  0  0  0  0  0  0  0  0  0  0  0
  146.4303  162.1178  134.8341 H   0  0  0  0  0  0  0  0  0  0  0  0
  145.7694  163.7881  134.8341 H   0  0  0  0  0  0  0  0  0  0  0  0
  146.2840  157.6540  133.1960 C   0  0  0  0  0  0  0  0  0  0  0  0
  145.2428  157.4015  133.4454 H   0  0  0  0  0  0  0  0  0  0  0  0
  147.2530  156.6510  133.0760 C   0  0  0  0  0  0  0  0  0  0  0  0
  1  2  1  0
  2  3  1  0
  3  4  2  0
  3  5  1  0
  2  6  2  0
  6  7  1  0
  6  8  1  0
  8  9  2  0
  8 10  1  0
 10 11  1  0
 11 12  1  0
 12 13  2  0
 12 14  1  0
 14 15  1  0
 14 16  1  0
 11 17  2  0
 17 18  1  0
 17 19  1  0
 19 20  2  0
 20 21  1  0
 20 22  1  0
 22 23  1  0
 22 24  2  0
 24 25  1  0
 25 26  1  0
 25 27  1  0
 27 28  1  0
 27 29  1  0
 27 30  1  0
 30 31  1  0
 30 32  1  0
 30 33  1  0
 33 34  1  0
 34 35  1  0
 34 36  1  0
 34 37  1  0
 33 38  1  0
 38 39  1  0
 38 40  1  0
 38 41  1  0
 24 42  1  0
 42 43  1  0
 42 44  2  0
 44 10  1  0
 44 19  1  0
M  CHG  1   5  -1
M  END
>  <UniqueID>  (66) 
65

>  <SMILES>  (66) 
CN(C)CCNc1ccc2cc(C(N)=O)n(C(=O)/C=C\C(=O)[O-])c2c1

>  <Energy>  (66) 
86.41129138374681

>  <Genealogy>  (66) 
CN(C)CCNc1ccc2cc(C(N)=O)n(C(=O)C=CC(=O)[O-])c2c1 (protonated)
CN(C)CCNc1ccc2cc(C(N)=O)n(C(=O)/C=C\C(=O)[O-])c2c1 (cis-trans isomerization)
CN(C)CCNc1ccc2cc(C(N)=O)n(C(=O)/C=C\C(=O)[O-])c2c1 (3D coordinates assigned)
CN(C)CCNc1ccc2cc(C(N)=O)n(C(=O)/C=C\C(=O)[O-])c2c1 (optimized conformer: 86.41129138374681 kcal/mol)

>  <smiles>  (66) 
CN(C)CCNc1ccc2cc(C(N)=O)n(C(=O)C=CC(=O)O)c2c1

>  <score_type>  (66) 
oracle

>  <origin>  (66) 
adg

>  <m_score__min__energy>  (66) 
-7.6900000000000004

>  <m_primary>  (66) 
energy

$$$$
68:0
     RDKit          3D

 45 46  0  0  0  0  0  0  0  0999 V2000
  140.6070  159.7840  136.8790 C   0  0  0  0  0  0  0  0  0  0  0  0
  141.1010  158.6150  136.1500 N   0  0  0  0  0  0  0  0  0  0  0  0
  140.0880  157.5530  136.1500 C   0  0  0  0  0  0  0  0  0  0  0  0
  139.7450  157.1490  134.7140 C   0  0  0  0  0  0  0  0  0  0  0  0
  139.6750  158.3010  133.8780 O   0  0  0  0  0  0  0  0  0  0  0  0
  140.7700  158.7940  133.1620 C   0  0  0  0  0  0  0  0  0  0  0  0
  141.4400  158.0300  132.4140 O   0  0  0  0  0  0  0  0  0  0  0  0
  141.1110  160.1440  133.2910 O   0  0  0  0  0  0  0  0  0  0  0  0
  142.3740  160.5950  133.7760 C   0  0  0  0  0  0  0  0  0  0  0  0
  143.4240  160.0090  133.0080 O   0  0  0  0  0  0  0  0  0  0  0  0
  144.7760  160.0830  133.3640 C   0  0  0  0  0  0  0  0  0  0  0  0
  145.2520  161.1420  133.8570 O   0  0  0  0  0  0  0  0  0  0  0  0
  145.6180  158.9340  133.2000 N   0  0  0  0  0  0  0  0  0  0  0  0
  145.3760  157.6550  133.6060 C   0  0  0  0  0  0  0  0  0  0  0  0
  144.1060  157.1520  134.1670 C   0  0  0  0  0  0  0  0  0  0  0  0
  143.2270  158.0450  134.8480 N   0  0  0  0  0  0  0  0  0  0  0  0
  143.8010  155.9330  134.0800 O   0  0  0  0  0  0  0  0  0  0  0  0
  146.4860  156.8480  133.3580 C   0  0  0  0  0  0  0  0  0  0  0  0
  147.4220  157.6800  132.7860 C   0  0  0  0  0  0  0  0  0  0  0  0
  148.7200  157.4120  132.3640 C   0  0  0  0  0  0  0  0  0  0  0  0
  149.4780  158.4770  131.8510 C   0  0  0  0  0  0  0  0  0  0  0  0
  148.9380  159.7850  131.7740 C   0  0  0  0  0  0  0  0  0  0  0  0
  149.7580  160.8540  131.2650 N   0  0  0  0  0  0  0  0  0  0  0  0
  149.2700  161.8720  130.3410 C   0  0  0  0  0  0  0  0  0  0  0  0
  147.6110  160.0150  132.2130 C   0  0  0  0  0  0  0  0  0  0  0  0
  146.8740  158.9320  132.7020 C   0  0  0  0  0  0  0  0  0  0  0  0
  140.6843  159.6010  137.9609 H   0  0  0  0  0  0  0  0  0  0  0  0
  141.2100  160.6644  136.6120 H   0  0  0  0  0  0  0  0  0  0  0  0
  139.5554  159.9652  136.6120 H   0  0  0  0  0  0  0  0  0  0  0  0
  141.2620  158.9130  135.1590 H   0  0  0  0  0  0  0  0  0  0  0  0
  140.4790  156.6780  136.6900 H   0  0  0  0  0  0  0  0  0  0  0  0
  139.1787  157.9246  136.6450 H   0  0  0  0  0  0  0  0  0  0  0  0
  140.5226  156.4708  134.3325 H   0  0  0  0  0  0  0  0  0  0  0  0
  138.7678  156.6439  134.7088 H   0  0  0  0  0  0  0  0  0  0  0  0
  142.4275  161.6905  133.6917 H   0  0  0  0  0  0  0  0  0  0  0  0
  142.4855  160.2984  134.8294 H   0  0  0  0  0  0  0  0  0  0  0  0
  142.4520  158.5270  134.3400 H   0  0  0  0  0  0  0  0  0  0  0  0
  146.5913  155.7745  133.5736 H   0  0  0  0  0  0  0  0  0  0  0  0
  149.1397  156.3974  132.4301 H   0  0  0  0  0  0  0  0  0  0  0  0
  150.5055  158.2934  131.5040 H   0  0  0  0  0  0  0  0  0  0  0  0
  150.7490  160.9270  131.5880 H   0  0  0  0  0  0  0  0  0  0  0  0
  148.8634  162.7202  130.9113 H   0  0  0  0  0  0  0  0  0  0  0  0
  150.0992  162.2199  129.7075 H   0  0  0  0  0  0  0  0  0  0  0  0
  148.4794  161.4435  129.7075 H   0  0  0  0  0  0  0  0  0  0  0  0
  147.1706  161.0221  132.1702 H   0  0  0  0  0  0  0  0  0  0  0  0
  1  2  1  0
  2  3  1  0
  3  4  1  0
  4  5  1  0
  5  6  1  0
  6  7  2  0
  6  8  1  0
  8  9  1  0
  9 10  1  0
 10 11  1  0
 11 12  2  0
 11 13  1  0
 13 14  1  0
 14 15  1  0
 15 16  1  0
 15 17  2  0
 14 18  2  0
 18 19  1  0
 19 20  2  0
 20 21  1  0
 21 22  2  0
 22 23  1  0
 23 24  1  0
 22 25  1  0
 25 26  2  0
 26 13  1  0
 26 19  1  0
  1 27  1  0
  1 28  1  0
  1 29  1  0
  2 30  1  0
  3 31  1  0
  3 32  1  0
  4 33  1  0
  4 34  1  0
  9 35  1  0
  9 36  1  0
 16 37  1  0
 18 38  1  0
 20 39  1  0
 21 40  1  0
 23 41  1  0
 24 42  1  0
 24 43  1  0
 24 44  1  0
 25 45  1  0
M  CHG  1  16  -1
M  END
>  <UniqueID>  (67) 
66

>  <SMILES>  (67) 
CNCCOC(=O)OCOC(=O)n1c(C([NH-])=O)cc2ccc(NC)cc21

>  <Energy>  (67) 
73.20447127677248

>  <Genealogy>  (67) 
CNCCOC(=O)OCOC(=O)n1c(C([NH-])=O)cc2ccc(NC)cc21 (protonated)
CNCCOC(=O)OCOC(=O)n1c(C([NH-])=O)cc2ccc(NC)cc21 (3D coordinates assigned)
CNCCOC(=O)OCOC(=O)n1c(C([NH-])=O)cc2ccc(NC)cc21 (optimized conformer: 73.20447127677248 kcal/mol)

>  <smiles>  (67) 
CNCCOC(=O)OCOC(=O)n1c(C(N)=O)cc2ccc(NC)cc21

>  <score_type>  (67) 
oracle

>  <origin>  (67) 
adg

>  <m_score__min__energy>  (67) 
-5.0599999999999996

>  <m_primary>  (67) 
energy

$$$$
69:0
     RDKit          3D

 50 51  0  0  0  0  0  0  0  0999 V2000
  136.6840  160.1050  130.7170 C   0  0  0  0  0  0  0  0  0  0  0  0
  137.9160  159.8830  130.0690 O   0  0  0  0  0  0  0  0  0  0  0  0
  138.8580  160.8330  130.5210 C   0  0  0  0  0  0  0  0  0  0  0  0
  139.3480  160.4380  131.9130 C   0  0  0  0  0  0  0  0  0  0  0  0
  140.0100  159.1860  131.8750 O   0  0  0  0  0  0  0  0  0  0  0  0
  139.1130  158.1190  132.1200 C   0  0  0  0  0  0  0  0  0  0  0  0
  138.8350  157.9820  133.6160 C   0  0  0  0  0  0  0  0  0  0  0  0
  140.0100  158.2750  134.3420 O   0  0  0  0  0  0  0  0  0  0  0  0
  140.5840  157.0900  134.8670 C   0  0  0  0  0  0  0  0  0  0  0  0
  141.1130  156.2210  133.7290 C   0  0  0  0  0  0  0  0  0  0  0  0
  142.3470  156.7500  133.2580 O   0  0  0  0  0  0  0  0  0  0  0  0
  143.4380  157.0020  134.0950 C   0  0  0  0  0  0  0  0  0  0  0  0
  143.5000  156.4640  135.2330 O   0  0  0  0  0  0  0  0  0  0  0  0
  144.4830  157.8860  133.6530 N   0  0  0  0  0  0  0  0  0  0  0  0
  144.4230  159.2440  133.5470 C   0  0  0  0  0  0  0  0  0  0  0  0
  143.2020  160.0650  133.7030 C   0  0  0  0  0  0  0  0  0  0  0  0
  141.9140  159.5100  133.4320 N   0  0  0  0  0  0  0  0  0  0  0  0
  143.2880  161.2540  134.1080 O   0  0  0  0  0  0  0  0  0  0  0  0
  145.6630  159.7630  133.1830 C   0  0  0  0  0  0  0  0  0  0  0  0
  146.4930  158.6720  133.0650 C   0  0  0  0  0  0  0  0  0  0  0  0
  147.8460  158.6130  132.7500 C   0  0  0  0  0  0  0  0  0  0  0  0
  148.4640  157.3520  132.7380 C   0  0  0  0  0  0  0  0  0  0  0  0
  147.7250  156.1780  133.0300 C   0  0  0  0  0  0  0  0  0  0  0  0
  148.4180  154.8390  133.0770 C   0  0  0  0  0  0  0  0  0  0  0  0
  149.7060  154.9410  132.5810 F   0  0  0  0  0  0  0  0  0  0  0  0
  147.7330  153.9060  132.3160 F   0  0  0  0  0  0  0  0  0  0  0  0
  148.4720  154.4000  134.3860 F   0  0  0  0  0  0  0  0  0  0  0  0
  146.3560  156.2840  133.3710 C   0  0  0  0  0  0  0  0  0  0  0  0
  145.7590  157.5510  133.3550 C   0  0  0  0  0  0  0  0  0  0  0  0
  136.8327  160.0782  131.8066 H   0  0  0  0  0  0  0  0  0  0  0  0
  136.2882  161.0889  130.4250 H   0  0  0  0  0  0  0  0  0  0  0  0
  135.9697  159.3211  130.4250 H   0  0  0  0  0  0  0  0  0  0  0  0
  139.7106  160.8636  129.8267 H   0  0  0  0  0  0  0  0  0  0  0  0
  138.3867  161.8259  130.5651 H   0  0  0  0  0  0  0  0  0  0  0  0
  140.0461  161.2044  132.2809 H   0  0  0  0  0  0  0  0  0  0  0  0
  138.4799  160.3585  132.5838 H   0  0  0  0  0  0  0  0  0  0  0  0
  138.1673  158.3137  131.5930 H   0  0  0  0  0  0  0  0  0  0  0  0
  139.5661  157.1848  131.7568 H   0  0  0  0  0  0  0  0  0  0  0  0
  138.0396  158.6840  133.9069 H   0  0  0  0  0  0  0  0  0  0  0  0
  138.5148  156.9530  133.8366 H   0  0  0  0  0  0  0  0  0  0  0  0
  141.4129  157.3535  135.5404 H   0  0  0  0  0  0  0  0  0  0  0  0
  139.8167  156.5313  135.4230 H   0  0  0  0  0  0  0  0  0  0  0  0
  141.2701  155.1954  134.0943 H   0  0  0  0  0  0  0  0  0  0  0  0
  140.3823  156.2114  132.9068 H   0  0  0  0  0  0  0  0  0  0  0  0
  141.0550  160.0870  133.5740 H   0  0  0  0  0  0  0  0  0  0  0  0
  141.8110  158.5430  133.0540 H   0  0  0  0  0  0  0  0  0  0  0  0
  145.9233  160.8198  133.0238 H   0  0  0  0  0  0  0  0  0  0  0  0
  148.4145  159.5255  132.5175 H   0  0  0  0  0  0  0  0  0  0  0  0
  149.5349  157.2743  132.4990 H   0  0  0  0  0  0  0  0  0  0  0  0
  145.7735  155.3913  133.6426 H   0  0  0  0  0  0  0  0  0  0  0  0
  1  2  1  0
  2  3  1  0
  3  4  1  0
  4  5  1  0
  5  6  1  0
  6  7  1  0
  7  8  1  0
  8  9  1  0
  9 10  1  0
 10 11  1  0
 11 12  1  0
 12 13  2  0
 12 14  1  0
 14 15  1  0
 15 16  1  0
 16 17  1  0
 16 18  2  0
 15 19  2  0
 19 20  1  0
 20 21  2  0
 21 22  1  0
 22 23  2  0
 23 24  1  0
 24 25  1  0
 24 26  1  0
 24 27  1  0
 23 28  1  0
 28 29  2  0
 29 14  1  0
 29 20  1  0
  1 30  1  0
  1 31  1  0
  1 32  1  0
  3 33  1  0
  3 34  1  0
  4 35  1  0
  4 36  1  0
  6 37  1  0
  6 38  1  0
  7 39  1  0
  7 40  1  0
  9 41  1  0
  9 42  1  0
 10 43  1  0
 10 44  1  0
 17 45  1  0
 17 46  1  0
 19 47  1  0
 21 48  1  0
 22 49  1  0
 28 50  1  0
M  END
>  <UniqueID>  (68) 
67

>  <SMILES>  (68) 
COCCOCCOCCOC(=O)n1c(C(N)=O)cc2ccc(C(F)(F)F)cc21

>  <Energy>  (68) 
85.86387759089368

>  <Genealogy>  (68) 
COCCOCCOCCOC(=O)n1c(C(N)=O)cc2ccc(C(F)(F)F)cc21 (3D coordinates assigned)
COCCOCCOCCOC(=O)n1c(C(N)=O)cc2ccc(C(F)(F)F)cc21 (optimized conformer: 85.86387759089368 kcal/mol)

>  <smiles>  (68) 
COCCOCCOCCOC(=O)n1c(C(N)=O)cc2ccc(C(F)(F)F)cc21

>  <score_type>  (68) 
oracle

>  <origin>  (68) 
adg

>  <m_score__min__energy>  (68) 
-5.3499999999999996

>  <m_primary>  (68) 
energy

$$$$
70:0
     RDKit          3D

 40 41  0  0  0  0  0  0  0  0999 V2000
  148.7470  161.5840  130.6920 C   0  0  0  0  0  0  0  0  0  0  0  0
  148.5370  160.3510  131.5190 C   0  0  0  0  0  0  0  0  0  0  0  0
  149.6300  159.4990  131.8170 C   0  0  0  0  0  0  0  0  0  0  0  0
  149.4400  158.3240  132.5650 C   0  0  0  0  0  0  0  0  0  0  0  0
  148.1490  158.0220  132.9870 C   0  0  0  0  0  0  0  0  0  0  0  0
  147.6810  156.9630  133.7320 C   0  0  0  0  0  0  0  0  0  0  0  0
  146.3110  157.1790  133.8620 C   0  0  0  0  0  0  0  0  0  0  0  0
  145.4040  156.3030  134.6280 C   0  0  0  0  0  0  0  0  0  0  0  0
  144.0270  156.2200  134.2720 N   0  0  0  0  0  0  0  0  0  0  0  0
  145.8350  155.6180  135.5920 O   0  0  0  0  0  0  0  0  0  0  0  0
  145.9510  158.3240  133.2230 N   0  0  0  0  0  0  0  0  0  0  0  0
  144.6400  158.8970  133.1330 C   0  0  0  0  0  0  0  0  0  0  0  0
  143.7200  158.2320  132.5870 O   0  0  0  0  0  0  0  0  0  0  0  0
  144.3750  160.2090  133.6680 N   0  0  0  0  0  0  0  0  0  0  0  0
  145.4820  161.0230  134.1750 C   0  0  0  0  0  0  0  0  0  0  0  0
  143.0000  160.7240  133.7630 C   0  0  0  0  0  0  0  0  0  0  0  0
  142.1020  159.7860  134.5940 C   0  0  2  0  0  0  0  0  0  0  0  0
  142.8930  158.9110  135.3590 O   0  0  0  0  0  0  0  0  0  0  0  0
  141.1260  158.9880  133.7110 C   0  0  0  0  0  0  0  0  0  0  0  0
  141.4130  157.6160  133.7900 O   0  0  0  0  0  0  0  0  0  0  0  0
  147.0810  158.8310  132.6940 C   0  0  0  0  0  0  0  0  0  0  0  0
  147.2380  160.0020  131.9490 C   0  0  0  0  0  0  0  0  0  0  0  0
  148.8944  162.4494  131.3549 H   0  0  0  0  0  0  0  0  0  0  0  0
  149.6357  161.4528  130.0572 H   0  0  0  0  0  0  0  0  0  0  0  0
  147.8649  161.7544  130.0572 H   0  0  0  0  0  0  0  0  0  0  0  0
  150.6370  159.7599  131.4593 H   0  0  0  0  0  0  0  0  0  0  0  0
  150.2855  157.6640  132.8090 H   0  0  0  0  0  0  0  0  0  0  0  0
  148.2651  156.1241  134.1384 H   0  0  0  0  0  0  0  0  0  0  0  0
  143.4020  157.0550  134.3510 H   0  0  0  0  0  0  0  0  0  0  0  0
  145.4699  161.0141  135.2749 H   0  0  0  0  0  0  0  0  0  0  0  0
  146.4358  160.6095  133.8154 H   0  0  0  0  0  0  0  0  0  0  0  0
  145.3717  162.0567  133.8154 H   0  0  0  0  0  0  0  0  0  0  0  0
  143.0214  161.7145  134.2409 H   0  0  0  0  0  0  0  0  0  0  0  0
  142.5845  160.7888  132.7465 H   0  0  0  0  0  0  0  0  0  0  0  0
  141.4986  160.4147  135.2653 H   0  0  0  0  0  0  0  0  0  0  0  0
  143.2610  158.2200  134.7440 H   0  0  0  0  0  0  0  0  0  0  0  0
  140.0965  159.1645  134.0558 H   0  0  0  0  0  0  0  0  0  0  0  0
  141.2338  159.3181  132.6672 H   0  0  0  0  0  0  0  0  0  0  0  0
  142.4020  157.5290  133.7670 H   0  0  0  0  0  0  0  0  0  0  0  0
  146.3728  160.6355  131.7038 H   0  0  0  0  0  0  0  0  0  0  0  0
  1  2  1  0
  2  3  2  0
  3  4  1  0
  4  5  2  0
  5  6  1  0
  6  7  2  0
  7  8  1  0
  8  9  1  0
  8 10  2  0
  7 11  1  0
 11 12  1  0
 12 13  2  0
 12 14  1  0
 14 15  1  0
 14 16  1  0
 16 17  1  0
 17 18  1  0
 17 19  1  0
 19 20  1  0
 11 21  1  0
 21 22  2  0
 22  2  1  0
 21  5  1  0
  1 23  1  0
  1 24  1  0
  1 25  1  0
  3 26  1  0
  4 27  1  0
  6 28  1  0
  9 29  1  0
 15 30  1  0
 15 31  1  0
 15 32  1  0
 16 33  1  0
 16 34  1  0
 17 35  1  1
 18 36  1  0
 19 37  1  0
 19 38  1  0
 20 39  1  0
 22 40  1  0
M  CHG  1   9  -1
M  END
>  <UniqueID>  (69) 
68

>  <SMILES>  (69) 
Cc1ccc2cc(C([NH-])=O)n(C(=O)N(C)C[C@H](O)CO)c2c1

>  <Energy>  (69) 
74.11395261969805

>  <Genealogy>  (69) 
Cc1ccc2cc(C([NH-])=O)n(C(=O)N(C)CC(O)CO)c2c1 (protonated)
Cc1ccc2cc(C([NH-])=O)n(C(=O)N(C)C[C@H](O)CO)c2c1 (chirality)
Cc1ccc2cc(C([NH-])=O)n(C(=O)N(C)C[C@H](O)CO)c2c1 (3D coordinates assigned)
Cc1ccc2cc(C([NH-])=O)n(C(=O)N(C)C[C@H](O)CO)c2c1 (optimized conformer: 74.11395261969805 kcal/mol)

>  <smiles>  (69) 
Cc1ccc2cc(C(N)=O)n(C(=O)N(C)CC(O)CO)c2c1

>  <score_type>  (69) 
oracle

>  <origin>  (69) 
adg

>  <m_score__min__energy>  (69) 
-5.46

>  <m_primary>  (69) 
energy

$$$$
71:0
     RDKit          3D

 37 38  0  0  0  0  0  0  0  0999 V2000
  142.3870  160.7440  133.9140 H   0  0  0  0  0  0  0  0  0  0  0  0
  142.9340  161.5780  133.6020 N   0  0  0  0  0  0  0  0  0  0  0  0
  144.3420  161.6490  133.8030 C   0  0  0  0  0  0  0  0  0  0  0  0
  144.8660  162.7550  134.1060 O   0  0  0  0  0  0  0  0  0  0  0  0
  145.1910  160.4450  133.6870 C   0  0  0  0  0  0  0  0  0  0  0  0
  146.5530  160.4830  133.3940 C   0  0  0  0  0  0  0  0  0  0  0  0
  147.1662  161.3733  133.1906 H   0  0  0  0  0  0  0  0  0  0  0  0
  146.9690  159.1700  133.4130 C   0  0  0  0  0  0  0  0  0  0  0  0
  148.2230  158.6240  133.1710 C   0  0  0  0  0  0  0  0  0  0  0  0
  149.0861  159.2665  132.9424 H   0  0  0  0  0  0  0  0  0  0  0  0
  148.3560  157.2270  133.2270 C   0  0  0  0  0  0  0  0  0  0  0  0
  149.3399  156.7700  133.0453 H   0  0  0  0  0  0  0  0  0  0  0  0
  147.2390  156.3920  133.5150 C   0  0  0  0  0  0  0  0  0  0  0  0
  147.3820  154.9480  133.5580 N   0  0  0  0  0  0  0  0  0  0  0  0
  148.3310  154.2700  132.6650 C   0  0  0  0  0  0  0  0  0  0  0  0
  149.0809  153.7343  133.2655 H   0  0  0  0  0  0  0  0  0  0  0  0
  147.7893  153.5532  132.0304 H   0  0  0  0  0  0  0  0  0  0  0  0
  148.8335  155.0148  132.0304 H   0  0  0  0  0  0  0  0  0  0  0  0
  146.6070  154.1310  134.5050 C   0  0  0  0  0  0  0  0  0  0  0  0
  145.6006  154.5616  134.6133 H   0  0  0  0  0  0  0  0  0  0  0  0
  146.5441  153.1042  134.1156 H   0  0  0  0  0  0  0  0  0  0  0  0
  147.2730  154.0960  135.8460 C   0  0  0  0  0  0  0  0  0  0  0  0
  148.0440  155.0300  136.1930 O   0  0  0  0  0  0  0  0  0  0  0  0
  147.0110  153.0580  136.7310 O   0  0  0  0  0  0  0  0  0  0  0  0
  145.9780  156.9980  133.7510 C   0  0  0  0  0  0  0  0  0  0  0  0
  145.0916  156.3824  133.9639 H   0  0  0  0  0  0  0  0  0  0  0  0
  145.8830  158.3920  133.7080 C   0  0  0  0  0  0  0  0  0  0  0  0
  144.7860  159.1590  133.8850 N   0  0  0  0  0  0  0  0  0  0  0  0
  143.4550  158.6930  134.1500 C   0  0  0  0  0  0  0  0  0  0  0  0
  142.8740  159.0660  135.2040 O   0  0  0  0  0  0  0  0  0  0  0  0
  142.7620  157.8510  133.1500 C   0  0  0  0  0  0  0  0  0  0  0  0
  143.3478  157.0408  132.6913 H   0  0  0  0  0  0  0  0  0  0  0  0
  141.4870  157.9800  132.7480 C   0  0  0  0  0  0  0  0  0  0  0  0
  141.1773  157.3801  131.8795 H   0  0  0  0  0  0  0  0  0  0  0  0
  140.4620  158.8470  133.3570 C   0  0  0  0  0  0  0  0  0  0  0  0
  140.4570  160.0910  133.1670 O   0  0  0  0  0  0  0  0  0  0  0  0
  139.5410  158.2930  134.2360 O   0  0  0  0  0  0  0  0  0  0  0  0
  1  2  1  0
  2  3  1  0
  3  4  2  0
  3  5  1  0
  5  6  2  0
  6  7  1  0
  6  8  1  0
  8  9  2  0
  9 10  1  0
  9 11  1  0
 11 12  1  0
 11 13  2  0
 13 14  1  0
 14 15  1  0
 15 16  1  0
 15 17  1  0
 15 18  1  0
 14 19  1  0
 19 20  1  0
 19 21  1  0
 19 22  1  0
 22 23  2  0
 22 24  1  0
 13 25  1  0
 25 26  1  0
 25 27  2  0
 27 28  1  0
 28 29  1  0
 29 30  2  0
 29 31  1  0
 31 32  1  0
 31 33  2  0
 33 34  1  0
 33 35  1  0
 35 36  2  0
 35 37  1  0
 28  5  1  0
 27  8  1  0
M  CHG  3   2  -1  24  -1  37  -1
M  END
>  <UniqueID>  (70) 
69

>  <SMILES>  (70) 
CN(CC(=O)[O-])c1ccc2cc(C([NH-])=O)n(C(=O)/C=C\C(=O)[O-])c2c1

>  <Energy>  (70) 
84.5747133876393

>  <Genealogy>  (70) 
CN(CC(=O)[O-])c1ccc2cc(C([NH-])=O)n(C(=O)/C=C\C(=O)[O-])c2c1 (protonated)
CN(CC(=O)[O-])c1ccc2cc(C([NH-])=O)n(C(=O)/C=C\C(=O)[O-])c2c1 (cis-trans isomerization)
CN(CC(=O)[O-])c1ccc2cc(C([NH-])=O)n(C(=O)/C=C\C(=O)[O-])c2c1 (3D coordinates assigned)
CN(CC(=O)[O-])c1ccc2cc(C([NH-])=O)n(C(=O)/C=C\C(=O)[O-])c2c1 (optimized conformer: 84.5747133876393 kcal/mol)

>  <smiles>  (70) 
CN(CC(=O)O)c1ccc2cc(C(N)=O)n(C(=O)/C=C\C(=O)O)c2c1

>  <score_type>  (70) 
oracle

>  <origin>  (70) 
adg

>  <m_score__min__energy>  (70) 
-6.9800000000000004

>  <m_primary>  (70) 
energy

$$$$
72:0
     RDKit          3D

 62 65  0  0  0  0  0  0  0  0999 V2000
  140.2230  147.9780  130.7480 C   0  0  0  0  0  0  0  0  0  0  0  0
  140.5120  149.2260  131.4590 N   0  0  0  0  0  0  0  0  0  0  0  0
  141.7770  149.4730  131.9120 C   0  0  0  0  0  0  0  0  0  0  0  0
  142.0790  150.6730  132.5580 C   0  0  0  0  0  0  0  0  0  0  0  0
  141.0800  151.6420  132.7340 C   0  0  0  0  0  0  0  0  0  0  0  0
  141.3790  152.9270  133.4130 C   0  0  0  0  0  0  0  0  0  0  0  0
  142.2990  152.9800  134.4700 C   0  0  0  0  0  0  0  0  0  0  0  0
  142.5520  154.1920  135.1130 C   0  0  0  0  0  0  0  0  0  0  0  0
  141.9160  155.3370  134.7180 N   0  0  0  0  0  0  0  0  0  0  0  0
  142.1430  156.5900  135.4470 C   0  0  0  0  0  0  0  0  0  0  0  0
  143.0730  157.4760  134.6620 C   0  0  0  0  0  0  0  0  0  0  0  0
  142.6620  158.7730  134.2670 C   0  0  0  0  0  0  0  0  0  0  0  0
  143.5420  159.6230  133.5780 C   0  0  0  0  0  0  0  0  0  0  0  0
  144.8300  159.1590  133.3230 C   0  0  0  0  0  0  0  0  0  0  0  0
  145.8790  159.7730  132.6780 C   0  0  0  0  0  0  0  0  0  0  0  0
  146.9280  158.8600  132.7310 C   0  0  0  0  0  0  0  0  0  0  0  0
  148.2850  159.1520  132.2280 C   0  0  0  0  0  0  0  0  0  0  0  0
  149.4470  158.6960  132.9230 N   0  0  0  0  0  0  0  0  0  0  0  0
  148.4220  159.8690  131.2010 O   0  0  0  0  0  0  0  0  0  0  0  0
  146.5400  157.7170  133.3660 N   0  0  0  0  0  0  0  0  0  0  0  0
  147.3080  156.5170  133.5550 C   0  0  0  0  0  0  0  0  0  0  0  0
  148.2960  156.5180  134.3400 O   0  0  0  0  0  0  0  0  0  0  0  0
  146.9590  155.3520  132.8650 O   0  0  0  0  0  0  0  0  0  0  0  0
  147.6900  154.1320  132.9550 C   0  0  0  0  0  0  0  0  0  0  0  0
  146.7530  152.9170  132.9280 C   0  0  0  0  0  0  0  0  0  0  0  0
  145.2630  153.2760  133.0780 C   0  0  0  0  0  0  0  0  0  0  0  0
  144.6340  153.8310  131.7950 C   0  0  0  0  0  0  0  0  0  0  0  0
  144.4280  155.2100  131.9110 O   0  0  0  0  0  0  0  0  0  0  0  0
  145.2530  157.9170  133.7240 C   0  0  0  0  0  0  0  0  0  0  0  0
  144.3850  157.0390  134.3830 C   0  0  0  0  0  0  0  0  0  0  0  0
  141.0160  155.3070  133.6890 C   0  0  0  0  0  0  0  0  0  0  0  0
  140.7380  154.1130  133.0210 C   0  0  0  0  0  0  0  0  0  0  0  0
  139.7930  151.3770  132.2420 C   0  0  0  0  0  0  0  0  0  0  0  0
  139.5300  150.1650  131.6000 C   0  0  0  0  0  0  0  0  0  0  0  0
  140.0371  147.1754  131.4768 H   0  0  0  0  0  0  0  0  0  0  0  0
  139.3325  148.1134  130.1167 H   0  0  0  0  0  0  0  0  0  0  0  0
  141.0824  147.7082  130.1167 H   0  0  0  0  0  0  0  0  0  0  0  0
  142.5648  148.7193  131.7663 H   0  0  0  0  0  0  0  0  0  0  0  0
  143.0981  150.8584  132.9282 H   0  0  0  0  0  0  0  0  0  0  0  0
  142.8208  152.0667  134.7919 H   0  0  0  0  0  0  0  0  0  0  0  0
  143.2699  154.2273  135.9457 H   0  0  0  0  0  0  0  0  0  0  0  0
  141.1829  157.1066  135.5928 H   0  0  0  0  0  0  0  0  0  0  0  0
  142.5950  156.3646  136.4242 H   0  0  0  0  0  0  0  0  0  0  0  0
  141.6441  159.1173  134.5022 H   0  0  0  0  0  0  0  0  0  0  0  0
  143.2241  160.6237  133.2501 H   0  0  0  0  0  0  0  0  0  0  0  0
  145.8868  160.7724  132.2185 H   0  0  0  0  0  0  0  0  0  0  0  0
  150.3970  158.8740  132.5280 H   0  0  0  0  0  0  0  0  0  0  0  0
  149.3730  158.2590  133.8690 H   0  0  0  0  0  0  0  0  0  0  0  0
  148.3852  154.0673  132.1050 H   0  0  0  0  0  0  0  0  0  0  0  0
  148.2390  154.1258  133.9082 H   0  0  0  0  0  0  0  0  0  0  0  0
  146.8890  152.3957  131.9689 H   0  0  0  0  0  0  0  0  0  0  0  0
  147.0190  152.2888  133.7909 H   0  0  0  0  0  0  0  0  0  0  0  0
  144.7142  152.3685  133.3701 H   0  0  0  0  0  0  0  0  0  0  0  0
  145.1966  154.0677  133.8388 H   0  0  0  0  0  0  0  0  0  0  0  0
  145.3067  153.6349  130.9471 H   0  0  0  0  0  0  0  0  0  0  0  0
  143.6648  153.3376  131.6298 H   0  0  0  0  0  0  0  0  0  0  0  0
  145.2540  155.6410  131.5700 H   0  0  0  0  0  0  0  0  0  0  0  0
  144.7177  156.0324  134.6763 H   0  0  0  0  0  0  0  0  0  0  0  0
  140.5060  156.2328  133.3845 H   0  0  0  0  0  0  0  0  0  0  0  0
  140.0182  154.1015  132.1893 H   0  0  0  0  0  0  0  0  0  0  0  0
  138.9929  152.1223  132.3617 H   0  0  0  0  0  0  0  0  0  0  0  0
  138.5233  149.9647  131.2044 H   0  0  0  0  0  0  0  0  0  0  0  0
  1  2  1  0
  2  3  2  0
  3  4  1  0
  4  5  2  0
  5  6  1  0
  6  7  2  0
  7  8  1  0
  8  9  2  0
  9 10  1  0
 10 11  1  0
 11 12  2  0
 12 13  1  0
 13 14  2  0
 14 15  1  0
 15 16  2  0
 16 17  1  0
 17 18  1  0
 17 19  2  0
 16 20  1  0
 20 21  1  0
 21 22  2  0
 21 23  1  0
 23 24  1  0
 24 25  1  0
 25 26  1  0
 26 27  1  0
 27 28  1  0
 20 29  1  0
 29 30  2  0
  9 31  1  0
 31 32  2  0
  5 33  1  0
 33 34  2  0
 34  2  1  0
 32  6  1  0
 30 11  1  0
 29 14  1  0
  1 35  1  0
  1 36  1  0
  1 37  1  0
  3 38  1  0
  4 39  1  0
  7 40  1  0
  8 41  1  0
 10 42  1  0
 10 43  1  0
 12 44  1  0
 13 45  1  0
 15 46  1  0
 18 47  1  0
 18 48  1  0
 24 49  1  0
 24 50  1  0
 25 51  1  0
 25 52  1  0
 26 53  1  0
 26 54  1  0
 27 55  1  0
 27 56  1  0
 28 57  1  0
 30 58  1  0
 31 59  1  0
 32 60  1  0
 33 61  1  0
 34 62  1  0
M  CHG  2   2   1   9   1
M  END
>  <UniqueID>  (71) 
70

>  <SMILES>  (71) 
C[n+]1ccc(-c2cc[n+](Cc3ccc4cc(C(N)=O)n(C(=O)OCCCCO)c4c3)cc2)cc1

>  <Energy>  (71) 
102.31243144488356

>  <Genealogy>  (71) 
C[n+]1ccc(-c2cc[n+](Cc3ccc4cc(C(N)=O)n(C(=O)OCCCCO)c4c3)cc2)cc1 (3D coordinates assigned)
C[n+]1ccc(-c2cc[n+](Cc3ccc4cc(C(N)=O)n(C(=O)OCCCCO)c4c3)cc2)cc1 (optimized conformer: 102.31243144488356 kcal/mol)

>  <smiles>  (71) 
C[n+]1ccc(-c2cc[n+](Cc3ccc4cc(C(N)=O)n(C(=O)OCCCCO)c4c3)cc2)cc1

>  <score_type>  (71) 
oracle

>  <origin>  (71) 
adg

>  <m_score__min__energy>  (71) 
-8.3499999999999996

>  <m_primary>  (71) 
energy

$$$$
73:0
     RDKit          3D

 38 39  0  0  0  0  0  0  0  0999 V2000
  145.4870  161.9090  134.1370 C   0  0  0  0  0  0  0  0  0  0  0  0
  145.0750  160.5480  133.7730 N   0  0  0  0  0  0  0  0  0  0  0  0
  143.6420  160.2280  133.7320 C   0  0  0  0  0  0  0  0  0  0  0  0
  146.0660  159.5350  133.4600 C   0  0  0  0  0  0  0  0  0  0  0  0
  147.2930  159.8880  132.8290 C   0  0  0  0  0  0  0  0  0  0  0  0
  148.2520  158.9140  132.5120 C   0  0  0  0  0  0  0  0  0  0  0  0
  147.9760  157.5930  132.8410 C   0  0  0  0  0  0  0  0  0  0  0  0
  148.7150  156.4540  132.6180 C   0  0  0  0  0  0  0  0  0  0  0  0
  147.9530  155.4140  133.1410 C   0  0  0  0  0  0  0  0  0  0  0  0
  148.4050  154.0080  133.1700 C   0  0  0  0  0  0  0  0  0  0  0  0
  147.5550  152.9670  133.6530 N   0  0  0  0  0  0  0  0  0  0  0  0
  149.5790  153.7290  132.8120 O   0  0  0  0  0  0  0  0  0  0  0  0
  146.7830  155.8870  133.6540 N   0  0  0  0  0  0  0  0  0  0  0  0
  145.6890  155.1220  134.1860 C   0  0  0  0  0  0  0  0  0  0  0  0
  145.8050  154.5560  135.3070 O   0  0  0  0  0  0  0  0  0  0  0  0
  144.5010  155.0070  133.4560 O   0  0  0  0  0  0  0  0  0  0  0  0
  144.4270  154.4190  132.1580 C   0  0  0  0  0  0  0  0  0  0  0  0
  144.6790  152.9110  132.2290 C   0  0  0  0  0  0  0  0  0  0  0  0
  144.6980  152.4770  133.5620 O   0  0  0  0  0  0  0  0  0  0  0  0
  146.8150  157.2260  133.4670 C   0  0  0  0  0  0  0  0  0  0  0  0
  145.8290  158.1710  133.7740 C   0  0  0  0  0  0  0  0  0  0  0  0
  145.5154  162.0028  135.2326 H   0  0  0  0  0  0  0  0  0  0  0  0
  146.4868  162.1118  133.7256 H   0  0  0  0  0  0  0  0  0  0  0  0
  144.7676  162.6323  133.7256 H   0  0  0  0  0  0  0  0  0  0  0  0
  143.2560  160.1418  134.7584 H   0  0  0  0  0  0  0  0  0  0  0  0
  143.1027  161.0278  133.2034 H   0  0  0  0  0  0  0  0  0  0  0  0
  143.4942  159.2747  133.2034 H   0  0  0  0  0  0  0  0  0  0  0  0
  147.4923  160.9422  132.5860 H   0  0  0  0  0  0  0  0  0  0  0  0
  149.1952  159.1886  132.0172 H   0  0  0  0  0  0  0  0  0  0  0  0
  149.6983  156.3812  132.1303 H   0  0  0  0  0  0  0  0  0  0  0  0
  147.8760  151.9740  133.6260 H   0  0  0  0  0  0  0  0  0  0  0  0
  146.6460  153.1840  134.1180 H   0  0  0  0  0  0  0  0  0  0  0  0
  143.4264  154.5980  131.7376 H   0  0  0  0  0  0  0  0  0  0  0  0
  145.1979  154.8755  131.5198 H   0  0  0  0  0  0  0  0  0  0  0  0
  143.8784  152.3847  131.6886 H   0  0  0  0  0  0  0  0  0  0  0  0
  145.6546  152.6921  131.7704 H   0  0  0  0  0  0  0  0  0  0  0  0
  144.5060  153.2740  134.1230 H   0  0  0  0  0  0  0  0  0  0  0  0
  144.8868  157.8620  134.2503 H   0  0  0  0  0  0  0  0  0  0  0  0
  1  2  1  0
  2  3  1  0
  2  4  1  0
  4  5  2  0
  5  6  1  0
  6  7  2  0
  7  8  1  0
  8  9  2  0
  9 10  1  0
 10 11  1  0
 10 12  2  0
  9 13  1  0
 13 14  1  0
 14 15  2  0
 14 16  1  0
 16 17  1  0
 17 18  1  0
 18 19  1  0
 13 20  1  0
 20 21  2  0
 21  4  1  0
 20  7  1  0
  1 22  1  0
  1 23  1  0
  1 24  1  0
  3 25  1  0
  3 26  1  0
  3 27  1  0
  5 28  1  0
  6 29  1  0
  8 30  1  0
 11 31  1  0
 11 32  1  0
 17 33  1  0
 17 34  1  0
 18 35  1  0
 18 36  1  0
 19 37  1  0
 21 38  1  0
M  END
>  <UniqueID>  (72) 
71

>  <SMILES>  (72) 
CN(C)c1ccc2cc(C(N)=O)n(C(=O)OCCO)c2c1

>  <Energy>  (72) 
74.9327801467927

>  <Genealogy>  (72) 
CN(C)c1ccc2cc(C(N)=O)n(C(=O)OCCO)c2c1 (3D coordinates assigned)
CN(C)c1ccc2cc(C(N)=O)n(C(=O)OCCO)c2c1 (optimized conformer: 74.9327801467927 kcal/mol)

>  <smiles>  (72) 
CN(C)c1ccc2cc(C(N)=O)n(C(=O)OCCO)c2c1

>  <score_type>  (72) 
oracle

>  <origin>  (72) 
adg

>  <m_score__min__energy>  (72) 
-5.96

>  <m_primary>  (72) 
energy

$$$$
75:0
     RDKit          3D

 37 38  0  0  0  0  0  0  0  0999 V2000
  140.4510  158.5810  135.3490 C   0  0  0  0  0  0  0  0  0  0  0  0
  141.1490  158.3430  134.0800 N   0  0  0  0  0  0  0  0  0  0  0  0
  140.4820  157.5720  133.0170 C   0  0  0  0  0  0  0  0  0  0  0  0
  139.0270  158.0290  132.8110 C   0  0  0  0  0  0  0  0  0  0  0  0
  138.7680  158.6160  131.4150 C   0  0  0  0  0  0  0  0  0  0  0  0
  138.4060  160.0680  131.4780 C   0  0  0  0  0  0  0  0  0  0  0  0
  139.2600  160.9180  131.8440 O   0  0  0  0  0  0  0  0  0  0  0  0
  137.1360  160.4870  131.1030 O   0  0  0  0  0  0  0  0  0  0  0  0
  142.4790  158.8790  133.8910 C   0  0  0  0  0  0  0  0  0  0  0  0
  142.7000  160.2820  133.9460 C   0  0  0  0  0  0  0  0  0  0  0  0
  143.9830  160.8180  133.7490 C   0  0  0  0  0  0  0  0  0  0  0  0
  145.0280  159.9360  133.5030 C   0  0  0  0  0  0  0  0  0  0  0  0
  146.3600  160.1870  133.2650 C   0  0  0  0  0  0  0  0  0  0  0  0
  146.9450  158.9350  133.0880 C   0  0  0  0  0  0  0  0  0  0  0  0
  148.4000  158.7440  132.9100 C   0  0  0  0  0  0  0  0  0  0  0  0
  148.8890  158.0700  131.7530 N   0  0  0  0  0  0  0  0  0  0  0  0
  149.2190  159.2130  133.7430 O   0  0  0  0  0  0  0  0  0  0  0  0
  146.0090  157.9490  133.1960 N   0  0  0  0  0  0  0  0  0  0  0  0
  146.1660  156.5330  132.9970 C   0  0  0  0  0  0  0  0  0  0  0  0
  147.3080  156.0150  132.9010 O   0  0  0  0  0  0  0  0  0  0  0  0
  144.8430  158.5800  133.4580 C   0  0  0  0  0  0  0  0  0  0  0  0
  143.5750  158.0170  133.6410 C   0  0  0  0  0  0  0  0  0  0  0  0
  141.1253  158.3511  136.1871 H   0  0  0  0  0  0  0  0  0  0  0  0
  140.1421  159.6352  135.4055 H   0  0  0  0  0  0  0  0  0  0  0  0
  139.5624  157.9350  135.4055 H   0  0  0  0  0  0  0  0  0  0  0  0
  141.0354  157.7090  132.0763 H   0  0  0  0  0  0  0  0  0  0  0  0
  140.4702  156.5136  133.3164 H   0  0  0  0  0  0  0  0  0  0  0  0
  138.3649  157.1623  132.9540 H   0  0  0  0  0  0  0  0  0  0  0  0
  138.8285  158.8263  133.5424 H   0  0  0  0  0  0  0  0  0  0  0  0
  139.6777  158.5023  130.8071 H   0  0  0  0  0  0  0  0  0  0  0  0
  137.9221  158.0728  130.9684 H   0  0  0  0  0  0  0  0  0  0  0  0
  141.8547  160.9570  134.1456 H   0  0  0  0  0  0  0  0  0  0  0  0
  144.1555  161.9037  133.7883 H   0  0  0  0  0  0  0  0  0  0  0  0
  146.8570  161.1674  133.2234 H   0  0  0  0  0  0  0  0  0  0  0  0
  148.5250  157.1290  131.4860 H   0  0  0  0  0  0  0  0  0  0  0  0
  145.2736  155.8936  132.9277 H   0  0  0  0  0  0  0  0  0  0  0  0
  143.4322  156.9274  133.5917 H   0  0  0  0  0  0  0  0  0  0  0  0
  1  2  1  0
  2  3  1  0
  3  4  1  0
  4  5  1  0
  5  6  1  0
  6  7  2  0
  6  8  1  0
  2  9  1  0
  9 10  2  0
 10 11  1  0
 11 12  2  0
 12 13  1  0
 13 14  2  0
 14 15  1  0
 15 16  1  0
 15 17  2  0
 14 18  1  0
 18 19  1  0
 19 20  2  0
 18 21  1  0
 21 22  2  0
 22  9  1  0
 21 12  1  0
  1 23  1  0
  1 24  1  0
  1 25  1  0
  3 26  1  0
  3 27  1  0
  4 28  1  0
  4 29  1  0
  5 30  1  0
  5 31  1  0
 10 32  1  0
 11 33  1  0
 13 34  1  0
 16 35  1  0
 19 36  1  0
 22 37  1  0
M  CHG  2   8  -1  16  -1
M  END
>  <UniqueID>  (73) 
72

>  <SMILES>  (73) 
CN(CCCC(=O)[O-])c1ccc2cc(C([NH-])=O)n(C=O)c2c1

>  <Energy>  (73) 
72.5622564412506

>  <Genealogy>  (73) 
CN(CCCC(=O)[O-])c1ccc2cc(C([NH-])=O)n(C=O)c2c1 (protonated)
CN(CCCC(=O)[O-])c1ccc2cc(C([NH-])=O)n(C=O)c2c1 (3D coordinates assigned)
CN(CCCC(=O)[O-])c1ccc2cc(C([NH-])=O)n(C=O)c2c1 (optimized conformer: 72.5622564412506 kcal/mol)

>  <smiles>  (73) 
CN(CCCC(=O)O)c1ccc2cc(C(N)=O)n(C=O)c2c1

>  <score_type>  (73) 
oracle

>  <origin>  (73) 
adg

>  <m_score__min__energy>  (73) 
-6.4800000000000004

>  <m_primary>  (73) 
energy

$$$$
76:0
     RDKit          3D

 38 39  0  0  0  0  0  0  0  0999 V2000
  148.3160  154.8480  132.7410 C   0  0  0  0  0  0  0  0  0  0  0  0
  147.9070  156.2820  132.9010 C   0  0  0  0  0  0  0  0  0  0  0  0
  148.8450  157.3160  132.6700 C   0  0  0  0  0  0  0  0  0  0  0  0
  148.4630  158.6640  132.7670 C   0  0  0  0  0  0  0  0  0  0  0  0
  147.1390  158.9450  133.0930 C   0  0  0  0  0  0  0  0  0  0  0  0
  146.4970  160.1560  133.2110 C   0  0  0  0  0  0  0  0  0  0  0  0
  145.1780  159.8430  133.5270 C   0  0  0  0  0  0  0  0  0  0  0  0
  144.1450  160.8620  133.8000 C   0  0  0  0  0  0  0  0  0  0  0  0
  142.8140  160.4870  134.1580 N   0  0  0  0  0  0  0  0  0  0  0  0
  144.4560  162.0820  133.7700 O   0  0  0  0  0  0  0  0  0  0  0  0
  145.0040  158.4920  133.5900 N   0  0  0  0  0  0  0  0  0  0  0  0
  143.7640  157.7860  133.7640 C   0  0  0  0  0  0  0  0  0  0  0  0
  143.5880  157.0680  134.7860 O   0  0  0  0  0  0  0  0  0  0  0  0
  142.7630  157.9030  132.7900 O   0  0  0  0  0  0  0  0  0  0  0  0
  141.4420  158.3070  133.0290 C   0  0  0  0  0  0  0  0  0  0  0  0
  141.0360  159.4380  132.6400 O   0  0  0  0  0  0  0  0  0  0  0  0
  140.5460  157.4210  133.7220 N   0  0  0  0  0  0  0  0  0  0  0  0
  139.9100  156.3280  132.9810 C   0  0  0  0  0  0  0  0  0  0  0  0
  140.2930  157.5840  135.1600 C   0  0  0  0  0  0  0  0  0  0  0  0
  141.0510  158.7610  135.6830 C   0  0  0  0  0  0  0  0  0  0  0  0
  142.1050  158.5890  136.3500 O   0  0  0  0  0  0  0  0  0  0  0  0
  140.6170  160.0510  135.4030 O   0  0  0  0  0  0  0  0  0  0  0  0
  146.2170  157.9550  133.3240 C   0  0  0  0  0  0  0  0  0  0  0  0
  146.5680  156.6040  133.2120 C   0  0  0  0  0  0  0  0  0  0  0  0
  148.4463  154.3910  133.7331 H   0  0  0  0  0  0  0  0  0  0  0  0
  147.5371  154.3043  132.1863 H   0  0  0  0  0  0  0  0  0  0  0  0
  149.2645  154.7970  132.1863 H   0  0  0  0  0  0  0  0  0  0  0  0
  149.8836  157.0615  132.4119 H   0  0  0  0  0  0  0  0  0  0  0  0
  149.1875  159.4727  132.5908 H   0  0  0  0  0  0  0  0  0  0  0  0
  146.9329  161.1578  133.0830 H   0  0  0  0  0  0  0  0  0  0  0  0
  142.5660  159.4910  134.3460 H   0  0  0  0  0  0  0  0  0  0  0  0
  142.0860  161.2210  134.3090 H   0  0  0  0  0  0  0  0  0  0  0  0
  139.4872  155.6014  133.6904 H   0  0  0  0  0  0  0  0  0  0  0  0
  139.1065  156.7329  132.3482 H   0  0  0  0  0  0  0  0  0  0  0  0
  140.6590  155.8294  132.3482 H   0  0  0  0  0  0  0  0  0  0  0  0
  139.2169  157.7415  135.3248 H   0  0  0  0  0  0  0  0  0  0  0  0
  140.6233  156.6781  135.6893 H   0  0  0  0  0  0  0  0  0  0  0  0
  145.8187  155.8129  133.3627 H   0  0  0  0  0  0  0  0  0  0  0  0
  1  2  1  0
  2  3  2  0
  3  4  1  0
  4  5  2  0
  5  6  1  0
  6  7  2  0
  7  8  1  0
  8  9  1  0
  8 10  2  0
  7 11  1  0
 11 12  1  0
 12 13  2  0
 12 14  1  0
 14 15  1  0
 15 16  2  0
 15 17  1  0
 17 18  1  0
 17 19  1  0
 19 20  1  0
 20 21  2  0
 20 22  1  0
 11 23  1  0
 23 24  2  0
 24  2  1  0
 23  5  1  0
  1 25  1  0
  1 26  1  0
  1 27  1  0
  3 28  1  0
  4 29  1  0
  6 30  1  0
  9 31  1  0
  9 32  1  0
 18 33  1  0
 18 34  1  0
 18 35  1  0
 19 36  1  0
 19 37  1  0
 24 38  1  0
M  CHG  1  22  -1
M  END
>  <UniqueID>  (74) 
73

>  <SMILES>  (74) 
Cc1ccc2cc(C(N)=O)n(C(=O)OC(=O)N(C)CC(=O)[O-])c2c1

>  <Energy>  (74) 
73.442114718607

>  <Genealogy>  (74) 
Cc1ccc2cc(C(N)=O)n(C(=O)OC(=O)N(C)CC(=O)[O-])c2c1 (protonated)
Cc1ccc2cc(C(N)=O)n(C(=O)OC(=O)N(C)CC(=O)[O-])c2c1 (3D coordinates assigned)
Cc1ccc2cc(C(N)=O)n(C(=O)OC(=O)N(C)CC(=O)[O-])c2c1 (optimized conformer: 73.442114718607 kcal/mol)

>  <smiles>  (74) 
Cc1ccc2cc(C(N)=O)n(C(=O)OC(=O)N(C)CC(=O)O)c2c1

>  <score_type>  (74) 
oracle

>  <origin>  (74) 
adg

>  <m_score__min__energy>  (74) 
-6.1500000000000004

>  <m_primary>  (74) 
energy

$$$$
77:0
     RDKit          3D

 53 54  0  0  0  0  0  0  0  0999 V2000
  139.9260  155.9310  133.4050 C   0  0  0  0  0  0  0  0  0  0  0  0
  140.9910  155.2100  134.1070 N   0  0  0  0  0  0  0  0  0  0  0  0
  141.4200  155.6590  135.4390 C   0  0  0  0  0  0  0  0  0  0  0  0
  142.7240  156.4500  135.3520 C   0  0  0  0  0  0  0  0  0  0  0  0
  143.0800  156.6460  133.9890 O   0  0  0  0  0  0  0  0  0  0  0  0
  142.7900  157.8200  133.2840 C   0  0  0  0  0  0  0  0  0  0  0  0
  141.8390  157.8440  132.4540 O   0  0  0  0  0  0  0  0  0  0  0  0
  143.5770  159.0020  133.5110 N   0  0  0  0  0  0  0  0  0  0  0  0
  143.1400  160.2460  133.8630 C   0  0  0  0  0  0  0  0  0  0  0  0
  141.7320  160.6820  133.9510 C   0  0  0  0  0  0  0  0  0  0  0  0
  140.6930  159.7500  134.2400 N   0  0  0  0  0  0  0  0  0  0  0  0
  141.4350  161.8820  133.7080 O   0  0  0  0  0  0  0  0  0  0  0  0
  144.2180  161.1140  134.0270 C   0  0  0  0  0  0  0  0  0  0  0  0
  145.3360  160.3630  133.7470 C   0  0  0  0  0  0  0  0  0  0  0  0
  146.6780  160.7320  133.7170 C   0  0  0  0  0  0  0  0  0  0  0  0
  147.6240  159.7560  133.3700 C   0  0  0  0  0  0  0  0  0  0  0  0
  147.2240  158.4250  133.0910 C   0  0  0  0  0  0  0  0  0  0  0  0
  148.2570  157.4150  132.6590 C   0  0  0  0  0  0  0  0  0  0  0  0
  149.2570  158.0390  131.9320 F   0  0  0  0  0  0  0  0  0  0  0  0
  148.8360  156.7910  133.7490 F   0  0  0  0  0  0  0  0  0  0  0  0
  147.6500  156.4590  131.8660 F   0  0  0  0  0  0  0  0  0  0  0  0
  145.8510  158.0890  133.1320 C   0  0  0  0  0  0  0  0  0  0  0  0
  144.9250  159.0920  133.4420 C   0  0  0  0  0  0  0  0  0  0  0  0
  141.6660  154.1290  133.4390 C   0  0  0  0  0  0  0  0  0  0  0  0
  142.8670  154.2580  133.0770 O   0  0  0  0  0  0  0  0  0  0  0  0
  140.9940  152.9230  133.2080 O   0  0  0  0  0  0  0  0  0  0  0  0
  141.3790  151.6900  133.8170 C   0  0  0  0  0  0  0  0  0  0  0  0
  141.5810  150.6830  132.8290 O   0  0  0  0  0  0  0  0  0  0  0  0
  140.6280  149.7050  132.5280 C   0  0  0  0  0  0  0  0  0  0  0  0
  140.2970  148.8440  133.3910 O   0  0  0  0  0  0  0  0  0  0  0  0
  140.0650  149.6380  131.1380 C   0  0  0  0  0  0  0  0  0  0  0  0
  140.3110  148.2840  130.4560 C   0  0  0  0  0  0  0  0  0  0  0  0
  139.0490  147.6910  129.9040 C   0  0  0  0  0  0  0  0  0  0  0  0
  138.0750  148.4340  129.6060 O   0  0  0  0  0  0  0  0  0  0  0  0
  138.9590  146.3190  129.6990 O   0  0  0  0  0  0  0  0  0  0  0  0
  139.2480  156.3900  134.1396 H   0  0  0  0  0  0  0  0  0  0  0  0
  140.3687  156.7159  132.7742 H   0  0  0  0  0  0  0  0  0  0  0  0
  139.3617  155.2284  132.7742 H   0  0  0  0  0  0  0  0  0  0  0  0
  140.6380  156.2997  135.8726 H   0  0  0  0  0  0  0  0  0  0  0  0
  141.5860  154.7749  136.0721 H   0  0  0  0  0  0  0  0  0  0  0  0
  142.5911  157.4275  135.8387 H   0  0  0  0  0  0  0  0  0  0  0  0
  143.5231  155.8887  135.8584 H   0  0  0  0  0  0  0  0  0  0  0  0
  140.8590  158.7220  134.1640 H   0  0  0  0  0  0  0  0  0  0  0  0
  144.1824  162.1741  134.3183 H   0  0  0  0  0  0  0  0  0  0  0  0
  146.9877  161.7595  133.9585 H   0  0  0  0  0  0  0  0  0  0  0  0
  148.6887  160.0267  133.3137 H   0  0  0  0  0  0  0  0  0  0  0  0
  145.5177  157.0614  132.9247 H   0  0  0  0  0  0  0  0  0  0  0  0
  142.3141  151.8399  134.3766 H   0  0  0  0  0  0  0  0  0  0  0  0
  140.5768  151.3645  134.4956 H   0  0  0  0  0  0  0  0  0  0  0  0
  138.9802  149.8122  131.1903 H   0  0  0  0  0  0  0  0  0  0  0  0
  140.5756  150.4061  130.5386 H   0  0  0  0  0  0  0  0  0  0  0  0
  141.0254  148.4269  129.6319 H   0  0  0  0  0  0  0  0  0  0  0  0
  140.7071  147.5912  131.2131 H   0  0  0  0  0  0  0  0  0  0  0  0
  1  2  1  0
  2  3  1  0
  3  4  1  0
  4  5  1  0
  5  6  1  0
  6  7  2  0
  6  8  1  0
  8  9  1  0
  9 10  1  0
 10 11  1  0
 10 12  2  0
  9 13  2  0
 13 14  1  0
 14 15  2  0
 15 16  1  0
 16 17  2  0
 17 18  1  0
 18 19  1  0
 18 20  1  0
 18 21  1  0
 17 22  1  0
 22 23  2  0
  2 24  1  0
 24 25  2  0
 24 26  1  0
 26 27  1  0
 27 28  1  0
 28 29  1  0
 29 30  2  0
 29 31  1  0
 31 32  1  0
 32 33  1  0
 33 34  2  0
 33 35  1  0
 23  8  1  0
 23 14  1  0
  1 36  1  0
  1 37  1  0
  1 38  1  0
  3 39  1  0
  3 40  1  0
  4 41  1  0
  4 42  1  0
 11 43  1  0
 13 44  1  0
 15 45  1  0
 16 46  1  0
 22 47  1  0
 27 48  1  0
 27 49  1  0
 31 50  1  0
 31 51  1  0
 32 52  1  0
 32 53  1  0
M  CHG  2  11  -1  35  -1
M  END
>  <UniqueID>  (75) 
74

>  <SMILES>  (75) 
CN(CCOC(=O)n1c(C([NH-])=O)cc2ccc(C(F)(F)F)cc21)C(=O)OCOC(=O)CCC(=O)[O-]

>  <Energy>  (75) 
78.29955516883523

>  <Genealogy>  (75) 
CN(CCOC(=O)n1c(C([NH-])=O)cc2ccc(C(F)(F)F)cc21)C(=O)OCOC(=O)CCC(=O)[O-] (protonated)
CN(CCOC(=O)n1c(C([NH-])=O)cc2ccc(C(F)(F)F)cc21)C(=O)OCOC(=O)CCC(=O)[O-] (3D coordinates assigned)
CN(CCOC(=O)n1c(C([NH-])=O)cc2ccc(C(F)(F)F)cc21)C(=O)OCOC(=O)CCC(=O)[O-] (optimized conformer: 78.29955516883523 kcal/mol)

>  <smiles>  (75) 
CN(CCOC(=O)n1c(C(N)=O)cc2ccc(C(F)(F)F)cc21)C(=O)OCOC(=O)CCC(=O)O

>  <score_type>  (75) 
oracle

>  <origin>  (75) 
adg

>  <m_score__min__energy>  (75) 
-6.5800000000000001

>  <m_primary>  (75) 
energy

$$$$
78:0
     RDKit          3D

 36 37  0  0  0  0  0  0  0  0999 V2000
  138.8770  158.3450  131.9780 C   0  0  0  0  0  0  0  0  0  0  0  0
  139.1380  157.5070  132.9720 C   0  0  0  0  0  0  0  0  0  0  0  0
  140.2490  156.6660  132.8940 O   0  0  0  0  0  0  0  0  0  0  0  0
  140.1610  155.2720  132.9900 C   0  0  0  0  0  0  0  0  0  0  0  0
  139.0350  154.7050  132.9890 O   0  0  0  0  0  0  0  0  0  0  0  0
  141.3570  154.4880  133.1380 N   0  0  0  0  0  0  0  0  0  0  0  0
  142.6350  154.9450  133.2630 C   0  0  0  0  0  0  0  0  0  0  0  0
  143.0350  156.3560  133.4300 C   0  0  0  0  0  0  0  0  0  0  0  0
  142.6700  157.3450  132.4670 N   0  0  0  0  0  0  0  0  0  0  0  0
  143.6720  156.7020  134.4600 O   0  0  0  0  0  0  0  0  0  0  0  0
  143.5420  153.8890  133.2380 C   0  0  0  0  0  0  0  0  0  0  0  0
  142.7740  152.7560  133.1040 C   0  0  0  0  0  0  0  0  0  0  0  0
  143.1600  151.4240  132.9990 C   0  0  0  0  0  0  0  0  0  0  0  0
  142.1570  150.4600  132.8100 C   0  0  0  0  0  0  0  0  0  0  0  0
  140.7930  150.8340  132.7220 C   0  0  0  0  0  0  0  0  0  0  0  0
  139.8020  149.8080  132.5150 N   0  0  0  0  0  0  0  0  0  0  0  0
  139.9850  148.6280  131.6650 C   0  0  0  0  0  0  0  0  0  0  0  0
  138.7420  148.3680  130.8090 C   0  0  0  0  0  0  0  0  0  0  0  0
  137.7120  149.2580  131.1500 O   0  0  0  0  0  0  0  0  0  0  0  0
  140.4410  152.2010  132.8400 C   0  0  0  0  0  0  0  0  0  0  0  0
  141.4600  153.1420  133.0440 C   0  0  0  0  0  0  0  0  0  0  0  0
  138.0026  159.0100  132.0345 H   0  0  0  0  0  0  0  0  0  0  0  0
  139.5349  158.3751  131.0969 H   0  0  0  0  0  0  0  0  0  0  0  0
  138.4817  157.4749  133.8542 H   0  0  0  0  0  0  0  0  0  0  0  0
  142.0100  157.1230  131.6900 H   0  0  0  0  0  0  0  0  0  0  0  0
  143.0190  158.3250  132.5650 H   0  0  0  0  0  0  0  0  0  0  0  0
  144.6381  153.9482  133.3100 H   0  0  0  0  0  0  0  0  0  0  0  0
  144.2193  151.1345  133.0621 H   0  0  0  0  0  0  0  0  0  0  0  0
  142.4341  149.3986  132.7290 H   0  0  0  0  0  0  0  0  0  0  0  0
  138.8670  149.9210  132.9700 H   0  0  0  0  0  0  0  0  0  0  0  0
  140.8488  148.7917  131.0039 H   0  0  0  0  0  0  0  0  0  0  0  0
  140.1535  147.7541  132.3114 H   0  0  0  0  0  0  0  0  0  0  0  0
  138.9993  148.5023  129.7480 H   0  0  0  0  0  0  0  0  0  0  0  0
  138.3961  147.3396  130.9896 H   0  0  0  0  0  0  0  0  0  0  0  0
  137.1740  148.8160  131.8570 H   0  0  0  0  0  0  0  0  0  0  0  0
  139.3897  152.5177  132.7729 H   0  0  0  0  0  0  0  0  0  0  0  0
  1  2  2  0
  2  3  1  0
  3  4  1  0
  4  5  2  0
  4  6  1  0
  6  7  1  0
  7  8  1  0
  8  9  1  0
  8 10  2  0
  7 11  2  0
 11 12  1  0
 12 13  2  0
 13 14  1  0
 14 15  2  0
 15 16  1  0
 16 17  1  0
 17 18  1  0
 18 19  1  0
 15 20  1  0
 20 21  2  0
 21  6  1  0
 21 12  1  0
  1 22  1  0
  1 23  1  0
  2 24  1  0
  9 25  1  0
  9 26  1  0
 11 27  1  0
 13 28  1  0
 14 29  1  0
 16 30  1  0
 17 31  1  0
 17 32  1  0
 18 33  1  0
 18 34  1  0
 19 35  1  0
 20 36  1  0
M  END
>  <UniqueID>  (76) 
75

>  <SMILES>  (76) 
C=COC(=O)n1c(C(N)=O)cc2ccc(NCCO)cc21

>  <Energy>  (76) 
70.67925508188719

>  <Genealogy>  (76) 
C=COC(=O)n1c(C(N)=O)cc2ccc(NCCO)cc21 (3D coordinates assigned)
C=COC(=O)n1c(C(N)=O)cc2ccc(NCCO)cc21 (optimized conformer: 70.67925508188719 kcal/mol)

>  <smiles>  (76) 
C=COC(=O)n1c(C(N)=O)cc2ccc(NCCO)cc21

>  <score_type>  (76) 
oracle

>  <origin>  (76) 
adg

>  <m_score__min__energy>  (76) 
-6.46

>  <m_primary>  (76) 
energy

$$$$
79:0
     RDKit          3D

 39 40  0  0  0  0  0  0  0  0999 V2000
  149.2190  160.2750  130.5530 C   0  0  0  0  0  0  0  0  0  0  0  0
  148.4670  160.3570  131.8770 C   0  0  0  0  0  0  0  0  0  0  0  0
  147.4530  159.3580  131.9410 O   0  0  0  0  0  0  0  0  0  0  0  0
  147.3220  158.4590  133.0070 C   0  0  0  0  0  0  0  0  0  0  0  0
  148.3020  158.2210  133.7650 O   0  0  0  0  0  0  0  0  0  0  0  0
  146.0680  157.7940  133.2270 N   0  0  0  0  0  0  0  0  0  0  0  0
  144.8460  158.3650  133.4230 C   0  0  0  0  0  0  0  0  0  0  0  0
  144.5850  159.8050  133.6320 C   0  0  0  0  0  0  0  0  0  0  0  0
  145.6580  160.7350  133.7440 N   0  0  0  0  0  0  0  0  0  0  0  0
  143.4000  160.2110  133.7630 O   0  0  0  0  0  0  0  0  0  0  0  0
  143.8550  157.3890  133.4890 C   0  0  0  0  0  0  0  0  0  0  0  0
  144.5120  156.1910  133.3330 C   0  0  0  0  0  0  0  0  0  0  0  0
  144.0120  154.8920  133.3120 C   0  0  0  0  0  0  0  0  0  0  0  0
  144.9200  153.8400  133.1080 C   0  0  0  0  0  0  0  0  0  0  0  0
  146.3010  154.1020  132.9110 C   0  0  0  0  0  0  0  0  0  0  0  0
  147.2270  153.0130  132.7220 N   0  0  0  0  0  0  0  0  0  0  0  0
  148.6010  153.4740  132.9780 C   0  0  0  0  0  0  0  0  0  0  0  0
  149.6310  152.3790  132.6700 C   0  0  0  0  0  0  0  0  0  0  0  0
  149.0520  151.2960  131.8140 C   0  0  0  0  0  0  0  0  0  0  0  0
  149.6110  150.9760  130.7320 O   0  0  0  0  0  0  0  0  0  0  0  0
  147.8750  150.6630  132.1940 O   0  0  0  0  0  0  0  0  0  0  0  0
  146.7710  155.4350  132.9500 C   0  0  0  0  0  0  0  0  0  0  0  0
  145.8460  156.4620  133.1750 C   0  0  0  0  0  0  0  0  0  0  0  0
  150.2950  160.1577  130.7491 H   0  0  0  0  0  0  0  0  0  0  0  0
  148.8549  159.4112  129.9774 H   0  0  0  0  0  0  0  0  0  0  0  0
  149.0496  161.1969  129.9774 H   0  0  0  0  0  0  0  0  0  0  0  0
  149.1754  160.2065  132.7049 H   0  0  0  0  0  0  0  0  0  0  0  0
  147.9944  161.3472  131.9555 H   0  0  0  0  0  0  0  0  0  0  0  0
  146.3060  160.9070  132.9430 H   0  0  0  0  0  0  0  0  0  0  0  0
  142.7757  157.5435  133.6349 H   0  0  0  0  0  0  0  0  0  0  0  0
  142.9386  154.6954  133.4509 H   0  0  0  0  0  0  0  0  0  0  0  0
  144.5569  152.8017  133.1008 H   0  0  0  0  0  0  0  0  0  0  0  0
  146.9870  152.2300  133.3760 H   0  0  0  0  0  0  0  0  0  0  0  0
  147.1440  152.6540  131.7430 H   0  0  0  0  0  0  0  0  0  0  0  0
  148.8084  154.3479  132.3430 H   0  0  0  0  0  0  0  0  0  0  0  0
  148.6836  153.7341  134.0436 H   0  0  0  0  0  0  0  0  0  0  0  0
  150.4845  152.8310  132.1435 H   0  0  0  0  0  0  0  0  0  0  0  0
  149.9473  151.9294  133.6228 H   0  0  0  0  0  0  0  0  0  0  0  0
  147.8382  155.6600  132.8069 H   0  0  0  0  0  0  0  0  0  0  0  0
  1  2  1  0
  2  3  1  0
  3  4  1  0
  4  5  2  0
  4  6  1  0
  6  7  1  0
  7  8  1  0
  8  9  1  0
  8 10  2  0
  7 11  2  0
 11 12  1  0
 12 13  2  0
 13 14  1  0
 14 15  2  0
 15 16  1  0
 16 17  1  0
 17 18  1  0
 18 19  1  0
 19 20  2  0
 19 21  1  0
 15 22  1  0
 22 23  2  0
 23  6  1  0
 23 12  1  0
  1 24  1  0
  1 25  1  0
  1 26  1  0
  2 27  1  0
  2 28  1  0
  9 29  1  0
 11 30  1  0
 13 31  1  0
 14 32  1  0
 16 33  1  0
 16 34  1  0
 17 35  1  0
 17 36  1  0
 18 37  1  0
 18 38  1  0
 22 39  1  0
M  CHG  3   9  -1  16   1  21  -1
M  END
>  <UniqueID>  (77) 
76

>  <SMILES>  (77) 
CCOC(=O)n1c(C([NH-])=O)cc2ccc([NH2+]CCC(=O)[O-])cc21

>  <Energy>  (77) 
72.10221254381436

>  <Genealogy>  (77) 
CCOC(=O)n1c(C([NH-])=O)cc2ccc([NH2+]CCC(=O)[O-])cc21 (protonated)
CCOC(=O)n1c(C([NH-])=O)cc2ccc([NH2+]CCC(=O)[O-])cc21 (3D coordinates assigned)
CCOC(=O)n1c(C([NH-])=O)cc2ccc([NH2+]CCC(=O)[O-])cc21 (optimized conformer: 72.10221254381436 kcal/mol)

>  <smiles>  (77) 
CCOC(=O)n1c(C(N)=O)cc2ccc(NCCC(=O)O)cc21

>  <score_type>  (77) 
oracle

>  <origin>  (77) 
adg

>  <m_score__min__energy>  (77) 
-6.04

>  <m_primary>  (77) 
energy

$$$$
80:0
     RDKit          3D

 55 58  0  0  0  0  0  0  0  0999 V2000
  150.7590  150.3170  130.7280 C   0  0  0  0  0  0  0  0  0  0  0  0
  150.5320  151.0070  131.9530 O   0  0  0  0  0  0  0  0  0  0  0  0
  149.4410  151.8560  132.1950 C   0  0  0  0  0  0  0  0  0  0  0  0
  148.1680  151.2840  132.2920 C   0  0  0  0  0  0  0  0  0  0  0  0
  147.0450  152.0790  132.5330 C   0  0  0  0  0  0  0  0  0  0  0  0
  147.1820  153.4660  132.6830 C   0  0  0  0  0  0  0  0  0  0  0  0
  146.0610  154.2740  132.9270 C   0  0  0  0  0  0  0  0  0  0  0  0
  146.2010  155.6640  133.0830 C   0  0  0  0  0  0  0  0  0  0  0  0
  145.0130  156.5160  133.3400 C   0  0  0  0  0  0  0  0  0  0  0  0
  145.1640  157.9130  133.5320 C   0  0  0  0  0  0  0  0  0  0  0  0
  144.0500  158.7250  133.8000 C   0  0  0  0  0  0  0  0  0  0  0  0
  142.7990  158.1180  133.8600 C   0  0  0  0  0  0  0  0  0  0  0  0
  141.5680  158.6700  134.1210 C   0  0  0  0  0  0  0  0  0  0  0  0
  140.6750  157.6060  134.0780 C   0  0  0  0  0  0  0  0  0  0  0  0
  139.2330  157.7630  134.3190 C   0  0  0  0  0  0  0  0  0  0  0  0
  138.2810  157.3120  133.3550 N   0  0  0  0  0  0  0  0  0  0  0  0
  138.8350  158.2340  135.4170 O   0  0  0  0  0  0  0  0  0  0  0  0
  141.3160  156.4400  133.7730 N   0  0  0  0  0  0  0  0  0  0  0  0
  140.7070  155.1640  133.4840 C   0  0  0  0  0  0  0  0  0  0  0  0
  139.7910  155.0860  132.6230 O   0  0  0  0  0  0  0  0  0  0  0  0
  141.1080  154.0210  134.1900 O   0  0  0  0  0  0  0  0  0  0  0  0
  142.0520  153.0320  133.7520 C   0  0  0  0  0  0  0  0  0  0  0  0
  141.3500  151.6700  133.8400 C   0  0  0  0  0  0  0  0  0  0  0  0
  142.4630  153.2860  132.2890 C   0  0  0  0  0  0  0  0  0  0  0  0
  143.2890  153.0140  134.6700 C   0  0  0  0  0  0  0  0  0  0  0  0
  142.6250  156.7730  133.6570 C   0  0  0  0  0  0  0  0  0  0  0  0
  143.7240  155.9380  133.4060 C   0  0  0  0  0  0  0  0  0  0  0  0
  147.4810  156.2380  132.9920 C   0  0  0  0  0  0  0  0  0  0  0  0
  148.6020  155.4420  132.7460 C   0  0  0  0  0  0  0  0  0  0  0  0
  148.4640  154.0550  132.5900 C   0  0  0  0  0  0  0  0  0  0  0  0
  149.5870  153.2480  132.3450 C   0  0  0  0  0  0  0  0  0  0  0  0
  151.0962  149.2920  130.9416 H   0  0  0  0  0  0  0  0  0  0  0  0
  149.8249  150.2824  130.1481 H   0  0  0  0  0  0  0  0  0  0  0  0
  151.5312  150.8437  130.1481 H   0  0  0  0  0  0  0  0  0  0  0  0
  148.0501  150.1964  132.1773 H   0  0  0  0  0  0  0  0  0  0  0  0
  146.0502  151.6153  132.6053 H   0  0  0  0  0  0  0  0  0  0  0  0
  145.0636  153.8155  132.9969 H   0  0  0  0  0  0  0  0  0  0  0  0
  146.1647  158.3655  133.4703 H   0  0  0  0  0  0  0  0  0  0  0  0
  144.1627  159.8078  133.9577 H   0  0  0  0  0  0  0  0  0  0  0  0
  141.3386  159.7271  134.3210 H   0  0  0  0  0  0  0  0  0  0  0  0
  138.5960  156.8350  132.4820 H   0  0  0  0  0  0  0  0  0  0  0  0
  137.2590  157.4320  133.5270 H   0  0  0  0  0  0  0  0  0  0  0  0
  141.2095  151.3975  134.8964 H   0  0  0  0  0  0  0  0  0  0  0  0
  140.3703  151.7297  133.3433 H   0  0  0  0  0  0  0  0  0  0  0  0
  141.9670  150.9067  133.3433 H   0  0  0  0  0  0  0  0  0  0  0  0
  143.3985  153.8642  132.2661 H   0  0  0  0  0  0  0  0  0  0  0  0
  142.6141  152.3236  131.7782 H   0  0  0  0  0  0  0  0  0  0  0  0
  141.6698  153.8516  131.7782 H   0  0  0  0  0  0  0  0  0  0  0  0
  142.9655  153.0187  135.7213 H   0  0  0  0  0  0  0  0  0  0  0  0
  143.8793  152.1072  134.4721 H   0  0  0  0  0  0  0  0  0  0  0  0
  143.9055  153.9033  134.4721 H   0  0  0  0  0  0  0  0  0  0  0  0
  143.5860  154.8560  133.2635 H   0  0  0  0  0  0  0  0  0  0  0  0
  147.6009  157.3244  133.1157 H   0  0  0  0  0  0  0  0  0  0  0  0
  149.5973  155.9049  132.6743 H   0  0  0  0  0  0  0  0  0  0  0  0
  150.5846  153.7055  132.2700 H   0  0  0  0  0  0  0  0  0  0  0  0
  1  2  1  0
  2  3  1  0
  3  4  2  0
  4  5  1  0
  5  6  2  0
  6  7  1  0
  7  8  2  0
  8  9  1  0
  9 10  2  0
 10 11  1  0
 11 12  2  0
 12 13  1  0
 13 14  2  0
 14 15  1  0
 15 16  1  0
 15 17  2  0
 14 18  1  0
 18 19  1  0
 19 20  2  0
 19 21  1  0
 21 22  1  0
 22 23  1  0
 22 24  1  0
 22 25  1  0
 18 26  1  0
 26 27  2  0
  8 28  1  0
 28 29  2  0
 29 30  1  0
 30 31  2  0
 31  3  1  0
 30  6  1  0
 27  9  1  0
 26 12  1  0
  1 32  1  0
  1 33  1  0
  1 34  1  0
  4 35  1  0
  5 36  1  0
  7 37  1  0
 10 38  1  0
 11 39  1  0
 13 40  1  0
 16 41  1  0
 16 42  1  0
 23 43  1  0
 23 44  1  0
 23 45  1  0
 24 46  1  0
 24 47  1  0
 24 48  1  0
 25 49  1  0
 25 50  1  0
 25 51  1  0
 27 52  1  0
 28 53  1  0
 29 54  1  0
 31 55  1  0
M  END
>  <UniqueID>  (78) 
77

>  <SMILES>  (78) 
COc1ccc2cc(-c3ccc4cc(C(N)=O)n(C(=O)OC(C)(C)C)c4c3)ccc2c1

>  <Energy>  (78) 
103.85226521329744

>  <Genealogy>  (78) 
COc1ccc2cc(-c3ccc4cc(C(N)=O)n(C(=O)OC(C)(C)C)c4c3)ccc2c1 (3D coordinates assigned)
COc1ccc2cc(-c3ccc4cc(C(N)=O)n(C(=O)OC(C)(C)C)c4c3)ccc2c1 (optimized conformer: 103.85226521329744 kcal/mol)

>  <smiles>  (78) 
COc1ccc2cc(-c3ccc4cc(C(N)=O)n(C(=O)OC(C)(C)C)c4c3)ccc2c1

>  <score_type>  (78) 
oracle

>  <origin>  (78) 
adg

>  <m_score__min__energy>  (78) 
-10.33

>  <m_primary>  (78) 
energy

$$$$
81:0
     RDKit          3D

 45 46  0  0  0  0  0  0  0  0999 V2000
  141.6720  156.6720  138.4050 C   0  0  0  0  0  0  0  0  0  0  0  0
  140.9280  157.4520  137.6170 C   0  0  0  0  0  0  0  0  0  0  0  0
  141.3140  158.8770  137.3540 C   0  0  0  0  0  0  0  0  0  0  0  0
  140.7700  159.2980  136.1070 O   0  0  0  0  0  0  0  0  0  0  0  0
  139.9510  158.4780  135.3250 C   0  0  0  0  0  0  0  0  0  0  0  0
  138.7660  158.2340  135.6830 O   0  0  0  0  0  0  0  0  0  0  0  0
  140.4730  157.9220  134.1120 N   0  0  0  0  0  0  0  0  0  0  0  0
  139.7070  157.0330  133.2390 C   0  0  0  0  0  0  0  0  0  0  0  0
  139.7530  155.7010  133.7430 O   0  0  0  0  0  0  0  0  0  0  0  0
  140.6110  154.7220  133.2280 C   0  0  0  0  0  0  0  0  0  0  0  0
  140.1530  153.7160  132.6210 O   0  0  0  0  0  0  0  0  0  0  0  0
  142.0850  154.8610  133.4130 C   0  0  0  0  0  0  0  0  0  0  0  0
  142.4550  156.2220  133.2210 O   0  0  0  0  0  0  0  0  0  0  0  0
  143.2450  156.9290  134.1320 C   0  0  0  0  0  0  0  0  0  0  0  0
  142.8050  157.1930  135.2840 O   0  0  0  0  0  0  0  0  0  0  0  0
  144.5520  157.3770  133.7390 N   0  0  0  0  0  0  0  0  0  0  0  0
  144.9920  158.6600  133.5880 C   0  0  0  0  0  0  0  0  0  0  0  0
  144.2340  159.8830  133.9250 C   0  0  0  0  0  0  0  0  0  0  0  0
  142.8090  159.8470  133.9630 N   0  0  0  0  0  0  0  0  0  0  0  0
  144.8280  160.9720  134.1440 O   0  0  0  0  0  0  0  0  0  0  0  0
  146.3150  158.6730  133.1470 C   0  0  0  0  0  0  0  0  0  0  0  0
  146.6780  157.3500  133.0390 C   0  0  0  0  0  0  0  0  0  0  0  0
  147.8830  156.7810  132.6380 C   0  0  0  0  0  0  0  0  0  0  0  0
  147.9690  155.3790  132.5990 C   0  0  0  0  0  0  0  0  0  0  0  0
  146.8570  154.5790  132.9540 C   0  0  0  0  0  0  0  0  0  0  0  0
  146.9540  153.1530  132.9000 N   0  0  0  0  0  0  0  0  0  0  0  0
  145.6490  155.1890  133.3550 C   0  0  0  0  0  0  0  0  0  0  0  0
  145.5960  156.5880  133.4020 C   0  0  0  0  0  0  0  0  0  0  0  0
  141.3733  155.6290  138.5866 H   0  0  0  0  0  0  0  0  0  0  0  0
  142.5836  157.0724  138.8726 H   0  0  0  0  0  0  0  0  0  0  0  0
  140.0180  157.0430  137.1537 H   0  0  0  0  0  0  0  0  0  0  0  0
  140.9224  159.5166  138.1587 H   0  0  0  0  0  0  0  0  0  0  0  0
  142.4105  158.9576  137.3196 H   0  0  0  0  0  0  0  0  0  0  0  0
  141.4640  158.1320  133.8570 H   0  0  0  0  0  0  0  0  0  0  0  0
  138.6614  157.3723  133.1998 H   0  0  0  0  0  0  0  0  0  0  0  0
  140.1425  157.0535  132.2291 H   0  0  0  0  0  0  0  0  0  0  0  0
  142.3594  154.5452  134.4303 H   0  0  0  0  0  0  0  0  0  0  0  0
  142.6103  154.2288  132.6819 H   0  0  0  0  0  0  0  0  0  0  0  0
  142.3070  159.1770  134.5870 H   0  0  0  0  0  0  0  0  0  0  0  0
  146.9368  159.5543  132.9312 H   0  0  0  0  0  0  0  0  0  0  0  0
  148.7419  157.4095  132.3601 H   0  0  0  0  0  0  0  0  0  0  0  0
  148.9092  154.8990  132.2897 H   0  0  0  0  0  0  0  0  0  0  0  0
  147.0150  152.6550  131.9850 H   0  0  0  0  0  0  0  0  0  0  0  0
  146.9630  152.5860  133.7770 H   0  0  0  0  0  0  0  0  0  0  0  0
  144.7721  154.5817  133.6236 H   0  0  0  0  0  0  0  0  0  0  0  0
  1  2  2  0
  2  3  1  0
  3  4  1  0
  4  5  1  0
  5  6  2  0
  5  7  1  0
  7  8  1  0
  8  9  1  0
  9 10  1  0
 10 11  2  0
 10 12  1  0
 12 13  1  0
 13 14  1  0
 14 15  2  0
 14 16  1  0
 16 17  1  0
 17 18  1  0
 18 19  1  0
 18 20  2  0
 17 21  2  0
 21 22  1  0
 22 23  2  0
 23 24  1  0
 24 25  2  0
 25 26  1  0
 25 27  1  0
 27 28  2  0
 28 16  1  0
 28 22  1  0
  1 29  1  0
  1 30  1  0
  2 31  1  0
  3 32  1  0
  3 33  1  0
  7 34  1  0
  8 35  1  0
  8 36  1  0
 12 37  1  0
 12 38  1  0
 19 39  1  0
 21 40  1  0
 23 41  1  0
 24 42  1  0
 26 43  1  0
 26 44  1  0
 27 45  1  0
M  CHG  1  19  -1
M  END
>  <UniqueID>  (79) 
78

>  <SMILES>  (79) 
C=CCOC(=O)NCOC(=O)COC(=O)n1c(C([NH-])=O)cc2ccc(N)cc21

>  <Energy>  (79) 
71.7004176162675

>  <Genealogy>  (79) 
C=CCOC(=O)NCOC(=O)COC(=O)n1c(C([NH-])=O)cc2ccc(N)cc21 (protonated)
C=CCOC(=O)NCOC(=O)COC(=O)n1c(C([NH-])=O)cc2ccc(N)cc21 (3D coordinates assigned)
C=CCOC(=O)NCOC(=O)COC(=O)n1c(C([NH-])=O)cc2ccc(N)cc21 (optimized conformer: 71.7004176162675 kcal/mol)

>  <smiles>  (79) 
C=CCOC(=O)NCOC(=O)COC(=O)n1c(C(N)=O)cc2ccc(N)cc21

>  <score_type>  (79) 
oracle

>  <origin>  (79) 
adg

>  <m_score__min__energy>  (79) 
-7.1699999999999999

>  <m_primary>  (79) 
energy

$$$$
82:0
     RDKit          3D

 37 38  0  0  0  0  0  0  0  0999 V2000
  149.3600  161.6070  130.7270 C   0  0  0  0  0  0  0  0  0  0  0  0
  148.7880  160.6930  131.2660 C   0  0  0  0  0  0  0  0  0  0  0  0
  148.1010  159.6050  131.9110 C   0  0  0  0  0  0  0  0  0  0  0  0
  148.7500  158.3610  132.0840 C   0  0  0  0  0  0  0  0  0  0  0  0
  148.0820  157.2900  132.7010 C   0  0  0  0  0  0  0  0  0  0  0  0
  146.7750  157.4990  133.1360 C   0  0  0  0  0  0  0  0  0  0  0  0
  145.8930  156.6320  133.7390 C   0  0  0  0  0  0  0  0  0  0  0  0
  144.7300  157.3710  133.9440 C   0  0  0  0  0  0  0  0  0  0  0  0
  143.5470  156.8420  134.6540 C   0  0  0  0  0  0  0  0  0  0  0  0
  142.6380  157.7150  135.3180 N   0  0  0  0  0  0  0  0  0  0  0  0
  143.3630  155.5960  134.7170 O   0  0  0  0  0  0  0  0  0  0  0  0
  144.8810  158.6430  133.4760 N   0  0  0  0  0  0  0  0  0  0  0  0
  143.8980  159.6880  133.4180 C   0  0  0  0  0  0  0  0  0  0  0  0
  144.2120  160.8640  133.7530 O   0  0  0  0  0  0  0  0  0  0  0  0
  142.5900  159.3820  133.0200 O   0  0  0  0  0  0  0  0  0  0  0  0
  141.4320  160.0100  133.5010 C   0  0  0  0  0  0  0  0  0  0  0  0
  141.3710  160.4600  134.6770 O   0  0  0  0  0  0  0  0  0  0  0  0
  140.2360  160.1130  132.6050 C   0  0  0  0  0  0  0  0  0  0  0  0
  139.4720  158.7850  132.5150 C   0  0  0  0  0  0  0  0  0  0  0  0
  138.7390  158.6250  131.1760 C   0  0  0  0  0  0  0  0  0  0  0  0
  138.0690  159.9050  130.7890 C   0  0  0  0  0  0  0  0  0  0  0  0
  136.8690  160.1130  131.1040 O   0  0  0  0  0  0  0  0  0  0  0  0
  138.7580  160.8490  130.0370 O   0  0  0  0  0  0  0  0  0  0  0  0
  146.1410  158.7060  132.9890 C   0  0  0  0  0  0  0  0  0  0  0  0
  146.7780  159.7830  132.3620 C   0  0  0  0  0  0  0  0  0  0  0  0
  149.8820  162.4410  130.2352 H   0  0  0  0  0  0  0  0  0  0  0  0
  149.7844  158.2308  131.7333 H   0  0  0  0  0  0  0  0  0  0  0  0
  148.5757  156.3164  132.8365 H   0  0  0  0  0  0  0  0  0  0  0  0
  146.0689  155.5788  134.0032 H   0  0  0  0  0  0  0  0  0  0  0  0
  142.5950  158.7300  135.0780 H   0  0  0  0  0  0  0  0  0  0  0  0
  139.5606  160.8857  133.0009 H   0  0  0  0  0  0  0  0  0  0  0  0
  140.5877  160.3729  131.5957 H   0  0  0  0  0  0  0  0  0  0  0  0
  140.1872  157.9569  132.6280 H   0  0  0  0  0  0  0  0  0  0  0  0
  138.7174  158.7757  133.3153 H   0  0  0  0  0  0  0  0  0  0  0  0
  139.4643  158.3463  130.3974 H   0  0  0  0  0  0  0  0  0  0  0  0
  137.9746  157.8409  131.2805 H   0  0  0  0  0  0  0  0  0  0  0  0
  146.2594  160.7433  132.2249 H   0  0  0  0  0  0  0  0  0  0  0  0
  1  2  3  0
  2  3  1  0
  3  4  2  0
  4  5  1  0
  5  6  2  0
  6  7  1  0
  7  8  2  0
  8  9  1  0
  9 10  1  0
  9 11  2  0
  8 12  1  0
 12 13  1  0
 13 14  2  0
 13 15  1  0
 15 16  1  0
 16 17  2  0
 16 18  1  0
 18 19  1  0
 19 20  1  0
 20 21  1  0
 21 22  2  0
 21 23  1  0
 12 24  1  0
 24 25  2  0
 25  3  1  0
 24  6  1  0
  1 26  1  0
  4 27  1  0
  5 28  1  0
  7 29  1  0
 10 30  1  0
 18 31  1  0
 18 32  1  0
 19 33  1  0
 19 34  1  0
 20 35  1  0
 20 36  1  0
 25 37  1  0
M  CHG  2  10  -1  23  -1
M  END
>  <UniqueID>  (80) 
79

>  <SMILES>  (80) 
C#Cc1ccc2cc(C([NH-])=O)n(C(=O)OC(=O)CCCC(=O)[O-])c2c1

>  <Energy>  (80) 
68.5845498111451

>  <Genealogy>  (80) 
C#Cc1ccc2cc(C([NH-])=O)n(C(=O)OC(=O)CCCC(=O)[O-])c2c1 (protonated)
C#Cc1ccc2cc(C([NH-])=O)n(C(=O)OC(=O)CCCC(=O)[O-])c2c1 (3D coordinates assigned)
C#Cc1ccc2cc(C([NH-])=O)n(C(=O)OC(=O)CCCC(=O)[O-])c2c1 (optimized conformer: 68.5845498111451 kcal/mol)

>  <smiles>  (80) 
C#Cc1ccc2cc(C(N)=O)n(C(=O)OC(=O)CCCC(=O)O)c2c1

>  <score_type>  (80) 
oracle

>  <origin>  (80) 
adg

>  <m_score__min__energy>  (80) 
-7.71

>  <m_primary>  (80) 
energy

$$$$
83:0
     RDKit          3D

 50 53  0  0  0  0  0  0  0  0999 V2000
  139.8340  149.4820  130.6040 C   0  0  0  0  0  0  0  0  0  0  0  0
  140.4950  149.5180  131.9160 N   0  0  0  0  0  0  0  0  0  0  0  0
  141.9560  149.4020  131.8040 C   0  0  0  0  0  0  0  0  0  0  0  0
  142.5790  150.3290  132.8460 C   0  0  0  0  0  0  0  0  0  0  0  0
  141.4090  150.9850  133.5600 C   0  0  1  0  0  0  0  0  0  0  0  0
  141.6730  152.3730  133.7790 O   0  0  0  0  0  0  0  0  0  0  0  0
  142.8740  153.0300  133.4700 C   0  0  0  0  0  0  0  0  0  0  0  0
  142.9900  153.6400  132.2150 C   0  0  0  0  0  0  0  0  0  0  0  0
  144.1640  154.3060  131.8520 C   0  0  0  0  0  0  0  0  0  0  0  0
  145.2520  154.3560  132.7340 C   0  0  0  0  0  0  0  0  0  0  0  0
  146.4420  155.0660  132.3490 N   0  0  0  0  0  0  0  0  0  0  0  0
  146.6770  156.4590  132.6170 C   0  0  0  0  0  0  0  0  0  0  0  0
  147.9630  157.0330  132.4360 C   0  0  0  0  0  0  0  0  0  0  0  0
  148.1800  158.3980  132.6880 C   0  0  0  0  0  0  0  0  0  0  0  0
  147.0940  159.1670  133.0940 C   0  0  0  0  0  0  0  0  0  0  0  0
  147.0290  160.5020  133.4220 C   0  0  0  0  0  0  0  0  0  0  0  0
  145.6970  160.7350  133.7580 C   0  0  0  0  0  0  0  0  0  0  0  0
  145.1660  162.0710  134.1010 C   0  0  0  0  0  0  0  0  0  0  0  0
  145.9450  162.9600  134.8980 N   0  0  0  0  0  0  0  0  0  0  0  0
  144.0450  162.4520  133.6700 O   0  0  0  0  0  0  0  0  0  0  0  0
  144.9660  159.5880  133.6460 N   0  0  0  0  0  0  0  0  0  0  0  0
  143.5780  159.3960  133.9590 C   0  0  0  0  0  0  0  0  0  0  0  0
  142.5790  160.1800  133.3110 N   0  0  0  0  0  0  0  0  0  0  0  0
  143.2330  158.5230  134.8000 O   0  0  0  0  0  0  0  0  0  0  0  0
  145.8370  158.6380  133.2370 C   0  0  0  0  0  0  0  0  0  0  0  0
  145.5970  157.2770  133.0110 C   0  0  0  0  0  0  0  0  0  0  0  0
  145.1340  153.7630  134.0020 C   0  0  0  0  0  0  0  0  0  0  0  0
  143.9590  153.0970  134.3650 C   0  0  0  0  0  0  0  0  0  0  0  0
  140.2370  150.7780  132.6160 C   0  0  0  0  0  0  0  0  0  0  0  0
  138.7445  149.4226  130.7438 H   0  0  0  0  0  0  0  0  0  0  0  0
  140.0825  150.3950  130.0431 H   0  0  0  0  0  0  0  0  0  0  0  0
  140.1802  148.6014  130.0431 H   0  0  0  0  0  0  0  0  0  0  0  0
  142.2647  148.3636  131.9947 H   0  0  0  0  0  0  0  0  0  0  0  0
  142.2874  149.6821  130.7932 H   0  0  0  0  0  0  0  0  0  0  0  0
  143.1887  149.7526  133.5573 H   0  0  0  0  0  0  0  0  0  0  0  0
  143.2432  151.0738  132.3833 H   0  0  0  0  0  0  0  0  0  0  0  0
  141.2148  150.5578  134.5549 H   0  0  0  0  0  0  0  0  0  0  0  0
  142.1488  153.5946  131.5077 H   0  0  0  0  0  0  0  0  0  0  0  0
  144.2344  154.7936  130.8685 H   0  0  0  0  0  0  0  0  0  0  0  0
  147.1860  154.5340  131.8440 H   0  0  0  0  0  0  0  0  0  0  0  0
  148.7976  156.4027  132.0951 H   0  0  0  0  0  0  0  0  0  0  0  0
  149.1779  158.8450  132.5680 H   0  0  0  0  0  0  0  0  0  0  0  0
  147.8534  161.2303  133.4194 H   0  0  0  0  0  0  0  0  0  0  0  0
  146.9720  163.0650  134.7370 H   0  0  0  0  0  0  0  0  0  0  0  0
  142.5970  161.2210  133.3660 H   0  0  0  0  0  0  0  0  0  0  0  0
  144.5891  156.8551  133.1378 H   0  0  0  0  0  0  0  0  0  0  0  0
  145.9707  153.8228  134.7136 H   0  0  0  0  0  0  0  0  0  0  0  0
  143.8820  152.6231  135.3547 H   0  0  0  0  0  0  0  0  0  0  0  0
  139.2969  150.7136  133.1835 H   0  0  0  0  0  0  0  0  0  0  0  0
  140.1374  151.6159  131.9103 H   0  0  0  0  0  0  0  0  0  0  0  0
  1  2  1  0
  2  3  1  0
  3  4  1  0
  4  5  1  0
  5  6  1  0
  6  7  1  0
  7  8  2  0
  8  9  1  0
  9 10  2  0
 10 11  1  0
 11 12  1  0
 12 13  2  0
 13 14  1  0
 14 15  2  0
 15 16  1  0
 16 17  2  0
 17 18  1  0
 18 19  1  0
 18 20  2  0
 17 21  1  0
 21 22  1  0
 22 23  1  0
 22 24  2  0
 21 25  1  0
 25 26  2  0
 10 27  1  0
 27 28  2  0
  5 29  1  0
 29  2  1  0
 28  7  1  0
 26 12  1  0
 25 15  1  0
  1 30  1  0
  1 31  1  0
  1 32  1  0
  3 33  1  0
  3 34  1  0
  4 35  1  0
  4 36  1  0
  5 37  1  1
  8 38  1  0
  9 39  1  0
 11 40  1  0
 13 41  1  0
 14 42  1  0
 16 43  1  0
 19 44  1  0
 23 45  1  0
 26 46  1  0
 27 47  1  0
 28 48  1  0
 29 49  1  0
 29 50  1  0
M  CHG  2  19  -1  23  -1
M  END
>  <UniqueID>  (81) 
80

>  <SMILES>  (81) 
CN1CC[C@@H](Oc2ccc(Nc3ccc4cc(C([NH-])=O)n(C([NH-])=O)c4c3)cc2)C1

>  <Energy>  (81) 
100.24714831581734

>  <Genealogy>  (81) 
CN1CCC(Oc2ccc(Nc3ccc4cc(C([NH-])=O)n(C([NH-])=O)c4c3)cc2)C1 (protonated)
CN1CC[C@@H](Oc2ccc(Nc3ccc4cc(C([NH-])=O)n(C([NH-])=O)c4c3)cc2)C1 (chirality)
CN1CC[C@@H](Oc2ccc(Nc3ccc4cc(C([NH-])=O)n(C([NH-])=O)c4c3)cc2)C1 (3D coordinates assigned)
CN1CC[C@@H](Oc2ccc(Nc3ccc4cc(C([NH-])=O)n(C([NH-])=O)c4c3)cc2)C1 (nonaromatic ring conformer: 100.24714831581734 kcal/mol)

>  <smiles>  (81) 
CN1CCC(Oc2ccc(Nc3ccc4cc(C(N)=O)n(C(N)=O)c4c3)cc2)C1

>  <score_type>  (81) 
oracle

>  <origin>  (81) 
adg

>  <m_score__min__energy>  (81) 
-9.1699999999999999

>  <m_primary>  (81) 
energy

$$$$
84:0
     RDKit          3D

 60 62  0  0  0  0  0  0  0  0999 V2000
  140.9610  159.7570  136.8090 C   0  0  0  0  0  0  0  0  0  0  0  0
  140.8690  158.4610  135.9810 C   0  0  0  0  0  0  0  0  0  0  0  0
  139.4340  157.9010  136.0060 C   0  0  0  0  0  0  0  0  0  0  0  0
  141.8200  157.4190  136.5860 C   0  0  0  0  0  0  0  0  0  0  0  0
  141.2970  158.6910  134.6300 O   0  0  0  0  0  0  0  0  0  0  0  0
  142.1470  159.7180  134.1890 C   0  0  0  0  0  0  0  0  0  0  0  0
  141.7260  160.8980  134.0690 O   0  0  0  0  0  0  0  0  0  0  0  0
  143.5080  159.4110  133.8550 N   0  0  0  0  0  0  0  0  0  0  0  0
  144.5870  160.2440  133.9020 C   0  0  0  0  0  0  0  0  0  0  0  0
  144.5480  161.7010  134.1470 C   0  0  0  0  0  0  0  0  0  0  0  0
  143.7040  162.5520  133.3780 N   0  0  0  0  0  0  0  0  0  0  0  0
  145.3110  162.2080  135.0120 O   0  0  0  0  0  0  0  0  0  0  0  0
  145.7550  159.5500  133.5970 C   0  0  0  0  0  0  0  0  0  0  0  0
  145.3570  158.2560  133.3510 C   0  0  0  0  0  0  0  0  0  0  0  0
  146.1090  157.1380  133.0080 C   0  0  0  0  0  0  0  0  0  0  0  0
  145.4370  155.9160  132.8390 C   0  0  0  0  0  0  0  0  0  0  0  0
  144.0300  155.8270  133.0320 C   0  0  0  0  0  0  0  0  0  0  0  0
  143.3180  154.5840  132.8730 N   0  0  0  0  0  0  0  0  0  0  0  0
  142.8800  153.7250  133.9760 C   0  0  0  0  0  0  0  0  0  0  0  0
  141.9170  154.4680  134.9090 C   0  0  0  0  0  0  0  0  0  0  0  0
  141.1200  155.4530  134.1770 N   0  0  0  0  0  0  0  0  0  0  0  0
  140.2890  155.0740  133.0750 C   0  0  0  0  0  0  0  0  0  0  0  0
  140.2300  153.8670  132.7090 O   0  0  0  0  0  0  0  0  0  0  0  0
  139.5420  156.0550  132.4120 O   0  0  0  0  0  0  0  0  0  0  0  0
  138.9460  157.1680  133.0740 C   0  0  0  0  0  0  0  0  0  0  0  0
  138.9650  158.3800  132.1830 C   0  0  0  0  0  0  0  0  0  0  0  0
  138.6960  158.2640  130.8090 C   0  0  0  0  0  0  0  0  0  0  0  0
  138.7320  159.3960  129.9880 C   0  0  0  0  0  0  0  0  0  0  0  0
  139.0400  160.6460  130.5310 C   0  0  0  0  0  0  0  0  0  0  0  0
  139.3120  160.7680  131.8960 C   0  0  0  0  0  0  0  0  0  0  0  0
  139.2760  159.6400  132.7210 C   0  0  0  0  0  0  0  0  0  0  0  0
  143.3040  156.9890  133.3740 C   0  0  0  0  0  0  0  0  0  0  0  0
  143.9980  158.1970  133.5150 C   0  0  0  0  0  0  0  0  0  0  0  0
  140.9434  159.5095  137.8806 H   0  0  0  0  0  0  0  0  0  0  0  0
  141.8985  160.2798  136.5688 H   0  0  0  0  0  0  0  0  0  0  0  0
  140.1067  160.4070  136.5688 H   0  0  0  0  0  0  0  0  0  0  0  0
  139.1081  157.7738  137.0489 H   0  0  0  0  0  0  0  0  0  0  0  0
  138.7581  158.6014  135.4935 H   0  0  0  0  0  0  0  0  0  0  0  0
  139.4111  156.9280  135.4935 H   0  0  0  0  0  0  0  0  0  0  0  0
  141.7716  157.4720  137.6837 H   0  0  0  0  0  0  0  0  0  0  0  0
  141.5216  156.4137  136.2539 H   0  0  0  0  0  0  0  0  0  0  0  0
  142.8483  157.6246  136.2539 H   0  0  0  0  0  0  0  0  0  0  0  0
  142.6990  162.6810  133.6260 H   0  0  0  0  0  0  0  0  0  0  0  0
  146.7786  159.9511  133.5605 H   0  0  0  0  0  0  0  0  0  0  0  0
  147.1984  157.2083  132.8729 H   0  0  0  0  0  0  0  0  0  0  0  0
  146.0048  155.0179  132.5543 H   0  0  0  0  0  0  0  0  0  0  0  0
  143.0990  154.2590  131.9040 H   0  0  0  0  0  0  0  0  0  0  0  0
  142.3697  152.8426  133.5626 H   0  0  0  0  0  0  0  0  0  0  0  0
  143.7650  153.4251  134.5563 H   0  0  0  0  0  0  0  0  0  0  0  0
  141.2411  153.7392  135.3802 H   0  0  0  0  0  0  0  0  0  0  0  0
  142.5101  154.9976  135.6692 H   0  0  0  0  0  0  0  0  0  0  0  0
  141.1470  156.4620  134.4470 H   0  0  0  0  0  0  0  0  0  0  0  0
  137.9047  156.9225  133.3297 H   0  0  0  0  0  0  0  0  0  0  0  0
  139.5179  157.3878  133.9876 H   0  0  0  0  0  0  0  0  0  0  0  0
  138.4565  157.2808  130.3778 H   0  0  0  0  0  0  0  0  0  0  0  0
  138.5175  159.3019  128.9132 H   0  0  0  0  0  0  0  0  0  0  0  0
  139.0683  161.5347  129.8834 H   0  0  0  0  0  0  0  0  0  0  0  0
  139.5547  161.7527  132.3220 H   0  0  0  0  0  0  0  0  0  0  0  0
  139.4919  159.7393  133.7950 H   0  0  0  0  0  0  0  0  0  0  0  0
  142.2155  156.9460  133.5265 H   0  0  0  0  0  0  0  0  0  0  0  0
  1  2  1  0
  2  3  1  0
  2  4  1  0
  2  5  1  0
  5  6  1  0
  6  7  2  0
  6  8  1  0
  8  9  1  0
  9 10  1  0
 10 11  1  0
 10 12  2  0
  9 13  2  0
 13 14  1  0
 14 15  2  0
 15 16  1  0
 16 17  2  0
 17 18  1  0
 18 19  1  0
 19 20  1  0
 20 21  1  0
 21 22  1  0
 22 23  2  0
 22 24  1  0
 24 25  1  0
 25 26  1  0
 26 27  2  0
 27 28  1  0
 28 29  2  0
 29 30  1  0
 30 31  2  0
 17 32  1  0
 32 33  2  0
 33  8  1  0
 33 14  1  0
 31 26  1  0
  1 34  1  0
  1 35  1  0
  1 36  1  0
  3 37  1  0
  3 38  1  0
  3 39  1  0
  4 40  1  0
  4 41  1  0
  4 42  1  0
 11 43  1  0
 13 44  1  0
 15 45  1  0
 16 46  1  0
 18 47  1  0
 19 48  1  0
 19 49  1  0
 20 50  1  0
 20 51  1  0
 21 52  1  0
 25 53  1  0
 25 54  1  0
 27 55  1  0
 28 56  1  0
 29 57  1  0
 30 58  1  0
 31 59  1  0
 32 60  1  0
M  CHG  1  11  -1
M  END
>  <UniqueID>  (82) 
81

>  <SMILES>  (82) 
CC(C)(C)OC(=O)n1c(C([NH-])=O)cc2ccc(NCCNC(=O)OCc3ccccc3)cc21

>  <Energy>  (82) 
89.47667690394795

>  <Genealogy>  (82) 
CC(C)(C)OC(=O)n1c(C([NH-])=O)cc2ccc(NCCNC(=O)OCc3ccccc3)cc21 (protonated)
CC(C)(C)OC(=O)n1c(C([NH-])=O)cc2ccc(NCCNC(=O)OCc3ccccc3)cc21 (3D coordinates assigned)
CC(C)(C)OC(=O)n1c(C([NH-])=O)cc2ccc(NCCNC(=O)OCc3ccccc3)cc21 (optimized conformer: 89.47667690394795 kcal/mol)

>  <smiles>  (82) 
CC(C)(C)OC(=O)n1c(C(N)=O)cc2ccc(NCCNC(=O)OCc3ccccc3)cc21

>  <score_type>  (82) 
oracle

>  <origin>  (82) 
adg

>  <m_score__min__energy>  (82) 
-9.7799999999999994

>  <m_primary>  (82) 
energy

$$$$
85:0
     RDKit          3D

 43 44  0  0  0  0  0  0  0  0999 V2000
  149.3700  151.7580  133.8460 C   0  0  0  0  0  0  0  0  0  0  0  0
  148.3970  152.5630  133.0980 N   0  0  0  0  0  0  0  0  0  0  0  0
  147.4300  151.8810  132.2260 C   0  0  0  0  0  0  0  0  0  0  0  0
  145.9980  152.2450  132.6130 C   0  0  0  0  0  0  0  0  0  0  0  0
  145.7100  153.5560  132.2160 O   0  0  0  0  0  0  0  0  0  0  0  0
  148.4260  154.0080  133.1670 C   0  0  0  0  0  0  0  0  0  0  0  0
  149.0090  154.6700  132.2650 O   0  0  0  0  0  0  0  0  0  0  0  0
  147.7480  154.7590  134.2750 C   0  0  0  0  0  0  0  0  0  0  0  0
  146.6040  155.4280  133.7580 O   0  0  0  0  0  0  0  0  0  0  0  0
  146.6770  156.3620  132.7200 C   0  0  0  0  0  0  0  0  0  0  0  0
  146.9530  155.9860  131.5480 O   0  0  0  0  0  0  0  0  0  0  0  0
  146.4520  157.7540  132.9960 N   0  0  0  0  0  0  0  0  0  0  0  0
  147.3460  158.7760  132.8710 C   0  0  0  0  0  0  0  0  0  0  0  0
  148.7890  158.6240  132.5820 C   0  0  0  0  0  0  0  0  0  0  0  0
  149.2740  157.4820  131.8750 N   0  0  0  0  0  0  0  0  0  0  0  0
  149.6020  159.5210  132.9300 O   0  0  0  0  0  0  0  0  0  0  0  0
  146.7340  159.9970  133.1470 C   0  0  0  0  0  0  0  0  0  0  0  0
  145.4270  159.6910  133.4480 C   0  0  0  0  0  0  0  0  0  0  0  0
  144.3700  160.5270  133.7930 C   0  0  0  0  0  0  0  0  0  0  0  0
  143.1150  159.9410  134.0270 C   0  0  0  0  0  0  0  0  0  0  0  0
  142.9380  158.5410  133.8960 C   0  0  0  0  0  0  0  0  0  0  0  0
  141.5980  157.9240  134.1710 C   0  0  0  0  0  0  0  0  0  0  0  0
  140.4680  158.3310  132.8550 Cl  0  0  0  0  0  0  0  0  0  0  0  0
  144.0370  157.7210  133.5570 C   0  0  0  0  0  0  0  0  0  0  0  0
  145.2810  158.3310  133.3480 C   0  0  0  0  0  0  0  0  0  0  0  0
  149.2058  151.8938  134.9252 H   0  0  0  0  0  0  0  0  0  0  0  0
  149.2441  150.6964  133.5867 H   0  0  0  0  0  0  0  0  0  0  0  0
  150.3892  152.0804  133.5867 H   0  0  0  0  0  0  0  0  0  0  0  0
  147.6094  152.1828  131.1835 H   0  0  0  0  0  0  0  0  0  0  0  0
  147.5597  150.7945  132.3385 H   0  0  0  0  0  0  0  0  0  0  0  0
  145.3005  151.5535  132.1177 H   0  0  0  0  0  0  0  0  0  0  0  0
  145.8899  152.1679  133.7050 H   0  0  0  0  0  0  0  0  0  0  0  0
  146.5860  153.9980  132.0670 H   0  0  0  0  0  0  0  0  0  0  0  0
  147.4378  154.0542  135.0605 H   0  0  0  0  0  0  0  0  0  0  0  0
  148.4448  155.4960  134.7009 H   0  0  0  0  0  0  0  0  0  0  0  0
  150.2890  157.4020  131.6410 H   0  0  0  0  0  0  0  0  0  0  0  0
  148.6400  156.6940  131.6150 H   0  0  0  0  0  0  0  0  0  0  0  0
  147.1977  160.9943  133.1282 H   0  0  0  0  0  0  0  0  0  0  0  0
  144.5127  161.6142  133.8799 H   0  0  0  0  0  0  0  0  0  0  0  0
  142.2625  160.5740  134.3143 H   0  0  0  0  0  0  0  0  0  0  0  0
  141.7051  156.8312  134.2361 H   0  0  0  0  0  0  0  0  0  0  0  0
  141.2056  158.3140  135.1217 H   0  0  0  0  0  0  0  0  0  0  0  0
  143.9193  156.6317  133.4596 H   0  0  0  0  0  0  0  0  0  0  0  0
  1  2  1  0
  2  3  1  0
  3  4  1  0
  4  5  1  0
  2  6  1  0
  6  7  2  0
  6  8  1  0
  8  9  1  0
  9 10  1  0
 10 11  2  0
 10 12  1  0
 12 13  1  0
 13 14  1  0
 14 15  1  0
 14 16  2  0
 13 17  2  0
 17 18  1  0
 18 19  2  0
 19 20  1  0
 20 21  2  0
 21 22  1  0
 22 23  1  0
 21 24  1  0
 24 25  2  0
 25 12  1  0
 25 18  1  0
  1 26  1  0
  1 27  1  0
  1 28  1  0
  3 29  1  0
  3 30  1  0
  4 31  1  0
  4 32  1  0
  5 33  1  0
  8 34  1  0
  8 35  1  0
 15 36  1  0
 15 37  1  0
 17 38  1  0
 19 39  1  0
 20 40  1  0
 22 41  1  0
 22 42  1  0
 24 43  1  0
M  END
>  <UniqueID>  (83) 
82

>  <SMILES>  (83) 
CN(CCO)C(=O)COC(=O)n1c(C(N)=O)cc2ccc(CCl)cc21

>  <Energy>  (83) 
73.03484539319294

>  <Genealogy>  (83) 
CN(CCO)C(=O)COC(=O)n1c(C(N)=O)cc2ccc(CCl)cc21 (3D coordinates assigned)
CN(CCO)C(=O)COC(=O)n1c(C(N)=O)cc2ccc(CCl)cc21 (optimized conformer: 73.03484539319294 kcal/mol)

>  <smiles>  (83) 
CN(CCO)C(=O)COC(=O)n1c(C(N)=O)cc2ccc(CCl)cc21

>  <score_type>  (83) 
oracle

>  <origin>  (83) 
adg

>  <m_score__min__energy>  (83) 
-6.3600000000000003

>  <m_primary>  (83) 
energy

$$$$
86:0
     RDKit          3D

 53 55  0  0  0  0  0  0  0  0999 V2000
  148.8410  152.3880  133.7080 C   0  0  0  0  0  0  0  0  0  0  0  0
  147.8880  153.3640  133.0070 C   0  0  0  0  0  0  0  0  0  0  0  0
  146.8360  153.8720  133.9230 N   0  0  1  0  0  0  0  0  0  0  0  0
  147.3780  154.2730  135.2050 C   0  0  0  0  0  0  0  0  0  0  0  0
  148.1070  155.3000  135.3060 O   0  0  0  0  0  0  0  0  0  0  0  0
  147.0500  153.5320  136.3450 O   0  0  0  0  0  0  0  0  0  0  0  0
  145.7140  153.3810  136.8170 C   0  0  0  0  0  0  0  0  0  0  0  0
  144.7870  153.5750  135.7490 O   0  0  0  0  0  0  0  0  0  0  0  0
  143.4240  153.8080  135.9610 C   0  0  0  0  0  0  0  0  0  0  0  0
  142.9720  153.9060  137.1350 O   0  0  0  0  0  0  0  0  0  0  0  0
  142.5420  153.9700  134.8380 N   0  0  0  0  0  0  0  0  0  0  0  0
  142.5030  153.2310  133.6920 C   0  0  0  0  0  0  0  0  0  0  0  0
  143.2690  151.9970  133.4300 C   0  0  0  0  0  0  0  0  0  0  0  0
  144.6840  152.0570  133.2750 N   0  0  0  0  0  0  0  0  0  0  0  0
  142.6820  150.8910  133.3020 O   0  0  0  0  0  0  0  0  0  0  0  0
  141.5610  153.7510  132.8070 C   0  0  0  0  0  0  0  0  0  0  0  0
  141.0140  154.8350  133.4510 C   0  0  0  0  0  0  0  0  0  0  0  0
  140.0270  155.7210  133.0310 C   0  0  0  0  0  0  0  0  0  0  0  0
  139.6670  156.7670  133.8970 C   0  0  0  0  0  0  0  0  0  0  0  0
  140.3140  156.9260  135.1490 C   0  0  0  0  0  0  0  0  0  0  0  0
  139.8920  158.0290  136.0870 C   0  0  0  0  0  0  0  0  0  0  0  0
  140.5440  159.2110  135.7790 F   0  0  0  0  0  0  0  0  0  0  0  0
  138.5290  158.2230  135.9780 F   0  0  0  0  0  0  0  0  0  0  0  0
  140.1970  157.6970  137.3970 F   0  0  0  0  0  0  0  0  0  0  0  0
  141.2970  155.9910  135.5500 C   0  0  0  0  0  0  0  0  0  0  0  0
  141.6220  154.9480  134.6740 C   0  0  0  0  0  0  0  0  0  0  0  0
  146.0020  154.9760  133.3570 C   0  0  2  0  0  0  0  0  0  0  0  0
  146.6090  155.5760  132.0540 C   0  0  0  0  0  0  0  0  0  0  0  0
  147.3230  156.9020  132.3310 C   0  0  0  0  0  0  0  0  0  0  0  0
  146.7060  157.4880  133.8740 S   0  0  0  0  0  0  0  0  0  0  0  0
  145.8880  158.7370  133.7010 O   0  0  0  0  0  0  0  0  0  0  0  0
  147.8180  157.7180  134.8580 O   0  0  0  0  0  0  0  0  0  0  0  0
  145.6960  156.1200  134.3500 C   0  0  0  0  0  0  0  0  0  0  0  0
  148.7377  152.4938  134.7980 H   0  0  0  0  0  0  0  0  0  0  0  0
  148.5918  151.3576  133.4144 H   0  0  0  0  0  0  0  0  0  0  0  0
  149.8770  152.6126  133.4144 H   0  0  0  0  0  0  0  0  0  0  0  0
  148.4698  154.2168  132.6274 H   0  0  0  0  0  0  0  0  0  0  0  0
  147.3916  152.8233  132.1877 H   0  0  0  0  0  0  0  0  0  0  0  0
  146.1870  153.0730  134.1230 H   0  0  0  0  0  0  0  0  0  0  0  0
  145.5867  152.3690  137.2288 H   0  0  0  0  0  0  0  0  0  0  0  0
  145.5230  154.1320  137.5978 H   0  0  0  0  0  0  0  0  0  0  0  0
  145.3060  152.2360  134.0950 H   0  0  0  0  0  0  0  0  0  0  0  0
  141.3085  153.3739  131.8050 H   0  0  0  0  0  0  0  0  0  0  0  0
  139.5428  155.6059  132.0500 H   0  0  0  0  0  0  0  0  0  0  0  0
  138.8748  157.4703  133.6008 H   0  0  0  0  0  0  0  0  0  0  0  0
  141.7944  156.0812  136.5270 H   0  0  0  0  0  0  0  0  0  0  0  0
  145.0471  154.4831  133.1218 H   0  0  0  0  0  0  0  0  0  0  0  0
  147.3316  154.8612  131.6333 H   0  0  0  0  0  0  0  0  0  0  0  0
  145.7897  155.7649  131.3447 H   0  0  0  0  0  0  0  0  0  0  0  0
  148.4098  156.7432  132.3917 H   0  0  0  0  0  0  0  0  0  0  0  0
  147.1389  157.6291  131.5264 H   0  0  0  0  0  0  0  0  0  0  0  0
  145.9403  155.8071  135.3759 H   0  0  0  0  0  0  0  0  0  0  0  0
  144.6295  156.3887  134.3280 H   0  0  0  0  0  0  0  0  0  0  0  0
  1  2  1  0
  2  3  1  0
  3  4  1  0
  4  5  2  0
  4  6  1  0
  6  7  1  0
  7  8  1  0
  8  9  1  0
  9 10  2  0
  9 11  1  0
 11 12  1  0
 12 13  1  0
 13 14  1  0
 13 15  2  0
 12 16  2  0
 16 17  1  0
 17 18  2  0
 18 19  1  0
 19 20  2  0
 20 21  1  0
 21 22  1  0
 21 23  1  0
 21 24  1  0
 20 25  1  0
 25 26  2  0
  3 27  1  0
 27 28  1  0
 28 29  1  0
 29 30  1  0
 30 31  2  0
 30 32  2  0
 30 33  1  0
 26 11  1  0
 33 27  1  0
 26 17  1  0
  1 34  1  0
  1 35  1  0
  1 36  1  0
  2 37  1  0
  2 38  1  0
  3 39  1  1
  7 40  1  0
  7 41  1  0
 14 42  1  0
 16 43  1  0
 18 44  1  0
 19 45  1  0
 25 46  1  0
 27 47  1  6
 28 48  1  0
 28 49  1  0
 29 50  1  0
 29 51  1  0
 33 52  1  0
 33 53  1  0
M  CHG  2   3   1  14  -1
M  END
>  <UniqueID>  (84) 
83

>  <SMILES>  (84) 
CC[N@@H+](C(=O)OCOC(=O)n1c(C([NH-])=O)cc2ccc(C(F)(F)F)cc21)[C@@H]1CCS(=O)(=O)C1

>  <Energy>  (84) 
95.32593648997388

>  <Genealogy>  (84) 
CC[NH+](C(=O)OCOC(=O)n1c(C([NH-])=O)cc2ccc(C(F)(F)F)cc21)C1CCS(=O)(=O)C1 (protonated)
CC[N@@H+](C(=O)OCOC(=O)n1c(C([NH-])=O)cc2ccc(C(F)(F)F)cc21)[C@@H]1CCS(=O)(=O)C1 (chirality)
CC[N@@H+](C(=O)OCOC(=O)n1c(C([NH-])=O)cc2ccc(C(F)(F)F)cc21)[C@@H]1CCS(=O)(=O)C1 (3D coordinates assigned)
CC[N@@H+](C(=O)OCOC(=O)n1c(C([NH-])=O)cc2ccc(C(F)(F)F)cc21)[C@@H]1CCS(=O)(=O)C1 (nonaromatic ring conformer: 95.32593648997388 kcal/mol)

>  <smiles>  (84) 
CCN(C(=O)OCOC(=O)n1c(C(N)=O)cc2ccc(C(F)(F)F)cc21)C1CCS(=O)(=O)C1

>  <score_type>  (84) 
oracle

>  <origin>  (84) 
adg

>  <m_score__min__energy>  (84) 
-6.7400000000000002

>  <m_primary>  (84) 
energy

$$$$
87:0
     RDKit          3D

 42 44  0  0  0  0  0  0  0  0999 V2000
  138.5600  157.4930  133.6920 N   0  0  0  0  0  0  0  0  0  0  0  0
  139.4250  156.4190  133.3300 C   0  0  0  0  0  0  0  0  0  0  0  0
  138.9270  155.3140  132.9890 O   0  0  0  0  0  0  0  0  0  0  0  0
  140.8900  156.5990  133.3990 C   0  0  0  0  0  0  0  0  0  0  0  0
  141.7960  155.5410  133.3860 C   0  0  0  0  0  0  0  0  0  0  0  0
  143.0410  156.1260  133.3770 C   0  0  0  0  0  0  0  0  0  0  0  0
  144.3040  155.5430  133.3690 C   0  0  0  0  0  0  0  0  0  0  0  0
  145.4220  156.3930  133.3880 C   0  0  0  0  0  0  0  0  0  0  0  0
  145.2610  157.8020  133.4260 C   0  0  0  0  0  0  0  0  0  0  0  0
  146.4170  158.6640  133.4440 N   0  0  0  0  0  0  0  0  0  0  0  0
  146.3780  159.9890  132.8110 C   0  0  0  0  0  0  0  0  0  0  0  0
  147.4850  160.1090  131.7510 C   0  0  0  0  0  0  0  0  0  0  0  0
  148.7930  159.3870  132.1460 C   0  0  0  0  0  0  0  0  0  0  0  0
  148.8630  159.0660  133.6440 C   0  0  0  0  0  0  0  0  0  0  0  0
  147.6680  158.1940  134.0600 C   0  0  0  0  0  0  0  0  0  0  0  0
  143.9610  158.3550  133.4250 C   0  0  0  0  0  0  0  0  0  0  0  0
  142.8660  157.4850  133.3890 C   0  0  0  0  0  0  0  0  0  0  0  0
  141.5490  157.7930  133.4030 N   0  0  0  0  0  0  0  0  0  0  0  0
  140.9820  159.1080  133.4910 C   0  0  0  0  0  0  0  0  0  0  0  0
  140.8710  159.8170  132.4530 O   0  0  0  0  0  0  0  0  0  0  0  0
  140.5760  159.6090  134.7340 O   0  0  0  0  0  0  0  0  0  0  0  0
  141.1770  159.2210  135.9680 C   0  0  0  0  0  0  0  0  0  0  0  0
  140.2710  158.2990  136.7260 C   0  0  0  0  0  0  0  0  0  0  0  0
  139.1180  158.1350  136.3650 O   0  0  0  0  0  0  0  0  0  0  0  0
  138.9140  158.3020  134.2480 H   0  0  0  0  0  0  0  0  0  0  0  0
  141.5649  154.4656  133.3835 H   0  0  0  0  0  0  0  0  0  0  0  0
  144.4235  154.4497  133.3484 H   0  0  0  0  0  0  0  0  0  0  0  0
  146.4337  155.9614  133.3733 H   0  0  0  0  0  0  0  0  0  0  0  0
  145.3990  160.1325  132.3305 H   0  0  0  0  0  0  0  0  0  0  0  0
  146.5370  160.7576  133.5817 H   0  0  0  0  0  0  0  0  0  0  0  0
  147.1163  159.6732  130.8107 H   0  0  0  0  0  0  0  0  0  0  0  0
  147.7222  161.1782  131.6484 H   0  0  0  0  0  0  0  0  0  0  0  0
  148.8597  158.4456  131.5809 H   0  0  0  0  0  0  0  0  0  0  0  0
  149.6290  160.0624  131.9116 H   0  0  0  0  0  0  0  0  0  0  0  0
  149.7974  158.5257  133.8559 H   0  0  0  0  0  0  0  0  0  0  0  0
  148.8340  160.0070  134.2129 H   0  0  0  0  0  0  0  0  0  0  0  0
  147.8547  157.1572  133.7435 H   0  0  0  0  0  0  0  0  0  0  0  0
  147.5592  158.2563  135.1528 H   0  0  0  0  0  0  0  0  0  0  0  0
  143.8131  159.4447  133.4519 H   0  0  0  0  0  0  0  0  0  0  0  0
  142.1271  158.7063  135.7619 H   0  0  0  0  0  0  0  0  0  0  0  0
  141.3570  160.1209  136.5745 H   0  0  0  0  0  0  0  0  0  0  0  0
  140.6479  157.7676  137.6123 H   0  0  0  0  0  0  0  0  0  0  0  0
  1  2  1  0
  2  3  2  0
  2  4  1  0
  4  5  2  0
  5  6  1  0
  6  7  2  0
  7  8  1  0
  8  9  2  0
  9 10  1  0
 10 11  1  0
 11 12  1  0
 12 13  1  0
 13 14  1  0
 14 15  1  0
  9 16  1  0
 16 17  2  0
 17 18  1  0
 18 19  1  0
 19 20  2  0
 19 21  1  0
 21 22  1  0
 22 23  1  0
 23 24  2  0
 18  4  1  0
 17  6  1  0
 15 10  1  0
  1 25  1  0
  5 26  1  0
  7 27  1  0
  8 28  1  0
 11 29  1  0
 11 30  1  0
 12 31  1  0
 12 32  1  0
 13 33  1  0
 13 34  1  0
 14 35  1  0
 14 36  1  0
 15 37  1  0
 15 38  1  0
 16 39  1  0
 22 40  1  0
 22 41  1  0
 23 42  1  0
M  CHG  1   1  -1
M  END
>  <UniqueID>  (85) 
84

>  <SMILES>  (85) 
[NH-]C(=O)c1cc2ccc(N3CCCCC3)cc2n1C(=O)OCC=O

>  <Energy>  (85) 
83.95858627214501

>  <Genealogy>  (85) 
[NH-]C(=O)c1cc2ccc(N3CCCCC3)cc2n1C(=O)OCC=O (protonated)
[NH-]C(=O)c1cc2ccc(N3CCCCC3)cc2n1C(=O)OCC=O (3D coordinates assigned)
[NH-]C(=O)c1cc2ccc(N3CCCCC3)cc2n1C(=O)OCC=O (nonaromatic ring conformer: 83.95858627214501 kcal/mol)

>  <smiles>  (85) 
NC(=O)c1cc2ccc(N3CCCCC3)cc2n1C(=O)OCC=O

>  <score_type>  (85) 
oracle

>  <origin>  (85) 
adg

>  <m_score__min__energy>  (85) 
-7.1600000000000001

>  <m_primary>  (85) 
energy

$$$$
88:0
     RDKit          3D

 36 37  0  0  0  0  0  0  0  0999 V2000
  148.7820  157.8900  133.5400 N   0  0  0  0  0  0  0  0  0  0  0  0
  148.1160  159.1200  133.2520 C   0  0  0  0  0  0  0  0  0  0  0  0
  148.7900  160.1150  132.8710 O   0  0  0  0  0  0  0  0  0  0  0  0
  146.6620  159.2640  133.4540 C   0  0  0  0  0  0  0  0  0  0  0  0
  145.9980  160.4850  133.3960 C   0  0  0  0  0  0  0  0  0  0  0  0
  144.6830  160.1970  133.6860 C   0  0  0  0  0  0  0  0  0  0  0  0
  143.5780  161.0410  133.7450 C   0  0  0  0  0  0  0  0  0  0  0  0
  142.3250  160.4670  134.0200 C   0  0  0  0  0  0  0  0  0  0  0  0
  142.1990  159.0680  134.2120 C   0  0  0  0  0  0  0  0  0  0  0  0
  140.8540  158.4700  134.5150 C   0  0  0  0  0  0  0  0  0  0  0  0
  140.5340  158.5100  136.3060 P   0  0  0  0  0  0  0  0  0  0  0  0
  139.1690  157.9240  136.5950 O   0  0  0  0  0  0  0  0  0  0  0  0
  141.7130  157.5980  137.1010 O   0  0  0  0  0  0  0  0  0  0  0  0
  140.5910  160.1070  136.8620 O   0  0  0  0  0  0  0  0  0  0  0  0
  143.3440  158.2440  134.1510 C   0  0  0  0  0  0  0  0  0  0  0  0
  144.5840  158.8450  133.8960 C   0  0  0  0  0  0  0  0  0  0  0  0
  145.7950  158.2550  133.7550 N   0  0  0  0  0  0  0  0  0  0  0  0
  146.0780  156.8460  133.7660 C   0  0  0  0  0  0  0  0  0  0  0  0
  145.6800  156.1270  134.7230 O   0  0  0  0  0  0  0  0  0  0  0  0
  146.7980  156.2760  132.7130 O   0  0  0  0  0  0  0  0  0  0  0  0
  147.0120  154.8750  132.5900 C   0  0  0  0  0  0  0  0  0  0  0  0
  148.4960  154.5690  132.7360 C   0  0  0  0  0  0  0  0  0  0  0  0
  149.2410  155.7460  132.5830 O   0  0  0  0  0  0  0  0  0  0  0  0
  148.2820  157.1020  134.0090 H   0  0  0  0  0  0  0  0  0  0  0  0
  149.8000  157.7860  133.3300 H   0  0  0  0  0  0  0  0  0  0  0  0
  146.4309  161.4701  133.1673 H   0  0  0  0  0  0  0  0  0  0  0  0
  143.6821  162.1238  133.5814 H   0  0  0  0  0  0  0  0  0  0  0  0
  141.4342  161.1088  134.0869 H   0  0  0  0  0  0  0  0  0  0  0  0
  140.0750  159.0462  133.9942 H   0  0  0  0  0  0  0  0  0  0  0  0
  140.8418  157.4247  134.1726 H   0  0  0  0  0  0  0  0  0  0  0  0
  143.2646  157.1570  134.3000 H   0  0  0  0  0  0  0  0  0  0  0  0
  146.4509  154.3488  133.3763 H   0  0  0  0  0  0  0  0  0  0  0  0
  146.6657  154.5385  131.6016 H   0  0  0  0  0  0  0  0  0  0  0  0
  148.6849  154.1443  133.7330 H   0  0  0  0  0  0  0  0  0  0  0  0
  148.7955  153.8466  131.9624 H   0  0  0  0  0  0  0  0  0  0  0  0
  148.7830  156.2710  131.8780 H   0  0  0  0  0  0  0  0  0  0  0  0
  1  2  1  0
  2  3  2  0
  2  4  1  0
  4  5  2  0
  5  6  1  0
  6  7  2  0
  7  8  1  0
  8  9  2  0
  9 10  1  0
 10 11  1  0
 11 12  2  0
 11 13  1  0
 11 14  1  0
  9 15  1  0
 15 16  2  0
 16 17  1  0
 17 18  1  0
 18 19  2  0
 18 20  1  0
 20 21  1  0
 21 22  1  0
 22 23  1  0
 17  4  1  0
 16  6  1  0
  1 24  1  0
  1 25  1  0
  5 26  1  0
  7 27  1  0
  8 28  1  0
 10 29  1  0
 10 30  1  0
 15 31  1  0
 21 32  1  0
 21 33  1  0
 22 34  1  0
 22 35  1  0
 23 36  1  0
M  CHG  2  13  -1  14  -1
M  END
>  <UniqueID>  (86) 
85

>  <SMILES>  (86) 
NC(=O)c1cc2ccc(CP(=O)([O-])[O-])cc2n1C(=O)OCCO

>  <Energy>  (86) 
65.42389727978912

>  <Genealogy>  (86) 
NC(=O)c1cc2ccc(CP(=O)([O-])[O-])cc2n1C(=O)OCCO (protonated)
NC(=O)c1cc2ccc(CP(=O)([O-])[O-])cc2n1C(=O)OCCO (3D coordinates assigned)
NC(=O)c1cc2ccc(CP(=O)([O-])[O-])cc2n1C(=O)OCCO (optimized conformer: 65.42389727978912 kcal/mol)

>  <smiles>  (86) 
NC(=O)c1cc2ccc(CP(=O)(O)O)cc2n1C(=O)OCCO

>  <score_type>  (86) 
oracle

>  <origin>  (86) 
adg

>  <m_score__min__energy>  (86) 
-6.3600000000000003

>  <m_primary>  (86) 
energy

$$$$
89:0
     RDKit          3D

 41 43  0  0  0  0  0  0  0  0999 V2000
  148.9890  157.3250  131.8580 N   0  0  0  0  0  0  0  0  0  0  0  0
  148.6780  158.5750  132.4760 C   0  0  0  0  0  0  0  0  0  0  0  0
  149.6050  159.4020  132.6850 O   0  0  0  0  0  0  0  0  0  0  0  0
  147.2830  158.9140  132.8370 C   0  0  0  0  0  0  0  0  0  0  0  0
  146.8150  160.2190  132.9810 C   0  0  0  0  0  0  0  0  0  0  0  0
  145.5140  160.0920  133.4140 C   0  0  0  0  0  0  0  0  0  0  0  0
  144.5770  161.0690  133.7150 C   0  0  0  0  0  0  0  0  0  0  0  0
  143.2980  160.6570  134.1220 C   0  0  0  0  0  0  0  0  0  0  0  0
  142.9570  159.2720  134.2160 C   0  0  0  0  0  0  0  0  0  0  0  0
  141.6210  158.8510  134.6330 N   0  0  0  0  0  0  0  0  0  0  0  0
  141.3430  158.6470  136.0710 C   0  0  0  0  0  0  0  0  0  0  0  0
  139.8860  158.2800  136.3670 C   0  0  0  0  0  0  0  0  0  0  0  0
  139.3760  157.4120  135.3840 O   0  0  0  0  0  0  0  0  0  0  0  0
  139.2480  158.1310  134.1810 C   0  0  0  0  0  0  0  0  0  0  0  0
  140.6200  158.4910  133.6050 C   0  0  0  0  0  0  0  0  0  0  0  0
  143.9610  158.3140  133.8980 C   0  0  0  0  0  0  0  0  0  0  0  0
  145.2320  158.7580  133.5170 C   0  0  0  0  0  0  0  0  0  0  0  0
  146.3090  158.0180  133.1660 N   0  0  0  0  0  0  0  0  0  0  0  0
  146.3760  156.5840  133.1030 C   0  0  0  0  0  0  0  0  0  0  0  0
  145.4250  155.9300  132.5940 O   0  0  0  0  0  0  0  0  0  0  0  0
  147.4880  155.9180  133.6240 O   0  0  0  0  0  0  0  0  0  0  0  0
  147.5940  154.5000  133.6550 C   0  0  0  0  0  0  0  0  0  0  0  0
  148.7590  154.0790  132.8240 C   0  0  0  0  0  0  0  0  0  0  0  0
  148.9820  152.8560  132.6240 O   0  0  0  0  0  0  0  0  0  0  0  0
  149.6310  155.0310  132.3130 O   0  0  0  0  0  0  0  0  0  0  0  0
  148.2590  156.5920  131.7190 H   0  0  0  0  0  0  0  0  0  0  0  0
  149.9700  157.1120  131.5720 H   0  0  0  0  0  0  0  0  0  0  0  0
  147.3669  161.1511  132.7897 H   0  0  0  0  0  0  0  0  0  0  0  0
  144.8288  162.1370  133.6371 H   0  0  0  0  0  0  0  0  0  0  0  0
  142.5426  161.4159  134.3738 H   0  0  0  0  0  0  0  0  0  0  0  0
  141.9878  157.8350  136.4382 H   0  0  0  0  0  0  0  0  0  0  0  0
  141.5446  159.6024  136.5775 H   0  0  0  0  0  0  0  0  0  0  0  0
  139.8317  157.7847  137.3477 H   0  0  0  0  0  0  0  0  0  0  0  0
  139.2852  159.2014  136.3674 H   0  0  0  0  0  0  0  0  0  0  0  0
  138.7022  157.5153  133.4509 H   0  0  0  0  0  0  0  0  0  0  0  0
  138.7006  159.0625  134.3874 H   0  0  0  0  0  0  0  0  0  0  0  0
  140.9976  157.6256  133.0407 H   0  0  0  0  0  0  0  0  0  0  0  0
  140.4790  159.3776  132.9694 H   0  0  0  0  0  0  0  0  0  0  0  0
  143.7402  157.2377  133.9512 H   0  0  0  0  0  0  0  0  0  0  0  0
  147.7409  154.1643  134.6922 H   0  0  0  0  0  0  0  0  0  0  0  0
  146.6726  154.0508  133.2558 H   0  0  0  0  0  0  0  0  0  0  0  0
  1  2  1  0
  2  3  2  0
  2  4  1  0
  4  5  2  0
  5  6  1  0
  6  7  2  0
  7  8  1  0
  8  9  2  0
  9 10  1  0
 10 11  1  0
 11 12  1  0
 12 13  1  0
 13 14  1  0
 14 15  1  0
  9 16  1  0
 16 17  2  0
 17 18  1  0
 18 19  1  0
 19 20  2  0
 19 21  1  0
 21 22  1  0
 22 23  1  0
 23 24  2  0
 23 25  1  0
 18  4  1  0
 17  6  1  0
 15 10  1  0
  1 26  1  0
  1 27  1  0
  5 28  1  0
  7 29  1  0
  8 30  1  0
 11 31  1  0
 11 32  1  0
 12 33  1  0
 12 34  1  0
 14 35  1  0
 14 36  1  0
 15 37  1  0
 15 38  1  0
 16 39  1  0
 22 40  1  0
 22 41  1  0
M  CHG  1  25  -1
M  END
>  <UniqueID>  (87) 
86

>  <SMILES>  (87) 
NC(=O)c1cc2ccc(N3CCOCC3)cc2n1C(=O)OCC(=O)[O-]

>  <Energy>  (87) 
85.28478686068705

>  <Genealogy>  (87) 
NC(=O)c1cc2ccc(N3CCOCC3)cc2n1C(=O)OCC(=O)[O-] (protonated)
NC(=O)c1cc2ccc(N3CCOCC3)cc2n1C(=O)OCC(=O)[O-] (3D coordinates assigned)
NC(=O)c1cc2ccc(N3CCOCC3)cc2n1C(=O)OCC(=O)[O-] (nonaromatic ring conformer: 85.28478686068705 kcal/mol)

>  <smiles>  (87) 
NC(=O)c1cc2ccc(N3CCOCC3)cc2n1C(=O)OCC(=O)O

>  <score_type>  (87) 
oracle

>  <origin>  (87) 
adg

>  <m_score__min__energy>  (87) 
-7.1299999999999999

>  <m_primary>  (87) 
energy

$$$$
90:0
     RDKit          3D

 54 56  0  0  0  0  0  0  0  0999 V2000
  141.2490  159.3240  136.4590 C   0  0  0  0  0  0  0  0  0  0  0  0
  141.6600  158.7320  135.0970 C   0  0  0  0  0  0  0  0  0  0  0  0
  141.4010  157.2170  135.1180 C   0  0  0  0  0  0  0  0  0  0  0  0
  140.8350  159.3620  133.9600 C   0  0  0  0  0  0  0  0  0  0  0  0
  143.0640  158.9180  134.8660 O   0  0  0  0  0  0  0  0  0  0  0  0
  143.7430  158.7050  133.6570 C   0  0  0  0  0  0  0  0  0  0  0  0
  143.2170  158.0390  132.7260 O   0  0  0  0  0  0  0  0  0  0  0  0
  145.0660  159.2360  133.4890 N   0  0  0  0  0  0  0  0  0  0  0  0
  145.4750  160.5250  133.6700 C   0  0  0  0  0  0  0  0  0  0  0  0
  144.5970  161.6870  133.9130 C   0  0  0  0  0  0  0  0  0  0  0  0
  143.1870  161.5930  133.7250 N   0  0  0  0  0  0  0  0  0  0  0  0
  145.1020  162.7930  134.2440 O   0  0  0  0  0  0  0  0  0  0  0  0
  146.8560  160.6240  133.5170 C   0  0  0  0  0  0  0  0  0  0  0  0
  147.2840  159.3480  133.2300 C   0  0  0  0  0  0  0  0  0  0  0  0
  148.5670  158.8670  132.9950 C   0  0  0  0  0  0  0  0  0  0  0  0
  148.7230  157.4900  132.7570 C   0  0  0  0  0  0  0  0  0  0  0  0
  147.5980  156.6200  132.7660 C   0  0  0  0  0  0  0  0  0  0  0  0
  147.7270  155.2050  132.5250 N   0  0  0  0  0  0  0  0  0  0  0  0
  147.6030  154.1660  133.5470 C   0  0  0  0  0  0  0  0  0  0  0  0
  147.2010  152.7940  132.9590 C   0  0  0  0  0  0  0  0  0  0  0  0
  148.1930  152.1310  132.0780 N   0  0  0  0  0  0  0  0  0  0  0  0
  149.6140  152.3670  132.3650 C   0  0  0  0  0  0  0  0  0  0  0  0
  150.3550  151.1170  131.9330 C   0  0  0  0  0  0  0  0  0  0  0  0
  149.3350  150.0090  132.0800 C   0  0  0  0  0  0  0  0  0  0  0  0
  147.9940  150.6910  131.8720 C   0  0  0  0  0  0  0  0  0  0  0  0
  146.3130  157.1540  133.0070 C   0  0  0  0  0  0  0  0  0  0  0  0
  146.1860  158.5300  133.2210 C   0  0  0  0  0  0  0  0  0  0  0  0
  141.6740  158.7119  137.2681 H   0  0  0  0  0  0  0  0  0  0  0  0
  141.6276  160.3536  136.5406 H   0  0  0  0  0  0  0  0  0  0  0  0
  140.1520  159.3292  136.5406 H   0  0  0  0  0  0  0  0  0  0  0  0
  141.3416  156.8696  136.1600 H   0  0  0  0  0  0  0  0  0  0  0  0
  140.4527  157.0000  134.6045 H   0  0  0  0  0  0  0  0  0  0  0  0
  142.2233  156.6973  134.6045 H   0  0  0  0  0  0  0  0  0  0  0  0
  140.0298  159.9769  134.3885 H   0  0  0  0  0  0  0  0  0  0  0  0
  141.4880  159.9934  133.3396 H   0  0  0  0  0  0  0  0  0  0  0  0
  140.3978  158.5658  133.3396 H   0  0  0  0  0  0  0  0  0  0  0  0
  142.7190  160.6660  133.6170 H   0  0  0  0  0  0  0  0  0  0  0  0
  147.4734  161.5299  133.6066 H   0  0  0  0  0  0  0  0  0  0  0  0
  149.4344  159.5435  132.9952 H   0  0  0  0  0  0  0  0  0  0  0  0
  149.7255  157.0815  132.5618 H   0  0  0  0  0  0  0  0  0  0  0  0
  147.8460  154.8830  131.5370 H   0  0  0  0  0  0  0  0  0  0  0  0
  148.5706  154.0592  134.0592 H   0  0  0  0  0  0  0  0  0  0  0  0
  146.8071  154.4759  134.2402 H   0  0  0  0  0  0  0  0  0  0  0  0
  146.9981  152.1166  133.8016 H   0  0  0  0  0  0  0  0  0  0  0  0
  146.3330  152.9984  132.3149 H   0  0  0  0  0  0  0  0  0  0  0  0
  149.9762  153.2379  131.7991 H   0  0  0  0  0  0  0  0  0  0  0  0
  149.7744  152.5747  133.4332 H   0  0  0  0  0  0  0  0  0  0  0  0
  150.6890  151.2033  130.8885 H   0  0  0  0  0  0  0  0  0  0  0  0
  151.2605  150.9371  132.5310 H   0  0  0  0  0  0  0  0  0  0  0  0
  149.4961  149.2299  131.3204 H   0  0  0  0  0  0  0  0  0  0  0  0
  149.4010  149.5090  133.0576 H   0  0  0  0  0  0  0  0  0  0  0  0
  147.6326  150.5045  130.8499 H   0  0  0  0  0  0  0  0  0  0  0  0
  147.2470  150.2988  132.5778 H   0  0  0  0  0  0  0  0  0  0  0  0
  145.4288  156.4999  133.0260 H   0  0  0  0  0  0  0  0  0  0  0  0
  1  2  1  0
  2  3  1  0
  2  4  1  0
  2  5  1  0
  5  6  1  0
  6  7  2  0
  6  8  1  0
  8  9  1  0
  9 10  1  0
 10 11  1  0
 10 12  2  0
  9 13  2  0
 13 14  1  0
 14 15  2  0
 15 16  1  0
 16 17  2  0
 17 18  1  0
 18 19  1  0
 19 20  1  0
 20 21  1  0
 21 22  1  0
 22 23  1  0
 23 24  1  0
 24 25  1  0
 17 26  1  0
 26 27  2  0
 27  8  1  0
 27 14  1  0
 25 21  1  0
  1 28  1  0
  1 29  1  0
  1 30  1  0
  3 31  1  0
  3 32  1  0
  3 33  1  0
  4 34  1  0
  4 35  1  0
  4 36  1  0
 11 37  1  0
 13 38  1  0
 15 39  1  0
 16 40  1  0
 18 41  1  0
 19 42  1  0
 19 43  1  0
 20 44  1  0
 20 45  1  0
 22 46  1  0
 22 47  1  0
 23 48  1  0
 23 49  1  0
 24 50  1  0
 24 51  1  0
 25 52  1  0
 25 53  1  0
 26 54  1  0
M  CHG  1  11  -1
M  END
>  <UniqueID>  (88) 
87

>  <SMILES>  (88) 
CC(C)(C)OC(=O)n1c(C([NH-])=O)cc2ccc(NCCN3CCCC3)cc21

>  <Energy>  (88) 
95.82940963639014

>  <Genealogy>  (88) 
CC(C)(C)OC(=O)n1c(C([NH-])=O)cc2ccc(NCCN3CCCC3)cc21 (protonated)
CC(C)(C)OC(=O)n1c(C([NH-])=O)cc2ccc(NCCN3CCCC3)cc21 (3D coordinates assigned)
CC(C)(C)OC(=O)n1c(C([NH-])=O)cc2ccc(NCCN3CCCC3)cc21 (nonaromatic ring conformer: 95.82940963639014 kcal/mol)

>  <smiles>  (88) 
CC(C)(C)OC(=O)n1c(C(N)=O)cc2ccc(NCCN3CCCC3)cc21

>  <score_type>  (88) 
oracle

>  <origin>  (88) 
adg

>  <m_score__min__energy>  (88) 
-8.4399999999999995

>  <m_primary>  (88) 
energy

$$$$
91:0
     RDKit          3D

 41 42  0  0  0  0  0  0  0  0999 V2000
  139.1320  159.9940  131.5730 C   0  0  0  0  0  0  0  0  0  0  0  0
  140.1850  159.2690  132.3970 C   0  0  0  0  0  0  0  0  0  0  0  0
  140.6110  160.1070  133.4660 O   0  0  0  0  0  0  0  0  0  0  0  0
  141.1910  159.6020  134.6340 C   0  0  0  0  0  0  0  0  0  0  0  0
  140.9340  160.1180  135.7560 O   0  0  0  0  0  0  0  0  0  0  0  0
  142.1640  158.4720  134.5400 C   0  0  0  0  0  0  0  0  0  0  0  0
  143.5040  158.9870  134.0980 C   0  0  0  0  0  0  0  0  0  0  0  0
  143.7770  160.3770  134.1250 C   0  0  0  0  0  0  0  0  0  0  0  0
  145.0350  160.8680  133.7370 C   0  0  0  0  0  0  0  0  0  0  0  0
  146.0020  159.9460  133.3460 C   0  0  0  0  0  0  0  0  0  0  0  0
  147.2910  160.1480  132.9110 C   0  0  0  0  0  0  0  0  0  0  0  0
  147.8010  158.8750  132.6600 C   0  0  0  0  0  0  0  0  0  0  0  0
  149.1990  158.6250  132.2530 C   0  0  0  0  0  0  0  0  0  0  0  0
  149.7020  157.2920  132.2220 N   0  0  0  0  0  0  0  0  0  0  0  0
  149.9460  159.5730  131.8950 O   0  0  0  0  0  0  0  0  0  0  0  0
  146.8590  157.9240  132.9220 N   0  0  0  0  0  0  0  0  0  0  0  0
  146.9650  156.5020  132.7440 C   0  0  0  0  0  0  0  0  0  0  0  0
  147.0010  156.0170  131.5810 O   0  0  0  0  0  0  0  0  0  0  0  0
  147.0000  155.6680  133.8710 O   0  0  0  0  0  0  0  0  0  0  0  0
  147.7240  154.4730  133.9680 C   0  0  0  0  0  0  0  0  0  0  0  0
  148.0730  154.0140  135.0900 O   0  0  0  0  0  0  0  0  0  0  0  0
  148.0650  153.7710  132.7690 N   0  0  0  0  0  0  0  0  0  0  0  0
  148.8170  152.5220  132.7930 C   0  0  0  0  0  0  0  0  0  0  0  0
  145.7650  158.5960  133.3430 C   0  0  0  0  0  0  0  0  0  0  0  0
  144.5140  158.0810  133.7050 C   0  0  0  0  0  0  0  0  0  0  0  0
  138.4154  160.4874  132.2461 H   0  0  0  0  0  0  0  0  0  0  0  0
  139.6189  160.7492  130.9385 H   0  0  0  0  0  0  0  0  0  0  0  0
  138.6002  159.2697  130.9385 H   0  0  0  0  0  0  0  0  0  0  0  0
  139.7564  158.3422  132.8061 H   0  0  0  0  0  0  0  0  0  0  0  0
  141.0460  159.0239  131.7578 H   0  0  0  0  0  0  0  0  0  0  0  0
  142.2640  157.9938  135.5255 H   0  0  0  0  0  0  0  0  0  0  0  0
  141.7978  157.7387  133.8064 H   0  0  0  0  0  0  0  0  0  0  0  0
  142.9962  161.0789  134.4530 H   0  0  0  0  0  0  0  0  0  0  0  0
  145.2491  161.9470  133.7420 H   0  0  0  0  0  0  0  0  0  0  0  0
  147.8097  161.1101  132.7873 H   0  0  0  0  0  0  0  0  0  0  0  0
  149.1190  156.5070  131.8550 H   0  0  0  0  0  0  0  0  0  0  0  0
  147.7680  154.1680  131.8490 H   0  0  0  0  0  0  0  0  0  0  0  0
  148.9973  152.2225  133.8360 H   0  0  0  0  0  0  0  0  0  0  0  0
  148.2411  151.7373  132.2806 H   0  0  0  0  0  0  0  0  0  0  0  0
  149.7800  152.6639  132.2806 H   0  0  0  0  0  0  0  0  0  0  0  0
  144.3227  156.9980  133.6838 H   0  0  0  0  0  0  0  0  0  0  0  0
  1  2  1  0
  2  3  1  0
  3  4  1  0
  4  5  2  0
  4  6  1  0
  6  7  1  0
  7  8  2  0
  8  9  1  0
  9 10  2  0
 10 11  1  0
 11 12  2  0
 12 13  1  0
 13 14  1  0
 13 15  2  0
 12 16  1  0
 16 17  1  0
 17 18  2  0
 17 19  1  0
 19 20  1  0
 20 21  2  0
 20 22  1  0
 22 23  1  0
 16 24  1  0
 24 25  2  0
 25  7  1  0
 24 10  1  0
  1 26  1  0
  1 27  1  0
  1 28  1  0
  2 29  1  0
  2 30  1  0
  6 31  1  0
  6 32  1  0
  8 33  1  0
  9 34  1  0
 11 35  1  0
 14 36  1  0
 22 37  1  0
 23 38  1  0
 23 39  1  0
 23 40  1  0
 25 41  1  0
M  CHG  1  14  -1
M  END
>  <UniqueID>  (89) 
88

>  <SMILES>  (89) 
CCOC(=O)Cc1ccc2cc(C([NH-])=O)n(C(=O)OC(=O)NC)c2c1

>  <Energy>  (89) 
70.12270097868456

>  <Genealogy>  (89) 
CCOC(=O)Cc1ccc2cc(C([NH-])=O)n(C(=O)OC(=O)NC)c2c1 (protonated)
CCOC(=O)Cc1ccc2cc(C([NH-])=O)n(C(=O)OC(=O)NC)c2c1 (3D coordinates assigned)
CCOC(=O)Cc1ccc2cc(C([NH-])=O)n(C(=O)OC(=O)NC)c2c1 (optimized conformer: 70.12270097868456 kcal/mol)

>  <smiles>  (89) 
CCOC(=O)Cc1ccc2cc(C(N)=O)n(C(=O)OC(=O)NC)c2c1

>  <score_type>  (89) 
oracle

>  <origin>  (89) 
adg

>  <m_score__min__energy>  (89) 
-6.6600000000000001

>  <m_primary>  (89) 
energy

$$$$
92:0
     RDKit          3D

 36 37  0  0  0  0  0  0  0  0999 V2000
  145.4560  152.9880  134.2040 N   0  0  0  0  0  0  0  0  0  0  0  0
  145.0630  154.3070  134.5770 C   0  0  0  0  0  0  0  0  0  0  0  0
  144.0400  154.4640  135.2950 O   0  0  0  0  0  0  0  0  0  0  0  0
  145.8010  155.4880  134.0850 C   0  0  0  0  0  0  0  0  0  0  0  0
  145.2460  156.7650  134.0200 C   0  0  0  0  0  0  0  0  0  0  0  0
  146.2100  157.5520  133.4330 C   0  0  0  0  0  0  0  0  0  0  0  0
  146.1930  158.9100  133.1300 C   0  0  0  0  0  0  0  0  0  0  0  0
  147.3420  159.4690  132.5470 C   0  0  0  0  0  0  0  0  0  0  0  0
  148.4850  158.6700  132.2950 C   0  0  0  0  0  0  0  0  0  0  0  0
  149.7070  159.2740  131.6530 C   0  0  0  0  0  0  0  0  0  0  0  0
  149.3690  159.9240  130.3090 C   0  0  0  0  0  0  0  0  0  0  0  0
  149.2560  161.3160  130.4440 O   0  0  0  0  0  0  0  0  0  0  0  0
  148.4620  157.2920  132.6080 C   0  0  0  0  0  0  0  0  0  0  0  0
  147.2960  156.7580  133.1700 C   0  0  0  0  0  0  0  0  0  0  0  0
  147.0620  155.4870  133.5670 N   0  0  0  0  0  0  0  0  0  0  0  0
  147.9980  154.3980  133.5430 C   0  0  0  0  0  0  0  0  0  0  0  0
  148.3080  153.8100  134.6160 O   0  0  0  0  0  0  0  0  0  0  0  0
  148.5460  153.9820  132.3270 O   0  0  0  0  0  0  0  0  0  0  0  0
  149.5580  152.9840  132.2400 C   0  0  0  0  0  0  0  0  0  0  0  0
  148.9560  151.6160  132.5330 C   0  0  0  0  0  0  0  0  0  0  0  0
  147.5610  151.7150  132.5860 O   0  0  0  0  0  0  0  0  0  0  0  0
  146.4640  152.7270  134.1370 H   0  0  0  0  0  0  0  0  0  0  0  0
  144.2492  157.0772  134.3647 H   0  0  0  0  0  0  0  0  0  0  0  0
  145.3069  159.5268  133.3406 H   0  0  0  0  0  0  0  0  0  0  0  0
  147.3548  160.5369  132.2835 H   0  0  0  0  0  0  0  0  0  0  0  0
  150.1236  160.0384  132.3254 H   0  0  0  0  0  0  0  0  0  0  0  0
  150.4370  158.4707  131.4749 H   0  0  0  0  0  0  0  0  0  0  0  0
  150.1666  159.6951  129.5868 H   0  0  0  0  0  0  0  0  0  0  0  0
  148.4069  159.5244  129.9558 H   0  0  0  0  0  0  0  0  0  0  0  0
  148.4840  161.5960  129.8870 H   0  0  0  0  0  0  0  0  0  0  0  0
  149.3379  156.6552  132.4150 H   0  0  0  0  0  0  0  0  0  0  0  0
  149.9869  152.9854  131.2271 H   0  0  0  0  0  0  0  0  0  0  0  0
  150.3470  153.2000  132.9754 H   0  0  0  0  0  0  0  0  0  0  0  0
  149.2425  150.9126  131.7373 H   0  0  0  0  0  0  0  0  0  0  0  0
  149.3320  151.2527  133.5008 H   0  0  0  0  0  0  0  0  0  0  0  0
  147.3570  152.3290  133.3390 H   0  0  0  0  0  0  0  0  0  0  0  0
  1  2  1  0
  2  3  2  0
  2  4  1  0
  4  5  2  0
  5  6  1  0
  6  7  2  0
  7  8  1  0
  8  9  2  0
  9 10  1  0
 10 11  1  0
 11 12  1  0
  9 13  1  0
 13 14  2  0
 14 15  1  0
 15 16  1  0
 16 17  2  0
 16 18  1  0
 18 19  1  0
 19 20  1  0
 20 21  1  0
 15  4  1  0
 14  6  1  0
  1 22  1  0
  5 23  1  0
  7 24  1  0
  8 25  1  0
 10 26  1  0
 10 27  1  0
 11 28  1  0
 11 29  1  0
 12 30  1  0
 13 31  1  0
 19 32  1  0
 19 33  1  0
 20 34  1  0
 20 35  1  0
 21 36  1  0
M  CHG  1   1  -1
M  END
>  <UniqueID>  (90) 
89

>  <SMILES>  (90) 
[NH-]C(=O)c1cc2ccc(CCO)cc2n1C(=O)OCCO

>  <Energy>  (90) 
67.4396428616759

>  <Genealogy>  (90) 
[NH-]C(=O)c1cc2ccc(CCO)cc2n1C(=O)OCCO (protonated)
[NH-]C(=O)c1cc2ccc(CCO)cc2n1C(=O)OCCO (3D coordinates assigned)
[NH-]C(=O)c1cc2ccc(CCO)cc2n1C(=O)OCCO (optimized conformer: 67.4396428616759 kcal/mol)

>  <smiles>  (90) 
NC(=O)c1cc2ccc(CCO)cc2n1C(=O)OCCO

>  <score_type>  (90) 
oracle

>  <origin>  (90) 
adg

>  <m_score__min__energy>  (90) 
-5.9699999999999998

>  <m_primary>  (90) 
energy

$$$$
93:0
     RDKit          3D

 55 56  0  0  0  0  0  0  0  0999 V2000
  147.5270  160.0480  131.7840 C   0  0  0  0  0  0  0  0  0  0  0  0
  147.0260  158.9600  132.6320 N   0  0  0  0  0  0  0  0  0  0  0  0
  145.7460  159.1720  133.2460 C   0  0  0  0  0  0  0  0  0  0  0  0
  145.2420  160.4860  133.3860 C   0  0  0  0  0  0  0  0  0  0  0  0
  143.9760  160.7090  133.9530 C   0  0  0  0  0  0  0  0  0  0  0  0
  143.2470  159.5990  134.3730 C   0  0  0  0  0  0  0  0  0  0  0  0
  141.9910  159.5240  134.9310 C   0  0  0  0  0  0  0  0  0  0  0  0
  141.7620  158.1660  135.1450 C   0  0  0  0  0  0  0  0  0  0  0  0
  140.5540  157.6390  135.8130 C   0  0  0  0  0  0  0  0  0  0  0  0
  140.6830  156.6690  136.8500 N   0  0  0  0  0  0  0  0  0  0  0  0
  139.4050  158.0130  135.4600 O   0  0  0  0  0  0  0  0  0  0  0  0
  142.8320  157.4300  134.7290 N   0  0  0  0  0  0  0  0  0  0  0  0
  142.9830  156.0030  134.7480 C   0  0  0  0  0  0  0  0  0  0  0  0
  142.8910  155.3440  133.6760 O   0  0  0  0  0  0  0  0  0  0  0  0
  143.2370  155.3510  135.9580 O   0  0  0  0  0  0  0  0  0  0  0  0
  143.0620  153.9480  136.1280 C   0  0  0  0  0  0  0  0  0  0  0  0
  141.7210  153.6780  136.5210 O   0  0  0  0  0  0  0  0  0  0  0  0
  141.3300  153.5660  137.8600 C   0  0  0  0  0  0  0  0  0  0  0  0
  140.9280  154.5870  138.4860 O   0  0  0  0  0  0  0  0  0  0  0  0
  141.3240  152.2130  138.5410 C   0  0  0  0  0  0  0  0  0  0  0  0
  140.6180  152.3030  139.9130 C   0  0  0  0  0  0  0  0  0  0  0  0
  142.7820  151.7690  138.7700 C   0  0  0  0  0  0  0  0  0  0  0  0
  140.6040  151.2090  137.6580 C   0  0  0  0  0  0  0  0  0  0  0  0
  140.9420  151.0580  136.4530 O   0  0  0  0  0  0  0  0  0  0  0  0
  139.6190  150.3820  138.1880 O   0  0  0  0  0  0  0  0  0  0  0  0
  143.7330  158.3210  134.2620 C   0  0  0  0  0  0  0  0  0  0  0  0
  144.9820  158.0700  133.6830 C   0  0  0  0  0  0  0  0  0  0  0  0
  147.8600  157.7650  132.9300 C   0  0  0  0  0  0  0  0  0  0  0  0
  149.2260  157.9050  132.2250 C   0  0  0  0  0  0  0  0  0  0  0  0
  147.1910  156.4580  132.4360 C   0  0  0  0  0  0  0  0  0  0  0  0
  148.0610  157.6560  134.4260 C   0  0  0  0  0  0  0  0  0  0  0  0
  147.7310  156.6470  135.0310 O   0  0  0  0  0  0  0  0  0  0  0  0
  147.9028  160.8641  132.4186 H   0  0  0  0  0  0  0  0  0  0  0  0
  148.3427  159.6720  131.1489 H   0  0  0  0  0  0  0  0  0  0  0  0
  146.7110  160.4233  131.1489 H   0  0  0  0  0  0  0  0  0  0  0  0
  145.8464  161.3407  133.0481 H   0  0  0  0  0  0  0  0  0  0  0  0
  143.5737  161.7270  134.0617 H   0  0  0  0  0  0  0  0  0  0  0  0
  141.3121  160.3588  135.1595 H   0  0  0  0  0  0  0  0  0  0  0  0
  141.2460  155.8020  136.7060 H   0  0  0  0  0  0  0  0  0  0  0  0
  143.2756  153.4348  135.1788 H   0  0  0  0  0  0  0  0  0  0  0  0
  143.7504  153.5857  136.9057 H   0  0  0  0  0  0  0  0  0  0  0  0
  141.3637  152.2079  140.7160 H   0  0  0  0  0  0  0  0  0  0  0  0
  140.1075  153.2735  139.9997 H   0  0  0  0  0  0  0  0  0  0  0  0
  139.8803  151.4916  139.9997 H   0  0  0  0  0  0  0  0  0  0  0  0
  142.9814  151.7083  139.8501 H   0  0  0  0  0  0  0  0  0  0  0  0
  142.9409  150.7817  138.3117 H   0  0  0  0  0  0  0  0  0  0  0  0
  143.4642  152.5001  138.3117 H   0  0  0  0  0  0  0  0  0  0  0  0
  145.3574  157.0420  133.5718 H   0  0  0  0  0  0  0  0  0  0  0  0
  150.0217  157.9865  132.9801 H   0  0  0  0  0  0  0  0  0  0  0  0
  149.4065  157.0206  131.5962 H   0  0  0  0  0  0  0  0  0  0  0  0
  149.2233  158.8076  131.5962 H   0  0  0  0  0  0  0  0  0  0  0  0
  146.8820  155.8543  133.3020 H   0  0  0  0  0  0  0  0  0  0  0  0
  146.3085  156.7051  131.8276 H   0  0  0  0  0  0  0  0  0  0  0  0
  147.9075  155.8866  131.8276 H   0  0  0  0  0  0  0  0  0  0  0  0
  148.5101  158.4962  134.9759 H   0  0  0  0  0  0  0  0  0  0  0  0
  1  2  1  0
  2  3  1  0
  3  4  2  0
  4  5  1  0
  5  6  2  0
  6  7  1  0
  7  8  2  0
  8  9  1  0
  9 10  1  0
  9 11  2  0
  8 12  1  0
 12 13  1  0
 13 14  2  0
 13 15  1  0
 15 16  1  0
 16 17  1  0
 17 18  1  0
 18 19  2  0
 18 20  1  0
 20 21  1  0
 20 22  1  0
 20 23  1  0
 23 24  2  0
 23 25  1  0
 12 26  1  0
 26 27  2  0
  2 28  1  0
 28 29  1  0
 28 30  1  0
 28 31  1  0
 31 32  2  0
 27  3  1  0
 26  6  1  0
  1 33  1  0
  1 34  1  0
  1 35  1  0
  4 36  1  0
  5 37  1  0
  7 38  1  0
 10 39  1  0
 16 40  1  0
 16 41  1  0
 21 42  1  0
 21 43  1  0
 21 44  1  0
 22 45  1  0
 22 46  1  0
 22 47  1  0
 27 48  1  0
 29 49  1  0
 29 50  1  0
 29 51  1  0
 30 52  1  0
 30 53  1  0
 30 54  1  0
 31 55  1  0
M  CHG  2  10  -1  25  -1
M  END
>  <UniqueID>  (91) 
90

>  <SMILES>  (91) 
CN(c1ccc2cc(C([NH-])=O)n(C(=O)OCOC(=O)C(C)(C)C(=O)[O-])c2c1)C(C)(C)C=O

>  <Energy>  (91) 
91.22442021867997

>  <Genealogy>  (91) 
CN(c1ccc2cc(C([NH-])=O)n(C(=O)OCOC(=O)C(C)(C)C(=O)[O-])c2c1)C(C)(C)C=O (protonated)
CN(c1ccc2cc(C([NH-])=O)n(C(=O)OCOC(=O)C(C)(C)C(=O)[O-])c2c1)C(C)(C)C=O (3D coordinates assigned)
CN(c1ccc2cc(C([NH-])=O)n(C(=O)OCOC(=O)C(C)(C)C(=O)[O-])c2c1)C(C)(C)C=O (optimized conformer: 91.22442021867997 kcal/mol)

>  <smiles>  (91) 
CN(c1ccc2cc(C(N)=O)n(C(=O)OCOC(=O)C(C)(C)C(=O)O)c2c1)C(C)(C)C=O

>  <score_type>  (91) 
oracle

>  <origin>  (91) 
adg

>  <m_score__min__energy>  (91) 
-8.4700000000000006

>  <m_primary>  (91) 
energy

$$$$
94:0
     RDKit          3D

 36 38  0  0  0  0  0  0  0  0999 V2000
  147.4290  154.9460  132.6270 C   0  0  0  0  0  0  0  0  0  0  0  0
  147.3860  156.4260  132.8560 C   0  0  0  0  0  0  0  0  0  0  0  0
  148.5470  157.2110  132.6510 C   0  0  0  0  0  0  0  0  0  0  0  0
  148.5070  158.6060  132.8160 C   0  0  0  0  0  0  0  0  0  0  0  0
  147.2950  159.1850  133.1810 C   0  0  0  0  0  0  0  0  0  0  0  0
  146.9720  160.5070  133.3810 C   0  0  0  0  0  0  0  0  0  0  0  0
  145.6190  160.5090  133.7160 C   0  0  0  0  0  0  0  0  0  0  0  0
  144.8830  161.7300  134.1050 C   0  0  0  0  0  0  0  0  0  0  0  0
  143.5650  161.9780  133.6240 N   0  0  0  0  0  0  0  0  0  0  0  0
  145.4070  162.5420  134.9150 O   0  0  0  0  0  0  0  0  0  0  0  0
  145.1220  159.2390  133.7110 N   0  0  0  0  0  0  0  0  0  0  0  0
  143.7650  158.8200  133.9250 C   0  0  0  0  0  0  0  0  0  0  0  0
  143.5100  157.9420  134.7940 O   0  0  0  0  0  0  0  0  0  0  0  0
  142.7360  159.4200  133.1880 O   0  0  0  0  0  0  0  0  0  0  0  0
  141.4420  159.6780  133.6630 C   0  0  0  0  0  0  0  0  0  0  0  0
  141.2620  160.1260  134.8290 O   0  0  0  0  0  0  0  0  0  0  0  0
  140.2810  159.4160  132.7850 C   0  0  0  0  0  0  0  0  0  0  0  0
  139.5940  160.4710  132.1590 C   0  0  0  0  0  0  0  0  0  0  0  0
  138.5020  160.2010  131.3310 C   0  0  0  0  0  0  0  0  0  0  0  0
  138.1040  158.8800  131.1310 C   0  0  0  0  0  0  0  0  0  0  0  0
  138.7770  157.8670  131.7400 N   0  0  0  0  0  0  0  0  0  0  0  0
  139.8420  158.1010  132.5510 C   0  0  0  0  0  0  0  0  0  0  0  0
  146.1630  158.4390  133.3860 C   0  0  0  0  0  0  0  0  0  0  0  0
  146.1690  157.0500  133.2080 C   0  0  0  0  0  0  0  0  0  0  0  0
  147.4441  154.4253  133.5959 H   0  0  0  0  0  0  0  0  0  0  0  0
  146.5395  154.6369  132.0585 H   0  0  0  0  0  0  0  0  0  0  0  0
  148.3350  154.6891  132.0585 H   0  0  0  0  0  0  0  0  0  0  0  0
  149.4893  156.7239  132.3598 H   0  0  0  0  0  0  0  0  0  0  0  0
  149.4056  159.2213  132.6615 H   0  0  0  0  0  0  0  0  0  0  0  0
  147.6393  161.3772  133.2949 H   0  0  0  0  0  0  0  0  0  0  0  0
  142.7510  161.4310  133.9810 H   0  0  0  0  0  0  0  0  0  0  0  0
  139.9168  161.5099  132.3215 H   0  0  0  0  0  0  0  0  0  0  0  0
  137.9607  161.0237  130.8409 H   0  0  0  0  0  0  0  0  0  0  0  0
  137.2455  158.6569  130.4805 H   0  0  0  0  0  0  0  0  0  0  0  0
  140.3633  157.2573  133.0268 H   0  0  0  0  0  0  0  0  0  0  0  0
  145.2497  156.4603  133.3389 H   0  0  0  0  0  0  0  0  0  0  0  0
  1  2  1  0
  2  3  2  0
  3  4  1  0
  4  5  2  0
  5  6  1  0
  6  7  2  0
  7  8  1  0
  8  9  1  0
  8 10  2  0
  7 11  1  0
 11 12  1  0
 12 13  2  0
 12 14  1  0
 14 15  1  0
 15 16  2  0
 15 17  1  0
 17 18  2  0
 18 19  1  0
 19 20  2  0
 20 21  1  0
 21 22  2  0
 11 23  1  0
 23 24  2  0
 24  2  1  0
 23  5  1  0
 22 17  1  0
  1 25  1  0
  1 26  1  0
  1 27  1  0
  3 28  1  0
  4 29  1  0
  6 30  1  0
  9 31  1  0
 18 32  1  0
 19 33  1  0
 20 34  1  0
 22 35  1  0
 24 36  1  0
M  CHG  1   9  -1
M  END
>  <UniqueID>  (92) 
91

>  <SMILES>  (92) 
Cc1ccc2cc(C([NH-])=O)n(C(=O)OC(=O)c3cccnc3)c2c1

>  <Energy>  (92) 
79.38646825652448

>  <Genealogy>  (92) 
Cc1ccc2cc(C([NH-])=O)n(C(=O)OC(=O)c3cccnc3)c2c1 (protonated)
Cc1ccc2cc(C([NH-])=O)n(C(=O)OC(=O)c3cccnc3)c2c1 (3D coordinates assigned)
Cc1ccc2cc(C([NH-])=O)n(C(=O)OC(=O)c3cccnc3)c2c1 (optimized conformer: 79.38646825652448 kcal/mol)

>  <smiles>  (92) 
Cc1ccc2cc(C(N)=O)n(C(=O)OC(=O)c3cccnc3)c2c1

>  <score_type>  (92) 
oracle

>  <origin>  (92) 
adg

>  <m_score__min__energy>  (92) 
-7.4199999999999999

>  <m_primary>  (92) 
energy

$$$$
95:0
     RDKit          3D

 28 29  0  0  0  0  0  0  0  0999 V2000
  143.4630  161.4310  133.7250 C   0  0  0  0  0  0  0  0  0  0  0  0
  144.7230  161.3700  134.1400 C   0  0  0  0  0  0  0  0  0  0  0  0
  145.5580  162.8770  134.5120 Cl  0  0  0  0  0  0  0  0  0  0  0  0
  145.3220  160.1090  134.2860 O   0  0  0  0  0  0  0  0  0  0  0  0
  145.4120  159.1200  133.2970 C   0  0  0  0  0  0  0  0  0  0  0  0
  144.4100  158.7990  132.6050 O   0  0  0  0  0  0  0  0  0  0  0  0
  146.6570  158.4270  133.1090 N   0  0  0  0  0  0  0  0  0  0  0  0
  147.0360  157.2270  133.6370 C   0  0  0  0  0  0  0  0  0  0  0  0
  146.1780  156.3140  134.4210 C   0  0  0  0  0  0  0  0  0  0  0  0
  144.7660  156.5100  134.4400 N   0  0  0  0  0  0  0  0  0  0  0  0
  146.6790  155.3840  135.1040 O   0  0  0  0  0  0  0  0  0  0  0  0
  148.3440  156.9230  133.2680 C   0  0  0  0  0  0  0  0  0  0  0  0
  148.7570  157.9760  132.4840 C   0  0  0  0  0  0  0  0  0  0  0  0
  149.9790  158.1990  131.8550 C   0  0  0  0  0  0  0  0  0  0  0  0
  150.1360  159.3910  131.1280 C   0  0  0  0  0  0  0  0  0  0  0  0
  149.0820  160.3310  131.0500 C   0  0  0  0  0  0  0  0  0  0  0  0
  149.2600  161.5470  130.3160 N   0  0  0  0  0  0  0  0  0  0  0  0
  147.8570  160.0730  131.7000 C   0  0  0  0  0  0  0  0  0  0  0  0
  147.7200  158.8700  132.4030 C   0  0  0  0  0  0  0  0  0  0  0  0
  142.9174  160.5063  133.4857 H   0  0  0  0  0  0  0  0  0  0  0  0
  142.9649  162.4062  133.6206 H   0  0  0  0  0  0  0  0  0  0  0  0
  144.3540  157.4590  134.2960 H   0  0  0  0  0  0  0  0  0  0  0  0
  148.9242  156.0303  133.5446 H   0  0  0  0  0  0  0  0  0  0  0  0
  150.7955  157.4653  131.9250 H   0  0  0  0  0  0  0  0  0  0  0  0
  151.0873  159.5951  130.6148 H   0  0  0  0  0  0  0  0  0  0  0  0
  150.1890  162.0200  130.2840 H   0  0  0  0  0  0  0  0  0  0  0  0
  148.4610  161.9810  129.8020 H   0  0  0  0  0  0  0  0  0  0  0  0
  147.0309  160.7980  131.6557 H   0  0  0  0  0  0  0  0  0  0  0  0
  1  2  2  0
  2  3  1  0
  2  4  1  0
  4  5  1  0
  5  6  2  0
  5  7  1  0
  7  8  1  0
  8  9  1  0
  9 10  1  0
  9 11  2  0
  8 12  2  0
 12 13  1  0
 13 14  2  0
 14 15  1  0
 15 16  2  0
 16 17  1  0
 16 18  1  0
 18 19  2  0
 19  7  1  0
 19 13  1  0
  1 20  1  0
  1 21  1  0
 10 22  1  0
 12 23  1  0
 14 24  1  0
 15 25  1  0
 17 26  1  0
 17 27  1  0
 18 28  1  0
M  CHG  1  10  -1
M  END
>  <UniqueID>  (93) 
92

>  <SMILES>  (93) 
C=C(Cl)OC(=O)n1c(C([NH-])=O)cc2ccc(N)cc21

>  <Energy>  (93) 
67.24075567172214

>  <Genealogy>  (93) 
C=C(Cl)OC(=O)n1c(C([NH-])=O)cc2ccc(N)cc21 (protonated)
C=C(Cl)OC(=O)n1c(C([NH-])=O)cc2ccc(N)cc21 (3D coordinates assigned)
C=C(Cl)OC(=O)n1c(C([NH-])=O)cc2ccc(N)cc21 (optimized conformer: 67.24075567172214 kcal/mol)

>  <smiles>  (93) 
C=C(Cl)OC(=O)n1c(C(N)=O)cc2ccc(N)cc21

>  <score_type>  (93) 
oracle

>  <origin>  (93) 
adg

>  <m_score__min__energy>  (93) 
-6.2300000000000004

>  <m_primary>  (93) 
energy

$$$$
96:0
     RDKit          3D

 46 47  0  0  0  0  0  0  0  0999 V2000
  138.7400  160.8230  130.3520 C   0  0  0  0  0  0  0  0  0  0  0  0
  139.0590  160.0130  131.1850 C   0  0  0  0  0  0  0  0  0  0  0  0
  139.4390  159.0380  132.1740 C   0  0  0  0  0  0  0  0  0  0  0  0
  138.4570  158.2030  132.7520 C   0  0  0  0  0  0  0  0  0  0  0  0
  138.8130  157.2400  133.7080 C   0  0  0  0  0  0  0  0  0  0  0  0
  140.1580  157.1320  134.0540 C   0  0  0  0  0  0  0  0  0  0  0  0
  140.7690  156.2980  134.9620 C   0  0  0  0  0  0  0  0  0  0  0  0
  142.1220  156.6200  134.9020 C   0  0  0  0  0  0  0  0  0  0  0  0
  143.1580  155.9050  135.6730 C   0  0  0  0  0  0  0  0  0  0  0  0
  144.4630  155.6900  135.1350 N   0  0  0  0  0  0  0  0  0  0  0  0
  142.8680  155.4230  136.7990 O   0  0  0  0  0  0  0  0  0  0  0  0
  142.3420  157.6250  134.0060 N   0  0  0  0  0  0  0  0  0  0  0  0
  143.5810  158.3140  133.7660 C   0  0  0  0  0  0  0  0  0  0  0  0
  143.7870  159.4490  134.2760 O   0  0  0  0  0  0  0  0  0  0  0  0
  144.5580  157.7160  132.9680 O   0  0  0  0  0  0  0  0  0  0  0  0
  145.9380  157.6860  133.3160 C   0  0  0  0  0  0  0  0  0  0  0  0
  146.4740  156.4050  133.0090 O   0  0  0  0  0  0  0  0  0  0  0  0
  147.1840  155.6370  133.9380 C   0  0  0  0  0  0  0  0  0  0  0  0
  147.1750  155.9360  135.1630 O   0  0  0  0  0  0  0  0  0  0  0  0
  147.9520  154.4420  133.4690 C   0  0  0  0  0  0  0  0  0  0  0  0
  147.0240  153.4000  133.0170 N   0  0  0  0  0  0  0  0  0  0  0  0
  147.5660  152.1110  132.5780 C   0  0  0  0  0  0  0  0  0  0  0  0
  145.5970  153.6040  133.1200 C   0  0  0  0  0  0  0  0  0  0  0  0
  145.0270  153.5010  134.2390 O   0  0  0  0  0  0  0  0  0  0  0  0
  144.7600  153.9710  131.9270 C   0  0  0  0  0  0  0  0  0  0  0  0
  144.2320  155.3220  132.0800 N   0  0  0  0  0  0  0  0  0  0  0  0
  141.1250  157.9260  133.4910 C   0  0  0  0  0  0  0  0  0  0  0  0
  140.7910  158.9120  132.5500 C   0  0  0  0  0  0  0  0  0  0  0  0
  138.4488  161.5625  129.5915 H   0  0  0  0  0  0  0  0  0  0  0  0
  137.4046  158.3088  132.4500 H   0  0  0  0  0  0  0  0  0  0  0  0
  138.0543  156.5909  134.1696 H   0  0  0  0  0  0  0  0  0  0  0  0
  140.2907  155.5393  135.5989 H   0  0  0  0  0  0  0  0  0  0  0  0
  145.1940  155.2110  135.7050 H   0  0  0  0  0  0  0  0  0  0  0  0
  144.6830  155.9370  134.1430 H   0  0  0  0  0  0  0  0  0  0  0  0
  146.4774  158.4561  132.7451 H   0  0  0  0  0  0  0  0  0  0  0  0
  146.0503  157.8834  134.3923 H   0  0  0  0  0  0  0  0  0  0  0  0
  148.6076  154.7336  132.6352 H   0  0  0  0  0  0  0  0  0  0  0  0
  148.5589  154.0520  134.2994 H   0  0  0  0  0  0  0  0  0  0  0  0
  147.8220  151.5022  133.4577 H   0  0  0  0  0  0  0  0  0  0  0  0
  146.8135  151.5836  131.9734 H   0  0  0  0  0  0  0  0  0  0  0  0
  148.4693  152.2798  131.9734 H   0  0  0  0  0  0  0  0  0  0  0  0
  145.3798  153.9235  131.0195 H   0  0  0  0  0  0  0  0  0  0  0  0
  143.9210  153.2643  131.8454 H   0  0  0  0  0  0  0  0  0  0  0  0
  144.8860  155.9850  131.6010 H   0  0  0  0  0  0  0  0  0  0  0  0
  144.2600  155.5610  133.0970 H   0  0  0  0  0  0  0  0  0  0  0  0
  141.5621  159.5673  132.1186 H   0  0  0  0  0  0  0  0  0  0  0  0
  1  2  3  0
  2  3  1  0
  3  4  2  0
  4  5  1  0
  5  6  2  0
  6  7  1  0
  7  8  2  0
  8  9  1  0
  9 10  1  0
  9 11  2  0
  8 12  1  0
 12 13  1  0
 13 14  2  0
 13 15  1  0
 15 16  1  0
 16 17  1  0
 17 18  1  0
 18 19  2  0
 18 20  1  0
 20 21  1  0
 21 22  1  0
 21 23  1  0
 23 24  2  0
 23 25  1  0
 25 26  1  0
 12 27  1  0
 27 28  2  0
 28  3  1  0
 27  6  1  0
  1 29  1  0
  4 30  1  0
  5 31  1  0
  7 32  1  0
 10 33  1  0
 10 34  1  0
 16 35  1  0
 16 36  1  0
 20 37  1  0
 20 38  1  0
 22 39  1  0
 22 40  1  0
 22 41  1  0
 25 42  1  0
 25 43  1  0
 26 44  1  0
 26 45  1  0
 28 46  1  0
M  END
>  <UniqueID>  (94) 
93

>  <SMILES>  (94) 
C#Cc1ccc2cc(C(N)=O)n(C(=O)OCOC(=O)CN(C)C(=O)CN)c2c1

>  <Energy>  (94) 
73.9795750625006

>  <Genealogy>  (94) 
C#Cc1ccc2cc(C(N)=O)n(C(=O)OCOC(=O)CN(C)C(=O)CN)c2c1 (3D coordinates assigned)
C#Cc1ccc2cc(C(N)=O)n(C(=O)OCOC(=O)CN(C)C(=O)CN)c2c1 (optimized conformer: 73.9795750625006 kcal/mol)

>  <smiles>  (94) 
C#Cc1ccc2cc(C(N)=O)n(C(=O)OCOC(=O)CN(C)C(=O)CN)c2c1

>  <score_type>  (94) 
oracle

>  <origin>  (94) 
adg

>  <m_score__min__energy>  (94) 
-7.0099999999999998

>  <m_primary>  (94) 
energy

$$$$
97:0
     RDKit          3D

 43 44  0  0  0  0  0  0  0  0999 V2000
  148.4810  153.8360  133.5220 C   0  0  0  0  0  0  0  0  0  0  0  0
  148.1530  154.7850  132.4620 N   0  0  0  0  0  0  0  0  0  0  0  0
  147.8100  156.1610  132.7050 C   0  0  0  0  0  0  0  0  0  0  0  0
  148.8280  157.1460  132.6510 C   0  0  0  0  0  0  0  0  0  0  0  0
  148.5330  158.5010  132.8710 C   0  0  0  0  0  0  0  0  0  0  0  0
  147.2140  158.8440  133.1500 C   0  0  0  0  0  0  0  0  0  0  0  0
  146.6510  160.0800  133.3710 C   0  0  0  0  0  0  0  0  0  0  0  0
  145.2990  159.8330  133.5870 C   0  0  0  0  0  0  0  0  0  0  0  0
  144.3240  160.8880  133.9340 C   0  0  0  0  0  0  0  0  0  0  0  0
  142.9200  160.6840  133.7650 N   0  0  0  0  0  0  0  0  0  0  0  0
  144.7340  161.9670  134.4380 O   0  0  0  0  0  0  0  0  0  0  0  0
  145.0310  158.5020  133.4900 N   0  0  0  0  0  0  0  0  0  0  0  0
  143.7470  157.8590  133.5460 C   0  0  0  0  0  0  0  0  0  0  0  0
  143.0710  157.7090  132.4910 O   0  0  0  0  0  0  0  0  0  0  0  0
  143.2500  157.4070  134.7700 O   0  0  0  0  0  0  0  0  0  0  0  0
  141.9290  156.9050  134.9310 C   0  0  0  0  0  0  0  0  0  0  0  0
  140.9460  157.9790  134.5670 C   0  0  0  0  0  0  0  0  0  0  0  0
  141.1130  159.1290  135.0580 O   0  0  0  0  0  0  0  0  0  0  0  0
  139.8570  157.7440  133.6460 N   0  0  0  0  0  0  0  0  0  0  0  0
  139.5970  156.3740  133.1910 C   0  0  0  0  0  0  0  0  0  0  0  0
  139.0450  158.8430  133.0990 C   0  0  0  0  0  0  0  0  0  0  0  0
  139.8900  159.7400  132.2520 C   0  0  0  0  0  0  0  0  0  0  0  0
  140.6560  160.5830  132.7870 O   0  0  0  0  0  0  0  0  0  0  0  0
  139.8460  159.6300  130.8680 O   0  0  0  0  0  0  0  0  0  0  0  0
  146.2160  157.9080  133.2260 C   0  0  0  0  0  0  0  0  0  0  0  0
  146.4780  156.5520  132.9900 C   0  0  0  0  0  0  0  0  0  0  0  0
  148.3174  154.3093  134.5014 H   0  0  0  0  0  0  0  0  0  0  0  0
  147.8375  152.9485  133.4316 H   0  0  0  0  0  0  0  0  0  0  0  0
  149.5352  153.5353  133.4316 H   0  0  0  0  0  0  0  0  0  0  0  0
  148.1790  154.4380  131.4770 H   0  0  0  0  0  0  0  0  0  0  0  0
  149.8634  156.8446  132.4337 H   0  0  0  0  0  0  0  0  0  0  0  0
  149.3205  159.2676  132.8242 H   0  0  0  0  0  0  0  0  0  0  0  0
  147.1608  161.0547  133.3759 H   0  0  0  0  0  0  0  0  0  0  0  0
  142.5370  159.7450  133.5160 H   0  0  0  0  0  0  0  0  0  0  0  0
  142.2500  161.4550  133.9780 H   0  0  0  0  0  0  0  0  0  0  0  0
  141.7834  156.0348  134.2741 H   0  0  0  0  0  0  0  0  0  0  0  0
  141.7739  156.6005  135.9766 H   0  0  0  0  0  0  0  0  0  0  0  0
  139.4720  155.7155  134.0632 H   0  0  0  0  0  0  0  0  0  0  0  0
  138.6796  156.3570  132.5843 H   0  0  0  0  0  0  0  0  0  0  0  0
  140.4444  156.0221  132.5843 H   0  0  0  0  0  0  0  0  0  0  0  0
  138.2330  158.4243  132.4863 H   0  0  0  0  0  0  0  0  0  0  0  0
  138.6257  159.4271  133.9315 H   0  0  0  0  0  0  0  0  0  0  0  0
  145.6685  155.8081  133.0251 H   0  0  0  0  0  0  0  0  0  0  0  0
  1  2  1  0
  2  3  1  0
  3  4  2  0
  4  5  1  0
  5  6  2  0
  6  7  1  0
  7  8  2  0
  8  9  1  0
  9 10  1  0
  9 11  2  0
  8 12  1  0
 12 13  1  0
 13 14  2  0
 13 15  1  0
 15 16  1  0
 16 17  1  0
 17 18  2  0
 17 19  1  0
 19 20  1  0
 19 21  1  0
 21 22  1  0
 22 23  2  0
 22 24  1  0
 12 25  1  0
 25 26  2  0
 26  3  1  0
 25  6  1  0
  1 27  1  0
  1 28  1  0
  1 29  1  0
  2 30  1  0
  4 31  1  0
  5 32  1  0
  7 33  1  0
 10 34  1  0
 10 35  1  0
 16 36  1  0
 16 37  1  0
 20 38  1  0
 20 39  1  0
 20 40  1  0
 21 41  1  0
 21 42  1  0
 26 43  1  0
M  CHG  1  24  -1
M  END
>  <UniqueID>  (95) 
94

>  <SMILES>  (95) 
CNc1ccc2cc(C(N)=O)n(C(=O)OCC(=O)N(C)CC(=O)[O-])c2c1

>  <Energy>  (95) 
75.15298296004984

>  <Genealogy>  (95) 
CNc1ccc2cc(C(N)=O)n(C(=O)OCC(=O)N(C)CC(=O)[O-])c2c1 (protonated)
CNc1ccc2cc(C(N)=O)n(C(=O)OCC(=O)N(C)CC(=O)[O-])c2c1 (3D coordinates assigned)
CNc1ccc2cc(C(N)=O)n(C(=O)OCC(=O)N(C)CC(=O)[O-])c2c1 (optimized conformer: 75.15298296004984 kcal/mol)

>  <smiles>  (95) 
CNc1ccc2cc(C(N)=O)n(C(=O)OCC(=O)N(C)CC(=O)O)c2c1

>  <score_type>  (95) 
oracle

>  <origin>  (95) 
adg

>  <m_score__min__energy>  (95) 
-6.7000000000000002

>  <m_primary>  (95) 
energy

$$$$
