0:0
     RDKit          3D

 43 45  0  0  0  0  0  0  0  0999 V2000
  144.7870  154.1410  132.7670 C   0  0  0  0  0  0  0  0  0  0  0  0
  145.0580  155.3990  133.6000 C   0  0  1  0  0  0  0  0  0  0  0  0
  143.8650  155.7600  134.3610 N   0  0  0  0  0  0  0  0  0  0  0  0
  142.8120  156.5870  133.8540 C   0  0  0  0  0  0  0  0  0  0  0  0
  141.9000  156.0870  133.1430 O   0  0  0  0  0  0  0  0  0  0  0  0
  142.8120  157.9950  134.1360 N   0  0  0  0  0  0  0  0  0  0  0  0
  141.7650  158.7630  134.5510 C   0  0  0  0  0  0  0  0  0  0  0  0
  140.4290  158.2710  134.9480 C   0  0  0  0  0  0  0  0  0  0  0  0
  140.0380  158.2300  136.3180 N   0  0  0  0  0  0  0  0  0  0  0  0
  139.6040  157.9240  134.0610 O   0  0  0  0  0  0  0  0  0  0  0  0
  142.1470  160.1000  134.6380 C   0  0  0  0  0  0  0  0  0  0  0  0
  143.4720  160.1240  134.2660 C   0  0  0  0  0  0  0  0  0  0  0  0
  144.3500  161.1930  134.1650 C   0  0  0  0  0  0  0  0  0  0  0  0
  145.6610  160.9350  133.7320 C   0  0  0  0  0  0  0  0  0  0  0  0
  146.0860  159.6170  133.3940 C   0  0  0  0  0  0  0  0  0  0  0  0
  147.5320  159.3700  132.9160 C   0  0  0  0  0  0  0  0  0  0  0  0
  148.2110  160.4600  132.0310 C   0  0  0  0  0  0  0  0  0  0  0  0
  149.0370  159.9770  130.8710 C   0  0  0  0  0  0  0  0  0  0  0  0
  148.5030  159.7880  129.7460 O   0  0  0  0  0  0  0  0  0  0  0  0
  150.3930  159.7250  131.0370 O   0  0  0  0  0  0  0  0  0  0  0  0
  148.4450  158.6100  133.8840 C   0  0  0  0  0  0  0  0  0  0  0  0
  147.9170  157.9150  132.6290 C   0  0  0  0  0  0  0  0  0  0  0  0
  145.1400  158.5580  133.5120 C   0  0  0  0  0  0  0  0  0  0  0  0
  143.8500  158.8450  133.9680 C   0  0  0  0  0  0  0  0  0  0  0  0
  146.2280  155.1870  134.5690 C   0  0  0  0  0  0  0  0  0  0  0  0
  147.3420  154.7380  133.8820 F   0  0  0  0  0  0  0  0  0  0  0  0
  146.5430  156.3850  135.1860 F   0  0  0  0  0  0  0  0  0  0  0  0
  145.8910  154.2600  135.5410 F   0  0  0  0  0  0  0  0  0  0  0  0
  144.6035  153.2892  133.4384 H   0  0  0  0  0  0  0  0  0  0  0  0
  143.9035  154.3047  132.1324 H   0  0  0  0  0  0  0  0  0  0  0  0
  145.6595  153.9264  132.1324 H   0  0  0  0  0  0  0  0  0  0  0  0
  145.3212  156.2102  132.9053 H   0  0  0  0  0  0  0  0  0  0  0  0
  139.4790  159.0030  136.7410 H   0  0  0  0  0  0  0  0  0  0  0  0
  141.5229  160.9541  134.9396 H   0  0  0  0  0  0  0  0  0  0  0  0
  144.0285  162.2144  134.4170 H   0  0  0  0  0  0  0  0  0  0  0  0
  146.3751  161.7679  133.6520 H   0  0  0  0  0  0  0  0  0  0  0  0
  147.4153  161.1034  131.6273 H   0  0  0  0  0  0  0  0  0  0  0  0
  148.9228  160.9684  132.6980 H   0  0  0  0  0  0  0  0  0  0  0  0
  149.5098  158.8757  133.9586 H   0  0  0  0  0  0  0  0  0  0  0  0
  148.4241  158.3899  134.9616 H   0  0  0  0  0  0  0  0  0  0  0  0
  148.6021  157.6807  131.8009 H   0  0  0  0  0  0  0  0  0  0  0  0
  147.3591  156.9880  132.4302 H   0  0  0  0  0  0  0  0  0  0  0  0
  145.4211  157.5279  133.2477 H   0  0  0  0  0  0  0  0  0  0  0  0
  1  2  1  0
  2  3  1  0
  3  4  1  0
  4  5  2  0
  4  6  1  0
  6  7  1  0
  7  8  1  0
  8  9  1  0
  8 10  2  0
  7 11  2  0
 11 12  1  0
 12 13  2  0
 13 14  1  0
 14 15  2  0
 15 16  1  0
 16 17  1  0
 17 18  1  0
 18 19  2  0
 18 20  1  0
 16 21  1  0
 21 22  1  0
 15 23  1  0
 23 24  2  0
  2 25  1  0
 25 26  1  0
 25 27  1  0
 25 28  1  0
 24  6  1  0
 24 12  1  0
 22 16  1  0
  1 29  1  0
  1 30  1  0
  1 31  1  0
  2 32  1  6
  9 33  1  0
 11 34  1  0
 13 35  1  0
 14 36  1  0
 17 37  1  0
 17 38  1  0
 21 39  1  0
 21 40  1  0
 22 41  1  0
 22 42  1  0
 23 43  1  0
M  CHG  3   3  -1   9  -1  20  -1
M  END
>  <UniqueID>  (1) 
1

>  <SMILES>  (1) 
C[C@@H]([N-]C(=O)n1c(C([NH-])=O)cc2ccc(C3(CC(=O)[O-])CC3)cc21)C(F)(F)F

>  <Energy>  (1) 
353.5896508811955

>  <Genealogy>  (1) 
C[C@@H]([N-]C(=O)n1c(C([NH-])=O)cc2ccc(C3(CC(=O)[O-])CC3)cc21)C(F)(F)F (protonated)
C[C@@H]([N-]C(=O)n1c(C([NH-])=O)cc2ccc(C3(CC(=O)[O-])CC3)cc21)C(F)(F)F (3D coordinates assigned)
C[C@@H]([N-]C(=O)n1c(C([NH-])=O)cc2ccc(C3(CC(=O)[O-])CC3)cc21)C(F)(F)F (nonaromatic ring conformer: 353.5896508811955 kcal/mol)

>  <smiles>  (1) 
C[C@@H](NC(=O)n1c(C(N)=O)cc2ccc(C3(CC(=O)O)CC3)cc21)C(F)(F)F

>  <score_type>  (1) 
oracle

>  <origin>  (1) 
adg

>  <m_score__min__energy>  (1) 
-7.54

>  <m_primary>  (1) 
energy

$$$$
1:0
     RDKit          3D

 48 50  0  0  0  0  0  0  0  0999 V2000
  145.5260  153.4830  133.8380 C   0  0  0  0  0  0  0  0  0  0  0  0
  145.0120  154.9340  133.8810 C   0  0  0  0  0  0  0  0  0  0  0  0
  144.2460  155.2310  132.5830 C   0  0  0  0  0  0  0  0  0  0  0  0
  144.0620  155.1400  135.0770 C   0  0  0  0  0  0  0  0  0  0  0  0
  146.1080  155.8570  133.9450 O   0  0  0  0  0  0  0  0  0  0  0  0
  146.5790  156.6650  132.8990 C   0  0  0  0  0  0  0  0  0  0  0  0
  147.0940  156.1570  131.8680 O   0  0  0  0  0  0  0  0  0  0  0  0
  146.4970  158.0930  133.0240 N   0  0  0  0  0  0  0  0  0  0  0  0
  147.4970  159.0100  132.8920 C   0  0  0  0  0  0  0  0  0  0  0  0
  148.8820  158.7280  132.4610 C   0  0  0  0  0  0  0  0  0  0  0  0
  149.3670  157.3870  132.4700 N   0  0  0  0  0  0  0  0  0  0  0  0
  149.6550  159.6610  132.1190 O   0  0  0  0  0  0  0  0  0  0  0  0
  147.0170  160.2950  133.1410 C   0  0  0  0  0  0  0  0  0  0  0  0
  145.6790  160.1370  133.4230 C   0  0  0  0  0  0  0  0  0  0  0  0
  144.7150  161.0840  133.7490 C   0  0  0  0  0  0  0  0  0  0  0  0
  143.4110  160.6350  134.0130 C   0  0  0  0  0  0  0  0  0  0  0  0
  143.0930  159.2510  133.9590 C   0  0  0  0  0  0  0  0  0  0  0  0
  141.7160  158.7810  134.2500 C   0  0  0  0  0  0  0  0  0  0  0  0
  141.4140  158.1820  135.4860 C   0  0  0  0  0  0  0  0  0  0  0  0
  140.1220  157.7250  135.7550 C   0  0  0  0  0  0  0  0  0  0  0  0
  139.1140  157.8690  134.7990 C   0  0  0  0  0  0  0  0  0  0  0  0
  139.3830  158.4860  133.5700 C   0  0  0  0  0  0  0  0  0  0  0  0
  138.3310  158.6070  132.5980 N   0  0  0  0  0  0  0  0  0  0  0  0
  138.1710  159.7250  131.7140 C   0  0  0  0  0  0  0  0  0  0  0  0
  138.8490  160.7750  131.8670 O   0  0  0  0  0  0  0  0  0  0  0  0
  137.2230  159.6690  130.7020 O   0  0  0  0  0  0  0  0  0  0  0  0
  140.6920  158.9230  133.2930 C   0  0  0  0  0  0  0  0  0  0  0  0
  144.1060  158.3200  133.6260 C   0  0  0  0  0  0  0  0  0  0  0  0
  145.3910  158.8000  133.3460 C   0  0  0  0  0  0  0  0  0  0  0  0
  145.6581  153.1102  134.8644 H   0  0  0  0  0  0  0  0  0  0  0  0
  144.7970  152.8513  133.3094 H   0  0  0  0  0  0  0  0  0  0  0  0
  146.4901  153.4511  133.3094 H   0  0  0  0  0  0  0  0  0  0  0  0
  143.2461  155.6187  132.8278 H   0  0  0  0  0  0  0  0  0  0  0  0
  144.7964  155.9809  131.9958 H   0  0  0  0  0  0  0  0  0  0  0  0
  144.1470  154.3061  131.9958 H   0  0  0  0  0  0  0  0  0  0  0  0
  144.6225  155.0185  136.0156 H   0  0  0  0  0  0  0  0  0  0  0  0
  143.6331  156.1520  135.0345 H   0  0  0  0  0  0  0  0  0  0  0  0
  143.2524  154.3965  135.0345 H   0  0  0  0  0  0  0  0  0  0  0  0
  149.1530  156.7340  131.6840 H   0  0  0  0  0  0  0  0  0  0  0  0
  147.5867  161.2357  133.1172 H   0  0  0  0  0  0  0  0  0  0  0  0
  144.9663  162.1537  133.7987 H   0  0  0  0  0  0  0  0  0  0  0  0
  142.6261  161.3634  134.2647 H   0  0  0  0  0  0  0  0  0  0  0  0
  142.2012  158.0726  136.2465 H   0  0  0  0  0  0  0  0  0  0  0  0
  139.8978  157.2507  136.7218 H   0  0  0  0  0  0  0  0  0  0  0  0
  138.1016  157.4954  135.0124 H   0  0  0  0  0  0  0  0  0  0  0  0
  137.5780  157.8820  132.5920 H   0  0  0  0  0  0  0  0  0  0  0  0
  140.9179  159.3805  132.3185 H   0  0  0  0  0  0  0  0  0  0  0  0
  143.8882  157.2425  133.5881 H   0  0  0  0  0  0  0  0  0  0  0  0
  1  2  1  0
  2  3  1  0
  2  4  1  0
  2  5  1  0
  5  6  1  0
  6  7  2  0
  6  8  1  0
  8  9  1  0
  9 10  1  0
 10 11  1  0
 10 12  2  0
  9 13  2  0
 13 14  1  0
 14 15  2  0
 15 16  1  0
 16 17  2  0
 17 18  1  0
 18 19  2  0
 19 20  1  0
 20 21  2  0
 21 22  1  0
 22 23  1  0
 23 24  1  0
 24 25  2  0
 24 26  1  0
 22 27  2  0
 17 28  1  0
 28 29  2  0
 29  8  1  0
 29 14  1  0
 27 18  1  0
  1 30  1  0
  1 31  1  0
  1 32  1  0
  3 33  1  0
  3 34  1  0
  3 35  1  0
  4 36  1  0
  4 37  1  0
  4 38  1  0
 11 39  1  0
 13 40  1  0
 15 41  1  0
 16 42  1  0
 19 43  1  0
 20 44  1  0
 21 45  1  0
 23 46  1  0
 27 47  1  0
 28 48  1  0
M  CHG  2  11  -1  26  -1
M  END
>  <UniqueID>  (2) 
2

>  <SMILES>  (2) 
CC(C)(C)OC(=O)n1c(C([NH-])=O)cc2ccc(-c3cccc(NC(=O)[O-])c3)cc21

>  <Energy>  (2) 
92.04238599841244

>  <Genealogy>  (2) 
CC(C)(C)OC(=O)n1c(C([NH-])=O)cc2ccc(-c3cccc(NC(=O)[O-])c3)cc21 (protonated)
CC(C)(C)OC(=O)n1c(C([NH-])=O)cc2ccc(-c3cccc(NC(=O)[O-])c3)cc21 (3D coordinates assigned)
CC(C)(C)OC(=O)n1c(C([NH-])=O)cc2ccc(-c3cccc(NC(=O)[O-])c3)cc21 (optimized conformer: 92.04238599841244 kcal/mol)

>  <smiles>  (2) 
CC(C)(C)OC(=O)n1c(C(N)=O)cc2ccc(-c3cccc(NC(=O)O)c3)cc21

>  <score_type>  (2) 
oracle

>  <origin>  (2) 
adg

>  <m_score__min__energy>  (2) 
-9.1699999999999999

>  <m_primary>  (2) 
energy

$$$$
2:0
     RDKit          3D

 49 52  0  0  0  0  0  0  0  0999 V2000
  144.7950  153.8270  132.0990 C   0  0  0  0  0  0  0  0  0  0  0  0
  145.8360  153.9420  133.1660 C   0  0  0  0  0  0  0  0  0  0  0  0
  145.7530  153.2120  134.1900 O   0  0  0  0  0  0  0  0  0  0  0  0
  146.9290  154.8640  133.0340 N   0  0  0  0  0  0  0  0  0  0  0  0
  148.2280  154.5760  132.7400 C   0  0  0  0  0  0  0  0  0  0  0  0
  148.8100  153.2220  132.6150 C   0  0  0  0  0  0  0  0  0  0  0  0
  147.9810  152.0630  132.6040 N   0  0  0  0  0  0  0  0  0  0  0  0
  150.0610  153.0840  132.5530 O   0  0  0  0  0  0  0  0  0  0  0  0
  148.9730  155.7470  132.6220 C   0  0  0  0  0  0  0  0  0  0  0  0
  148.0830  156.7710  132.8580 C   0  0  0  0  0  0  0  0  0  0  0  0
  148.2800  158.1470  132.8490 C   0  0  0  0  0  0  0  0  0  0  0  0
  147.1700  158.9730  133.0930 C   0  0  0  0  0  0  0  0  0  0  0  0
  145.8860  158.4170  133.3300 C   0  0  0  0  0  0  0  0  0  0  0  0
  144.7310  159.3170  133.5720 C   0  0  0  0  0  0  0  0  0  0  0  0
  143.5390  158.8900  134.0420 N   0  0  0  0  0  0  0  0  0  0  0  0
  142.8300  160.0380  134.0930 C   0  0  0  0  0  0  0  0  0  0  0  0
  141.4060  160.1200  134.5910 C   0  0  2  0  0  0  0  0  0  0  0  0
  141.2390  159.3880  135.9040 C   0  0  0  0  0  0  0  0  0  0  0  0
  140.7800  158.0900  135.6160 O   0  0  0  0  0  0  0  0  0  0  0  0
  140.2480  158.1060  134.3020 C   0  0  0  0  0  0  0  0  0  0  0  0
  140.9330  156.9760  133.5030 C   0  0  0  0  0  0  0  0  0  0  0  0
  138.7430  157.8250  134.3900 C   0  0  0  0  0  0  0  0  0  0  0  0
  140.4430  159.4530  133.7260 N   0  0  0  0  0  0  0  0  0  0  0  0
  140.6680  159.5700  132.2730 C   0  0  0  0  0  0  0  0  0  0  0  0
  143.5440  161.0630  133.6910 O   0  0  0  0  0  0  0  0  0  0  0  0
  144.7260  160.6500  133.3590 N   0  0  0  0  0  0  0  0  0  0  0  0
  145.7280  157.0100  133.3260 C   0  0  0  0  0  0  0  0  0  0  0  0
  146.8560  156.2120  133.1000 C   0  0  0  0  0  0  0  0  0  0  0  0
  143.8041  153.7175  132.5638 H   0  0  0  0  0  0  0  0  0  0  0  0
  144.8089  154.7321  131.4741 H   0  0  0  0  0  0  0  0  0  0  0  0
  145.0061  152.9467  131.4741 H   0  0  0  0  0  0  0  0  0  0  0  0
  147.2690  151.9040  133.3520 H   0  0  0  0  0  0  0  0  0  0  0  0
  150.0446  155.8351  132.3897 H   0  0  0  0  0  0  0  0  0  0  0  0
  149.2745  158.5760  132.6567 H   0  0  0  0  0  0  0  0  0  0  0  0
  147.2979  160.0655  133.1004 H   0  0  0  0  0  0  0  0  0  0  0  0
  141.2204  161.2025  134.6514 H   0  0  0  0  0  0  0  0  0  0  0  0
  142.2042  159.3359  136.4290 H   0  0  0  0  0  0  0  0  0  0  0  0
  140.5215  159.9153  136.5499 H   0  0  0  0  0  0  0  0  0  0  0  0
  141.3738  156.2488  134.2008 H   0  0  0  0  0  0  0  0  0  0  0  0
  140.1885  156.4715  132.8695 H   0  0  0  0  0  0  0  0  0  0  0  0
  141.7246  157.4027  132.8695 H   0  0  0  0  0  0  0  0  0  0  0  0
  138.4417  157.7687  135.4464 H   0  0  0  0  0  0  0  0  0  0  0  0
  138.1891  158.6352  133.8933 H   0  0  0  0  0  0  0  0  0  0  0  0
  138.5187  156.8695  133.8933 H   0  0  0  0  0  0  0  0  0  0  0  0
  141.6304  160.0704  132.0901 H   0  0  0  0  0  0  0  0  0  0  0  0
  140.6851  158.5666  131.8226 H   0  0  0  0  0  0  0  0  0  0  0  0
  139.8564  160.1603  131.8226 H   0  0  0  0  0  0  0  0  0  0  0  0
  145.4900  161.2610  132.9990 H   0  0  0  0  0  0  0  0  0  0  0  0
  144.7415  156.5542  133.4966 H   0  0  0  0  0  0  0  0  0  0  0  0
  1  2  1  0
  2  3  2  0
  2  4  1  0
  4  5  1  0
  5  6  1  0
  6  7  1  0
  6  8  2  0
  5  9  2  0
  9 10  1  0
 10 11  2  0
 11 12  1  0
 12 13  2  0
 13 14  1  0
 14 15  1  0
 15 16  2  0
 16 17  1  0
 17 18  1  0
 18 19  1  0
 19 20  1  0
 20 21  1  0
 20 22  1  0
 20 23  1  0
 23 24  1  0
 16 25  1  0
 25 26  1  0
 13 27  1  0
 27 28  2  0
 28  4  1  0
 28 10  1  0
 26 14  2  0
 23 17  1  0
  1 29  1  0
  1 30  1  0
  1 31  1  0
  7 32  1  0
  9 33  1  0
 11 34  1  0
 12 35  1  0
 17 36  1  1
 18 37  1  0
 18 38  1  0
 21 39  1  0
 21 40  1  0
 21 41  1  0
 22 42  1  0
 22 43  1  0
 22 44  1  0
 24 45  1  0
 24 46  1  0
 24 47  1  0
 26 48  1  0
 27 49  1  0
M  CHG  2   7  -1  26   1
M  END
>  <UniqueID>  (3) 
3

>  <SMILES>  (3) 
CC(=O)n1c(C([NH-])=O)cc2ccc(-c3nc([C@@H]4COC(C)(C)N4C)o[nH+]3)cc21

>  <Energy>  (3) 
133.01157600957401

>  <Genealogy>  (3) 
CC(=O)n1c(C([NH-])=O)cc2ccc(-c3nc(C4COC(C)(C)N4C)o[nH+]3)cc21 (protonated)
CC(=O)n1c(C([NH-])=O)cc2ccc(-c3nc([C@@H]4COC(C)(C)N4C)o[nH+]3)cc21 (chirality)
CC(=O)n1c(C([NH-])=O)cc2ccc(-c3nc([C@@H]4COC(C)(C)N4C)o[nH+]3)cc21 (3D coordinates assigned)
CC(=O)n1c(C([NH-])=O)cc2ccc(-c3nc([C@@H]4COC(C)(C)N4C)o[nH+]3)cc21 (nonaromatic ring conformer: 133.01157600957401 kcal/mol)

>  <smiles>  (3) 
CC(=O)n1c(C(N)=O)cc2ccc(-c3noc(C4COC(C)(C)N4C)n3)cc21

>  <score_type>  (3) 
oracle

>  <origin>  (3) 
adg

>  <m_score__min__energy>  (3) 
-8.3499999999999996

>  <m_primary>  (3) 
energy

$$$$
3:0
     RDKit          3D

 31 32  0  0  0  0  0  0  0  0999 V2000
  140.9760  159.5940  132.6860 N   0  0  0  0  0  0  0  0  0  0  0  0
  141.7790  159.9630  133.8040 C   0  0  0  0  0  0  0  0  0  0  0  0
  141.2210  160.3930  134.8500 O   0  0  0  0  0  0  0  0  0  0  0  0
  143.2540  159.8940  133.7380 C   0  0  0  0  0  0  0  0  0  0  0  0
  144.0850  160.9970  133.9240 C   0  0  0  0  0  0  0  0  0  0  0  0
  145.3600  160.5380  133.6860 C   0  0  0  0  0  0  0  0  0  0  0  0
  146.5780  161.2070  133.7370 C   0  0  0  0  0  0  0  0  0  0  0  0
  147.7440  160.4740  133.4650 C   0  0  0  0  0  0  0  0  0  0  0  0
  147.6810  159.0930  133.1520 C   0  0  0  0  0  0  0  0  0  0  0  0
  148.9080  158.3820  132.8920 N   0  0  0  0  0  0  0  0  0  0  0  0
  149.7410  158.5620  131.7020 C   0  0  0  0  0  0  0  0  0  0  0  0
  149.1530  159.6310  130.7830 C   0  0  0  0  0  0  0  0  0  0  0  0
  149.5600  159.3970  129.4820 F   0  0  0  0  0  0  0  0  0  0  0  0
  149.5930  160.8830  131.1760 F   0  0  0  0  0  0  0  0  0  0  0  0
  146.4210  158.4460  133.1170 C   0  0  0  0  0  0  0  0  0  0  0  0
  145.2750  159.2060  133.3760 C   0  0  0  0  0  0  0  0  0  0  0  0
  143.9890  158.7940  133.4090 N   0  0  0  0  0  0  0  0  0  0  0  0
  143.5260  157.4480  133.2130 C   0  0  0  0  0  0  0  0  0  0  0  0
  142.4880  157.1710  132.2750 N   0  0  0  0  0  0  0  0  0  0  0  0
  144.0140  156.5100  133.8970 O   0  0  0  0  0  0  0  0  0  0  0  0
  141.3960  159.4910  131.7360 H   0  0  0  0  0  0  0  0  0  0  0  0
  143.7852  162.0182  134.2021 H   0  0  0  0  0  0  0  0  0  0  0  0
  146.6264  162.2780  133.9830 H   0  0  0  0  0  0  0  0  0  0  0  0
  148.7209  160.9788  133.4952 H   0  0  0  0  0  0  0  0  0  0  0  0
  149.2300  157.6760  133.5940 H   0  0  0  0  0  0  0  0  0  0  0  0
  150.7507  158.8691  132.0120 H   0  0  0  0  0  0  0  0  0  0  0  0
  149.7812  157.6095  131.1532 H   0  0  0  0  0  0  0  0  0  0  0  0
  148.0554  159.5919  130.8436 H   0  0  0  0  0  0  0  0  0  0  0  0
  146.3455  157.3720  132.8916 H   0  0  0  0  0  0  0  0  0  0  0  0
  142.0210  157.9470  131.7540 H   0  0  0  0  0  0  0  0  0  0  0  0
  142.1600  156.1910  132.1250 H   0  0  0  0  0  0  0  0  0  0  0  0
  1  2  1  0
  2  3  2  0
  2  4  1  0
  4  5  2  0
  5  6  1  0
  6  7  2  0
  7  8  1  0
  8  9  2  0
  9 10  1  0
 10 11  1  0
 11 12  1  0
 12 13  1  0
 12 14  1  0
  9 15  1  0
 15 16  2  0
 16 17  1  0
 17 18  1  0
 18 19  1  0
 18 20  2  0
 17  4  1  0
 16  6  1  0
  1 21  1  0
  5 22  1  0
  7 23  1  0
  8 24  1  0
 10 25  1  0
 11 26  1  0
 11 27  1  0
 12 28  1  0
 15 29  1  0
 19 30  1  0
 19 31  1  0
M  CHG  1   1  -1
M  END
>  <UniqueID>  (4) 
4

>  <SMILES>  (4) 
[NH-]C(=O)c1cc2ccc(NCC(F)F)cc2n1C(N)=O

>  <Energy>  (4) 
67.09451581790341

>  <Genealogy>  (4) 
[NH-]C(=O)c1cc2ccc(NCC(F)F)cc2n1C(N)=O (protonated)
[NH-]C(=O)c1cc2ccc(NCC(F)F)cc2n1C(N)=O (3D coordinates assigned)
[NH-]C(=O)c1cc2ccc(NCC(F)F)cc2n1C(N)=O (optimized conformer: 67.09451581790341 kcal/mol)

>  <smiles>  (4) 
NC(=O)c1cc2ccc(NCC(F)F)cc2n1C(N)=O

>  <score_type>  (4) 
oracle

>  <origin>  (4) 
adg

>  <m_score__min__energy>  (4) 
-6.2000000000000002

>  <m_primary>  (4) 
energy

$$$$
4:0
     RDKit          3D

 42 45  0  0  0  0  0  0  0  0999 V2000
  142.4460  158.0600  133.3370 C   0  0  0  0  0  0  0  0  0  0  0  0
  143.6540  158.2960  132.6250 O   0  0  0  0  0  0  0  0  0  0  0  0
  144.8420  158.6740  133.2580 C   0  0  0  0  0  0  0  0  0  0  0  0
  144.9270  159.7970  133.8280 O   0  0  0  0  0  0  0  0  0  0  0  0
  145.9670  157.7800  133.2570 N   0  0  0  0  0  0  0  0  0  0  0  0
  147.2860  158.1150  133.1890 C   0  0  0  0  0  0  0  0  0  0  0  0
  147.8360  159.4820  133.2770 C   0  0  0  0  0  0  0  0  0  0  0  0
  147.1770  160.5870  132.6560 N   0  0  0  0  0  0  0  0  0  0  0  0
  148.8760  159.6890  133.9580 O   0  0  0  0  0  0  0  0  0  0  0  0
  148.0790  156.9770  133.0710 C   0  0  0  0  0  0  0  0  0  0  0  0
  147.1990  155.9200  133.0840 C   0  0  0  0  0  0  0  0  0  0  0  0
  147.4430  154.5540  132.9840 C   0  0  0  0  0  0  0  0  0  0  0  0
  146.3410  153.6850  132.9870 C   0  0  0  0  0  0  0  0  0  0  0  0
  145.0180  154.1900  133.0790 C   0  0  0  0  0  0  0  0  0  0  0  0
  143.8600  153.2600  133.0660 C   0  0  0  0  0  0  0  0  0  0  0  0
  142.5800  153.6990  133.5050 C   0  0  0  0  0  0  0  0  0  0  0  0
  141.4780  152.8240  133.4980 C   0  0  0  0  0  0  0  0  0  0  0  0
  141.6850  151.5230  133.0500 C   0  0  0  0  0  0  0  0  0  0  0  0
  140.7860  150.5330  132.9620 N   0  0  0  0  0  0  0  0  0  0  0  0
  141.5300  149.5100  132.4730 C   0  0  0  0  0  0  0  0  0  0  0  0
  140.9800  148.2500  132.2200 O   0  0  0  0  0  0  0  0  0  0  0  0
  140.1810  147.9850  131.0750 C   0  0  0  0  0  0  0  0  0  0  0  0
  142.8380  149.8080  132.2530 N   0  0  0  0  0  0  0  0  0  0  0  0
  142.9040  151.0930  132.6270 C   0  0  0  0  0  0  0  0  0  0  0  0
  144.0190  151.9260  132.6190 C   0  0  0  0  0  0  0  0  0  0  0  0
  144.8110  155.5860  133.1770 C   0  0  0  0  0  0  0  0  0  0  0  0
  145.9300  156.4280  133.1940 C   0  0  0  0  0  0  0  0  0  0  0  0
  142.6442  158.0987  134.4183 H   0  0  0  0  0  0  0  0  0  0  0  0
  141.7075  158.8308  133.0717 H   0  0  0  0  0  0  0  0  0  0  0  0
  142.0519  157.0679  133.0717 H   0  0  0  0  0  0  0  0  0  0  0  0
  147.6020  161.5400  132.6950 H   0  0  0  0  0  0  0  0  0  0  0  0
  146.2320  160.4790  132.2270 H   0  0  0  0  0  0  0  0  0  0  0  0
  149.1748  156.9326  132.9856 H   0  0  0  0  0  0  0  0  0  0  0  0
  148.4694  154.1665  132.9049 H   0  0  0  0  0  0  0  0  0  0  0  0
  146.5047  152.5995  132.9172 H   0  0  0  0  0  0  0  0  0  0  0  0
  142.4503  154.7341  133.8539 H   0  0  0  0  0  0  0  0  0  0  0  0
  140.4856  153.1575  133.8356 H   0  0  0  0  0  0  0  0  0  0  0  0
  139.1818  147.6536  131.3939 H   0  0  0  0  0  0  0  0  0  0  0  0
  140.0887  148.9006  130.4724 H   0  0  0  0  0  0  0  0  0  0  0  0
  140.6541  147.1957  130.4724 H   0  0  0  0  0  0  0  0  0  0  0  0
  144.9968  151.5581  132.2749 H   0  0  0  0  0  0  0  0  0  0  0  0
  143.7941  156.0008  133.2385 H   0  0  0  0  0  0  0  0  0  0  0  0
  1  2  1  0
  2  3  1  0
  3  4  2  0
  3  5  1  0
  5  6  1  0
  6  7  1  0
  7  8  1  0
  7  9  2  0
  6 10  2  0
 10 11  1  0
 11 12  2  0
 12 13  1  0
 13 14  2  0
 14 15  1  0
 15 16  2  0
 16 17  1  0
 17 18  2  0
 18 19  1  0
 19 20  2  0
 20 21  1  0
 21 22  1  0
 20 23  1  0
 23 24  1  0
 24 25  2  0
 14 26  1  0
 26 27  2  0
 27  5  1  0
 27 11  1  0
 25 15  1  0
 24 18  1  0
  1 28  1  0
  1 29  1  0
  1 30  1  0
  8 31  1  0
  8 32  1  0
 10 33  1  0
 12 34  1  0
 13 35  1  0
 16 36  1  0
 17 37  1  0
 22 38  1  0
 22 39  1  0
 22 40  1  0
 25 41  1  0
 26 42  1  0
M  CHG  1  23  -1
M  END
>  <UniqueID>  (5) 
5

>  <SMILES>  (5) 
COC(=O)n1c(C(N)=O)cc2ccc(-c3ccc4nc(OC)[n-]c4c3)cc21

>  <Energy>  (5) 
121.47866236929698

>  <Genealogy>  (5) 
COC(=O)n1c(C(N)=O)cc2ccc(-c3ccc4nc(OC)[n-]c4c3)cc21 (protonated)
COC(=O)n1c(C(N)=O)cc2ccc(-c3ccc4nc(OC)[n-]c4c3)cc21 (3D coordinates assigned)
COC(=O)n1c(C(N)=O)cc2ccc(-c3ccc4nc(OC)[n-]c4c3)cc21 (optimized conformer: 121.47866236929698 kcal/mol)

>  <smiles>  (5) 
COC(=O)n1c(C(N)=O)cc2ccc(-c3ccc4nc(OC)[nH]c4c3)cc21

>  <score_type>  (5) 
oracle

>  <origin>  (5) 
adg

>  <m_score__min__energy>  (5) 
-7.8700000000000001

>  <m_primary>  (5) 
energy

$$$$
5:0
     RDKit          3D

 35 36  0  0  0  0  0  0  0  0999 V2000
  137.9780  159.7400  130.9500 C   0  0  0  0  0  0  0  0  0  0  0  0
  139.2330  160.0030  131.7810 C   0  0  0  0  0  0  0  0  0  0  0  0
  139.9300  158.7080  132.2360 C   0  0  0  0  0  0  0  0  0  0  0  0
  140.4890  158.7640  133.6680 C   0  0  0  0  0  0  0  0  0  0  0  0
  141.9040  159.2820  133.7070 C   0  0  0  0  0  0  0  0  0  0  0  0
  142.1450  160.6770  133.7400 C   0  0  0  0  0  0  0  0  0  0  0  0
  143.4570  161.1770  133.7310 C   0  0  0  0  0  0  0  0  0  0  0  0
  144.5040  160.2610  133.6970 C   0  0  0  0  0  0  0  0  0  0  0  0
  145.8590  160.4780  133.6580 C   0  0  0  0  0  0  0  0  0  0  0  0
  146.4310  159.2120  133.6030 C   0  0  0  0  0  0  0  0  0  0  0  0
  147.8850  158.9910  133.5600 C   0  0  0  0  0  0  0  0  0  0  0  0
  148.4730  157.8740  134.2270 N   0  0  0  0  0  0  0  0  0  0  0  0
  148.6090  159.7540  132.8680 O   0  0  0  0  0  0  0  0  0  0  0  0
  145.4740  158.2400  133.6360 N   0  0  0  0  0  0  0  0  0  0  0  0
  145.6800  156.8180  133.7610 C   0  0  0  0  0  0  0  0  0  0  0  0
  145.4330  155.9490  132.6570 N   0  0  0  0  0  0  0  0  0  0  0  0
  146.0400  156.3180  134.8580 O   0  0  0  0  0  0  0  0  0  0  0  0
  144.2930  158.9040  133.6820 C   0  0  0  0  0  0  0  0  0  0  0  0
  142.9930  158.3820  133.6690 C   0  0  0  0  0  0  0  0  0  0  0  0
  137.1248  159.5612  131.6209 H   0  0  0  0  0  0  0  0  0  0  0  0
  137.7686  160.6138  130.3154 H   0  0  0  0  0  0  0  0  0  0  0  0
  138.1371  158.8557  130.3154 H   0  0  0  0  0  0  0  0  0  0  0  0
  139.9399  160.5880  131.1743 H   0  0  0  0  0  0  0  0  0  0  0  0
  138.9232  160.5474  132.6852 H   0  0  0  0  0  0  0  0  0  0  0  0
  139.2008  157.8862  132.1819 H   0  0  0  0  0  0  0  0  0  0  0  0
  140.7896  158.5588  131.5661 H   0  0  0  0  0  0  0  0  0  0  0  0
  139.8521  159.4277  134.2712 H   0  0  0  0  0  0  0  0  0  0  0  0
  140.4931  157.7398  134.0692 H   0  0  0  0  0  0  0  0  0  0  0  0
  141.2961  161.3757  133.7730 H   0  0  0  0  0  0  0  0  0  0  0  0
  143.6513  162.2595  133.7502 H   0  0  0  0  0  0  0  0  0  0  0  0
  146.3806  161.4464  133.6681 H   0  0  0  0  0  0  0  0  0  0  0  0
  147.8740  157.1590  134.6960 H   0  0  0  0  0  0  0  0  0  0  0  0
  149.5070  157.7320  134.2020 H   0  0  0  0  0  0  0  0  0  0  0  0
  145.8700  156.1260  131.7260 H   0  0  0  0  0  0  0  0  0  0  0  0
  142.8236  157.2958  133.6301 H   0  0  0  0  0  0  0  0  0  0  0  0
  1  2  1  0
  2  3  1  0
  3  4  1  0
  4  5  1  0
  5  6  2  0
  6  7  1  0
  7  8  2  0
  8  9  1  0
  9 10  2  0
 10 11  1  0
 11 12  1  0
 11 13  2  0
 10 14  1  0
 14 15  1  0
 15 16  1  0
 15 17  2  0
 14 18  1  0
 18 19  2  0
 19  5  1  0
 18  8  1  0
  1 20  1  0
  1 21  1  0
  1 22  1  0
  2 23  1  0
  2 24  1  0
  3 25  1  0
  3 26  1  0
  4 27  1  0
  4 28  1  0
  6 29  1  0
  7 30  1  0
  9 31  1  0
 12 32  1  0
 12 33  1  0
 16 34  1  0
 19 35  1  0
M  CHG  1  16  -1
M  END
>  <UniqueID>  (6) 
6

>  <SMILES>  (6) 
CCCCc1ccc2cc(C(N)=O)n(C([NH-])=O)c2c1

>  <Energy>  (6) 
71.19636739659185

>  <Genealogy>  (6) 
CCCCc1ccc2cc(C(N)=O)n(C([NH-])=O)c2c1 (protonated)
CCCCc1ccc2cc(C(N)=O)n(C([NH-])=O)c2c1 (3D coordinates assigned)
CCCCc1ccc2cc(C(N)=O)n(C([NH-])=O)c2c1 (optimized conformer: 71.19636739659185 kcal/mol)

>  <smiles>  (6) 
CCCCc1ccc2cc(C(N)=O)n(C(N)=O)c2c1

>  <score_type>  (6) 
oracle

>  <origin>  (6) 
adg

>  <m_score__min__energy>  (6) 
-7.0800000000000001

>  <m_primary>  (6) 
energy

$$$$
6:0
     RDKit          3D

 43 45  0  0  0  0  0  0  0  0999 V2000
  138.3460  158.7020  132.3850 C   0  0  0  0  0  0  0  0  0  0  0  0
  139.7660  158.3450  132.2340 N   0  0  0  0  0  0  0  0  0  0  0  0
  140.1110  157.1200  132.9840 C   0  0  0  0  0  0  0  0  0  0  0  0
  140.1140  157.3340  134.5100 C   0  0  0  0  0  0  0  0  0  0  0  0
  140.5890  158.7390  134.9260 C   0  0  0  0  0  0  0  0  0  0  0  0
  141.4380  159.4210  133.8450 C   0  0  1  0  0  0  0  0  0  0  0  0
  142.7330  158.7340  133.6920 C   0  0  0  0  0  0  0  0  0  0  0  0
  143.7850  158.1610  133.5650 C   0  0  0  0  0  0  0  0  0  0  0  0
  145.0330  157.4640  133.4100 C   0  0  0  0  0  0  0  0  0  0  0  0
  146.2540  158.1710  133.5060 C   0  0  0  0  0  0  0  0  0  0  0  0
  147.4790  157.4970  133.3690 C   0  0  0  0  0  0  0  0  0  0  0  0
  147.4460  156.1260  133.1300 C   0  0  0  0  0  0  0  0  0  0  0  0
  148.4760  155.2240  132.9920 C   0  0  0  0  0  0  0  0  0  0  0  0
  147.8630  153.9880  132.7910 C   0  0  0  0  0  0  0  0  0  0  0  0
  148.6100  152.7380  132.5360 C   0  0  0  0  0  0  0  0  0  0  0  0
  150.0010  152.6390  132.8280 N   0  0  0  0  0  0  0  0  0  0  0  0
  148.0020  151.7290  132.0870 O   0  0  0  0  0  0  0  0  0  0  0  0
  146.5060  154.1210  132.8050 N   0  0  0  0  0  0  0  0  0  0  0  0
  145.5190  153.0820  132.7140 C   0  0  0  0  0  0  0  0  0  0  0  0
  145.5120  152.1870  131.6040 N   0  0  0  0  0  0  0  0  0  0  0  0
  144.6470  152.9620  133.6170 O   0  0  0  0  0  0  0  0  0  0  0  0
  146.2670  155.4340  133.0150 C   0  0  0  0  0  0  0  0  0  0  0  0
  145.0330  156.0760  133.1680 C   0  0  0  0  0  0  0  0  0  0  0  0
  140.6750  159.4920  132.4960 C   0  0  0  0  0  0  0  0  0  0  0  0
  138.0955  158.7650  133.4542 H   0  0  0  0  0  0  0  0  0  0  0  0
  138.1597  159.6749  131.9068 H   0  0  0  0  0  0  0  0  0  0  0  0
  137.7217  157.9329  131.9068 H   0  0  0  0  0  0  0  0  0  0  0  0
  139.3749  156.3398  132.7401 H   0  0  0  0  0  0  0  0  0  0  0  0
  141.1295  156.8273  132.6890 H   0  0  0  0  0  0  0  0  0  0  0  0
  139.0908  157.1857  134.8856 H   0  0  0  0  0  0  0  0  0  0  0  0
  140.8216  156.6097  134.9397 H   0  0  0  0  0  0  0  0  0  0  0  0
  139.7063  159.3639  135.1265 H   0  0  0  0  0  0  0  0  0  0  0  0
  141.2187  158.6255  135.8207 H   0  0  0  0  0  0  0  0  0  0  0  0
  141.6369  160.4541  134.1661 H   0  0  0  0  0  0  0  0  0  0  0  0
  146.2445  159.2556  133.6891 H   0  0  0  0  0  0  0  0  0  0  0  0
  148.4347  158.0359  133.4481 H   0  0  0  0  0  0  0  0  0  0  0  0
  149.5551  155.4338  133.0319 H   0  0  0  0  0  0  0  0  0  0  0  0
  150.7110  153.1220  132.2320 H   0  0  0  0  0  0  0  0  0  0  0  0
  146.2650  152.2310  130.8820 H   0  0  0  0  0  0  0  0  0  0  0  0
  144.7740  151.4520  131.5220 H   0  0  0  0  0  0  0  0  0  0  0  0
  144.0902  155.5132  133.1013 H   0  0  0  0  0  0  0  0  0  0  0  0
  140.0741  160.4133  132.4906 H   0  0  0  0  0  0  0  0  0  0  0  0
  141.4396  159.4686  131.7056 H   0  0  0  0  0  0  0  0  0  0  0  0
  1  2  1  0
  2  3  1  0
  3  4  1  0
  4  5  1  0
  5  6  1  0
  6  7  1  0
  7  8  3  0
  8  9  1  0
  9 10  2  0
 10 11  1  0
 11 12  2  0
 12 13  1  0
 13 14  2  0
 14 15  1  0
 15 16  1  0
 15 17  2  0
 14 18  1  0
 18 19  1  0
 19 20  1  0
 19 21  2  0
 18 22  1  0
 22 23  2  0
  6 24  1  0
 24  2  1  0
 23  9  1  0
 22 12  1  0
  1 25  1  0
  1 26  1  0
  1 27  1  0
  3 28  1  0
  3 29  1  0
  4 30  1  0
  4 31  1  0
  5 32  1  0
  5 33  1  0
  6 34  1  1
 10 35  1  0
 11 36  1  0
 13 37  1  0
 16 38  1  0
 20 39  1  0
 20 40  1  0
 23 41  1  0
 24 42  1  0
 24 43  1  0
M  CHG  1  16  -1
M  END
>  <UniqueID>  (7) 
7

>  <SMILES>  (7) 
CN1CCC[C@@H](C#Cc2ccc3cc(C([NH-])=O)n(C(N)=O)c3c2)C1

>  <Energy>  (7) 
87.67386849638861

>  <Genealogy>  (7) 
CN1CCC[C@@H](C#Cc2ccc3cc(C([NH-])=O)n(C(N)=O)c3c2)C1 (protonated)
CN1CCC[C@@H](C#Cc2ccc3cc(C([NH-])=O)n(C(N)=O)c3c2)C1 (3D coordinates assigned)
CN1CCC[C@@H](C#Cc2ccc3cc(C([NH-])=O)n(C(N)=O)c3c2)C1 (nonaromatic ring conformer: 87.67386849638861 kcal/mol)

>  <smiles>  (7) 
CN1CCC[C@@H](C#Cc2ccc3cc(C(N)=O)n(C(N)=O)c3c2)C1

>  <score_type>  (7) 
oracle

>  <origin>  (7) 
adg

>  <m_score__min__energy>  (7) 
-8.25

>  <m_primary>  (7) 
energy

$$$$
7:0
     RDKit          3D

 54 58  0  0  0  0  0  0  0  0999 V2000
  148.0090  160.1840  132.2700 C   0  0  0  0  0  0  0  0  0  0  0  0
  147.1760  160.4770  133.3880 O   0  0  0  0  0  0  0  0  0  0  0  0
  145.8380  160.0700  133.5100 C   0  0  0  0  0  0  0  0  0  0  0  0
  144.7930  160.9870  133.7440 C   0  0  0  0  0  0  0  0  0  0  0  0
  143.4730  160.5420  133.8590 C   0  0  0  0  0  0  0  0  0  0  0  0
  143.1750  159.1820  133.7440 C   0  0  0  0  0  0  0  0  0  0  0  0
  144.2050  158.2600  133.5100 C   0  0  0  0  0  0  0  0  0  0  0  0
  143.9420  156.8940  133.3870 C   0  0  0  0  0  0  0  0  0  0  0  0
  144.9950  155.9970  133.1510 C   0  0  0  0  0  0  0  0  0  0  0  0
  144.7160  154.5450  133.0250 C   0  0  0  0  0  0  0  0  0  0  0  0
  145.7690  153.6210  132.7970 C   0  0  0  0  0  0  0  0  0  0  0  0
  145.5000  152.2500  132.6330 C   0  0  0  0  0  0  0  0  0  0  0  0
  144.1740  151.8320  132.7030 C   0  0  0  0  0  0  0  0  0  0  0  0
  143.6220  150.5840  132.5140 C   0  0  0  0  0  0  0  0  0  0  0  0
  142.2450  150.7660  132.6400 C   0  0  0  0  0  0  0  0  0  0  0  0
  141.2540  149.6760  132.5320 C   0  0  0  0  0  0  0  0  0  0  0  0
  140.2470  149.5290  133.5310 N   0  0  0  0  0  0  0  0  0  0  0  0
  141.2740  148.8830  131.5540 O   0  0  0  0  0  0  0  0  0  0  0  0
  141.9620  152.0700  132.9090 N   0  0  0  0  0  0  0  0  0  0  0  0
  140.6790  152.6970  133.0030 C   0  0  0  0  0  0  0  0  0  0  0  0
  139.6580  152.1010  132.5620 O   0  0  0  0  0  0  0  0  0  0  0  0
  140.5550  153.9280  133.6550 O   0  0  0  0  0  0  0  0  0  0  0  0
  140.0580  155.0960  133.0080 C   0  0  0  0  0  0  0  0  0  0  0  0
  140.2670  156.2960  133.8950 C   0  0  0  0  0  0  0  0  0  0  0  0
  141.0000  156.1640  135.0860 C   0  0  0  0  0  0  0  0  0  0  0  0
  141.1350  157.2540  135.9520 C   0  0  0  0  0  0  0  0  0  0  0  0
  140.5330  158.4760  135.6420 C   0  0  0  0  0  0  0  0  0  0  0  0
  139.7930  158.6100  134.4640 C   0  0  0  0  0  0  0  0  0  0  0  0
  139.6580  157.5250  133.5930 C   0  0  0  0  0  0  0  0  0  0  0  0
  143.1500  152.7090  132.9390 C   0  0  0  0  0  0  0  0  0  0  0  0
  143.3850  154.0780  133.0920 C   0  0  0  0  0  0  0  0  0  0  0  0
  146.3020  156.5200  133.0570 C   0  0  0  0  0  0  0  0  0  0  0  0
  147.2870  155.7570  132.8800 O   0  0  0  0  0  0  0  0  0  0  0  0
  146.5150  157.8280  133.1760 O   0  0  0  0  0  0  0  0  0  0  0  0
  145.5380  158.7050  133.3940 C   0  0  0  0  0  0  0  0  0  0  0  0
  148.9911  159.8386  132.6251 H   0  0  0  0  0  0  0  0  0  0  0  0
  147.5415  159.3964  131.6609 H   0  0  0  0  0  0  0  0  0  0  0  0
  148.1375  161.0909  131.6609 H   0  0  0  0  0  0  0  0  0  0  0  0
  145.0180  162.0597  133.8367 H   0  0  0  0  0  0  0  0  0  0  0  0
  142.6651  161.2660  134.0409 H   0  0  0  0  0  0  0  0  0  0  0  0
  142.1351  158.8355  133.8368 H   0  0  0  0  0  0  0  0  0  0  0  0
  142.9107  156.5217  133.4750 H   0  0  0  0  0  0  0  0  0  0  0  0
  146.8072  153.9811  132.7480 H   0  0  0  0  0  0  0  0  0  0  0  0
  146.3126  151.5303  132.4549 H   0  0  0  0  0  0  0  0  0  0  0  0
  144.1542  149.6437  132.3076 H   0  0  0  0  0  0  0  0  0  0  0  0
  139.4780  150.2290  133.6260 H   0  0  0  0  0  0  0  0  0  0  0  0
  140.5945  155.2447  132.0593 H   0  0  0  0  0  0  0  0  0  0  0  0
  138.9831  154.9728  132.8093 H   0  0  0  0  0  0  0  0  0  0  0  0
  141.4688  155.2014  135.3381 H   0  0  0  0  0  0  0  0  0  0  0  0
  141.7167  157.1488  136.8796 H   0  0  0  0  0  0  0  0  0  0  0  0
  140.6414  159.3319  136.3244 H   0  0  0  0  0  0  0  0  0  0  0  0
  139.3159  159.5711  134.2218 H   0  0  0  0  0  0  0  0  0  0  0  0
  139.0728  157.6341  132.6680 H   0  0  0  0  0  0  0  0  0  0  0  0
  142.5519  154.7762  133.2608 H   0  0  0  0  0  0  0  0  0  0  0  0
  1  2  1  0
  2  3  1  0
  3  4  2  0
  4  5  1  0
  5  6  2  0
  6  7  1  0
  7  8  1  0
  8  9  2  0
  9 10  1  0
 10 11  2  0
 11 12  1  0
 12 13  2  0
 13 14  1  0
 14 15  2  0
 15 16  1  0
 16 17  1  0
 16 18  2  0
 15 19  1  0
 19 20  1  0
 20 21  2  0
 20 22  1  0
 22 23  1  0
 23 24  1  0
 24 25  2  0
 25 26  1  0
 26 27  2  0
 27 28  1  0
 28 29  2  0
 19 30  1  0
 30 31  2  0
  9 32  1  0
 32 33  2  0
 32 34  1  0
 34 35  1  0
 35  3  1  0
 35  7  2  0
 31 10  1  0
 30 13  1  0
 29 24  1  0
  1 36  1  0
  1 37  1  0
  1 38  1  0
  4 39  1  0
  5 40  1  0
  6 41  1  0
  8 42  1  0
 11 43  1  0
 12 44  1  0
 14 45  1  0
 17 46  1  0
 23 47  1  0
 23 48  1  0
 25 49  1  0
 26 50  1  0
 27 51  1  0
 28 52  1  0
 29 53  1  0
 31 54  1  0
M  CHG  1  17  -1
M  END
>  <UniqueID>  (8) 
8

>  <SMILES>  (8) 
COc1cccc2cc(-c3ccc4cc(C([NH-])=O)n(C(=O)OCc5ccccc5)c4c3)c(=O)oc12

>  <Energy>  (8) 
107.1310763787721

>  <Genealogy>  (8) 
COc1cccc2cc(-c3ccc4cc(C([NH-])=O)n(C(=O)OCc5ccccc5)c4c3)c(=O)oc12 (protonated)
COc1cccc2cc(-c3ccc4cc(C([NH-])=O)n(C(=O)OCc5ccccc5)c4c3)c(=O)oc12 (3D coordinates assigned)
COc1cccc2cc(-c3ccc4cc(C([NH-])=O)n(C(=O)OCc5ccccc5)c4c3)c(=O)oc12 (optimized conformer: 107.1310763787721 kcal/mol)

>  <smiles>  (8) 
COc1cccc2cc(-c3ccc4cc(C(N)=O)n(C(=O)OCc5ccccc5)c4c3)c(=O)oc12

>  <score_type>  (8) 
oracle

>  <origin>  (8) 
adg

>  <m_score__min__energy>  (8) 
-10.91

>  <m_primary>  (8) 
energy

$$$$
8:0
     RDKit          3D

 43 44  0  0  0  0  0  0  0  0999 V2000
  146.3320  151.8910  132.2280 C   0  0  0  0  0  0  0  0  0  0  0  0
  147.6330  151.1520  131.9330 C   0  0  0  0  0  0  0  0  0  0  0  0
  148.7100  151.6280  132.8290 N   0  0  0  0  0  0  0  0  0  0  0  0
  149.4080  150.5580  133.5820 C   0  0  0  0  0  0  0  0  0  0  0  0
  149.6270  150.8670  135.0690 C   0  0  0  0  0  0  0  0  0  0  0  0
  149.5950  152.6560  132.2390 C   0  0  0  0  0  0  0  0  0  0  0  0
  149.0840  154.0240  132.4310 C   0  0  0  0  0  0  0  0  0  0  0  0
  148.6470  155.1360  132.5900 C   0  0  0  0  0  0  0  0  0  0  0  0
  148.1040  156.4530  132.7810 C   0  0  0  0  0  0  0  0  0  0  0  0
  148.9610  157.5770  132.8070 C   0  0  0  0  0  0  0  0  0  0  0  0
  148.4370  158.8670  133.0040 C   0  0  0  0  0  0  0  0  0  0  0  0
  147.0580  158.9930  133.1610 C   0  0  0  0  0  0  0  0  0  0  0  0
  146.2920  160.1120  133.3940 C   0  0  0  0  0  0  0  0  0  0  0  0
  144.9800  159.6500  133.4850 C   0  0  0  0  0  0  0  0  0  0  0  0
  143.8130  160.5380  133.6750 C   0  0  0  0  0  0  0  0  0  0  0  0
  142.4970  160.1040  133.3460 N   0  0  0  0  0  0  0  0  0  0  0  0
  143.9850  161.7110  134.1040 O   0  0  0  0  0  0  0  0  0  0  0  0
  144.9370  158.2990  133.3130 N   0  0  0  0  0  0  0  0  0  0  0  0
  143.7890  157.4400  133.4080 C   0  0  0  0  0  0  0  0  0  0  0  0
  143.5580  156.5970  134.6210 C   0  0  0  0  0  0  0  0  0  0  0  0
  142.9590  157.3990  132.4610 O   0  0  0  0  0  0  0  0  0  0  0  0
  146.2170  157.9100  133.1200 C   0  0  0  0  0  0  0  0  0  0  0  0
  146.7140  156.6140  132.9450 C   0  0  0  0  0  0  0  0  0  0  0  0
  146.1936  151.9696  133.3164 H   0  0  0  0  0  0  0  0  0  0  0  0
  146.3756  152.8992  131.7902 H   0  0  0  0  0  0  0  0  0  0  0  0
  145.4884  151.3373  131.7902 H   0  0  0  0  0  0  0  0  0  0  0  0
  147.4811  150.0738  132.0895 H   0  0  0  0  0  0  0  0  0  0  0  0
  147.9247  151.3446  130.8900 H   0  0  0  0  0  0  0  0  0  0  0  0
  148.8096  149.6381  133.5065 H   0  0  0  0  0  0  0  0  0  0  0  0
  150.4069  150.4588  133.1322 H   0  0  0  0  0  0  0  0  0  0  0  0
  149.0982  150.1209  135.6803 H   0  0  0  0  0  0  0  0  0  0  0  0
  150.7027  150.8315  135.2963 H   0  0  0  0  0  0  0  0  0  0  0  0
  149.2371  151.8702  135.2963 H   0  0  0  0  0  0  0  0  0  0  0  0
  150.5855  152.5808  132.7114 H   0  0  0  0  0  0  0  0  0  0  0  0
  149.6455  152.4691  131.1562 H   0  0  0  0  0  0  0  0  0  0  0  0
  150.0443  157.4417  132.6723 H   0  0  0  0  0  0  0  0  0  0  0  0
  149.0945  159.7484  133.0332 H   0  0  0  0  0  0  0  0  0  0  0  0
  146.6410  161.1509  133.4884 H   0  0  0  0  0  0  0  0  0  0  0  0
  142.3290  159.4630  132.5390 H   0  0  0  0  0  0  0  0  0  0  0  0
  143.7237  157.2017  135.5248 H   0  0  0  0  0  0  0  0  0  0  0  0
  142.5240  156.2219  134.6153 H   0  0  0  0  0  0  0  0  0  0  0  0
  144.2564  155.7472  134.6153 H   0  0  0  0  0  0  0  0  0  0  0  0
  146.0389  155.7456  132.9357 H   0  0  0  0  0  0  0  0  0  0  0  0
  1  2  1  0
  2  3  1  0
  3  4  1  0
  4  5  1  0
  3  6  1  0
  6  7  1  0
  7  8  3  0
  8  9  1  0
  9 10  2  0
 10 11  1  0
 11 12  2  0
 12 13  1  0
 13 14  2  0
 14 15  1  0
 15 16  1  0
 15 17  2  0
 14 18  1  0
 18 19  1  0
 19 20  1  0
 19 21  2  0
 18 22  1  0
 22 23  2  0
 23  9  1  0
 22 12  1  0
  1 24  1  0
  1 25  1  0
  1 26  1  0
  2 27  1  0
  2 28  1  0
  4 29  1  0
  4 30  1  0
  5 31  1  0
  5 32  1  0
  5 33  1  0
  6 34  1  0
  6 35  1  0
 10 36  1  0
 11 37  1  0
 13 38  1  0
 16 39  1  0
 20 40  1  0
 20 41  1  0
 20 42  1  0
 23 43  1  0
M  CHG  1  16  -1
M  END
>  <UniqueID>  (9) 
9

>  <SMILES>  (9) 
CCN(CC)CC#Cc1ccc2cc(C([NH-])=O)n(C(C)=O)c2c1

>  <Energy>  (9) 
80.84889386100906

>  <Genealogy>  (9) 
CCN(CC)CC#Cc1ccc2cc(C([NH-])=O)n(C(C)=O)c2c1 (protonated)
CCN(CC)CC#Cc1ccc2cc(C([NH-])=O)n(C(C)=O)c2c1 (3D coordinates assigned)
CCN(CC)CC#Cc1ccc2cc(C([NH-])=O)n(C(C)=O)c2c1 (optimized conformer: 80.84889386100906 kcal/mol)

>  <smiles>  (9) 
CCN(CC)CC#Cc1ccc2cc(C(N)=O)n(C(C)=O)c2c1

>  <score_type>  (9) 
oracle

>  <origin>  (9) 
adg

>  <m_score__min__energy>  (9) 
-7.5999999999999996

>  <m_primary>  (9) 
energy

$$$$
9:0
     RDKit          3D

 31 32  0  0  0  0  0  0  0  0999 V2000
  142.5430  156.8160  135.5150 C   0  0  0  0  0  0  0  0  0  0  0  0
  142.2630  157.8640  134.4340 C   0  0  2  0  0  0  0  0  0  0  0  0
  143.5100  158.6380  134.0580 C   0  0  0  0  0  0  0  0  0  0  0  0
  143.5320  160.0580  134.0910 C   0  0  0  0  0  0  0  0  0  0  0  0
  144.6900  160.7690  133.7370 C   0  0  0  0  0  0  0  0  0  0  0  0
  145.8070  160.0400  133.3410 C   0  0  0  0  0  0  0  0  0  0  0  0
  147.0600  160.4740  132.9730 C   0  0  0  0  0  0  0  0  0  0  0  0
  147.7820  159.3170  132.6880 C   0  0  0  0  0  0  0  0  0  0  0  0
  149.1670  159.3300  132.1740 C   0  0  0  0  0  0  0  0  0  0  0  0
  149.7040  160.4860  131.5370 N   0  0  0  0  0  0  0  0  0  0  0  0
  149.9040  158.3210  132.3400 O   0  0  0  0  0  0  0  0  0  0  0  0
  147.0070  158.2100  132.8780 N   0  0  0  0  0  0  0  0  0  0  0  0
  147.3990  156.8330  132.7700 C   0  0  0  0  0  0  0  0  0  0  0  0
  148.4430  156.3190  133.5930 N   0  0  0  0  0  0  0  0  0  0  0  0
  146.8310  156.0760  131.9380 O   0  0  0  0  0  0  0  0  0  0  0  0
  145.8000  158.6720  133.2770 C   0  0  0  0  0  0  0  0  0  0  0  0
  144.6670  157.9370  133.6440 C   0  0  0  0  0  0  0  0  0  0  0  0
  140.9350  159.0020  134.9590 P   0  0  0  0  0  0  0  0  0  0  0  0
  141.3610  159.7300  136.2140 O   0  0  0  0  0  0  0  0  0  0  0  0
  140.6130  160.1340  133.7430 O   0  0  0  0  0  0  0  0  0  0  0  0
  139.5320  158.1150  135.2800 O   0  0  0  0  0  0  0  0  0  0  0  0
  142.4211  157.2723  136.5084 H   0  0  0  0  0  0  0  0  0  0  0  0
  141.8368  155.9796  135.4065 H   0  0  0  0  0  0  0  0  0  0  0  0
  143.5722  156.4433  135.4065 H   0  0  0  0  0  0  0  0  0  0  0  0
  141.9277  157.3227  133.5371 H   0  0  0  0  0  0  0  0  0  0  0  0
  142.6301  160.6078  134.3979 H   0  0  0  0  0  0  0  0  0  0  0  0
  144.7133  161.8682  133.7717 H   0  0  0  0  0  0  0  0  0  0  0  0
  147.4158  161.5133  132.9160 H   0  0  0  0  0  0  0  0  0  0  0  0
  150.7340  160.6100  131.4280 H   0  0  0  0  0  0  0  0  0  0  0  0
  149.2620  156.9120  133.8540 H   0  0  0  0  0  0  0  0  0  0  0  0
  144.6759  156.8375  133.6113 H   0  0  0  0  0  0  0  0  0  0  0  0
  1  2  1  0
  2  3  1  0
  3  4  2  0
  4  5  1  0
  5  6  2  0
  6  7  1  0
  7  8  2  0
  8  9  1  0
  9 10  1  0
  9 11  2  0
  8 12  1  0
 12 13  1  0
 13 14  1  0
 13 15  2  0
 12 16  1  0
 16 17  2  0
  2 18  1  0
 18 19  2  0
 18 20  1  0
 18 21  1  0
 17  3  1  0
 16  6  1  0
  1 22  1  0
  1 23  1  0
  1 24  1  0
  2 25  1  6
  4 26  1  0
  5 27  1  0
  7 28  1  0
 10 29  1  0
 14 30  1  0
 17 31  1  0
M  CHG  4  10  -1  14  -1  20  -1  21  -1
M  END
>  <UniqueID>  (10) 
10

>  <SMILES>  (10) 
C[C@H](c1ccc2cc(C([NH-])=O)n(C([NH-])=O)c2c1)P(=O)([O-])[O-]

>  <Energy>  (10) 
65.5945990585677

>  <Genealogy>  (10) 
CC(c1ccc2cc(C([NH-])=O)n(C([NH-])=O)c2c1)P(=O)([O-])[O-] (protonated)
C[C@H](c1ccc2cc(C([NH-])=O)n(C([NH-])=O)c2c1)P(=O)([O-])[O-] (chirality)
C[C@H](c1ccc2cc(C([NH-])=O)n(C([NH-])=O)c2c1)P(=O)([O-])[O-] (3D coordinates assigned)
C[C@H](c1ccc2cc(C([NH-])=O)n(C([NH-])=O)c2c1)P(=O)([O-])[O-] (optimized conformer: 65.5945990585677 kcal/mol)

>  <smiles>  (10) 
CC(c1ccc2cc(C(N)=O)n(C(N)=O)c2c1)P(=O)(O)O

>  <score_type>  (10) 
oracle

>  <origin>  (10) 
adg

>  <m_score__min__energy>  (10) 
-6.54

>  <m_primary>  (10) 
energy

$$$$
10:0
     RDKit          3D

 41 43  0  0  0  0  0  0  0  0999 V2000
  149.6730  159.2500  132.1790 N   0  0  0  0  0  0  0  0  0  0  0  0
  148.7570  158.2430  132.6040 C   0  0  0  0  0  0  0  0  0  0  0  0
  149.1360  157.0430  132.6470 O   0  0  0  0  0  0  0  0  0  0  0  0
  147.3710  158.6130  132.9610 C   0  0  0  0  0  0  0  0  0  0  0  0
  146.9520  159.9240  133.1780 C   0  0  0  0  0  0  0  0  0  0  0  0
  145.6010  159.8390  133.4250 C   0  0  0  0  0  0  0  0  0  0  0  0
  144.6810  160.8390  133.7270 C   0  0  0  0  0  0  0  0  0  0  0  0
  143.3540  160.4570  133.9820 C   0  0  0  0  0  0  0  0  0  0  0  0
  142.9740  159.0910  133.9440 C   0  0  0  0  0  0  0  0  0  0  0  0
  141.5540  158.6920  134.2560 C   0  0  0  0  0  0  0  0  0  0  0  0
  140.4950  159.4850  133.4460 C   0  0  0  0  0  0  0  0  0  0  0  0
  139.8490  158.7550  132.3280 N   0  0  0  0  0  0  0  0  0  0  0  0
  138.4150  158.4990  132.5010 C   0  0  0  0  0  0  0  0  0  0  0  0
  137.6720  159.3420  131.4820 C   0  0  0  0  0  0  0  0  0  0  0  0
  138.6830  159.6270  130.3890 C   0  0  0  0  0  0  0  0  0  0  0  0
  140.0520  159.3440  130.9980 C   0  0  0  0  0  0  0  0  0  0  0  0
  143.9330  158.1080  133.6130 C   0  0  0  0  0  0  0  0  0  0  0  0
  145.2440  158.5190  133.3520 C   0  0  0  0  0  0  0  0  0  0  0  0
  146.3180  157.7520  133.0670 N   0  0  0  0  0  0  0  0  0  0  0  0
  146.3420  156.3190  132.9810 C   0  0  0  0  0  0  0  0  0  0  0  0
  147.0730  155.6700  131.9410 N   0  0  0  0  0  0  0  0  0  0  0  0
  145.7110  155.6260  133.8230 O   0  0  0  0  0  0  0  0  0  0  0  0
  150.6020  159.3600  132.6420 H   0  0  0  0  0  0  0  0  0  0  0  0
  147.5700  160.8337  133.1564 H   0  0  0  0  0  0  0  0  0  0  0  0
  144.9841  161.8958  133.7647 H   0  0  0  0  0  0  0  0  0  0  0  0
  142.6014  161.2251  134.2136 H   0  0  0  0  0  0  0  0  0  0  0  0
  141.4355  157.6221  134.0298 H   0  0  0  0  0  0  0  0  0  0  0  0
  141.3817  158.9159  135.3191 H   0  0  0  0  0  0  0  0  0  0  0  0
  139.7046  159.7996  134.1434 H   0  0  0  0  0  0  0  0  0  0  0  0
  141.0420  160.3174  132.9791 H   0  0  0  0  0  0  0  0  0  0  0  0
  138.2014  157.4331  132.3332 H   0  0  0  0  0  0  0  0  0  0  0  0
  138.0969  158.7577  133.5218 H   0  0  0  0  0  0  0  0  0  0  0  0
  136.8119  158.7886  131.0771 H   0  0  0  0  0  0  0  0  0  0  0  0
  137.2740  160.2667  131.9252 H   0  0  0  0  0  0  0  0  0  0  0  0
  138.5063  158.9704  129.5243 H   0  0  0  0  0  0  0  0  0  0  0  0
  138.6079  160.6646  130.0316 H   0  0  0  0  0  0  0  0  0  0  0  0
  140.6054  158.6399  130.3593 H   0  0  0  0  0  0  0  0  0  0  0  0
  140.6320  160.2752  131.0790 H   0  0  0  0  0  0  0  0  0  0  0  0
  143.6553  157.0449  133.5618 H   0  0  0  0  0  0  0  0  0  0  0  0
  147.0610  154.6300  131.8580 H   0  0  0  0  0  0  0  0  0  0  0  0
  147.6580  156.2250  131.2770 H   0  0  0  0  0  0  0  0  0  0  0  0
  1  2  1  0
  2  3  2  0
  2  4  1  0
  4  5  2  0
  5  6  1  0
  6  7  2  0
  7  8  1  0
  8  9  2  0
  9 10  1  0
 10 11  1  0
 11 12  1  0
 12 13  1  0
 13 14  1  0
 14 15  1  0
 15 16  1  0
  9 17  1  0
 17 18  2  0
 18 19  1  0
 19 20  1  0
 20 21  1  0
 20 22  2  0
 19  4  1  0
 18  6  1  0
 16 12  1  0
  1 23  1  0
  5 24  1  0
  7 25  1  0
  8 26  1  0
 10 27  1  0
 10 28  1  0
 11 29  1  0
 11 30  1  0
 13 31  1  0
 13 32  1  0
 14 33  1  0
 14 34  1  0
 15 35  1  0
 15 36  1  0
 16 37  1  0
 16 38  1  0
 17 39  1  0
 21 40  1  0
 21 41  1  0
M  CHG  1   1  -1
M  END
>  <UniqueID>  (11) 
11

>  <SMILES>  (11) 
[NH-]C(=O)c1cc2ccc(CCN3CCCC3)cc2n1C(N)=O

>  <Energy>  (11) 
85.64140265180671

>  <Genealogy>  (11) 
[NH-]C(=O)c1cc2ccc(CCN3CCCC3)cc2n1C(N)=O (protonated)
[NH-]C(=O)c1cc2ccc(CCN3CCCC3)cc2n1C(N)=O (3D coordinates assigned)
[NH-]C(=O)c1cc2ccc(CCN3CCCC3)cc2n1C(N)=O (nonaromatic ring conformer: 85.64140265180671 kcal/mol)

>  <smiles>  (11) 
NC(=O)c1cc2ccc(CCN3CCCC3)cc2n1C(N)=O

>  <score_type>  (11) 
oracle

>  <origin>  (11) 
adg

>  <m_score__min__energy>  (11) 
-8.0600000000000005

>  <m_primary>  (11) 
energy

$$$$
11:0
     RDKit          3D

 30 32  0  0  0  0  0  0  0  0999 V2000
  149.1170  160.1930  130.5180 C   0  0  0  0  0  0  0  0  0  0  0  0
  148.7960  158.8170  130.6870 O   0  0  0  0  0  0  0  0  0  0  0  0
  149.1130  158.1060  131.8480 C   0  0  0  0  0  0  0  0  0  0  0  0
  150.3180  157.9170  132.1700 O   0  0  0  0  0  0  0  0  0  0  0  0
  148.0610  157.5690  132.6660 N   0  0  0  0  0  0  0  0  0  0  0  0
  147.0020  158.2370  133.2040 C   0  0  0  0  0  0  0  0  0  0  0  0
  146.7970  159.7010  133.1820 C   0  0  0  0  0  0  0  0  0  0  0  0
  145.4870  160.2320  133.0040 N   0  0  0  0  0  0  0  0  0  0  0  0
  147.7640  160.4890  133.3570 O   0  0  0  0  0  0  0  0  0  0  0  0
  146.1540  157.3550  133.8670 C   0  0  0  0  0  0  0  0  0  0  0  0
  146.7320  156.1150  133.7250 C   0  0  0  0  0  0  0  0  0  0  0  0
  146.3070  154.8720  134.1780 C   0  0  0  0  0  0  0  0  0  0  0  0
  147.0910  153.7510  133.8600 C   0  0  0  0  0  0  0  0  0  0  0  0
  148.2770  153.8830  133.0900 C   0  0  0  0  0  0  0  0  0  0  0  0
  149.0830  152.6820  132.7570 C   0  0  0  0  0  0  0  0  0  0  0  0
  149.5810  152.2850  131.5100 C   0  0  0  0  0  0  0  0  0  0  0  0
  150.2960  151.1190  131.5200 N   0  0  0  0  0  0  0  0  0  0  0  0
  150.4110  150.5400  132.7130 N   0  0  0  0  0  0  0  0  0  0  0  0
  149.6050  151.4900  133.8060 S   0  0  0  0  0  0  0  0  0  0  0  0
  148.6730  155.1690  132.6470 C   0  0  0  0  0  0  0  0  0  0  0  0
  147.8820  156.2700  132.9960 C   0  0  0  0  0  0  0  0  0  0  0  0
  149.2277  160.6675  131.5042 H   0  0  0  0  0  0  0  0  0  0  0  0
  150.0604  160.2835  129.9596 H   0  0  0  0  0  0  0  0  0  0  0  0
  148.3111  160.6916  129.9596 H   0  0  0  0  0  0  0  0  0  0  0  0
  145.3450  161.2210  132.7010 H   0  0  0  0  0  0  0  0  0  0  0  0
  145.2192  157.5981  134.3933 H   0  0  0  0  0  0  0  0  0  0  0  0
  145.3843  154.7691  134.7679 H   0  0  0  0  0  0  0  0  0  0  0  0
  146.7819  152.7560  134.2126 H   0  0  0  0  0  0  0  0  0  0  0  0
  149.4102  152.8666  130.5921 H   0  0  0  0  0  0  0  0  0  0  0  0
  149.5823  155.2996  132.0419 H   0  0  0  0  0  0  0  0  0  0  0  0
  1  2  1  0
  2  3  1  0
  3  4  2  0
  3  5  1  0
  5  6  1  0
  6  7  1  0
  7  8  1  0
  7  9  2  0
  6 10  2  0
 10 11  1  0
 11 12  2  0
 12 13  1  0
 13 14  2  0
 14 15  1  0
 15 16  2  0
 16 17  1  0
 17 18  2  0
 18 19  1  0
 14 20  1  0
 20 21  2  0
 21  5  1  0
 21 11  1  0
 19 15  1  0
  1 22  1  0
  1 23  1  0
  1 24  1  0
  8 25  1  0
 10 26  1  0
 12 27  1  0
 13 28  1  0
 16 29  1  0
 20 30  1  0
M  CHG  1   8  -1
M  END
>  <UniqueID>  (12) 
12

>  <SMILES>  (12) 
COC(=O)n1c(C([NH-])=O)cc2ccc(-c3cnns3)cc21

>  <Energy>  (12) 
108.73156410321661

>  <Genealogy>  (12) 
COC(=O)n1c(C([NH-])=O)cc2ccc(-c3cnns3)cc21 (protonated)
COC(=O)n1c(C([NH-])=O)cc2ccc(-c3cnns3)cc21 (3D coordinates assigned)
COC(=O)n1c(C([NH-])=O)cc2ccc(-c3cnns3)cc21 (optimized conformer: 108.73156410321661 kcal/mol)

>  <smiles>  (12) 
COC(=O)n1c(C(N)=O)cc2ccc(-c3cnns3)cc21

>  <score_type>  (12) 
oracle

>  <origin>  (12) 
adg

>  <m_score__min__energy>  (12) 
-6.8200000000000003

>  <m_primary>  (12) 
energy

$$$$
12:0
     RDKit          3D

 40 42  0  0  0  0  0  0  0  0999 V2000
  142.9110  160.5930  133.3920 N   0  0  0  0  0  0  0  0  0  0  0  0
  144.2530  160.8860  133.7730 C   0  0  0  0  0  0  0  0  0  0  0  0
  144.4920  161.9350  134.4290 O   0  0  0  0  0  0  0  0  0  0  0  0
  145.3540  159.9500  133.4630 C   0  0  0  0  0  0  0  0  0  0  0  0
  146.6730  160.3590  133.2750 C   0  0  0  0  0  0  0  0  0  0  0  0
  147.3930  159.1990  133.1020 C   0  0  0  0  0  0  0  0  0  0  0  0
  148.7520  159.0160  132.8640 C   0  0  0  0  0  0  0  0  0  0  0  0
  149.2200  157.7040  132.6960 C   0  0  0  0  0  0  0  0  0  0  0  0
  148.3300  156.6000  132.7710 C   0  0  0  0  0  0  0  0  0  0  0  0
  148.8510  155.1920  132.5910 C   0  0  0  0  0  0  0  0  0  0  0  0
  147.9740  154.0910  133.2430 C   0  0  0  0  0  0  0  0  0  0  0  0
  146.5640  154.0020  132.6130 C   0  0  0  0  0  0  0  0  0  0  0  0
  145.9050  152.6640  132.9680 C   0  0  0  0  0  0  0  0  0  0  0  0
  146.6600  151.5090  132.4310 N   0  0  0  0  0  0  0  0  0  0  0  0
  148.1110  151.7410  132.2580 C   0  0  0  0  0  0  0  0  0  0  0  0
  148.6700  152.7070  133.3120 C   0  0  0  0  0  0  0  0  0  0  0  0
  146.9530  156.8300  132.9900 C   0  0  0  0  0  0  0  0  0  0  0  0
  146.5180  158.1470  133.1790 C   0  0  0  0  0  0  0  0  0  0  0  0
  145.2600  158.5910  133.3960 N   0  0  0  0  0  0  0  0  0  0  0  0
  144.0730  157.7840  133.4620 C   0  0  0  0  0  0  0  0  0  0  0  0
  143.2300  157.8150  132.5270 O   0  0  0  0  0  0  0  0  0  0  0  0
  143.8580  156.9420  134.5460 O   0  0  0  0  0  0  0  0  0  0  0  0
  142.7080  159.9280  132.6130 H   0  0  0  0  0  0  0  0  0  0  0  0
  147.0569  161.3898  133.2667 H   0  0  0  0  0  0  0  0  0  0  0  0
  149.4383  159.8739  132.8093 H   0  0  0  0  0  0  0  0  0  0  0  0
  150.2888  157.5285  132.5040 H   0  0  0  0  0  0  0  0  0  0  0  0
  148.9157  154.9853  131.5125 H   0  0  0  0  0  0  0  0  0  0  0  0
  149.8270  155.1535  133.0969 H   0  0  0  0  0  0  0  0  0  0  0  0
  147.8372  154.4112  134.2864 H   0  0  0  0  0  0  0  0  0  0  0  0
  145.9430  154.8251  132.9961 H   0  0  0  0  0  0  0  0  0  0  0  0
  146.6559  154.0761  131.5194 H   0  0  0  0  0  0  0  0  0  0  0  0
  145.8523  152.5746  134.0631 H   0  0  0  0  0  0  0  0  0  0  0  0
  144.9020  152.6512  132.5166 H   0  0  0  0  0  0  0  0  0  0  0  0
  146.2580  151.2410  131.5030 H   0  0  0  0  0  0  0  0  0  0  0  0
  146.5230  150.6950  133.0750 H   0  0  0  0  0  0  0  0  0  0  0  0
  148.6370  150.7787  132.3441 H   0  0  0  0  0  0  0  0  0  0  0  0
  148.2665  152.1930  131.2673 H   0  0  0  0  0  0  0  0  0  0  0  0
  148.5102  152.2764  134.3115 H   0  0  0  0  0  0  0  0  0  0  0  0
  149.7423  152.8505  133.1133 H   0  0  0  0  0  0  0  0  0  0  0  0
  146.2393  155.9932  133.0115 H   0  0  0  0  0  0  0  0  0  0  0  0
  1  2  1  0
  2  3  2  0
  2  4  1  0
  4  5  2  0
  5  6  1  0
  6  7  2  0
  7  8  1  0
  8  9  2  0
  9 10  1  0
 10 11  1  0
 11 12  1  0
 12 13  1  0
 13 14  1  0
 14 15  1  0
 15 16  1  0
  9 17  1  0
 17 18  2  0
 18 19  1  0
 19 20  1  0
 20 21  2  0
 20 22  1  0
 19  4  1  0
 18  6  1  0
 16 11  1  0
  1 23  1  0
  5 24  1  0
  7 25  1  0
  8 26  1  0
 10 27  1  0
 10 28  1  0
 11 29  1  0
 12 30  1  0
 12 31  1  0
 13 32  1  0
 13 33  1  0
 14 34  1  0
 14 35  1  0
 15 36  1  0
 15 37  1  0
 16 38  1  0
 16 39  1  0
 17 40  1  0
M  CHG  3   1  -1  14   1  22  -1
M  END
>  <UniqueID>  (13) 
13

>  <SMILES>  (13) 
[NH-]C(=O)c1cc2ccc(CC3CC[NH2+]CC3)cc2n1C(=O)[O-]

>  <Energy>  (13) 
86.29626015554712

>  <Genealogy>  (13) 
[NH-]C(=O)c1cc2ccc(CC3CC[NH2+]CC3)cc2n1C(=O)[O-] (protonated)
[NH-]C(=O)c1cc2ccc(CC3CC[NH2+]CC3)cc2n1C(=O)[O-] (3D coordinates assigned)
[NH-]C(=O)c1cc2ccc(CC3CC[NH2+]CC3)cc2n1C(=O)[O-] (nonaromatic ring conformer: 86.29626015554712 kcal/mol)

>  <smiles>  (13) 
NC(=O)c1cc2ccc(CC3CCNCC3)cc2n1C(=O)O

>  <score_type>  (13) 
oracle

>  <origin>  (13) 
adg

>  <m_score__min__energy>  (13) 
-7.3300000000000001

>  <m_primary>  (13) 
energy

$$$$
13:0
     RDKit          3D

 46 48  0  0  0  0  0  0  0  0999 V2000
  146.9840  153.0230  132.8780 C   0  0  0  0  0  0  0  0  0  0  0  0
  148.3820  153.4610  133.3540 C   0  0  0  0  0  0  0  0  0  0  0  0
  149.1850  152.2120  133.7450 C   0  0  0  0  0  0  0  0  0  0  0  0
  149.1310  154.2050  132.2310 C   0  0  0  0  0  0  0  0  0  0  0  0
  148.2790  154.2820  134.5260 O   0  0  0  0  0  0  0  0  0  0  0  0
  147.1300  154.4800  135.3060 C   0  0  0  0  0  0  0  0  0  0  0  0
  146.9960  153.9100  136.4210 O   0  0  0  0  0  0  0  0  0  0  0  0
  146.1080  155.3720  134.8370 N   0  0  0  0  0  0  0  0  0  0  0  0
  144.7610  155.2740  135.0160 C   0  0  0  0  0  0  0  0  0  0  0  0
  144.0430  154.1220  135.6010 C   0  0  0  0  0  0  0  0  0  0  0  0
  144.2770  153.7190  136.9470 N   0  0  0  0  0  0  0  0  0  0  0  0
  143.2490  153.4540  134.8880 O   0  0  0  0  0  0  0  0  0  0  0  0
  144.1150  156.3910  134.4870 C   0  0  0  0  0  0  0  0  0  0  0  0
  145.1170  157.1780  133.9650 C   0  0  0  0  0  0  0  0  0  0  0  0
  145.0450  158.4130  133.3290 C   0  0  0  0  0  0  0  0  0  0  0  0
  146.2470  159.0120  132.9180 C   0  0  0  0  0  0  0  0  0  0  0  0
  147.4960  158.3750  133.1520 C   0  0  0  0  0  0  0  0  0  0  0  0
  148.7970  159.0310  132.7300 C   0  0  1  0  0  0  0  0  0  0  0  0
  149.4800  158.3170  131.5660 C   0  0  0  0  0  0  0  0  0  0  0  0
  149.5890  159.3630  130.4680 C   0  0  0  0  0  0  0  0  0  0  0  0
  149.4520  160.6770  131.0890 N   0  0  0  0  0  0  0  0  0  0  0  0
  148.5990  160.4730  132.2560 C   0  0  0  0  0  0  0  0  0  0  0  0
  147.5240  157.1230  133.8080 C   0  0  0  0  0  0  0  0  0  0  0  0
  146.3100  156.5410  134.1890 C   0  0  0  0  0  0  0  0  0  0  0  0
  146.3454  152.8229  133.7510 H   0  0  0  0  0  0  0  0  0  0  0  0
  146.5356  153.8237  132.2715 H   0  0  0  0  0  0  0  0  0  0  0  0
  147.0726  152.1096  132.2715 H   0  0  0  0  0  0  0  0  0  0  0  0
  149.2339  152.1359  134.8413 H   0  0  0  0  0  0  0  0  0  0  0  0
  148.6927  151.3170  133.3369 H   0  0  0  0  0  0  0  0  0  0  0  0
  150.2036  152.2884  133.3369 H   0  0  0  0  0  0  0  0  0  0  0  0
  149.8453  154.9145  132.6742 H   0  0  0  0  0  0  0  0  0  0  0  0
  149.6741  153.4785  131.6087 H   0  0  0  0  0  0  0  0  0  0  0  0
  148.4082  154.7529  131.6087 H   0  0  0  0  0  0  0  0  0  0  0  0
  145.0850  154.0970  137.4900 H   0  0  0  0  0  0  0  0  0  0  0  0
  143.0349  156.5991  134.4868 H   0  0  0  0  0  0  0  0  0  0  0  0
  144.0770  158.9051  133.1535 H   0  0  0  0  0  0  0  0  0  0  0  0
  146.2215  159.9866  132.4085 H   0  0  0  0  0  0  0  0  0  0  0  0
  149.4149  158.9830  133.6388 H   0  0  0  0  0  0  0  0  0  0  0  0
  150.4784  157.9631  131.8625 H   0  0  0  0  0  0  0  0  0  0  0  0
  148.9154  157.4320  131.2372 H   0  0  0  0  0  0  0  0  0  0  0  0
  150.5674  159.2839  129.9715 H   0  0  0  0  0  0  0  0  0  0  0  0
  148.8038  159.2109  129.7128 H   0  0  0  0  0  0  0  0  0  0  0  0
  150.3990  160.9670  131.4320 H   0  0  0  0  0  0  0  0  0  0  0  0
  148.8840  161.1728  133.0554 H   0  0  0  0  0  0  0  0  0  0  0  0
  147.5447  160.6531  131.9991 H   0  0  0  0  0  0  0  0  0  0  0  0
  148.4790  156.6176  134.0143 H   0  0  0  0  0  0  0  0  0  0  0  0
  1  2  1  0
  2  3  1  0
  2  4  1  0
  2  5  1  0
  5  6  1  0
  6  7  2  0
  6  8  1  0
  8  9  1  0
  9 10  1  0
 10 11  1  0
 10 12  2  0
  9 13  2  0
 13 14  1  0
 14 15  2  0
 15 16  1  0
 16 17  2  0
 17 18  1  0
 18 19  1  0
 19 20  1  0
 20 21  1  0
 21 22  1  0
 17 23  1  0
 23 24  2  0
 24  8  1  0
 24 14  1  0
 22 18  1  0
  1 25  1  0
  1 26  1  0
  1 27  1  0
  3 28  1  0
  3 29  1  0
  3 30  1  0
  4 31  1  0
  4 32  1  0
  4 33  1  0
 11 34  1  0
 13 35  1  0
 15 36  1  0
 16 37  1  0
 18 38  1  1
 19 39  1  0
 19 40  1  0
 20 41  1  0
 20 42  1  0
 21 43  1  0
 22 44  1  0
 22 45  1  0
 23 46  1  0
M  CHG  1  11  -1
M  END
>  <UniqueID>  (14) 
14

>  <SMILES>  (14) 
CC(C)(C)OC(=O)n1c(C([NH-])=O)cc2ccc([C@H]3CCNC3)cc21

>  <Energy>  (14) 
82.89822837679003

>  <Genealogy>  (14) 
CC(C)(C)OC(=O)n1c(C([NH-])=O)cc2ccc(C3CCNC3)cc21 (protonated)
CC(C)(C)OC(=O)n1c(C([NH-])=O)cc2ccc([C@H]3CCNC3)cc21 (chirality)
CC(C)(C)OC(=O)n1c(C([NH-])=O)cc2ccc([C@H]3CCNC3)cc21 (3D coordinates assigned)
CC(C)(C)OC(=O)n1c(C([NH-])=O)cc2ccc([C@H]3CCNC3)cc21 (nonaromatic ring conformer: 82.89822837679003 kcal/mol)

>  <smiles>  (14) 
CC(C)(C)OC(=O)n1c(C(N)=O)cc2ccc(C3CCNC3)cc21

>  <score_type>  (14) 
oracle

>  <origin>  (14) 
adg

>  <m_score__min__energy>  (14) 
-7.75

>  <m_primary>  (14) 
energy

$$$$
14:0
     RDKit          3D

 40 43  0  0  0  0  0  0  0  0999 V2000
  140.6280  159.6000  137.2470 N   0  0  0  0  0  0  0  0  0  0  0  0
  141.3490  158.5000  137.7940 C   0  0  0  0  0  0  0  0  0  0  0  0
  141.8720  158.6120  138.9360 O   0  0  0  0  0  0  0  0  0  0  0  0
  141.4770  157.2290  137.0520 C   0  0  0  0  0  0  0  0  0  0  0  0
  142.2490  156.1490  137.4800 C   0  0  0  0  0  0  0  0  0  0  0  0
  142.1110  155.1900  136.5000 C   0  0  0  0  0  0  0  0  0  0  0  0
  142.6950  153.9340  136.3820 C   0  0  0  0  0  0  0  0  0  0  0  0
  142.4110  153.1800  135.2300 C   0  0  0  0  0  0  0  0  0  0  0  0
  141.5460  153.6870  134.2250 C   0  0  0  0  0  0  0  0  0  0  0  0
  141.3050  152.8950  132.9650 C   0  0  0  0  0  0  0  0  0  0  0  0
  141.6160  151.5600  133.1570 F   0  0  0  0  0  0  0  0  0  0  0  0
  139.9720  153.0000  132.6120 F   0  0  0  0  0  0  0  0  0  0  0  0
  142.0860  153.3770  131.9310 F   0  0  0  0  0  0  0  0  0  0  0  0
  140.9910  154.9790  134.3720 C   0  0  0  0  0  0  0  0  0  0  0  0
  141.2830  155.6980  135.5340 C   0  0  0  0  0  0  0  0  0  0  0  0
  140.8840  156.9420  135.8600 N   0  0  0  0  0  0  0  0  0  0  0  0
  140.1170  157.8190  135.0270 C   0  0  0  0  0  0  0  0  0  0  0  0
  138.8990  158.0110  135.2910 O   0  0  0  0  0  0  0  0  0  0  0  0
  140.7660  158.4740  133.8310 C   0  0  0  0  0  0  0  0  0  0  0  0
  139.8810  159.0070  132.7400 C   0  0  0  0  0  0  0  0  0  0  0  0
  139.1650  158.1280  131.9150 C   0  0  0  0  0  0  0  0  0  0  0  0
  138.4110  158.6420  130.8590 C   0  0  0  0  0  0  0  0  0  0  0  0
  138.3840  160.0190  130.6300 C   0  0  0  0  0  0  0  0  0  0  0  0
  139.1190  160.8640  131.4640 C   0  0  0  0  0  0  0  0  0  0  0  0
  139.8500  160.3450  132.4870 N   0  0  0  0  0  0  0  0  0  0  0  0
  142.0480  159.2620  134.0830 C   0  0  0  0  0  0  0  0  0  0  0  0
  142.1090  157.9090  133.3860 C   0  0  0  0  0  0  0  0  0  0  0  0
  139.7330  159.4530  136.7300 H   0  0  0  0  0  0  0  0  0  0  0  0
  142.8421  156.0779  138.4037 H   0  0  0  0  0  0  0  0  0  0  0  0
  143.3593  153.5420  137.1663 H   0  0  0  0  0  0  0  0  0  0  0  0
  142.8643  152.1855  135.1059 H   0  0  0  0  0  0  0  0  0  0  0  0
  140.3455  155.4075  133.5912 H   0  0  0  0  0  0  0  0  0  0  0  0
  139.1972  157.0439  132.0983 H   0  0  0  0  0  0  0  0  0  0  0  0
  137.8393  157.9637  130.2086 H   0  0  0  0  0  0  0  0  0  0  0  0
  137.7904  160.4336  129.8019 H   0  0  0  0  0  0  0  0  0  0  0  0
  139.1068  161.9506  131.2935 H   0  0  0  0  0  0  0  0  0  0  0  0
  142.2484  160.1827  133.5154 H   0  0  0  0  0  0  0  0  0  0  0  0
  142.5286  159.7035  134.9685 H   0  0  0  0  0  0  0  0  0  0  0  0
  142.3541  157.8528  132.3151 H   0  0  0  0  0  0  0  0  0  0  0  0
  142.6528  156.9688  133.5602 H   0  0  0  0  0  0  0  0  0  0  0  0
  1  2  1  0
  2  3  2  0
  2  4  1  0
  4  5  2  0
  5  6  1  0
  6  7  2  0
  7  8  1  0
  8  9  2  0
  9 10  1  0
 10 11  1  0
 10 12  1  0
 10 13  1  0
  9 14  1  0
 14 15  2  0
 15 16  1  0
 16 17  1  0
 17 18  2  0
 17 19  1  0
 19 20  1  0
 20 21  2  0
 21 22  1  0
 22 23  2  0
 23 24  1  0
 24 25  2  0
 19 26  1  0
 26 27  1  0
 16  4  1  0
 27 19  1  0
 15  6  1  0
 25 20  1  0
  1 28  1  0
  5 29  1  0
  7 30  1  0
  8 31  1  0
 14 32  1  0
 21 33  1  0
 22 34  1  0
 23 35  1  0
 24 36  1  0
 26 37  1  0
 26 38  1  0
 27 39  1  0
 27 40  1  0
M  CHG  1   1  -1
M  END
>  <UniqueID>  (15) 
15

>  <SMILES>  (15) 
[NH-]C(=O)c1cc2ccc(C(F)(F)F)cc2n1C(=O)C1(c2ccccn2)CC1

>  <Energy>  (15) 
350.094867754978

>  <Genealogy>  (15) 
[NH-]C(=O)c1cc2ccc(C(F)(F)F)cc2n1C(=O)C1(c2ccccn2)CC1 (protonated)
[NH-]C(=O)c1cc2ccc(C(F)(F)F)cc2n1C(=O)C1(c2ccccn2)CC1 (3D coordinates assigned)
[NH-]C(=O)c1cc2ccc(C(F)(F)F)cc2n1C(=O)C1(c2ccccn2)CC1 (nonaromatic ring conformer: 350.094867754978 kcal/mol)

>  <smiles>  (15) 
NC(=O)c1cc2ccc(C(F)(F)F)cc2n1C(=O)C1(c2ccccn2)CC1

>  <score_type>  (15) 
oracle

>  <origin>  (15) 
adg

>  <m_score__min__energy>  (15) 
-7.4299999999999997

>  <m_primary>  (15) 
energy

$$$$
15:0
     RDKit          3D

 51 53  0  0  0  0  0  0  0  0999 V2000
  139.7370  157.3590  134.7530 C   0  0  0  0  0  0  0  0  0  0  0  0
  140.3620  156.9620  133.4070 C   0  0  0  0  0  0  0  0  0  0  0  0
  140.0910  158.0810  132.3840 C   0  0  0  0  0  0  0  0  0  0  0  0
  139.7350  155.6340  132.9390 C   0  0  0  0  0  0  0  0  0  0  0  0
  141.7720  156.8050  133.6260 O   0  0  0  0  0  0  0  0  0  0  0  0
  142.5540  157.5120  134.5500 C   0  0  0  0  0  0  0  0  0  0  0  0
  142.4830  157.2640  135.7840 O   0  0  0  0  0  0  0  0  0  0  0  0
  143.4300  158.5500  134.0840 N   0  0  0  0  0  0  0  0  0  0  0  0
  143.1730  159.8870  134.0130 C   0  0  0  0  0  0  0  0  0  0  0  0
  141.8670  160.5320  134.2580 C   0  0  0  0  0  0  0  0  0  0  0  0
  141.0150  160.0390  135.2900 N   0  0  0  0  0  0  0  0  0  0  0  0
  141.5080  161.5380  133.5910 O   0  0  0  0  0  0  0  0  0  0  0  0
  144.3040  160.5800  133.5890 C   0  0  0  0  0  0  0  0  0  0  0  0
  145.2710  159.6200  133.3970 C   0  0  0  0  0  0  0  0  0  0  0  0
  146.5940  159.7520  132.9900 C   0  0  0  0  0  0  0  0  0  0  0  0
  147.3770  158.5880  132.9050 C   0  0  0  0  0  0  0  0  0  0  0  0
  146.8290  157.3200  133.2350 C   0  0  0  0  0  0  0  0  0  0  0  0
  147.6670  156.1060  133.1560 C   0  0  0  0  0  0  0  0  0  0  0  0
  148.8820  156.0680  132.5710 N   0  0  0  0  0  0  0  0  0  0  0  0
  149.2800  154.8400  132.7020 O   0  0  0  0  0  0  0  0  0  0  0  0
  148.3680  154.1480  133.3360 C   0  0  0  0  0  0  0  0  0  0  0  0
  148.4810  152.6830  133.6440 C   0  0  0  0  0  0  0  0  0  0  0  0
  149.0760  151.8510  132.4850 C   0  0  1  0  0  0  0  0  0  0  0  0
  148.0060  150.9100  131.8850 C   0  0  0  0  0  0  0  0  0  0  0  0
  149.4910  152.7560  131.4880 O   0  0  0  0  0  0  0  0  0  0  0  0
  150.2800  151.0700  132.9790 C   0  0  0  0  0  0  0  0  0  0  0  0
  150.2390  150.4340  134.0660 O   0  0  0  0  0  0  0  0  0  0  0  0
  151.4700  151.1090  132.2610 O   0  0  0  0  0  0  0  0  0  0  0  0
  147.3020  154.9050  133.6550 N   0  0  0  0  0  0  0  0  0  0  0  0
  145.4800  157.2290  133.6460 C   0  0  0  0  0  0  0  0  0  0  0  0
  144.7190  158.4030  133.7020 C   0  0  0  0  0  0  0  0  0  0  0  0
  140.3549  156.9665  135.5741 H   0  0  0  0  0  0  0  0  0  0  0  0
  139.6859  158.4555  134.8243 H   0  0  0  0  0  0  0  0  0  0  0  0
  138.7228  156.9392  134.8243 H   0  0  0  0  0  0  0  0  0  0  0  0
  139.8643  159.0169  132.9157 H   0  0  0  0  0  0  0  0  0  0  0  0
  140.9805  158.2240  131.7528 H   0  0  0  0  0  0  0  0  0  0  0  0
  139.2346  157.8012  131.7528 H   0  0  0  0  0  0  0  0  0  0  0  0
  139.4514  155.0333  133.8158 H   0  0  0  0  0  0  0  0  0  0  0  0
  138.8409  155.8439  132.3336 H   0  0  0  0  0  0  0  0  0  0  0  0
  140.4652  155.0770  132.3336 H   0  0  0  0  0  0  0  0  0  0  0  0
  141.1810  159.1030  135.7220 H   0  0  0  0  0  0  0  0  0  0  0  0
  144.4034  161.6652  133.4392 H   0  0  0  0  0  0  0  0  0  0  0  0
  147.0150  160.7375  132.7421 H   0  0  0  0  0  0  0  0  0  0  0  0
  148.4253  158.6598  132.5795 H   0  0  0  0  0  0  0  0  0  0  0  0
  149.1268  152.5619  134.5262 H   0  0  0  0  0  0  0  0  0  0  0  0
  147.4608  152.3103  133.8180 H   0  0  0  0  0  0  0  0  0  0  0  0
  147.4500  150.4211  132.6985 H   0  0  0  0  0  0  0  0  0  0  0  0
  147.3102  151.4942  131.2648 H   0  0  0  0  0  0  0  0  0  0  0  0
  148.4965  150.1453  131.2648 H   0  0  0  0  0  0  0  0  0  0  0  0
  150.3870  153.1050  131.7410 H   0  0  0  0  0  0  0  0  0  0  0  0
  145.0381  156.2584  133.9156 H   0  0  0  0  0  0  0  0  0  0  0  0
  1  2  1  0
  2  3  1  0
  2  4  1  0
  2  5  1  0
  5  6  1  0
  6  7  2  0
  6  8  1  0
  8  9  1  0
  9 10  1  0
 10 11  1  0
 10 12  2  0
  9 13  2  0
 13 14  1  0
 14 15  2  0
 15 16  1  0
 16 17  2  0
 17 18  1  0
 18 19  2  0
 19 20  1  0
 20 21  1  0
 21 22  1  0
 22 23  1  0
 23 24  1  0
 23 25  1  6
 23 26  1  0
 26 27  2  0
 26 28  1  0
 21 29  2  0
 17 30  1  0
 30 31  2  0
 31  8  1  0
 31 14  1  0
 29 18  1  0
  1 32  1  0
  1 33  1  0
  1 34  1  0
  3 35  1  0
  3 36  1  0
  3 37  1  0
  4 38  1  0
  4 39  1  0
  4 40  1  0
 11 41  1  0
 13 42  1  0
 15 43  1  0
 16 44  1  0
 22 45  1  0
 22 46  1  0
 24 47  1  0
 24 48  1  0
 24 49  1  0
 25 50  1  0
 30 51  1  0
M  CHG  2  11  -1  28  -1
M  END
>  <UniqueID>  (16) 
16

>  <SMILES>  (16) 
CC(C)(C)OC(=O)n1c(C([NH-])=O)cc2ccc(-c3noc(C[C@@](C)(O)C(=O)[O-])n3)cc21

>  <Energy>  (16) 
118.89733318459326

>  <Genealogy>  (16) 
CC(C)(C)OC(=O)n1c(C([NH-])=O)cc2ccc(-c3noc(CC(C)(O)C(=O)[O-])n3)cc21 (protonated)
CC(C)(C)OC(=O)n1c(C([NH-])=O)cc2ccc(-c3noc(C[C@@](C)(O)C(=O)[O-])n3)cc21 (chirality)
CC(C)(C)OC(=O)n1c(C([NH-])=O)cc2ccc(-c3noc(C[C@@](C)(O)C(=O)[O-])n3)cc21 (3D coordinates assigned)
CC(C)(C)OC(=O)n1c(C([NH-])=O)cc2ccc(-c3noc(C[C@@](C)(O)C(=O)[O-])n3)cc21 (optimized conformer: 118.89733318459326 kcal/mol)

>  <smiles>  (16) 
CC(C)(C)OC(=O)n1c(C(N)=O)cc2ccc(-c3noc(CC(C)(O)C(=O)O)n3)cc21

>  <score_type>  (16) 
oracle

>  <origin>  (16) 
adg

>  <m_score__min__energy>  (16) 
-8.3200000000000003

>  <m_primary>  (16) 
energy

$$$$
16:0
     RDKit          3D

 35 37  0  0  0  0  0  0  0  0999 V2000
  149.7420  157.4980  132.1520 N   0  0  0  0  0  0  0  0  0  0  0  0
  149.2260  158.8140  132.3300 C   0  0  0  0  0  0  0  0  0  0  0  0
  149.9500  159.8010  132.0290 O   0  0  0  0  0  0  0  0  0  0  0  0
  147.8540  159.0430  132.8340 C   0  0  0  0  0  0  0  0  0  0  0  0
  147.3190  160.3130  133.0450 C   0  0  0  0  0  0  0  0  0  0  0  0
  146.0110  160.1030  133.4190 C   0  0  0  0  0  0  0  0  0  0  0  0
  145.0120  161.0170  133.7380 C   0  0  0  0  0  0  0  0  0  0  0  0
  143.7490  160.5150  134.0940 C   0  0  0  0  0  0  0  0  0  0  0  0
  143.5110  159.1170  134.1440 C   0  0  0  0  0  0  0  0  0  0  0  0
  142.1370  158.6110  134.5040 C   0  0  0  0  0  0  0  0  0  0  0  0
  141.1710  159.4480  133.9740 F   0  0  0  0  0  0  0  0  0  0  0  0
  141.9610  158.5600  135.8750 F   0  0  0  0  0  0  0  0  0  0  0  0
  141.9700  157.3410  133.9830 F   0  0  0  0  0  0  0  0  0  0  0  0
  144.5490  158.2210  133.7930 C   0  0  0  0  0  0  0  0  0  0  0  0
  145.7920  158.7510  133.4300 C   0  0  0  0  0  0  0  0  0  0  0  0
  146.9120  158.0870  133.0760 N   0  0  0  0  0  0  0  0  0  0  0  0
  147.0510  156.6650  132.9560 C   0  0  0  0  0  0  0  0  0  0  0  0
  147.0490  156.1220  131.8200 O   0  0  0  0  0  0  0  0  0  0  0  0
  147.2020  155.6460  134.4220 S   0  0  0  0  0  0  0  0  0  0  0  0
  146.8940  154.1400  133.5010 C   0  0  0  0  0  0  0  0  0  0  0  0
  147.9600  153.3350  133.0880 C   0  0  0  0  0  0  0  0  0  0  0  0
  147.6990  152.1820  132.3430 C   0  0  0  0  0  0  0  0  0  0  0  0
  146.4170  151.8470  132.0280 N   0  0  0  0  0  0  0  0  0  0  0  0
  145.3650  152.6150  132.4260 C   0  0  0  0  0  0  0  0  0  0  0  0
  145.5850  153.7740  133.1720 C   0  0  0  0  0  0  0  0  0  0  0  0
  149.1320  156.7210  131.8180 H   0  0  0  0  0  0  0  0  0  0  0  0
  147.8336  161.2791  132.9357 H   0  0  0  0  0  0  0  0  0  0  0  0
  145.2050  162.0996  133.7123 H   0  0  0  0  0  0  0  0  0  0  0  0
  142.9350  161.2139  134.3368 H   0  0  0  0  0  0  0  0  0  0  0  0
  144.3824  157.1338  133.8053 H   0  0  0  0  0  0  0  0  0  0  0  0
  148.9940  153.6067  133.3470 H   0  0  0  0  0  0  0  0  0  0  0  0
  148.5307  151.5436  132.0102 H   0  0  0  0  0  0  0  0  0  0  0  0
  146.2360  150.9830  131.4690 H   0  0  0  0  0  0  0  0  0  0  0  0
  144.3392  152.3211  132.1588 H   0  0  0  0  0  0  0  0  0  0  0  0
  144.7367  154.3937  133.4981 H   0  0  0  0  0  0  0  0  0  0  0  0
  1  2  1  0
  2  3  2  0
  2  4  1  0
  4  5  2  0
  5  6  1  0
  6  7  2  0
  7  8  1  0
  8  9  2  0
  9 10  1  0
 10 11  1  0
 10 12  1  0
 10 13  1  0
  9 14  1  0
 14 15  2  0
 15 16  1  0
 16 17  1  0
 17 18  2  0
 17 19  1  0
 19 20  1  0
 20 21  2  0
 21 22  1  0
 22 23  2  0
 23 24  1  0
 24 25  2  0
 16  4  1  0
 25 20  1  0
 15  6  1  0
  1 26  1  0
  5 27  1  0
  7 28  1  0
  8 29  1  0
 14 30  1  0
 21 31  1  0
 22 32  1  0
 23 33  1  0
 24 34  1  0
 25 35  1  0
M  CHG  2   1  -1  23   1
M  END
>  <UniqueID>  (17) 
17

>  <SMILES>  (17) 
[NH-]C(=O)c1cc2ccc(C(F)(F)F)cc2n1C(=O)Sc1cc[nH+]cc1

>  <Energy>  (17) 
72.71174142936582

>  <Genealogy>  (17) 
[NH-]C(=O)c1cc2ccc(C(F)(F)F)cc2n1C(=O)Sc1cc[nH+]cc1 (protonated)
[NH-]C(=O)c1cc2ccc(C(F)(F)F)cc2n1C(=O)Sc1cc[nH+]cc1 (3D coordinates assigned)
[NH-]C(=O)c1cc2ccc(C(F)(F)F)cc2n1C(=O)Sc1cc[nH+]cc1 (optimized conformer: 72.71174142936582 kcal/mol)

>  <smiles>  (17) 
NC(=O)c1cc2ccc(C(F)(F)F)cc2n1C(=O)Sc1ccncc1

>  <score_type>  (17) 
oracle

>  <origin>  (17) 
adg

>  <m_score__min__energy>  (17) 
-6.5999999999999996

>  <m_primary>  (17) 
energy

$$$$
17:0
     RDKit          3D

 32 33  0  0  0  0  0  0  0  0999 V2000
  148.4930  160.5490  131.0850 C   0  0  0  0  0  0  0  0  0  0  0  0
  149.3110  159.2620  131.0820 C   0  0  0  0  0  0  0  0  0  0  0  0
  148.6740  158.2610  131.8710 O   0  0  0  0  0  0  0  0  0  0  0  0
  148.1260  158.5080  133.1350 C   0  0  0  0  0  0  0  0  0  0  0  0
  148.8710  158.8410  134.0970 O   0  0  0  0  0  0  0  0  0  0  0  0
  146.7100  158.3780  133.3380 N   0  0  0  0  0  0  0  0  0  0  0  0
  145.9520  157.2540  133.1940 C   0  0  0  0  0  0  0  0  0  0  0  0
  146.4650  155.8910  132.9510 C   0  0  0  0  0  0  0  0  0  0  0  0
  147.3530  155.6160  131.8670 N   0  0  0  0  0  0  0  0  0  0  0  0
  146.1580  154.9640  133.7480 O   0  0  0  0  0  0  0  0  0  0  0  0
  144.6010  157.5470  133.3580 C   0  0  0  0  0  0  0  0  0  0  0  0
  144.5530  158.8960  133.6250 C   0  0  0  0  0  0  0  0  0  0  0  0
  143.4570  159.7240  133.8450 C   0  0  0  0  0  0  0  0  0  0  0  0
  143.6950  161.0930  134.0500 C   0  0  0  0  0  0  0  0  0  0  0  0
  145.0170  161.6100  134.0390 C   0  0  0  0  0  0  0  0  0  0  0  0
  145.2530  163.0900  134.1950 C   0  0  0  0  0  0  0  0  0  0  0  0
  145.1640  163.4620  135.5260 F   0  0  0  0  0  0  0  0  0  0  0  0
  146.5110  163.4350  133.7320 F   0  0  0  0  0  0  0  0  0  0  0  0
  144.3010  163.7810  133.4690 F   0  0  0  0  0  0  0  0  0  0  0  0
  146.1020  160.7390  133.7840 C   0  0  0  0  0  0  0  0  0  0  0  0
  145.8370  159.3760  133.6060 C   0  0  0  0  0  0  0  0  0  0  0  0
  148.2974  160.8567  132.1228 H   0  0  0  0  0  0  0  0  0  0  0  0
  149.0538  161.3411  130.5672 H   0  0  0  0  0  0  0  0  0  0  0  0
  147.5378  160.3775  130.5672 H   0  0  0  0  0  0  0  0  0  0  0  0
  149.4099  158.8989  130.0484 H   0  0  0  0  0  0  0  0  0  0  0  0
  150.3032  159.4714  131.5083 H   0  0  0  0  0  0  0  0  0  0  0  0
  147.7630  156.3880  131.2960 H   0  0  0  0  0  0  0  0  0  0  0  0
  147.6720  154.6380  131.6860 H   0  0  0  0  0  0  0  0  0  0  0  0
  143.7533  156.8494  133.2889 H   0  0  0  0  0  0  0  0  0  0  0  0
  142.4345  159.3187  133.8580 H   0  0  0  0  0  0  0  0  0  0  0  0
  142.8470  161.7725  134.2211 H   0  0  0  0  0  0  0  0  0  0  0  0
  147.1308  161.1240  133.7268 H   0  0  0  0  0  0  0  0  0  0  0  0
  1  2  1  0
  2  3  1  0
  3  4  1  0
  4  5  2  0
  4  6  1  0
  6  7  1  0
  7  8  1  0
  8  9  1  0
  8 10  2  0
  7 11  2  0
 11 12  1  0
 12 13  2  0
 13 14  1  0
 14 15  2  0
 15 16  1  0
 16 17  1  0
 16 18  1  0
 16 19  1  0
 15 20  1  0
 20 21  2  0
 21  6  1  0
 21 12  1  0
  1 22  1  0
  1 23  1  0
  1 24  1  0
  2 25  1  0
  2 26  1  0
  9 27  1  0
  9 28  1  0
 11 29  1  0
 13 30  1  0
 14 31  1  0
 20 32  1  0
M  END
>  <UniqueID>  (18) 
18

>  <SMILES>  (18) 
CCOC(=O)n1c(C(N)=O)cc2ccc(C(F)(F)F)cc21

>  <Energy>  (18) 
68.16221210236492

>  <Genealogy>  (18) 
CCOC(=O)n1c(C(N)=O)cc2ccc(C(F)(F)F)cc21 (3D coordinates assigned)
CCOC(=O)n1c(C(N)=O)cc2ccc(C(F)(F)F)cc21 (optimized conformer: 68.16221210236492 kcal/mol)

>  <smiles>  (18) 
CCOC(=O)n1c(C(N)=O)cc2ccc(C(F)(F)F)cc21

>  <score_type>  (18) 
oracle

>  <origin>  (18) 
adg

>  <m_score__min__energy>  (18) 
-5.9900000000000002

>  <m_primary>  (18) 
energy

$$$$
18:0
     RDKit          3D

 34 35  0  0  0  0  0  0  0  0999 V2000
  147.7530  160.8930  132.5910 N   0  0  0  0  0  0  0  0  0  0  0  0
  147.3710  159.7880  133.4060 C   0  0  0  0  0  0  0  0  0  0  0  0
  148.2420  159.2040  134.1020 O   0  0  0  0  0  0  0  0  0  0  0  0
  145.9550  159.3680  133.4580 C   0  0  0  0  0  0  0  0  0  0  0  0
  145.5370  158.0540  133.2590 C   0  0  0  0  0  0  0  0  0  0  0  0
  144.1620  158.0990  133.2920 C   0  0  0  0  0  0  0  0  0  0  0  0
  143.2280  157.0750  133.1640 C   0  0  0  0  0  0  0  0  0  0  0  0
  141.8670  157.4060  133.2690 C   0  0  0  0  0  0  0  0  0  0  0  0
  141.4660  158.7460  133.4960 C   0  0  0  0  0  0  0  0  0  0  0  0
  140.0070  159.0800  133.6550 C   0  0  0  0  0  0  0  0  0  0  0  0
  139.1400  158.0900  132.8660 C   0  0  0  0  0  0  0  0  0  0  0  0
  138.7690  158.6100  131.4680 C   0  0  0  0  0  0  0  0  0  0  0  0
  138.5990  160.1300  131.4140 C   0  0  0  0  0  0  0  0  0  0  0  0
  137.3370  160.4620  130.9540 F   0  0  0  0  0  0  0  0  0  0  0  0
  142.4420  159.7570  133.6330 C   0  0  0  0  0  0  0  0  0  0  0  0
  143.7900  159.4010  133.5070 C   0  0  0  0  0  0  0  0  0  0  0  0
  144.8800  160.1940  133.6160 N   0  0  0  0  0  0  0  0  0  0  0  0
  144.8830  161.5990  133.9150 C   0  0  0  0  0  0  0  0  0  0  0  0
  146.0390  162.2110  134.4830 N   0  0  0  0  0  0  0  0  0  0  0  0
  143.8520  162.2920  133.7050 O   0  0  0  0  0  0  0  0  0  0  0  0
  147.3700  161.8480  132.7670 H   0  0  0  0  0  0  0  0  0  0  0  0
  146.1715  157.1683  133.1076 H   0  0  0  0  0  0  0  0  0  0  0  0
  143.5463  156.0372  132.9859 H   0  0  0  0  0  0  0  0  0  0  0  0
  141.1055  156.6179  133.1741 H   0  0  0  0  0  0  0  0  0  0  0  0
  139.7377  159.0279  134.7203 H   0  0  0  0  0  0  0  0  0  0  0  0
  139.8301  160.0945  133.2683 H   0  0  0  0  0  0  0  0  0  0  0  0
  139.6952  157.1469  132.7548 H   0  0  0  0  0  0  0  0  0  0  0  0
  138.2044  157.9475  133.4267 H   0  0  0  0  0  0  0  0  0  0  0  0
  139.5652  158.3224  130.7657 H   0  0  0  0  0  0  0  0  0  0  0  0
  137.7999  158.1636  131.2005 H   0  0  0  0  0  0  0  0  0  0  0  0
  138.7370  160.5454  132.4231 H   0  0  0  0  0  0  0  0  0  0  0  0
  139.3489  160.5469  130.7256 H   0  0  0  0  0  0  0  0  0  0  0  0
  142.1504  160.7985  133.8337 H   0  0  0  0  0  0  0  0  0  0  0  0
  146.9930  161.9940  134.1210 H   0  0  0  0  0  0  0  0  0  0  0  0
  1  2  1  0
  2  3  2  0
  2  4  1  0
  4  5  2  0
  5  6  1  0
  6  7  2  0
  7  8  1  0
  8  9  2  0
  9 10  1  0
 10 11  1  0
 11 12  1  0
 12 13  1  0
 13 14  1  0
  9 15  1  0
 15 16  2  0
 16 17  1  0
 17 18  1  0
 18 19  1  0
 18 20  2  0
 17  4  1  0
 16  6  1  0
  1 21  1  0
  5 22  1  0
  7 23  1  0
  8 24  1  0
 10 25  1  0
 10 26  1  0
 11 27  1  0
 11 28  1  0
 12 29  1  0
 12 30  1  0
 13 31  1  0
 13 32  1  0
 15 33  1  0
 19 34  1  0
M  CHG  2   1  -1  19  -1
M  END
>  <UniqueID>  (19) 
19

>  <SMILES>  (19) 
[NH-]C(=O)c1cc2ccc(CCCCF)cc2n1C([NH-])=O

>  <Energy>  (19) 
66.83180863282611

>  <Genealogy>  (19) 
[NH-]C(=O)c1cc2ccc(CCCCF)cc2n1C([NH-])=O (protonated)
[NH-]C(=O)c1cc2ccc(CCCCF)cc2n1C([NH-])=O (3D coordinates assigned)
[NH-]C(=O)c1cc2ccc(CCCCF)cc2n1C([NH-])=O (optimized conformer: 66.83180863282611 kcal/mol)

>  <smiles>  (19) 
NC(=O)c1cc2ccc(CCCCF)cc2n1C(N)=O

>  <score_type>  (19) 
oracle

>  <origin>  (19) 
adg

>  <m_score__min__energy>  (19) 
-6.4500000000000002

>  <m_primary>  (19) 
energy

$$$$
19:0
     RDKit          3D

 42 44  0  0  0  0  0  0  0  0999 V2000
  144.3530  155.2450  132.3230 C   0  0  0  0  0  0  0  0  0  0  0  0
  145.8020  154.7790  132.2400 C   0  0  0  0  0  0  0  0  0  0  0  0
  146.6920  155.8910  132.2960 O   0  0  0  0  0  0  0  0  0  0  0  0
  146.8010  156.7370  133.4060 C   0  0  0  0  0  0  0  0  0  0  0  0
  147.0310  156.2590  134.5510 O   0  0  0  0  0  0  0  0  0  0  0  0
  146.6470  158.1560  133.2420 N   0  0  0  0  0  0  0  0  0  0  0  0
  147.5920  159.0540  132.8480 C   0  0  0  0  0  0  0  0  0  0  0  0
  148.9420  158.7240  132.3480 C   0  0  0  0  0  0  0  0  0  0  0  0
  149.2540  157.4150  131.8650 N   0  0  0  0  0  0  0  0  0  0  0  0
  149.8200  159.6250  132.2960 O   0  0  0  0  0  0  0  0  0  0  0  0
  147.1010  160.3540  132.9260 C   0  0  0  0  0  0  0  0  0  0  0  0
  145.8060  160.2260  133.3710 C   0  0  0  0  0  0  0  0  0  0  0  0
  144.8540  161.2040  133.6450 C   0  0  0  0  0  0  0  0  0  0  0  0
  143.6050  160.7880  134.1340 C   0  0  0  0  0  0  0  0  0  0  0  0
  143.3310  159.4140  134.3400 C   0  0  0  0  0  0  0  0  0  0  0  0
  142.0210  158.9850  134.8790 C   0  0  0  0  0  0  0  0  0  0  0  0
  141.8350  158.9830  136.2720 C   0  0  0  0  0  0  0  0  0  0  0  0
  140.6070  158.6120  136.8240 C   0  0  0  0  0  0  0  0  0  0  0  0
  139.5520  158.2370  135.9940 C   0  0  0  0  0  0  0  0  0  0  0  0
  138.3590  157.8860  136.5330 F   0  0  0  0  0  0  0  0  0  0  0  0
  139.7240  158.2210  134.6080 C   0  0  0  0  0  0  0  0  0  0  0  0
  140.9590  158.5730  134.0350 C   0  0  0  0  0  0  0  0  0  0  0  0
  141.1080  158.5170  132.5370 C   0  0  0  0  0  0  0  0  0  0  0  0
  144.3260  158.4500  134.0630 C   0  0  0  0  0  0  0  0  0  0  0  0
  145.5550  158.8900  133.5570 C   0  0  0  0  0  0  0  0  0  0  0  0
  144.0582  155.3398  133.3785 H   0  0  0  0  0  0  0  0  0  0  0  0
  144.2525  156.2207  131.8252 H   0  0  0  0  0  0  0  0  0  0  0  0
  143.7026  154.5107  131.8252 H   0  0  0  0  0  0  0  0  0  0  0  0
  146.0133  154.1044  133.0827 H   0  0  0  0  0  0  0  0  0  0  0  0
  145.9509  154.2541  131.2849 H   0  0  0  0  0  0  0  0  0  0  0  0
  150.2250  157.1890  131.5550 H   0  0  0  0  0  0  0  0  0  0  0  0
  148.5080  156.6980  131.7330 H   0  0  0  0  0  0  0  0  0  0  0  0
  147.6346  161.2848  132.6835 H   0  0  0  0  0  0  0  0  0  0  0  0
  145.0733  162.2697  133.4835 H   0  0  0  0  0  0  0  0  0  0  0  0
  142.8316  161.5371  134.3593 H   0  0  0  0  0  0  0  0  0  0  0  0
  142.6638  159.2762  136.9332 H   0  0  0  0  0  0  0  0  0  0  0  0
  140.4722  158.6157  137.9157 H   0  0  0  0  0  0  0  0  0  0  0  0
  138.8853  157.9302  133.9584 H   0  0  0  0  0  0  0  0  0  0  0  0
  142.1096  158.1406  132.2820 H   0  0  0  0  0  0  0  0  0  0  0  0
  140.3456  157.8440  132.1176 H   0  0  0  0  0  0  0  0  0  0  0  0
  140.9776  159.5255  132.1176 H   0  0  0  0  0  0  0  0  0  0  0  0
  144.1397  157.3805  134.2405 H   0  0  0  0  0  0  0  0  0  0  0  0
  1  2  1  0
  2  3  1  0
  3  4  1  0
  4  5  2  0
  4  6  1  0
  6  7  1  0
  7  8  1  0
  8  9  1  0
  8 10  2  0
  7 11  2  0
 11 12  1  0
 12 13  2  0
 13 14  1  0
 14 15  2  0
 15 16  1  0
 16 17  2  0
 17 18  1  0
 18 19  2  0
 19 20  1  0
 19 21  1  0
 21 22  2  0
 22 23  1  0
 15 24  1  0
 24 25  2  0
 25  6  1  0
 25 12  1  0
 22 16  1  0
  1 26  1  0
  1 27  1  0
  1 28  1  0
  2 29  1  0
  2 30  1  0
  9 31  1  0
  9 32  1  0
 11 33  1  0
 13 34  1  0
 14 35  1  0
 17 36  1  0
 18 37  1  0
 21 38  1  0
 23 39  1  0
 23 40  1  0
 23 41  1  0
 24 42  1  0
M  END
>  <UniqueID>  (20) 
20

>  <SMILES>  (20) 
CCOC(=O)n1c(C(N)=O)cc2ccc(-c3ccc(F)cc3C)cc21

>  <Energy>  (20) 
86.85788218468925

>  <Genealogy>  (20) 
CCOC(=O)n1c(C(N)=O)cc2ccc(-c3ccc(F)cc3C)cc21 (3D coordinates assigned)
CCOC(=O)n1c(C(N)=O)cc2ccc(-c3ccc(F)cc3C)cc21 (optimized conformer: 86.85788218468925 kcal/mol)

>  <smiles>  (20) 
CCOC(=O)n1c(C(N)=O)cc2ccc(-c3ccc(F)cc3C)cc21

>  <score_type>  (20) 
oracle

>  <origin>  (20) 
adg

>  <m_score__min__energy>  (20) 
-8.1999999999999993

>  <m_primary>  (20) 
energy

$$$$
20:0
     RDKit          3D

 31 32  0  0  0  0  0  0  0  0999 V2000
  149.2300  161.6410  130.3590 C   0  0  0  0  0  0  0  0  0  0  0  0
  150.1080  160.5480  130.2090 O   0  0  0  0  0  0  0  0  0  0  0  0
  149.5530  159.3800  130.7910 C   0  0  0  0  0  0  0  0  0  0  0  0
  149.3400  159.5960  132.2900 C   0  0  0  0  0  0  0  0  0  0  0  0
  147.9450  159.2080  132.7010 C   0  0  0  0  0  0  0  0  0  0  0  0
  147.5340  157.8530  132.6350 C   0  0  0  0  0  0  0  0  0  0  0  0
  146.2250  157.4850  132.9870 C   0  0  0  0  0  0  0  0  0  0  0  0
  145.3490  158.4910  133.3830 C   0  0  0  0  0  0  0  0  0  0  0  0
  144.0380  158.4110  133.7920 C   0  0  0  0  0  0  0  0  0  0  0  0
  143.6560  159.7210  134.0690 C   0  0  0  0  0  0  0  0  0  0  0  0
  142.2820  160.1000  134.4610 C   0  0  0  0  0  0  0  0  0  0  0  0
  141.5080  160.9880  133.6600 N   0  0  0  0  0  0  0  0  0  0  0  0
  141.7670  159.5930  135.4940 O   0  0  0  0  0  0  0  0  0  0  0  0
  144.6930  160.5790  133.8480 N   0  0  0  0  0  0  0  0  0  0  0  0
  144.7350  161.9940  134.0930 C   0  0  0  0  0  0  0  0  0  0  0  0
  145.5950  162.4790  134.8740 O   0  0  0  0  0  0  0  0  0  0  0  0
  143.8440  162.8450  133.4490 O   0  0  0  0  0  0  0  0  0  0  0  0
  145.7210  159.8090  133.4260 C   0  0  0  0  0  0  0  0  0  0  0  0
  147.0250  160.2030  133.1010 C   0  0  0  0  0  0  0  0  0  0  0  0
  149.0708  161.8392  131.4292 H   0  0  0  0  0  0  0  0  0  0  0  0
  149.6673  162.5307  129.8824 H   0  0  0  0  0  0  0  0  0  0  0  0
  148.2669  161.4058  129.8824 H   0  0  0  0  0  0  0  0  0  0  0  0
  148.5871  159.1583  130.3136 H   0  0  0  0  0  0  0  0  0  0  0  0
  150.2440  158.5374  130.6412 H   0  0  0  0  0  0  0  0  0  0  0  0
  150.0626  158.9820  132.8476 H   0  0  0  0  0  0  0  0  0  0  0  0
  149.4857  160.6632  132.5132 H   0  0  0  0  0  0  0  0  0  0  0  0
  148.2466  157.0827  132.3051 H   0  0  0  0  0  0  0  0  0  0  0  0
  145.9023  156.4340  132.9508 H   0  0  0  0  0  0  0  0  0  0  0  0
  143.4219  157.5041  133.8813 H   0  0  0  0  0  0  0  0  0  0  0  0
  141.8560  161.9450  133.4290 H   0  0  0  0  0  0  0  0  0  0  0  0
  147.3252  161.2598  133.1557 H   0  0  0  0  0  0  0  0  0  0  0  0
  1  2  1  0
  2  3  1  0
  3  4  1  0
  4  5  1  0
  5  6  2  0
  6  7  1  0
  7  8  2  0
  8  9  1  0
  9 10  2  0
 10 11  1  0
 11 12  1  0
 11 13  2  0
 10 14  1  0
 14 15  1  0
 15 16  2  0
 15 17  1  0
 14 18  1  0
 18 19  2  0
 19  5  1  0
 18  8  1  0
  1 20  1  0
  1 21  1  0
  1 22  1  0
  3 23  1  0
  3 24  1  0
  4 25  1  0
  4 26  1  0
  6 27  1  0
  7 28  1  0
  9 29  1  0
 12 30  1  0
 19 31  1  0
M  CHG  2  12  -1  17  -1
M  END
>  <UniqueID>  (21) 
21

>  <SMILES>  (21) 
COCCc1ccc2cc(C([NH-])=O)n(C(=O)[O-])c2c1

>  <Energy>  (21) 
70.43529530889711

>  <Genealogy>  (21) 
COCCc1ccc2cc(C([NH-])=O)n(C(=O)[O-])c2c1 (protonated)
COCCc1ccc2cc(C([NH-])=O)n(C(=O)[O-])c2c1 (3D coordinates assigned)
COCCc1ccc2cc(C([NH-])=O)n(C(=O)[O-])c2c1 (optimized conformer: 70.43529530889711 kcal/mol)

>  <smiles>  (21) 
COCCc1ccc2cc(C(N)=O)n(C(=O)O)c2c1

>  <score_type>  (21) 
oracle

>  <origin>  (21) 
adg

>  <m_score__min__energy>  (21) 
-6.4000000000000004

>  <m_primary>  (21) 
energy

$$$$
21:0
     RDKit          3D

 24 25  0  0  0  0  0  0  0  0999 V2000
  149.2500  162.0340  130.3480 C   0  0  0  0  0  0  0  0  0  0  0  0
  149.0670  160.7270  131.0590 C   0  0  0  0  0  0  0  0  0  0  0  0
  150.1180  159.7770  131.0750 C   0  0  0  0  0  0  0  0  0  0  0  0
  149.9670  158.5580  131.7590 C   0  0  0  0  0  0  0  0  0  0  0  0
  148.7690  158.3290  132.4290 C   0  0  0  0  0  0  0  0  0  0  0  0
  148.3540  157.2320  133.1480 C   0  0  0  0  0  0  0  0  0  0  0  0
  147.0730  157.5450  133.5930 C   0  0  0  0  0  0  0  0  0  0  0  0
  146.2860  156.6650  134.4830 C   0  0  0  0  0  0  0  0  0  0  0  0
  144.8610  156.6940  134.4720 N   0  0  0  0  0  0  0  0  0  0  0  0
  146.8810  155.9130  135.3000 O   0  0  0  0  0  0  0  0  0  0  0  0
  146.7050  158.7860  133.1600 N   0  0  0  0  0  0  0  0  0  0  0  0
  145.4370  159.4390  133.3310 C   0  0  0  0  0  0  0  0  0  0  0  0
  145.3280  160.4230  134.1090 O   0  0  0  0  0  0  0  0  0  0  0  0
  144.3130  158.9740  132.6610 O   0  0  0  0  0  0  0  0  0  0  0  0
  147.7560  159.2520  132.4510 C   0  0  0  0  0  0  0  0  0  0  0  0
  147.8710  160.4670  131.7640 C   0  0  0  0  0  0  0  0  0  0  0  0
  149.3630  162.8408  131.0871 H   0  0  0  0  0  0  0  0  0  0  0  0
  150.1501  161.9856  129.7176 H   0  0  0  0  0  0  0  0  0  0  0  0
  148.3712  162.2347  129.7176 H   0  0  0  0  0  0  0  0  0  0  0  0
  151.0589  159.9947  130.5484 H   0  0  0  0  0  0  0  0  0  0  0  0
  150.7716  157.8079  131.7644 H   0  0  0  0  0  0  0  0  0  0  0  0
  148.9156  156.3042  133.3321 H   0  0  0  0  0  0  0  0  0  0  0  0
  144.3440  157.5900  134.3310 H   0  0  0  0  0  0  0  0  0  0  0  0
  147.0509  161.2000  131.7732 H   0  0  0  0  0  0  0  0  0  0  0  0
  1  2  1  0
  2  3  2  0
  3  4  1  0
  4  5  2  0
  5  6  1  0
  6  7  2  0
  7  8  1  0
  8  9  1  0
  8 10  2  0
  7 11  1  0
 11 12  1  0
 12 13  2  0
 12 14  1  0
 11 15  1  0
 15 16  2  0
 16  2  1  0
 15  5  1  0
  1 17  1  0
  1 18  1  0
  1 19  1  0
  3 20  1  0
  4 21  1  0
  6 22  1  0
  9 23  1  0
 16 24  1  0
M  CHG  2   9  -1  14  -1
M  END
>  <UniqueID>  (22) 
22

>  <SMILES>  (22) 
Cc1ccc2cc(C([NH-])=O)n(C(=O)[O-])c2c1

>  <Energy>  (22) 
63.82124953960971

>  <Genealogy>  (22) 
Cc1ccc2cc(C([NH-])=O)n(C(=O)[O-])c2c1 (protonated)
Cc1ccc2cc(C([NH-])=O)n(C(=O)[O-])c2c1 (3D coordinates assigned)
Cc1ccc2cc(C([NH-])=O)n(C(=O)[O-])c2c1 (optimized conformer: 63.82124953960971 kcal/mol)

>  <smiles>  (22) 
Cc1ccc2cc(C(N)=O)n(C(=O)O)c2c1

>  <score_type>  (22) 
oracle

>  <origin>  (22) 
adg

>  <m_score__min__energy>  (22) 
-5.5599999999999996

>  <m_primary>  (22) 
energy

$$$$
22:0
     RDKit          3D

 31 33  0  0  0  0  0  0  0  0999 V2000
  145.9600  162.6260  134.6450 N   0  0  0  0  0  0  0  0  0  0  0  0
  144.9440  161.8900  133.9680 C   0  0  0  0  0  0  0  0  0  0  0  0
  143.9100  162.4860  133.5650 O   0  0  0  0  0  0  0  0  0  0  0  0
  145.1080  160.4830  133.7250 N   0  0  0  0  0  0  0  0  0  0  0  0
  144.2630  159.4730  134.0780 C   0  0  0  0  0  0  0  0  0  0  0  0
  142.9080  159.6470  134.6480 C   0  0  0  0  0  0  0  0  0  0  0  0
  142.0050  160.6100  134.1000 N   0  0  0  0  0  0  0  0  0  0  0  0
  142.5500  158.9680  135.6450 O   0  0  0  0  0  0  0  0  0  0  0  0
  144.8080  158.2370  133.7340 C   0  0  0  0  0  0  0  0  0  0  0  0
  146.0210  158.5230  133.1530 C   0  0  0  0  0  0  0  0  0  0  0  0
  146.9870  157.6670  132.6330 C   0  0  0  0  0  0  0  0  0  0  0  0
  148.1610  158.2370  132.1130 C   0  0  0  0  0  0  0  0  0  0  0  0
  148.3550  159.6460  132.1260 C   0  0  0  0  0  0  0  0  0  0  0  0
  149.6180  160.2880  131.5820 C   0  0  0  0  0  0  0  0  0  0  0  0
  150.1140  159.7180  130.2710 C   0  0  0  0  0  0  0  0  0  0  0  0
  149.8690  160.9210  129.5790 O   0  0  0  0  0  0  0  0  0  0  0  0
  149.4010  161.5360  130.7560 C   0  0  0  0  0  0  0  0  0  0  0  0
  147.3470  160.4780  132.6630 C   0  0  0  0  0  0  0  0  0  0  0  0
  146.1800  159.8840  133.1580 C   0  0  0  0  0  0  0  0  0  0  0  0
  146.9710  162.4540  134.4450 H   0  0  0  0  0  0  0  0  0  0  0  0
  142.2450  161.1520  133.2420 H   0  0  0  0  0  0  0  0  0  0  0  0
  141.0660  160.7520  134.5340 H   0  0  0  0  0  0  0  0  0  0  0  0
  144.3624  157.2440  133.8934 H   0  0  0  0  0  0  0  0  0  0  0  0
  146.8360  156.5774  132.6292 H   0  0  0  0  0  0  0  0  0  0  0  0
  148.9400  157.5854  131.6905 H   0  0  0  0  0  0  0  0  0  0  0  0
  150.1939  160.2653  132.5189 H   0  0  0  0  0  0  0  0  0  0  0  0
  151.1760  159.4322  130.2910 H   0  0  0  0  0  0  0  0  0  0  0  0
  149.6685  158.7860  129.8930 H   0  0  0  0  0  0  0  0  0  0  0  0
  150.0168  162.3881  131.0797 H   0  0  0  0  0  0  0  0  0  0  0  0
  148.4057  162.0044  130.7516 H   0  0  0  0  0  0  0  0  0  0  0  0
  147.4766  161.5700  132.6915 H   0  0  0  0  0  0  0  0  0  0  0  0
  1  2  1  0
  2  3  2  0
  2  4  1  0
  4  5  1  0
  5  6  1  0
  6  7  1  0
  6  8  2  0
  5  9  2  0
  9 10  1  0
 10 11  2  0
 11 12  1  0
 12 13  2  0
 13 14  1  0
 14 15  1  0
 15 16  1  0
 16 17  1  0
 13 18  1  0
 18 19  2  0
 19  4  1  0
 19 10  1  0
 17 14  1  0
  1 20  1  0
  7 21  1  0
  7 22  1  0
  9 23  1  0
 11 24  1  0
 12 25  1  0
 14 26  1  0
 15 27  1  0
 15 28  1  0
 17 29  1  0
 17 30  1  0
 18 31  1  0
M  CHG  1   1  -1
M  END
>  <UniqueID>  (23) 
23

>  <SMILES>  (23) 
[NH-]C(=O)n1c(C(N)=O)cc2ccc(C3COC3)cc21

>  <Energy>  (23) 
136.7293863594034

>  <Genealogy>  (23) 
[NH-]C(=O)n1c(C(N)=O)cc2ccc(C3COC3)cc21 (protonated)
[NH-]C(=O)n1c(C(N)=O)cc2ccc(C3COC3)cc21 (3D coordinates assigned)
[NH-]C(=O)n1c(C(N)=O)cc2ccc(C3COC3)cc21 (nonaromatic ring conformer: 136.7293863594034 kcal/mol)

>  <smiles>  (23) 
NC(=O)c1cc2ccc(C3COC3)cc2n1C(N)=O

>  <score_type>  (23) 
oracle

>  <origin>  (23) 
adg

>  <m_score__min__energy>  (23) 
-7.04

>  <m_primary>  (23) 
energy

$$$$
24:0
     RDKit          3D

 42 44  0  0  0  0  0  0  0  0999 V2000
  148.3790  159.5900  133.3280 C   0  0  0  0  0  0  0  0  0  0  0  0
  147.9100  158.1510  133.6250 C   0  0  1  0  0  0  0  0  0  0  0  0
  148.4430  157.7400  134.8650 O   0  0  0  0  0  0  0  0  0  0  0  0
  146.3700  158.1340  133.7350 C   0  0  0  0  0  0  0  0  0  0  0  0
  145.8190  156.7330  134.0770 C   0  0  0  0  0  0  0  0  0  0  0  0
  146.6850  155.5780  133.5130 C   0  0  1  0  0  0  0  0  0  0  0  0
  145.8600  154.3240  133.2900 C   0  0  0  0  0  0  0  0  0  0  0  0
  146.4650  153.1280  132.8200 C   0  0  0  0  0  0  0  0  0  0  0  0
  145.6970  151.9740  132.5960 C   0  0  0  0  0  0  0  0  0  0  0  0
  144.3320  152.0370  132.8550 C   0  0  0  0  0  0  0  0  0  0  0  0
  143.3580  151.0800  132.6900 C   0  0  0  0  0  0  0  0  0  0  0  0
  142.1730  151.6910  133.0860 C   0  0  0  0  0  0  0  0  0  0  0  0
  140.8730  150.9920  133.1240 C   0  0  0  0  0  0  0  0  0  0  0  0
  139.6980  151.5840  132.5670 N   0  0  0  0  0  0  0  0  0  0  0  0
  140.7870  149.8780  133.7050 O   0  0  0  0  0  0  0  0  0  0  0  0
  142.3980  152.9800  133.4700 N   0  0  0  0  0  0  0  0  0  0  0  0
  141.4190  153.9670  133.8350 C   0  0  0  0  0  0  0  0  0  0  0  0
  141.5220  154.5950  134.9200 O   0  0  0  0  0  0  0  0  0  0  0  0
  140.3450  154.2380  132.9940 O   0  0  0  0  0  0  0  0  0  0  0  0
  143.7300  153.1750  133.3250 C   0  0  0  0  0  0  0  0  0  0  0  0
  144.4660  154.3470  133.5350 C   0  0  0  0  0  0  0  0  0  0  0  0
  147.4240  156.0030  132.2320 C   0  0  0  0  0  0  0  0  0  0  0  0
  148.3810  157.1870  132.4890 C   0  0  0  0  0  0  0  0  0  0  0  0
  148.5524  160.1220  134.2751 H   0  0  0  0  0  0  0  0  0  0  0  0
  149.3135  159.5588  132.7486 H   0  0  0  0  0  0  0  0  0  0  0  0
  147.6056  160.1155  132.7486 H   0  0  0  0  0  0  0  0  0  0  0  0
  149.4170  157.5920  134.7500 H   0  0  0  0  0  0  0  0  0  0  0  0
  146.0646  158.8360  134.5249 H   0  0  0  0  0  0  0  0  0  0  0  0
  145.9610  158.4251  132.7563 H   0  0  0  0  0  0  0  0  0  0  0  0
  145.7743  156.6333  135.1716 H   0  0  0  0  0  0  0  0  0  0  0  0
  144.8255  156.6517  133.6119 H   0  0  0  0  0  0  0  0  0  0  0  0
  147.4482  155.3387  134.2681 H   0  0  0  0  0  0  0  0  0  0  0  0
  147.5481  153.1055  132.6292 H   0  0  0  0  0  0  0  0  0  0  0  0
  146.1612  151.0477  132.2266 H   0  0  0  0  0  0  0  0  0  0  0  0
  143.4884  150.0512  132.3232 H   0  0  0  0  0  0  0  0  0  0  0  0
  138.7960  151.0580  132.5680 H   0  0  0  0  0  0  0  0  0  0  0  0
  139.6990  152.5720  132.2330 H   0  0  0  0  0  0  0  0  0  0  0  0
  143.9718  155.2661  133.8829 H   0  0  0  0  0  0  0  0  0  0  0  0
  148.0069  155.1488  131.8570 H   0  0  0  0  0  0  0  0  0  0  0  0
  146.6736  156.3235  131.4943 H   0  0  0  0  0  0  0  0  0  0  0  0
  149.3657  156.7820  132.7654 H   0  0  0  0  0  0  0  0  0  0  0  0
  148.4108  157.7786  131.5621 H   0  0  0  0  0  0  0  0  0  0  0  0
  1  2  1  0
  2  3  1  1
  2  4  1  0
  4  5  1  0
  5  6  1  0
  6  7  1  0
  7  8  2  0
  8  9  1  0
  9 10  2  0
 10 11  1  0
 11 12  2  0
 12 13  1  0
 13 14  1  0
 13 15  2  0
 12 16  1  0
 16 17  1  0
 17 18  2  0
 17 19  1  0
 16 20  1  0
 20 21  2  0
  6 22  1  0
 22 23  1  0
 23  2  1  0
 21  7  1  0
 20 10  1  0
  1 24  1  0
  1 25  1  0
  1 26  1  0
  3 27  1  0
  4 28  1  0
  4 29  1  0
  5 30  1  0
  5 31  1  0
  6 32  1  1
  8 33  1  0
  9 34  1  0
 11 35  1  0
 14 36  1  0
 14 37  1  0
 21 38  1  0
 22 39  1  0
 22 40  1  0
 23 41  1  0
 23 42  1  0
M  CHG  1  19  -1
M  END
>  <UniqueID>  (24) 
24

>  <SMILES>  (24) 
CC1(O)CCC(c2ccc3cc(C(N)=O)n(C(=O)[O-])c3c2)CC1

>  <Energy>  (24) 
87.72253747068014

>  <Genealogy>  (24) 
CC1(O)CCC(c2ccc3cc(C(N)=O)n(C(=O)[O-])c3c2)CC1 (protonated)
CC1(O)CCC(c2ccc3cc(C(N)=O)n(C(=O)[O-])c3c2)CC1 (3D coordinates assigned)
CC1(O)CCC(c2ccc3cc(C(N)=O)n(C(=O)[O-])c3c2)CC1 (nonaromatic ring conformer: 87.72253747068014 kcal/mol)

>  <smiles>  (24) 
CC1(O)CCC(c2ccc3cc(C(N)=O)n(C(=O)O)c3c2)CC1

>  <score_type>  (24) 
oracle

>  <origin>  (24) 
adg

>  <m_score__min__energy>  (24) 
-8.1999999999999993

>  <m_primary>  (24) 
energy

$$$$
25:0
     RDKit          3D

 31 33  0  0  0  0  0  0  0  0999 V2000
  138.7330  155.5470  132.9750 N   0  0  0  0  0  0  0  0  0  0  0  0
  140.0430  155.9600  133.3540 C   0  0  0  0  0  0  0  0  0  0  0  0
  140.9930  155.1400  133.2500 O   0  0  0  0  0  0  0  0  0  0  0  0
  140.2850  157.3080  133.8070 N   0  0  0  0  0  0  0  0  0  0  0  0
  140.1140  158.4600  133.0960 C   0  0  0  0  0  0  0  0  0  0  0  0
  139.7640  158.5500  131.6690 C   0  0  0  0  0  0  0  0  0  0  0  0
  138.6310  157.8550  131.1500 N   0  0  0  0  0  0  0  0  0  0  0  0
  140.5150  159.1910  130.8850 O   0  0  0  0  0  0  0  0  0  0  0  0
  140.2610  159.5760  133.9100 C   0  0  0  0  0  0  0  0  0  0  0  0
  140.5640  159.0770  135.1550 C   0  0  0  0  0  0  0  0  0  0  0  0
  140.8280  159.7490  136.3420 C   0  0  0  0  0  0  0  0  0  0  0  0
  141.1300  158.9850  137.4810 C   0  0  0  0  0  0  0  0  0  0  0  0
  141.1780  157.5670  137.4130 C   0  0  0  0  0  0  0  0  0  0  0  0
  141.5070  156.7500  138.6090 C   0  0  0  0  0  0  0  0  0  0  0  0
  141.1110  155.4080  138.7220 C   0  0  0  0  0  0  0  0  0  0  0  0
  141.4510  154.7020  139.8760 C   0  0  0  0  0  0  0  0  0  0  0  0
  142.1470  155.3150  140.8680 N   0  0  0  0  0  0  0  0  0  0  0  0
  142.5180  156.6160  140.7530 C   0  0  0  0  0  0  0  0  0  0  0  0
  142.1980  157.3190  139.6370 N   0  0  0  0  0  0  0  0  0  0  0  0
  140.8920  156.9230  136.1850 C   0  0  0  0  0  0  0  0  0  0  0  0
  140.5740  157.7080  135.0690 C   0  0  0  0  0  0  0  0  0  0  0  0
  137.8930  156.0970  133.2620 H   0  0  0  0  0  0  0  0  0  0  0  0
  138.0760  157.2130  131.7580 H   0  0  0  0  0  0  0  0  0  0  0  0
  138.3820  157.9350  130.1400 H   0  0  0  0  0  0  0  0  0  0  0  0
  140.1573  160.6322  133.6207 H   0  0  0  0  0  0  0  0  0  0  0  0
  140.8013  160.8477  136.3883 H   0  0  0  0  0  0  0  0  0  0  0  0
  141.3317  159.4905  138.4369 H   0  0  0  0  0  0  0  0  0  0  0  0
  140.5429  154.9220  137.9152 H   0  0  0  0  0  0  0  0  0  0  0  0
  141.1551  153.6479  139.9826 H   0  0  0  0  0  0  0  0  0  0  0  0
  143.0788  157.1010  141.5656 H   0  0  0  0  0  0  0  0  0  0  0  0
  140.9190  155.8260  136.1085 H   0  0  0  0  0  0  0  0  0  0  0  0
  1  2  1  0
  2  3  2  0
  2  4  1  0
  4  5  1  0
  5  6  1  0
  6  7  1  0
  6  8  2  0
  5  9  2  0
  9 10  1  0
 10 11  2  0
 11 12  1  0
 12 13  2  0
 13 14  1  0
 14 15  2  0
 15 16  1  0
 16 17  2  0
 17 18  1  0
 18 19  2  0
 13 20  1  0
 20 21  2  0
 21  4  1  0
 21 10  1  0
 19 14  1  0
  1 22  1  0
  7 23  1  0
  7 24  1  0
  9 25  1  0
 11 26  1  0
 12 27  1  0
 15 28  1  0
 16 29  1  0
 18 30  1  0
 20 31  1  0
M  CHG  1   1  -1
M  END
>  <UniqueID>  (25) 
25

>  <SMILES>  (25) 
[NH-]C(=O)n1c(C(N)=O)cc2ccc(-c3ccncn3)cc21

>  <Energy>  (25) 
81.64372438519918

>  <Genealogy>  (25) 
[NH-]C(=O)n1c(C(N)=O)cc2ccc(-c3ccncn3)cc21 (protonated)
[NH-]C(=O)n1c(C(N)=O)cc2ccc(-c3ccncn3)cc21 (3D coordinates assigned)
[NH-]C(=O)n1c(C(N)=O)cc2ccc(-c3ccncn3)cc21 (optimized conformer: 81.64372438519918 kcal/mol)

>  <smiles>  (25) 
NC(=O)c1cc2ccc(-c3ccncn3)cc2n1C(N)=O

>  <score_type>  (25) 
oracle

>  <origin>  (25) 
adg

>  <m_score__min__energy>  (25) 
-7.0499999999999998

>  <m_primary>  (25) 
energy

$$$$
26:0
     RDKit          3D

 28 29  0  0  0  0  0  0  0  0999 V2000
  149.9810  157.7620  132.2050 N   0  0  0  0  0  0  0  0  0  0  0  0
  149.3230  159.0270  132.2110 C   0  0  0  0  0  0  0  0  0  0  0  0
  149.9520  160.0510  131.8370 O   0  0  0  0  0  0  0  0  0  0  0  0
  147.9060  159.1170  132.6180 C   0  0  0  0  0  0  0  0  0  0  0  0
  147.2220  160.3230  132.7640 C   0  0  0  0  0  0  0  0  0  0  0  0
  145.9770  159.9800  133.2440 C   0  0  0  0  0  0  0  0  0  0  0  0
  144.8860  160.7830  133.5590 C   0  0  0  0  0  0  0  0  0  0  0  0
  143.7140  160.1540  134.0140 C   0  0  0  0  0  0  0  0  0  0  0  0
  143.6580  158.7440  134.1480 C   0  0  0  0  0  0  0  0  0  0  0  0
  142.3860  158.0810  134.5940 C   0  0  0  0  0  0  0  0  0  0  0  0
  141.4330  159.1030  135.1250 C   0  0  0  0  0  0  0  0  0  0  0  0
  140.6550  159.7100  134.3420 O   0  0  0  0  0  0  0  0  0  0  0  0
  141.3670  159.3510  136.4900 O   0  0  0  0  0  0  0  0  0  0  0  0
  144.7830  157.9610  133.8080 C   0  0  0  0  0  0  0  0  0  0  0  0
  145.9390  158.6150  133.3710 C   0  0  0  0  0  0  0  0  0  0  0  0
  147.1130  158.0710  132.9840 N   0  0  0  0  0  0  0  0  0  0  0  0
  147.4170  156.6680  132.9250 C   0  0  0  0  0  0  0  0  0  0  0  0
  146.9100  155.8630  131.8610 N   0  0  0  0  0  0  0  0  0  0  0  0
  148.1060  156.1350  133.8350 O   0  0  0  0  0  0  0  0  0  0  0  0
  149.8600  157.0900  132.9960 H   0  0  0  0  0  0  0  0  0  0  0  0
  147.5966  161.3334  132.5430 H   0  0  0  0  0  0  0  0  0  0  0  0
  144.9386  161.8768  133.4553 H   0  0  0  0  0  0  0  0  0  0  0  0
  142.8328  160.7613  134.2683 H   0  0  0  0  0  0  0  0  0  0  0  0
  141.9259  157.5641  133.7389 H   0  0  0  0  0  0  0  0  0  0  0  0
  142.6170  157.3567  135.3890 H   0  0  0  0  0  0  0  0  0  0  0  0
  144.7507  156.8642  133.8850 H   0  0  0  0  0  0  0  0  0  0  0  0
  147.1450  154.8460  131.8110 H   0  0  0  0  0  0  0  0  0  0  0  0
  146.2680  156.2710  131.1460 H   0  0  0  0  0  0  0  0  0  0  0  0
  1  2  1  0
  2  3  2  0
  2  4  1  0
  4  5  2  0
  5  6  1  0
  6  7  2  0
  7  8  1  0
  8  9  2  0
  9 10  1  0
 10 11  1  0
 11 12  2  0
 11 13  1  0
  9 14  1  0
 14 15  2  0
 15 16  1  0
 16 17  1  0
 17 18  1  0
 17 19  2  0
 16  4  1  0
 15  6  1  0
  1 20  1  0
  5 21  1  0
  7 22  1  0
  8 23  1  0
 10 24  1  0
 10 25  1  0
 14 26  1  0
 18 27  1  0
 18 28  1  0
M  CHG  2   1  -1  13  -1
M  END
>  <UniqueID>  (26) 
26

>  <SMILES>  (26) 
[NH-]C(=O)c1cc2ccc(CC(=O)[O-])cc2n1C(N)=O

>  <Energy>  (26) 
64.94256207676474

>  <Genealogy>  (26) 
[NH-]C(=O)c1cc2ccc(CC(=O)[O-])cc2n1C(N)=O (protonated)
[NH-]C(=O)c1cc2ccc(CC(=O)[O-])cc2n1C(N)=O (3D coordinates assigned)
[NH-]C(=O)c1cc2ccc(CC(=O)[O-])cc2n1C(N)=O (optimized conformer: 64.94256207676474 kcal/mol)

>  <smiles>  (26) 
NC(=O)c1cc2ccc(CC(=O)O)cc2n1C(N)=O

>  <score_type>  (26) 
oracle

>  <origin>  (26) 
adg

>  <m_score__min__energy>  (26) 
-6.3200000000000003

>  <m_primary>  (26) 
energy

$$$$
27:0
     RDKit          3D

 44 46  0  0  0  0  0  0  0  0999 V2000
  141.2070  159.2160  136.0830 C   0  0  0  0  0  0  0  0  0  0  0  0
  141.6580  158.1780  135.0690 C   0  0  0  0  0  0  0  0  0  0  0  0
  143.0730  158.2350  134.9280 O   0  0  0  0  0  0  0  0  0  0  0  0
  143.7060  158.3390  133.6850 C   0  0  0  0  0  0  0  0  0  0  0  0
  143.1940  157.8010  132.6660 O   0  0  0  0  0  0  0  0  0  0  0  0
  144.9280  159.0860  133.5690 N   0  0  0  0  0  0  0  0  0  0  0  0
  145.0990  160.4360  133.6630 C   0  0  0  0  0  0  0  0  0  0  0  0
  144.0220  161.4430  133.7690 C   0  0  0  0  0  0  0  0  0  0  0  0
  142.6590  161.0230  133.7920 N   0  0  0  0  0  0  0  0  0  0  0  0
  144.2920  162.6670  133.8800 O   0  0  0  0  0  0  0  0  0  0  0  0
  146.4490  160.7650  133.5600 C   0  0  0  0  0  0  0  0  0  0  0  0
  147.1050  159.5680  133.3900 C   0  0  0  0  0  0  0  0  0  0  0  0
  148.4650  159.3070  133.2410 C   0  0  0  0  0  0  0  0  0  0  0  0
  148.8660  157.9660  133.1070 C   0  0  0  0  0  0  0  0  0  0  0  0
  147.9080  156.9270  133.1310 C   0  0  0  0  0  0  0  0  0  0  0  0
  148.3320  155.5580  133.0030 C   0  0  0  0  0  0  0  0  0  0  0  0
  148.6870  154.4110  132.8950 C   0  0  0  0  0  0  0  0  0  0  0  0
  149.1100  153.0420  132.7650 C   0  0  0  0  0  0  0  0  0  0  0  0
  149.1860  152.2220  133.8990 C   0  0  0  0  0  0  0  0  0  0  0  0
  149.5950  150.8910  133.7720 C   0  0  0  0  0  0  0  0  0  0  0  0
  149.9290  150.3750  132.5160 C   0  0  0  0  0  0  0  0  0  0  0  0
  149.8560  151.1930  131.3710 C   0  0  0  0  0  0  0  0  0  0  0  0
  150.1810  150.7250  130.0890 O   0  0  0  0  0  0  0  0  0  0  0  0
  151.1310  149.6960  129.8260 C   0  0  0  0  0  0  0  0  0  0  0  0
  149.4450  152.5260  131.5060 C   0  0  0  0  0  0  0  0  0  0  0  0
  146.5390  157.2240  133.2840 C   0  0  0  0  0  0  0  0  0  0  0  0
  146.1650  158.5700  133.3980 C   0  0  0  0  0  0  0  0  0  0  0  0
  141.3740  158.8317  137.1001 H   0  0  0  0  0  0  0  0  0  0  0  0
  141.7840  160.1417  135.9415 H   0  0  0  0  0  0  0  0  0  0  0  0
  140.1365  159.4259  135.9415 H   0  0  0  0  0  0  0  0  0  0  0  0
  141.3642  157.1760  135.4148 H   0  0  0  0  0  0  0  0  0  0  0  0
  141.1845  158.3846  134.0979 H   0  0  0  0  0  0  0  0  0  0  0  0
  142.4100  160.0100  133.8070 H   0  0  0  0  0  0  0  0  0  0  0  0
  146.8956  161.7692  133.6051 H   0  0  0  0  0  0  0  0  0  0  0  0
  149.2017  160.1238  133.2286 H   0  0  0  0  0  0  0  0  0  0  0  0
  149.9318  157.7240  132.9827 H   0  0  0  0  0  0  0  0  0  0  0  0
  148.9241  152.6253  134.8883 H   0  0  0  0  0  0  0  0  0  0  0  0
  149.6542  150.2480  134.6626 H   0  0  0  0  0  0  0  0  0  0  0  0
  150.2498  149.3271  132.4215 H   0  0  0  0  0  0  0  0  0  0  0  0
  151.5053  149.2906  130.7776 H   0  0  0  0  0  0  0  0  0  0  0  0
  150.6506  148.8923  129.2487 H   0  0  0  0  0  0  0  0  0  0  0  0
  151.9704  150.1108  129.2487 H   0  0  0  0  0  0  0  0  0  0  0  0
  149.3850  153.1717  130.6175 H   0  0  0  0  0  0  0  0  0  0  0  0
  145.7858  156.4228  133.3131 H   0  0  0  0  0  0  0  0  0  0  0  0
  1  2  1  0
  2  3  1  0
  3  4  1  0
  4  5  2  0
  4  6  1  0
  6  7  1  0
  7  8  1  0
  8  9  1  0
  8 10  2  0
  7 11  2  0
 11 12  1  0
 12 13  2  0
 13 14  1  0
 14 15  2  0
 15 16  1  0
 16 17  3  0
 17 18  1  0
 18 19  2  0
 19 20  1  0
 20 21  2  0
 21 22  1  0
 22 23  1  0
 23 24  1  0
 22 25  2  0
 15 26  1  0
 26 27  2  0
 27  6  1  0
 27 12  1  0
 25 18  1  0
  1 28  1  0
  1 29  1  0
  1 30  1  0
  2 31  1  0
  2 32  1  0
  9 33  1  0
 11 34  1  0
 13 35  1  0
 14 36  1  0
 19 37  1  0
 20 38  1  0
 21 39  1  0
 24 40  1  0
 24 41  1  0
 24 42  1  0
 25 43  1  0
 26 44  1  0
M  CHG  1   9  -1
M  END
>  <UniqueID>  (27) 
27

>  <SMILES>  (27) 
CCOC(=O)n1c(C([NH-])=O)cc2ccc(C#Cc3cccc(OC)c3)cc21

>  <Energy>  (27) 
75.6369430531624

>  <Genealogy>  (27) 
CCOC(=O)n1c(C([NH-])=O)cc2ccc(C#Cc3cccc(OC)c3)cc21 (protonated)
CCOC(=O)n1c(C([NH-])=O)cc2ccc(C#Cc3cccc(OC)c3)cc21 (3D coordinates assigned)
CCOC(=O)n1c(C([NH-])=O)cc2ccc(C#Cc3cccc(OC)c3)cc21 (optimized conformer: 75.6369430531624 kcal/mol)

>  <smiles>  (27) 
CCOC(=O)n1c(C(N)=O)cc2ccc(C#Cc3cccc(OC)c3)cc21

>  <score_type>  (27) 
oracle

>  <origin>  (27) 
adg

>  <m_score__min__energy>  (27) 
-8.2599999999999998

>  <m_primary>  (27) 
energy

$$$$
28:0
     RDKit          3D

 28 29  0  0  0  0  0  0  0  0999 V2000
  149.2090  161.2600  130.6220 C   0  0  0  0  0  0  0  0  0  0  0  0
  149.9650  160.1320  131.3160 C   0  0  0  0  0  0  0  0  0  0  0  0
  149.0180  159.2500  132.0850 C   0  0  0  0  0  0  0  0  0  0  0  0
  147.8830  159.8120  132.7200 C   0  0  0  0  0  0  0  0  0  0  0  0
  146.9770  158.9960  133.4190 C   0  0  0  0  0  0  0  0  0  0  0  0
  147.2250  157.6270  133.4540 C   0  0  0  0  0  0  0  0  0  0  0  0
  146.5210  156.6150  134.0640 C   0  0  0  0  0  0  0  0  0  0  0  0
  147.2180  155.4480  133.7630 C   0  0  0  0  0  0  0  0  0  0  0  0
  146.7570  154.1050  134.1590 C   0  0  0  0  0  0  0  0  0  0  0  0
  146.7630  153.0210  133.2310 N   0  0  0  0  0  0  0  0  0  0  0  0
  146.2870  153.9280  135.3140 O   0  0  0  0  0  0  0  0  0  0  0  0
  148.3230  155.7270  133.0120 N   0  0  0  0  0  0  0  0  0  0  0  0
  149.3670  154.8310  132.5970 C   0  0  0  0  0  0  0  0  0  0  0  0
  149.0960  153.7080  132.0950 O   0  0  0  0  0  0  0  0  0  0  0  0
  148.3070  157.0650  132.8240 C   0  0  0  0  0  0  0  0  0  0  0  0
  149.2310  157.8550  132.1310 C   0  0  0  0  0  0  0  0  0  0  0  0
  148.7645  161.9233  131.3786 H   0  0  0  0  0  0  0  0  0  0  0  0
  149.9047  161.8352  129.9934 H   0  0  0  0  0  0  0  0  0  0  0  0
  148.4125  160.8351  129.9934 H   0  0  0  0  0  0  0  0  0  0  0  0
  150.4867  159.5279  130.5590 H   0  0  0  0  0  0  0  0  0  0  0  0
  150.6881  160.5714  132.0189 H   0  0  0  0  0  0  0  0  0  0  0  0
  147.7093  160.8968  132.6654 H   0  0  0  0  0  0  0  0  0  0  0  0
  146.0989  159.4261  133.9229 H   0  0  0  0  0  0  0  0  0  0  0  0
  145.6027  156.7079  134.6623 H   0  0  0  0  0  0  0  0  0  0  0  0
  146.4580  152.0690  133.5330 H   0  0  0  0  0  0  0  0  0  0  0  0
  147.0000  153.1760  132.2260 H   0  0  0  0  0  0  0  0  0  0  0  0
  150.4184  155.1303  132.7195 H   0  0  0  0  0  0  0  0  0  0  0  0
  150.1012  157.4007  131.6347 H   0  0  0  0  0  0  0  0  0  0  0  0
  1  2  1  0
  2  3  1  0
  3  4  2  0
  4  5  1  0
  5  6  2  0
  6  7  1  0
  7  8  2  0
  8  9  1  0
  9 10  1  0
  9 11  2  0
  8 12  1  0
 12 13  1  0
 13 14  2  0
 12 15  1  0
 15 16  2  0
 16  3  1  0
 15  6  1  0
  1 17  1  0
  1 18  1  0
  1 19  1  0
  2 20  1  0
  2 21  1  0
  4 22  1  0
  5 23  1  0
  7 24  1  0
 10 25  1  0
 10 26  1  0
 13 27  1  0
 16 28  1  0
M  END
>  <UniqueID>  (28) 
28

>  <SMILES>  (28) 
CCc1ccc2cc(C(N)=O)n(C=O)c2c1

>  <Energy>  (28) 
63.592351765822144

>  <Genealogy>  (28) 
CCc1ccc2cc(C(N)=O)n(C=O)c2c1 (3D coordinates assigned)
CCc1ccc2cc(C(N)=O)n(C=O)c2c1 (optimized conformer: 63.592351765822144 kcal/mol)

>  <smiles>  (28) 
CCc1ccc2cc(C(N)=O)n(C=O)c2c1

>  <score_type>  (28) 
oracle

>  <origin>  (28) 
adg

>  <m_score__min__energy>  (28) 
-6.29

>  <m_primary>  (28) 
energy

$$$$
29:0
     RDKit          3D

 31 32  0  0  0  0  0  0  0  0999 V2000
  145.6480  162.7450  134.5770 C   0  0  0  0  0  0  0  0  0  0  0  0
  144.7520  161.6230  134.0650 C   0  0  0  0  0  0  0  0  0  0  0  0
  145.3530  160.3520  134.3040 O   0  0  0  0  0  0  0  0  0  0  0  0
  145.4320  159.3420  133.3370 C   0  0  0  0  0  0  0  0  0  0  0  0
  144.4100  159.0130  132.6740 O   0  0  0  0  0  0  0  0  0  0  0  0
  146.6760  158.6590  133.1220 N   0  0  0  0  0  0  0  0  0  0  0  0
  147.0590  157.4430  133.6060 C   0  0  0  0  0  0  0  0  0  0  0  0
  146.2050  156.4990  134.3580 C   0  0  0  0  0  0  0  0  0  0  0  0
  144.8050  156.7440  134.4690 N   0  0  0  0  0  0  0  0  0  0  0  0
  146.7030  155.4960  134.9340 O   0  0  0  0  0  0  0  0  0  0  0  0
  148.3680  157.1550  133.2230 C   0  0  0  0  0  0  0  0  0  0  0  0
  148.7750  158.2360  132.4750 C   0  0  0  0  0  0  0  0  0  0  0  0
  149.9920  158.4810  131.8450 C   0  0  0  0  0  0  0  0  0  0  0  0
  150.1450  159.6960  131.1570 C   0  0  0  0  0  0  0  0  0  0  0  0
  149.0930  160.6450  131.1280 C   0  0  0  0  0  0  0  0  0  0  0  0
  149.2590  161.9270  130.3690 C   0  0  0  0  0  0  0  0  0  0  0  0
  147.8670  160.3560  131.7670 C   0  0  0  0  0  0  0  0  0  0  0  0
  147.7360  159.1300  132.4290 C   0  0  0  0  0  0  0  0  0  0  0  0
  145.6461  162.7427  135.6770 H   0  0  0  0  0  0  0  0  0  0  0  0
  146.6740  162.5905  134.2117 H   0  0  0  0  0  0  0  0  0  0  0  0
  145.2704  163.7114  134.2117 H   0  0  0  0  0  0  0  0  0  0  0  0
  143.7834  161.6683  134.5844 H   0  0  0  0  0  0  0  0  0  0  0  0
  144.6091  161.7496  132.9817 H   0  0  0  0  0  0  0  0  0  0  0  0
  144.4240  157.7150  134.4070 H   0  0  0  0  0  0  0  0  0  0  0  0
  148.9516  156.2550  133.4668 H   0  0  0  0  0  0  0  0  0  0  0  0
  150.8090  157.7455  131.8848 H   0  0  0  0  0  0  0  0  0  0  0  0
  151.0894  159.9127  130.6363 H   0  0  0  0  0  0  0  0  0  0  0  0
  149.3670  162.7613  131.0777 H   0  0  0  0  0  0  0  0  0  0  0  0
  150.1566  161.8649  129.7362 H   0  0  0  0  0  0  0  0  0  0  0  0
  148.3752  162.0955  129.7362 H   0  0  0  0  0  0  0  0  0  0  0  0
  147.0361  161.0765  131.7449 H   0  0  0  0  0  0  0  0  0  0  0  0
  1  2  1  0
  2  3  1  0
  3  4  1  0
  4  5  2  0
  4  6  1  0
  6  7  1  0
  7  8  1  0
  8  9  1  0
  8 10  2  0
  7 11  2  0
 11 12  1  0
 12 13  2  0
 13 14  1  0
 14 15  2  0
 15 16  1  0
 15 17  1  0
 17 18  2  0
 18  6  1  0
 18 12  1  0
  1 19  1  0
  1 20  1  0
  1 21  1  0
  2 22  1  0
  2 23  1  0
  9 24  1  0
 11 25  1  0
 13 26  1  0
 14 27  1  0
 16 28  1  0
 16 29  1  0
 16 30  1  0
 17 31  1  0
M  CHG  1   9  -1
M  END
>  <UniqueID>  (29) 
29

>  <SMILES>  (29) 
CCOC(=O)n1c(C([NH-])=O)cc2ccc(C)cc21

>  <Energy>  (29) 
65.2940094990668

>  <Genealogy>  (29) 
CCOC(=O)n1c(C([NH-])=O)cc2ccc(C)cc21 (protonated)
CCOC(=O)n1c(C([NH-])=O)cc2ccc(C)cc21 (3D coordinates assigned)
CCOC(=O)n1c(C([NH-])=O)cc2ccc(C)cc21 (optimized conformer: 65.2940094990668 kcal/mol)

>  <smiles>  (29) 
CCOC(=O)n1c(C(N)=O)cc2ccc(C)cc21

>  <score_type>  (29) 
oracle

>  <origin>  (29) 
adg

>  <m_score__min__energy>  (29) 
-5.8799999999999999

>  <m_primary>  (29) 
energy

$$$$
30:0
     RDKit          3D

 47 49  0  0  0  0  0  0  0  0999 V2000
  138.8320  149.6270  131.2050 C   0  0  0  0  0  0  0  0  0  0  0  0
  139.4180  150.8690  131.8740 C   0  0  0  0  0  0  0  0  0  0  0  0
  140.5970  150.5240  132.6830 N   0  0  0  0  0  0  0  0  0  0  0  0
  140.6260  149.2340  133.3900 C   0  0  0  0  0  0  0  0  0  0  0  0
  141.3920  148.1890  132.5830 C   0  0  0  0  0  0  0  0  0  0  0  0
  141.7090  151.4460  132.7780 C   0  0  0  0  0  0  0  0  0  0  0  0
  141.4840  152.8310  132.8720 C   0  0  0  0  0  0  0  0  0  0  0  0
  142.5550  153.7240  132.9530 C   0  0  0  0  0  0  0  0  0  0  0  0
  143.8790  153.2540  132.9430 C   0  0  0  0  0  0  0  0  0  0  0  0
  145.0190  154.2020  133.0280 C   0  0  0  0  0  0  0  0  0  0  0  0
  146.3520  153.7200  133.0670 C   0  0  0  0  0  0  0  0  0  0  0  0
  147.4360  154.6090  133.1620 C   0  0  0  0  0  0  0  0  0  0  0  0
  147.1620  155.9710  133.2040 C   0  0  0  0  0  0  0  0  0  0  0  0
  148.0170  157.0400  133.3350 C   0  0  0  0  0  0  0  0  0  0  0  0
  147.1990  158.1660  133.3410 C   0  0  0  0  0  0  0  0  0  0  0  0
  147.7190  159.5460  133.4140 C   0  0  0  0  0  0  0  0  0  0  0  0
  146.9900  160.6430  132.8590 N   0  0  0  0  0  0  0  0  0  0  0  0
  148.8500  159.7550  133.9280 O   0  0  0  0  0  0  0  0  0  0  0  0
  145.8890  157.8110  133.2300 N   0  0  0  0  0  0  0  0  0  0  0  0
  144.7420  158.6740  133.3110 C   0  0  0  0  0  0  0  0  0  0  0  0
  143.4970  158.2790  132.7390 N   0  0  0  0  0  0  0  0  0  0  0  0
  144.8330  159.7940  133.8830 O   0  0  0  0  0  0  0  0  0  0  0  0
  145.8820  156.4600  133.1450 C   0  0  0  0  0  0  0  0  0  0  0  0
  144.7820  155.5970  133.0750 C   0  0  0  0  0  0  0  0  0  0  0  0
  144.1070  151.8700  132.8530 C   0  0  0  0  0  0  0  0  0  0  0  0
  143.0350  150.9770  132.7720 C   0  0  0  0  0  0  0  0  0  0  0  0
  138.4975  148.9181  131.9768 H   0  0  0  0  0  0  0  0  0  0  0  0
  137.9760  149.9175  130.5782 H   0  0  0  0  0  0  0  0  0  0  0  0
  139.6005  149.1510  130.5782 H   0  0  0  0  0  0  0  0  0  0  0  0
  139.7127  151.5907  131.0979 H   0  0  0  0  0  0  0  0  0  0  0  0
  138.6543  151.3050  132.5348 H   0  0  0  0  0  0  0  0  0  0  0  0
  141.1179  149.3682  134.3647 H   0  0  0  0  0  0  0  0  0  0  0  0
  139.5921  148.8844  133.5270 H   0  0  0  0  0  0  0  0  0  0  0  0
  141.9001  147.4958  133.2694 H   0  0  0  0  0  0  0  0  0  0  0  0
  140.6895  147.6281  131.9490 H   0  0  0  0  0  0  0  0  0  0  0  0
  142.1383  148.6901  131.9490 H   0  0  0  0  0  0  0  0  0  0  0  0
  140.4533  153.2153  132.8818 H   0  0  0  0  0  0  0  0  0  0  0  0
  142.3602  154.8042  133.0252 H   0  0  0  0  0  0  0  0  0  0  0  0
  146.5397  152.6371  133.0223 H   0  0  0  0  0  0  0  0  0  0  0  0
  148.4708  154.2380  133.2020 H   0  0  0  0  0  0  0  0  0  0  0  0
  149.1135  157.0113  133.4175 H   0  0  0  0  0  0  0  0  0  0  0  0
  146.1400  160.4850  132.2750 H   0  0  0  0  0  0  0  0  0  0  0  0
  147.3550  161.6160  132.9580 H   0  0  0  0  0  0  0  0  0  0  0  0
  142.8460  158.9840  132.3310 H   0  0  0  0  0  0  0  0  0  0  0  0
  143.7563  155.9939  133.0569 H   0  0  0  0  0  0  0  0  0  0  0  0
  145.1379  151.4865  132.8463 H   0  0  0  0  0  0  0  0  0  0  0  0
  143.2302  149.8967  132.7029 H   0  0  0  0  0  0  0  0  0  0  0  0
  1  2  1  0
  2  3  1  0
  3  4  1  0
  4  5  1  0
  3  6  1  0
  6  7  2  0
  7  8  1  0
  8  9  2  0
  9 10  1  0
 10 11  2  0
 11 12  1  0
 12 13  2  0
 13 14  1  0
 14 15  2  0
 15 16  1  0
 16 17  1  0
 16 18  2  0
 15 19  1  0
 19 20  1  0
 20 21  1  0
 20 22  2  0
 19 23  1  0
 23 24  2  0
  9 25  1  0
 25 26  2  0
 26  6  1  0
 24 10  1  0
 23 13  1  0
  1 27  1  0
  1 28  1  0
  1 29  1  0
  2 30  1  0
  2 31  1  0
  4 32  1  0
  4 33  1  0
  5 34  1  0
  5 35  1  0
  5 36  1  0
  7 37  1  0
  8 38  1  0
 11 39  1  0
 12 40  1  0
 14 41  1  0
 17 42  1  0
 17 43  1  0
 21 44  1  0
 24 45  1  0
 25 46  1  0
 26 47  1  0
M  CHG  1  21  -1
M  END
>  <UniqueID>  (30) 
30

>  <SMILES>  (30) 
CCN(CC)c1ccc(-c2ccc3cc(C(N)=O)n(C([NH-])=O)c3c2)cc1

>  <Energy>  (30) 
91.45420300308905

>  <Genealogy>  (30) 
CCN(CC)c1ccc(-c2ccc3cc(C(N)=O)n(C([NH-])=O)c3c2)cc1 (protonated)
CCN(CC)c1ccc(-c2ccc3cc(C(N)=O)n(C([NH-])=O)c3c2)cc1 (3D coordinates assigned)
CCN(CC)c1ccc(-c2ccc3cc(C(N)=O)n(C([NH-])=O)c3c2)cc1 (optimized conformer: 91.45420300308905 kcal/mol)

>  <smiles>  (30) 
CCN(CC)c1ccc(-c2ccc3cc(C(N)=O)n(C(N)=O)c3c2)cc1

>  <score_type>  (30) 
oracle

>  <origin>  (30) 
adg

>  <m_score__min__energy>  (30) 
-8.4299999999999997

>  <m_primary>  (30) 
energy

$$$$
31:0
     RDKit          3D

 36 37  0  0  0  0  0  0  0  0999 V2000
  147.8890  153.9230  132.9650 C   0  0  0  0  0  0  0  0  0  0  0  0
  148.1200  154.7040  134.1310 O   0  0  0  0  0  0  0  0  0  0  0  0
  147.1050  155.0200  135.0390 C   0  0  0  0  0  0  0  0  0  0  0  0
  147.1230  154.5450  136.2070 O   0  0  0  0  0  0  0  0  0  0  0  0
  146.0490  155.9120  134.6450 N   0  0  0  0  0  0  0  0  0  0  0  0
  144.7080  155.6670  134.6490 C   0  0  0  0  0  0  0  0  0  0  0  0
  144.0440  154.4830  135.2320 C   0  0  0  0  0  0  0  0  0  0  0  0
  144.4040  154.0030  136.5240 N   0  0  0  0  0  0  0  0  0  0  0  0
  143.1110  153.9180  134.6010 O   0  0  0  0  0  0  0  0  0  0  0  0
  144.0130  156.7380  134.0920 C   0  0  0  0  0  0  0  0  0  0  0  0
  144.9760  157.6600  133.7510 C   0  0  0  0  0  0  0  0  0  0  0  0
  144.8480  158.9060  133.1430 C   0  0  0  0  0  0  0  0  0  0  0  0
  146.0200  159.6320  132.8750 C   0  0  0  0  0  0  0  0  0  0  0  0
  147.2900  159.1040  133.2190 C   0  0  0  0  0  0  0  0  0  0  0  0
  148.5410  159.8690  132.8810 C   0  0  0  0  0  0  0  0  0  0  0  0
  149.5440  158.9650  132.1510 C   0  0  0  0  0  0  0  0  0  0  0  0
  149.8230  159.4430  130.7200 C   0  0  0  0  0  0  0  0  0  0  0  0
  148.9910  160.6350  130.3610 C   0  0  0  0  0  0  0  0  0  0  0  0
  147.7940  160.4880  129.9990 O   0  0  0  0  0  0  0  0  0  0  0  0
  149.5480  161.9080  130.3920 O   0  0  0  0  0  0  0  0  0  0  0  0
  147.3820  157.8310  133.8230 C   0  0  0  0  0  0  0  0  0  0  0  0
  146.1970  157.1380  134.0960 C   0  0  0  0  0  0  0  0  0  0  0  0
  147.5883  152.9064  133.2583 H   0  0  0  0  0  0  0  0  0  0  0  0
  147.0888  154.3840  132.3675 H   0  0  0  0  0  0  0  0  0  0  0  0
  148.8113  153.8746  132.3675 H   0  0  0  0  0  0  0  0  0  0  0  0
  145.1370  154.4850  137.0910 H   0  0  0  0  0  0  0  0  0  0  0  0
  142.9254  156.8277  133.9540 H   0  0  0  0  0  0  0  0  0  0  0  0
  143.8589  159.3095  132.8805 H   0  0  0  0  0  0  0  0  0  0  0  0
  145.9520  160.6189  132.3940 H   0  0  0  0  0  0  0  0  0  0  0  0
  148.2814  160.7189  132.2327 H   0  0  0  0  0  0  0  0  0  0  0  0
  149.0002  160.2292  133.8134 H   0  0  0  0  0  0  0  0  0  0  0  0
  150.4896  158.9594  132.7130 H   0  0  0  0  0  0  0  0  0  0  0  0
  149.1073  157.9572  132.0905 H   0  0  0  0  0  0  0  0  0  0  0  0
  150.8862  159.7120  130.6352 H   0  0  0  0  0  0  0  0  0  0  0  0
  149.5663  158.6258  130.0299 H   0  0  0  0  0  0  0  0  0  0  0  0
  148.3605  157.3949  134.0727 H   0  0  0  0  0  0  0  0  0  0  0  0
  1  2  1  0
  2  3  1  0
  3  4  2  0
  3  5  1  0
  5  6  1  0
  6  7  1  0
  7  8  1  0
  7  9  2  0
  6 10  2  0
 10 11  1  0
 11 12  2  0
 12 13  1  0
 13 14  2  0
 14 15  1  0
 15 16  1  0
 16 17  1  0
 17 18  1  0
 18 19  2  0
 18 20  1  0
 14 21  1  0
 21 22  2  0
 22  5  1  0
 22 11  1  0
  1 23  1  0
  1 24  1  0
  1 25  1  0
  8 26  1  0
 10 27  1  0
 12 28  1  0
 13 29  1  0
 15 30  1  0
 15 31  1  0
 16 32  1  0
 16 33  1  0
 17 34  1  0
 17 35  1  0
 21 36  1  0
M  CHG  2   8  -1  20  -1
M  END
>  <UniqueID>  (31) 
31

>  <SMILES>  (31) 
COC(=O)n1c(C([NH-])=O)cc2ccc(CCCC(=O)[O-])cc21

>  <Energy>  (31) 
67.98878898355696

>  <Genealogy>  (31) 
COC(=O)n1c(C([NH-])=O)cc2ccc(CCCC(=O)[O-])cc21 (protonated)
COC(=O)n1c(C([NH-])=O)cc2ccc(CCCC(=O)[O-])cc21 (3D coordinates assigned)
COC(=O)n1c(C([NH-])=O)cc2ccc(CCCC(=O)[O-])cc21 (optimized conformer: 67.98878898355696 kcal/mol)

>  <smiles>  (31) 
COC(=O)n1c(C(N)=O)cc2ccc(CCCC(=O)O)cc21

>  <score_type>  (31) 
oracle

>  <origin>  (31) 
adg

>  <m_score__min__energy>  (31) 
-6.5599999999999996

>  <m_primary>  (31) 
energy

$$$$
32:0
     RDKit          3D

 51 53  0  0  0  0  0  0  0  0999 V2000
  143.5280  153.0710  133.7460 C   0  0  0  0  0  0  0  0  0  0  0  0
  143.9800  154.5410  133.6510 C   0  0  0  0  0  0  0  0  0  0  0  0
  145.2990  154.7030  134.4200 C   0  0  0  0  0  0  0  0  0  0  0  0
  144.2020  154.9490  132.1830 C   0  0  0  0  0  0  0  0  0  0  0  0
  143.0190  155.4030  134.2750 O   0  0  0  0  0  0  0  0  0  0  0  0
  141.9590  156.0680  133.6400 C   0  0  0  0  0  0  0  0  0  0  0  0
  141.0720  155.4260  133.0170 O   0  0  0  0  0  0  0  0  0  0  0  0
  141.8840  157.5010  133.7090 N   0  0  0  0  0  0  0  0  0  0  0  0
  140.7910  158.2630  133.9920 C   0  0  0  0  0  0  0  0  0  0  0  0
  139.4060  157.7710  134.1370 C   0  0  0  0  0  0  0  0  0  0  0  0
  138.8530  156.8320  133.2130 N   0  0  0  0  0  0  0  0  0  0  0  0
  138.6820  158.2270  135.0620 O   0  0  0  0  0  0  0  0  0  0  0  0
  141.1410  159.6080  134.0810 C   0  0  0  0  0  0  0  0  0  0  0  0
  142.4940  159.6470  133.8270 C   0  0  0  0  0  0  0  0  0  0  0  0
  143.3650  160.7250  133.8070 C   0  0  0  0  0  0  0  0  0  0  0  0
  144.7240  160.4750  133.5570 C   0  0  0  0  0  0  0  0  0  0  0  0
  145.2110  159.1500  133.3350 C   0  0  0  0  0  0  0  0  0  0  0  0
  146.6320  158.8940  133.0820 N   0  0  0  0  0  0  0  0  0  0  0  0
  147.5180  160.0520  132.8050 C   0  0  0  0  0  0  0  0  0  0  0  0
  149.0080  159.7250  132.6750 C   0  0  0  0  0  0  0  0  0  0  0  0
  149.2620  158.3990  131.9700 C   0  0  0  0  0  0  0  0  0  0  0  0
  148.8560  158.4210  130.6220 O   0  0  0  0  0  0  0  0  0  0  0  0
  148.5930  157.2840  132.7640 C   0  0  0  0  0  0  0  0  0  0  0  0
  147.0820  157.4870  132.9400 C   0  0  0  0  0  0  0  0  0  0  0  0
  144.2700  158.0810  133.3850 C   0  0  0  0  0  0  0  0  0  0  0  0
  142.9180  158.3660  133.6090 C   0  0  0  0  0  0  0  0  0  0  0  0
  143.4392  152.7823  134.8037 H   0  0  0  0  0  0  0  0  0  0  0  0
  142.5526  152.9546  133.2510 H   0  0  0  0  0  0  0  0  0  0  0  0
  144.2695  152.4267  133.2510 H   0  0  0  0  0  0  0  0  0  0  0  0
  145.0984  154.6784  135.5013 H   0  0  0  0  0  0  0  0  0  0  0  0
  145.9813  153.8819  134.1548 H   0  0  0  0  0  0  0  0  0  0  0  0
  145.7623  155.6648  134.1548 H   0  0  0  0  0  0  0  0  0  0  0  0
  144.7274  155.9147  132.1463 H   0  0  0  0  0  0  0  0  0  0  0  0
  144.8075  154.1826  131.6770 H   0  0  0  0  0  0  0  0  0  0  0  0
  143.2297  155.0412  131.6770 H   0  0  0  0  0  0  0  0  0  0  0  0
  137.8870  156.4630  133.3570 H   0  0  0  0  0  0  0  0  0  0  0  0
  139.3620  156.5700  132.3400 H   0  0  0  0  0  0  0  0  0  0  0  0
  140.4788  160.4571  134.3059 H   0  0  0  0  0  0  0  0  0  0  0  0
  143.0016  161.7484  133.9822 H   0  0  0  0  0  0  0  0  0  0  0  0
  145.4298  161.3183  133.5315 H   0  0  0  0  0  0  0  0  0  0  0  0
  147.1886  160.5130  131.8621 H   0  0  0  0  0  0  0  0  0  0  0  0
  147.4293  160.7159  133.6775 H   0  0  0  0  0  0  0  0  0  0  0  0
  149.4951  160.5271  132.1011 H   0  0  0  0  0  0  0  0  0  0  0  0
  149.4191  159.6434  133.6920 H   0  0  0  0  0  0  0  0  0  0  0  0
  150.3455  158.2119  131.9377 H   0  0  0  0  0  0  0  0  0  0  0  0
  148.5560  157.5120  130.3660 H   0  0  0  0  0  0  0  0  0  0  0  0
  148.7585  156.3325  132.2374 H   0  0  0  0  0  0  0  0  0  0  0  0
  149.0412  157.2850  133.7685 H   0  0  0  0  0  0  0  0  0  0  0  0
  146.5792  157.0589  132.0603 H   0  0  0  0  0  0  0  0  0  0  0  0
  146.8224  156.9930  133.8879 H   0  0  0  0  0  0  0  0  0  0  0  0
  144.6030  157.0415  133.2488 H   0  0  0  0  0  0  0  0  0  0  0  0
  1  2  1  0
  2  3  1  0
  2  4  1  0
  2  5  1  0
  5  6  1  0
  6  7  2  0
  6  8  1  0
  8  9  1  0
  9 10  1  0
 10 11  1  0
 10 12  2  0
  9 13  2  0
 13 14  1  0
 14 15  2  0
 15 16  1  0
 16 17  2  0
 17 18  1  0
 18 19  1  0
 19 20  1  0
 20 21  1  0
 21 22  1  0
 21 23  1  0
 23 24  1  0
 17 25  1  0
 25 26  2  0
 26  8  1  0
 26 14  1  0
 24 18  1  0
  1 27  1  0
  1 28  1  0
  1 29  1  0
  3 30  1  0
  3 31  1  0
  3 32  1  0
  4 33  1  0
  4 34  1  0
  4 35  1  0
 11 36  1  0
 11 37  1  0
 13 38  1  0
 15 39  1  0
 16 40  1  0
 19 41  1  0
 19 42  1  0
 20 43  1  0
 20 44  1  0
 21 45  1  0
 22 46  1  0
 23 47  1  0
 23 48  1  0
 24 49  1  0
 24 50  1  0
 25 51  1  0
M  END
>  <UniqueID>  (32) 
32

>  <SMILES>  (32) 
CC(C)(C)OC(=O)n1c(C(N)=O)cc2ccc(N3CCC(O)CC3)cc21

>  <Energy>  (32) 
94.35607360231901

>  <Genealogy>  (32) 
CC(C)(C)OC(=O)n1c(C(N)=O)cc2ccc(N3CCC(O)CC3)cc21 (3D coordinates assigned)
CC(C)(C)OC(=O)n1c(C(N)=O)cc2ccc(N3CCC(O)CC3)cc21 (nonaromatic ring conformer: 94.35607360231901 kcal/mol)

>  <smiles>  (32) 
CC(C)(C)OC(=O)n1c(C(N)=O)cc2ccc(N3CCC(O)CC3)cc21

>  <score_type>  (32) 
oracle

>  <origin>  (32) 
adg

>  <m_score__min__energy>  (32) 
-8.3399999999999999

>  <m_primary>  (32) 
energy

$$$$
33:0
     RDKit          3D

 47 49  0  0  0  0  0  0  0  0999 V2000
  148.8940  159.0120  129.9420 C   0  0  0  0  0  0  0  0  0  0  0  0
  148.7480  159.8050  131.2510 C   0  0  0  0  0  0  0  0  0  0  0  0
  149.2390  161.2460  131.0200 C   0  0  0  0  0  0  0  0  0  0  0  0
  149.5860  159.1150  132.3450 C   0  0  0  0  0  0  0  0  0  0  0  0
  147.3550  159.7970  131.5970 O   0  0  0  0  0  0  0  0  0  0  0  0
  146.8160  159.9610  132.8830 C   0  0  0  0  0  0  0  0  0  0  0  0
  147.3130  160.7880  133.6920 O   0  0  0  0  0  0  0  0  0  0  0  0
  145.6710  159.1850  133.2700 N   0  0  0  0  0  0  0  0  0  0  0  0
  144.4730  159.6440  133.7300 C   0  0  0  0  0  0  0  0  0  0  0  0
  144.0400  161.0570  133.7710 C   0  0  0  0  0  0  0  0  0  0  0  0
  144.9520  162.0930  134.1280 N   0  0  0  0  0  0  0  0  0  0  0  0
  142.8630  161.3590  133.4400 O   0  0  0  0  0  0  0  0  0  0  0  0
  143.6530  158.5810  134.1000 C   0  0  0  0  0  0  0  0  0  0  0  0
  144.3880  157.4470  133.8420 C   0  0  0  0  0  0  0  0  0  0  0  0
  144.0670  156.1120  134.0380 C   0  0  0  0  0  0  0  0  0  0  0  0
  145.0320  155.1440  133.7170 C   0  0  0  0  0  0  0  0  0  0  0  0
  146.3150  155.5110  133.2090 C   0  0  0  0  0  0  0  0  0  0  0  0
  147.3180  154.4970  132.8890 N   0  0  0  0  0  0  0  0  0  0  0  0
  146.9550  153.0670  132.9810 C   0  0  0  0  0  0  0  0  0  0  0  0
  148.0740  152.1210  132.5410 C   0  0  0  0  0  0  0  0  0  0  0  0
  149.3300  152.5950  132.9640 O   0  0  0  0  0  0  0  0  0  0  0  0
  149.6340  153.7580  132.2300 C   0  0  0  0  0  0  0  0  0  0  0  0
  148.7110  154.9140  132.6240 C   0  0  0  0  0  0  0  0  0  0  0  0
  146.5920  156.8980  133.0340 C   0  0  0  0  0  0  0  0  0  0  0  0
  145.6020  157.8360  133.3430 C   0  0  0  0  0  0  0  0  0  0  0  0
  149.0887  157.9545  130.1737 H   0  0  0  0  0  0  0  0  0  0  0  0
  147.9656  159.0945  129.3578 H   0  0  0  0  0  0  0  0  0  0  0  0
  149.7322  159.4197  129.3578 H   0  0  0  0  0  0  0  0  0  0  0  0
  149.4061  161.7364  131.9904 H   0  0  0  0  0  0  0  0  0  0  0  0
  150.1810  161.2258  130.4523 H   0  0  0  0  0  0  0  0  0  0  0  0
  148.4807  161.8052  130.4523 H   0  0  0  0  0  0  0  0  0  0  0  0
  149.2170  159.4188  133.3358 H   0  0  0  0  0  0  0  0  0  0  0  0
  149.4986  158.0235  132.2400 H   0  0  0  0  0  0  0  0  0  0  0  0
  150.6404  159.4102  132.2400 H   0  0  0  0  0  0  0  0  0  0  0  0
  145.8130  162.2670  133.5660 H   0  0  0  0  0  0  0  0  0  0  0  0
  142.6342  158.6363  134.5112 H   0  0  0  0  0  0  0  0  0  0  0  0
  143.0833  155.8196  134.4341 H   0  0  0  0  0  0  0  0  0  0  0  0
  144.7944  154.0795  133.8600 H   0  0  0  0  0  0  0  0  0  0  0  0
  146.6987  152.8399  134.0264 H   0  0  0  0  0  0  0  0  0  0  0  0
  146.1084  152.9047  132.2977 H   0  0  0  0  0  0  0  0  0  0  0  0
  147.8982  151.1274  132.9790 H   0  0  0  0  0  0  0  0  0  0  0  0
  148.0727  152.0633  131.4425 H   0  0  0  0  0  0  0  0  0  0  0  0
  150.6766  154.0465  132.4292 H   0  0  0  0  0  0  0  0  0  0  0  0
  149.4902  153.5443  131.1606 H   0  0  0  0  0  0  0  0  0  0  0  0
  149.1120  155.3842  133.5340 H   0  0  0  0  0  0  0  0  0  0  0  0
  148.6825  155.6082  131.7712 H   0  0  0  0  0  0  0  0  0  0  0  0
  147.5729  157.2268  132.6603 H   0  0  0  0  0  0  0  0  0  0  0  0
  1  2  1  0
  2  3  1  0
  2  4  1  0
  2  5  1  0
  5  6  1  0
  6  7  2  0
  6  8  1  0
  8  9  1  0
  9 10  1  0
 10 11  1  0
 10 12  2  0
  9 13  2  0
 13 14  1  0
 14 15  2  0
 15 16  1  0
 16 17  2  0
 17 18  1  0
 18 19  1  0
 19 20  1  0
 20 21  1  0
 21 22  1  0
 22 23  1  0
 17 24  1  0
 24 25  2  0
 25  8  1  0
 25 14  1  0
 23 18  1  0
  1 26  1  0
  1 27  1  0
  1 28  1  0
  3 29  1  0
  3 30  1  0
  3 31  1  0
  4 32  1  0
  4 33  1  0
  4 34  1  0
 11 35  1  0
 13 36  1  0
 15 37  1  0
 16 38  1  0
 19 39  1  0
 19 40  1  0
 20 41  1  0
 20 42  1  0
 22 43  1  0
 22 44  1  0
 23 45  1  0
 23 46  1  0
 24 47  1  0
M  CHG  1  11  -1
M  END
>  <UniqueID>  (33) 
33

>  <SMILES>  (33) 
CC(C)(C)OC(=O)n1c(C([NH-])=O)cc2ccc(N3CCOCC3)cc21

>  <Energy>  (33) 
89.97946211891625

>  <Genealogy>  (33) 
CC(C)(C)OC(=O)n1c(C([NH-])=O)cc2ccc(N3CCOCC3)cc21 (protonated)
CC(C)(C)OC(=O)n1c(C([NH-])=O)cc2ccc(N3CCOCC3)cc21 (3D coordinates assigned)
CC(C)(C)OC(=O)n1c(C([NH-])=O)cc2ccc(N3CCOCC3)cc21 (nonaromatic ring conformer: 89.97946211891625 kcal/mol)

>  <smiles>  (33) 
CC(C)(C)OC(=O)n1c(C(N)=O)cc2ccc(N3CCOCC3)cc21

>  <score_type>  (33) 
oracle

>  <origin>  (33) 
adg

>  <m_score__min__energy>  (33) 
-7.3700000000000001

>  <m_primary>  (33) 
energy

$$$$
34:0
     RDKit          3D

 57 59  0  0  0  0  0  0  0  0999 V2000
  140.7960  152.7730  141.0080 C   0  0  0  0  0  0  0  0  0  0  0  0
  140.6590  153.4920  139.6550 C   0  0  0  0  0  0  0  0  0  0  0  0
  139.4820  154.4810  139.7240 C   0  0  0  0  0  0  0  0  0  0  0  0
  140.3900  152.4510  138.5550 C   0  0  0  0  0  0  0  0  0  0  0  0
  142.2660  154.4320  139.2500 Si  0  0  0  0  0  4  0  0  0  0  0  0
  143.2380  154.7280  140.8200 C   0  0  0  0  0  0  0  0  0  0  0  0
  143.3840  153.4160  138.1320 C   0  0  0  0  0  0  0  0  0  0  0  0
  141.8860  155.9990  138.5950 O   0  0  0  0  0  0  0  0  0  0  0  0
  141.3560  155.9310  137.2860 C   0  0  1  0  0  0  0  0  0  0  0  0
  140.5530  157.1910  137.0030 C   0  0  0  0  0  0  0  0  0  0  0  0
  140.6260  157.3950  135.4970 C   0  0  0  0  0  0  0  0  0  0  0  0
  141.9110  156.6960  135.0280 C   0  0  1  0  0  0  0  0  0  0  0  0
  142.9220  157.6640  134.4430 C   0  0  0  0  0  0  0  0  0  0  0  0
  142.5060  158.9560  134.0300 C   0  0  0  0  0  0  0  0  0  0  0  0
  143.4200  159.8590  133.4640 C   0  0  0  0  0  0  0  0  0  0  0  0
  144.7430  159.4500  133.3270 C   0  0  0  0  0  0  0  0  0  0  0  0
  145.8180  160.1100  132.7790 C   0  0  0  0  0  0  0  0  0  0  0  0
  146.8860  159.2250  132.8870 C   0  0  0  0  0  0  0  0  0  0  0  0
  148.2620  159.5580  132.4670 C   0  0  0  0  0  0  0  0  0  0  0  0
  149.3840  158.8270  132.9630 N   0  0  0  0  0  0  0  0  0  0  0  0
  148.4540  160.5400  131.7020 O   0  0  0  0  0  0  0  0  0  0  0  0
  146.4880  158.0550  133.4650 N   0  0  0  0  0  0  0  0  0  0  0  0
  147.2640  156.8590  133.6430 C   0  0  0  0  0  0  0  0  0  0  0  0
  147.2410  155.9500  132.7720 O   0  0  0  0  0  0  0  0  0  0  0  0
  148.0480  156.6900  134.7780 O   0  0  0  0  0  0  0  0  0  0  0  0
  145.1710  158.2120  133.7320 C   0  0  0  0  0  0  0  0  0  0  0  0
  144.2760  157.2850  134.2790 C   0  0  0  0  0  0  0  0  0  0  0  0
  142.4690  155.9390  136.2420 C   0  0  0  0  0  0  0  0  0  0  0  0
  140.6579  153.4977  141.8240 H   0  0  0  0  0  0  0  0  0  0  0  0
  140.0318  151.9855  141.0838 H   0  0  0  0  0  0  0  0  0  0  0  0
  141.7963  152.3217  141.0838 H   0  0  0  0  0  0  0  0  0  0  0  0
  139.2372  154.6867  140.7765 H   0  0  0  0  0  0  0  0  0  0  0  0
  139.7615  155.4192  139.2224 H   0  0  0  0  0  0  0  0  0  0  0  0
  138.6060  154.0440  139.2224 H   0  0  0  0  0  0  0  0  0  0  0  0
  140.1403  151.4848  139.0177 H   0  0  0  0  0  0  0  0  0  0  0  0
  139.5491  152.7866  137.9303 H   0  0  0  0  0  0  0  0  0  0  0  0
  141.2882  152.3372  137.9303 H   0  0  0  0  0  0  0  0  0  0  0  0
  142.5957  154.5324  141.6913 H   0  0  0  0  0  0  0  0  0  0  0  0
  144.1067  154.0537  140.8461 H   0  0  0  0  0  0  0  0  0  0  0  0
  143.5834  155.7720  140.8461 H   0  0  0  0  0  0  0  0  0  0  0  0
  144.0587  152.8029  138.7475 H   0  0  0  0  0  0  0  0  0  0  0  0
  142.7698  152.7606  137.4971 H   0  0  0  0  0  0  0  0  0  0  0  0
  143.9779  154.0899  137.4971 H   0  0  0  0  0  0  0  0  0  0  0  0
  140.7552  155.0114  137.2280 H   0  0  0  0  0  0  0  0  0  0  0  0
  139.5085  157.0601  137.3223 H   0  0  0  0  0  0  0  0  0  0  0  0
  140.9511  158.0581  137.5503 H   0  0  0  0  0  0  0  0  0  0  0  0
  139.7484  156.9459  135.0090 H   0  0  0  0  0  0  0  0  0  0  0  0
  140.6359  158.4642  135.2388 H   0  0  0  0  0  0  0  0  0  0  0  0
  141.6871  156.0009  134.2054 H   0  0  0  0  0  0  0  0  0  0  0  0
  141.4545  159.2539  134.1548 H   0  0  0  0  0  0  0  0  0  0  0  0
  143.0999  160.8598  133.1386 H   0  0  0  0  0  0  0  0  0  0  0  0
  145.8306  161.1217  132.3474 H   0  0  0  0  0  0  0  0  0  0  0  0
  149.2740  158.1220  133.7250 H   0  0  0  0  0  0  0  0  0  0  0  0
  150.3460  159.0520  132.6260 H   0  0  0  0  0  0  0  0  0  0  0  0
  144.6179  156.2824  134.5754 H   0  0  0  0  0  0  0  0  0  0  0  0
  142.7352  154.9095  135.9603 H   0  0  0  0  0  0  0  0  0  0  0  0
  143.3796  156.4187  136.6301 H   0  0  0  0  0  0  0  0  0  0  0  0
  1  2  1  0
  2  3  1  0
  2  4  1  0
  2  5  1  0
  5  6  1  0
  5  7  1  0
  5  8  1  0
  8  9  1  0
  9 10  1  0
 10 11  1  0
 11 12  1  0
 12 13  1  0
 13 14  2  0
 14 15  1  0
 15 16  2  0
 16 17  1  0
 17 18  2  0
 18 19  1  0
 19 20  1  0
 19 21  2  0
 18 22  1  0
 22 23  1  0
 23 24  2  0
 23 25  1  0
 22 26  1  0
 26 27  2  0
 12 28  1  0
 28  9  1  0
 27 13  1  0
 26 16  1  0
  1 29  1  0
  1 30  1  0
  1 31  1  0
  3 32  1  0
  3 33  1  0
  3 34  1  0
  4 35  1  0
  4 36  1  0
  4 37  1  0
  6 38  1  0
  6 39  1  0
  6 40  1  0
  7 41  1  0
  7 42  1  0
  7 43  1  0
  9 44  1  1
 10 45  1  0
 10 46  1  0
 11 47  1  0
 11 48  1  0
 12 49  1  6
 14 50  1  0
 15 51  1  0
 17 52  1  0
 20 53  1  0
 20 54  1  0
 27 55  1  0
 28 56  1  0
 28 57  1  0
M  CHG  1  25  -1
M  END
>  <UniqueID>  (34) 
34

>  <SMILES>  (34) 
CC(C)(C)[Si](C)(C)O[C@H]1CC[C@@H](c2ccc3cc(C(N)=O)n(C(=O)[O-])c3c2)C1

>  <Energy>  (34) 
84.06411059480688

>  <Genealogy>  (34) 
CC(C)(C)[Si](C)(C)O[C@H]1CC[C@@H](c2ccc3cc(C(N)=O)n(C(=O)[O-])c3c2)C1 (protonated)
CC(C)(C)[Si](C)(C)O[C@H]1CC[C@@H](c2ccc3cc(C(N)=O)n(C(=O)[O-])c3c2)C1 (3D coordinates assigned)
CC(C)(C)[Si](C)(C)O[C@H]1CC[C@@H](c2ccc3cc(C(N)=O)n(C(=O)[O-])c3c2)C1 (nonaromatic ring conformer: 84.06411059480688 kcal/mol)

>  <smiles>  (34) 
CC(C)(C)[Si](C)(C)O[C@H]1CC[C@@H](c2ccc3cc(C(N)=O)n(C(=O)O)c3c2)C1

>  <score_type>  (34) 
oracle

>  <origin>  (34) 
adg

>  <m_score__min__energy>  (34) 
-8.6699999999999999

>  <m_primary>  (34) 
energy

$$$$
35:0
     RDKit          3D

 46 48  0  0  0  0  0  0  0  0999 V2000
  140.2820  158.5050  136.2360 C   0  0  0  0  0  0  0  0  0  0  0  0
  141.5170  159.3510  135.9500 C   0  0  0  0  0  0  0  0  0  0  0  0
  142.5400  158.5600  135.3490 O   0  0  0  0  0  0  0  0  0  0  0  0
  142.9840  158.7410  134.0340 C   0  0  0  0  0  0  0  0  0  0  0  0
  142.1880  158.5910  133.0670 O   0  0  0  0  0  0  0  0  0  0  0  0
  144.3440  159.1310  133.7900 N   0  0  0  0  0  0  0  0  0  0  0  0
  144.8550  160.3940  133.7120 C   0  0  0  0  0  0  0  0  0  0  0  0
  144.0750  161.6490  133.7330 C   0  0  0  0  0  0  0  0  0  0  0  0
  142.6510  161.6010  133.6790 N   0  0  0  0  0  0  0  0  0  0  0  0
  144.6500  162.7650  133.8360 O   0  0  0  0  0  0  0  0  0  0  0  0
  146.2340  160.3510  133.5230 C   0  0  0  0  0  0  0  0  0  0  0  0
  146.5560  159.0140  133.4770 C   0  0  0  0  0  0  0  0  0  0  0  0
  147.7920  158.3950  133.3230 C   0  0  0  0  0  0  0  0  0  0  0  0
  147.8340  156.9910  133.3430 C   0  0  0  0  0  0  0  0  0  0  0  0
  146.6480  156.2330  133.5190 C   0  0  0  0  0  0  0  0  0  0  0  0
  146.7040  154.7940  133.5620 N   0  0  0  0  0  0  0  0  0  0  0  0
  145.6850  153.9940  132.8720 C   0  0  0  0  0  0  0  0  0  0  0  0
  146.1930  152.5640  132.6260 C   0  0  0  0  0  0  0  0  0  0  0  0
  147.6360  152.5860  132.3100 N   0  0  0  0  0  0  0  0  0  0  0  0
  148.0810  151.2570  131.8550 C   0  0  0  0  0  0  0  0  0  0  0  0
  148.4490  153.0350  133.4690 C   0  0  0  0  0  0  0  0  0  0  0  0
  147.7420  154.1010  134.3340 C   0  0  0  0  0  0  0  0  0  0  0  0
  145.4130  156.9000  133.6830 C   0  0  0  0  0  0  0  0  0  0  0  0
  145.3980  158.2990  133.6390 C   0  0  0  0  0  0  0  0  0  0  0  0
  140.1454  158.4115  137.3235 H   0  0  0  0  0  0  0  0  0  0  0  0
  139.3970  158.9874  135.7955 H   0  0  0  0  0  0  0  0  0  0  0  0
  140.4122  157.5055  135.7955 H   0  0  0  0  0  0  0  0  0  0  0  0
  141.2444  160.1689  135.2669 H   0  0  0  0  0  0  0  0  0  0  0  0
  141.8954  159.7577  136.8994 H   0  0  0  0  0  0  0  0  0  0  0  0
  142.1440  160.6880  133.6850 H   0  0  0  0  0  0  0  0  0  0  0  0
  146.9207  161.2053  133.4301 H   0  0  0  0  0  0  0  0  0  0  0  0
  148.7093  158.9872  133.1895 H   0  0  0  0  0  0  0  0  0  0  0  0
  148.7971  156.4738  133.2209 H   0  0  0  0  0  0  0  0  0  0  0  0
  144.7770  153.9533  133.4916 H   0  0  0  0  0  0  0  0  0  0  0  0
  145.4637  154.4629  131.9019 H   0  0  0  0  0  0  0  0  0  0  0  0
  146.0274  151.9585  133.5293 H   0  0  0  0  0  0  0  0  0  0  0  0
  145.6450  152.1278  131.7778 H   0  0  0  0  0  0  0  0  0  0  0  0
  147.7920  153.2540  131.5150 H   0  0  0  0  0  0  0  0  0  0  0  0
  148.2934  150.6226  132.7282 H   0  0  0  0  0  0  0  0  0  0  0  0
  147.2892  150.7930  131.2486 H   0  0  0  0  0  0  0  0  0  0  0  0
  148.9926  151.3633  131.2486 H   0  0  0  0  0  0  0  0  0  0  0  0
  148.6684  152.1618  134.1010 H   0  0  0  0  0  0  0  0  0  0  0  0
  149.3635  153.4955  133.0669 H   0  0  0  0  0  0  0  0  0  0  0  0
  147.2784  153.6109  135.2029 H   0  0  0  0  0  0  0  0  0  0  0  0
  148.4881  154.8391  134.6636 H   0  0  0  0  0  0  0  0  0  0  0  0
  144.4842  156.3324  133.8417 H   0  0  0  0  0  0  0  0  0  0  0  0
  1  2  1  0
  2  3  1  0
  3  4  1  0
  4  5  2  0
  4  6  1  0
  6  7  1  0
  7  8  1  0
  8  9  1  0
  8 10  2  0
  7 11  2  0
 11 12  1  0
 12 13  2  0
 13 14  1  0
 14 15  2  0
 15 16  1  0
 16 17  1  0
 17 18  1  0
 18 19  1  0
 19 20  1  0
 19 21  1  0
 21 22  1  0
 15 23  1  0
 23 24  2  0
 24  6  1  0
 24 12  1  0
 22 16  1  0
  1 25  1  0
  1 26  1  0
  1 27  1  0
  2 28  1  0
  2 29  1  0
  9 30  1  0
 11 31  1  0
 13 32  1  0
 14 33  1  0
 17 34  1  0
 17 35  1  0
 18 36  1  0
 18 37  1  0
 19 38  1  0
 20 39  1  0
 20 40  1  0
 20 41  1  0
 21 42  1  0
 21 43  1  0
 22 44  1  0
 22 45  1  0
 23 46  1  0
M  CHG  2   9  -1  19   1
M  END
>  <UniqueID>  (35) 
35

>  <SMILES>  (35) 
CCOC(=O)n1c(C([NH-])=O)cc2ccc(N3CC[NH+](C)CC3)cc21

>  <Energy>  (35) 
91.0361941806709

>  <Genealogy>  (35) 
CCOC(=O)n1c(C([NH-])=O)cc2ccc(N3CC[NH+](C)CC3)cc21 (protonated)
CCOC(=O)n1c(C([NH-])=O)cc2ccc(N3CC[NH+](C)CC3)cc21 (3D coordinates assigned)
CCOC(=O)n1c(C([NH-])=O)cc2ccc(N3CC[NH+](C)CC3)cc21 (nonaromatic ring conformer: 91.0361941806709 kcal/mol)

>  <smiles>  (35) 
CCOC(=O)n1c(C(N)=O)cc2ccc(N3CCN(C)CC3)cc21

>  <score_type>  (35) 
oracle

>  <origin>  (35) 
adg

>  <m_score__min__energy>  (35) 
-6.3600000000000003

>  <m_primary>  (35) 
energy

$$$$
36:0
     RDKit          3D

 28 29  0  0  0  0  0  0  0  0999 V2000
  149.3710  160.3610  130.8740 C   0  0  0  0  0  0  0  0  0  0  0  0
  149.3870  159.7220  132.2590 C   0  0  0  0  0  0  0  0  0  0  0  0
  147.9990  159.3130  132.6710 C   0  0  0  0  0  0  0  0  0  0  0  0
  147.6170  157.9500  132.6240 C   0  0  0  0  0  0  0  0  0  0  0  0
  146.3180  157.5570  132.9900 C   0  0  0  0  0  0  0  0  0  0  0  0
  145.4220  158.5500  133.3780 C   0  0  0  0  0  0  0  0  0  0  0  0
  144.1170  158.4460  133.8010 C   0  0  0  0  0  0  0  0  0  0  0  0
  143.7100  159.7530  134.0650 C   0  0  0  0  0  0  0  0  0  0  0  0
  142.3340  160.1080  134.4740 C   0  0  0  0  0  0  0  0  0  0  0  0
  141.5270  160.9640  133.6700 N   0  0  0  0  0  0  0  0  0  0  0  0
  141.8480  159.6110  135.5250 O   0  0  0  0  0  0  0  0  0  0  0  0
  144.7260  160.6290  133.8200 N   0  0  0  0  0  0  0  0  0  0  0  0
  144.7360  162.0480  134.0440 C   0  0  0  0  0  0  0  0  0  0  0  0
  143.7820  162.8840  133.3940 N   0  0  0  0  0  0  0  0  0  0  0  0
  145.5960  162.5630  134.8080 O   0  0  0  0  0  0  0  0  0  0  0  0
  145.7670  159.8770  133.3990 C   0  0  0  0  0  0  0  0  0  0  0  0
  147.0600  160.2930  133.0600 C   0  0  0  0  0  0  0  0  0  0  0  0
  149.3436  161.4559  130.9757 H   0  0  0  0  0  0  0  0  0  0  0  0
  150.2768  160.0664  130.3238 H   0  0  0  0  0  0  0  0  0  0  0  0
  148.4811  160.0214  130.3238 H   0  0  0  0  0  0  0  0  0  0  0  0
  150.0347  158.8331  132.2393 H   0  0  0  0  0  0  0  0  0  0  0  0
  149.7694  160.4563  132.9833 H   0  0  0  0  0  0  0  0  0  0  0  0
  148.3439  157.1916  132.2979 H   0  0  0  0  0  0  0  0  0  0  0  0
  146.0187  156.4987  132.9706 H   0  0  0  0  0  0  0  0  0  0  0  0
  143.5216  157.5273  133.9081 H   0  0  0  0  0  0  0  0  0  0  0  0
  141.9560  161.7220  133.0940 H   0  0  0  0  0  0  0  0  0  0  0  0
  142.7580  162.7460  133.5440 H   0  0  0  0  0  0  0  0  0  0  0  0
  147.3375  161.3568  133.0958 H   0  0  0  0  0  0  0  0  0  0  0  0
  1  2  1  0
  2  3  1  0
  3  4  2  0
  4  5  1  0
  5  6  2  0
  6  7  1  0
  7  8  2  0
  8  9  1  0
  9 10  1  0
  9 11  2  0
  8 12  1  0
 12 13  1  0
 13 14  1  0
 13 15  2  0
 12 16  1  0
 16 17  2  0
 17  3  1  0
 16  6  1  0
  1 18  1  0
  1 19  1  0
  1 20  1  0
  2 21  1  0
  2 22  1  0
  4 23  1  0
  5 24  1  0
  7 25  1  0
 10 26  1  0
 14 27  1  0
 17 28  1  0
M  CHG  2  10  -1  14  -1
M  END
>  <UniqueID>  (36) 
36

>  <SMILES>  (36) 
CCc1ccc2cc(C([NH-])=O)n(C([NH-])=O)c2c1

>  <Energy>  (36) 
64.39799271069722

>  <Genealogy>  (36) 
CCc1ccc2cc(C([NH-])=O)n(C([NH-])=O)c2c1 (protonated)
CCc1ccc2cc(C([NH-])=O)n(C([NH-])=O)c2c1 (3D coordinates assigned)
CCc1ccc2cc(C([NH-])=O)n(C([NH-])=O)c2c1 (optimized conformer: 64.39799271069722 kcal/mol)

>  <smiles>  (36) 
CCc1ccc2cc(C(N)=O)n(C(N)=O)c2c1

>  <score_type>  (36) 
oracle

>  <origin>  (36) 
adg

>  <m_score__min__energy>  (36) 
-5.9699999999999998

>  <m_primary>  (36) 
energy

$$$$
37:0
     RDKit          3D

 33 34  0  0  0  0  0  0  0  0999 V2000
  143.4300  158.8110  133.7490 C   0  0  0  0  0  0  0  0  0  0  0  0
  144.2540  160.0910  133.6920 C   0  0  0  0  0  0  0  0  0  0  0  0
  145.3040  159.9720  132.7340 O   0  0  0  0  0  0  0  0  0  0  0  0
  146.6620  160.0470  133.0630 C   0  0  0  0  0  0  0  0  0  0  0  0
  147.1130  161.0480  133.6850 O   0  0  0  0  0  0  0  0  0  0  0  0
  147.5470  158.9820  132.6760 N   0  0  0  0  0  0  0  0  0  0  0  0
  148.6820  159.0850  131.9290 C   0  0  0  0  0  0  0  0  0  0  0  0
  149.1370  160.2920  131.2120 C   0  0  0  0  0  0  0  0  0  0  0  0
  148.4950  161.5530  131.4070 N   0  0  0  0  0  0  0  0  0  0  0  0
  150.0700  160.1980  130.3710 O   0  0  0  0  0  0  0  0  0  0  0  0
  149.3540  157.8670  131.8800 C   0  0  0  0  0  0  0  0  0  0  0  0
  148.5830  156.9980  132.6180 C   0  0  0  0  0  0  0  0  0  0  0  0
  148.7920  155.6560  132.9210 C   0  0  0  0  0  0  0  0  0  0  0  0
  147.8530  155.0130  133.7450 C   0  0  0  0  0  0  0  0  0  0  0  0
  146.7310  155.7180  134.2480 C   0  0  0  0  0  0  0  0  0  0  0  0
  145.7610  155.0320  135.1670 C   0  0  0  0  0  0  0  0  0  0  0  0
  146.4740  154.0930  136.0380 C   0  0  0  0  0  0  0  0  0  0  0  0
  147.0380  153.3520  136.7260 N   0  0  0  0  0  0  0  0  0  0  0  0
  146.5590  157.0830  133.9300 C   0  0  0  0  0  0  0  0  0  0  0  0
  147.4980  157.6950  133.0900 C   0  0  0  0  0  0  0  0  0  0  0  0
  143.2527  158.5355  134.7991 H   0  0  0  0  0  0  0  0  0  0  0  0
  142.4660  158.9728  133.2445 H   0  0  0  0  0  0  0  0  0  0  0  0
  143.9763  158.0004  133.2445 H   0  0  0  0  0  0  0  0  0  0  0  0
  143.6002  160.9291  133.4090 H   0  0  0  0  0  0  0  0  0  0  0  0
  144.6974  160.2707  134.6825 H   0  0  0  0  0  0  0  0  0  0  0  0
  147.6160  161.6290  131.9650 H   0  0  0  0  0  0  0  0  0  0  0  0
  148.8570  162.4060  130.9270 H   0  0  0  0  0  0  0  0  0  0  0  0
  150.2991  157.6462  131.3622 H   0  0  0  0  0  0  0  0  0  0  0  0
  149.6654  155.1153  132.5276 H   0  0  0  0  0  0  0  0  0  0  0  0
  147.9899  153.9523  134.0022 H   0  0  0  0  0  0  0  0  0  0  0  0
  145.2494  155.7850  135.7845 H   0  0  0  0  0  0  0  0  0  0  0  0
  145.0240  154.4789  134.5663 H   0  0  0  0  0  0  0  0  0  0  0  0
  145.7080  157.6521  134.3323 H   0  0  0  0  0  0  0  0  0  0  0  0
  1  2  1  0
  2  3  1  0
  3  4  1  0
  4  5  2  0
  4  6  1  0
  6  7  1  0
  7  8  1  0
  8  9  1  0
  8 10  2  0
  7 11  2  0
 11 12  1  0
 12 13  2  0
 13 14  1  0
 14 15  2  0
 15 16  1  0
 16 17  1  0
 17 18  3  0
 15 19  1  0
 19 20  2  0
 20  6  1  0
 20 12  1  0
  1 21  1  0
  1 22  1  0
  1 23  1  0
  2 24  1  0
  2 25  1  0
  9 26  1  0
  9 27  1  0
 11 28  1  0
 13 29  1  0
 14 30  1  0
 16 31  1  0
 16 32  1  0
 19 33  1  0
M  END
>  <UniqueID>  (37) 
37

>  <SMILES>  (37) 
CCOC(=O)n1c(C(N)=O)cc2ccc(CC#N)cc21

>  <Energy>  (37) 
66.23779820261444

>  <Genealogy>  (37) 
CCOC(=O)n1c(C(N)=O)cc2ccc(CC#N)cc21 (3D coordinates assigned)
CCOC(=O)n1c(C(N)=O)cc2ccc(CC#N)cc21 (optimized conformer: 66.23779820261444 kcal/mol)

>  <smiles>  (37) 
CCOC(=O)n1c(C(N)=O)cc2ccc(CC#N)cc21

>  <score_type>  (37) 
oracle

>  <origin>  (37) 
adg

>  <m_score__min__energy>  (37) 
-6.8899999999999997

>  <m_primary>  (37) 
energy

$$$$
38:0
     RDKit          3D

 26 27  0  0  0  0  0  0  0  0999 V2000
  149.3100  162.0000  130.3580 C   0  0  0  0  0  0  0  0  0  0  0  0
  149.0630  160.6990  131.0610 C   0  0  0  0  0  0  0  0  0  0  0  0
  150.1040  159.7490  131.1810 C   0  0  0  0  0  0  0  0  0  0  0  0
  149.8910  158.5350  131.8530 C   0  0  0  0  0  0  0  0  0  0  0  0
  148.6360  158.3100  132.4120 C   0  0  0  0  0  0  0  0  0  0  0  0
  148.1620  157.2190  133.1000 C   0  0  0  0  0  0  0  0  0  0  0  0
  146.8430  157.5270  133.4090 C   0  0  0  0  0  0  0  0  0  0  0  0
  145.9670  156.6220  134.1680 C   0  0  0  0  0  0  0  0  0  0  0  0
  144.6130  156.4110  133.7690 N   0  0  0  0  0  0  0  0  0  0  0  0
  146.4380  155.9700  135.1390 O   0  0  0  0  0  0  0  0  0  0  0  0
  146.5120  158.7730  132.9610 N   0  0  0  0  0  0  0  0  0  0  0  0
  145.2990  159.5040  133.2370 C   0  0  0  0  0  0  0  0  0  0  0  0
  145.3510  160.7890  133.8520 N   0  0  0  0  0  0  0  0  0  0  0  0
  144.1750  159.0010  132.9740 O   0  0  0  0  0  0  0  0  0  0  0  0
  147.6230  159.2350  132.3380 C   0  0  0  0  0  0  0  0  0  0  0  0
  147.8060  160.4450  131.6550 C   0  0  0  0  0  0  0  0  0  0  0  0
  149.4611  162.7959  131.1021 H   0  0  0  0  0  0  0  0  0  0  0  0
  150.2074  161.9118  129.7281 H   0  0  0  0  0  0  0  0  0  0  0  0
  148.4427  162.2468  129.7281 H   0  0  0  0  0  0  0  0  0  0  0  0
  151.0902  159.9635  130.7435 H   0  0  0  0  0  0  0  0  0  0  0  0
  150.6911  157.7846  131.9353 H   0  0  0  0  0  0  0  0  0  0  0  0
  148.7096  156.2989  133.3521 H   0  0  0  0  0  0  0  0  0  0  0  0
  143.9930  155.7760  134.3210 H   0  0  0  0  0  0  0  0  0  0  0  0
  144.2430  156.8390  132.8920 H   0  0  0  0  0  0  0  0  0  0  0  0
  145.6990  161.6220  133.3280 H   0  0  0  0  0  0  0  0  0  0  0  0
  146.9905  161.1797  131.5829 H   0  0  0  0  0  0  0  0  0  0  0  0
  1  2  1  0
  2  3  2  0
  3  4  1  0
  4  5  2  0
  5  6  1  0
  6  7  2  0
  7  8  1  0
  8  9  1  0
  8 10  2  0
  7 11  1  0
 11 12  1  0
 12 13  1  0
 12 14  2  0
 11 15  1  0
 15 16  2  0
 16  2  1  0
 15  5  1  0
  1 17  1  0
  1 18  1  0
  1 19  1  0
  3 20  1  0
  4 21  1  0
  6 22  1  0
  9 23  1  0
  9 24  1  0
 13 25  1  0
 16 26  1  0
M  CHG  1  13  -1
M  END
>  <UniqueID>  (38) 
38

>  <SMILES>  (38) 
Cc1ccc2cc(C(N)=O)n(C([NH-])=O)c2c1

>  <Energy>  (38) 
68.27857992244068

>  <Genealogy>  (38) 
Cc1ccc2cc(C(N)=O)n(C([NH-])=O)c2c1 (protonated)
Cc1ccc2cc(C(N)=O)n(C([NH-])=O)c2c1 (3D coordinates assigned)
Cc1ccc2cc(C(N)=O)n(C([NH-])=O)c2c1 (optimized conformer: 68.27857992244068 kcal/mol)

>  <smiles>  (38) 
Cc1ccc2cc(C(N)=O)n(C(N)=O)c2c1

>  <score_type>  (38) 
oracle

>  <origin>  (38) 
adg

>  <m_score__min__energy>  (38) 
-6.1100000000000003

>  <m_primary>  (38) 
energy

$$$$
39:0
     RDKit          3D

 42 44  0  0  0  0  0  0  0  0999 V2000
  138.6690  149.3580  130.8460 C   0  0  0  0  0  0  0  0  0  0  0  0
  139.7980  148.4460  131.0620 N   0  0  0  0  0  0  0  0  0  0  0  0
  139.8340  147.1470  130.3860 C   0  0  0  0  0  0  0  0  0  0  0  0
  140.7980  148.7450  132.0570 C   0  0  0  0  0  0  0  0  0  0  0  0
  141.3630  147.8000  132.6730 O   0  0  0  0  0  0  0  0  0  0  0  0
  141.1780  150.1350  132.3860 C   0  0  0  0  0  0  0  0  0  0  0  0
  142.5250  150.4920  132.5390 C   0  0  0  0  0  0  0  0  0  0  0  0
  142.8770  151.8050  132.8670 C   0  0  0  0  0  0  0  0  0  0  0  0
  141.8860  152.7840  133.0580 C   0  0  0  0  0  0  0  0  0  0  0  0
  142.2580  154.1790  133.4030 C   0  0  0  0  0  0  0  0  0  0  0  0
  143.6120  154.5990  133.3340 C   0  0  0  0  0  0  0  0  0  0  0  0
  143.9730  155.9200  133.6490 C   0  0  0  0  0  0  0  0  0  0  0  0
  142.9660  156.7970  134.0350 C   0  0  0  0  0  0  0  0  0  0  0  0
  143.0330  158.1300  134.3710 C   0  0  0  0  0  0  0  0  0  0  0  0
  141.7230  158.5050  134.6610 C   0  0  0  0  0  0  0  0  0  0  0  0
  141.3510  159.8460  135.1590 C   0  0  0  0  0  0  0  0  0  0  0  0
  140.8330  159.9930  136.4780 N   0  0  0  0  0  0  0  0  0  0  0  0
  141.4500  160.8590  134.4180 O   0  0  0  0  0  0  0  0  0  0  0  0
  140.8770  157.4480  134.5040 N   0  0  0  0  0  0  0  0  0  0  0  0
  139.4470  157.4350  134.6350 C   0  0  0  0  0  0  0  0  0  0  0  0
  138.8270  157.9790  135.7970 N   0  0  0  0  0  0  0  0  0  0  0  0
  138.7300  156.9710  133.7080 O   0  0  0  0  0  0  0  0  0  0  0  0
  141.6540  156.4080  134.1240 C   0  0  0  0  0  0  0  0  0  0  0  0
  141.2630  155.1050  133.8010 C   0  0  0  0  0  0  0  0  0  0  0  0
  140.5350  152.4170  132.9220 C   0  0  0  0  0  0  0  0  0  0  0  0
  140.1850  151.1040  132.5970 C   0  0  0  0  0  0  0  0  0  0  0  0
  138.2681  149.6818  131.8178 H   0  0  0  0  0  0  0  0  0  0  0  0
  139.0106  150.2366  130.2791 H   0  0  0  0  0  0  0  0  0  0  0  0
  137.8819  148.8393  130.2791 H   0  0  0  0  0  0  0  0  0  0  0  0
  139.8563  146.3434  131.1368 H   0  0  0  0  0  0  0  0  0  0  0  0
  138.9386  147.0362  129.7568 H   0  0  0  0  0  0  0  0  0  0  0  0
  140.7342  147.0859  129.7568 H   0  0  0  0  0  0  0  0  0  0  0  0
  143.3102  149.7343  132.4001 H   0  0  0  0  0  0  0  0  0  0  0  0
  143.9379  152.0741  132.9765 H   0  0  0  0  0  0  0  0  0  0  0  0
  144.3884  153.8815  133.0302 H   0  0  0  0  0  0  0  0  0  0  0  0
  145.0208  156.2501  133.5919 H   0  0  0  0  0  0  0  0  0  0  0  0
  143.9308  158.7648  134.4036 H   0  0  0  0  0  0  0  0  0  0  0  0
  139.8640  159.6840  136.7120 H   0  0  0  0  0  0  0  0  0  0  0  0
  138.9570  158.9830  136.0550 H   0  0  0  0  0  0  0  0  0  0  0  0
  140.2059  154.8057  133.8548 H   0  0  0  0  0  0  0  0  0  0  0  0
  139.7474  153.1700  133.0728 H   0  0  0  0  0  0  0  0  0  0  0  0
  139.1241  150.8280  132.5059 H   0  0  0  0  0  0  0  0  0  0  0  0
  1  2  1  0
  2  3  1  0
  2  4  1  0
  4  5  2  0
  4  6  1  0
  6  7  2  0
  7  8  1  0
  8  9  2  0
  9 10  1  0
 10 11  2  0
 11 12  1  0
 12 13  2  0
 13 14  1  0
 14 15  2  0
 15 16  1  0
 16 17  1  0
 16 18  2  0
 15 19  1  0
 19 20  1  0
 20 21  1  0
 20 22  2  0
 19 23  1  0
 23 24  2  0
  9 25  1  0
 25 26  2  0
 26  6  1  0
 24 10  1  0
 23 13  1  0
  1 27  1  0
  1 28  1  0
  1 29  1  0
  3 30  1  0
  3 31  1  0
  3 32  1  0
  7 33  1  0
  8 34  1  0
 11 35  1  0
 12 36  1  0
 14 37  1  0
 17 38  1  0
 21 39  1  0
 24 40  1  0
 25 41  1  0
 26 42  1  0
M  CHG  2  17  -1  21  -1
M  END
>  <UniqueID>  (39) 
39

>  <SMILES>  (39) 
CN(C)C(=O)c1ccc(-c2ccc3cc(C([NH-])=O)n(C([NH-])=O)c3c2)cc1

>  <Energy>  (39) 
91.82021812886717

>  <Genealogy>  (39) 
CN(C)C(=O)c1ccc(-c2ccc3cc(C([NH-])=O)n(C([NH-])=O)c3c2)cc1 (protonated)
CN(C)C(=O)c1ccc(-c2ccc3cc(C([NH-])=O)n(C([NH-])=O)c3c2)cc1 (3D coordinates assigned)
CN(C)C(=O)c1ccc(-c2ccc3cc(C([NH-])=O)n(C([NH-])=O)c3c2)cc1 (optimized conformer: 91.82021812886717 kcal/mol)

>  <smiles>  (39) 
CN(C)C(=O)c1ccc(-c2ccc3cc(C(N)=O)n(C(N)=O)c3c2)cc1

>  <score_type>  (39) 
oracle

>  <origin>  (39) 
adg

>  <m_score__min__energy>  (39) 
-8.5199999999999996

>  <m_primary>  (39) 
energy

$$$$
40:0
     RDKit          3D

 28 29  0  0  0  0  0  0  0  0999 V2000
  145.9630  162.6120  134.8310 N   0  0  0  0  0  0  0  0  0  0  0  0
  144.9310  161.9590  134.0940 C   0  0  0  0  0  0  0  0  0  0  0  0
  143.9390  162.6250  133.6970 O   0  0  0  0  0  0  0  0  0  0  0  0
  145.0310  160.5560  133.7950 N   0  0  0  0  0  0  0  0  0  0  0  0
  144.1260  159.5800  134.0870 C   0  0  0  0  0  0  0  0  0  0  0  0
  142.7640  159.7920  134.6180 C   0  0  0  0  0  0  0  0  0  0  0  0
  141.9260  160.8310  134.1100 N   0  0  0  0  0  0  0  0  0  0  0  0
  142.3120  159.0070  135.4940 O   0  0  0  0  0  0  0  0  0  0  0  0
  144.6310  158.3250  133.7600 C   0  0  0  0  0  0  0  0  0  0  0  0
  145.8830  158.5630  133.2400 C   0  0  0  0  0  0  0  0  0  0  0  0
  146.8350  157.6680  132.7580 C   0  0  0  0  0  0  0  0  0  0  0  0
  148.0590  158.1890  132.3080 C   0  0  0  0  0  0  0  0  0  0  0  0
  148.3150  159.5820  132.3630 C   0  0  0  0  0  0  0  0  0  0  0  0
  149.6220  160.1300  131.8610 C   0  0  0  0  0  0  0  0  0  0  0  0
  149.4410  160.7730  130.5210 C   0  0  0  0  0  0  0  0  0  0  0  0
  149.5490  161.9830  130.3960 O   0  0  0  0  0  0  0  0  0  0  0  0
  147.3210  160.4600  132.8500 C   0  0  0  0  0  0  0  0  0  0  0  0
  146.1020  159.9160  133.2730 C   0  0  0  0  0  0  0  0  0  0  0  0
  146.9690  162.4410  134.6120 H   0  0  0  0  0  0  0  0  0  0  0  0
  142.2070  161.3900  133.2750 H   0  0  0  0  0  0  0  0  0  0  0  0
  140.9800  160.9890  134.5230 H   0  0  0  0  0  0  0  0  0  0  0  0
  144.1357  157.3514  133.8894 H   0  0  0  0  0  0  0  0  0  0  0  0
  146.6344  156.5868  132.7306 H   0  0  0  0  0  0  0  0  0  0  0  0
  148.8265  157.5095  131.9090 H   0  0  0  0  0  0  0  0  0  0  0  0
  149.9983  160.8785  132.5738 H   0  0  0  0  0  0  0  0  0  0  0  0
  150.3409  159.3030  131.7646 H   0  0  0  0  0  0  0  0  0  0  0  0
  149.2092  160.1515  129.6435 H   0  0  0  0  0  0  0  0  0  0  0  0
  147.5003  161.5443  132.8958 H   0  0  0  0  0  0  0  0  0  0  0  0
  1  2  1  0
  2  3  2  0
  2  4  1  0
  4  5  1  0
  5  6  1  0
  6  7  1  0
  6  8  2  0
  5  9  2  0
  9 10  1  0
 10 11  2  0
 11 12  1  0
 12 13  2  0
 13 14  1  0
 14 15  1  0
 15 16  2  0
 13 17  1  0
 17 18  2  0
 18  4  1  0
 18 10  1  0
  1 19  1  0
  7 20  1  0
  7 21  1  0
  9 22  1  0
 11 23  1  0
 12 24  1  0
 14 25  1  0
 14 26  1  0
 15 27  1  0
 17 28  1  0
M  CHG  1   1  -1
M  END
>  <UniqueID>  (40) 
40

>  <SMILES>  (40) 
[NH-]C(=O)n1c(C(N)=O)cc2ccc(CC=O)cc21

>  <Energy>  (40) 
66.0026113931884

>  <Genealogy>  (40) 
[NH-]C(=O)n1c(C(N)=O)cc2ccc(CC=O)cc21 (protonated)
[NH-]C(=O)n1c(C(N)=O)cc2ccc(CC=O)cc21 (3D coordinates assigned)
[NH-]C(=O)n1c(C(N)=O)cc2ccc(CC=O)cc21 (optimized conformer: 66.0026113931884 kcal/mol)

>  <smiles>  (40) 
NC(=O)c1cc2ccc(CC=O)cc2n1C(N)=O

>  <score_type>  (40) 
oracle

>  <origin>  (40) 
adg

>  <m_score__min__energy>  (40) 
-6.3899999999999997

>  <m_primary>  (40) 
energy

$$$$
41:0
     RDKit          3D

 38 40  0  0  0  0  0  0  0  0999 V2000
  151.1270  149.9560  130.0690 C   0  0  0  0  0  0  0  0  0  0  0  0
  149.9540  150.3710  130.8270 N   0  0  0  0  0  0  0  0  0  0  0  0
  149.9930  151.1130  132.0530 C   0  0  0  0  0  0  0  0  0  0  0  0
  150.7940  150.7510  132.9540 O   0  0  0  0  0  0  0  0  0  0  0  0
  149.1000  152.2600  132.3080 C   0  0  0  0  0  0  0  0  0  0  0  0
  147.7410  152.0410  132.5730 C   0  0  0  0  0  0  0  0  0  0  0  0
  146.8870  153.1180  132.8300 C   0  0  0  0  0  0  0  0  0  0  0  0
  147.3820  154.4340  132.8430 C   0  0  0  0  0  0  0  0  0  0  0  0
  146.4770  155.5800  133.1140 C   0  0  0  0  0  0  0  0  0  0  0  0
  145.0930  155.3600  133.3480 C   0  0  0  0  0  0  0  0  0  0  0  0
  144.2290  156.4350  133.6160 C   0  0  0  0  0  0  0  0  0  0  0  0
  144.7690  157.7160  133.6380 C   0  0  0  0  0  0  0  0  0  0  0  0
  144.1660  158.9260  133.8950 C   0  0  0  0  0  0  0  0  0  0  0  0
  145.1820  159.8740  133.7930 C   0  0  0  0  0  0  0  0  0  0  0  0
  144.9500  161.3280  133.9070 C   0  0  0  0  0  0  0  0  0  0  0  0
  145.9820  162.2020  134.3600 N   0  0  0  0  0  0  0  0  0  0  0  0
  143.8430  161.8140  133.5500 O   0  0  0  0  0  0  0  0  0  0  0  0
  146.3690  159.2720  133.4950 N   0  0  0  0  0  0  0  0  0  0  0  0
  147.6660  159.8820  133.3980 C   0  0  0  0  0  0  0  0  0  0  0  0
  147.8720  161.0000  132.5370 N   0  0  0  0  0  0  0  0  0  0  0  0
  148.6210  159.4510  134.0970 O   0  0  0  0  0  0  0  0  0  0  0  0
  146.0980  157.9520  133.4010 C   0  0  0  0  0  0  0  0  0  0  0  0
  146.9860  156.9000  133.1480 C   0  0  0  0  0  0  0  0  0  0  0  0
  148.7510  154.6470  132.6010 C   0  0  0  0  0  0  0  0  0  0  0  0
  149.6030  153.5700  132.3440 C   0  0  0  0  0  0  0  0  0  0  0  0
  151.9309  149.6716  130.7639 H   0  0  0  0  0  0  0  0  0  0  0  0
  150.8683  149.0948  129.4354 H   0  0  0  0  0  0  0  0  0  0  0  0
  151.4674  150.7882  129.4354 H   0  0  0  0  0  0  0  0  0  0  0  0
  147.3438  151.0152  132.5788 H   0  0  0  0  0  0  0  0  0  0  0  0
  145.8198  152.9343  133.0235 H   0  0  0  0  0  0  0  0  0  0  0  0
  144.6931  154.3357  133.3190 H   0  0  0  0  0  0  0  0  0  0  0  0
  143.1579  156.2682  133.8027 H   0  0  0  0  0  0  0  0  0  0  0  0
  143.1068  159.1064  134.1309 H   0  0  0  0  0  0  0  0  0  0  0  0
  146.9860  161.9310  134.2860 H   0  0  0  0  0  0  0  0  0  0  0  0
  147.3640  161.8990  132.6950 H   0  0  0  0  0  0  0  0  0  0  0  0
  148.0554  157.0949  132.9794 H   0  0  0  0  0  0  0  0  0  0  0  0
  149.1543  155.6703  132.6142 H   0  0  0  0  0  0  0  0  0  0  0  0
  150.6740  153.7496  132.1689 H   0  0  0  0  0  0  0  0  0  0  0  0
  1  2  1  0
  2  3  1  0
  3  4  2  0
  3  5  1  0
  5  6  2  0
  6  7  1  0
  7  8  2  0
  8  9  1  0
  9 10  2  0
 10 11  1  0
 11 12  2  0
 12 13  1  0
 13 14  2  0
 14 15  1  0
 15 16  1  0
 15 17  2  0
 14 18  1  0
 18 19  1  0
 19 20  1  0
 19 21  2  0
 18 22  1  0
 22 23  2  0
  8 24  1  0
 24 25  2  0
 25  5  1  0
 23  9  1  0
 22 12  1  0
  1 26  1  0
  1 27  1  0
  1 28  1  0
  6 29  1  0
  7 30  1  0
 10 31  1  0
 11 32  1  0
 13 33  1  0
 16 34  1  0
 20 35  1  0
 23 36  1  0
 24 37  1  0
 25 38  1  0
M  CHG  3   2  -1  16  -1  20  -1
M  END
>  <UniqueID>  (41) 
41

>  <SMILES>  (41) 
C[N-]C(=O)c1ccc(-c2ccc3cc(C([NH-])=O)n(C([NH-])=O)c3c2)cc1

>  <Energy>  (41) 
88.99452083827916

>  <Genealogy>  (41) 
C[N-]C(=O)c1ccc(-c2ccc3cc(C([NH-])=O)n(C([NH-])=O)c3c2)cc1 (protonated)
C[N-]C(=O)c1ccc(-c2ccc3cc(C([NH-])=O)n(C([NH-])=O)c3c2)cc1 (3D coordinates assigned)
C[N-]C(=O)c1ccc(-c2ccc3cc(C([NH-])=O)n(C([NH-])=O)c3c2)cc1 (optimized conformer: 88.99452083827916 kcal/mol)

>  <smiles>  (41) 
CNC(=O)c1ccc(-c2ccc3cc(C(N)=O)n(C(N)=O)c3c2)cc1

>  <score_type>  (41) 
oracle

>  <origin>  (41) 
adg

>  <m_score__min__energy>  (41) 
-8.1099999999999994

>  <m_primary>  (41) 
energy

$$$$
42:0
     RDKit          3D

 38 40  0  0  0  0  0  0  0  0999 V2000
  139.9200  149.6320  132.2480 C   0  0  0  0  0  0  0  0  0  0  0  0
  140.8990  150.7140  132.5910 C   0  0  0  0  0  0  0  0  0  0  0  0
  142.2750  150.4040  132.7360 C   0  0  0  0  0  0  0  0  0  0  0  0
  143.2100  151.4170  133.0050 C   0  0  0  0  0  0  0  0  0  0  0  0
  142.7430  152.7230  133.1200 C   0  0  0  0  0  0  0  0  0  0  0  0
  143.4360  153.8930  133.3350 C   0  0  0  0  0  0  0  0  0  0  0  0
  142.4720  154.8970  133.3300 C   0  0  0  0  0  0  0  0  0  0  0  0
  142.7790  156.3190  133.5810 C   0  0  0  0  0  0  0  0  0  0  0  0
  142.4850  157.3230  132.6100 N   0  0  0  0  0  0  0  0  0  0  0  0
  143.2590  156.6600  134.6950 O   0  0  0  0  0  0  0  0  0  0  0  0
  141.2330  154.3740  133.1110 N   0  0  0  0  0  0  0  0  0  0  0  0
  140.0080  155.0970  132.9120 C   0  0  0  0  0  0  0  0  0  0  0  0
  138.9010  154.4960  132.9830 O   0  0  0  0  0  0  0  0  0  0  0  0
  140.0480  156.4690  132.6360 O   0  0  0  0  0  0  0  0  0  0  0  0
  139.2900  157.4350  133.3590 C   0  0  0  0  0  0  0  0  0  0  0  0
  140.1950  158.4830  133.9290 C   0  0  0  0  0  0  0  0  0  0  0  0
  140.8980  159.3260  133.2090 O   0  0  0  0  0  0  0  0  0  0  0  0
  141.5500  160.0770  134.0690 C   0  0  0  0  0  0  0  0  0  0  0  0
  142.3310  161.0050  133.7320 O   0  0  0  0  0  0  0  0  0  0  0  0
  141.2990  159.7520  135.3160 O   0  0  0  0  0  0  0  0  0  0  0  0
  140.4510  158.7520  135.2630 C   0  0  0  0  0  0  0  0  0  0  0  0
  139.8810  158.0570  136.4550 C   0  0  0  0  0  0  0  0  0  0  0  0
  141.4150  153.0400  132.9860 C   0  0  0  0  0  0  0  0  0  0  0  0
  140.4640  152.0530  132.6960 C   0  0  0  0  0  0  0  0  0  0  0  0
  139.5213  149.1914  133.1737 H   0  0  0  0  0  0  0  0  0  0  0  0
  139.0941  150.0579  131.6593 H   0  0  0  0  0  0  0  0  0  0  0  0
  140.4261  148.8527  131.6593 H   0  0  0  0  0  0  0  0  0  0  0  0
  142.6129  149.3619  132.6370 H   0  0  0  0  0  0  0  0  0  0  0  0
  144.2790  151.1852  133.1213 H   0  0  0  0  0  0  0  0  0  0  0  0
  144.5202  154.0095  133.4798 H   0  0  0  0  0  0  0  0  0  0  0  0
  142.7490  158.3170  132.7870 H   0  0  0  0  0  0  0  0  0  0  0  0
  141.9380  157.0980  131.7500 H   0  0  0  0  0  0  0  0  0  0  0  0
  138.5660  157.9102  132.6807 H   0  0  0  0  0  0  0  0  0  0  0  0
  138.7606  156.9324  134.1819 H   0  0  0  0  0  0  0  0  0  0  0  0
  140.2661  158.5266  137.3722 H   0  0  0  0  0  0  0  0  0  0  0  0
  138.7840  158.1357  136.4356 H   0  0  0  0  0  0  0  0  0  0  0  0
  140.1729  156.9966  136.4356 H   0  0  0  0  0  0  0  0  0  0  0  0
  139.4051  152.3147  132.5537 H   0  0  0  0  0  0  0  0  0  0  0  0
  1  2  1  0
  2  3  2  0
  3  4  1  0
  4  5  2  0
  5  6  1  0
  6  7  2  0
  7  8  1  0
  8  9  1  0
  8 10  2  0
  7 11  1  0
 11 12  1  0
 12 13  2  0
 12 14  1  0
 14 15  1  0
 15 16  1  0
 16 17  1  0
 17 18  1  0
 18 19  2  0
 18 20  1  0
 20 21  1  0
 21 22  1  0
 11 23  1  0
 23 24  2  0
 24  2  1  0
 23  5  1  0
 21 16  2  0
  1 25  1  0
  1 26  1  0
  1 27  1  0
  3 28  1  0
  4 29  1  0
  6 30  1  0
  9 31  1  0
  9 32  1  0
 15 33  1  0
 15 34  1  0
 22 35  1  0
 22 36  1  0
 22 37  1  0
 24 38  1  0
M  END
>  <UniqueID>  (42) 
42

>  <SMILES>  (42) 
Cc1ccc2cc(C(N)=O)n(C(=O)OCc3oc(=O)oc3C)c2c1

>  <Energy>  (42) 
108.297269254845

>  <Genealogy>  (42) 
Cc1ccc2cc(C(N)=O)n(C(=O)OCc3oc(=O)oc3C)c2c1 (3D coordinates assigned)
Cc1ccc2cc(C(N)=O)n(C(=O)OCc3oc(=O)oc3C)c2c1 (optimized conformer: 108.297269254845 kcal/mol)

>  <smiles>  (42) 
Cc1ccc2cc(C(N)=O)n(C(=O)OCc3oc(=O)oc3C)c2c1

>  <score_type>  (42) 
oracle

>  <origin>  (42) 
adg

>  <m_score__min__energy>  (42) 
-6.6799999999999997

>  <m_primary>  (42) 
energy

$$$$
43:0
     RDKit          3D

 56 59  0  0  0  0  0  0  0  0999 V2000
  148.4280  158.6040  133.8550 C   0  0  0  0  0  0  0  0  0  0  0  0
  147.2810  157.6230  133.6470 C   0  0  0  0  0  0  0  0  0  0  0  0
  146.0380  158.2150  134.0180 O   0  0  0  0  0  0  0  0  0  0  0  0
  145.4370  159.2580  133.3030 C   0  0  0  0  0  0  0  0  0  0  0  0
  146.0950  159.9040  132.4430 O   0  0  0  0  0  0  0  0  0  0  0  0
  144.0570  159.5810  133.5400 N   0  0  0  0  0  0  0  0  0  0  0  0
  143.5190  160.8080  133.7910 C   0  0  0  0  0  0  0  0  0  0  0  0
  144.2340  162.0990  133.7210 C   0  0  0  0  0  0  0  0  0  0  0  0
  145.6050  162.1720  134.1060 N   0  0  0  0  0  0  0  0  0  0  0  0
  143.6390  163.1480  133.3600 O   0  0  0  0  0  0  0  0  0  0  0  0
  142.1540  160.6980  134.0490 C   0  0  0  0  0  0  0  0  0  0  0  0
  141.8690  159.3570  133.9430 C   0  0  0  0  0  0  0  0  0  0  0  0
  140.6650  158.6820  134.1130 C   0  0  0  0  0  0  0  0  0  0  0  0
  140.6660  157.2840  133.9720 C   0  0  0  0  0  0  0  0  0  0  0  0
  141.8650  156.5850  133.6710 C   0  0  0  0  0  0  0  0  0  0  0  0
  141.8570  155.1060  133.5370 C   0  0  0  0  0  0  0  0  0  0  0  0
  143.0080  154.3560  133.8370 C   0  0  0  0  0  0  0  0  0  0  0  0
  142.9990  152.9630  133.7130 C   0  0  0  0  0  0  0  0  0  0  0  0
  141.8440  152.2930  133.2810 C   0  0  0  0  0  0  0  0  0  0  0  0
  141.8300  150.8570  133.1690 N   0  0  0  0  0  0  0  0  0  0  0  0
  142.9580  150.1290  132.5830 C   0  0  0  0  0  0  0  0  0  0  0  0
  142.4780  149.2320  131.4230 C   0  0  0  0  0  0  0  0  0  0  0  0
  141.0780  148.7420  131.5770 N   0  0  0  0  0  0  0  0  0  0  0  0
  140.1400  149.5160  130.7400 C   0  0  0  0  0  0  0  0  0  0  0  0
  140.6360  148.6990  132.9910 C   0  0  0  0  0  0  0  0  0  0  0  0
  140.6760  150.0890  133.6480 C   0  0  0  0  0  0  0  0  0  0  0  0
  140.6900  153.0410  132.9920 C   0  0  0  0  0  0  0  0  0  0  0  0
  140.6980  154.4330  133.1150 C   0  0  0  0  0  0  0  0  0  0  0  0
  143.0690  157.3100  133.5050 C   0  0  0  0  0  0  0  0  0  0  0  0
  143.0340  158.7030  133.6340 C   0  0  0  0  0  0  0  0  0  0  0  0
  148.5964  158.7481  134.9324 H   0  0  0  0  0  0  0  0  0  0  0  0
  149.3416  158.2036  133.3914 H   0  0  0  0  0  0  0  0  0  0  0  0
  148.1741  159.5687  133.3914 H   0  0  0  0  0  0  0  0  0  0  0  0
  147.2410  157.3339  132.5864 H   0  0  0  0  0  0  0  0  0  0  0  0
  147.4536  156.7383  134.2775 H   0  0  0  0  0  0  0  0  0  0  0  0
  146.3570  161.7920  133.4890 H   0  0  0  0  0  0  0  0  0  0  0  0
  141.4530  161.5116  134.2870 H   0  0  0  0  0  0  0  0  0  0  0  0
  139.7393  159.2265  134.3508 H   0  0  0  0  0  0  0  0  0  0  0  0
  139.7271  156.7244  134.0962 H   0  0  0  0  0  0  0  0  0  0  0  0
  143.9219  154.8686  134.1716 H   0  0  0  0  0  0  0  0  0  0  0  0
  143.9046  152.3878  133.9560 H   0  0  0  0  0  0  0  0  0  0  0  0
  143.6955  150.8504  132.2014 H   0  0  0  0  0  0  0  0  0  0  0  0
  143.4135  149.4951  133.3580 H   0  0  0  0  0  0  0  0  0  0  0  0
  142.5419  149.8098  130.4892 H   0  0  0  0  0  0  0  0  0  0  0  0
  143.1278  148.3444  131.4160 H   0  0  0  0  0  0  0  0  0  0  0  0
  141.0470  147.7570  131.2210 H   0  0  0  0  0  0  0  0  0  0  0  0
  139.4535  150.0825  131.3864 H   0  0  0  0  0  0  0  0  0  0  0  0
  140.7054  150.2139  130.1050 H   0  0  0  0  0  0  0  0  0  0  0  0
  139.5622  148.8284  130.1050 H   0  0  0  0  0  0  0  0  0  0  0  0
  139.6051  148.3171  133.0297 H   0  0  0  0  0  0  0  0  0  0  0  0
  141.3240  148.0417  133.5429 H   0  0  0  0  0  0  0  0  0  0  0  0
  139.7525  150.6324  133.3993 H   0  0  0  0  0  0  0  0  0  0  0  0
  140.7635  149.9624  134.7372 H   0  0  0  0  0  0  0  0  0  0  0  0
  139.7736  152.5270  132.6665 H   0  0  0  0  0  0  0  0  0  0  0  0
  139.7894  155.0066  132.8795 H   0  0  0  0  0  0  0  0  0  0  0  0
  144.0117  156.7899  133.2795 H   0  0  0  0  0  0  0  0  0  0  0  0
  1  2  1  0
  2  3  1  0
  3  4  1  0
  4  5  2  0
  4  6  1  0
  6  7  1  0
  7  8  1  0
  8  9  1  0
  8 10  2  0
  7 11  2  0
 11 12  1  0
 12 13  2  0
 13 14  1  0
 14 15  2  0
 15 16  1  0
 16 17  2  0
 17 18  1  0
 18 19  2  0
 19 20  1  0
 20 21  1  0
 21 22  1  0
 22 23  1  0
 23 24  1  0
 23 25  1  0
 25 26  1  0
 19 27  1  0
 27 28  2  0
 15 29  1  0
 29 30  2  0
 30  6  1  0
 30 12  1  0
 28 16  1  0
 26 20  1  0
  1 31  1  0
  1 32  1  0
  1 33  1  0
  2 34  1  0
  2 35  1  0
  9 36  1  0
 11 37  1  0
 13 38  1  0
 14 39  1  0
 17 40  1  0
 18 41  1  0
 21 42  1  0
 21 43  1  0
 22 44  1  0
 22 45  1  0
 23 46  1  0
 24 47  1  0
 24 48  1  0
 24 49  1  0
 25 50  1  0
 25 51  1  0
 26 52  1  0
 26 53  1  0
 27 54  1  0
 28 55  1  0
 29 56  1  0
M  CHG  2   9  -1  23   1
M  END
>  <UniqueID>  (43) 
43

>  <SMILES>  (43) 
CCOC(=O)n1c(C([NH-])=O)cc2ccc(-c3ccc(N4CC[NH+](C)CC4)cc3)cc21

>  <Energy>  (43) 
110.5900962857134

>  <Genealogy>  (43) 
CCOC(=O)n1c(C([NH-])=O)cc2ccc(-c3ccc(N4CC[NH+](C)CC4)cc3)cc21 (protonated)
CCOC(=O)n1c(C([NH-])=O)cc2ccc(-c3ccc(N4CC[NH+](C)CC4)cc3)cc21 (3D coordinates assigned)
CCOC(=O)n1c(C([NH-])=O)cc2ccc(-c3ccc(N4CC[NH+](C)CC4)cc3)cc21 (nonaromatic ring conformer: 110.5900962857134 kcal/mol)

>  <smiles>  (43) 
CCOC(=O)n1c(C(N)=O)cc2ccc(-c3ccc(N4CCN(C)CC4)cc3)cc21

>  <score_type>  (43) 
oracle

>  <origin>  (43) 
adg

>  <m_score__min__energy>  (43) 
-8.2100000000000009

>  <m_primary>  (43) 
energy

$$$$
44:0
     RDKit          3D

 60 62  0  0  0  0  0  0  0  0999 V2000
  140.9430  159.7160  136.3240 C   0  0  0  0  0  0  0  0  0  0  0  0
  140.9370  158.5030  135.3710 C   0  0  0  0  0  0  0  0  0  0  0  0
  141.7860  157.3840  135.9940 C   0  0  0  0  0  0  0  0  0  0  0  0
  139.5020  157.9880  135.1550 C   0  0  0  0  0  0  0  0  0  0  0  0
  141.5440  158.8380  134.1140 O   0  0  0  0  0  0  0  0  0  0  0  0
  142.4060  159.9170  133.8660 C   0  0  0  0  0  0  0  0  0  0  0  0
  141.9580  161.0910  133.7680 O   0  0  0  0  0  0  0  0  0  0  0  0
  143.8190  159.6770  133.7520 N   0  0  0  0  0  0  0  0  0  0  0  0
  144.8390  160.5680  133.9130 C   0  0  0  0  0  0  0  0  0  0  0  0
  144.7090  162.0240  134.1260 C   0  0  0  0  0  0  0  0  0  0  0  0
  143.7950  162.8060  133.3610 N   0  0  0  0  0  0  0  0  0  0  0  0
  145.4610  162.5990  134.9590 O   0  0  0  0  0  0  0  0  0  0  0  0
  146.0690  159.9350  133.7550 C   0  0  0  0  0  0  0  0  0  0  0  0
  145.7720  158.6230  133.4740 C   0  0  0  0  0  0  0  0  0  0  0  0
  146.6190  157.5510  133.2160 C   0  0  0  0  0  0  0  0  0  0  0  0
  146.0410  156.2940  132.9740 C   0  0  0  0  0  0  0  0  0  0  0  0
  144.6300  156.1240  133.0050 C   0  0  0  0  0  0  0  0  0  0  0  0
  143.9930  154.7620  132.7610 C   0  0  1  0  0  0  0  0  0  0  0  0
  144.6730  153.9970  131.6020 C   0  0  0  0  0  0  0  0  0  0  0  0
  144.2400  154.5000  130.2960 N   0  0  0  0  0  0  0  0  0  0  0  0
  143.9500  153.9200  134.0550 C   0  0  0  0  0  0  0  0  0  0  0  0
  143.3950  152.6370  133.8050 O   0  0  0  0  0  0  0  0  0  0  0  0
  142.0190  152.7080  133.4740 C   0  0  0  0  0  0  0  0  0  0  0  0
  141.5670  151.4200  132.8430 C   0  0  0  0  0  0  0  0  0  0  0  0
  140.2170  151.2190  132.5090 C   0  0  0  0  0  0  0  0  0  0  0  0
  139.8060  150.0140  131.9250 C   0  0  0  0  0  0  0  0  0  0  0  0
  140.7410  149.0060  131.6700 C   0  0  0  0  0  0  0  0  0  0  0  0
  142.0830  149.1940  132.0160 C   0  0  0  0  0  0  0  0  0  0  0  0
  142.4940  150.3940  132.6050 C   0  0  0  0  0  0  0  0  0  0  0  0
  143.8040  157.2440  133.2710 C   0  0  0  0  0  0  0  0  0  0  0  0
  144.4090  158.4910  133.4830 C   0  0  0  0  0  0  0  0  0  0  0  0
  140.9413  159.3636  137.3660 H   0  0  0  0  0  0  0  0  0  0  0  0
  141.8441  160.3202  136.1428 H   0  0  0  0  0  0  0  0  0  0  0  0
  140.0479  160.3291  136.1428 H   0  0  0  0  0  0  0  0  0  0  0  0
  141.7344  157.4520  137.0907 H   0  0  0  0  0  0  0  0  0  0  0  0
  141.4002  156.4066  135.6687 H   0  0  0  0  0  0  0  0  0  0  0  0
  142.8312  157.4924  135.6687 H   0  0  0  0  0  0  0  0  0  0  0  0
  139.0234  157.8162  136.1304 H   0  0  0  0  0  0  0  0  0  0  0  0
  138.9254  158.7353  134.5901 H   0  0  0  0  0  0  0  0  0  0  0  0
  139.5321  157.0446  134.5901 H   0  0  0  0  0  0  0  0  0  0  0  0
  142.8890  162.4040  133.0370 H   0  0  0  0  0  0  0  0  0  0  0  0
  147.0675  160.3891  133.8376 H   0  0  0  0  0  0  0  0  0  0  0  0
  147.7109  157.6836  133.2018 H   0  0  0  0  0  0  0  0  0  0  0  0
  146.6878  155.4309  132.7579 H   0  0  0  0  0  0  0  0  0  0  0  0
  142.9538  154.9445  132.4499 H   0  0  0  0  0  0  0  0  0  0  0  0
  145.7632  154.1162  131.6868 H   0  0  0  0  0  0  0  0  0  0  0  0
  144.3867  152.9374  131.6746 H   0  0  0  0  0  0  0  0  0  0  0  0
  144.8780  155.2750  129.9980 H   0  0  0  0  0  0  0  0  0  0  0  0
  143.2660  154.8760  130.3570 H   0  0  0  0  0  0  0  0  0  0  0  0
  144.2850  153.7360  129.5810 H   0  0  0  0  0  0  0  0  0  0  0  0
  144.9729  153.8011  134.4417 H   0  0  0  0  0  0  0  0  0  0  0  0
  143.3193  154.4389  134.7918 H   0  0  0  0  0  0  0  0  0  0  0  0
  141.4347  152.8888  134.3883 H   0  0  0  0  0  0  0  0  0  0  0  0
  141.8647  153.5300  132.7595 H   0  0  0  0  0  0  0  0  0  0  0  0
  139.4799  152.0112  132.7070 H   0  0  0  0  0  0  0  0  0  0  0  0
  138.7477  149.8607  131.6670 H   0  0  0  0  0  0  0  0  0  0  0  0
  140.4212  148.0656  131.1975 H   0  0  0  0  0  0  0  0  0  0  0  0
  142.8163  148.3968  131.8246 H   0  0  0  0  0  0  0  0  0  0  0  0
  143.5490  150.5342  132.8830 H   0  0  0  0  0  0  0  0  0  0  0  0
  142.7099  157.1374  133.3104 H   0  0  0  0  0  0  0  0  0  0  0  0
  1  2  1  0
  2  3  1  0
  2  4  1  0
  2  5  1  0
  5  6  1  0
  6  7  2  0
  6  8  1  0
  8  9  1  0
  9 10  1  0
 10 11  1  0
 10 12  2  0
  9 13  2  0
 13 14  1  0
 14 15  2  0
 15 16  1  0
 16 17  2  0
 17 18  1  0
 18 19  1  0
 19 20  1  0
 18 21  1  0
 21 22  1  0
 22 23  1  0
 23 24  1  0
 24 25  2  0
 25 26  1  0
 26 27  2  0
 27 28  1  0
 28 29  2  0
 17 30  1  0
 30 31  2  0
 31  8  1  0
 31 14  1  0
 29 24  1  0
  1 32  1  0
  1 33  1  0
  1 34  1  0
  3 35  1  0
  3 36  1  0
  3 37  1  0
  4 38  1  0
  4 39  1  0
  4 40  1  0
 11 41  1  0
 13 42  1  0
 15 43  1  0
 16 44  1  0
 18 45  1  6
 19 46  1  0
 19 47  1  0
 20 48  1  0
 20 49  1  0
 20 50  1  0
 21 51  1  0
 21 52  1  0
 23 53  1  0
 23 54  1  0
 25 55  1  0
 26 56  1  0
 27 57  1  0
 28 58  1  0
 29 59  1  0
 30 60  1  0
M  CHG  2  11  -1  20   1
M  END
>  <UniqueID>  (44) 
44

>  <SMILES>  (44) 
CC(C)(C)OC(=O)n1c(C([NH-])=O)cc2ccc([C@@H](C[NH3+])COCc3ccccc3)cc21

>  <Energy>  (44) 
97.37723462797908

>  <Genealogy>  (44) 
CC(C)(C)OC(=O)n1c(C([NH-])=O)cc2ccc([C@@H](C[NH3+])COCc3ccccc3)cc21 (protonated)
CC(C)(C)OC(=O)n1c(C([NH-])=O)cc2ccc([C@@H](C[NH3+])COCc3ccccc3)cc21 (3D coordinates assigned)
CC(C)(C)OC(=O)n1c(C([NH-])=O)cc2ccc([C@@H](C[NH3+])COCc3ccccc3)cc21 (optimized conformer: 97.37723462797908 kcal/mol)

>  <smiles>  (44) 
CC(C)(C)OC(=O)n1c(C(N)=O)cc2ccc([C@@H](CN)COCc3ccccc3)cc21

>  <score_type>  (44) 
oracle

>  <origin>  (44) 
adg

>  <m_score__min__energy>  (44) 
-9.7100000000000009

>  <m_primary>  (44) 
energy

$$$$
45:0
     RDKit          3D

 31 33  0  0  0  0  0  0  0  0999 V2000
  138.4870  157.2420  133.3600 N   0  0  0  0  0  0  0  0  0  0  0  0
  139.2240  157.9900  134.3290 C   0  0  0  0  0  0  0  0  0  0  0  0
  138.7010  158.2290  135.4500 O   0  0  0  0  0  0  0  0  0  0  0  0
  140.6090  158.4270  134.0660 C   0  0  0  0  0  0  0  0  0  0  0  0
  141.0040  159.7620  134.0690 C   0  0  0  0  0  0  0  0  0  0  0  0
  142.3620  159.7390  133.8530 C   0  0  0  0  0  0  0  0  0  0  0  0
  143.2660  160.7900  133.7470 C   0  0  0  0  0  0  0  0  0  0  0  0
  144.6100  160.4810  133.4830 C   0  0  0  0  0  0  0  0  0  0  0  0
  145.0270  159.1320  133.3200 C   0  0  0  0  0  0  0  0  0  0  0  0
  146.4390  158.7940  133.0280 C   0  0  0  0  0  0  0  0  0  0  0  0
  147.1330  157.6650  133.4390 C   0  0  0  0  0  0  0  0  0  0  0  0
  148.4060  157.7930  132.9260 C   0  0  0  0  0  0  0  0  0  0  0  0
  148.4120  158.9880  132.2350 C   0  0  0  0  0  0  0  0  0  0  0  0
  149.5490  159.5640  131.5120 C   0  0  0  0  0  0  0  0  0  0  0  0
  149.3790  160.1510  130.4120 O   0  0  0  0  0  0  0  0  0  0  0  0
  147.2340  159.5610  132.3130 O   0  0  0  0  0  0  0  0  0  0  0  0
  144.0740  158.0930  133.4330 C   0  0  0  0  0  0  0  0  0  0  0  0
  142.7450  158.4290  133.7180 C   0  0  0  0  0  0  0  0  0  0  0  0
  141.6760  157.6080  133.8440 N   0  0  0  0  0  0  0  0  0  0  0  0
  141.6540  156.1840  133.6500 C   0  0  0  0  0  0  0  0  0  0  0  0
  142.5970  155.4660  134.0780 O   0  0  0  0  0  0  0  0  0  0  0  0
  140.5940  155.5830  132.9830 O   0  0  0  0  0  0  0  0  0  0  0  0
  138.9460  156.8850  132.4930 H   0  0  0  0  0  0  0  0  0  0  0  0
  137.4970  156.9730  133.5480 H   0  0  0  0  0  0  0  0  0  0  0  0
  140.3661  160.6464  134.2133 H   0  0  0  0  0  0  0  0  0  0  0  0
  142.9379  161.8331  133.8665 H   0  0  0  0  0  0  0  0  0  0  0  0
  145.3485  161.2921  133.4014 H   0  0  0  0  0  0  0  0  0  0  0  0
  146.7460  156.8362  134.0500 H   0  0  0  0  0  0  0  0  0  0  0  0
  149.2432  157.0891  133.0430 H   0  0  0  0  0  0  0  0  0  0  0  0
  150.5611  159.4824  131.9350 H   0  0  0  0  0  0  0  0  0  0  0  0
  144.3709  157.0423  133.2997 H   0  0  0  0  0  0  0  0  0  0  0  0
  1  2  1  0
  2  3  2  0
  2  4  1  0
  4  5  2  0
  5  6  1  0
  6  7  2  0
  7  8  1  0
  8  9  2  0
  9 10  1  0
 10 11  2  0
 11 12  1  0
 12 13  2  0
 13 14  1  0
 14 15  2  0
 13 16  1  0
  9 17  1  0
 17 18  2  0
 18 19  1  0
 19 20  1  0
 20 21  2  0
 20 22  1  0
 19  4  1  0
 18  6  1  0
 16 10  1  0
  1 23  1  0
  1 24  1  0
  5 25  1  0
  7 26  1  0
  8 27  1  0
 11 28  1  0
 12 29  1  0
 14 30  1  0
 17 31  1  0
M  CHG  1  22  -1
M  END
>  <UniqueID>  (45) 
45

>  <SMILES>  (45) 
NC(=O)c1cc2ccc(-c3ccc(C=O)o3)cc2n1C(=O)[O-]

>  <Energy>  (45) 
99.9423469091875

>  <Genealogy>  (45) 
NC(=O)c1cc2ccc(-c3ccc(C=O)o3)cc2n1C(=O)[O-] (protonated)
NC(=O)c1cc2ccc(-c3ccc(C=O)o3)cc2n1C(=O)[O-] (3D coordinates assigned)
NC(=O)c1cc2ccc(-c3ccc(C=O)o3)cc2n1C(=O)[O-] (optimized conformer: 99.9423469091875 kcal/mol)

>  <smiles>  (45) 
NC(=O)c1cc2ccc(-c3ccc(C=O)o3)cc2n1C(=O)O

>  <score_type>  (45) 
oracle

>  <origin>  (45) 
adg

>  <m_score__min__energy>  (45) 
-6.8200000000000003

>  <m_primary>  (45) 
energy

$$$$
46:0
     RDKit          3D

 31 32  0  0  0  0  0  0  0  0999 V2000
  148.3730  156.3630  132.7230 C   0  0  0  0  0  0  0  0  0  0  0  0
  148.8340  157.8040  132.9700 C   0  0  0  0  0  0  0  0  0  0  0  0
  149.7040  158.3110  131.8140 C   0  0  0  0  0  0  0  0  0  0  0  0
  147.6500  158.7220  133.2050 C   0  0  0  0  0  0  0  0  0  0  0  0
  147.8680  160.0950  133.4950 C   0  0  0  0  0  0  0  0  0  0  0  0
  146.7880  160.9610  133.7310 C   0  0  0  0  0  0  0  0  0  0  0  0
  145.5020  160.4340  133.6650 C   0  0  0  0  0  0  0  0  0  0  0  0
  144.2870  161.0420  133.8790 C   0  0  0  0  0  0  0  0  0  0  0  0
  143.3360  160.0400  133.6950 C   0  0  0  0  0  0  0  0  0  0  0  0
  141.8790  160.2820  133.7560 C   0  0  0  0  0  0  0  0  0  0  0  0
  141.0490  160.0600  132.6190 N   0  0  0  0  0  0  0  0  0  0  0  0
  141.3660  160.7350  134.8140 O   0  0  0  0  0  0  0  0  0  0  0  0
  143.9410  158.8580  133.3850 N   0  0  0  0  0  0  0  0  0  0  0  0
  143.3220  157.5740  133.2010 C   0  0  0  0  0  0  0  0  0  0  0  0
  142.2090  157.4340  132.3220 N   0  0  0  0  0  0  0  0  0  0  0  0
  143.7680  156.5640  133.8070 O   0  0  0  0  0  0  0  0  0  0  0  0
  145.2670  159.1170  133.3700 C   0  0  0  0  0  0  0  0  0  0  0  0
  146.3240  158.2260  133.1500 C   0  0  0  0  0  0  0  0  0  0  0  0
  148.2118  155.8592  133.6875 H   0  0  0  0  0  0  0  0  0  0  0  0
  147.4328  156.3716  132.1522 H   0  0  0  0  0  0  0  0  0  0  0  0
  149.1436  155.8242  132.1522 H   0  0  0  0  0  0  0  0  0  0  0  0
  149.4501  157.8087  133.8813 H   0  0  0  0  0  0  0  0  0  0  0  0
  150.5877  158.8260  132.2187 H   0  0  0  0  0  0  0  0  0  0  0  0
  150.0265  157.4594  131.1969 H   0  0  0  0  0  0  0  0  0  0  0  0
  149.1220  159.0114  131.1969 H   0  0  0  0  0  0  0  0  0  0  0  0
  148.8957  160.4851  133.5353 H   0  0  0  0  0  0  0  0  0  0  0  0
  146.9537  162.0238  133.9611 H   0  0  0  0  0  0  0  0  0  0  0  0
  144.1047  162.0950  134.1398 H   0  0  0  0  0  0  0  0  0  0  0  0
  141.3620  159.4430  131.8380 H   0  0  0  0  0  0  0  0  0  0  0  0
  141.8610  158.2430  131.7630 H   0  0  0  0  0  0  0  0  0  0  0  0
  146.1294  157.1641  132.9390 H   0  0  0  0  0  0  0  0  0  0  0  0
  1  2  1  0
  2  3  1  0
  2  4  1  0
  4  5  2  0
  5  6  1  0
  6  7  2  0
  7  8  1  0
  8  9  2  0
  9 10  1  0
 10 11  1  0
 10 12  2  0
  9 13  1  0
 13 14  1  0
 14 15  1  0
 14 16  2  0
 13 17  1  0
 17 18  2  0
 18  4  1  0
 17  7  1  0
  1 19  1  0
  1 20  1  0
  1 21  1  0
  2 22  1  0
  3 23  1  0
  3 24  1  0
  3 25  1  0
  5 26  1  0
  6 27  1  0
  8 28  1  0
 11 29  1  0
 15 30  1  0
 18 31  1  0
M  CHG  2  11  -1  15  -1
M  END
>  <UniqueID>  (46) 
46

>  <SMILES>  (46) 
CC(C)c1ccc2cc(C([NH-])=O)n(C([NH-])=O)c2c1

>  <Energy>  (46) 
66.95611684685193

>  <Genealogy>  (46) 
CC(C)c1ccc2cc(C([NH-])=O)n(C([NH-])=O)c2c1 (protonated)
CC(C)c1ccc2cc(C([NH-])=O)n(C([NH-])=O)c2c1 (3D coordinates assigned)
CC(C)c1ccc2cc(C([NH-])=O)n(C([NH-])=O)c2c1 (optimized conformer: 66.95611684685193 kcal/mol)

>  <smiles>  (46) 
CC(C)c1ccc2cc(C(N)=O)n(C(N)=O)c2c1

>  <score_type>  (46) 
oracle

>  <origin>  (46) 
adg

>  <m_score__min__energy>  (46) 
-6.2800000000000002

>  <m_primary>  (46) 
energy

$$$$
47:0
     RDKit          3D

 47 49  0  0  0  0  0  0  0  0999 V2000
  148.4970  158.3230  131.5040 C   0  0  0  0  0  0  0  0  0  0  0  0
  148.1260  159.6510  132.1930 C   0  0  0  0  0  0  0  0  0  0  0  0
  148.8430  159.7260  133.5490 C   0  0  0  0  0  0  0  0  0  0  0  0
  148.5640  160.8520  131.3330 C   0  0  0  0  0  0  0  0  0  0  0  0
  146.7170  159.7090  132.4560 O   0  0  0  0  0  0  0  0  0  0  0  0
  146.0140  158.9450  133.3990 C   0  0  0  0  0  0  0  0  0  0  0  0
  146.6150  158.1410  134.1610 O   0  0  0  0  0  0  0  0  0  0  0  0
  144.5840  159.0600  133.4700 N   0  0  0  0  0  0  0  0  0  0  0  0
  143.8420  160.1740  133.7250 C   0  0  0  0  0  0  0  0  0  0  0  0
  144.3560  161.5580  133.8160 C   0  0  0  0  0  0  0  0  0  0  0  0
  145.7270  161.8130  134.1080 N   0  0  0  0  0  0  0  0  0  0  0  0
  143.5830  162.5260  133.5840 O   0  0  0  0  0  0  0  0  0  0  0  0
  142.4900  159.8510  133.8130 C   0  0  0  0  0  0  0  0  0  0  0  0
  142.4240  158.4940  133.5940 C   0  0  0  0  0  0  0  0  0  0  0  0
  141.3260  157.6400  133.5880 C   0  0  0  0  0  0  0  0  0  0  0  0
  141.5560  156.2700  133.3720 C   0  0  0  0  0  0  0  0  0  0  0  0
  142.8710  155.7840  133.1650 C   0  0  0  0  0  0  0  0  0  0  0  0
  143.1110  154.3100  132.9830 C   0  0  0  0  0  0  0  0  0  0  0  0
  144.3080  154.0580  132.0490 C   0  0  0  0  0  0  0  0  0  0  0  0
  144.2110  154.5190  130.6580 N   0  0  0  0  0  0  0  0  0  0  0  0
  145.0700  152.7530  132.2500 C   0  0  0  0  0  0  0  0  0  0  0  0
  145.7050  154.0830  132.6540 C   0  0  0  0  0  0  0  0  0  0  0  0
  143.9620  156.6810  133.1850 C   0  0  0  0  0  0  0  0  0  0  0  0
  143.7010  158.0400  133.3880 C   0  0  0  0  0  0  0  0  0  0  0  0
  148.7100  157.5606  132.2678 H   0  0  0  0  0  0  0  0  0  0  0  0
  147.6579  157.9887  130.8762 H   0  0  0  0  0  0  0  0  0  0  0  0
  149.3879  158.4720  130.8762 H   0  0  0  0  0  0  0  0  0  0  0  0
  148.1034  159.6486  134.3596 H   0  0  0  0  0  0  0  0  0  0  0  0
  149.5630  158.8983  133.6293 H   0  0  0  0  0  0  0  0  0  0  0  0
  149.3761  160.6848  133.6293 H   0  0  0  0  0  0  0  0  0  0  0  0
  148.8666  161.6817  131.9888 H   0  0  0  0  0  0  0  0  0  0  0  0
  149.4128  160.5582  130.6981 H   0  0  0  0  0  0  0  0  0  0  0  0
  147.7253  161.1736  130.6981 H   0  0  0  0  0  0  0  0  0  0  0  0
  146.4670  161.6560  133.3880 H   0  0  0  0  0  0  0  0  0  0  0  0
  141.6528  160.5353  134.0147 H   0  0  0  0  0  0  0  0  0  0  0  0
  140.3081  158.0251  133.7475 H   0  0  0  0  0  0  0  0  0  0  0  0
  140.7080  155.5694  133.3636 H   0  0  0  0  0  0  0  0  0  0  0  0
  143.3174  153.8553  133.9631 H   0  0  0  0  0  0  0  0  0  0  0  0
  142.2136  153.8616  132.5318 H   0  0  0  0  0  0  0  0  0  0  0  0
  143.2660  154.9370  130.5000 H   0  0  0  0  0  0  0  0  0  0  0  0
  144.9420  155.2450  130.4850 H   0  0  0  0  0  0  0  0  0  0  0  0
  144.3510  153.7410  129.9730 H   0  0  0  0  0  0  0  0  0  0  0  0
  144.7466  152.0402  133.0228 H   0  0  0  0  0  0  0  0  0  0  0  0
  145.3640  151.9150  131.6010 H   0  0  0  0  0  0  0  0  0  0  0  0
  145.8394  154.3277  133.7180 H   0  0  0  0  0  0  0  0  0  0  0  0
  146.6466  154.5996  132.4164 H   0  0  0  0  0  0  0  0  0  0  0  0
  144.9914  156.3196  133.0444 H   0  0  0  0  0  0  0  0  0  0  0  0
  1  2  1  0
  2  3  1  0
  2  4  1  0
  2  5  1  0
  5  6  1  0
  6  7  2  0
  6  8  1  0
  8  9  1  0
  9 10  1  0
 10 11  1  0
 10 12  2  0
  9 13  2  0
 13 14  1  0
 14 15  2  0
 15 16  1  0
 16 17  2  0
 17 18  1  0
 18 19  1  0
 19 20  1  0
 19 21  1  0
 21 22  1  0
 17 23  1  0
 23 24  2  0
 24  8  1  0
 24 14  1  0
 22 19  1  0
  1 25  1  0
  1 26  1  0
  1 27  1  0
  3 28  1  0
  3 29  1  0
  3 30  1  0
  4 31  1  0
  4 32  1  0
  4 33  1  0
 11 34  1  0
 13 35  1  0
 15 36  1  0
 16 37  1  0
 18 38  1  0
 18 39  1  0
 20 40  1  0
 20 41  1  0
 20 42  1  0
 21 43  1  0
 21 44  1  0
 22 45  1  0
 22 46  1  0
 23 47  1  0
M  CHG  2  11  -1  20   1
M  END
>  <UniqueID>  (47) 
47

>  <SMILES>  (47) 
CC(C)(C)OC(=O)n1c(C([NH-])=O)cc2ccc(CC3([NH3+])CC3)cc21

>  <Energy>  (47) 
347.9201931950177

>  <Genealogy>  (47) 
CC(C)(C)OC(=O)n1c(C([NH-])=O)cc2ccc(CC3([NH3+])CC3)cc21 (protonated)
CC(C)(C)OC(=O)n1c(C([NH-])=O)cc2ccc(CC3([NH3+])CC3)cc21 (3D coordinates assigned)
CC(C)(C)OC(=O)n1c(C([NH-])=O)cc2ccc(CC3([NH3+])CC3)cc21 (nonaromatic ring conformer: 347.9201931950177 kcal/mol)

>  <smiles>  (47) 
CC(C)(C)OC(=O)n1c(C(N)=O)cc2ccc(CC3(N)CC3)cc21

>  <score_type>  (47) 
oracle

>  <origin>  (47) 
adg

>  <m_score__min__energy>  (47) 
-7.9800000000000004

>  <m_primary>  (47) 
energy

$$$$
48:0
     RDKit          3D

 44 46  0  0  0  0  0  0  0  0999 V2000
  142.2570  154.4560  133.3850 C   0  0  0  0  0  0  0  0  0  0  0  0
  140.9120  155.1760  133.3720 C   0  0  0  0  0  0  0  0  0  0  0  0
  141.1030  156.6650  133.4800 C   0  0  0  0  0  0  0  0  0  0  0  0
  139.9860  157.5110  133.6920 C   0  0  0  0  0  0  0  0  0  0  0  0
  140.1550  158.8990  133.8350 C   0  0  0  0  0  0  0  0  0  0  0  0
  141.4490  159.4080  133.7650 C   0  0  0  0  0  0  0  0  0  0  0  0
  141.9000  160.7020  133.8970 C   0  0  0  0  0  0  0  0  0  0  0  0
  143.2840  160.6270  133.7560 C   0  0  0  0  0  0  0  0  0  0  0  0
  144.1660  161.8140  133.7430 C   0  0  0  0  0  0  0  0  0  0  0  0
  145.5460  161.6750  134.0770 N   0  0  0  0  0  0  0  0  0  0  0  0
  143.7090  162.9550  133.4740 O   0  0  0  0  0  0  0  0  0  0  0  0
  143.6750  159.3360  133.5540 N   0  0  0  0  0  0  0  0  0  0  0  0
  145.0120  158.8300  133.4170 C   0  0  0  0  0  0  0  0  0  0  0  0
  145.3880  157.8480  134.1150 O   0  0  0  0  0  0  0  0  0  0  0  0
  145.8810  159.4160  132.4910 O   0  0  0  0  0  0  0  0  0  0  0  0
  147.2960  159.4730  132.6670 C   0  0  0  0  0  0  0  0  0  0  0  0
  148.0010  159.7710  131.3320 C   0  0  0  0  0  0  0  0  0  0  0  0
  149.2580  158.9320  131.1260 C   0  0  0  0  0  0  0  0  0  0  0  0
  150.1830  159.7720  130.2480 C   0  0  0  0  0  0  0  0  0  0  0  0
  149.6160  161.1900  130.2300 C   0  0  0  0  0  0  0  0  0  0  0  0
  148.4760  161.2140  131.2370 C   0  0  0  0  0  0  0  0  0  0  0  0
  142.5400  158.6040  133.5580 C   0  0  0  0  0  0  0  0  0  0  0  0
  142.4010  157.2160  133.4280 C   0  0  0  0  0  0  0  0  0  0  0  0
  142.5725  154.2871  134.4252 H   0  0  0  0  0  0  0  0  0  0  0  0
  142.1603  153.4890  132.8696 H   0  0  0  0  0  0  0  0  0  0  0  0
  143.0080  155.0727  132.8696 H   0  0  0  0  0  0  0  0  0  0  0  0
  140.3890  154.9465  132.4319 H   0  0  0  0  0  0  0  0  0  0  0  0
  140.3195  154.8327  134.2328 H   0  0  0  0  0  0  0  0  0  0  0  0
  138.9766  157.0771  133.7452 H   0  0  0  0  0  0  0  0  0  0  0  0
  139.2924  159.5620  133.9971 H   0  0  0  0  0  0  0  0  0  0  0  0
  141.2959  161.6037  134.0758 H   0  0  0  0  0  0  0  0  0  0  0  0
  146.2460  161.3840  133.3580 H   0  0  0  0  0  0  0  0  0  0  0  0
  147.5380  160.2678  133.3880 H   0  0  0  0  0  0  0  0  0  0  0  0
  147.6445  158.4986  133.0401 H   0  0  0  0  0  0  0  0  0  0  0  0
  147.2360  159.5405  130.5760 H   0  0  0  0  0  0  0  0  0  0  0  0
  149.7379  158.7182  132.0924 H   0  0  0  0  0  0  0  0  0  0  0  0
  149.0253  157.9644  130.6574 H   0  0  0  0  0  0  0  0  0  0  0  0
  151.1999  159.7771  130.6673 H   0  0  0  0  0  0  0  0  0  0  0  0
  150.2396  159.3591  129.2300 H   0  0  0  0  0  0  0  0  0  0  0  0
  150.3929  161.9133  130.5186 H   0  0  0  0  0  0  0  0  0  0  0  0
  149.2636  161.4640  129.2246 H   0  0  0  0  0  0  0  0  0  0  0  0
  148.8323  161.5686  132.2154 H   0  0  0  0  0  0  0  0  0  0  0  0
  147.6684  161.8945  130.9294 H   0  0  0  0  0  0  0  0  0  0  0  0
  143.2817  156.5718  133.2889 H   0  0  0  0  0  0  0  0  0  0  0  0
  1  2  1  0
  2  3  1  0
  3  4  2  0
  4  5  1  0
  5  6  2  0
  6  7  1  0
  7  8  2  0
  8  9  1  0
  9 10  1  0
  9 11  2  0
  8 12  1  0
 12 13  1  0
 13 14  2  0
 13 15  1  0
 15 16  1  0
 16 17  1  0
 17 18  1  0
 18 19  1  0
 19 20  1  0
 20 21  1  0
 12 22  1  0
 22 23  2  0
 23  3  1  0
 22  6  1  0
 21 17  1  0
  1 24  1  0
  1 25  1  0
  1 26  1  0
  2 27  1  0
  2 28  1  0
  4 29  1  0
  5 30  1  0
  7 31  1  0
 10 32  1  0
 16 33  1  0
 16 34  1  0
 17 35  1  0
 18 36  1  0
 18 37  1  0
 19 38  1  0
 19 39  1  0
 20 40  1  0
 20 41  1  0
 21 42  1  0
 21 43  1  0
 23 44  1  0
M  CHG  1  10  -1
M  END
>  <UniqueID>  (48) 
48

>  <SMILES>  (48) 
CCc1ccc2cc(C([NH-])=O)n(C(=O)OCC3CCCC3)c2c1

>  <Energy>  (48) 
77.08416516989173

>  <Genealogy>  (48) 
CCc1ccc2cc(C([NH-])=O)n(C(=O)OCC3CCCC3)c2c1 (protonated)
CCc1ccc2cc(C([NH-])=O)n(C(=O)OCC3CCCC3)c2c1 (3D coordinates assigned)
CCc1ccc2cc(C([NH-])=O)n(C(=O)OCC3CCCC3)c2c1 (nonaromatic ring conformer: 77.08416516989173 kcal/mol)

>  <smiles>  (48) 
CCc1ccc2cc(C(N)=O)n(C(=O)OCC3CCCC3)c2c1

>  <score_type>  (48) 
oracle

>  <origin>  (48) 
adg

>  <m_score__min__energy>  (48) 
-8.0399999999999991

>  <m_primary>  (48) 
energy

$$$$
49:0
     RDKit          3D

 27 28  0  0  0  0  0  0  0  0999 V2000
  148.0600  154.2030  133.3330 C   0  0  0  0  0  0  0  0  0  0  0  0
  147.5400  155.0140  132.2310 N   0  0  0  0  0  0  0  0  0  0  0  0
  147.5670  156.4100  132.5870 C   0  0  0  0  0  0  0  0  0  0  0  0
  148.7950  157.1220  132.5910 C   0  0  0  0  0  0  0  0  0  0  0  0
  148.8320  158.4870  132.9210 C   0  0  0  0  0  0  0  0  0  0  0  0
  147.6290  159.1170  133.2240 C   0  0  0  0  0  0  0  0  0  0  0  0
  147.3830  160.4190  133.5950 C   0  0  0  0  0  0  0  0  0  0  0  0
  146.0040  160.4970  133.7780 C   0  0  0  0  0  0  0  0  0  0  0  0
  145.2970  161.7540  134.0990 C   0  0  0  0  0  0  0  0  0  0  0  0
  145.9380  162.7860  134.8430 N   0  0  0  0  0  0  0  0  0  0  0  0
  144.0940  161.8980  133.7550 O   0  0  0  0  0  0  0  0  0  0  0  0
  145.4210  159.2880  133.5380 N   0  0  0  0  0  0  0  0  0  0  0  0
  144.0390  158.9300  133.7090 C   0  0  0  0  0  0  0  0  0  0  0  0
  143.4450  158.2470  132.8330 O   0  0  0  0  0  0  0  0  0  0  0  0
  143.3520  159.3120  134.8550 O   0  0  0  0  0  0  0  0  0  0  0  0
  146.4290  158.4550  133.1980 C   0  0  0  0  0  0  0  0  0  0  0  0
  146.3650  157.0900  132.8920 C   0  0  0  0  0  0  0  0  0  0  0  0
  147.7688  154.6571  134.2916 H   0  0  0  0  0  0  0  0  0  0  0  0
  147.6449  153.1864  133.2677 H   0  0  0  0  0  0  0  0  0  0  0  0
  149.1571  154.1560  133.2677 H   0  0  0  0  0  0  0  0  0  0  0  0
  148.1220  154.8480  131.3780 H   0  0  0  0  0  0  0  0  0  0  0  0
  146.5590  154.7150  132.0170 H   0  0  0  0  0  0  0  0  0  0  0  0
  149.7278  156.5992  132.3329 H   0  0  0  0  0  0  0  0  0  0  0  0
  149.7824  159.0405  132.9393 H   0  0  0  0  0  0  0  0  0  0  0  0
  148.1189  161.2269  133.7205 H   0  0  0  0  0  0  0  0  0  0  0  0
  146.9800  162.8660  134.8610 H   0  0  0  0  0  0  0  0  0  0  0  0
  145.4018  156.5587  132.8889 H   0  0  0  0  0  0  0  0  0  0  0  0
  1  2  1  0
  2  3  1  0
  3  4  2  0
  4  5  1  0
  5  6  2  0
  6  7  1  0
  7  8  2  0
  8  9  1  0
  9 10  1  0
  9 11  2  0
  8 12  1  0
 12 13  1  0
 13 14  2  0
 13 15  1  0
 12 16  1  0
 16 17  2  0
 17  3  1  0
 16  6  1  0
  1 18  1  0
  1 19  1  0
  1 20  1  0
  2 21  1  0
  2 22  1  0
  4 23  1  0
  5 24  1  0
  7 25  1  0
 10 26  1  0
 17 27  1  0
M  CHG  3   2   1  10  -1  15  -1
M  END
>  <UniqueID>  (49) 
49

>  <SMILES>  (49) 
C[NH2+]c1ccc2cc(C([NH-])=O)n(C(=O)[O-])c2c1

>  <Energy>  (49) 
67.12714725259123

>  <Genealogy>  (49) 
C[NH2+]c1ccc2cc(C([NH-])=O)n(C(=O)[O-])c2c1 (protonated)
C[NH2+]c1ccc2cc(C([NH-])=O)n(C(=O)[O-])c2c1 (3D coordinates assigned)
C[NH2+]c1ccc2cc(C([NH-])=O)n(C(=O)[O-])c2c1 (optimized conformer: 67.12714725259123 kcal/mol)

>  <smiles>  (49) 
CNc1ccc2cc(C(N)=O)n(C(=O)O)c2c1

>  <score_type>  (49) 
oracle

>  <origin>  (49) 
adg

>  <m_score__min__energy>  (49) 
-5.6699999999999999

>  <m_primary>  (49) 
energy

$$$$
50:0
     RDKit          3D

 35 37  0  0  0  0  0  0  0  0999 V2000
  148.8160  158.5850  132.8600 C   0  0  0  0  0  0  0  0  0  0  0  0
  147.8960  159.1440  133.7890 O   0  0  0  0  0  0  0  0  0  0  0  0
  147.0000  160.1610  133.4420 C   0  0  0  0  0  0  0  0  0  0  0  0
  147.4250  161.2510  132.9720 O   0  0  0  0  0  0  0  0  0  0  0  0
  145.5900  159.9680  133.6450 N   0  0  0  0  0  0  0  0  0  0  0  0
  144.6430  160.9240  133.8600 C   0  0  0  0  0  0  0  0  0  0  0  0
  144.8960  162.3590  134.1040 C   0  0  0  0  0  0  0  0  0  0  0  0
  145.9960  162.7840  134.9050 N   0  0  0  0  0  0  0  0  0  0  0  0
  144.1020  163.2210  133.6410 O   0  0  0  0  0  0  0  0  0  0  0  0
  143.3730  160.3520  133.9030 C   0  0  0  0  0  0  0  0  0  0  0  0
  143.5740  159.0040  133.7160 C   0  0  0  0  0  0  0  0  0  0  0  0
  142.6540  157.9630  133.6560 C   0  0  0  0  0  0  0  0  0  0  0  0
  143.1390  156.6670  133.4190 C   0  0  0  0  0  0  0  0  0  0  0  0
  144.5280  156.4310  133.2390 C   0  0  0  0  0  0  0  0  0  0  0  0
  145.0300  155.0580  132.9760 C   0  0  0  0  0  0  0  0  0  0  0  0
  146.3580  154.7040  133.2560 C   0  0  0  0  0  0  0  0  0  0  0  0
  146.7950  153.4410  133.0080 N   0  0  0  0  0  0  0  0  0  0  0  0
  145.9640  152.5020  132.4870 C   0  0  0  0  0  0  0  0  0  0  0  0
  146.4450  151.1840  132.2360 N   0  0  0  0  0  0  0  0  0  0  0  0
  144.6740  152.8200  132.2060 N   0  0  0  0  0  0  0  0  0  0  0  0
  144.1920  154.0680  132.4390 C   0  0  0  0  0  0  0  0  0  0  0  0
  145.4310  157.5200  133.3060 C   0  0  0  0  0  0  0  0  0  0  0  0
  144.9200  158.7970  133.5630 C   0  0  0  0  0  0  0  0  0  0  0  0
  149.6323  158.0890  133.4056 H   0  0  0  0  0  0  0  0  0  0  0  0
  148.2973  157.8492  132.2279 H   0  0  0  0  0  0  0  0  0  0  0  0
  149.2301  159.3843  132.2279 H   0  0  0  0  0  0  0  0  0  0  0  0
  146.9800  162.5810  134.6190 H   0  0  0  0  0  0  0  0  0  0  0  0
  142.4137  160.8686  134.0543 H   0  0  0  0  0  0  0  0  0  0  0  0
  141.5783  158.1494  133.7902 H   0  0  0  0  0  0  0  0  0  0  0  0
  142.4344  155.8236  133.3721 H   0  0  0  0  0  0  0  0  0  0  0  0
  147.0476  155.4503  133.6773 H   0  0  0  0  0  0  0  0  0  0  0  0
  146.2710  150.7250  131.3140 H   0  0  0  0  0  0  0  0  0  0  0  0
  146.9750  150.6650  132.9710 H   0  0  0  0  0  0  0  0  0  0  0  0
  143.1430  154.3036  132.2065 H   0  0  0  0  0  0  0  0  0  0  0  0
  146.5101  157.3654  133.1593 H   0  0  0  0  0  0  0  0  0  0  0  0
  1  2  1  0
  2  3  1  0
  3  4  2  0
  3  5  1  0
  5  6  1  0
  6  7  1  0
  7  8  1  0
  7  9  2  0
  6 10  2  0
 10 11  1  0
 11 12  2  0
 12 13  1  0
 13 14  2  0
 14 15  1  0
 15 16  2  0
 16 17  1  0
 17 18  2  0
 18 19  1  0
 18 20  1  0
 20 21  2  0
 14 22  1  0
 22 23  2  0
 23  5  1  0
 23 11  1  0
 21 15  1  0
  1 24  1  0
  1 25  1  0
  1 26  1  0
  8 27  1  0
 10 28  1  0
 12 29  1  0
 13 30  1  0
 16 31  1  0
 19 32  1  0
 19 33  1  0
 21 34  1  0
 22 35  1  0
M  CHG  1   8  -1
M  END
>  <UniqueID>  (50) 
50

>  <SMILES>  (50) 
COC(=O)n1c(C([NH-])=O)cc2ccc(-c3cnc(N)nc3)cc21

>  <Energy>  (50) 
79.6986077663222

>  <Genealogy>  (50) 
COC(=O)n1c(C([NH-])=O)cc2ccc(-c3cnc(N)nc3)cc21 (protonated)
COC(=O)n1c(C([NH-])=O)cc2ccc(-c3cnc(N)nc3)cc21 (3D coordinates assigned)
COC(=O)n1c(C([NH-])=O)cc2ccc(-c3cnc(N)nc3)cc21 (optimized conformer: 79.6986077663222 kcal/mol)

>  <smiles>  (50) 
COC(=O)n1c(C(N)=O)cc2ccc(-c3cnc(N)nc3)cc21

>  <score_type>  (50) 
oracle

>  <origin>  (50) 
adg

>  <m_score__min__energy>  (50) 
-6.6299999999999999

>  <m_primary>  (50) 
energy

$$$$
51:0
     RDKit          3D

 34 36  0  0  0  0  0  0  0  0999 V2000
  140.9330  158.2160  132.3400 N   0  0  0  0  0  0  0  0  0  0  0  0
  141.6150  157.5000  133.3660 C   0  0  0  0  0  0  0  0  0  0  0  0
  140.9490  156.8130  134.1860 O   0  0  0  0  0  0  0  0  0  0  0  0
  143.0910  157.5040  133.4450 C   0  0  0  0  0  0  0  0  0  0  0  0
  143.8670  156.3530  133.3330 C   0  0  0  0  0  0  0  0  0  0  0  0
  145.1720  156.7880  133.3580 C   0  0  0  0  0  0  0  0  0  0  0  0
  146.3580  156.0660  133.2820 C   0  0  0  0  0  0  0  0  0  0  0  0
  147.5680  156.7770  133.3530 C   0  0  0  0  0  0  0  0  0  0  0  0
  147.5690  158.1850  133.5140 C   0  0  0  0  0  0  0  0  0  0  0  0
  148.8700  158.9390  133.5580 C   0  0  0  0  0  0  0  0  0  0  0  0
  149.1020  159.6500  132.2540 C   0  0  0  0  0  0  0  0  0  0  0  0
  149.9570  159.1000  131.2880 C   0  0  0  0  0  0  0  0  0  0  0  0
  150.1300  159.7590  130.0680 C   0  0  0  0  0  0  0  0  0  0  0  0
  149.4660  160.9180  129.8170 N   0  0  0  0  0  0  0  0  0  0  0  0
  148.6220  161.4680  130.7320 C   0  0  0  0  0  0  0  0  0  0  0  0
  148.4210  160.8420  131.9640 C   0  0  0  0  0  0  0  0  0  0  0  0
  146.3440  158.8850  133.5780 C   0  0  0  0  0  0  0  0  0  0  0  0
  145.1550  158.1530  133.4860 C   0  0  0  0  0  0  0  0  0  0  0  0
  143.8840  158.6080  133.5440 N   0  0  0  0  0  0  0  0  0  0  0  0
  143.4780  159.9690  133.7650 C   0  0  0  0  0  0  0  0  0  0  0  0
  142.2980  160.4760  133.1460 N   0  0  0  0  0  0  0  0  0  0  0  0
  144.1470  160.7120  134.5320 O   0  0  0  0  0  0  0  0  0  0  0  0
  141.4040  158.9900  131.8220 H   0  0  0  0  0  0  0  0  0  0  0  0
  143.5118  155.3158  133.2435 H   0  0  0  0  0  0  0  0  0  0  0  0
  146.3493  154.9718  133.1697 H   0  0  0  0  0  0  0  0  0  0  0  0
  148.5231  156.2358  133.2830 H   0  0  0  0  0  0  0  0  0  0  0  0
  148.8350  159.6769  134.3730 H   0  0  0  0  0  0  0  0  0  0  0  0
  149.6914  158.2280  133.7304 H   0  0  0  0  0  0  0  0  0  0  0  0
  150.4872  158.1574  131.4890 H   0  0  0  0  0  0  0  0  0  0  0  0
  150.8056  159.3385  129.3085 H   0  0  0  0  0  0  0  0  0  0  0  0
  148.0975  162.4068  130.5008 H   0  0  0  0  0  0  0  0  0  0  0  0
  147.7334  161.2805  132.7022 H   0  0  0  0  0  0  0  0  0  0  0  0
  146.3251  159.9784  133.6972 H   0  0  0  0  0  0  0  0  0  0  0  0
  141.9780  160.1110  132.2220 H   0  0  0  0  0  0  0  0  0  0  0  0
  1  2  1  0
  2  3  2  0
  2  4  1  0
  4  5  2  0
  5  6  1  0
  6  7  2  0
  7  8  1  0
  8  9  2  0
  9 10  1  0
 10 11  1  0
 11 12  2  0
 12 13  1  0
 13 14  2  0
 14 15  1  0
 15 16  2  0
  9 17  1  0
 17 18  2  0
 18 19  1  0
 19 20  1  0
 20 21  1  0
 20 22  2  0
 19  4  1  0
 18  6  1  0
 16 11  1  0
  1 23  1  0
  5 24  1  0
  7 25  1  0
  8 26  1  0
 10 27  1  0
 10 28  1  0
 12 29  1  0
 13 30  1  0
 15 31  1  0
 16 32  1  0
 17 33  1  0
 21 34  1  0
M  CHG  2   1  -1  21  -1
M  END
>  <UniqueID>  (51) 
51

>  <SMILES>  (51) 
[NH-]C(=O)c1cc2ccc(Cc3ccncc3)cc2n1C([NH-])=O

>  <Energy>  (51) 
75.49784090803784

>  <Genealogy>  (51) 
[NH-]C(=O)c1cc2ccc(Cc3ccncc3)cc2n1C([NH-])=O (protonated)
[NH-]C(=O)c1cc2ccc(Cc3ccncc3)cc2n1C([NH-])=O (3D coordinates assigned)
[NH-]C(=O)c1cc2ccc(Cc3ccncc3)cc2n1C([NH-])=O (optimized conformer: 75.49784090803784 kcal/mol)

>  <smiles>  (51) 
NC(=O)c1cc2ccc(Cc3ccncc3)cc2n1C(N)=O

>  <score_type>  (51) 
oracle

>  <origin>  (51) 
adg

>  <m_score__min__energy>  (51) 
-7.9199999999999999

>  <m_primary>  (51) 
energy

$$$$
52:0
     RDKit          3D

 35 37  0  0  0  0  0  0  0  0999 V2000
  148.6200  158.1100  131.7270 N   0  0  0  0  0  0  0  0  0  0  0  0
  148.1920  158.7280  132.9370 C   0  0  0  0  0  0  0  0  0  0  0  0
  149.0400  158.9790  133.8360 O   0  0  0  0  0  0  0  0  0  0  0  0
  146.7650  159.0240  133.1760 C   0  0  0  0  0  0  0  0  0  0  0  0
  146.2540  160.3170  133.2680 C   0  0  0  0  0  0  0  0  0  0  0  0
  144.9260  160.1640  133.5880 C   0  0  0  0  0  0  0  0  0  0  0  0
  143.9350  161.1230  133.7840 C   0  0  0  0  0  0  0  0  0  0  0  0
  142.6340  160.6760  134.0700 C   0  0  0  0  0  0  0  0  0  0  0  0
  142.3490  159.2910  134.1570 C   0  0  0  0  0  0  0  0  0  0  0  0
  140.9410  158.8250  134.4090 C   0  0  0  0  0  0  0  0  0  0  0  0
  140.1250  158.9330  133.1510 C   0  0  0  0  0  0  0  0  0  0  0  0
  139.5170  157.7920  132.5990 C   0  0  0  0  0  0  0  0  0  0  0  0
  138.7290  157.9010  131.4500 C   0  0  0  0  0  0  0  0  0  0  0  0
  138.5320  159.1480  130.8500 C   0  0  0  0  0  0  0  0  0  0  0  0
  139.1230  160.2890  131.3990 C   0  0  0  0  0  0  0  0  0  0  0  0
  138.9250  161.4990  130.8200 F   0  0  0  0  0  0  0  0  0  0  0  0
  139.9140  160.1850  132.5480 C   0  0  0  0  0  0  0  0  0  0  0  0
  143.3780  158.3470  133.9410 C   0  0  0  0  0  0  0  0  0  0  0  0
  144.6680  158.8200  133.6740 C   0  0  0  0  0  0  0  0  0  0  0  0
  145.7850  158.1050  133.4190 N   0  0  0  0  0  0  0  0  0  0  0  0
  145.8760  156.6740  133.3250 C   0  0  0  0  0  0  0  0  0  0  0  0
  146.6030  156.0700  132.2580 N   0  0  0  0  0  0  0  0  0  0  0  0
  145.2870  155.9470  134.1670 O   0  0  0  0  0  0  0  0  0  0  0  0
  148.3410  157.1310  131.4960 H   0  0  0  0  0  0  0  0  0  0  0  0
  146.7983  161.2608  133.1166 H   0  0  0  0  0  0  0  0  0  0  0  0
  144.1638  162.1969  133.7170 H   0  0  0  0  0  0  0  0  0  0  0  0
  141.8288  161.4086  134.2279 H   0  0  0  0  0  0  0  0  0  0  0  0
  140.9593  157.7765  134.7412 H   0  0  0  0  0  0  0  0  0  0  0  0
  140.4874  159.4576  135.1863 H   0  0  0  0  0  0  0  0  0  0  0  0
  139.6620  156.8101  133.0731 H   0  0  0  0  0  0  0  0  0  0  0  0
  138.2629  157.0037  131.0169 H   0  0  0  0  0  0  0  0  0  0  0  0
  137.9116  159.2311  129.9455 H   0  0  0  0  0  0  0  0  0  0  0  0
  140.3725  161.0862  132.9812 H   0  0  0  0  0  0  0  0  0  0  0  0
  143.1705  157.2675  133.9817 H   0  0  0  0  0  0  0  0  0  0  0  0
  146.9880  156.6470  131.4770 H   0  0  0  0  0  0  0  0  0  0  0  0
  1  2  1  0
  2  3  2  0
  2  4  1  0
  4  5  2  0
  5  6  1  0
  6  7  2  0
  7  8  1  0
  8  9  2  0
  9 10  1  0
 10 11  1  0
 11 12  2  0
 12 13  1  0
 13 14  2  0
 14 15  1  0
 15 16  1  0
 15 17  2  0
  9 18  1  0
 18 19  2  0
 19 20  1  0
 20 21  1  0
 21 22  1  0
 21 23  2  0
 20  4  1  0
 19  6  1  0
 17 11  1  0
  1 24  1  0
  5 25  1  0
  7 26  1  0
  8 27  1  0
 10 28  1  0
 10 29  1  0
 12 30  1  0
 13 31  1  0
 14 32  1  0
 17 33  1  0
 18 34  1  0
 22 35  1  0
M  CHG  2   1  -1  22  -1
M  END
>  <UniqueID>  (52) 
52

>  <SMILES>  (52) 
[NH-]C(=O)c1cc2ccc(Cc3cccc(F)c3)cc2n1C([NH-])=O

>  <Energy>  (52) 
75.62604641896003

>  <Genealogy>  (52) 
[NH-]C(=O)c1cc2ccc(Cc3cccc(F)c3)cc2n1C([NH-])=O (protonated)
[NH-]C(=O)c1cc2ccc(Cc3cccc(F)c3)cc2n1C([NH-])=O (3D coordinates assigned)
[NH-]C(=O)c1cc2ccc(Cc3cccc(F)c3)cc2n1C([NH-])=O (optimized conformer: 75.62604641896003 kcal/mol)

>  <smiles>  (52) 
NC(=O)c1cc2ccc(Cc3cccc(F)c3)cc2n1C(N)=O

>  <score_type>  (52) 
oracle

>  <origin>  (52) 
adg

>  <m_score__min__energy>  (52) 
-7.6699999999999999

>  <m_primary>  (52) 
energy

$$$$
53:0
     RDKit          3D

 53 55  0  0  0  0  0  0  0  0999 V2000
  149.6140  151.8510  132.8250 C   0  0  0  0  0  0  0  0  0  0  0  0
  149.2610  153.2060  132.2150 C   0  0  0  0  0  0  0  0  0  0  0  0
  148.4250  154.0870  133.1590 C   0  0  0  0  0  0  0  0  0  0  0  0
  147.0130  154.3990  132.6450 C   0  0  0  0  0  0  0  0  0  0  0  0
  146.8100  155.8080  132.5410 O   0  0  0  0  0  0  0  0  0  0  0  0
  146.4060  156.6140  133.6110 C   0  0  0  0  0  0  0  0  0  0  0  0
  146.1200  156.1030  134.7270 O   0  0  0  0  0  0  0  0  0  0  0  0
  146.3650  158.0390  133.4500 N   0  0  0  0  0  0  0  0  0  0  0  0
  147.3970  158.8800  133.1660 C   0  0  0  0  0  0  0  0  0  0  0  0
  148.7720  158.4710  132.8110 C   0  0  0  0  0  0  0  0  0  0  0  0
  149.0770  157.0900  132.6310 N   0  0  0  0  0  0  0  0  0  0  0  0
  149.6880  159.3260  132.6910 O   0  0  0  0  0  0  0  0  0  0  0  0
  146.9680  160.2060  133.2010 C   0  0  0  0  0  0  0  0  0  0  0  0
  145.6290  160.1480  133.5220 C   0  0  0  0  0  0  0  0  0  0  0  0
  144.7110  161.1720  133.7300 C   0  0  0  0  0  0  0  0  0  0  0  0
  143.4040  160.8180  134.1100 C   0  0  0  0  0  0  0  0  0  0  0  0
  143.0390  159.4560  134.2750 C   0  0  0  0  0  0  0  0  0  0  0  0
  141.7070  159.1070  134.7050 N   0  0  0  0  0  0  0  0  0  0  0  0
  140.7320  158.5880  133.7390 C   0  0  0  0  0  0  0  0  0  0  0  0
  139.5300  157.9800  134.4820 C   0  0  1  0  0  0  0  0  0  0  0  0
  138.7360  157.0500  133.5650 C   0  0  0  0  0  0  0  0  0  0  0  0
  140.0020  157.2470  135.5960 O   0  0  0  0  0  0  0  0  0  0  0  0
  140.4770  158.1110  136.6210 C   0  0  1  0  0  0  0  0  0  0  0  0
  141.3460  157.2870  137.5700 C   0  0  0  0  0  0  0  0  0  0  0  0
  141.2690  159.3390  136.0860 C   0  0  0  0  0  0  0  0  0  0  0  0
  144.0050  158.4470  134.0580 C   0  0  0  0  0  0  0  0  0  0  0  0
  145.2920  158.8280  133.6670 C   0  0  0  0  0  0  0  0  0  0  0  0
  149.5943  151.9265  133.9222 H   0  0  0  0  0  0  0  0  0  0  0  0
  148.8818  151.0989  132.4960 H   0  0  0  0  0  0  0  0  0  0  0  0
  150.6201  151.5517  132.4960 H   0  0  0  0  0  0  0  0  0  0  0  0
  150.1941  153.7364  131.9741 H   0  0  0  0  0  0  0  0  0  0  0  0
  148.6549  153.0162  131.3169 H   0  0  0  0  0  0  0  0  0  0  0  0
  148.3335  153.5676  134.1243 H   0  0  0  0  0  0  0  0  0  0  0  0
  148.9509  155.0497  133.2403 H   0  0  0  0  0  0  0  0  0  0  0  0
  146.8813  153.9417  131.6533 H   0  0  0  0  0  0  0  0  0  0  0  0
  146.2809  153.9894  133.3565 H   0  0  0  0  0  0  0  0  0  0  0  0
  148.6990  156.5580  131.8160 H   0  0  0  0  0  0  0  0  0  0  0  0
  147.5702  161.1070  133.0125 H   0  0  0  0  0  0  0  0  0  0  0  0
  144.9983  162.2260  133.6013 H   0  0  0  0  0  0  0  0  0  0  0  0
  142.6557  161.6058  134.2814 H   0  0  0  0  0  0  0  0  0  0  0  0
  140.3849  159.4090  133.0945 H   0  0  0  0  0  0  0  0  0  0  0  0
  141.2095  157.8097  133.1257 H   0  0  0  0  0  0  0  0  0  0  0  0
  138.8672  158.7940  134.8108 H   0  0  0  0  0  0  0  0  0  0  0  0
  138.1415  156.3537  134.1747 H   0  0  0  0  0  0  0  0  0  0  0  0
  138.0645  157.6467  132.9302 H   0  0  0  0  0  0  0  0  0  0  0  0
  139.4306  156.4803  132.9302 H   0  0  0  0  0  0  0  0  0  0  0  0
  139.6038  158.5309  137.1417 H   0  0  0  0  0  0  0  0  0  0  0  0
  141.0871  157.5325  138.6105 H   0  0  0  0  0  0  0  0  0  0  0  0
  141.1702  156.2159  137.3913 H   0  0  0  0  0  0  0  0  0  0  0  0
  142.4062  157.5194  137.3913 H   0  0  0  0  0  0  0  0  0  0  0  0
  140.6218  160.2279  136.1158 H   0  0  0  0  0  0  0  0  0  0  0  0
  142.1554  159.4934  136.7188 H   0  0  0  0  0  0  0  0  0  0  0  0
  143.7497  157.3857  134.1938 H   0  0  0  0  0  0  0  0  0  0  0  0
  1  2  1  0
  2  3  1  0
  3  4  1  0
  4  5  1  0
  5  6  1  0
  6  7  2  0
  6  8  1  0
  8  9  1  0
  9 10  1  0
 10 11  1  0
 10 12  2  0
  9 13  2  0
 13 14  1  0
 14 15  2  0
 15 16  1  0
 16 17  2  0
 17 18  1  0
 18 19  1  0
 19 20  1  0
 20 21  1  0
 20 22  1  0
 22 23  1  0
 23 24  1  0
 23 25  1  0
 17 26  1  0
 26 27  2  0
 27  8  1  0
 27 14  1  0
 25 18  1  0
  1 28  1  0
  1 29  1  0
  1 30  1  0
  2 31  1  0
  2 32  1  0
  3 33  1  0
  3 34  1  0
  4 35  1  0
  4 36  1  0
 11 37  1  0
 13 38  1  0
 15 39  1  0
 16 40  1  0
 19 41  1  0
 19 42  1  0
 20 43  1  1
 21 44  1  0
 21 45  1  0
 21 46  1  0
 23 47  1  1
 24 48  1  0
 24 49  1  0
 24 50  1  0
 25 51  1  0
 25 52  1  0
 26 53  1  0
M  CHG  1  11  -1
M  END
>  <UniqueID>  (53) 
53

>  <SMILES>  (53) 
CCCCOC(=O)n1c(C([NH-])=O)cc2ccc(N3C[C@@H](C)O[C@@H](C)C3)cc21

>  <Energy>  (53) 
92.96684216469346

>  <Genealogy>  (53) 
CCCCOC(=O)n1c(C([NH-])=O)cc2ccc(N3C[C@@H](C)O[C@@H](C)C3)cc21 (protonated)
CCCCOC(=O)n1c(C([NH-])=O)cc2ccc(N3C[C@@H](C)O[C@@H](C)C3)cc21 (3D coordinates assigned)
CCCCOC(=O)n1c(C([NH-])=O)cc2ccc(N3C[C@@H](C)O[C@@H](C)C3)cc21 (nonaromatic ring conformer: 92.96684216469346 kcal/mol)

>  <smiles>  (53) 
CCCCOC(=O)n1c(C(N)=O)cc2ccc(N3C[C@@H](C)O[C@@H](C)C3)cc21

>  <score_type>  (53) 
oracle

>  <origin>  (53) 
adg

>  <m_score__min__energy>  (53) 
-8.0399999999999991

>  <m_primary>  (53) 
energy

$$$$
54:0
     RDKit          3D

 48 50  0  0  0  0  0  0  0  0999 V2000
  139.0760  159.7640  131.0780 C   0  0  0  0  0  0  0  0  0  0  0  0
  139.4230  159.4310  132.4680 N   0  0  0  0  0  0  0  0  0  0  0  0
  138.6850  158.2210  132.9060 C   0  0  0  0  0  0  0  0  0  0  0  0
  139.3410  157.5690  134.1280 C   0  0  0  0  0  0  0  0  0  0  0  0
  140.7730  157.1040  133.8080 C   0  0  0  0  0  0  0  0  0  0  0  0
  141.4180  157.9020  132.6590 C   0  0  2  0  0  0  0  0  0  0  0  0
  142.8370  157.8810  132.8130 O   0  0  0  0  0  0  0  0  0  0  0  0
  143.5160  158.5510  133.8390 C   0  0  0  0  0  0  0  0  0  0  0  0
  142.9650  158.7240  134.9600 O   0  0  0  0  0  0  0  0  0  0  0  0
  144.8340  159.0690  133.6000 N   0  0  0  0  0  0  0  0  0  0  0  0
  145.2390  160.3690  133.6540 C   0  0  0  0  0  0  0  0  0  0  0  0
  144.3600  161.5460  133.8220 C   0  0  0  0  0  0  0  0  0  0  0  0
  142.9470  161.3980  133.7060 N   0  0  0  0  0  0  0  0  0  0  0  0
  144.8410  162.6740  134.1040 O   0  0  0  0  0  0  0  0  0  0  0  0
  146.6120  160.4620  133.4470 C   0  0  0  0  0  0  0  0  0  0  0  0
  147.0400  159.1680  133.2550 C   0  0  0  0  0  0  0  0  0  0  0  0
  148.3170  158.6760  133.0180 C   0  0  0  0  0  0  0  0  0  0  0  0
  148.4760  157.2870  132.8870 C   0  0  0  0  0  0  0  0  0  0  0  0
  147.3640  156.4050  133.0020 C   0  0  0  0  0  0  0  0  0  0  0  0
  147.5410  154.9690  132.8780 N   0  0  0  0  0  0  0  0  0  0  0  0
  146.3970  154.0590  133.0150 C   0  0  0  0  0  0  0  0  0  0  0  0
  148.8690  154.4010  132.6090 C   0  0  0  0  0  0  0  0  0  0  0  0
  146.0790  156.9560  133.2460 C   0  0  0  0  0  0  0  0  0  0  0  0
  145.9490  158.3460  133.3530 C   0  0  0  0  0  0  0  0  0  0  0  0
  140.8960  159.3520  132.6540 C   0  0  0  0  0  0  0  0  0  0  0  0
  138.2824  160.5256  131.0706 H   0  0  0  0  0  0  0  0  0  0  0  0
  139.9650  160.1557  130.5619 H   0  0  0  0  0  0  0  0  0  0  0  0
  138.7212  158.8597  130.5619 H   0  0  0  0  0  0  0  0  0  0  0  0
  137.6543  158.5059  133.1641 H   0  0  0  0  0  0  0  0  0  0  0  0
  138.6978  157.4938  132.0808 H   0  0  0  0  0  0  0  0  0  0  0  0
  139.3760  158.2998  134.9494 H   0  0  0  0  0  0  0  0  0  0  0  0
  138.7453  156.6904  134.4164 H   0  0  0  0  0  0  0  0  0  0  0  0
  141.3913  157.2246  134.7098 H   0  0  0  0  0  0  0  0  0  0  0  0
  140.7160  156.0527  133.4893 H   0  0  0  0  0  0  0  0  0  0  0  0
  141.1504  157.4404  131.6971 H   0  0  0  0  0  0  0  0  0  0  0  0
  142.4750  160.5110  133.9900 H   0  0  0  0  0  0  0  0  0  0  0  0
  147.2249  161.3754  133.4386 H   0  0  0  0  0  0  0  0  0  0  0  0
  149.1787  159.3546  132.9353 H   0  0  0  0  0  0  0  0  0  0  0  0
  149.4764  156.8733  132.6922 H   0  0  0  0  0  0  0  0  0  0  0  0
  146.1870  153.8920  134.0818 H   0  0  0  0  0  0  0  0  0  0  0  0
  145.5143  154.5045  132.5329 H   0  0  0  0  0  0  0  0  0  0  0  0
  146.6325  153.0987  132.5329 H   0  0  0  0  0  0  0  0  0  0  0  0
  149.3750  154.1846  133.5614 H   0  0  0  0  0  0  0  0  0  0  0  0
  148.7599  153.4708  132.0321 H   0  0  0  0  0  0  0  0  0  0  0  0
  149.4663  155.1224  132.0321 H   0  0  0  0  0  0  0  0  0  0  0  0
  145.2004  156.3023  133.3493 H   0  0  0  0  0  0  0  0  0  0  0  0
  141.1552  159.8226  133.6139 H   0  0  0  0  0  0  0  0  0  0  0  0
  141.3663  159.8715  131.8061 H   0  0  0  0  0  0  0  0  0  0  0  0
  1  2  1  0
  2  3  1  0
  3  4  1  0
  4  5  1  0
  5  6  1  0
  6  7  1  0
  7  8  1  0
  8  9  2  0
  8 10  1  0
 10 11  1  0
 11 12  1  0
 12 13  1  0
 12 14  2  0
 11 15  2  0
 15 16  1  0
 16 17  2  0
 17 18  1  0
 18 19  2  0
 19 20  1  0
 20 21  1  0
 20 22  1  0
 19 23  1  0
 23 24  2  0
  6 25  1  0
 25  2  1  0
 24 10  1  0
 24 16  1  0
  1 26  1  0
  1 27  1  0
  1 28  1  0
  3 29  1  0
  3 30  1  0
  4 31  1  0
  4 32  1  0
  5 33  1  0
  5 34  1  0
  6 35  1  6
 13 36  1  0
 15 37  1  0
 17 38  1  0
 18 39  1  0
 21 40  1  0
 21 41  1  0
 21 42  1  0
 22 43  1  0
 22 44  1  0
 22 45  1  0
 23 46  1  0
 25 47  1  0
 25 48  1  0
M  CHG  1  13  -1
M  END
>  <UniqueID>  (54) 
54

>  <SMILES>  (54) 
CN1CCC[C@H](OC(=O)n2c(C([NH-])=O)cc3ccc(N(C)C)cc32)C1

>  <Energy>  (54) 
94.27214232222076

>  <Genealogy>  (54) 
CN1CCCC(OC(=O)n2c(C([NH-])=O)cc3ccc(N(C)C)cc32)C1 (protonated)
CN1CCC[C@H](OC(=O)n2c(C([NH-])=O)cc3ccc(N(C)C)cc32)C1 (chirality)
CN1CCC[C@H](OC(=O)n2c(C([NH-])=O)cc3ccc(N(C)C)cc32)C1 (3D coordinates assigned)
CN1CCC[C@H](OC(=O)n2c(C([NH-])=O)cc3ccc(N(C)C)cc32)C1 (nonaromatic ring conformer: 94.27214232222076 kcal/mol)

>  <smiles>  (54) 
CN1CCCC(OC(=O)n2c(C(N)=O)cc3ccc(N(C)C)cc32)C1

>  <score_type>  (54) 
oracle

>  <origin>  (54) 
adg

>  <m_score__min__energy>  (54) 
-7.5599999999999996

>  <m_primary>  (54) 
energy

$$$$
55:0
     RDKit          3D

 49 50  0  0  0  0  0  0  0  0999 V2000
  147.3900  155.0210  134.7370 C   0  0  0  0  0  0  0  0  0  0  0  0
  147.2630  154.7240  133.2300 C   0  0  0  0  0  0  0  0  0  0  0  0
  146.3980  153.4690  133.0450 C   0  0  0  0  0  0  0  0  0  0  0  0
  148.6480  154.4740  132.6050 C   0  0  0  0  0  0  0  0  0  0  0  0
  146.5980  155.7980  132.5530 O   0  0  0  0  0  0  0  0  0  0  0  0
  145.4520  156.4790  132.9930 C   0  0  0  0  0  0  0  0  0  0  0  0
  144.3690  155.8670  133.1950 O   0  0  0  0  0  0  0  0  0  0  0  0
  145.5210  157.8950  133.2120 N   0  0  0  0  0  0  0  0  0  0  0  0
  146.6220  158.6950  133.1640 C   0  0  0  0  0  0  0  0  0  0  0  0
  148.0160  158.2380  132.9900 C   0  0  0  0  0  0  0  0  0  0  0  0
  148.4080  157.4680  131.8520 N   0  0  0  0  0  0  0  0  0  0  0  0
  148.8650  158.4900  133.8860 O   0  0  0  0  0  0  0  0  0  0  0  0
  146.2650  160.0280  133.3460 C   0  0  0  0  0  0  0  0  0  0  0  0
  144.8990  160.0190  133.5190 C   0  0  0  0  0  0  0  0  0  0  0  0
  144.0150  161.0720  133.7250 C   0  0  0  0  0  0  0  0  0  0  0  0
  142.6460  160.7720  133.8250 C   0  0  0  0  0  0  0  0  0  0  0  0
  142.1800  159.4390  133.7050 C   0  0  0  0  0  0  0  0  0  0  0  0
  140.7630  159.1880  133.7800 N   0  0  0  0  0  0  0  0  0  0  0  0
  140.1070  157.9610  133.3210 C   0  0  0  0  0  0  0  0  0  0  0  0
  138.7900  158.2870  132.6120 C   0  0  0  0  0  0  0  0  0  0  0  0
  138.9790  159.6840  131.5160 S   0  0  0  0  0  0  0  0  0  0  0  0
  137.4270  160.0800  130.7400 C   0  0  0  0  0  0  0  0  0  0  0  0
  139.4680  160.8780  132.2860 O   0  0  0  0  0  0  0  0  0  0  0  0
  139.9830  159.3390  130.4520 O   0  0  0  0  0  0  0  0  0  0  0  0
  143.1150  158.3940  133.4950 C   0  0  0  0  0  0  0  0  0  0  0  0
  144.4740  158.7190  133.4300 C   0  0  0  0  0  0  0  0  0  0  0  0
  147.0215  154.1593  135.3129 H   0  0  0  0  0  0  0  0  0  0  0  0
  148.4454  155.2047  134.9868 H   0  0  0  0  0  0  0  0  0  0  0  0
  146.7938  155.9110  134.9868 H   0  0  0  0  0  0  0  0  0  0  0  0
  146.1205  153.0664  134.0304 H   0  0  0  0  0  0  0  0  0  0  0  0
  145.4874  153.7304  132.4861 H   0  0  0  0  0  0  0  0  0  0  0  0
  146.9664  152.7110  132.4861 H   0  0  0  0  0  0  0  0  0  0  0  0
  149.3920  154.3397  133.4040 H   0  0  0  0  0  0  0  0  0  0  0  0
  148.6111  153.5680  131.9823 H   0  0  0  0  0  0  0  0  0  0  0  0
  148.9302  155.3357  131.9823 H   0  0  0  0  0  0  0  0  0  0  0  0
  147.7000  157.0850  131.1880 H   0  0  0  0  0  0  0  0  0  0  0  0
  149.4080  157.1960  131.7240 H   0  0  0  0  0  0  0  0  0  0  0  0
  146.9322  160.9026  133.3506 H   0  0  0  0  0  0  0  0  0  0  0  0
  144.3761  162.1078  133.8072 H   0  0  0  0  0  0  0  0  0  0  0  0
  141.9249  161.5842  133.9991 H   0  0  0  0  0  0  0  0  0  0  0  0
  140.1410  159.9560  134.1190 H   0  0  0  0  0  0  0  0  0  0  0  0
  140.7733  157.4347  132.6218 H   0  0  0  0  0  0  0  0  0  0  0  0
  139.8925  157.3260  134.1932 H   0  0  0  0  0  0  0  0  0  0  0  0
  138.4707  157.4119  132.0269 H   0  0  0  0  0  0  0  0  0  0  0  0
  138.0366  158.5391  133.3728 H   0  0  0  0  0  0  0  0  0  0  0  0
  136.6691  160.2734  131.5135 H   0  0  0  0  0  0  0  0  0  0  0  0
  137.5484  160.9760  130.1135 H   0  0  0  0  0  0  0  0  0  0  0  0
  137.1043  159.2354  130.1135 H   0  0  0  0  0  0  0  0  0  0  0  0
  142.7796  157.3521  133.3857 H   0  0  0  0  0  0  0  0  0  0  0  0
  1  2  1  0
  2  3  1  0
  2  4  1  0
  2  5  1  0
  5  6  1  0
  6  7  2  0
  6  8  1  0
  8  9  1  0
  9 10  1  0
 10 11  1  0
 10 12  2  0
  9 13  2  0
 13 14  1  0
 14 15  2  0
 15 16  1  0
 16 17  2  0
 17 18  1  0
 18 19  1  0
 19 20  1  0
 20 21  1  0
 21 22  1  0
 21 23  2  0
 21 24  2  0
 17 25  1  0
 25 26  2  0
 26  8  1  0
 26 14  1  0
  1 27  1  0
  1 28  1  0
  1 29  1  0
  3 30  1  0
  3 31  1  0
  3 32  1  0
  4 33  1  0
  4 34  1  0
  4 35  1  0
 11 36  1  0
 11 37  1  0
 13 38  1  0
 15 39  1  0
 16 40  1  0
 18 41  1  0
 19 42  1  0
 19 43  1  0
 20 44  1  0
 20 45  1  0
 22 46  1  0
 22 47  1  0
 22 48  1  0
 25 49  1  0
M  END
>  <UniqueID>  (55) 
55

>  <SMILES>  (55) 
CC(C)(C)OC(=O)n1c(C(N)=O)cc2ccc(NCCS(C)(=O)=O)cc21

>  <Energy>  (55) 
71.43478257301206

>  <Genealogy>  (55) 
CC(C)(C)OC(=O)n1c(C(N)=O)cc2ccc(NCCS(C)(=O)=O)cc21 (3D coordinates assigned)
CC(C)(C)OC(=O)n1c(C(N)=O)cc2ccc(NCCS(C)(=O)=O)cc21 (optimized conformer: 71.43478257301206 kcal/mol)

>  <smiles>  (55) 
CC(C)(C)OC(=O)n1c(C(N)=O)cc2ccc(NCCS(C)(=O)=O)cc21

>  <score_type>  (55) 
oracle

>  <origin>  (55) 
adg

>  <m_score__min__energy>  (55) 
-7.8600000000000003

>  <m_primary>  (55) 
energy

$$$$
56:0
     RDKit          3D

 58 61  0  0  0  0  0  0  0  0999 V2000
  145.5700  155.1670  134.8390 C   0  0  0  0  0  0  0  0  0  0  0  0
  146.7140  155.8600  134.3550 O   0  0  0  0  0  0  0  0  0  0  0  0
  146.7090  156.5990  133.1680 C   0  0  0  0  0  0  0  0  0  0  0  0
  146.7660  155.9920  132.0640 O   0  0  0  0  0  0  0  0  0  0  0  0
  146.5940  158.0390  133.2040 N   0  0  0  0  0  0  0  0  0  0  0  0
  147.5090  158.9530  132.7640 C   0  0  0  0  0  0  0  0  0  0  0  0
  148.8850  158.6630  132.3230 C   0  0  0  0  0  0  0  0  0  0  0  0
  149.2380  157.3630  131.8510 N   0  0  0  0  0  0  0  0  0  0  0  0
  149.7750  159.5460  132.4450 O   0  0  0  0  0  0  0  0  0  0  0  0
  146.9860  160.2400  132.7890 C   0  0  0  0  0  0  0  0  0  0  0  0
  145.7180  160.1030  133.2950 C   0  0  0  0  0  0  0  0  0  0  0  0
  144.7580  161.0760  133.5550 C   0  0  0  0  0  0  0  0  0  0  0  0
  143.5330  160.6650  134.0990 C   0  0  0  0  0  0  0  0  0  0  0  0
  143.2880  159.2980  134.3820 C   0  0  0  0  0  0  0  0  0  0  0  0
  142.0310  158.8890  134.9570 N   0  0  0  0  0  0  0  0  0  0  0  0
  141.7440  159.1900  136.3690 C   0  0  0  0  0  0  0  0  0  0  0  0
  140.2680  158.9400  136.6930 C   0  0  0  0  0  0  0  0  0  0  0  0
  139.8490  157.4870  136.3240 C   0  0  0  0  0  0  0  0  0  0  0  0
  140.3850  156.4550  137.2650 N   0  0  0  0  0  0  0  0  0  0  0  0
  141.3580  155.5210  136.6440 C   0  0  0  0  0  0  0  0  0  0  0  0
  142.1790  154.7290  137.6910 C   0  0  0  0  0  0  0  0  0  0  0  0
  141.5120  154.6730  139.0060 N   0  0  0  0  0  0  0  0  0  0  0  0
  140.3100  153.8210  138.9760 C   0  0  0  0  0  0  0  0  0  0  0  0
  141.2280  156.0240  139.5460 C   0  0  0  0  0  0  0  0  0  0  0  0
  141.0100  157.0820  138.4490 C   0  0  0  0  0  0  0  0  0  0  0  0
  140.2940  157.1470  134.8610 C   0  0  0  0  0  0  0  0  0  0  0  0
  140.9820  158.2980  134.1140 C   0  0  0  0  0  0  0  0  0  0  0  0
  144.2900  158.3390  134.1060 C   0  0  0  0  0  0  0  0  0  0  0  0
  145.5010  158.7710  133.5440 C   0  0  0  0  0  0  0  0  0  0  0  0
  145.5769  155.1712  135.9390 H   0  0  0  0  0  0  0  0  0  0  0  0
  144.6588  155.6651  134.4762 H   0  0  0  0  0  0  0  0  0  0  0  0
  145.5895  154.1288  134.4762 H   0  0  0  0  0  0  0  0  0  0  0  0
  148.5380  156.5890  131.8460 H   0  0  0  0  0  0  0  0  0  0  0  0
  150.2160  157.1630  131.5420 H   0  0  0  0  0  0  0  0  0  0  0  0
  147.4819  161.1691  132.4714 H   0  0  0  0  0  0  0  0  0  0  0  0
  144.9544  162.1367  133.3400 H   0  0  0  0  0  0  0  0  0  0  0  0
  142.7532  161.4119  134.3086 H   0  0  0  0  0  0  0  0  0  0  0  0
  142.3668  158.5467  137.0080 H   0  0  0  0  0  0  0  0  0  0  0  0
  141.9695  160.2505  136.5547 H   0  0  0  0  0  0  0  0  0  0  0  0
  140.1052  159.0980  137.7693 H   0  0  0  0  0  0  0  0  0  0  0  0
  139.6583  159.6391  136.1018 H   0  0  0  0  0  0  0  0  0  0  0  0
  138.7525  157.4551  136.4056 H   0  0  0  0  0  0  0  0  0  0  0  0
  140.8072  154.8062  136.0150 H   0  0  0  0  0  0  0  0  0  0  0  0
  142.0650  156.1223  136.0536 H   0  0  0  0  0  0  0  0  0  0  0  0
  142.3221  153.7020  137.3238 H   0  0  0  0  0  0  0  0  0  0  0  0
  143.1397  155.2477  137.8249 H   0  0  0  0  0  0  0  0  0  0  0  0
  139.9937  153.5968  140.0054 H   0  0  0  0  0  0  0  0  0  0  0  0
  139.5001  154.3478  138.4501 H   0  0  0  0  0  0  0  0  0  0  0  0
  140.5389  152.8824  138.4501 H   0  0  0  0  0  0  0  0  0  0  0  0
  140.3200  155.9695  140.1646 H   0  0  0  0  0  0  0  0  0  0  0  0
  142.1074  156.3344  140.1294 H   0  0  0  0  0  0  0  0  0  0  0  0
  140.3514  157.8752  138.8325 H   0  0  0  0  0  0  0  0  0  0  0  0
  141.9807  157.5125  138.1619 H   0  0  0  0  0  0  0  0  0  0  0  0
  140.9945  156.3000  134.9044 H   0  0  0  0  0  0  0  0  0  0  0  0
  139.3740  156.9209  134.3019 H   0  0  0  0  0  0  0  0  0  0  0  0
  141.4331  157.9128  133.1876 H   0  0  0  0  0  0  0  0  0  0  0  0
  140.2355  159.0692  133.8731 H   0  0  0  0  0  0  0  0  0  0  0  0
  144.1232  157.2746  134.3277 H   0  0  0  0  0  0  0  0  0  0  0  0
  1  2  1  0
  2  3  1  0
  3  4  2  0
  3  5  1  0
  5  6  1  0
  6  7  1  0
  7  8  1  0
  7  9  2  0
  6 10  2  0
 10 11  1  0
 11 12  2  0
 12 13  1  0
 13 14  2  0
 14 15  1  0
 15 16  1  0
 16 17  1  0
 17 18  1  0
 18 19  1  0
 19 20  1  0
 20 21  1  0
 21 22  1  0
 22 23  1  0
 22 24  1  0
 24 25  1  0
 18 26  1  0
 26 27  1  0
 14 28  1  0
 28 29  2  0
 29  5  1  0
 29 11  1  0
 27 15  1  0
 25 19  1  0
  1 30  1  0
  1 31  1  0
  1 32  1  0
  8 33  1  0
  8 34  1  0
 10 35  1  0
 12 36  1  0
 13 37  1  0
 16 38  1  0
 16 39  1  0
 17 40  1  0
 17 41  1  0
 18 42  1  0
 20 43  1  0
 20 44  1  0
 21 45  1  0
 21 46  1  0
 23 47  1  0
 23 48  1  0
 23 49  1  0
 24 50  1  0
 24 51  1  0
 25 52  1  0
 25 53  1  0
 26 54  1  0
 26 55  1  0
 27 56  1  0
 27 57  1  0
 28 58  1  0
M  END
>  <UniqueID>  (56) 
56

>  <SMILES>  (56) 
COC(=O)n1c(C(N)=O)cc2ccc(N3CCC(N4CCN(C)CC4)CC3)cc21

>  <Energy>  (56) 
122.65470382913207

>  <Genealogy>  (56) 
COC(=O)n1c(C(N)=O)cc2ccc(N3CCC(N4CCN(C)CC4)CC3)cc21 (3D coordinates assigned)
COC(=O)n1c(C(N)=O)cc2ccc(N3CCC(N4CCN(C)CC4)CC3)cc21 (nonaromatic ring conformer: 122.65470382913207 kcal/mol)

>  <smiles>  (56) 
COC(=O)n1c(C(N)=O)cc2ccc(N3CCC(N4CCN(C)CC4)CC3)cc21

>  <score_type>  (56) 
oracle

>  <origin>  (56) 
adg

>  <m_score__min__energy>  (56) 
-8.3499999999999996

>  <m_primary>  (56) 
energy

$$$$
57:0
     RDKit          3D

 46 50  0  0  0  0  0  0  0  0999 V2000
  142.4440  160.7990  133.4380 N   0  0  0  0  0  0  0  0  0  0  0  0
  143.8010  161.1210  133.7290 C   0  0  0  0  0  0  0  0  0  0  0  0
  144.1030  162.3060  134.0320 O   0  0  0  0  0  0  0  0  0  0  0  0
  144.8320  160.0650  133.6890 C   0  0  0  0  0  0  0  0  0  0  0  0
  146.2020  160.3160  133.6500 C   0  0  0  0  0  0  0  0  0  0  0  0
  146.7980  159.0760  133.5570 C   0  0  0  0  0  0  0  0  0  0  0  0
  148.1430  158.7260  133.4880 C   0  0  0  0  0  0  0  0  0  0  0  0
  148.4650  157.3580  133.4080 C   0  0  0  0  0  0  0  0  0  0  0  0
  147.4430  156.3770  133.3900 C   0  0  0  0  0  0  0  0  0  0  0  0
  147.7820  154.9140  133.3450 C   0  0  1  0  0  0  0  0  0  0  0  0
  146.8340  153.8270  132.8120 C   0  0  0  0  0  0  0  0  0  0  0  0
  148.1410  153.2140  133.3330 C   0  0  1  0  0  0  0  0  0  0  0  0
  148.4260  151.8590  133.3260 F   0  0  0  0  0  0  0  0  0  0  0  0
  148.9730  154.2780  132.6060 C   0  0  0  0  0  0  0  0  0  0  0  0
  148.0800  154.0780  134.5980 C   0  0  0  0  0  0  0  0  0  0  0  0
  146.0910  156.7730  133.4450 C   0  0  0  0  0  0  0  0  0  0  0  0
  145.8030  158.1360  133.5380 C   0  0  0  0  0  0  0  0  0  0  0  0
  144.5960  158.7250  133.6410 N   0  0  0  0  0  0  0  0  0  0  0  0
  143.3310  158.0440  133.6570 C   0  0  0  0  0  0  0  0  0  0  0  0
  142.7410  157.8390  132.5620 O   0  0  0  0  0  0  0  0  0  0  0  0
  142.6770  157.5890  134.9540 C   0  0  0  0  0  0  0  0  0  0  0  0
  142.2120  158.7890  135.8080 C   0  0  0  0  0  0  0  0  0  0  0  0
  140.8250  159.3140  135.3760 C   0  0  0  0  0  0  0  0  0  0  0  0
  140.4370  158.7980  134.1190 O   0  0  0  0  0  0  0  0  0  0  0  0
  140.2350  157.3990  134.2060 C   0  0  0  0  0  0  0  0  0  0  0  0
  141.4750  156.6470  134.7410 C   0  0  0  0  0  0  0  0  0  0  0  0
  142.1570  159.8140  133.2410 H   0  0  0  0  0  0  0  0  0  0  0  0
  146.7019  161.2952  133.6858 H   0  0  0  0  0  0  0  0  0  0  0  0
  148.9301  159.4944  133.4957 H   0  0  0  0  0  0  0  0  0  0  0  0
  149.5193  157.0480  133.3590 H   0  0  0  0  0  0  0  0  0  0  0  0
  145.9044  153.6259  133.3646 H   0  0  0  0  0  0  0  0  0  0  0  0
  146.3255  153.7252  131.8419 H   0  0  0  0  0  0  0  0  0  0  0  0
  149.9890  154.4883  132.9714 H   0  0  0  0  0  0  0  0  0  0  0  0
  149.2934  154.3508  131.5562 H   0  0  0  0  0  0  0  0  0  0  0  0
  147.2647  153.9000  135.3147 H   0  0  0  0  0  0  0  0  0  0  0  0
  148.8114  154.2257  135.4063 H   0  0  0  0  0  0  0  0  0  0  0  0
  145.2833  156.0268  133.4154 H   0  0  0  0  0  0  0  0  0  0  0  0
  143.4624  157.0280  135.4816 H   0  0  0  0  0  0  0  0  0  0  0  0
  142.1589  158.4744  136.8607 H   0  0  0  0  0  0  0  0  0  0  0  0
  142.9384  159.6031  135.6679 H   0  0  0  0  0  0  0  0  0  0  0  0
  140.0808  159.0150  136.1288 H   0  0  0  0  0  0  0  0  0  0  0  0
  140.8847  160.4092  135.2925 H   0  0  0  0  0  0  0  0  0  0  0  0
  139.3889  157.2074  134.8823 H   0  0  0  0  0  0  0  0  0  0  0  0
  140.0365  157.0291  133.1892 H   0  0  0  0  0  0  0  0  0  0  0  0
  141.2178  156.1773  135.7018 H   0  0  0  0  0  0  0  0  0  0  0  0
  141.7632  155.8936  133.9931 H   0  0  0  0  0  0  0  0  0  0  0  0
  1  2  1  0
  2  3  2  0
  2  4  1  0
  4  5  2  0
  5  6  1  0
  6  7  2  0
  7  8  1  0
  8  9  2  0
 10  9  1  1
 10 11  1  0
 11 12  1  0
 12 13  1  1
 12 14  1  0
 12 15  1  0
  9 16  1  0
 16 17  2  0
 17 18  1  0
 18 19  1  0
 19 20  2  0
 19 21  1  0
 21 22  1  0
 22 23  1  0
 23 24  1  0
 24 25  1  0
 25 26  1  0
 18  4  1  0
 26 21  1  0
 17  6  1  0
 14 10  1  0
 15 10  1  0
  1 27  1  0
  5 28  1  0
  7 29  1  0
  8 30  1  0
 11 31  1  0
 11 32  1  0
 14 33  1  0
 14 34  1  0
 15 35  1  0
 15 36  1  0
 16 37  1  0
 21 38  1  0
 22 39  1  0
 22 40  1  0
 23 41  1  0
 23 42  1  0
 25 43  1  0
 25 44  1  0
 26 45  1  0
 26 46  1  0
M  CHG  1   1  -1
M  END
>  <UniqueID>  (57) 
57

>  <SMILES>  (57) 
[NH-]C(=O)c1cc2ccc(C34CC(F)(C3)C4)cc2n1C(=O)C1CCOCC1

>  <Energy>  (57) 
390.8284240557368

>  <Genealogy>  (57) 
[NH-]C(=O)c1cc2ccc(C34CC(F)(C3)C4)cc2n1C(=O)C1CCOCC1 (protonated)
[NH-]C(=O)c1cc2ccc(C34CC(F)(C3)C4)cc2n1C(=O)C1CCOCC1 (3D coordinates assigned)
[NH-]C(=O)c1cc2ccc(C34CC(F)(C3)C4)cc2n1C(=O)C1CCOCC1 (nonaromatic ring conformer: 390.8284240557368 kcal/mol)

>  <smiles>  (57) 
NC(=O)c1cc2ccc(C34CC(F)(C3)C4)cc2n1C(=O)C1CCOCC1

>  <score_type>  (57) 
oracle

>  <origin>  (57) 
adg

>  <m_score__min__energy>  (57) 
-8.2899999999999991

>  <m_primary>  (57) 
energy

$$$$
58:0
     RDKit          3D

 28 29  0  0  0  0  0  0  0  0999 V2000
  144.1170  160.1060  133.7870 C   0  0  0  0  0  0  0  0  0  0  0  0
  145.1410  159.6530  132.9090 O   0  0  0  0  0  0  0  0  0  0  0  0
  146.5010  159.7850  133.2050 C   0  0  0  0  0  0  0  0  0  0  0  0
  146.9410  160.8530  133.7120 O   0  0  0  0  0  0  0  0  0  0  0  0
  147.4030  158.7060  132.9120 N   0  0  0  0  0  0  0  0  0  0  0  0
  148.5900  158.7710  132.2430 C   0  0  0  0  0  0  0  0  0  0  0  0
  149.1240  159.9550  131.5400 C   0  0  0  0  0  0  0  0  0  0  0  0
  148.2410  161.0010  131.1410 N   0  0  0  0  0  0  0  0  0  0  0  0
  150.3590  160.0730  131.3200 O   0  0  0  0  0  0  0  0  0  0  0  0
  149.2140  157.5250  132.2330 C   0  0  0  0  0  0  0  0  0  0  0  0
  148.3640  156.6860  132.9160 C   0  0  0  0  0  0  0  0  0  0  0  0
  148.4880  155.3310  133.2050 C   0  0  0  0  0  0  0  0  0  0  0  0
  147.4640  154.7190  133.9460 C   0  0  0  0  0  0  0  0  0  0  0  0
  146.3510  155.4720  134.4070 C   0  0  0  0  0  0  0  0  0  0  0  0
  145.2410  154.7950  135.1680 C   0  0  0  0  0  0  0  0  0  0  0  0
  144.7720  153.7230  134.4320 F   0  0  0  0  0  0  0  0  0  0  0  0
  144.1970  155.6760  135.3960 F   0  0  0  0  0  0  0  0  0  0  0  0
  145.6950  154.3380  136.3930 F   0  0  0  0  0  0  0  0  0  0  0  0
  146.2520  156.8420  134.0710 C   0  0  0  0  0  0  0  0  0  0  0  0
  147.2790  157.4210  133.3160 C   0  0  0  0  0  0  0  0  0  0  0  0
  144.4384  159.9638  134.8294 H   0  0  0  0  0  0  0  0  0  0  0  0
  143.9239  161.1735  133.6052 H   0  0  0  0  0  0  0  0  0  0  0  0
  143.1972  159.5308  133.6052 H   0  0  0  0  0  0  0  0  0  0  0  0
  147.7380  161.5800  131.8510 H   0  0  0  0  0  0  0  0  0  0  0  0
  150.1808  157.2670  131.7761 H   0  0  0  0  0  0  0  0  0  0  0  0
  149.3616  154.7563  132.8635 H   0  0  0  0  0  0  0  0  0  0  0  0
  147.5244  153.6442  134.1721 H   0  0  0  0  0  0  0  0  0  0  0  0
  145.3873  157.4395  134.3956 H   0  0  0  0  0  0  0  0  0  0  0  0
  1  2  1  0
  2  3  1  0
  3  4  2  0
  3  5  1  0
  5  6  1  0
  6  7  1  0
  7  8  1  0
  7  9  2  0
  6 10  2  0
 10 11  1  0
 11 12  2  0
 12 13  1  0
 13 14  2  0
 14 15  1  0
 15 16  1  0
 15 17  1  0
 15 18  1  0
 14 19  1  0
 19 20  2  0
 20  5  1  0
 20 11  1  0
  1 21  1  0
  1 22  1  0
  1 23  1  0
  8 24  1  0
 10 25  1  0
 12 26  1  0
 13 27  1  0
 19 28  1  0
M  CHG  1   8  -1
M  END
>  <UniqueID>  (58) 
58

>  <SMILES>  (58) 
COC(=O)n1c(C([NH-])=O)cc2ccc(C(F)(F)F)cc21

>  <Energy>  (58) 
65.86795831015333

>  <Genealogy>  (58) 
COC(=O)n1c(C([NH-])=O)cc2ccc(C(F)(F)F)cc21 (protonated)
COC(=O)n1c(C([NH-])=O)cc2ccc(C(F)(F)F)cc21 (3D coordinates assigned)
COC(=O)n1c(C([NH-])=O)cc2ccc(C(F)(F)F)cc21 (optimized conformer: 65.86795831015333 kcal/mol)

>  <smiles>  (58) 
COC(=O)n1c(C(N)=O)cc2ccc(C(F)(F)F)cc21

>  <score_type>  (58) 
oracle

>  <origin>  (58) 
adg

>  <m_score__min__energy>  (58) 
-5.1799999999999997

>  <m_primary>  (58) 
energy

$$$$
59:0
     RDKit          3D

 36 38  0  0  0  0  0  0  0  0999 V2000
  145.6780  155.8090  134.3350 C   0  0  0  0  0  0  0  0  0  0  0  0
  146.1970  156.6250  133.1930 C   0  0  0  0  0  0  0  0  0  0  0  0
  146.6080  156.0380  132.1560 O   0  0  0  0  0  0  0  0  0  0  0  0
  146.1830  158.0610  133.2430 N   0  0  0  0  0  0  0  0  0  0  0  0
  147.2390  158.9160  133.1350 C   0  0  0  0  0  0  0  0  0  0  0  0
  148.6240  158.5270  132.7900 C   0  0  0  0  0  0  0  0  0  0  0  0
  148.8770  157.4720  131.8610 N   0  0  0  0  0  0  0  0  0  0  0  0
  149.5970  159.1070  133.3390 O   0  0  0  0  0  0  0  0  0  0  0  0
  146.8160  160.2350  133.2960 C   0  0  0  0  0  0  0  0  0  0  0  0
  145.4560  160.1590  133.5000 C   0  0  0  0  0  0  0  0  0  0  0  0
  144.5260  161.1690  133.7280 C   0  0  0  0  0  0  0  0  0  0  0  0
  143.1860  160.7960  133.9280 C   0  0  0  0  0  0  0  0  0  0  0  0
  142.7980  159.4350  133.8830 C   0  0  0  0  0  0  0  0  0  0  0  0
  141.4240  159.0880  134.1260 N   0  0  0  0  0  0  0  0  0  0  0  0
  140.3710  159.2020  133.1540 C   0  0  0  0  0  0  0  0  0  0  0  0
  139.7010  158.0690  132.6610 C   0  0  0  0  0  0  0  0  0  0  0  0
  138.7050  158.2290  131.6940 C   0  0  0  0  0  0  0  0  0  0  0  0
  138.3970  159.5020  131.2170 C   0  0  0  0  0  0  0  0  0  0  0  0
  139.0990  160.6040  131.7100 C   0  0  0  0  0  0  0  0  0  0  0  0
  140.0640  160.4300  132.6530 N   0  0  0  0  0  0  0  0  0  0  0  0
  143.7770  158.4360  133.6700 C   0  0  0  0  0  0  0  0  0  0  0  0
  145.1000  158.8380  133.4610 C   0  0  0  0  0  0  0  0  0  0  0  0
  145.9756  156.2769  135.2850 H   0  0  0  0  0  0  0  0  0  0  0  0
  144.5806  155.7572  134.2797 H   0  0  0  0  0  0  0  0  0  0  0  0
  146.0963  154.7931  134.2797 H   0  0  0  0  0  0  0  0  0  0  0  0
  149.8590  157.1810  131.6540 H   0  0  0  0  0  0  0  0  0  0  0  0
  148.1000  157.0050  131.3420 H   0  0  0  0  0  0  0  0  0  0  0  0
  147.4364  161.1429  133.2664 H   0  0  0  0  0  0  0  0  0  0  0  0
  144.8303  162.2258  133.7509 H   0  0  0  0  0  0  0  0  0  0  0  0
  142.4294  161.5706  134.1218 H   0  0  0  0  0  0  0  0  0  0  0  0
  141.1710  158.7180  135.0690 H   0  0  0  0  0  0  0  0  0  0  0  0
  139.9582  157.0662  133.0327 H   0  0  0  0  0  0  0  0  0  0  0  0
  138.1646  157.3513  131.3097 H   0  0  0  0  0  0  0  0  0  0  0  0
  137.6098  159.6371  130.4607 H   0  0  0  0  0  0  0  0  0  0  0  0
  138.8716  161.6131  131.3357 H   0  0  0  0  0  0  0  0  0  0  0  0
  143.5044  157.3703  133.6688 H   0  0  0  0  0  0  0  0  0  0  0  0
  1  2  1  0
  2  3  2  0
  2  4  1  0
  4  5  1  0
  5  6  1  0
  6  7  1  0
  6  8  2  0
  5  9  2  0
  9 10  1  0
 10 11  2  0
 11 12  1  0
 12 13  2  0
 13 14  1  0
 14 15  1  0
 15 16  2  0
 16 17  1  0
 17 18  2  0
 18 19  1  0
 19 20  2  0
 13 21  1  0
 21 22  2  0
 22  4  1  0
 22 10  1  0
 20 15  1  0
  1 23  1  0
  1 24  1  0
  1 25  1  0
  7 26  1  0
  7 27  1  0
  9 28  1  0
 11 29  1  0
 12 30  1  0
 14 31  1  0
 16 32  1  0
 17 33  1  0
 18 34  1  0
 19 35  1  0
 21 36  1  0
M  END
>  <UniqueID>  (59) 
59

>  <SMILES>  (59) 
CC(=O)n1c(C(N)=O)cc2ccc(Nc3ccccn3)cc21

>  <Energy>  (59) 
82.85200677546777

>  <Genealogy>  (59) 
CC(=O)n1c(C(N)=O)cc2ccc(Nc3ccccn3)cc21 (3D coordinates assigned)
CC(=O)n1c(C(N)=O)cc2ccc(Nc3ccccn3)cc21 (optimized conformer: 82.85200677546777 kcal/mol)

>  <smiles>  (59) 
CC(=O)n1c(C(N)=O)cc2ccc(Nc3ccccn3)cc21

>  <score_type>  (59) 
oracle

>  <origin>  (59) 
adg

>  <m_score__min__energy>  (59) 
-7.4500000000000002

>  <m_primary>  (59) 
energy

$$$$
60:0
     RDKit          3D

 42 44  0  0  0  0  0  0  0  0999 V2000
  148.9500  159.0350  134.0840 N   0  0  0  0  0  0  0  0  0  0  0  0
  147.9960  159.4490  133.1090 C   0  0  0  0  0  0  0  0  0  0  0  0
  148.3970  159.8320  131.9770 O   0  0  0  0  0  0  0  0  0  0  0  0
  146.5460  159.3770  133.3860 C   0  0  0  0  0  0  0  0  0  0  0  0
  145.7180  160.4970  133.4200 C   0  0  0  0  0  0  0  0  0  0  0  0
  144.4480  160.0050  133.6110 C   0  0  0  0  0  0  0  0  0  0  0  0
  143.2370  160.6800  133.7370 C   0  0  0  0  0  0  0  0  0  0  0  0
  142.0790  159.9180  133.9640 C   0  0  0  0  0  0  0  0  0  0  0  0
  142.1510  158.5070  134.0640 C   0  0  0  0  0  0  0  0  0  0  0  0
  140.9100  157.7010  134.3500 C   0  0  0  0  0  0  0  0  0  0  0  0
  139.6600  158.3180  133.7080 C   0  0  0  0  0  0  0  0  0  0  0  0
  139.1110  157.4630  132.5550 C   0  0  0  0  0  0  0  0  0  0  0  0
  138.8370  158.3000  131.3700 N   0  0  0  0  0  0  0  0  0  0  0  0
  137.5410  158.9720  131.4800 C   0  0  0  0  0  0  0  0  0  0  0  0
  137.6170  160.2030  130.5980 C   0  0  0  0  0  0  0  0  0  0  0  0
  139.0950  160.5440  130.5260 C   0  0  0  0  0  0  0  0  0  0  0  0
  139.8190  159.3780  131.1900 C   0  0  0  0  0  0  0  0  0  0  0  0
  143.3990  157.8570  133.9350 C   0  0  0  0  0  0  0  0  0  0  0  0
  144.5340  158.6390  133.6920 C   0  0  0  0  0  0  0  0  0  0  0  0
  145.8180  158.2380  133.5600 N   0  0  0  0  0  0  0  0  0  0  0  0
  146.3090  156.8930  133.6840 C   0  0  0  0  0  0  0  0  0  0  0  0
  145.6440  155.9270  133.2260 O   0  0  0  0  0  0  0  0  0  0  0  0
  147.5090  156.6420  134.3380 O   0  0  0  0  0  0  0  0  0  0  0  0
  149.2160  158.0310  134.1820 H   0  0  0  0  0  0  0  0  0  0  0  0
  146.0165  161.5506  133.3162 H   0  0  0  0  0  0  0  0  0  0  0  0
  143.1884  161.7763  133.6611 H   0  0  0  0  0  0  0  0  0  0  0  0
  141.1066  160.4221  134.0651 H   0  0  0  0  0  0  0  0  0  0  0  0
  141.0478  156.6846  133.9527 H   0  0  0  0  0  0  0  0  0  0  0  0
  140.7591  157.6866  135.4395 H   0  0  0  0  0  0  0  0  0  0  0  0
  138.8799  158.4166  134.4772 H   0  0  0  0  0  0  0  0  0  0  0  0
  139.9439  159.2968  133.2941 H   0  0  0  0  0  0  0  0  0  0  0  0
  139.8521  156.6943  132.2907 H   0  0  0  0  0  0  0  0  0  0  0  0
  138.1718  156.9915  132.8801 H   0  0  0  0  0  0  0  0  0  0  0  0
  136.7371  158.3058  131.1338 H   0  0  0  0  0  0  0  0  0  0  0  0
  137.3214  159.2435  132.5231 H   0  0  0  0  0  0  0  0  0  0  0  0
  137.2212  159.9851  129.5951 H   0  0  0  0  0  0  0  0  0  0  0  0
  137.0198  161.0356  130.9982 H   0  0  0  0  0  0  0  0  0  0  0  0
  139.4143  160.6476  129.4785 H   0  0  0  0  0  0  0  0  0  0  0  0
  139.3169  161.4982  131.0263 H   0  0  0  0  0  0  0  0  0  0  0  0
  140.6438  159.0329  130.5492 H   0  0  0  0  0  0  0  0  0  0  0  0
  140.2440  159.6834  132.1575 H   0  0  0  0  0  0  0  0  0  0  0  0
  143.4766  156.7633  134.0234 H   0  0  0  0  0  0  0  0  0  0  0  0
  1  2  1  0
  2  3  2  0
  2  4  1  0
  4  5  2  0
  5  6  1  0
  6  7  2  0
  7  8  1  0
  8  9  2  0
  9 10  1  0
 10 11  1  0
 11 12  1  0
 12 13  1  0
 13 14  1  0
 14 15  1  0
 15 16  1  0
 16 17  1  0
  9 18  1  0
 18 19  2  0
 19 20  1  0
 20 21  1  0
 21 22  2  0
 21 23  1  0
 20  4  1  0
 19  6  1  0
 17 13  1  0
  1 24  1  0
  5 25  1  0
  7 26  1  0
  8 27  1  0
 10 28  1  0
 10 29  1  0
 11 30  1  0
 11 31  1  0
 12 32  1  0
 12 33  1  0
 14 34  1  0
 14 35  1  0
 15 36  1  0
 15 37  1  0
 16 38  1  0
 16 39  1  0
 17 40  1  0
 17 41  1  0
 18 42  1  0
M  CHG  2   1  -1  23  -1
M  END
>  <UniqueID>  (60) 
60

>  <SMILES>  (60) 
[NH-]C(=O)c1cc2ccc(CCCN3CCCC3)cc2n1C(=O)[O-]

>  <Energy>  (60) 
81.01262197170055

>  <Genealogy>  (60) 
[NH-]C(=O)c1cc2ccc(CCCN3CCCC3)cc2n1C(=O)[O-] (protonated)
[NH-]C(=O)c1cc2ccc(CCCN3CCCC3)cc2n1C(=O)[O-] (3D coordinates assigned)
[NH-]C(=O)c1cc2ccc(CCCN3CCCC3)cc2n1C(=O)[O-] (nonaromatic ring conformer: 81.01262197170055 kcal/mol)

>  <smiles>  (60) 
NC(=O)c1cc2ccc(CCCN3CCCC3)cc2n1C(=O)O

>  <score_type>  (60) 
oracle

>  <origin>  (60) 
adg

>  <m_score__min__energy>  (60) 
-7.7999999999999998

>  <m_primary>  (60) 
energy

$$$$
61:0
     RDKit          3D

 59 63  0  0  0  0  0  0  0  0999 V2000
  144.6850  151.1900  132.4410 N   0  0  0  0  0  0  0  0  0  0  0  0
  143.5140  150.4060  132.2350 C   0  0  0  0  0  0  0  0  0  0  0  0
  143.6270  149.1860  131.9420 O   0  0  0  0  0  0  0  0  0  0  0  0
  142.2110  151.0000  132.3510 N   0  0  0  0  0  0  0  0  0  0  0  0
  141.0070  150.3600  132.3480 C   0  0  0  0  0  0  0  0  0  0  0  0
  140.7920  148.9260  132.0720 C   0  0  0  0  0  0  0  0  0  0  0  0
  141.6370  147.9270  132.6430 N   0  0  0  0  0  0  0  0  0  0  0  0
  139.8820  148.5820  131.2710 O   0  0  0  0  0  0  0  0  0  0  0  0
  139.9720  151.2560  132.5940 C   0  0  0  0  0  0  0  0  0  0  0  0
  140.5780  152.4830  132.7360 C   0  0  0  0  0  0  0  0  0  0  0  0
  140.0220  153.7310  132.9970 C   0  0  0  0  0  0  0  0  0  0  0  0
  140.8890  154.8280  133.1170 C   0  0  0  0  0  0  0  0  0  0  0  0
  142.2890  154.6580  132.9870 C   0  0  0  0  0  0  0  0  0  0  0  0
  143.2110  155.8430  133.0770 C   0  0  0  0  0  0  0  0  0  0  0  0
  142.4440  157.2080  134.0270 P   0  0  0  0  0  0  0  0  0  0  0  0
  142.1280  156.6050  135.6970 C   0  0  0  0  0  0  0  0  0  0  0  0
  141.3850  157.3820  136.6010 C   0  0  0  0  0  0  0  0  0  0  0  0
  141.0860  156.8870  137.8740 C   0  0  0  0  0  0  0  0  0  0  0  0
  141.5150  155.6110  138.2490 C   0  0  0  0  0  0  0  0  0  0  0  0
  142.2350  154.8240  137.3480 C   0  0  0  0  0  0  0  0  0  0  0  0
  142.5340  155.3140  136.0740 C   0  0  0  0  0  0  0  0  0  0  0  0
  140.8860  157.7150  133.2710 C   0  0  0  0  0  0  0  0  0  0  0  0
  140.9010  158.4490  132.0750 C   0  0  0  0  0  0  0  0  0  0  0  0
  139.7040  158.8790  131.4950 C   0  0  0  0  0  0  0  0  0  0  0  0
  138.4850  158.5950  132.1160 C   0  0  0  0  0  0  0  0  0  0  0  0
  138.4630  157.8810  133.3170 C   0  0  0  0  0  0  0  0  0  0  0  0
  139.6570  157.4420  133.8950 C   0  0  0  0  0  0  0  0  0  0  0  0
  143.5170  158.6610  134.0260 C   0  0  0  0  0  0  0  0  0  0  0  0
  144.8830  158.5220  133.7320 C   0  0  0  0  0  0  0  0  0  0  0  0
  145.7120  159.6450  133.6770 C   0  0  0  0  0  0  0  0  0  0  0  0
  145.1780  160.9200  133.8850 C   0  0  0  0  0  0  0  0  0  0  0  0
  143.8110  161.0710  134.1340 C   0  0  0  0  0  0  0  0  0  0  0  0
  142.9800  159.9480  134.1890 C   0  0  0  0  0  0  0  0  0  0  0  0
  142.8190  153.3710  132.7420 C   0  0  0  0  0  0  0  0  0  0  0  0
  141.9290  152.3020  132.5930 C   0  0  0  0  0  0  0  0  0  0  0  0
  145.2450  151.1020  133.3170 H   0  0  0  0  0  0  0  0  0  0  0  0
  141.4440  146.9170  132.4680 H   0  0  0  0  0  0  0  0  0  0  0  0
  142.5000  148.1850  133.1700 H   0  0  0  0  0  0  0  0  0  0  0  0
  138.8973  151.0313  132.6608 H   0  0  0  0  0  0  0  0  0  0  0  0
  138.9344  153.8545  133.1062 H   0  0  0  0  0  0  0  0  0  0  0  0
  140.4775  155.8290  133.3138 H   0  0  0  0  0  0  0  0  0  0  0  0
  144.1416  155.5364  133.5770 H   0  0  0  0  0  0  0  0  0  0  0  0
  143.4183  156.2013  132.0579 H   0  0  0  0  0  0  0  0  0  0  0  0
  141.0372  158.3832  136.3065 H   0  0  0  0  0  0  0  0  0  0  0  0
  140.5120  157.5032  138.5817 H   0  0  0  0  0  0  0  0  0  0  0  0
  141.2855  155.2267  139.2538 H   0  0  0  0  0  0  0  0  0  0  0  0
  142.5672  153.8172  137.6414 H   0  0  0  0  0  0  0  0  0  0  0  0
  143.0901  154.6857  135.3627 H   0  0  0  0  0  0  0  0  0  0  0  0
  141.8598  158.6873  131.5913 H   0  0  0  0  0  0  0  0  0  0  0  0
  139.7218  159.4410  130.5496 H   0  0  0  0  0  0  0  0  0  0  0  0
  137.5430  158.9333  131.6597 H   0  0  0  0  0  0  0  0  0  0  0  0
  137.5032  157.6640  133.8087 H   0  0  0  0  0  0  0  0  0  0  0  0
  139.6348  156.8812  134.8411 H   0  0  0  0  0  0  0  0  0  0  0  0
  145.3028  157.5228  133.5439 H   0  0  0  0  0  0  0  0  0  0  0  0
  146.7857  159.5259  133.4699 H   0  0  0  0  0  0  0  0  0  0  0  0
  145.8328  161.8033  133.8527 H   0  0  0  0  0  0  0  0  0  0  0  0
  143.3883  162.0750  134.2870 H   0  0  0  0  0  0  0  0  0  0  0  0
  141.9007  160.0733  134.3607 H   0  0  0  0  0  0  0  0  0  0  0  0
  143.9053  153.2136  132.6702 H   0  0  0  0  0  0  0  0  0  0  0  0
  1  2  1  0
  2  3  2  0
  2  4  1  0
  4  5  1  0
  5  6  1  0
  6  7  1  0
  6  8  2  0
  5  9  2  0
  9 10  1  0
 10 11  2  0
 11 12  1  0
 12 13  2  0
 13 14  1  0
 14 15  1  0
 15 16  1  0
 16 17  2  0
 17 18  1  0
 18 19  2  0
 19 20  1  0
 20 21  2  0
 15 22  1  0
 22 23  2  0
 23 24  1  0
 24 25  2  0
 25 26  1  0
 26 27  2  0
 15 28  1  0
 28 29  2  0
 29 30  1  0
 30 31  2  0
 31 32  1  0
 32 33  2  0
 13 34  1  0
 34 35  2  0
 35  4  1  0
 35 10  1  0
 21 16  1  0
 27 22  1  0
 33 28  1  0
  1 36  1  0
  7 37  1  0
  7 38  1  0
  9 39  1  0
 11 40  1  0
 12 41  1  0
 14 42  1  0
 14 43  1  0
 17 44  1  0
 18 45  1  0
 19 46  1  0
 20 47  1  0
 21 48  1  0
 23 49  1  0
 24 50  1  0
 25 51  1  0
 26 52  1  0
 27 53  1  0
 29 54  1  0
 30 55  1  0
 31 56  1  0
 32 57  1  0
 33 58  1  0
 34 59  1  0
M  CHG  2   1  -1  15   1
M  END
>  <UniqueID>  (61) 
61

>  <SMILES>  (61) 
[NH-]C(=O)n1c(C(N)=O)cc2ccc(C[P+](c3ccccc3)(c3ccccc3)c3ccccc3)cc21

>  <Energy>  (61) 
91.57904697848917

>  <Genealogy>  (61) 
[NH-]C(=O)n1c(C(N)=O)cc2ccc(C[P+](c3ccccc3)(c3ccccc3)c3ccccc3)cc21 (protonated)
[NH-]C(=O)n1c(C(N)=O)cc2ccc(C[P+](c3ccccc3)(c3ccccc3)c3ccccc3)cc21 (3D coordinates assigned)
[NH-]C(=O)n1c(C(N)=O)cc2ccc(C[P+](c3ccccc3)(c3ccccc3)c3ccccc3)cc21 (optimized conformer: 91.57904697848917 kcal/mol)

>  <smiles>  (61) 
NC(=O)c1cc2ccc(C[P+](c3ccccc3)(c3ccccc3)c3ccccc3)cc2n1C(N)=O

>  <score_type>  (61) 
oracle

>  <origin>  (61) 
adg

>  <m_score__min__energy>  (61) 
-10.380000000000001

>  <m_primary>  (61) 
energy

$$$$
62:0
     RDKit          3D

 38 41  0  0  0  0  0  0  0  0999 V2000
  144.1890  154.1070  136.3730 N   0  0  0  0  0  0  0  0  0  0  0  0
  142.8480  153.8210  135.9810 C   0  0  0  0  0  0  0  0  0  0  0  0
  142.4060  152.6480  136.1060 O   0  0  0  0  0  0  0  0  0  0  0  0
  142.0010  154.8910  135.4180 C   0  0  0  0  0  0  0  0  0  0  0  0
  141.7120  156.0840  136.0780 C   0  0  0  0  0  0  0  0  0  0  0  0
  140.9570  156.8190  135.1920 C   0  0  0  0  0  0  0  0  0  0  0  0
  140.3950  158.0840  135.3240 C   0  0  0  0  0  0  0  0  0  0  0  0
  139.6520  158.5920  134.2450 C   0  0  0  0  0  0  0  0  0  0  0  0
  139.4780  157.8290  133.0520 C   0  0  0  0  0  0  0  0  0  0  0  0
  138.6830  158.3140  131.8510 C   0  0  0  0  0  0  0  0  0  0  0  0
  138.4130  159.8090  131.7520 C   0  0  0  0  0  0  0  0  0  0  0  0
  139.4230  159.1530  130.8180 C   0  0  0  0  0  0  0  0  0  0  0  0
  140.0690  156.5480  132.9650 C   0  0  0  0  0  0  0  0  0  0  0  0
  140.8090  156.0760  134.0530 C   0  0  0  0  0  0  0  0  0  0  0  0
  141.4360  154.8890  134.1780 N   0  0  0  0  0  0  0  0  0  0  0  0
  141.4730  153.8470  133.1900 C   0  0  0  0  0  0  0  0  0  0  0  0
  140.4010  153.5030  132.6230 O   0  0  0  0  0  0  0  0  0  0  0  0
  142.7420  153.1530  132.8570 C   0  0  0  0  0  0  0  0  0  0  0  0
  142.8460  151.7580  132.9810 C   0  0  0  0  0  0  0  0  0  0  0  0
  144.0440  151.1150  132.6650 C   0  0  0  0  0  0  0  0  0  0  0  0
  145.1340  151.8710  132.2340 C   0  0  0  0  0  0  0  0  0  0  0  0
  145.0270  153.2220  132.1230 N   0  0  0  0  0  0  0  0  0  0  0  0
  143.8690  153.8720  132.4240 C   0  0  0  0  0  0  0  0  0  0  0  0
  144.3920  154.8050  137.1220 H   0  0  0  0  0  0  0  0  0  0  0  0
  142.0216  156.3764  137.0922 H   0  0  0  0  0  0  0  0  0  0  0  0
  140.5281  158.6696  136.2456 H   0  0  0  0  0  0  0  0  0  0  0  0
  139.1984  159.5912  134.3211 H   0  0  0  0  0  0  0  0  0  0  0  0
  138.0615  157.4070  131.8160 H   0  0  0  0  0  0  0  0  0  0  0  0
  137.4517  160.1694  131.3570 H   0  0  0  0  0  0  0  0  0  0  0  0
  138.4393  160.6527  132.4573 H   0  0  0  0  0  0  0  0  0  0  0  0
  139.1908  159.0398  129.7488 H   0  0  0  0  0  0  0  0  0  0  0  0
  140.4804  159.3268  130.5698 H   0  0  0  0  0  0  0  0  0  0  0  0
  139.9491  155.9350  132.0596 H   0  0  0  0  0  0  0  0  0  0  0  0
  141.9824  151.1714  133.3275 H   0  0  0  0  0  0  0  0  0  0  0  0
  144.1277  150.0219  132.7551 H   0  0  0  0  0  0  0  0  0  0  0  0
  146.0823  151.3732  131.9833 H   0  0  0  0  0  0  0  0  0  0  0  0
  145.8530  153.7740  131.8030 H   0  0  0  0  0  0  0  0  0  0  0  0
  143.8154  154.9665  132.3276 H   0  0  0  0  0  0  0  0  0  0  0  0
  1  2  1  0
  2  3  2  0
  2  4  1  0
  4  5  2  0
  5  6  1  0
  6  7  2  0
  7  8  1  0
  8  9  2  0
  9 10  1  0
 10 11  1  0
 11 12  1  0
  9 13  1  0
 13 14  2  0
 14 15  1  0
 15 16  1  0
 16 17  2  0
 16 18  1  0
 18 19  2  0
 19 20  1  0
 20 21  2  0
 21 22  1  0
 22 23  2  0
 15  4  1  0
 23 18  1  0
 14  6  1  0
 12 10  1  0
  1 24  1  0
  5 25  1  0
  7 26  1  0
  8 27  1  0
 10 28  1  0
 11 29  1  0
 11 30  1  0
 12 31  1  0
 12 32  1  0
 13 33  1  0
 19 34  1  0
 20 35  1  0
 21 36  1  0
 22 37  1  0
 23 38  1  0
M  CHG  2   1  -1  22   1
M  END
>  <UniqueID>  (62) 
62

>  <SMILES>  (62) 
[NH-]C(=O)c1cc2ccc(C3CC3)cc2n1C(=O)c1ccc[nH+]c1

>  <Energy>  (62) 
350.0961391855941

>  <Genealogy>  (62) 
[NH-]C(=O)c1cc2ccc(C3CC3)cc2n1C(=O)c1ccc[nH+]c1 (protonated)
[NH-]C(=O)c1cc2ccc(C3CC3)cc2n1C(=O)c1ccc[nH+]c1 (3D coordinates assigned)
[NH-]C(=O)c1cc2ccc(C3CC3)cc2n1C(=O)c1ccc[nH+]c1 (nonaromatic ring conformer: 350.0961391855941 kcal/mol)

>  <smiles>  (62) 
NC(=O)c1cc2ccc(C3CC3)cc2n1C(=O)c1cccnc1

>  <score_type>  (62) 
oracle

>  <origin>  (62) 
adg

>  <m_score__min__energy>  (62) 
-7.9100000000000001

>  <m_primary>  (62) 
energy

$$$$
63:0
     RDKit          3D

 32 34  0  0  0  0  0  0  0  0999 V2000
  143.1340  161.2740  133.7370 N   0  0  0  0  0  0  0  0  0  0  0  0
  144.5500  161.4430  133.8070 C   0  0  0  0  0  0  0  0  0  0  0  0
  145.0220  162.5620  134.1400 O   0  0  0  0  0  0  0  0  0  0  0  0
  145.4680  160.3120  133.5610 C   0  0  0  0  0  0  0  0  0  0  0  0
  146.8340  160.4690  133.3540 C   0  0  0  0  0  0  0  0  0  0  0  0
  147.3310  159.1910  133.2360 C   0  0  0  0  0  0  0  0  0  0  0  0
  148.6350  158.7590  133.0090 C   0  0  0  0  0  0  0  0  0  0  0  0
  148.8590  157.3780  132.8960 C   0  0  0  0  0  0  0  0  0  0  0  0
  147.7840  156.4570  132.9960 C   0  0  0  0  0  0  0  0  0  0  0  0
  148.0380  155.0020  132.8660 C   0  0  0  0  0  0  0  0  0  0  0  0
  149.3370  154.5380  132.5900 C   0  0  0  0  0  0  0  0  0  0  0  0
  149.5900  153.1680  132.4730 C   0  0  0  0  0  0  0  0  0  0  0  0
  148.5510  152.2470  132.6260 C   0  0  0  0  0  0  0  0  0  0  0  0
  148.8990  150.3760  132.4630 Br  0  0  0  0  0  0  0  0  0  0  0  0
  147.2540  152.6970  132.8930 C   0  0  0  0  0  0  0  0  0  0  0  0
  146.9940  154.0660  133.0130 C   0  0  0  0  0  0  0  0  0  0  0  0
  145.7200  154.4740  133.2350 F   0  0  0  0  0  0  0  0  0  0  0  0
  146.4750  156.9370  133.2300 C   0  0  0  0  0  0  0  0  0  0  0  0
  146.2820  158.3180  133.3590 C   0  0  0  0  0  0  0  0  0  0  0  0
  145.1260  158.9930  133.5580 N   0  0  0  0  0  0  0  0  0  0  0  0
  143.8010  158.4370  133.6170 C   0  0  0  0  0  0  0  0  0  0  0  0
  143.2970  157.8770  132.6090 O   0  0  0  0  0  0  0  0  0  0  0  0
  143.0580  158.5180  134.7890 O   0  0  0  0  0  0  0  0  0  0  0  0
  142.5000  162.0920  133.8780 H   0  0  0  0  0  0  0  0  0  0  0  0
  142.7080  160.3270  133.6270 H   0  0  0  0  0  0  0  0  0  0  0  0
  147.3968  161.4124  133.2968 H   0  0  0  0  0  0  0  0  0  0  0  0
  149.4635  159.4773  132.9210 H   0  0  0  0  0  0  0  0  0  0  0  0
  149.8801  157.0051  132.7279 H   0  0  0  0  0  0  0  0  0  0  0  0
  150.1593  155.2580  132.4654 H   0  0  0  0  0  0  0  0  0  0  0  0
  150.6096  152.8145  132.2600 H   0  0  0  0  0  0  0  0  0  0  0  0
  146.4353  151.9715  133.0091 H   0  0  0  0  0  0  0  0  0  0  0  0
  145.6268  156.2411  133.3090 H   0  0  0  0  0  0  0  0  0  0  0  0
  1  2  1  0
  2  3  2  0
  2  4  1  0
  4  5  2  0
  5  6  1  0
  6  7  2  0
  7  8  1  0
  8  9  2  0
  9 10  1  0
 10 11  2  0
 11 12  1  0
 12 13  2  0
 13 14  1  0
 13 15  1  0
 15 16  2  0
 16 17  1  0
  9 18  1  0
 18 19  2  0
 19 20  1  0
 20 21  1  0
 21 22  2  0
 21 23  1  0
 20  4  1  0
 19  6  1  0
 16 10  1  0
  1 24  1  0
  1 25  1  0
  5 26  1  0
  7 27  1  0
  8 28  1  0
 11 29  1  0
 12 30  1  0
 15 31  1  0
 18 32  1  0
M  CHG  1  23  -1
M  END
>  <UniqueID>  (63) 
63

>  <SMILES>  (63) 
NC(=O)c1cc2ccc(-c3ccc(Br)cc3F)cc2n1C(=O)[O-]

>  <Energy>  (63) 
81.0711494289345

>  <Genealogy>  (63) 
NC(=O)c1cc2ccc(-c3ccc(Br)cc3F)cc2n1C(=O)[O-] (protonated)
NC(=O)c1cc2ccc(-c3ccc(Br)cc3F)cc2n1C(=O)[O-] (3D coordinates assigned)
NC(=O)c1cc2ccc(-c3ccc(Br)cc3F)cc2n1C(=O)[O-] (optimized conformer: 81.0711494289345 kcal/mol)

>  <smiles>  (63) 
NC(=O)c1cc2ccc(-c3ccc(Br)cc3F)cc2n1C(=O)O

>  <score_type>  (63) 
oracle

>  <origin>  (63) 
adg

>  <m_score__min__energy>  (63) 
-8.0099999999999998

>  <m_primary>  (63) 
energy

$$$$
64:0
     RDKit          3D

 41 43  0  0  0  0  0  0  0  0999 V2000
  142.0780  151.7750  133.0000 C   0  0  0  0  0  0  0  0  0  0  0  0
  143.1600  152.7650  132.9290 N   0  0  0  0  0  0  0  0  0  0  0  0
  142.8980  154.0730  133.2320 C   0  0  0  0  0  0  0  0  0  0  0  0
  143.9140  155.0440  133.1890 C   0  0  0  0  0  0  0  0  0  0  0  0
  143.6210  156.4660  133.5030 C   0  0  0  0  0  0  0  0  0  0  0  0
  142.3210  156.8580  133.9230 C   0  0  0  0  0  0  0  0  0  0  0  0
  142.0380  158.2000  134.2300 C   0  0  0  0  0  0  0  0  0  0  0  0
  143.0650  159.1290  134.1000 C   0  0  0  0  0  0  0  0  0  0  0  0
  143.0720  160.4830  134.3490 C   0  0  0  0  0  0  0  0  0  0  0  0
  144.3660  160.9080  134.0550 C   0  0  0  0  0  0  0  0  0  0  0  0
  144.7880  162.3230  134.1030 C   0  0  0  0  0  0  0  0  0  0  0  0
  145.8790  162.7100  134.9360 N   0  0  0  0  0  0  0  0  0  0  0  0
  144.1750  163.2020  133.4420 O   0  0  0  0  0  0  0  0  0  0  0  0
  145.1310  159.8550  133.6480 N   0  0  0  0  0  0  0  0  0  0  0  0
  146.5240  159.8540  133.2970 C   0  0  0  0  0  0  0  0  0  0  0  0
  147.2700  160.8010  133.6670 O   0  0  0  0  0  0  0  0  0  0  0  0
  147.0500  158.7820  132.5680 O   0  0  0  0  0  0  0  0  0  0  0  0
  148.3330  158.2150  132.8200 C   0  0  1  0  0  0  0  0  0  0  0  0
  148.1250  156.3640  133.3870 Br  0  0  0  0  0  0  0  0  0  0  0  0
  149.1640  158.2850  131.5420 C   0  0  0  0  0  0  0  0  0  0  0  0
  149.5760  160.1220  131.0680 Br  0  0  0  0  0  0  0  0  0  0  0  0
  144.3190  158.7760  133.6790 C   0  0  0  0  0  0  0  0  0  0  0  0
  144.6360  157.4440  133.3880 C   0  0  0  0  0  0  0  0  0  0  0  0
  145.2090  154.6390  132.8390 C   0  0  0  0  0  0  0  0  0  0  0  0
  145.4680  153.3030  132.5460 C   0  0  0  0  0  0  0  0  0  0  0  0
  144.4310  152.3690  132.5980 C   0  0  0  0  0  0  0  0  0  0  0  0
  144.6810  151.1600  132.3380 O   0  0  0  0  0  0  0  0  0  0  0  0
  141.8448  151.5616  134.0536 H   0  0  0  0  0  0  0  0  0  0  0  0
  141.1830  152.1735  132.4998 H   0  0  0  0  0  0  0  0  0  0  0  0
  142.3956  150.8482  132.4998 H   0  0  0  0  0  0  0  0  0  0  0  0
  141.8769  154.3697  133.5136 H   0  0  0  0  0  0  0  0  0  0  0  0
  141.5267  156.1019  134.0088 H   0  0  0  0  0  0  0  0  0  0  0  0
  141.0353  158.5062  134.5628 H   0  0  0  0  0  0  0  0  0  0  0  0
  142.2332  161.0992  134.7049 H   0  0  0  0  0  0  0  0  0  0  0  0
  146.8600  162.6910  134.5790 H   0  0  0  0  0  0  0  0  0  0  0  0
  148.8433  158.7744  133.6179 H   0  0  0  0  0  0  0  0  0  0  0  0
  150.1042  157.7351  131.6954 H   0  0  0  0  0  0  0  0  0  0  0  0
  148.5806  157.8378  130.7237 H   0  0  0  0  0  0  0  0  0  0  0  0
  145.6531  157.1639  133.0765 H   0  0  0  0  0  0  0  0  0  0  0  0
  146.0225  155.3782  132.7957 H   0  0  0  0  0  0  0  0  0  0  0  0
  146.4852  152.9843  132.2746 H   0  0  0  0  0  0  0  0  0  0  0  0
  1  2  1  0
  2  3  1  0
  3  4  2  0
  4  5  1  0
  5  6  2  0
  6  7  1  0
  7  8  2  0
  8  9  1  0
  9 10  2  0
 10 11  1  0
 11 12  1  0
 11 13  2  0
 10 14  1  0
 14 15  1  0
 15 16  2  0
 15 17  1  0
 17 18  1  0
 18 19  1  0
 18 20  1  0
 20 21  1  0
 14 22  1  0
 22 23  2  0
  4 24  1  0
 24 25  2  0
 25 26  1  0
 26 27  2  0
 26  2  1  0
 23  5  1  0
 22  8  1  0
  1 28  1  0
  1 29  1  0
  1 30  1  0
  3 31  1  0
  6 32  1  0
  7 33  1  0
  9 34  1  0
 12 35  1  0
 18 36  1  1
 20 37  1  0
 20 38  1  0
 23 39  1  0
 24 40  1  0
 25 41  1  0
M  CHG  1  12  -1
M  END
>  <UniqueID>  (64) 
64

>  <SMILES>  (64) 
Cn1cc(-c2ccc3cc(C([NH-])=O)n(C(=O)O[C@@H](Br)CBr)c3c2)ccc1=O

>  <Energy>  (64) 
84.96601022346086

>  <Genealogy>  (64) 
Cn1cc(-c2ccc3cc(C([NH-])=O)n(C(=O)OC(Br)CBr)c3c2)ccc1=O (protonated)
Cn1cc(-c2ccc3cc(C([NH-])=O)n(C(=O)O[C@@H](Br)CBr)c3c2)ccc1=O (chirality)
Cn1cc(-c2ccc3cc(C([NH-])=O)n(C(=O)O[C@@H](Br)CBr)c3c2)ccc1=O (3D coordinates assigned)
Cn1cc(-c2ccc3cc(C([NH-])=O)n(C(=O)O[C@@H](Br)CBr)c3c2)ccc1=O (optimized conformer: 84.96601022346086 kcal/mol)

>  <smiles>  (64) 
Cn1cc(-c2ccc3cc(C(N)=O)n(C(=O)OC(Br)CBr)c3c2)ccc1=O

>  <score_type>  (64) 
oracle

>  <origin>  (64) 
adg

>  <m_score__min__energy>  (64) 
-8.6600000000000001

>  <m_primary>  (64) 
energy

$$$$
65:0
     RDKit          3D

 67 72  0  0  0  0  0  0  0  0999 V2000
  145.8250  153.7980  133.0920 C   0  0  0  0  0  0  0  0  0  0  0  0
  147.2070  154.4190  133.3510 C   0  0  0  0  0  0  0  0  0  0  0  0
  147.3040  154.8120  134.8380 C   0  0  0  0  0  0  0  0  0  0  0  0
  148.2910  153.3880  132.9870 C   0  0  0  0  0  0  0  0  0  0  0  0
  147.3150  155.5770  132.5080 O   0  0  0  0  0  0  0  0  0  0  0  0
  147.9070  156.8020  132.8430 C   0  0  0  0  0  0  0  0  0  0  0  0
  149.1290  156.8530  133.1460 O   0  0  0  0  0  0  0  0  0  0  0  0
  147.1230  158.0130  132.8370 N   0  0  0  0  0  0  0  0  0  0  0  0
  147.4140  159.2020  132.2320 C   0  0  0  0  0  0  0  0  0  0  0  0
  148.6500  159.5400  131.5020 C   0  0  0  0  0  0  0  0  0  0  0  0
  149.6020  158.5340  131.1700 N   0  0  0  0  0  0  0  0  0  0  0  0
  148.9140  160.7470  131.2540 O   0  0  0  0  0  0  0  0  0  0  0  0
  146.3350  160.0790  132.3210 C   0  0  0  0  0  0  0  0  0  0  0  0
  145.3700  159.3990  133.0230 C   0  0  0  0  0  0  0  0  0  0  0  0
  144.0980  159.8050  133.4150 C   0  0  0  0  0  0  0  0  0  0  0  0
  143.3080  158.8970  134.1370 C   0  0  0  0  0  0  0  0  0  0  0  0
  143.8000  157.6060  134.4490 C   0  0  0  0  0  0  0  0  0  0  0  0
  142.9610  156.6550  135.2100 C   0  0  0  0  0  0  0  0  0  0  0  0
  143.1520  155.2740  135.0310 C   0  0  0  0  0  0  0  0  0  0  0  0
  142.3460  154.3480  135.7170 C   0  0  0  0  0  0  0  0  0  0  0  0
  142.5030  152.9330  135.5480 N   0  0  0  0  0  0  0  0  0  0  0  0
  141.5550  152.0310  134.9630 C   0  0  0  0  0  0  0  0  0  0  0  0
  141.0100  151.1340  135.6660 O   0  0  0  0  0  0  0  0  0  0  0  0
  141.2510  152.1360  133.4900 C   0  0  0  0  0  0  0  0  0  0  0  0
  140.9200  150.8750  132.7330 C   0  0  0  0  0  0  0  0  0  0  0  0
  141.6800  149.6940  132.9420 C   0  0  0  0  0  0  0  0  0  0  0  0
  141.3500  148.5050  132.2690 C   0  0  0  0  0  0  0  0  0  0  0  0
  140.2550  148.5260  131.4120 C   0  0  0  0  0  0  0  0  0  0  0  0
  139.5130  149.6470  131.2200 C   0  0  0  0  0  0  0  0  0  0  0  0
  139.8050  150.8440  131.8670 C   0  0  0  0  0  0  0  0  0  0  0  0
  138.4920  149.3750  130.3290 O   0  0  0  0  0  0  0  0  0  0  0  0
  138.6080  148.0030  129.9280 C   0  0  0  0  0  0  0  0  0  0  0  0
  139.7400  147.4970  130.6490 O   0  0  0  0  0  0  0  0  0  0  0  0
  142.0690  153.1740  132.7270 C   0  0  0  0  0  0  0  0  0  0  0  0
  140.5890  153.4160  132.9840 C   0  0  0  0  0  0  0  0  0  0  0  0
  141.3890  154.8110  136.6240 C   0  0  0  0  0  0  0  0  0  0  0  0
  141.1960  156.1810  136.8130 C   0  0  0  0  0  0  0  0  0  0  0  0
  141.9680  157.1070  136.1060 C   0  0  0  0  0  0  0  0  0  0  0  0
  141.7060  158.8220  136.4190 Cl  0  0  0  0  0  0  0  0  0  0  0  0
  145.1020  157.2340  134.0490 C   0  0  0  0  0  0  0  0  0  0  0  0
  145.8650  158.1540  133.3200 C   0  0  0  0  0  0  0  0  0  0  0  0
  145.3359  153.5782  134.0525 H   0  0  0  0  0  0  0  0  0  0  0  0
  145.2069  154.5049  132.5191 H   0  0  0  0  0  0  0  0  0  0  0  0
  145.9431  152.8664  132.5191 H   0  0  0  0  0  0  0  0  0  0  0  0
  147.0873  153.9340  135.4642 H   0  0  0  0  0  0  0  0  0  0  0  0
  148.3190  155.1760  135.0556 H   0  0  0  0  0  0  0  0  0  0  0  0
  146.5750  155.6065  135.0556 H   0  0  0  0  0  0  0  0  0  0  0  0
  148.7268  152.9735  133.9080 H   0  0  0  0  0  0  0  0  0  0  0  0
  147.8413  152.5762  132.3965 H   0  0  0  0  0  0  0  0  0  0  0  0
  149.0793  153.8777  132.3965 H   0  0  0  0  0  0  0  0  0  0  0  0
  149.3210  157.5310  131.1010 H   0  0  0  0  0  0  0  0  0  0  0  0
  146.2698  161.0993  131.9152 H   0  0  0  0  0  0  0  0  0  0  0  0
  143.7225  160.8085  133.1662 H   0  0  0  0  0  0  0  0  0  0  0  0
  142.2992  159.1902  134.4630 H   0  0  0  0  0  0  0  0  0  0  0  0
  143.9374  154.9151  134.3496 H   0  0  0  0  0  0  0  0  0  0  0  0
  142.5334  149.7097  133.6358 H   0  0  0  0  0  0  0  0  0  0  0  0
  141.9389  147.5875  132.4154 H   0  0  0  0  0  0  0  0  0  0  0  0
  139.1858  151.7392  131.7086 H   0  0  0  0  0  0  0  0  0  0  0  0
  137.6988  147.4444  130.1953 H   0  0  0  0  0  0  0  0  0  0  0  0
  138.7334  147.9010  128.8399 H   0  0  0  0  0  0  0  0  0  0  0  0
  142.8240  153.7751  133.2550 H   0  0  0  0  0  0  0  0  0  0  0  0
  142.7092  153.1543  131.8327 H   0  0  0  0  0  0  0  0  0  0  0  0
  140.2745  154.1916  133.6978 H   0  0  0  0  0  0  0  0  0  0  0  0
  139.7173  153.6432  132.3527 H   0  0  0  0  0  0  0  0  0  0  0  0
  140.7832  154.0908  137.1934 H   0  0  0  0  0  0  0  0  0  0  0  0
  140.4323  156.5332  137.5221 H   0  0  0  0  0  0  0  0  0  0  0  0
  145.5076  156.2439  134.3043 H   0  0  0  0  0  0  0  0  0  0  0  0
  1  2  1  0
  2  3  1  0
  2  4  1  0
  2  5  1  0
  5  6  1  0
  6  7  2  0
  6  8  1  0
  8  9  1  0
  9 10  1  0
 10 11  1  0
 10 12  2  0
  9 13  2  0
 13 14  1  0
 14 15  2  0
 15 16  1  0
 16 17  2  0
 17 18  1  0
 18 19  2  0
 19 20  1  0
 20 21  1  0
 21 22  1  0
 22 23  2  0
 22 24  1  0
 24 25  1  0
 25 26  2  0
 26 27  1  0
 27 28  2  0
 28 29  1  0
 29 30  2  0
 29 31  1  0
 31 32  1  0
 32 33  1  0
 24 34  1  0
 34 35  1  0
 20 36  2  0
 36 37  1  0
 37 38  2  0
 38 39  1  0
 17 40  1  0
 40 41  2  0
 41  8  1  0
 41 14  1  0
 38 18  1  0
 35 24  1  0
 30 25  1  0
 33 28  1  0
  1 42  1  0
  1 43  1  0
  1 44  1  0
  3 45  1  0
  3 46  1  0
  3 47  1  0
  4 48  1  0
  4 49  1  0
  4 50  1  0
 11 51  1  0
 13 52  1  0
 15 53  1  0
 16 54  1  0
 19 55  1  0
 26 56  1  0
 27 57  1  0
 30 58  1  0
 32 59  1  0
 32 60  1  0
 34 61  1  0
 34 62  1  0
 35 63  1  0
 35 64  1  0
 36 65  1  0
 37 66  1  0
 40 67  1  0
M  CHG  2  11  -1  21  -1
M  END
>  <UniqueID>  (65) 
65

>  <SMILES>  (65) 
CC(C)(C)OC(=O)n1c(C([NH-])=O)cc2ccc(-c3cc([N-]C(=O)C4(c5ccc6c(c5)OCO6)CC4)ccc3Cl)cc21

>  <Energy>  (65) 
417.2651476546023

>  <Genealogy>  (65) 
CC(C)(C)OC(=O)n1c(C([NH-])=O)cc2ccc(-c3cc([N-]C(=O)C4(c5ccc6c(c5)OCO6)CC4)ccc3Cl)cc21 (protonated)
CC(C)(C)OC(=O)n1c(C([NH-])=O)cc2ccc(-c3cc([N-]C(=O)C4(c5ccc6c(c5)OCO6)CC4)ccc3Cl)cc21 (3D coordinates assigned)
CC(C)(C)OC(=O)n1c(C([NH-])=O)cc2ccc(-c3cc([N-]C(=O)C4(c5ccc6c(c5)OCO6)CC4)ccc3Cl)cc21 (nonaromatic ring conformer: 417.2651476546023 kcal/mol)

>  <smiles>  (65) 
CC(C)(C)OC(=O)n1c(C(N)=O)cc2ccc(-c3cc(NC(=O)C4(c5ccc6c(c5)OCO6)CC4)ccc3Cl)cc21

>  <score_type>  (65) 
oracle

>  <origin>  (65) 
adg

>  <m_score__min__energy>  (65) 
-11.85

>  <m_primary>  (65) 
energy

$$$$
66:0
     RDKit          3D

 46 47  0  0  0  0  0  0  0  0999 V2000
  141.1470  157.0470  135.9130 C   0  0  0  0  0  0  0  0  0  0  0  0
  141.3500  158.5400  135.5910 C   0  0  0  0  0  0  0  0  0  0  0  0
  140.4090  158.9840  134.4540 C   0  0  0  0  0  0  0  0  0  0  0  0
  141.0380  159.3660  136.8470 C   0  0  0  0  0  0  0  0  0  0  0  0
  142.7200  158.8000  135.2430 O   0  0  0  0  0  0  0  0  0  0  0  0
  143.3490  158.4690  134.0330 C   0  0  0  0  0  0  0  0  0  0  0  0
  142.8000  157.6890  133.2090 O   0  0  0  0  0  0  0  0  0  0  0  0
  144.6450  159.0150  133.7400 N   0  0  0  0  0  0  0  0  0  0  0  0
  144.9980  160.3300  133.6750 C   0  0  0  0  0  0  0  0  0  0  0  0
  144.0720  161.4810  133.7430 C   0  0  0  0  0  0  0  0  0  0  0  0
  142.6660  161.2650  133.6600 N   0  0  0  0  0  0  0  0  0  0  0  0
  144.5080  162.6510  133.9070 O   0  0  0  0  0  0  0  0  0  0  0  0
  146.3670  160.4580  133.4550 C   0  0  0  0  0  0  0  0  0  0  0  0
  146.8440  159.1690  133.3790 C   0  0  0  0  0  0  0  0  0  0  0  0
  148.1410  158.7080  133.2030 C   0  0  0  0  0  0  0  0  0  0  0  0
  148.3560  157.3210  133.2070 C   0  0  0  0  0  0  0  0  0  0  0  0
  147.2760  156.4010  133.3660 C   0  0  0  0  0  0  0  0  0  0  0  0
  147.5260  154.8760  133.4350 C   0  0  0  0  0  0  0  0  0  0  0  0
  146.3350  154.0820  132.8320 C   0  0  0  0  0  0  0  0  0  0  0  0
  148.7890  154.4710  132.6270 C   0  0  0  0  0  0  0  0  0  0  0  0
  147.7260  154.4730  134.9160 C   0  0  0  0  0  0  0  0  0  0  0  0
  146.6460  153.7390  135.3780 F   0  0  0  0  0  0  0  0  0  0  0  0
  147.8780  155.5930  135.7170 F   0  0  0  0  0  0  0  0  0  0  0  0
  145.9730  156.9310  133.5820 C   0  0  0  0  0  0  0  0  0  0  0  0
  145.7880  158.3180  133.5530 C   0  0  0  0  0  0  0  0  0  0  0  0
  141.1279  156.9065  137.0038 H   0  0  0  0  0  0  0  0  0  0  0  0
  140.1941  156.7053  135.4825 H   0  0  0  0  0  0  0  0  0  0  0  0
  141.9740  156.4633  135.4825 H   0  0  0  0  0  0  0  0  0  0  0  0
  139.4932  159.4161  134.8836 H   0  0  0  0  0  0  0  0  0  0  0  0
  140.9143  159.7387  133.8334 H   0  0  0  0  0  0  0  0  0  0  0  0
  140.1478  158.1141  133.8334 H   0  0  0  0  0  0  0  0  0  0  0  0
  141.2633  158.7696  137.7434 H   0  0  0  0  0  0  0  0  0  0  0  0
  141.6538  160.2775  136.8487 H   0  0  0  0  0  0  0  0  0  0  0  0
  139.9734  159.6427  136.8487 H   0  0  0  0  0  0  0  0  0  0  0  0
  142.2640  160.3060  133.7490 H   0  0  0  0  0  0  0  0  0  0  0  0
  146.9439  161.3899  133.3619 H   0  0  0  0  0  0  0  0  0  0  0  0
  148.9768  159.4096  133.0643 H   0  0  0  0  0  0  0  0  0  0  0  0
  149.3786  156.9346  133.0850 H   0  0  0  0  0  0  0  0  0  0  0  0
  145.7189  153.6712  133.6454 H   0  0  0  0  0  0  0  0  0  0  0  0
  145.7231  154.7535  132.2118 H   0  0  0  0  0  0  0  0  0  0  0  0
  146.7196  153.2589  132.2118 H   0  0  0  0  0  0  0  0  0  0  0  0
  149.6010  154.2106  133.3219 H   0  0  0  0  0  0  0  0  0  0  0  0
  148.5560  153.6025  131.9934 H   0  0  0  0  0  0  0  0  0  0  0  0
  149.1046  155.3130  131.9934 H   0  0  0  0  0  0  0  0  0  0  0  0
  148.6370  153.8587  134.9674 H   0  0  0  0  0  0  0  0  0  0  0  0
  145.1223  156.2593  133.7693 H   0  0  0  0  0  0  0  0  0  0  0  0
  1  2  1  0
  2  3  1  0
  2  4  1  0
  2  5  1  0
  5  6  1  0
  6  7  2  0
  6  8  1  0
  8  9  1  0
  9 10  1  0
 10 11  1  0
 10 12  2  0
  9 13  2  0
 13 14  1  0
 14 15  2  0
 15 16  1  0
 16 17  2  0
 17 18  1  0
 18 19  1  0
 18 20  1  0
 18 21  1  0
 21 22  1  0
 21 23  1  0
 17 24  1  0
 24 25  2  0
 25  8  1  0
 25 14  1  0
  1 26  1  0
  1 27  1  0
  1 28  1  0
  3 29  1  0
  3 30  1  0
  3 31  1  0
  4 32  1  0
  4 33  1  0
  4 34  1  0
 11 35  1  0
 13 36  1  0
 15 37  1  0
 16 38  1  0
 19 39  1  0
 19 40  1  0
 19 41  1  0
 20 42  1  0
 20 43  1  0
 20 44  1  0
 21 45  1  0
 24 46  1  0
M  CHG  1  11  -1
M  END
>  <UniqueID>  (66) 
66

>  <SMILES>  (66) 
CC(C)(C)OC(=O)n1c(C([NH-])=O)cc2ccc(C(C)(C)C(F)F)cc21

>  <Energy>  (66) 
82.78201916312685

>  <Genealogy>  (66) 
CC(C)(C)OC(=O)n1c(C([NH-])=O)cc2ccc(C(C)(C)C(F)F)cc21 (protonated)
CC(C)(C)OC(=O)n1c(C([NH-])=O)cc2ccc(C(C)(C)C(F)F)cc21 (3D coordinates assigned)
CC(C)(C)OC(=O)n1c(C([NH-])=O)cc2ccc(C(C)(C)C(F)F)cc21 (optimized conformer: 82.78201916312685 kcal/mol)

>  <smiles>  (66) 
CC(C)(C)OC(=O)n1c(C(N)=O)cc2ccc(C(C)(C)C(F)F)cc21

>  <score_type>  (66) 
oracle

>  <origin>  (66) 
adg

>  <m_score__min__energy>  (66) 
-6.7300000000000004

>  <m_primary>  (66) 
energy

$$$$
67:0
     RDKit          3D

 36 38  0  0  0  0  0  0  0  0999 V2000
  141.2580  155.8690  133.3790 C   0  0  0  0  0  0  0  0  0  0  0  0
  142.3430  156.5100  134.1830 C   0  0  0  0  0  0  0  0  0  0  0  0
  143.2800  155.7990  134.6330 O   0  0  0  0  0  0  0  0  0  0  0  0
  142.3720  157.9330  134.3760 N   0  0  0  0  0  0  0  0  0  0  0  0
  141.3640  158.7450  134.8020 C   0  0  0  0  0  0  0  0  0  0  0  0
  140.0490  158.3030  135.3080 C   0  0  0  0  0  0  0  0  0  0  0  0
  139.8350  158.0880  136.7010 N   0  0  0  0  0  0  0  0  0  0  0  0
  139.0900  158.1520  134.5060 O   0  0  0  0  0  0  0  0  0  0  0  0
  141.7690  160.0790  134.7720 C   0  0  0  0  0  0  0  0  0  0  0  0
  143.0710  160.0550  134.3220 C   0  0  0  0  0  0  0  0  0  0  0  0
  143.9620  161.0990  134.0990 C   0  0  0  0  0  0  0  0  0  0  0  0
  145.2420  160.7800  133.6130 C   0  0  0  0  0  0  0  0  0  0  0  0
  145.6080  159.4320  133.3560 C   0  0  0  0  0  0  0  0  0  0  0  0
  146.9610  159.1080  132.8350 C   0  0  0  0  0  0  0  0  0  0  0  0
  147.5950  157.9070  133.1980 C   0  0  0  0  0  0  0  0  0  0  0  0
  148.8650  157.6030  132.7080 C   0  0  0  0  0  0  0  0  0  0  0  0
  149.5200  158.4900  131.8510 C   0  0  0  0  0  0  0  0  0  0  0  0
  148.9070  159.6980  131.4750 C   0  0  0  0  0  0  0  0  0  0  0  0
  149.5990  160.6430  130.5710 C   0  0  0  0  0  0  0  0  0  0  0  0
  150.3550  160.2190  129.6560 O   0  0  0  0  0  0  0  0  0  0  0  0
  149.4240  162.0150  130.7180 O   0  0  0  0  0  0  0  0  0  0  0  0
  147.6270  159.9990  131.9720 C   0  0  0  0  0  0  0  0  0  0  0  0
  144.6710  158.4000  133.5980 C   0  0  0  0  0  0  0  0  0  0  0  0
  143.4100  158.7480  134.0920 C   0  0  0  0  0  0  0  0  0  0  0  0
  140.5116  155.4281  134.0561 H   0  0  0  0  0  0  0  0  0  0  0  0
  140.7751  156.6269  132.7446 H   0  0  0  0  0  0  0  0  0  0  0  0
  141.6888  155.0804  132.7446 H   0  0  0  0  0  0  0  0  0  0  0  0
  139.1040  158.6220  137.2210 H   0  0  0  0  0  0  0  0  0  0  0  0
  141.1752  160.9626  135.0488 H   0  0  0  0  0  0  0  0  0  0  0  0
  143.6742  162.1421  134.2967 H   0  0  0  0  0  0  0  0  0  0  0  0
  145.9693  161.5846  133.4295 H   0  0  0  0  0  0  0  0  0  0  0  0
  147.0864  157.2026  133.8726 H   0  0  0  0  0  0  0  0  0  0  0  0
  149.3527  156.6606  132.9978 H   0  0  0  0  0  0  0  0  0  0  0  0
  150.5210  158.2422  131.4681 H   0  0  0  0  0  0  0  0  0  0  0  0
  147.1399  160.9420  131.6832 H   0  0  0  0  0  0  0  0  0  0  0  0
  144.9284  157.3486  133.4022 H   0  0  0  0  0  0  0  0  0  0  0  0
  1  2  1  0
  2  3  2  0
  2  4  1  0
  4  5  1  0
  5  6  1  0
  6  7  1  0
  6  8  2  0
  5  9  2  0
  9 10  1  0
 10 11  2  0
 11 12  1  0
 12 13  2  0
 13 14  1  0
 14 15  2  0
 15 16  1  0
 16 17  2  0
 17 18  1  0
 18 19  1  0
 19 20  2  0
 19 21  1  0
 18 22  2  0
 13 23  1  0
 23 24  2  0
 24  4  1  0
 24 10  1  0
 22 14  1  0
  1 25  1  0
  1 26  1  0
  1 27  1  0
  7 28  1  0
  9 29  1  0
 11 30  1  0
 12 31  1  0
 15 32  1  0
 16 33  1  0
 17 34  1  0
 22 35  1  0
 23 36  1  0
M  CHG  2   7  -1  21  -1
M  END
>  <UniqueID>  (67) 
67

>  <SMILES>  (67) 
CC(=O)n1c(C([NH-])=O)cc2ccc(-c3cccc(C(=O)[O-])c3)cc21

>  <Energy>  (67) 
83.84460800969681

>  <Genealogy>  (67) 
CC(=O)n1c(C([NH-])=O)cc2ccc(-c3cccc(C(=O)[O-])c3)cc21 (protonated)
CC(=O)n1c(C([NH-])=O)cc2ccc(-c3cccc(C(=O)[O-])c3)cc21 (3D coordinates assigned)
CC(=O)n1c(C([NH-])=O)cc2ccc(-c3cccc(C(=O)[O-])c3)cc21 (optimized conformer: 83.84460800969681 kcal/mol)

>  <smiles>  (67) 
CC(=O)n1c(C(N)=O)cc2ccc(-c3cccc(C(=O)O)c3)cc21

>  <score_type>  (67) 
oracle

>  <origin>  (67) 
adg

>  <m_score__min__energy>  (67) 
-8.6099999999999994

>  <m_primary>  (67) 
energy

$$$$
68:0
     RDKit          3D

 44 47  0  0  0  0  0  0  0  0999 V2000
  140.9680  160.2190  135.5960 N   0  0  0  0  0  0  0  0  0  0  0  0
  141.6330  159.7180  134.4390 C   0  0  0  0  0  0  0  0  0  0  0  0
  142.0650  160.5280  133.5770 O   0  0  0  0  0  0  0  0  0  0  0  0
  141.8410  158.2630  134.2830 C   0  0  0  0  0  0  0  0  0  0  0  0
  143.0590  157.6960  133.9150 C   0  0  0  0  0  0  0  0  0  0  0  0
  142.8160  156.3470  133.8020 C   0  0  0  0  0  0  0  0  0  0  0  0
  143.6790  155.3070  133.4740 C   0  0  0  0  0  0  0  0  0  0  0  0
  143.1630  154.0020  133.4630 C   0  0  0  0  0  0  0  0  0  0  0  0
  141.8010  153.7540  133.7870 C   0  0  0  0  0  0  0  0  0  0  0  0
  141.2270  152.3490  133.7960 C   0  0  2  0  0  0  0  0  0  0  0  0
  142.1990  151.2660  133.3290 C   0  0  0  0  0  0  0  0  0  0  0  0
  141.2950  150.9680  132.1260 C   0  0  1  0  0  0  0  0  0  0  0  0
  140.7270  149.6000  132.1610 N   0  0  0  0  0  0  0  0  0  0  0  0
  139.2580  149.6430  132.2340 C   0  0  0  0  0  0  0  0  0  0  0  0
  138.7110  149.6060  130.8160 C   0  0  0  0  0  0  0  0  0  0  0  0
  139.8530  149.1090  129.9530 C   0  0  0  0  0  0  0  0  0  0  0  0
  141.0150  148.8810  130.9100 C   0  0  0  0  0  0  0  0  0  0  0  0
  140.3080  152.0340  132.6170 C   0  0  0  0  0  0  0  0  0  0  0  0
  140.9590  154.8400  134.1170 C   0  0  0  0  0  0  0  0  0  0  0  0
  141.4950  156.1330  134.1010 C   0  0  0  0  0  0  0  0  0  0  0  0
  140.8820  157.3000  134.4000 N   0  0  0  0  0  0  0  0  0  0  0  0
  139.5160  157.4640  134.8140 C   0  0  0  0  0  0  0  0  0  0  0  0
  139.2150  157.9560  136.1180 N   0  0  0  0  0  0  0  0  0  0  0  0
  138.5770  157.1850  134.0230 O   0  0  0  0  0  0  0  0  0  0  0  0
  139.9780  159.9600  135.8010 H   0  0  0  0  0  0  0  0  0  0  0  0
  144.0135  158.2171  133.7497 H   0  0  0  0  0  0  0  0  0  0  0  0
  144.7340  155.5014  133.2306 H   0  0  0  0  0  0  0  0  0  0  0  0
  143.8206  153.1603  133.2004 H   0  0  0  0  0  0  0  0  0  0  0  0
  140.8355  152.3387  134.8239 H   0  0  0  0  0  0  0  0  0  0  0  0
  143.1957  151.6444  133.0582 H   0  0  0  0  0  0  0  0  0  0  0  0
  142.4996  150.4576  134.0117 H   0  0  0  0  0  0  0  0  0  0  0  0
  141.6928  150.9988  131.1009 H   0  0  0  0  0  0  0  0  0  0  0  0
  138.8876  148.7748  132.7988 H   0  0  0  0  0  0  0  0  0  0  0  0
  138.9295  150.5604  132.7443 H   0  0  0  0  0  0  0  0  0  0  0  0
  137.8543  148.9190  130.7525 H   0  0  0  0  0  0  0  0  0  0  0  0
  138.3546  150.5945  130.4907 H   0  0  0  0  0  0  0  0  0  0  0  0
  139.5764  148.1691  129.4530 H   0  0  0  0  0  0  0  0  0  0  0  0
  140.1104  149.8286  129.1618 H   0  0  0  0  0  0  0  0  0  0  0  0
  141.1234  147.8057  131.1148 H   0  0  0  0  0  0  0  0  0  0  0  0
  141.9513  149.2501  130.4661 H   0  0  0  0  0  0  0  0  0  0  0  0
  140.1704  152.8731  131.9191 H   0  0  0  0  0  0  0  0  0  0  0  0
  139.2527  151.7760  132.7893 H   0  0  0  0  0  0  0  0  0  0  0  0
  139.9043  154.6727  134.3810 H   0  0  0  0  0  0  0  0  0  0  0  0
  139.3260  158.9690  136.3460 H   0  0  0  0  0  0  0  0  0  0  0  0
  1  2  1  0
  2  3  2  0
  2  4  1  0
  4  5  2  0
  5  6  1  0
  6  7  2  0
  7  8  1  0
  8  9  2  0
  9 10  1  0
 10 11  1  0
 11 12  1  0
 12 13  1  0
 13 14  1  0
 14 15  1  0
 15 16  1  0
 16 17  1  0
 12 18  1  0
  9 19  1  0
 19 20  2  0
 20 21  1  0
 21 22  1  0
 22 23  1  0
 22 24  2  0
 21  4  1  0
 20  6  1  0
 18 10  1  0
 17 13  1  0
  1 25  1  0
  5 26  1  0
  7 27  1  0
  8 28  1  0
 10 29  1  1
 11 30  1  0
 11 31  1  0
 12 32  1  6
 14 33  1  0
 14 34  1  0
 15 35  1  0
 15 36  1  0
 16 37  1  0
 16 38  1  0
 17 39  1  0
 17 40  1  0
 18 41  1  0
 18 42  1  0
 19 43  1  0
 23 44  1  0
M  CHG  2   1  -1  23  -1
M  END
>  <UniqueID>  (68) 
68

>  <SMILES>  (68) 
[NH-]C(=O)c1cc2ccc(C3CC(N4CCCC4)C3)cc2n1C([NH-])=O

>  <Energy>  (68) 
150.26602345018767

>  <Genealogy>  (68) 
[NH-]C(=O)c1cc2ccc(C3CC(N4CCCC4)C3)cc2n1C([NH-])=O (protonated)
[NH-]C(=O)c1cc2ccc(C3CC(N4CCCC4)C3)cc2n1C([NH-])=O (3D coordinates assigned)
[NH-]C(=O)c1cc2ccc(C3CC(N4CCCC4)C3)cc2n1C([NH-])=O (nonaromatic ring conformer: 150.26602345018767 kcal/mol)

>  <smiles>  (68) 
NC(=O)c1cc2ccc(C3CC(N4CCCC4)C3)cc2n1C(N)=O

>  <score_type>  (68) 
oracle

>  <origin>  (68) 
adg

>  <m_score__min__energy>  (68) 
-8.4499999999999993

>  <m_primary>  (68) 
energy

$$$$
69:0
     RDKit          3D

 26 27  0  0  0  0  0  0  0  0999 V2000
  148.8600  158.7830  134.3150 N   0  0  0  0  0  0  0  0  0  0  0  0
  148.1290  158.2410  133.2190 C   0  0  0  0  0  0  0  0  0  0  0  0
  148.7500  157.8230  132.2050 O   0  0  0  0  0  0  0  0  0  0  0  0
  146.6930  158.1800  133.2610 N   0  0  0  0  0  0  0  0  0  0  0  0
  145.9110  157.0660  133.1830 C   0  0  0  0  0  0  0  0  0  0  0  0
  146.3790  155.6980  132.8810 C   0  0  0  0  0  0  0  0  0  0  0  0
  147.3620  155.4580  131.8740 N   0  0  0  0  0  0  0  0  0  0  0  0
  145.8630  154.7200  133.4840 O   0  0  0  0  0  0  0  0  0  0  0  0
  144.5720  157.3880  133.3900 C   0  0  0  0  0  0  0  0  0  0  0  0
  144.5530  158.7500  133.5870 C   0  0  0  0  0  0  0  0  0  0  0  0
  143.4850  159.5960  133.8670 C   0  0  0  0  0  0  0  0  0  0  0  0
  143.7600  160.9570  134.0770 C   0  0  0  0  0  0  0  0  0  0  0  0
  145.0880  161.4500  133.9970 C   0  0  0  0  0  0  0  0  0  0  0  0
  145.3770  162.9010  134.2900 C   0  0  0  0  0  0  0  0  0  0  0  0
  144.3850  163.6840  133.7310 F   0  0  0  0  0  0  0  0  0  0  0  0
  145.4130  163.1250  135.6560 F   0  0  0  0  0  0  0  0  0  0  0  0
  146.5990  163.2730  133.7580 F   0  0  0  0  0  0  0  0  0  0  0  0
  146.1490  160.5520  133.7370 C   0  0  0  0  0  0  0  0  0  0  0  0
  145.8440  159.2050  133.5080 C   0  0  0  0  0  0  0  0  0  0  0  0
  149.5720  158.2090  134.8210 H   0  0  0  0  0  0  0  0  0  0  0  0
  147.6800  156.2220  131.2370 H   0  0  0  0  0  0  0  0  0  0  0  0
  147.7120  154.4890  131.7030 H   0  0  0  0  0  0  0  0  0  0  0  0
  143.7132  156.7007  133.3950 H   0  0  0  0  0  0  0  0  0  0  0  0
  142.4562  159.2106  133.9223 H   0  0  0  0  0  0  0  0  0  0  0  0
  142.9362  161.6490  134.3062 H   0  0  0  0  0  0  0  0  0  0  0  0
  147.1909  160.9041  133.7152 H   0  0  0  0  0  0  0  0  0  0  0  0
  1  2  1  0
  2  3  2  0
  2  4  1  0
  4  5  1  0
  5  6  1  0
  6  7  1  0
  6  8  2  0
  5  9  2  0
  9 10  1  0
 10 11  2  0
 11 12  1  0
 12 13  2  0
 13 14  1  0
 14 15  1  0
 14 16  1  0
 14 17  1  0
 13 18  1  0
 18 19  2  0
 19  4  1  0
 19 10  1  0
  1 20  1  0
  7 21  1  0
  7 22  1  0
  9 23  1  0
 11 24  1  0
 12 25  1  0
 18 26  1  0
M  CHG  1   1  -1
M  END
>  <UniqueID>  (69) 
69

>  <SMILES>  (69) 
[NH-]C(=O)n1c(C(N)=O)cc2ccc(C(F)(F)F)cc21

>  <Energy>  (69) 
66.81809375027748

>  <Genealogy>  (69) 
[NH-]C(=O)n1c(C(N)=O)cc2ccc(C(F)(F)F)cc21 (protonated)
[NH-]C(=O)n1c(C(N)=O)cc2ccc(C(F)(F)F)cc21 (3D coordinates assigned)
[NH-]C(=O)n1c(C(N)=O)cc2ccc(C(F)(F)F)cc21 (optimized conformer: 66.81809375027748 kcal/mol)

>  <smiles>  (69) 
NC(=O)c1cc2ccc(C(F)(F)F)cc2n1C(N)=O

>  <score_type>  (69) 
oracle

>  <origin>  (69) 
adg

>  <m_score__min__energy>  (69) 
-5.8799999999999999

>  <m_primary>  (69) 
energy

$$$$
70:0
     RDKit          3D

 38 39  0  0  0  0  0  0  0  0999 V2000
  143.5770  158.4150  133.6460 C   0  0  0  0  0  0  0  0  0  0  0  0
  144.2530  159.7810  133.6610 C   0  0  0  0  0  0  0  0  0  0  0  0
  145.3350  159.8190  132.7340 O   0  0  0  0  0  0  0  0  0  0  0  0
  146.6700  160.0110  133.1120 C   0  0  0  0  0  0  0  0  0  0  0  0
  147.0110  161.0550  133.7320 O   0  0  0  0  0  0  0  0  0  0  0  0
  147.6490  159.0040  132.8020 N   0  0  0  0  0  0  0  0  0  0  0  0
  148.6770  159.1010  131.9140 C   0  0  0  0  0  0  0  0  0  0  0  0
  149.0970  160.3280  131.2090 C   0  0  0  0  0  0  0  0  0  0  0  0
  148.4700  161.5830  131.4760 N   0  0  0  0  0  0  0  0  0  0  0  0
  150.0620  160.2780  130.4020 O   0  0  0  0  0  0  0  0  0  0  0  0
  149.3370  157.8820  131.7870 C   0  0  0  0  0  0  0  0  0  0  0  0
  148.6850  157.0260  132.6430 C   0  0  0  0  0  0  0  0  0  0  0  0
  148.9140  155.6780  132.9050 C   0  0  0  0  0  0  0  0  0  0  0  0
  148.0580  155.0290  133.8090 C   0  0  0  0  0  0  0  0  0  0  0  0
  146.9960  155.7310  134.4300 C   0  0  0  0  0  0  0  0  0  0  0  0
  146.0570  155.0100  135.3550 C   0  0  0  0  0  0  0  0  0  0  0  0
  146.8340  154.1760  136.3220 C   0  0  0  0  0  0  0  0  0  0  0  0
  146.3500  153.0890  136.7420 O   0  0  0  0  0  0  0  0  0  0  0  0
  148.0710  154.6340  136.7860 O   0  0  0  0  0  0  0  0  0  0  0  0
  148.7580  154.0150  137.8660 C   0  0  0  0  0  0  0  0  0  0  0  0
  146.7860  157.0960  134.1310 C   0  0  0  0  0  0  0  0  0  0  0  0
  147.6670  157.7260  133.2430 C   0  0  0  0  0  0  0  0  0  0  0  0
  143.4098  158.0772  134.6794 H   0  0  0  0  0  0  0  0  0  0  0  0
  142.6117  158.4893  133.1239 H   0  0  0  0  0  0  0  0  0  0  0  0
  144.2216  157.6926  133.1239 H   0  0  0  0  0  0  0  0  0  0  0  0
  143.5166  160.5511  133.3879 H   0  0  0  0  0  0  0  0  0  0  0  0
  144.6463  159.9694  134.6709 H   0  0  0  0  0  0  0  0  0  0  0  0
  148.7500  162.4340  130.9400 H   0  0  0  0  0  0  0  0  0  0  0  0
  147.7840  161.6860  132.2570 H   0  0  0  0  0  0  0  0  0  0  0  0
  150.1965  157.6525  131.1400 H   0  0  0  0  0  0  0  0  0  0  0  0
  149.7400  155.1381  132.4188 H   0  0  0  0  0  0  0  0  0  0  0  0
  148.2137  153.9643  134.0374 H   0  0  0  0  0  0  0  0  0  0  0  0
  145.4552  155.7453  135.9092 H   0  0  0  0  0  0  0  0  0  0  0  0
  145.3969  154.3580  134.7641 H   0  0  0  0  0  0  0  0  0  0  0  0
  148.3499  154.3827  138.8190 H   0  0  0  0  0  0  0  0  0  0  0  0
  148.6266  152.9245  137.8073 H   0  0  0  0  0  0  0  0  0  0  0  0
  149.8290  154.2589  137.8073 H   0  0  0  0  0  0  0  0  0  0  0  0
  145.9510  157.6502  134.5845 H   0  0  0  0  0  0  0  0  0  0  0  0
  1  2  1  0
  2  3  1  0
  3  4  1  0
  4  5  2  0
  4  6  1  0
  6  7  1  0
  7  8  1  0
  8  9  1  0
  8 10  2  0
  7 11  2  0
 11 12  1  0
 12 13  2  0
 13 14  1  0
 14 15  2  0
 15 16  1  0
 16 17  1  0
 17 18  2  0
 17 19  1  0
 19 20  1  0
 15 21  1  0
 21 22  2  0
 22  6  1  0
 22 12  1  0
  1 23  1  0
  1 24  1  0
  1 25  1  0
  2 26  1  0
  2 27  1  0
  9 28  1  0
  9 29  1  0
 11 30  1  0
 13 31  1  0
 14 32  1  0
 16 33  1  0
 16 34  1  0
 20 35  1  0
 20 36  1  0
 20 37  1  0
 21 38  1  0
M  END
>  <UniqueID>  (70) 
70

>  <SMILES>  (70) 
CCOC(=O)n1c(C(N)=O)cc2ccc(CC(=O)OC)cc21

>  <Energy>  (70) 
68.7124517048999

>  <Genealogy>  (70) 
CCOC(=O)n1c(C(N)=O)cc2ccc(CC(=O)OC)cc21 (3D coordinates assigned)
CCOC(=O)n1c(C(N)=O)cc2ccc(CC(=O)OC)cc21 (optimized conformer: 68.7124517048999 kcal/mol)

>  <smiles>  (70) 
CCOC(=O)n1c(C(N)=O)cc2ccc(CC(=O)OC)cc21

>  <score_type>  (70) 
oracle

>  <origin>  (70) 
adg

>  <m_score__min__energy>  (70) 
-6.4000000000000004

>  <m_primary>  (70) 
energy

$$$$
71:0
     RDKit          3D

 39 41  0  0  0  0  0  0  0  0999 V2000
  138.7340  160.6770  130.7590 C   0  0  0  0  0  0  0  0  0  0  0  0
  139.2870  159.5670  131.5880 C   0  0  0  0  0  0  0  0  0  0  0  0
  138.8790  158.2470  131.5450 C   0  0  0  0  0  0  0  0  0  0  0  0
  139.6090  157.6360  132.5430 C   0  0  0  0  0  0  0  0  0  0  0  0
  139.4710  156.2080  132.9700 C   0  0  0  0  0  0  0  0  0  0  0  0
  140.3850  158.5650  133.1460 N   0  0  0  0  0  0  0  0  0  0  0  0
  141.2480  158.3770  134.3110 C   0  0  0  0  0  0  0  0  0  0  0  0
  142.6190  158.9340  134.0380 C   0  0  0  0  0  0  0  0  0  0  0  0
  142.8390  160.3350  134.0470 C   0  0  0  0  0  0  0  0  0  0  0  0
  144.1090  160.8610  133.7540 C   0  0  0  0  0  0  0  0  0  0  0  0
  145.1360  159.9660  133.4660 C   0  0  0  0  0  0  0  0  0  0  0  0
  146.4460  160.2020  133.1160 C   0  0  0  0  0  0  0  0  0  0  0  0
  147.0090  158.9430  132.9180 C   0  0  0  0  0  0  0  0  0  0  0  0
  148.4320  158.7270  132.5830 C   0  0  0  0  0  0  0  0  0  0  0  0
  148.7900  158.2290  131.2960 N   0  0  0  0  0  0  0  0  0  0  0  0
  149.3390  159.0030  133.4110 O   0  0  0  0  0  0  0  0  0  0  0  0
  146.0830  157.9670  133.1380 N   0  0  0  0  0  0  0  0  0  0  0  0
  146.2480  156.5490  132.9850 C   0  0  0  0  0  0  0  0  0  0  0  0
  146.9680  156.0210  131.8710 N   0  0  0  0  0  0  0  0  0  0  0  0
  145.7610  155.7620  133.8390 O   0  0  0  0  0  0  0  0  0  0  0  0
  144.9420  158.6090  133.4700 C   0  0  0  0  0  0  0  0  0  0  0  0
  143.6850  158.0580  133.7370 C   0  0  0  0  0  0  0  0  0  0  0  0
  140.1840  159.7440  132.5790 N   0  0  0  0  0  0  0  0  0  0  0  0
  138.3410  161.4657  131.4174 H   0  0  0  0  0  0  0  0  0  0  0  0
  139.5305  161.0924  130.1241 H   0  0  0  0  0  0  0  0  0  0  0  0
  137.9227  160.2914  130.1241 H   0  0  0  0  0  0  0  0  0  0  0  0
  138.1413  157.7889  130.8697 H   0  0  0  0  0  0  0  0  0  0  0  0
  139.4656  156.1527  134.0686 H   0  0  0  0  0  0  0  0  0  0  0  0
  138.5290  155.7973  132.5776 H   0  0  0  0  0  0  0  0  0  0  0  0
  140.3169  155.6246  132.5776 H   0  0  0  0  0  0  0  0  0  0  0  0
  140.8099  158.8975  135.1754 H   0  0  0  0  0  0  0  0  0  0  0  0
  141.3337  157.3012  134.5241 H   0  0  0  0  0  0  0  0  0  0  0  0
  142.0086  161.0159  134.2853 H   0  0  0  0  0  0  0  0  0  0  0  0
  144.2862  161.9466  133.7523 H   0  0  0  0  0  0  0  0  0  0  0  0
  146.9432  161.1779  133.0142 H   0  0  0  0  0  0  0  0  0  0  0  0
  148.8790  157.2030  131.1230 H   0  0  0  0  0  0  0  0  0  0  0  0
  147.3190  156.6540  131.1180 H   0  0  0  0  0  0  0  0  0  0  0  0
  147.1150  154.9920  131.7760 H   0  0  0  0  0  0  0  0  0  0  0  0
  143.5302  156.9692  133.7132 H   0  0  0  0  0  0  0  0  0  0  0  0
  1  2  1  0
  2  3  1  0
  3  4  2  0
  4  5  1  0
  4  6  1  0
  6  7  1  0
  7  8  1  0
  8  9  2  0
  9 10  1  0
 10 11  2  0
 11 12  1  0
 12 13  2  0
 13 14  1  0
 14 15  1  0
 14 16  2  0
 13 17  1  0
 17 18  1  0
 18 19  1  0
 18 20  2  0
 17 21  1  0
 21 22  2  0
  6 23  1  0
 23  2  2  0
 22  8  1  0
 21 11  1  0
  1 24  1  0
  1 25  1  0
  1 26  1  0
  3 27  1  0
  5 28  1  0
  5 29  1  0
  5 30  1  0
  7 31  1  0
  7 32  1  0
  9 33  1  0
 10 34  1  0
 12 35  1  0
 15 36  1  0
 19 37  1  0
 19 38  1  0
 22 39  1  0
M  CHG  1  15  -1
M  END
>  <UniqueID>  (71) 
71

>  <SMILES>  (71) 
Cc1cc(C)n(Cc2ccc3cc(C([NH-])=O)n(C(N)=O)c3c2)n1

>  <Energy>  (71) 
104.6205181845033

>  <Genealogy>  (71) 
Cc1cc(C)n(Cc2ccc3cc(C([NH-])=O)n(C(N)=O)c3c2)n1 (protonated)
Cc1cc(C)n(Cc2ccc3cc(C([NH-])=O)n(C(N)=O)c3c2)n1 (3D coordinates assigned)
Cc1cc(C)n(Cc2ccc3cc(C([NH-])=O)n(C(N)=O)c3c2)n1 (optimized conformer: 104.6205181845033 kcal/mol)

>  <smiles>  (71) 
Cc1cc(C)n(Cc2ccc3cc(C(N)=O)n(C(N)=O)c3c2)n1

>  <score_type>  (71) 
oracle

>  <origin>  (71) 
adg

>  <m_score__min__energy>  (71) 
-8.2400000000000002

>  <m_primary>  (71) 
energy

$$$$
72:0
     RDKit          3D

 48 50  0  0  0  0  0  0  0  0999 V2000
  145.9040  154.0040  136.2260 C   0  0  0  0  0  0  0  0  0  0  0  0
  146.5710  154.7470  135.0590 C   0  0  0  0  0  0  0  0  0  0  0  0
  147.1030  153.7130  134.0480 C   0  0  0  0  0  0  0  0  0  0  0  0
  147.7230  155.6100  135.6100 C   0  0  0  0  0  0  0  0  0  0  0  0
  145.5670  155.5750  134.4560 O   0  0  0  0  0  0  0  0  0  0  0  0
  145.7190  156.3720  133.3100 C   0  0  0  0  0  0  0  0  0  0  0  0
  145.9130  155.8480  132.1810 O   0  0  0  0  0  0  0  0  0  0  0  0
  145.6540  157.8030  133.4340 N   0  0  0  0  0  0  0  0  0  0  0  0
  146.6610  158.6950  133.2150 C   0  0  0  0  0  0  0  0  0  0  0  0
  148.0760  158.3560  132.9740 C   0  0  0  0  0  0  0  0  0  0  0  0
  148.4480  157.3890  131.9900 N   0  0  0  0  0  0  0  0  0  0  0  0
  148.9710  158.8900  133.6830 O   0  0  0  0  0  0  0  0  0  0  0  0
  146.1860  160.0000  133.2900 C   0  0  0  0  0  0  0  0  0  0  0  0
  144.8460  159.8850  133.5770 C   0  0  0  0  0  0  0  0  0  0  0  0
  143.8780  160.8720  133.7370 C   0  0  0  0  0  0  0  0  0  0  0  0
  142.5550  160.4640  133.9780 C   0  0  0  0  0  0  0  0  0  0  0  0
  142.2270  159.0890  134.0550 C   0  0  0  0  0  0  0  0  0  0  0  0
  140.7980  158.6640  134.2520 C   0  0  0  0  0  0  0  0  0  0  0  0
  139.9780  159.0240  133.0430 C   0  0  0  0  0  0  0  0  0  0  0  0
  139.3770  158.0190  132.2690 C   0  0  0  0  0  0  0  0  0  0  0  0
  138.6470  158.3520  131.1240 C   0  0  0  0  0  0  0  0  0  0  0  0
  138.5200  159.6900  130.7400 C   0  0  0  0  0  0  0  0  0  0  0  0
  137.8140  160.0120  129.6280 F   0  0  0  0  0  0  0  0  0  0  0  0
  139.1260  160.6960  131.4980 C   0  0  0  0  0  0  0  0  0  0  0  0
  139.8560  160.3660  132.6440 C   0  0  0  0  0  0  0  0  0  0  0  0
  143.2350  158.1150  133.8770 C   0  0  0  0  0  0  0  0  0  0  0  0
  144.5480  158.5480  133.6580 C   0  0  0  0  0  0  0  0  0  0  0  0
  146.2712  154.4130  137.1788 H   0  0  0  0  0  0  0  0  0  0  0  0
  144.8132  154.1334  136.1675 H   0  0  0  0  0  0  0  0  0  0  0  0
  146.1499  152.9334  136.1675 H   0  0  0  0  0  0  0  0  0  0  0  0
  147.5409  152.8619  134.5901 H   0  0  0  0  0  0  0  0  0  0  0  0
  146.2753  153.3586  133.4161 H   0  0  0  0  0  0  0  0  0  0  0  0
  147.8726  154.1804  133.4161 H   0  0  0  0  0  0  0  0  0  0  0  0
  147.7003  155.5930  136.7096 H   0  0  0  0  0  0  0  0  0  0  0  0
  148.6839  155.2076  135.2568 H   0  0  0  0  0  0  0  0  0  0  0  0
  147.6069  156.6453  135.2568 H   0  0  0  0  0  0  0  0  0  0  0  0
  149.4560  157.1990  131.7950 H   0  0  0  0  0  0  0  0  0  0  0  0
  147.7280  156.8070  131.5080 H   0  0  0  0  0  0  0  0  0  0  0  0
  146.7604  160.9275  133.1495 H   0  0  0  0  0  0  0  0  0  0  0  0
  144.1404  161.9385  133.6767 H   0  0  0  0  0  0  0  0  0  0  0  0
  141.7668  161.2202  134.1080 H   0  0  0  0  0  0  0  0  0  0  0  0
  140.7605  157.5754  134.4056 H   0  0  0  0  0  0  0  0  0  0  0  0
  140.3874  159.1815  135.1315 H   0  0  0  0  0  0  0  0  0  0  0  0
  139.4808  156.9646  132.5646 H   0  0  0  0  0  0  0  0  0  0  0  0
  138.1724  157.5607  130.5251 H   0  0  0  0  0  0  0  0  0  0  0  0
  139.0285  161.7483  131.1927 H   0  0  0  0  0  0  0  0  0  0  0  0
  140.3364  161.1595  133.2352 H   0  0  0  0  0  0  0  0  0  0  0  0
  142.9938  157.0423  133.9097 H   0  0  0  0  0  0  0  0  0  0  0  0
  1  2  1  0
  2  3  1  0
  2  4  1  0
  2  5  1  0
  5  6  1  0
  6  7  2  0
  6  8  1  0
  8  9  1  0
  9 10  1  0
 10 11  1  0
 10 12  2  0
  9 13  2  0
 13 14  1  0
 14 15  2  0
 15 16  1  0
 16 17  2  0
 17 18  1  0
 18 19  1  0
 19 20  2  0
 20 21  1  0
 21 22  2  0
 22 23  1  0
 22 24  1  0
 24 25  2  0
 17 26  1  0
 26 27  2  0
 27  8  1  0
 27 14  1  0
 25 19  1  0
  1 28  1  0
  1 29  1  0
  1 30  1  0
  3 31  1  0
  3 32  1  0
  3 33  1  0
  4 34  1  0
  4 35  1  0
  4 36  1  0
 11 37  1  0
 11 38  1  0
 13 39  1  0
 15 40  1  0
 16 41  1  0
 18 42  1  0
 18 43  1  0
 20 44  1  0
 21 45  1  0
 24 46  1  0
 25 47  1  0
 26 48  1  0
M  END
>  <UniqueID>  (72) 
72

>  <SMILES>  (72) 
CC(C)(C)OC(=O)n1c(C(N)=O)cc2ccc(Cc3ccc(F)cc3)cc21

>  <Energy>  (72) 
82.46929797559325

>  <Genealogy>  (72) 
CC(C)(C)OC(=O)n1c(C(N)=O)cc2ccc(Cc3ccc(F)cc3)cc21 (3D coordinates assigned)
CC(C)(C)OC(=O)n1c(C(N)=O)cc2ccc(Cc3ccc(F)cc3)cc21 (optimized conformer: 82.46929797559325 kcal/mol)

>  <smiles>  (72) 
CC(C)(C)OC(=O)n1c(C(N)=O)cc2ccc(Cc3ccc(F)cc3)cc21

>  <score_type>  (72) 
oracle

>  <origin>  (72) 
adg

>  <m_score__min__energy>  (72) 
-9.2799999999999994

>  <m_primary>  (72) 
energy

$$$$
73:0
     RDKit          3D

 40 42  0  0  0  0  0  0  0  0999 V2000
  139.9350  147.7690  130.7420 C   0  0  0  0  0  0  0  0  0  0  0  0
  140.1350  149.0470  131.4150 N   0  0  0  0  0  0  0  0  0  0  0  0
  139.1460  150.1060  131.4900 C   0  0  0  0  0  0  0  0  0  0  0  0
  139.8330  151.2680  132.2330 C   0  0  0  0  0  0  0  0  0  0  0  0
  141.1280  150.7010  132.8660 C   0  0  2  0  0  0  0  0  0  0  0  0
  140.9450  150.5010  134.2250 F   0  0  0  0  0  0  0  0  0  0  0  0
  142.3700  151.5810  132.6110 C   0  0  0  0  0  0  0  0  0  0  0  0
  142.3730  152.8170  133.4760 C   0  0  0  0  0  0  0  0  0  0  0  0
  143.3560  152.9760  134.4850 C   0  0  0  0  0  0  0  0  0  0  0  0
  143.3520  154.1070  135.3190 C   0  0  0  0  0  0  0  0  0  0  0  0
  142.3590  155.0600  135.1200 C   0  0  0  0  0  0  0  0  0  0  0  0
  142.1070  156.2320  135.7950 C   0  0  0  0  0  0  0  0  0  0  0  0
  140.9850  156.7820  135.1770 C   0  0  0  0  0  0  0  0  0  0  0  0
  140.4220  158.1000  135.5320 C   0  0  0  0  0  0  0  0  0  0  0  0
  139.1640  158.2060  136.1930 N   0  0  0  0  0  0  0  0  0  0  0  0
  141.0390  159.1510  135.2090 O   0  0  0  0  0  0  0  0  0  0  0  0
  140.5550  155.9750  134.1650 N   0  0  0  0  0  0  0  0  0  0  0  0
  139.3900  156.1350  133.3420 C   0  0  0  0  0  0  0  0  0  0  0  0
  138.6370  157.3470  133.3830 N   0  0  0  0  0  0  0  0  0  0  0  0
  139.0060  155.1890  132.6030 O   0  0  0  0  0  0  0  0  0  0  0  0
  141.4090  154.9290  134.1400 C   0  0  0  0  0  0  0  0  0  0  0  0
  141.3810  153.8090  133.3030 C   0  0  0  0  0  0  0  0  0  0  0  0
  141.2570  149.3780  132.2070 C   0  0  0  0  0  0  0  0  0  0  0  0
  142.2340  148.5970  132.3720 O   0  0  0  0  0  0  0  0  0  0  0  0
  139.8107  146.9747  131.4928 H   0  0  0  0  0  0  0  0  0  0  0  0
  139.0344  147.8229  130.1128 H   0  0  0  0  0  0  0  0  0  0  0  0
  140.8091  147.5452  130.1128 H   0  0  0  0  0  0  0  0  0  0  0  0
  138.8448  150.4215  130.4802 H   0  0  0  0  0  0  0  0  0  0  0  0
  138.2353  149.7742  132.0101 H   0  0  0  0  0  0  0  0  0  0  0  0
  140.0799  152.0742  131.5265 H   0  0  0  0  0  0  0  0  0  0  0  0
  139.1700  151.6857  133.0050 H   0  0  0  0  0  0  0  0  0  0  0  0
  143.2733  150.9924  132.8292 H   0  0  0  0  0  0  0  0  0  0  0  0
  142.3493  151.9020  131.5591 H   0  0  0  0  0  0  0  0  0  0  0  0
  144.1302  152.2058  134.6165 H   0  0  0  0  0  0  0  0  0  0  0  0
  144.1109  154.2346  136.1050 H   0  0  0  0  0  0  0  0  0  0  0  0
  142.6714  156.6472  136.6429 H   0  0  0  0  0  0  0  0  0  0  0  0
  139.0840  158.6690  137.1260 H   0  0  0  0  0  0  0  0  0  0  0  0
  138.8960  158.1110  134.0460 H   0  0  0  0  0  0  0  0  0  0  0  0
  137.7960  157.4660  132.7750 H   0  0  0  0  0  0  0  0  0  0  0  0
  140.6063  153.7027  132.5293 H   0  0  0  0  0  0  0  0  0  0  0  0
  1  2  1  0
  2  3  1  0
  3  4  1  0
  4  5  1  0
  5  6  1  1
  5  7  1  0
  7  8  1  0
  8  9  2  0
  9 10  1  0
 10 11  2  0
 11 12  1  0
 12 13  2  0
 13 14  1  0
 14 15  1  0
 14 16  2  0
 13 17  1  0
 17 18  1  0
 18 19  1  0
 18 20  2  0
 17 21  1  0
 21 22  2  0
  5 23  1  0
 23 24  2  0
 23  2  1  0
 22  8  1  0
 21 11  1  0
  1 25  1  0
  1 26  1  0
  1 27  1  0
  3 28  1  0
  3 29  1  0
  4 30  1  0
  4 31  1  0
  7 32  1  0
  7 33  1  0
  9 34  1  0
 10 35  1  0
 12 36  1  0
 15 37  1  0
 19 38  1  0
 19 39  1  0
 22 40  1  0
M  CHG  1  15  -1
M  END
>  <UniqueID>  (73) 
73

>  <SMILES>  (73) 
CN1CC[C@](F)(Cc2ccc3cc(C([NH-])=O)n(C(N)=O)c3c2)C1=O

>  <Energy>  (73) 
83.50133676970715

>  <Genealogy>  (73) 
CN1CCC(F)(Cc2ccc3cc(C([NH-])=O)n(C(N)=O)c3c2)C1=O (protonated)
CN1CC[C@](F)(Cc2ccc3cc(C([NH-])=O)n(C(N)=O)c3c2)C1=O (chirality)
CN1CC[C@](F)(Cc2ccc3cc(C([NH-])=O)n(C(N)=O)c3c2)C1=O (3D coordinates assigned)
CN1CC[C@](F)(Cc2ccc3cc(C([NH-])=O)n(C(N)=O)c3c2)C1=O (nonaromatic ring conformer: 83.50133676970715 kcal/mol)

>  <smiles>  (73) 
CN1CCC(F)(Cc2ccc3cc(C(N)=O)n(C(N)=O)c3c2)C1=O

>  <score_type>  (73) 
oracle

>  <origin>  (73) 
adg

>  <m_score__min__energy>  (73) 
-7.6799999999999997

>  <m_primary>  (73) 
energy

$$$$
74:0
     RDKit          3D

 40 42  0  0  0  0  0  0  0  0999 V2000
  139.0900  146.7230  129.7320 C   0  0  0  0  0  0  0  0  0  0  0  0
  139.1010  148.4500  130.1700 S   0  0  0  0  0  0  0  0  0  0  0  0
  139.6720  149.2210  129.0150 O   0  0  0  0  0  0  0  0  0  0  0  0
  137.7060  148.9430  130.4330 O   0  0  0  0  0  0  0  0  0  0  0  0
  140.1060  148.7150  131.5580 N   0  0  0  0  0  0  0  0  0  0  0  0
  140.6270  149.9640  132.0400 C   0  0  0  0  0  0  0  0  0  0  0  0
  139.7260  151.0220  132.2090 C   0  0  0  0  0  0  0  0  0  0  0  0
  140.1600  152.2680  132.6660 C   0  0  0  0  0  0  0  0  0  0  0  0
  141.5130  152.4810  132.9740 C   0  0  0  0  0  0  0  0  0  0  0  0
  141.9800  153.8050  133.4590 C   0  0  0  0  0  0  0  0  0  0  0  0
  143.3590  154.0330  133.7060 C   0  0  0  0  0  0  0  0  0  0  0  0
  143.8110  155.2790  134.1740 C   0  0  0  0  0  0  0  0  0  0  0  0
  142.8660  156.2790  134.3790 C   0  0  0  0  0  0  0  0  0  0  0  0
  143.0240  157.5650  134.8430 C   0  0  0  0  0  0  0  0  0  0  0  0
  141.7420  158.1140  134.8550 C   0  0  0  0  0  0  0  0  0  0  0  0
  141.4610  159.5220  135.2030 C   0  0  0  0  0  0  0  0  0  0  0  0
  140.8970  159.8680  136.4650 N   0  0  0  0  0  0  0  0  0  0  0  0
  141.6810  160.4290  134.3560 O   0  0  0  0  0  0  0  0  0  0  0  0
  140.8280  157.1980  134.4260 N   0  0  0  0  0  0  0  0  0  0  0  0
  139.4000  157.3360  134.3670 C   0  0  0  0  0  0  0  0  0  0  0  0
  138.7200  158.2070  135.2710 N   0  0  0  0  0  0  0  0  0  0  0  0
  138.7360  156.6600  133.5370 O   0  0  0  0  0  0  0  0  0  0  0  0
  141.5320  156.0840  134.1330 C   0  0  0  0  0  0  0  0  0  0  0  0
  141.0520  154.8500  133.6820 C   0  0  0  0  0  0  0  0  0  0  0  0
  142.4180  151.4170  132.8210 C   0  0  0  0  0  0  0  0  0  0  0  0
  141.9850  150.1670  132.3640 C   0  0  0  0  0  0  0  0  0  0  0  0
  142.8960  149.1690  132.2870 F   0  0  0  0  0  0  0  0  0  0  0  0
  139.0861  146.1127  130.6471 H   0  0  0  0  0  0  0  0  0  0  0  0
  138.1904  146.5008  129.1392 H   0  0  0  0  0  0  0  0  0  0  0  0
  139.9867  146.4894  129.1392 H   0  0  0  0  0  0  0  0  0  0  0  0
  138.6613  150.8696  131.9786 H   0  0  0  0  0  0  0  0  0  0  0  0
  139.4369  153.0882  132.7855 H   0  0  0  0  0  0  0  0  0  0  0  0
  144.0833  153.2243  133.5289 H   0  0  0  0  0  0  0  0  0  0  0  0
  144.8782  155.4577  134.3719 H   0  0  0  0  0  0  0  0  0  0  0  0
  143.9623  158.0557  135.1411 H   0  0  0  0  0  0  0  0  0  0  0  0
  139.8720  159.7800  136.6380 H   0  0  0  0  0  0  0  0  0  0  0  0
  137.6820  158.3140  135.2190 H   0  0  0  0  0  0  0  0  0  0  0  0
  139.2460  158.7150  136.0160 H   0  0  0  0  0  0  0  0  0  0  0  0
  139.9775  154.6953  133.5047 H   0  0  0  0  0  0  0  0  0  0  0  0
  143.4802  151.5684  133.0635 H   0  0  0  0  0  0  0  0  0  0  0  0
  1  2  1  0
  2  3  2  0
  2  4  2  0
  2  5  1  0
  5  6  1  0
  6  7  2  0
  7  8  1  0
  8  9  2  0
  9 10  1  0
 10 11  2  0
 11 12  1  0
 12 13  2  0
 13 14  1  0
 14 15  2  0
 15 16  1  0
 16 17  1  0
 16 18  2  0
 15 19  1  0
 19 20  1  0
 20 21  1  0
 20 22  2  0
 19 23  1  0
 23 24  2  0
  9 25  1  0
 25 26  2  0
 26 27  1  0
 26  6  1  0
 24 10  1  0
 23 13  1  0
  1 28  1  0
  1 29  1  0
  1 30  1  0
  7 31  1  0
  8 32  1  0
 11 33  1  0
 12 34  1  0
 14 35  1  0
 17 36  1  0
 21 37  1  0
 21 38  1  0
 24 39  1  0
 25 40  1  0
M  CHG  2   5  -1  17  -1
M  END
>  <UniqueID>  (74) 
74

>  <SMILES>  (74) 
CS(=O)(=O)[N-]c1ccc(-c2ccc3cc(C([NH-])=O)n(C(N)=O)c3c2)cc1F

>  <Energy>  (74) 
88.51047883275173

>  <Genealogy>  (74) 
CS(=O)(=O)[N-]c1ccc(-c2ccc3cc(C([NH-])=O)n(C(N)=O)c3c2)cc1F (protonated)
CS(=O)(=O)[N-]c1ccc(-c2ccc3cc(C([NH-])=O)n(C(N)=O)c3c2)cc1F (3D coordinates assigned)
CS(=O)(=O)[N-]c1ccc(-c2ccc3cc(C([NH-])=O)n(C(N)=O)c3c2)cc1F (optimized conformer: 88.51047883275173 kcal/mol)

>  <smiles>  (74) 
CS(=O)(=O)Nc1ccc(-c2ccc3cc(C(N)=O)n(C(N)=O)c3c2)cc1F

>  <score_type>  (74) 
oracle

>  <origin>  (74) 
adg

>  <m_score__min__energy>  (74) 
-8.6099999999999994

>  <m_primary>  (74) 
energy

$$$$
75:0
     RDKit          3D

 40 42  0  0  0  0  0  0  0  0999 V2000
  145.6070  155.6370  134.2470 C   0  0  0  0  0  0  0  0  0  0  0  0
  146.1820  156.5050  133.7340 N   0  0  0  0  0  0  0  0  0  0  0  0
  146.8770  157.5280  133.1470 C   0  0  0  0  0  0  0  0  0  0  0  0
  146.2790  158.7550  132.9600 C   0  0  0  0  0  0  0  0  0  0  0  0
  144.9020  159.0450  133.3420 C   0  0  0  0  0  0  0  0  0  0  0  0
  144.5650  160.3120  133.7610 C   0  0  0  0  0  0  0  0  0  0  0  0
  143.2550  160.5540  134.1100 C   0  0  0  0  0  0  0  0  0  0  0  0
  142.3240  159.5380  134.0350 C   0  0  0  0  0  0  0  0  0  0  0  0
  140.9840  159.5200  134.3200 C   0  0  0  0  0  0  0  0  0  0  0  0
  140.4670  158.2350  134.0820 C   0  0  0  0  0  0  0  0  0  0  0  0
  139.0890  157.9200  134.2940 C   0  0  0  0  0  0  0  0  0  0  0  0
  138.1810  157.3000  133.4150 N   0  0  0  0  0  0  0  0  0  0  0  0
  138.5910  158.2370  135.4360 O   0  0  0  0  0  0  0  0  0  0  0  0
  141.5100  157.4960  133.6550 N   0  0  0  0  0  0  0  0  0  0  0  0
  141.5030  156.1360  133.2850 C   0  0  0  0  0  0  0  0  0  0  0  0
  140.3860  155.5090  133.2160 O   0  0  0  0  0  0  0  0  0  0  0  0
  142.6010  155.3680  132.9760 O   0  0  0  0  0  0  0  0  0  0  0  0
  142.6350  158.2660  133.6210 C   0  0  0  0  0  0  0  0  0  0  0  0
  143.9570  158.0380  133.2730 C   0  0  0  0  0  0  0  0  0  0  0  0
  147.0600  159.7500  132.3600 C   0  0  0  0  0  0  0  0  0  0  0  0
  148.3730  159.4690  131.9880 C   0  0  0  0  0  0  0  0  0  0  0  0
  149.1830  160.4390  131.3870 O   0  0  0  0  0  0  0  0  0  0  0  0
  149.3250  160.5190  129.9850 C   0  0  0  0  0  0  0  0  0  0  0  0
  148.9110  158.2390  132.1990 N   0  0  0  0  0  0  0  0  0  0  0  0
  148.1860  157.2630  132.7720 C   0  0  0  0  0  0  0  0  0  0  0  0
  148.8130  155.9270  132.9850 C   0  0  0  0  0  0  0  0  0  0  0  0
  145.3211  161.1091  133.8156 H   0  0  0  0  0  0  0  0  0  0  0  0
  142.9511  161.5557  134.4481 H   0  0  0  0  0  0  0  0  0  0  0  0
  140.4013  160.3806  134.6804 H   0  0  0  0  0  0  0  0  0  0  0  0
  137.6050  157.9060  132.7590 H   0  0  0  0  0  0  0  0  0  0  0  0
  138.0700  156.2430  133.4170 H   0  0  0  0  0  0  0  0  0  0  0  0
  142.9690  155.2280  132.0350 H   0  0  0  0  0  0  0  0  0  0  0  0
  144.2605  157.0361  132.9352 H   0  0  0  0  0  0  0  0  0  0  0  0
  146.6384  160.7504  132.1828 H   0  0  0  0  0  0  0  0  0  0  0  0
  150.2594  161.0454  129.7405 H   0  0  0  0  0  0  0  0  0  0  0  0
  149.3540  159.5045  129.5609 H   0  0  0  0  0  0  0  0  0  0  0  0
  148.4723  161.0695  129.5609 H   0  0  0  0  0  0  0  0  0  0  0  0
  148.9042  155.7326  134.0638 H   0  0  0  0  0  0  0  0  0  0  0  0
  148.1856  155.1498  132.5241 H   0  0  0  0  0  0  0  0  0  0  0  0
  149.8117  155.9130  132.5241 H   0  0  0  0  0  0  0  0  0  0  0  0
  1  2  3  0
  2  3  1  0
  3  4  2  0
  4  5  1  0
  5  6  2  0
  6  7  1  0
  7  8  2  0
  8  9  1  0
  9 10  2  0
 10 11  1  0
 11 12  1  0
 11 13  2  0
 10 14  1  0
 14 15  1  0
 15 16  2  0
 15 17  1  0
 14 18  1  0
 18 19  2  0
  4 20  1  0
 20 21  2  0
 21 22  1  0
 22 23  1  0
 21 24  1  0
 24 25  2  0
 25 26  1  0
 25  3  1  0
 19  5  1  0
 18  8  1  0
  6 27  1  0
  7 28  1  0
  9 29  1  0
 12 30  1  0
 12 31  1  0
 17 32  1  0
 19 33  1  0
 20 34  1  0
 23 35  1  0
 23 36  1  0
 23 37  1  0
 26 38  1  0
 26 39  1  0
 26 40  1  0
M  CHG  2   1  -1   2   1
M  END
>  <smiles>  (75) 
[C-]#[N+]c1c(-c2ccc3cc(C(N)=O)n(C(=O)O)c3c2)cc(OC)nc1C

>  <score_type>  (75) 
oracle

>  <origin>  (75) 
adg

>  <m_score__min__energy>  (75) 
-8.3900000000000006

>  <m_primary>  (75) 
energy

$$$$
76:0
     RDKit          3D

 28 29  0  0  0  0  0  0  0  0999 V2000
  144.7220  161.8380  134.1020 C   0  0  0  0  0  0  0  0  0  0  0  0
  145.4720  160.6500  134.3180 O   0  0  0  0  0  0  0  0  0  0  0  0
  145.4630  159.5790  133.4190 C   0  0  0  0  0  0  0  0  0  0  0  0
  144.3940  159.2410  132.8410 O   0  0  0  0  0  0  0  0  0  0  0  0
  146.6730  158.8450  133.1720 N   0  0  0  0  0  0  0  0  0  0  0  0
  147.0380  157.6330  133.6800 C   0  0  0  0  0  0  0  0  0  0  0  0
  146.1810  156.7310  134.4780 C   0  0  0  0  0  0  0  0  0  0  0  0
  144.7620  156.8640  134.4650 N   0  0  0  0  0  0  0  0  0  0  0  0
  146.7070  155.8000  135.1440 O   0  0  0  0  0  0  0  0  0  0  0  0
  148.3280  157.3020  133.2760 C   0  0  0  0  0  0  0  0  0  0  0  0
  148.7450  158.3500  132.4890 C   0  0  0  0  0  0  0  0  0  0  0  0
  149.9590  158.5550  131.8390 C   0  0  0  0  0  0  0  0  0  0  0  0
  150.1290  159.7510  131.1210 C   0  0  0  0  0  0  0  0  0  0  0  0
  149.0890  160.7120  131.0650 C   0  0  0  0  0  0  0  0  0  0  0  0
  149.3030  162.0070  130.3410 C   0  0  0  0  0  0  0  0  0  0  0  0
  147.8770  160.4780  131.7510 C   0  0  0  0  0  0  0  0  0  0  0  0
  147.7280  159.2690  132.4410 C   0  0  0  0  0  0  0  0  0  0  0  0
  144.4444  162.2777  135.0713 H   0  0  0  0  0  0  0  0  0  0  0  0
  145.3301  162.5573  133.5338 H   0  0  0  0  0  0  0  0  0  0  0  0
  143.8111  161.5984  133.5338 H   0  0  0  0  0  0  0  0  0  0  0  0
  144.3100  157.8050  134.4530 H   0  0  0  0  0  0  0  0  0  0  0  0
  148.8942  156.3943  133.5320 H   0  0  0  0  0  0  0  0  0  0  0  0
  150.7609  157.8035  131.8860 H   0  0  0  0  0  0  0  0  0  0  0  0
  151.0775  159.9429  130.5980 H   0  0  0  0  0  0  0  0  0  0  0  0
  149.4370  162.8180  131.0720 H   0  0  0  0  0  0  0  0  0  0  0  0
  150.2006  161.9302  129.7099 H   0  0  0  0  0  0  0  0  0  0  0  0
  148.4284  162.2231  129.7099 H   0  0  0  0  0  0  0  0  0  0  0  0
  147.0708  161.2263  131.7434 H   0  0  0  0  0  0  0  0  0  0  0  0
  1  2  1  0
  2  3  1  0
  3  4  2  0
  3  5  1  0
  5  6  1  0
  6  7  1  0
  7  8  1  0
  7  9  2  0
  6 10  2  0
 10 11  1  0
 11 12  2  0
 12 13  1  0
 13 14  2  0
 14 15  1  0
 14 16  1  0
 16 17  2  0
 17  5  1  0
 17 11  1  0
  1 18  1  0
  1 19  1  0
  1 20  1  0
  8 21  1  0
 10 22  1  0
 12 23  1  0
 13 24  1  0
 15 25  1  0
 15 26  1  0
 15 27  1  0
 16 28  1  0
M  CHG  1   8  -1
M  END
>  <UniqueID>  (76) 
75

>  <SMILES>  (76) 
COC(=O)n1c(C([NH-])=O)cc2ccc(C)cc21

>  <Energy>  (76) 
64.91020287226385

>  <Genealogy>  (76) 
COC(=O)n1c(C([NH-])=O)cc2ccc(C)cc21 (protonated)
COC(=O)n1c(C([NH-])=O)cc2ccc(C)cc21 (3D coordinates assigned)
COC(=O)n1c(C([NH-])=O)cc2ccc(C)cc21 (optimized conformer: 64.91020287226385 kcal/mol)

>  <smiles>  (76) 
COC(=O)n1c(C(N)=O)cc2ccc(C)cc21

>  <score_type>  (76) 
oracle

>  <origin>  (76) 
adg

>  <m_score__min__energy>  (76) 
-5.5099999999999998

>  <m_primary>  (76) 
energy

$$$$
77:0
     RDKit          3D

 49 51  0  0  0  0  0  0  0  0999 V2000
  139.4600  161.0480  132.0890 C   0  0  0  0  0  0  0  0  0  0  0  0
  140.0770  159.8120  131.8020 O   0  0  0  0  0  0  0  0  0  0  0  0
  139.3870  159.1430  130.7630 C   0  0  0  0  0  0  0  0  0  0  0  0
  138.0210  158.6260  131.2530 C   0  0  2  0  0  0  0  0  0  0  0  0
  136.8970  159.5860  130.8620 C   0  0  0  0  0  0  0  0  0  0  0  0
  138.0320  158.4910  132.6750 O   0  0  0  0  0  0  0  0  0  0  0  0
  138.8610  157.5980  133.3640 C   0  0  0  0  0  0  0  0  0  0  0  0
  138.7370  156.3540  133.1880 O   0  0  0  0  0  0  0  0  0  0  0  0
  139.8790  158.1170  134.3050 C   0  0  0  0  0  0  0  0  0  0  0  0
  139.5570  158.3100  135.6580 C   0  0  0  0  0  0  0  0  0  0  0  0
  140.5140  158.7980  136.5480 C   0  0  0  0  0  0  0  0  0  0  0  0
  141.8020  159.1000  136.1030 C   0  0  0  0  0  0  0  0  0  0  0  0
  142.1490  158.9160  134.7530 C   0  0  0  0  0  0  0  0  0  0  0  0
  143.5170  159.2400  134.2760 C   0  0  0  0  0  0  0  0  0  0  0  0
  143.9480  160.5910  134.1950 C   0  0  0  0  0  0  0  0  0  0  0  0
  145.2380  160.9090  133.7370 C   0  0  0  0  0  0  0  0  0  0  0  0
  146.0780  159.8620  133.3720 C   0  0  0  0  0  0  0  0  0  0  0  0
  147.3630  159.8860  132.8820 C   0  0  0  0  0  0  0  0  0  0  0  0
  147.7090  158.5510  132.6850 C   0  0  0  0  0  0  0  0  0  0  0  0
  149.0500  158.1080  132.2510 C   0  0  0  0  0  0  0  0  0  0  0  0
  149.9880  159.0630  131.7610 N   0  0  0  0  0  0  0  0  0  0  0  0
  149.3890  156.8990  132.3380 O   0  0  0  0  0  0  0  0  0  0  0  0
  146.6730  157.7340  133.0320 N   0  0  0  0  0  0  0  0  0  0  0  0
  146.6020  156.3040  132.9250 C   0  0  0  0  0  0  0  0  0  0  0  0
  147.2500  155.6250  131.8490 N   0  0  0  0  0  0  0  0  0  0  0  0
  145.9340  155.6430  133.7650 O   0  0  0  0  0  0  0  0  0  0  0  0
  145.6850  158.5520  133.4560 C   0  0  0  0  0  0  0  0  0  0  0  0
  144.4040  158.2050  133.8940 C   0  0  0  0  0  0  0  0  0  0  0  0
  141.1790  158.4220  133.8600 C   0  0  0  0  0  0  0  0  0  0  0  0
  139.3939  161.1805  133.1790 H   0  0  0  0  0  0  0  0  0  0  0  0
  140.0561  161.8647  131.6559 H   0  0  0  0  0  0  0  0  0  0  0  0
  138.4490  161.0625  131.6559 H   0  0  0  0  0  0  0  0  0  0  0  0
  139.2291  159.8413  129.9279 H   0  0  0  0  0  0  0  0  0  0  0  0
  139.9912  158.2836  130.4368 H   0  0  0  0  0  0  0  0  0  0  0  0
  137.8420  157.6496  130.7791 H   0  0  0  0  0  0  0  0  0  0  0  0
  136.4258  159.9885  131.7708 H   0  0  0  0  0  0  0  0  0  0  0  0
  137.3116  160.4130  130.2669 H   0  0  0  0  0  0  0  0  0  0  0  0
  136.1450  159.0471  130.2669 H   0  0  0  0  0  0  0  0  0  0  0  0
  138.5445  158.0751  136.0182 H   0  0  0  0  0  0  0  0  0  0  0  0
  140.2522  158.9456  137.6061 H   0  0  0  0  0  0  0  0  0  0  0  0
  142.5498  159.4841  136.8125 H   0  0  0  0  0  0  0  0  0  0  0  0
  143.2636  161.3984  134.4945 H   0  0  0  0  0  0  0  0  0  0  0  0
  145.5734  161.9544  133.6692 H   0  0  0  0  0  0  0  0  0  0  0  0
  147.9856  160.7717  132.6870 H   0  0  0  0  0  0  0  0  0  0  0  0
  150.6800  159.5120  132.4010 H   0  0  0  0  0  0  0  0  0  0  0  0
  147.7360  156.1640  131.0980 H   0  0  0  0  0  0  0  0  0  0  0  0
  147.2090  154.5850  131.7810 H   0  0  0  0  0  0  0  0  0  0  0  0
  144.0920  157.1512  133.9409 H   0  0  0  0  0  0  0  0  0  0  0  0
  141.4403  158.2726  132.8020 H   0  0  0  0  0  0  0  0  0  0  0  0
  1  2  1  0
  2  3  1  0
  3  4  1  0
  4  5  1  0
  4  6  1  0
  6  7  1  0
  7  8  2  0
  7  9  1  0
  9 10  2  0
 10 11  1  0
 11 12  2  0
 12 13  1  0
 13 14  1  0
 14 15  2  0
 15 16  1  0
 16 17  2  0
 17 18  1  0
 18 19  2  0
 19 20  1  0
 20 21  1  0
 20 22  2  0
 19 23  1  0
 23 24  1  0
 24 25  1  0
 24 26  2  0
 23 27  1  0
 27 28  2  0
 13 29  2  0
 29  9  1  0
 28 14  1  0
 27 17  1  0
  1 30  1  0
  1 31  1  0
  1 32  1  0
  3 33  1  0
  3 34  1  0
  4 35  1  6
  5 36  1  0
  5 37  1  0
  5 38  1  0
 10 39  1  0
 11 40  1  0
 12 41  1  0
 15 42  1  0
 16 43  1  0
 18 44  1  0
 21 45  1  0
 25 46  1  0
 25 47  1  0
 28 48  1  0
 29 49  1  0
M  CHG  1  21  -1
M  END
>  <UniqueID>  (77) 
76

>  <SMILES>  (77) 
COC[C@H](C)OC(=O)c1cccc(-c2ccc3cc(C([NH-])=O)n(C(N)=O)c3c2)c1

>  <Energy>  (77) 
92.10273201304354

>  <Genealogy>  (77) 
COC[C@H](C)OC(=O)c1cccc(-c2ccc3cc(C([NH-])=O)n(C(N)=O)c3c2)c1 (protonated)
COC[C@H](C)OC(=O)c1cccc(-c2ccc3cc(C([NH-])=O)n(C(N)=O)c3c2)c1 (3D coordinates assigned)
COC[C@H](C)OC(=O)c1cccc(-c2ccc3cc(C([NH-])=O)n(C(N)=O)c3c2)c1 (optimized conformer: 92.10273201304354 kcal/mol)

>  <smiles>  (77) 
COC[C@H](C)OC(=O)c1cccc(-c2ccc3cc(C(N)=O)n(C(N)=O)c3c2)c1

>  <score_type>  (77) 
oracle

>  <origin>  (77) 
adg

>  <m_score__min__energy>  (77) 
-8.8499999999999996

>  <m_primary>  (77) 
energy

$$$$
78:0
     RDKit          3D

 32 34  0  0  0  0  0  0  0  0999 V2000
  142.9780  160.6450  133.3600 N   0  0  0  0  0  0  0  0  0  0  0  0
  144.3420  160.8030  133.7420 C   0  0  0  0  0  0  0  0  0  0  0  0
  144.7100  161.8790  134.2840 O   0  0  0  0  0  0  0  0  0  0  0  0
  145.3140  159.7240  133.4630 C   0  0  0  0  0  0  0  0  0  0  0  0
  146.6660  159.9530  133.2180 C   0  0  0  0  0  0  0  0  0  0  0  0
  147.2290  158.7050  133.0880 C   0  0  0  0  0  0  0  0  0  0  0  0
  148.5460  158.3430  132.8260 C   0  0  0  0  0  0  0  0  0  0  0  0
  148.8430  156.9740  132.7150 C   0  0  0  0  0  0  0  0  0  0  0  0
  147.8260  155.9950  132.8580 C   0  0  0  0  0  0  0  0  0  0  0  0
  148.1500  154.5520  132.7250 C   0  0  0  0  0  0  0  0  0  0  0  0
  149.4830  154.1300  132.5600 C   0  0  0  0  0  0  0  0  0  0  0  0
  149.7860  152.7700  132.4360 C   0  0  0  0  0  0  0  0  0  0  0  0
  148.7640  151.8180  132.4740 C   0  0  0  0  0  0  0  0  0  0  0  0
  149.0600  150.5010  132.3520 F   0  0  0  0  0  0  0  0  0  0  0  0
  147.4370  152.2240  132.6350 C   0  0  0  0  0  0  0  0  0  0  0  0
  147.1290  153.5830  132.7610 C   0  0  0  0  0  0  0  0  0  0  0  0
  146.4970  156.4060  133.1220 C   0  0  0  0  0  0  0  0  0  0  0  0
  146.2340  157.7760  133.2470 C   0  0  0  0  0  0  0  0  0  0  0  0
  145.0510  158.3860  133.4780 N   0  0  0  0  0  0  0  0  0  0  0  0
  143.7760  157.7410  133.6380 C   0  0  0  0  0  0  0  0  0  0  0  0
  142.7730  157.8730  132.6330 N   0  0  0  0  0  0  0  0  0  0  0  0
  143.5340  157.0650  134.6730 O   0  0  0  0  0  0  0  0  0  0  0  0
  142.7150  160.0550  132.5410 H   0  0  0  0  0  0  0  0  0  0  0  0
  147.1751  160.9253  133.1442 H   0  0  0  0  0  0  0  0  0  0  0  0
  149.3309  159.1048  132.7093 H   0  0  0  0  0  0  0  0  0  0  0  0
  149.8772  156.6573  132.5147 H   0  0  0  0  0  0  0  0  0  0  0  0
  150.2918  154.8749  132.5284 H   0  0  0  0  0  0  0  0  0  0  0  0
  150.8305  152.4495  132.3084 H   0  0  0  0  0  0  0  0  0  0  0  0
  146.6329  151.4739  132.6627 H   0  0  0  0  0  0  0  0  0  0  0  0
  146.0824  153.8965  132.8890 H   0  0  0  0  0  0  0  0  0  0  0  0
  145.6896  155.6663  133.2265 H   0  0  0  0  0  0  0  0  0  0  0  0
  142.5120  158.8110  132.2570 H   0  0  0  0  0  0  0  0  0  0  0  0
  1  2  1  0
  2  3  2  0
  2  4  1  0
  4  5  2  0
  5  6  1  0
  6  7  2  0
  7  8  1  0
  8  9  2  0
  9 10  1  0
 10 11  2  0
 11 12  1  0
 12 13  2  0
 13 14  1  0
 13 15  1  0
 15 16  2  0
  9 17  1  0
 17 18  2  0
 18 19  1  0
 19 20  1  0
 20 21  1  0
 20 22  2  0
 19  4  1  0
 18  6  1  0
 16 10  1  0
  1 23  1  0
  5 24  1  0
  7 25  1  0
  8 26  1  0
 11 27  1  0
 12 28  1  0
 15 29  1  0
 16 30  1  0
 17 31  1  0
 21 32  1  0
M  CHG  2   1  -1  21  -1
M  END
>  <UniqueID>  (78) 
77

>  <SMILES>  (78) 
[NH-]C(=O)c1cc2ccc(-c3ccc(F)cc3)cc2n1C([NH-])=O

>  <Energy>  (78) 
79.12000082082727

>  <Genealogy>  (78) 
[NH-]C(=O)c1cc2ccc(-c3ccc(F)cc3)cc2n1C([NH-])=O (protonated)
[NH-]C(=O)c1cc2ccc(-c3ccc(F)cc3)cc2n1C([NH-])=O (3D coordinates assigned)
[NH-]C(=O)c1cc2ccc(-c3ccc(F)cc3)cc2n1C([NH-])=O (optimized conformer: 79.12000082082727 kcal/mol)

>  <smiles>  (78) 
NC(=O)c1cc2ccc(-c3ccc(F)cc3)cc2n1C(N)=O

>  <score_type>  (78) 
oracle

>  <origin>  (78) 
adg

>  <m_score__min__energy>  (78) 
-7.2699999999999996

>  <m_primary>  (78) 
energy

$$$$
79:0
     RDKit          3D

 39 41  0  0  0  0  0  0  0  0999 V2000
  146.5890  155.8140  132.2050 N   0  0  0  0  0  0  0  0  0  0  0  0
  146.4320  156.5650  133.4200 C   0  0  0  0  0  0  0  0  0  0  0  0
  146.3670  155.9440  134.5320 O   0  0  0  0  0  0  0  0  0  0  0  0
  146.3240  158.0070  133.3730 N   0  0  0  0  0  0  0  0  0  0  0  0
  147.2680  158.8900  132.9320 C   0  0  0  0  0  0  0  0  0  0  0  0
  148.6610  158.5670  132.5780 C   0  0  0  0  0  0  0  0  0  0  0  0
  148.9700  157.3740  131.8590 N   0  0  0  0  0  0  0  0  0  0  0  0
  149.5960  159.3160  132.9820 O   0  0  0  0  0  0  0  0  0  0  0  0
  146.7770  160.1880  132.9190 C   0  0  0  0  0  0  0  0  0  0  0  0
  145.4930  160.0910  133.3950 C   0  0  0  0  0  0  0  0  0  0  0  0
  144.5490  161.0940  133.6040 C   0  0  0  0  0  0  0  0  0  0  0  0
  143.2990  160.7270  134.1180 C   0  0  0  0  0  0  0  0  0  0  0  0
  143.0120  159.3730  134.4070 C   0  0  0  0  0  0  0  0  0  0  0  0
  141.6690  158.9960  134.9800 C   0  0  0  0  0  0  0  0  0  0  0  0
  140.7440  158.3410  133.9340 C   0  0  1  0  0  0  0  0  0  0  0  0
  139.3030  158.1690  134.4630 C   0  0  0  0  0  0  0  0  0  0  0  0
  138.3780  157.6710  133.3410 C   0  0  0  0  0  0  0  0  0  0  0  0
  138.2940  158.6910  132.2010 C   0  0  0  0  0  0  0  0  0  0  0  0
  139.6560  159.2030  131.8020 C   0  0  0  0  0  0  0  0  0  0  0  0
  139.8070  159.7760  130.6890 O   0  0  0  0  0  0  0  0  0  0  0  0
  140.7510  159.1640  132.7230 N   0  0  0  0  0  0  0  0  0  0  0  0
  143.9820  158.3760  134.1530 C   0  0  0  0  0  0  0  0  0  0  0  0
  145.2360  158.7700  133.6620 C   0  0  0  0  0  0  0  0  0  0  0  0
  146.2440  156.1940  131.2950 H   0  0  0  0  0  0  0  0  0  0  0  0
  149.9610  157.1580  131.6060 H   0  0  0  0  0  0  0  0  0  0  0  0
  148.2200  156.6830  131.6120 H   0  0  0  0  0  0  0  0  0  0  0  0
  147.3033  161.0985  132.5967 H   0  0  0  0  0  0  0  0  0  0  0  0
  144.7789  162.1444  133.3719 H   0  0  0  0  0  0  0  0  0  0  0  0
  142.5350  161.4976  134.2982 H   0  0  0  0  0  0  0  0  0  0  0  0
  141.8245  158.2872  135.8067 H   0  0  0  0  0  0  0  0  0  0  0  0
  141.1817  159.9196  135.3258 H   0  0  0  0  0  0  0  0  0  0  0  0
  141.1223  157.3325  133.7110 H   0  0  0  0  0  0  0  0  0  0  0  0
  139.3031  157.4375  135.2845 H   0  0  0  0  0  0  0  0  0  0  0  0
  138.9361  159.1413  134.8237 H   0  0  0  0  0  0  0  0  0  0  0  0
  138.7710  156.7225  132.9460 H   0  0  0  0  0  0  0  0  0  0  0  0
  137.3697  157.5288  133.7572 H   0  0  0  0  0  0  0  0  0  0  0  0
  137.8249  158.2118  131.3291 H   0  0  0  0  0  0  0  0  0  0  0  0
  137.6980  159.5462  132.5523 H   0  0  0  0  0  0  0  0  0  0  0  0
  143.7584  157.3147  134.3363 H   0  0  0  0  0  0  0  0  0  0  0  0
  1  2  1  0
  2  3  2  0
  2  4  1  0
  4  5  1  0
  5  6  1  0
  6  7  1  0
  6  8  2  0
  5  9  2  0
  9 10  1  0
 10 11  2  0
 11 12  1  0
 12 13  2  0
 13 14  1  0
 14 15  1  0
 15 16  1  0
 16 17  1  0
 17 18  1  0
 18 19  1  0
 19 20  2  0
 19 21  1  0
 13 22  1  0
 22 23  2  0
 23  4  1  0
 23 10  1  0
 21 15  1  0
  1 24  1  0
  7 25  1  0
  7 26  1  0
  9 27  1  0
 11 28  1  0
 12 29  1  0
 14 30  1  0
 14 31  1  0
 15 32  1  6
 16 33  1  0
 16 34  1  0
 17 35  1  0
 17 36  1  0
 18 37  1  0
 18 38  1  0
 22 39  1  0
M  CHG  2   1  -1  21  -1
M  END
>  <UniqueID>  (79) 
78

>  <SMILES>  (79) 
[NH-]C(=O)n1c(C(N)=O)cc2ccc(C[C@H]3CCCC(=O)[N-]3)cc21

>  <Energy>  (79) 
77.36391974541147

>  <Genealogy>  (79) 
[NH-]C(=O)n1c(C(N)=O)cc2ccc(CC3CCCC(=O)[N-]3)cc21 (protonated)
[NH-]C(=O)n1c(C(N)=O)cc2ccc(C[C@H]3CCCC(=O)[N-]3)cc21 (chirality)
[NH-]C(=O)n1c(C(N)=O)cc2ccc(C[C@H]3CCCC(=O)[N-]3)cc21 (3D coordinates assigned)
[NH-]C(=O)n1c(C(N)=O)cc2ccc(C[C@H]3CCCC(=O)[N-]3)cc21 (nonaromatic ring conformer: 77.36391974541147 kcal/mol)

>  <smiles>  (79) 
NC(=O)c1cc2ccc(CC3CCCC(=O)N3)cc2n1C(N)=O

>  <score_type>  (79) 
oracle

>  <origin>  (79) 
adg

>  <m_score__min__energy>  (79) 
-8.2899999999999991

>  <m_primary>  (79) 
energy

$$$$
80:0
     RDKit          3D

 48 51  0  0  0  0  0  0  0  0999 V2000
  146.2230  159.6480  132.8800 C   0  0  0  0  0  0  0  0  0  0  0  0
  145.2650  158.6050  133.3510 C   0  0  0  0  0  0  0  0  0  0  0  0
  145.4530  157.2380  133.3510 C   0  0  0  0  0  0  0  0  0  0  0  0
  144.3310  156.6400  133.7950 N   0  0  0  0  0  0  0  0  0  0  0  0
  143.4430  157.5880  134.0600 N   0  0  0  0  0  0  0  0  0  0  0  0
  142.1030  157.3100  134.5890 C   0  0  1  0  0  0  0  0  0  0  0  0
  141.9680  157.7860  136.0520 C   0  0  0  0  0  0  0  0  0  0  0  0
  141.6200  156.6350  136.9640 C   0  0  0  0  0  0  0  0  0  0  0  0
  141.0920  156.8870  138.2530 C   0  0  0  0  0  0  0  0  0  0  0  0
  140.7010  155.8250  139.0850 C   0  0  0  0  0  0  0  0  0  0  0  0
  140.8460  154.5280  138.6000 C   0  0  0  0  0  0  0  0  0  0  0  0
  140.5010  153.3260  139.1750 C   0  0  0  0  0  0  0  0  0  0  0  0
  140.8390  152.3590  138.2320 C   0  0  0  0  0  0  0  0  0  0  0  0
  140.6870  150.9090  138.4690 C   0  0  0  0  0  0  0  0  0  0  0  0
  139.8450  150.1090  137.6370 N   0  0  0  0  0  0  0  0  0  0  0  0
  141.3570  150.3580  139.3830 O   0  0  0  0  0  0  0  0  0  0  0  0
  141.3590  152.9340  137.1130 N   0  0  0  0  0  0  0  0  0  0  0  0
  141.6940  152.2840  135.8750 C   0  0  0  0  0  0  0  0  0  0  0  0
  142.6220  152.7280  135.1490 O   0  0  0  0  0  0  0  0  0  0  0  0
  140.9870  151.1620  135.4590 O   0  0  0  0  0  0  0  0  0  0  0  0
  141.3630  154.2660  137.3570 C   0  0  0  0  0  0  0  0  0  0  0  0
  141.7500  155.3060  136.5040 C   0  0  0  0  0  0  0  0  0  0  0  0
  141.0420  157.8950  133.6730 C   0  0  0  0  0  0  0  0  0  0  0  0
  140.0820  157.0860  133.0350 C   0  0  0  0  0  0  0  0  0  0  0  0
  139.0950  157.6580  132.2270 C   0  0  0  0  0  0  0  0  0  0  0  0
  139.0440  159.0440  132.0560 C   0  0  0  0  0  0  0  0  0  0  0  0
  137.8030  159.7590  131.0430 Cl  0  0  0  0  0  0  0  0  0  0  0  0
  139.9790  159.8590  132.6970 C   0  0  0  0  0  0  0  0  0  0  0  0
  140.9680  159.2910  133.5060 C   0  0  0  0  0  0  0  0  0  0  0  0
  143.9740  158.7980  133.7880 C   0  0  0  0  0  0  0  0  0  0  0  0
  146.6798  160.1453  133.7484 H   0  0  0  0  0  0  0  0  0  0  0  0
  147.0091  159.1762  132.2722 H   0  0  0  0  0  0  0  0  0  0  0  0
  145.6862  160.3913  132.2722 H   0  0  0  0  0  0  0  0  0  0  0  0
  146.3717  156.7200  133.0385 H   0  0  0  0  0  0  0  0  0  0  0  0
  141.9460  156.2214  134.6091 H   0  0  0  0  0  0  0  0  0  0  0  0
  142.9222  158.2267  136.3766 H   0  0  0  0  0  0  0  0  0  0  0  0
  141.1616  158.5323  136.1053 H   0  0  0  0  0  0  0  0  0  0  0  0
  140.9870  157.9235  138.6061 H   0  0  0  0  0  0  0  0  0  0  0  0
  140.2927  156.0123  140.0891 H   0  0  0  0  0  0  0  0  0  0  0  0
  140.0540  153.1641  140.1670 H   0  0  0  0  0  0  0  0  0  0  0  0
  139.7210  149.0930  137.8420 H   0  0  0  0  0  0  0  0  0  0  0  0
  139.4050  150.5030  136.7770 H   0  0  0  0  0  0  0  0  0  0  0  0
  142.1457  155.0935  135.4999 H   0  0  0  0  0  0  0  0  0  0  0  0
  140.1090  155.9951  133.1736 H   0  0  0  0  0  0  0  0  0  0  0  0
  138.3568  157.0156  131.7246 H   0  0  0  0  0  0  0  0  0  0  0  0
  139.9375  160.9503  132.5653 H   0  0  0  0  0  0  0  0  0  0  0  0
  141.6945  159.9405  134.0163 H   0  0  0  0  0  0  0  0  0  0  0  0
  143.4653  159.7673  133.8963 H   0  0  0  0  0  0  0  0  0  0  0  0
  1  2  1  0
  2  3  1  0
  3  4  2  0
  4  5  1  0
  5  6  1  0
  6  7  1  0
  7  8  1  0
  8  9  2  0
  9 10  1  0
 10 11  2  0
 11 12  1  0
 12 13  2  0
 13 14  1  0
 14 15  1  0
 14 16  2  0
 13 17  1  0
 17 18  1  0
 18 19  2  0
 18 20  1  0
 17 21  1  0
 21 22  2  0
  6 23  1  0
 23 24  2  0
 24 25  1  0
 25 26  2  0
 26 27  1  0
 26 28  1  0
 28 29  2  0
  5 30  1  0
 30  2  2  0
 22  8  1  0
 29 23  1  0
 21 11  1  0
  1 31  1  0
  1 32  1  0
  1 33  1  0
  3 34  1  0
  6 35  1  1
  7 36  1  0
  7 37  1  0
  9 38  1  0
 10 39  1  0
 12 40  1  0
 15 41  1  0
 15 42  1  0
 22 43  1  0
 24 44  1  0
 25 45  1  0
 28 46  1  0
 29 47  1  0
 30 48  1  0
M  CHG  1  20  -1
M  END
>  <UniqueID>  (80) 
79

>  <SMILES>  (80) 
Cc1cnn([C@@H](Cc2ccc3cc(C(N)=O)n(C(=O)[O-])c3c2)c2ccc(Cl)cc2)c1

>  <Energy>  (80) 
118.88880161056262

>  <Genealogy>  (80) 
Cc1cnn(C(Cc2ccc3cc(C(N)=O)n(C(=O)[O-])c3c2)c2ccc(Cl)cc2)c1 (protonated)
Cc1cnn([C@@H](Cc2ccc3cc(C(N)=O)n(C(=O)[O-])c3c2)c2ccc(Cl)cc2)c1 (chirality)
Cc1cnn([C@@H](Cc2ccc3cc(C(N)=O)n(C(=O)[O-])c3c2)c2ccc(Cl)cc2)c1 (3D coordinates assigned)
Cc1cnn([C@@H](Cc2ccc3cc(C(N)=O)n(C(=O)[O-])c3c2)c2ccc(Cl)cc2)c1 (optimized conformer: 118.88880161056262 kcal/mol)

>  <smiles>  (80) 
Cc1cnn(C(Cc2ccc3cc(C(N)=O)n(C(=O)O)c3c2)c2ccc(Cl)cc2)c1

>  <score_type>  (80) 
oracle

>  <origin>  (80) 
adg

>  <m_score__min__energy>  (80) 
-9.5600000000000005

>  <m_primary>  (80) 
energy

$$$$
81:0
     RDKit          3D

 42 44  0  0  0  0  0  0  0  0999 V2000
  140.4670  155.5060  133.3670 C   0  0  0  0  0  0  0  0  0  0  0  0
  139.5820  156.4180  132.6360 N   0  0  0  0  0  0  0  0  0  0  0  0
  138.7680  157.2670  133.5300 C   0  0  0  0  0  0  0  0  0  0  0  0
  138.4980  158.6750  132.9380 C   0  0  0  0  0  0  0  0  0  0  0  0
  139.7920  159.4910  132.7890 C   0  0  0  0  0  0  0  0  0  0  0  0
  140.7170  159.2310  133.9010 N   0  0  0  0  0  0  0  0  0  0  0  0
  142.1280  159.4770  133.7370 C   0  0  0  0  0  0  0  0  0  0  0  0
  142.6340  160.8010  133.7940 C   0  0  0  0  0  0  0  0  0  0  0  0
  144.0100  161.0500  133.6660 C   0  0  0  0  0  0  0  0  0  0  0  0
  144.8560  159.9620  133.4770 C   0  0  0  0  0  0  0  0  0  0  0  0
  146.2250  159.9190  133.3590 C   0  0  0  0  0  0  0  0  0  0  0  0
  146.5390  158.5710  133.2080 C   0  0  0  0  0  0  0  0  0  0  0  0
  147.9110  158.0780  132.9830 C   0  0  0  0  0  0  0  0  0  0  0  0
  148.1910  157.1020  131.9800 N   0  0  0  0  0  0  0  0  0  0  0  0
  148.8620  158.5690  133.6480 O   0  0  0  0  0  0  0  0  0  0  0  0
  145.4110  157.8070  133.2450 N   0  0  0  0  0  0  0  0  0  0  0  0
  145.3340  156.3700  133.2470 C   0  0  0  0  0  0  0  0  0  0  0  0
  145.9360  155.6960  132.3710 O   0  0  0  0  0  0  0  0  0  0  0  0
  144.5890  155.7090  134.2160 O   0  0  0  0  0  0  0  0  0  0  0  0
  144.3860  158.6740  133.4080 C   0  0  0  0  0  0  0  0  0  0  0  0
  143.0210  158.3960  133.5550 C   0  0  0  0  0  0  0  0  0  0  0  0
  140.1830  158.6970  135.1590 C   0  0  0  0  0  0  0  0  0  0  0  0
  139.4570  157.3620  134.9180 C   0  0  0  0  0  0  0  0  0  0  0  0
  140.3282  155.6490  134.4488 H   0  0  0  0  0  0  0  0  0  0  0  0
  140.2238  154.4669  133.1003 H   0  0  0  0  0  0  0  0  0  0  0  0
  141.5130  155.7178  133.1003 H   0  0  0  0  0  0  0  0  0  0  0  0
  138.9730  155.8590  131.9950 H   0  0  0  0  0  0  0  0  0  0  0  0
  137.7816  156.7931  133.6415 H   0  0  0  0  0  0  0  0  0  0  0  0
  138.0330  158.5613  131.9476 H   0  0  0  0  0  0  0  0  0  0  0  0
  137.8325  159.2137  133.6286 H   0  0  0  0  0  0  0  0  0  0  0  0
  140.2821  159.2164  131.8433 H   0  0  0  0  0  0  0  0  0  0  0  0
  139.5318  160.5598  132.7959 H   0  0  0  0  0  0  0  0  0  0  0  0
  141.9405  161.6423  133.9402 H   0  0  0  0  0  0  0  0  0  0  0  0
  144.4071  162.0747  133.7137 H   0  0  0  0  0  0  0  0  0  0  0  0
  146.9235  160.7685  133.3795 H   0  0  0  0  0  0  0  0  0  0  0  0
  147.4560  156.7980  131.3030 H   0  0  0  0  0  0  0  0  0  0  0  0
  149.1620  156.7380  131.8580 H   0  0  0  0  0  0  0  0  0  0  0  0
  142.6521  157.3600  133.5294 H   0  0  0  0  0  0  0  0  0  0  0  0
  141.0121  158.5352  135.8635 H   0  0  0  0  0  0  0  0  0  0  0  0
  139.4654  159.4201  135.5740 H   0  0  0  0  0  0  0  0  0  0  0  0
  140.1924  156.5478  134.9969 H   0  0  0  0  0  0  0  0  0  0  0  0
  138.6636  157.2865  135.6762 H   0  0  0  0  0  0  0  0  0  0  0  0
  1  2  1  0
  2  3  1  0
  3  4  1  0
  4  5  1  0
  5  6  1  0
  6  7  1  0
  7  8  2  0
  8  9  1  0
  9 10  2  0
 10 11  1  0
 11 12  2  0
 12 13  1  0
 13 14  1  0
 13 15  2  0
 12 16  1  0
 16 17  1  0
 17 18  2  0
 17 19  1  0
 16 20  1  0
 20 21  2  0
  6 22  1  0
 22 23  1  0
 23  3  1  0
 21  7  1  0
 20 10  1  0
  1 24  1  0
  1 25  1  0
  1 26  1  0
  2 27  1  0
  3 28  1  0
  4 29  1  0
  4 30  1  0
  5 31  1  0
  5 32  1  0
  8 33  1  0
  9 34  1  0
 11 35  1  0
 14 36  1  0
 14 37  1  0
 21 38  1  0
 22 39  1  0
 22 40  1  0
 23 41  1  0
 23 42  1  0
M  CHG  1  19  -1
M  END
>  <UniqueID>  (81) 
80

>  <SMILES>  (81) 
CNC1CCN(c2ccc3cc(C(N)=O)n(C(=O)[O-])c3c2)CC1

>  <Energy>  (81) 
90.95240338438728

>  <Genealogy>  (81) 
CNC1CCN(c2ccc3cc(C(N)=O)n(C(=O)[O-])c3c2)CC1 (protonated)
CNC1CCN(c2ccc3cc(C(N)=O)n(C(=O)[O-])c3c2)CC1 (3D coordinates assigned)
CNC1CCN(c2ccc3cc(C(N)=O)n(C(=O)[O-])c3c2)CC1 (nonaromatic ring conformer: 90.95240338438728 kcal/mol)

>  <smiles>  (81) 
CNC1CCN(c2ccc3cc(C(N)=O)n(C(=O)O)c3c2)CC1

>  <score_type>  (81) 
oracle

>  <origin>  (81) 
adg

>  <m_score__min__energy>  (81) 
-7.54

>  <m_primary>  (81) 
energy

$$$$
82:0
     RDKit          3D

 32 33  0  0  0  0  0  0  0  0999 V2000
  145.7410  155.6020  134.3980 C   0  0  0  0  0  0  0  0  0  0  0  0
  146.1560  156.5060  133.2820 C   0  0  0  0  0  0  0  0  0  0  0  0
  146.6440  156.0060  132.2340 O   0  0  0  0  0  0  0  0  0  0  0  0
  145.9930  157.9290  133.3870 N   0  0  0  0  0  0  0  0  0  0  0  0
  146.9450  158.8890  133.2140 C   0  0  0  0  0  0  0  0  0  0  0  0
  148.3900  158.6500  133.0040 C   0  0  0  0  0  0  0  0  0  0  0  0
  148.8610  157.9510  131.8560 N   0  0  0  0  0  0  0  0  0  0  0  0
  149.2180  159.0410  133.8700 O   0  0  0  0  0  0  0  0  0  0  0  0
  146.3820  160.1590  133.3210 C   0  0  0  0  0  0  0  0  0  0  0  0
  145.0450  159.9460  133.5680 C   0  0  0  0  0  0  0  0  0  0  0  0
  144.0110  160.8590  133.7450 C   0  0  0  0  0  0  0  0  0  0  0  0
  142.7170  160.3570  133.9530 C   0  0  0  0  0  0  0  0  0  0  0  0
  142.4730  158.9590  133.9710 C   0  0  0  0  0  0  0  0  0  0  0  0
  141.0650  158.4410  134.1860 C   0  0  2  0  0  0  0  0  0  0  0  0
  140.0940  159.0180  133.1480 C   0  0  0  0  0  0  0  0  0  0  0  0
  140.6080  158.7120  135.5930 C   0  0  0  0  0  0  0  0  0  0  0  0
  141.3450  159.3340  136.4050 O   0  0  0  0  0  0  0  0  0  0  0  0
  139.3790  158.2270  136.0230 O   0  0  0  0  0  0  0  0  0  0  0  0
  143.5540  158.0630  133.7830 C   0  0  0  0  0  0  0  0  0  0  0  0
  144.8360  158.5930  133.6000 C   0  0  0  0  0  0  0  0  0  0  0  0
  145.9622  156.0839  135.3618 H   0  0  0  0  0  0  0  0  0  0  0  0
  144.6615  155.4032  134.3267 H   0  0  0  0  0  0  0  0  0  0  0  0
  146.2939  154.6538  134.3267 H   0  0  0  0  0  0  0  0  0  0  0  0
  148.3510  157.1170  131.4880 H   0  0  0  0  0  0  0  0  0  0  0  0
  146.8969  161.1266  133.2278 H   0  0  0  0  0  0  0  0  0  0  0  0
  144.2016  161.9421  133.7226 H   0  0  0  0  0  0  0  0  0  0  0  0
  141.8812  161.0560  134.1040 H   0  0  0  0  0  0  0  0  0  0  0  0
  141.0745  157.3503  134.0439 H   0  0  0  0  0  0  0  0  0  0  0  0
  139.2586  159.5144  133.6635 H   0  0  0  0  0  0  0  0  0  0  0  0
  140.6224  159.7488  132.5181 H   0  0  0  0  0  0  0  0  0  0  0  0
  139.7047  158.2046  132.5181 H   0  0  0  0  0  0  0  0  0  0  0  0
  143.3893  156.9754  133.7809 H   0  0  0  0  0  0  0  0  0  0  0  0
  1  2  1  0
  2  3  2  0
  2  4  1  0
  4  5  1  0
  5  6  1  0
  6  7  1  0
  6  8  2  0
  5  9  2  0
  9 10  1  0
 10 11  2  0
 11 12  1  0
 12 13  2  0
 13 14  1  0
 14 15  1  0
 14 16  1  0
 16 17  2  0
 16 18  1  0
 13 19  1  0
 19 20  2  0
 20  4  1  0
 20 10  1  0
  1 21  1  0
  1 22  1  0
  1 23  1  0
  7 24  1  0
  9 25  1  0
 11 26  1  0
 12 27  1  0
 14 28  1  6
 15 29  1  0
 15 30  1  0
 15 31  1  0
 19 32  1  0
M  CHG  2   7  -1  18  -1
M  END
>  <UniqueID>  (82) 
81

>  <SMILES>  (82) 
CC(=O)n1c(C([NH-])=O)cc2ccc([C@H](C)C(=O)[O-])cc21

>  <Energy>  (82) 
69.4828826324785

>  <Genealogy>  (82) 
CC(=O)n1c(C([NH-])=O)cc2ccc(C(C)C(=O)[O-])cc21 (protonated)
CC(=O)n1c(C([NH-])=O)cc2ccc([C@H](C)C(=O)[O-])cc21 (chirality)
CC(=O)n1c(C([NH-])=O)cc2ccc([C@H](C)C(=O)[O-])cc21 (3D coordinates assigned)
CC(=O)n1c(C([NH-])=O)cc2ccc([C@H](C)C(=O)[O-])cc21 (optimized conformer: 69.4828826324785 kcal/mol)

>  <smiles>  (82) 
CC(=O)n1c(C(N)=O)cc2ccc(C(C)C(=O)O)cc21

>  <score_type>  (82) 
oracle

>  <origin>  (82) 
adg

>  <m_score__min__energy>  (82) 
-6.2599999999999998

>  <m_primary>  (82) 
energy

$$$$
83:0
     RDKit          3D

 38 41  0  0  0  0  0  0  0  0999 V2000
  140.6070  159.0890  131.8340 C   0  0  0  0  0  0  0  0  0  0  0  0
  140.3360  158.6560  133.2520 C   0  0  0  0  0  0  0  0  0  0  0  0
  139.0200  158.2510  133.6170 C   0  0  0  0  0  0  0  0  0  0  0  0
  138.0180  158.2640  132.7030 F   0  0  0  0  0  0  0  0  0  0  0  0
  138.7340  157.8300  134.9280 C   0  0  0  0  0  0  0  0  0  0  0  0
  139.7690  157.8310  135.8530 C   0  0  0  0  0  0  0  0  0  0  0  0
  139.7090  157.4890  137.1500 N   0  0  0  0  0  0  0  0  0  0  0  0
  140.9240  157.6680  137.6610 N   0  0  0  0  0  0  0  0  0  0  0  0
  141.7510  158.1260  136.6930 C   0  0  0  0  0  0  0  0  0  0  0  0
  141.0290  158.2330  135.5240 C   0  0  0  0  0  0  0  0  0  0  0  0
  141.3680  158.6690  134.2380 C   0  0  0  0  0  0  0  0  0  0  0  0
  142.7440  159.1270  133.9440 C   0  0  0  0  0  0  0  0  0  0  0  0
  143.0300  160.5130  133.8760 C   0  0  0  0  0  0  0  0  0  0  0  0
  144.3330  160.9610  133.6060 C   0  0  0  0  0  0  0  0  0  0  0  0
  145.3230  160.0040  133.4000 C   0  0  0  0  0  0  0  0  0  0  0  0
  146.6670  160.1620  133.1550 C   0  0  0  0  0  0  0  0  0  0  0  0
  147.1750  158.8710  133.0450 C   0  0  0  0  0  0  0  0  0  0  0  0
  148.5830  158.5790  132.7130 C   0  0  0  0  0  0  0  0  0  0  0  0
  148.9310  157.4800  131.8690 N   0  0  0  0  0  0  0  0  0  0  0  0
  149.4890  159.3460  133.1330 O   0  0  0  0  0  0  0  0  0  0  0  0
  146.1880  157.9470  133.2260 N   0  0  0  0  0  0  0  0  0  0  0  0
  146.3320  156.5190  133.3110 C   0  0  0  0  0  0  0  0  0  0  0  0
  146.5630  155.7490  132.1320 N   0  0  0  0  0  0  0  0  0  0  0  0
  146.2680  155.9390  134.4270 O   0  0  0  0  0  0  0  0  0  0  0  0
  145.0580  158.6580  133.4400 C   0  0  0  0  0  0  0  0  0  0  0  0
  143.7720  158.1840  133.7240 C   0  0  0  0  0  0  0  0  0  0  0  0
  141.1906  160.0214  131.8405 H   0  0  0  0  0  0  0  0  0  0  0  0
  141.1754  158.3043  131.3133 H   0  0  0  0  0  0  0  0  0  0  0  0
  139.6528  159.2573  131.3133 H   0  0  0  0  0  0  0  0  0  0  0  0
  137.7207  157.5096  135.2118 H   0  0  0  0  0  0  0  0  0  0  0  0
  142.8162  158.3708  136.8176 H   0  0  0  0  0  0  0  0  0  0  0  0
  142.2242  161.2445  134.0361 H   0  0  0  0  0  0  0  0  0  0  0  0
  144.5646  162.0353  133.5587 H   0  0  0  0  0  0  0  0  0  0  0  0
  147.2222  161.1074  133.0651 H   0  0  0  0  0  0  0  0  0  0  0  0
  148.1980  156.9270  131.3730 H   0  0  0  0  0  0  0  0  0  0  0  0
  149.9350  157.2670  131.6750 H   0  0  0  0  0  0  0  0  0  0  0  0
  146.3780  156.1500  131.1850 H   0  0  0  0  0  0  0  0  0  0  0  0
  143.5673  157.1044  133.7745 H   0  0  0  0  0  0  0  0  0  0  0  0
  1  2  1  0
  2  3  2  0
  3  4  1  0
  3  5  1  0
  5  6  2  0
  6  7  1  0
  7  8  1  0
  8  9  2  0
  9 10  1  0
 10 11  2  0
 11 12  1  0
 12 13  2  0
 13 14  1  0
 14 15  2  0
 15 16  1  0
 16 17  2  0
 17 18  1  0
 18 19  1  0
 18 20  2  0
 17 21  1  0
 21 22  1  0
 22 23  1  0
 22 24  2  0
 21 25  1  0
 25 26  2  0
 11  2  1  0
 26 12  1  0
 10  6  1  0
 25 15  1  0
  1 27  1  0
  1 28  1  0
  1 29  1  0
  5 30  1  0
  9 31  1  0
 13 32  1  0
 14 33  1  0
 16 34  1  0
 19 35  1  0
 19 36  1  0
 23 37  1  0
 26 38  1  0
M  CHG  2   7  -1  23  -1
M  END
>  <UniqueID>  (83) 
82

>  <SMILES>  (83) 
Cc1c(F)cc2[n-]ncc2c1-c1ccc2cc(C(N)=O)n(C([NH-])=O)c2c1

>  <Energy>  (83) 
127.40129188529437

>  <Genealogy>  (83) 
Cc1c(F)cc2[n-]ncc2c1-c1ccc2cc(C(N)=O)n(C([NH-])=O)c2c1 (protonated)
Cc1c(F)cc2[n-]ncc2c1-c1ccc2cc(C(N)=O)n(C([NH-])=O)c2c1 (3D coordinates assigned)
Cc1c(F)cc2[n-]ncc2c1-c1ccc2cc(C(N)=O)n(C([NH-])=O)c2c1 (optimized conformer: 127.40129188529437 kcal/mol)

>  <smiles>  (83) 
Cc1c(F)cc2[nH]ncc2c1-c1ccc2cc(C(N)=O)n(C(N)=O)c2c1

>  <score_type>  (83) 
oracle

>  <origin>  (83) 
adg

>  <m_score__min__energy>  (83) 
-8.6999999999999993

>  <m_primary>  (83) 
energy

$$$$
84:0
     RDKit          3D

 39 40  0  0  0  0  0  0  0  0999 V2000
  149.2430  159.9020  131.5880 C   0  0  0  0  0  0  0  0  0  0  0  0
  148.4640  158.9840  132.5500 C   0  0  0  0  0  0  0  0  0  0  0  0
  148.8590  159.2680  134.0120 C   0  0  0  0  0  0  0  0  0  0  0  0
  148.7980  157.5220  132.2220 C   0  0  0  0  0  0  0  0  0  0  0  0
  147.0500  159.1460  132.3690 O   0  0  0  0  0  0  0  0  0  0  0  0
  146.1270  159.5500  133.3440 C   0  0  0  0  0  0  0  0  0  0  0  0
  146.2510  160.6560  133.9360 O   0  0  0  0  0  0  0  0  0  0  0  0
  145.0430  158.6760  133.6910 N   0  0  0  0  0  0  0  0  0  0  0  0
  143.7210  158.9850  133.8140 C   0  0  0  0  0  0  0  0  0  0  0  0
  143.0930  160.2740  133.4560 C   0  0  0  0  0  0  0  0  0  0  0  0
  143.8320  161.4910  133.5120 N   0  0  0  0  0  0  0  0  0  0  0  0
  141.9010  160.2940  133.0470 O   0  0  0  0  0  0  0  0  0  0  0  0
  143.0000  157.8780  134.2580 C   0  0  0  0  0  0  0  0  0  0  0  0
  143.9270  156.8690  134.3930 C   0  0  0  0  0  0  0  0  0  0  0  0
  143.7640  155.5550  134.8200 C   0  0  0  0  0  0  0  0  0  0  0  0
  144.9060  154.7400  134.8960 C   0  0  0  0  0  0  0  0  0  0  0  0
  146.1800  155.2500  134.5450 C   0  0  0  0  0  0  0  0  0  0  0  0
  147.4020  154.3830  134.6740 C   0  0  0  0  0  0  0  0  0  0  0  0
  147.6610  154.0720  136.1120 C   0  0  0  0  0  0  0  0  0  0  0  0
  148.4610  154.7770  136.7800 O   0  0  0  0  0  0  0  0  0  0  0  0
  146.9800  153.0310  136.7310 O   0  0  0  0  0  0  0  0  0  0  0  0
  146.3090  156.5940  134.1280 C   0  0  0  0  0  0  0  0  0  0  0  0
  145.1520  157.3760  134.0450 C   0  0  0  0  0  0  0  0  0  0  0  0
  149.8472  160.6140  132.1693 H   0  0  0  0  0  0  0  0  0  0  0  0
  149.9037  159.2925  130.9540 H   0  0  0  0  0  0  0  0  0  0  0  0
  148.5341  160.4547  130.9540 H   0  0  0  0  0  0  0  0  0  0  0  0
  148.1540  158.7611  134.6874 H   0  0  0  0  0  0  0  0  0  0  0  0
  149.8768  158.8936  134.1962 H   0  0  0  0  0  0  0  0  0  0  0  0
  148.8281  160.3520  134.1962 H   0  0  0  0  0  0  0  0  0  0  0  0
  148.9271  156.9568  133.1568 H   0  0  0  0  0  0  0  0  0  0  0  0
  147.9775  157.0808  131.6371 H   0  0  0  0  0  0  0  0  0  0  0  0
  149.7287  157.4808  131.6371 H   0  0  0  0  0  0  0  0  0  0  0  0
  144.7030  161.6180  132.9490 H   0  0  0  0  0  0  0  0  0  0  0  0
  141.9198  157.8223  134.4581 H   0  0  0  0  0  0  0  0  0  0  0  0
  142.7712  155.1659  135.0899 H   0  0  0  0  0  0  0  0  0  0  0  0
  144.8099  153.6967  135.2310 H   0  0  0  0  0  0  0  0  0  0  0  0
  147.2426  153.4451  134.1219 H   0  0  0  0  0  0  0  0  0  0  0  0
  148.2689  154.9185  134.2595 H   0  0  0  0  0  0  0  0  0  0  0  0
  147.2936  157.0144  133.8752 H   0  0  0  0  0  0  0  0  0  0  0  0
  1  2  1  0
  2  3  1  0
  2  4  1  0
  2  5  1  0
  5  6  1  0
  6  7  2  0
  6  8  1  0
  8  9  1  0
  9 10  1  0
 10 11  1  0
 10 12  2  0
  9 13  2  0
 13 14  1  0
 14 15  2  0
 15 16  1  0
 16 17  2  0
 17 18  1  0
 18 19  1  0
 19 20  2  0
 19 21  1  0
 17 22  1  0
 22 23  2  0
 23  8  1  0
 23 14  1  0
  1 24  1  0
  1 25  1  0
  1 26  1  0
  3 27  1  0
  3 28  1  0
  3 29  1  0
  4 30  1  0
  4 31  1  0
  4 32  1  0
 11 33  1  0
 13 34  1  0
 15 35  1  0
 16 36  1  0
 18 37  1  0
 18 38  1  0
 22 39  1  0
M  CHG  2  11  -1  21  -1
M  END
>  <UniqueID>  (84) 
83

>  <SMILES>  (84) 
CC(C)(C)OC(=O)n1c(C([NH-])=O)cc2ccc(CC(=O)[O-])cc21

>  <Energy>  (84) 
71.43050335034901

>  <Genealogy>  (84) 
CC(C)(C)OC(=O)n1c(C([NH-])=O)cc2ccc(CC(=O)[O-])cc21 (protonated)
CC(C)(C)OC(=O)n1c(C([NH-])=O)cc2ccc(CC(=O)[O-])cc21 (3D coordinates assigned)
CC(C)(C)OC(=O)n1c(C([NH-])=O)cc2ccc(CC(=O)[O-])cc21 (optimized conformer: 71.43050335034901 kcal/mol)

>  <smiles>  (84) 
CC(C)(C)OC(=O)n1c(C(N)=O)cc2ccc(CC(=O)O)cc21

>  <score_type>  (84) 
oracle

>  <origin>  (84) 
adg

>  <m_score__min__energy>  (84) 
-7.0700000000000003

>  <m_primary>  (84) 
energy

$$$$
85:0
     RDKit          3D

 30 32  0  0  0  0  0  0  0  0999 V2000
  142.8850  160.6320  133.3670 N   0  0  0  0  0  0  0  0  0  0  0  0
  144.2550  160.8180  133.7140 C   0  0  0  0  0  0  0  0  0  0  0  0
  144.6080  161.8850  134.2850 O   0  0  0  0  0  0  0  0  0  0  0  0
  145.2550  159.7590  133.4620 C   0  0  0  0  0  0  0  0  0  0  0  0
  146.6030  160.0200  133.2270 C   0  0  0  0  0  0  0  0  0  0  0  0
  147.2010  158.7850  133.1240 C   0  0  0  0  0  0  0  0  0  0  0  0
  148.5290  158.4530  132.8780 C   0  0  0  0  0  0  0  0  0  0  0  0
  148.8620  157.0910  132.7910 C   0  0  0  0  0  0  0  0  0  0  0  0
  147.8690  156.0870  132.9390 C   0  0  0  0  0  0  0  0  0  0  0  0
  148.2310  154.6510  132.8310 C   0  0  0  0  0  0  0  0  0  0  0  0
  147.2660  153.6430  132.9860 C   0  0  0  0  0  0  0  0  0  0  0  0
  147.6220  152.3360  132.8860 N   0  0  0  0  0  0  0  0  0  0  0  0
  148.9060  151.9790  132.6340 C   0  0  0  0  0  0  0  0  0  0  0  0
  149.8600  152.9320  132.4780 N   0  0  0  0  0  0  0  0  0  0  0  0
  149.5510  154.2510  132.5730 C   0  0  0  0  0  0  0  0  0  0  0  0
  146.5290  156.4700  133.1870 C   0  0  0  0  0  0  0  0  0  0  0  0
  146.2300  157.8330  133.2900 C   0  0  0  0  0  0  0  0  0  0  0  0
  145.0270  158.4150  133.4970 N   0  0  0  0  0  0  0  0  0  0  0  0
  143.7670  157.7400  133.6330 C   0  0  0  0  0  0  0  0  0  0  0  0
  142.7720  157.8620  132.6180 N   0  0  0  0  0  0  0  0  0  0  0  0
  143.5280  157.0460  134.6580 O   0  0  0  0  0  0  0  0  0  0  0  0
  142.6140  160.0450  132.5470 H   0  0  0  0  0  0  0  0  0  0  0  0
  147.0867  161.0043  133.1419 H   0  0  0  0  0  0  0  0  0  0  0  0
  149.2950  159.2329  132.7554 H   0  0  0  0  0  0  0  0  0  0  0  0
  149.9061  156.7984  132.6057 H   0  0  0  0  0  0  0  0  0  0  0  0
  146.2190  153.9124  133.1889 H   0  0  0  0  0  0  0  0  0  0  0  0
  149.1748  150.9152  132.5559 H   0  0  0  0  0  0  0  0  0  0  0  0
  150.3385  155.0087  132.4472 H   0  0  0  0  0  0  0  0  0  0  0  0
  145.7394  155.7120  133.2964 H   0  0  0  0  0  0  0  0  0  0  0  0
  142.5130  158.7960  132.2310 H   0  0  0  0  0  0  0  0  0  0  0  0
  1  2  1  0
  2  3  2  0
  2  4  1  0
  4  5  2  0
  5  6  1  0
  6  7  2  0
  7  8  1  0
  8  9  2  0
  9 10  1  0
 10 11  2  0
 11 12  1  0
 12 13  2  0
 13 14  1  0
 14 15  2  0
  9 16  1  0
 16 17  2  0
 17 18  1  0
 18 19  1  0
 19 20  1  0
 19 21  2  0
 18  4  1  0
 17  6  1  0
 15 10  1  0
  1 22  1  0
  5 23  1  0
  7 24  1  0
  8 25  1  0
 11 26  1  0
 13 27  1  0
 15 28  1  0
 16 29  1  0
 20 30  1  0
M  CHG  2   1  -1  20  -1
M  END
>  <UniqueID>  (85) 
84

>  <SMILES>  (85) 
[NH-]C(=O)c1cc2ccc(-c3cncnc3)cc2n1C([NH-])=O

>  <Energy>  (85) 
78.82547494317693

>  <Genealogy>  (85) 
[NH-]C(=O)c1cc2ccc(-c3cncnc3)cc2n1C([NH-])=O (protonated)
[NH-]C(=O)c1cc2ccc(-c3cncnc3)cc2n1C([NH-])=O (3D coordinates assigned)
[NH-]C(=O)c1cc2ccc(-c3cncnc3)cc2n1C([NH-])=O (optimized conformer: 78.82547494317693 kcal/mol)

>  <smiles>  (85) 
NC(=O)c1cc2ccc(-c3cncnc3)cc2n1C(N)=O

>  <score_type>  (85) 
oracle

>  <origin>  (85) 
adg

>  <m_score__min__energy>  (85) 
-6.7000000000000002

>  <m_primary>  (85) 
energy

$$$$
86:0
     RDKit          3D

 29 30  0  0  0  0  0  0  0  0999 V2000
  143.4450  160.9630  133.6890 N   0  0  0  0  0  0  0  0  0  0  0  0
  144.8510  160.8630  133.9040 C   0  0  0  0  0  0  0  0  0  0  0  0
  145.4900  161.8790  134.2860 O   0  0  0  0  0  0  0  0  0  0  0  0
  145.5460  159.5850  133.6420 C   0  0  0  0  0  0  0  0  0  0  0  0
  146.9060  159.4960  133.3540 C   0  0  0  0  0  0  0  0  0  0  0  0
  147.1720  158.1500  133.2600 C   0  0  0  0  0  0  0  0  0  0  0  0
  148.3670  157.4900  132.9850 C   0  0  0  0  0  0  0  0  0  0  0  0
  148.3470  156.0870  132.9250 C   0  0  0  0  0  0  0  0  0  0  0  0
  147.1380  155.3740  133.1220 C   0  0  0  0  0  0  0  0  0  0  0  0
  147.1350  153.8710  133.0770 C   0  0  0  0  0  0  0  0  0  0  0  0
  148.5400  153.3540  133.0650 C   0  0  0  0  0  0  0  0  0  0  0  0
  149.3040  153.3670  131.8590 N   0  0  0  0  0  0  0  0  0  0  0  0
  149.0380  152.8690  134.1160 O   0  0  0  0  0  0  0  0  0  0  0  0
  145.9460  156.0770  133.4080 C   0  0  0  0  0  0  0  0  0  0  0  0
  146.0000  157.4740  133.4830 C   0  0  0  0  0  0  0  0  0  0  0  0
  144.9900  158.3410  133.7180 N   0  0  0  0  0  0  0  0  0  0  0  0
  143.6120  158.0050  133.9400 C   0  0  0  0  0  0  0  0  0  0  0  0
  142.6210  158.3630  132.9790 N   0  0  0  0  0  0  0  0  0  0  0  0
  143.2680  157.4010  134.9910 O   0  0  0  0  0  0  0  0  0  0  0  0
  142.7930  160.2290  134.0450 H   0  0  0  0  0  0  0  0  0  0  0  0
  147.6165  160.3263  133.2284 H   0  0  0  0  0  0  0  0  0  0  0  0
  149.2988  158.0508  132.8197 H   0  0  0  0  0  0  0  0  0  0  0  0
  149.2778  155.5366  132.7234 H   0  0  0  0  0  0  0  0  0  0  0  0
  146.6115  153.4815  133.9626 H   0  0  0  0  0  0  0  0  0  0  0  0
  146.6214  153.5391  132.1626 H   0  0  0  0  0  0  0  0  0  0  0  0
  148.8990  153.7460  130.9750 H   0  0  0  0  0  0  0  0  0  0  0  0
  150.2780  152.9900  131.8490 H   0  0  0  0  0  0  0  0  0  0  0  0
  144.9993  155.5400  133.5677 H   0  0  0  0  0  0  0  0  0  0  0  0
  142.6100  159.3140  132.5480 H   0  0  0  0  0  0  0  0  0  0  0  0
  1  2  1  0
  2  3  2  0
  2  4  1  0
  4  5  2  0
  5  6  1  0
  6  7  2  0
  7  8  1  0
  8  9  2  0
  9 10  1  0
 10 11  1  0
 11 12  1  0
 11 13  2  0
  9 14  1  0
 14 15  2  0
 15 16  1  0
 16 17  1  0
 17 18  1  0
 17 19  2  0
 16  4  1  0
 15  6  1  0
  1 20  1  0
  5 21  1  0
  7 22  1  0
  8 23  1  0
 10 24  1  0
 10 25  1  0
 12 26  1  0
 12 27  1  0
 14 28  1  0
 18 29  1  0
M  CHG  2   1  -1  18  -1
M  END
>  <UniqueID>  (86) 
85

>  <SMILES>  (86) 
[NH-]C(=O)c1cc2ccc(CC(N)=O)cc2n1C([NH-])=O

>  <Energy>  (86) 
64.85145571948836

>  <Genealogy>  (86) 
[NH-]C(=O)c1cc2ccc(CC(N)=O)cc2n1C([NH-])=O (protonated)
[NH-]C(=O)c1cc2ccc(CC(N)=O)cc2n1C([NH-])=O (3D coordinates assigned)
[NH-]C(=O)c1cc2ccc(CC(N)=O)cc2n1C([NH-])=O (optimized conformer: 64.85145571948836 kcal/mol)

>  <smiles>  (86) 
NC(=O)Cc1ccc2cc(C(N)=O)n(C(N)=O)c2c1

>  <score_type>  (86) 
oracle

>  <origin>  (86) 
adg

>  <m_score__min__energy>  (86) 
-7.4199999999999999

>  <m_primary>  (86) 
energy

$$$$
87:0
     RDKit          3D

 36 38  0  0  0  0  0  0  0  0999 V2000
  140.3740  155.1950  133.3530 C   0  0  0  0  0  0  0  0  0  0  0  0
  139.1200  155.8650  133.3660 O   0  0  0  0  0  0  0  0  0  0  0  0
  138.9920  157.2180  133.6980 C   0  0  0  0  0  0  0  0  0  0  0  0
  137.9160  157.8360  133.4690 O   0  0  0  0  0  0  0  0  0  0  0  0
  140.1240  157.9150  134.3150 C   0  0  0  0  0  0  0  0  0  0  0  0
  140.1990  158.3460  135.6250 C   0  0  0  0  0  0  0  0  0  0  0  0
  141.4350  158.9410  135.7520 C   0  0  0  0  0  0  0  0  0  0  0  0
  142.0410  158.8360  134.5090 C   0  0  0  0  0  0  0  0  0  0  0  0
  143.3860  159.3240  134.1250 C   0  0  0  0  0  0  0  0  0  0  0  0
  143.6850  160.7110  134.0830 C   0  0  0  0  0  0  0  0  0  0  0  0
  144.9680  161.1590  133.7290 C   0  0  0  0  0  0  0  0  0  0  0  0
  145.9290  160.2070  133.4120 C   0  0  0  0  0  0  0  0  0  0  0  0
  147.2520  160.3660  133.0680 C   0  0  0  0  0  0  0  0  0  0  0  0
  147.7380  159.0760  132.8750 C   0  0  0  0  0  0  0  0  0  0  0  0
  149.1150  158.7870  132.4240 C   0  0  0  0  0  0  0  0  0  0  0  0
  149.4840  157.4880  131.9620 N   0  0  0  0  0  0  0  0  0  0  0  0
  149.9630  159.7180  132.3930 O   0  0  0  0  0  0  0  0  0  0  0  0
  146.7620  158.1520  133.1030 N   0  0  0  0  0  0  0  0  0  0  0  0
  146.8990  156.7210  133.1230 C   0  0  0  0  0  0  0  0  0  0  0  0
  147.0100  155.9940  131.9010 N   0  0  0  0  0  0  0  0  0  0  0  0
  146.9350  156.1020  134.2180 O   0  0  0  0  0  0  0  0  0  0  0  0
  145.6580  158.8630  133.4270 C   0  0  0  0  0  0  0  0  0  0  0  0
  144.3940  158.3860  133.7970 C   0  0  0  0  0  0  0  0  0  0  0  0
  141.2300  158.2180  133.6780 O   0  0  0  0  0  0  0  0  0  0  0  0
  140.7057  155.0178  134.3867 H   0  0  0  0  0  0  0  0  0  0  0  0
  140.2700  154.2323  132.8311 H   0  0  0  0  0  0  0  0  0  0  0  0
  141.1164  155.8166  132.8311 H   0  0  0  0  0  0  0  0  0  0  0  0
  139.4312  158.2368  136.4051 H   0  0  0  0  0  0  0  0  0  0  0  0
  141.8559  159.4053  136.6560 H   0  0  0  0  0  0  0  0  0  0  0  0
  142.9026  161.4435  134.3306 H   0  0  0  0  0  0  0  0  0  0  0  0
  145.2053  162.2328  133.7034 H   0  0  0  0  0  0  0  0  0  0  0  0
  147.8067  161.3105  132.9671 H   0  0  0  0  0  0  0  0  0  0  0  0
  148.7680  156.7430  131.8200 H   0  0  0  0  0  0  0  0  0  0  0  0
  150.4710  157.2920  131.6820 H   0  0  0  0  0  0  0  0  0  0  0  0
  146.2990  156.1050  131.1450 H   0  0  0  0  0  0  0  0  0  0  0  0
  144.1892  157.3058  133.8319 H   0  0  0  0  0  0  0  0  0  0  0  0
  1  2  1  0
  2  3  1  0
  3  4  2  0
  3  5  1  0
  5  6  2  0
  6  7  1  0
  7  8  2  0
  8  9  1  0
  9 10  2  0
 10 11  1  0
 11 12  2  0
 12 13  1  0
 13 14  2  0
 14 15  1  0
 15 16  1  0
 15 17  2  0
 14 18  1  0
 18 19  1  0
 19 20  1  0
 19 21  2  0
 18 22  1  0
 22 23  2  0
  8 24  1  0
 24  5  1  0
 23  9  1  0
 22 12  1  0
  1 25  1  0
  1 26  1  0
  1 27  1  0
  6 28  1  0
  7 29  1  0
 10 30  1  0
 11 31  1  0
 13 32  1  0
 16 33  1  0
 16 34  1  0
 20 35  1  0
 23 36  1  0
M  CHG  1  20  -1
M  END
>  <UniqueID>  (87) 
86

>  <SMILES>  (87) 
COC(=O)c1ccc(-c2ccc3cc(C(N)=O)n(C([NH-])=O)c3c2)o1

>  <Energy>  (87) 
101.92531878822253

>  <Genealogy>  (87) 
COC(=O)c1ccc(-c2ccc3cc(C(N)=O)n(C([NH-])=O)c3c2)o1 (protonated)
COC(=O)c1ccc(-c2ccc3cc(C(N)=O)n(C([NH-])=O)c3c2)o1 (3D coordinates assigned)
COC(=O)c1ccc(-c2ccc3cc(C(N)=O)n(C([NH-])=O)c3c2)o1 (optimized conformer: 101.92531878822253 kcal/mol)

>  <smiles>  (87) 
COC(=O)c1ccc(-c2ccc3cc(C(N)=O)n(C(N)=O)c3c2)o1

>  <score_type>  (87) 
oracle

>  <origin>  (87) 
adg

>  <m_score__min__energy>  (87) 
-7.4100000000000001

>  <m_primary>  (87) 
energy

$$$$
88:0
     RDKit          3D

 42 44  0  0  0  0  0  0  0  0999 V2000
  149.3190  151.7570  133.8430 C   0  0  0  0  0  0  0  0  0  0  0  0
  148.8380  151.8340  132.3820 C   0  0  0  0  0  0  0  0  0  0  0  0
  149.9910  151.5140  131.4110 C   0  0  0  0  0  0  0  0  0  0  0  0
  147.7150  150.8070  132.1740 C   0  0  0  0  0  0  0  0  0  0  0  0
  148.2850  153.1270  132.1000 O   0  0  0  0  0  0  0  0  0  0  0  0
  148.8320  154.3650  132.4690 C   0  0  0  0  0  0  0  0  0  0  0  0
  150.0490  154.6220  132.2630 O   0  0  0  0  0  0  0  0  0  0  0  0
  147.9940  155.3500  133.0910 N   0  0  0  0  0  0  0  0  0  0  0  0
  146.8780  155.1350  133.8440 C   0  0  0  0  0  0  0  0  0  0  0  0
  146.3870  153.8210  134.3090 C   0  0  0  0  0  0  0  0  0  0  0  0
  145.9840  152.8120  133.3820 N   0  0  0  0  0  0  0  0  0  0  0  0
  146.3750  153.5660  135.5420 O   0  0  0  0  0  0  0  0  0  0  0  0
  146.2670  156.3420  134.1740 C   0  0  0  0  0  0  0  0  0  0  0  0
  147.0580  157.3140  133.6070 C   0  0  0  0  0  0  0  0  0  0  0  0
  146.9130  158.6970  133.6090 C   0  0  0  0  0  0  0  0  0  0  0  0
  147.8590  159.4620  132.9090 C   0  0  0  0  0  0  0  0  0  0  0  0
  148.9310  158.8360  132.2090 C   0  0  0  0  0  0  0  0  0  0  0  0
  149.9800  159.6000  131.4200 C   0  0  0  0  0  0  0  0  0  0  0  0
  149.7470  159.7620  129.9240 C   0  0  0  0  0  0  0  0  0  0  0  0
  149.5770  160.9560  130.8550 C   0  0  0  0  0  0  0  0  0  0  0  0
  149.0370  157.4270  132.2320 C   0  0  0  0  0  0  0  0  0  0  0  0
  148.0910  156.6920  132.9580 C   0  0  0  0  0  0  0  0  0  0  0  0
  148.4620  151.8942  134.5189 H   0  0  0  0  0  0  0  0  0  0  0  0
  149.7773  150.7741  134.0268 H   0  0  0  0  0  0  0  0  0  0  0  0
  150.0612  152.5478  134.0268 H   0  0  0  0  0  0  0  0  0  0  0  0
  150.8950  151.2631  131.9853 H   0  0  0  0  0  0  0  0  0  0  0  0
  149.7103  150.6598  130.7773 H   0  0  0  0  0  0  0  0  0  0  0  0
  150.1907  152.3907  130.7773 H   0  0  0  0  0  0  0  0  0  0  0  0
  147.3433  150.4671  133.1519 H   0  0  0  0  0  0  0  0  0  0  0  0
  146.8926  151.2720  131.6106 H   0  0  0  0  0  0  0  0  0  0  0  0
  148.1048  149.9464  131.6106 H   0  0  0  0  0  0  0  0  0  0  0  0
  145.5990  151.9050  133.7300 H   0  0  0  0  0  0  0  0  0  0  0  0
  146.1460  152.9240  132.3570 H   0  0  0  0  0  0  0  0  0  0  0  0
  145.3487  156.4870  134.7620 H   0  0  0  0  0  0  0  0  0  0  0  0
  146.0807  159.1778  134.1439 H   0  0  0  0  0  0  0  0  0  0  0  0
  147.7718  160.5585  132.9006 H   0  0  0  0  0  0  0  0  0  0  0  0
  150.8081  159.2312  132.0431 H   0  0  0  0  0  0  0  0  0  0  0  0
  150.5977  159.7243  129.2276 H   0  0  0  0  0  0  0  0  0  0  0  0
  149.1132  159.2618  129.1769 H   0  0  0  0  0  0  0  0  0  0  0  0
  150.3050  161.7803  130.8310 H   0  0  0  0  0  0  0  0  0  0  0  0
  148.7698  161.6750  131.0587 H   0  0  0  0  0  0  0  0  0  0  0  0
  149.8471  156.9171  131.6900 H   0  0  0  0  0  0  0  0  0  0  0  0
  1  2  1  0
  2  3  1  0
  2  4  1  0
  2  5  1  0
  5  6  1  0
  6  7  2  0
  6  8  1  0
  8  9  1  0
  9 10  1  0
 10 11  1  0
 10 12  2  0
  9 13  2  0
 13 14  1  0
 14 15  2  0
 15 16  1  0
 16 17  2  0
 17 18  1  0
 18 19  1  0
 19 20  1  0
 17 21  1  0
 21 22  2  0
 22  8  1  0
 22 14  1  0
 20 18  1  0
  1 23  1  0
  1 24  1  0
  1 25  1  0
  3 26  1  0
  3 27  1  0
  3 28  1  0
  4 29  1  0
  4 30  1  0
  4 31  1  0
 11 32  1  0
 11 33  1  0
 13 34  1  0
 15 35  1  0
 16 36  1  0
 18 37  1  0
 19 38  1  0
 19 39  1  0
 20 40  1  0
 20 41  1  0
 21 42  1  0
M  END
>  <UniqueID>  (88) 
87

>  <SMILES>  (88) 
CC(C)(C)OC(=O)n1c(C(N)=O)cc2ccc(C3CC3)cc21

>  <Energy>  (88) 
344.88563281626705

>  <Genealogy>  (88) 
CC(C)(C)OC(=O)n1c(C(N)=O)cc2ccc(C3CC3)cc21 (3D coordinates assigned)
CC(C)(C)OC(=O)n1c(C(N)=O)cc2ccc(C3CC3)cc21 (nonaromatic ring conformer: 344.88563281626705 kcal/mol)

>  <smiles>  (88) 
CC(C)(C)OC(=O)n1c(C(N)=O)cc2ccc(C3CC3)cc21

>  <score_type>  (88) 
oracle

>  <origin>  (88) 
adg

>  <m_score__min__energy>  (88) 
-7.96

>  <m_primary>  (88) 
energy

$$$$
89:0
     RDKit          3D

 45 48  0  0  0  0  0  0  0  0999 V2000
  147.9760  154.7510  133.3080 C   0  0  0  0  0  0  0  0  0  0  0  0
  146.7460  154.8330  134.1700 C   0  0  0  0  0  0  0  0  0  0  0  0
  146.4770  156.2090  134.3590 O   0  0  0  0  0  0  0  0  0  0  0  0
  145.5780  156.8960  133.5170 C   0  0  0  0  0  0  0  0  0  0  0  0
  144.9340  156.1570  132.7360 O   0  0  0  0  0  0  0  0  0  0  0  0
  145.4630  158.3030  133.6010 N   0  0  0  0  0  0  0  0  0  0  0  0
  146.4700  159.1840  133.6670 C   0  0  0  0  0  0  0  0  0  0  0  0
  147.9040  159.0000  133.6730 C   0  0  0  0  0  0  0  0  0  0  0  0
  148.4700  157.9120  134.4330 N   0  0  0  0  0  0  0  0  0  0  0  0
  148.7410  159.7070  133.0680 O   0  0  0  0  0  0  0  0  0  0  0  0
  145.8700  160.4490  133.7360 C   0  0  0  0  0  0  0  0  0  0  0  0
  144.5220  160.3150  133.7110 C   0  0  0  0  0  0  0  0  0  0  0  0
  143.5090  161.2630  133.7550 C   0  0  0  0  0  0  0  0  0  0  0  0
  142.1940  160.8550  133.7140 C   0  0  0  0  0  0  0  0  0  0  0  0
  141.9050  159.5100  133.6280 C   0  0  0  0  0  0  0  0  0  0  0  0
  140.5160  159.0500  133.5820 C   0  0  0  0  0  0  0  0  0  0  0  0
  139.6350  159.1290  132.5020 C   0  0  0  0  0  0  0  0  0  0  0  0
  138.4940  158.5730  132.9620 N   0  0  0  0  0  0  0  0  0  0  0  0
  138.6160  158.1740  134.2080 N   0  0  0  0  0  0  0  0  0  0  0  0
  139.8680  158.4520  134.6430 C   0  0  0  0  0  0  0  0  0  0  0  0
  140.4380  158.1830  135.9590 C   0  0  0  0  0  0  0  0  0  0  0  0
  140.5560  156.8740  136.3040 N   0  0  0  0  0  0  0  0  0  0  0  0
  141.0660  156.4870  137.4910 C   0  0  0  0  0  0  0  0  0  0  0  0
  141.4850  157.4520  138.3930 C   0  0  0  0  0  0  0  0  0  0  0  0
  142.0010  157.0950  139.5940 F   0  0  0  0  0  0  0  0  0  0  0  0
  141.3610  158.7840  138.0350 C   0  0  0  0  0  0  0  0  0  0  0  0
  140.8410  159.1830  136.8230 C   0  0  0  0  0  0  0  0  0  0  0  0
  140.7120  160.4800  136.4550 F   0  0  0  0  0  0  0  0  0  0  0  0
  142.9460  158.5790  133.5840 C   0  0  0  0  0  0  0  0  0  0  0  0
  144.2710  158.9590  133.6250 C   0  0  0  0  0  0  0  0  0  0  0  0
  148.8688  154.6915  133.9478 H   0  0  0  0  0  0  0  0  0  0  0  0
  147.9196  153.8546  132.6729 H   0  0  0  0  0  0  0  0  0  0  0  0
  148.0391  155.6469  132.6729 H   0  0  0  0  0  0  0  0  0  0  0  0
  145.8973  154.3456  133.6679 H   0  0  0  0  0  0  0  0  0  0  0  0
  146.9007  154.3228  135.1322 H   0  0  0  0  0  0  0  0  0  0  0  0
  149.3970  157.4960  134.2020 H   0  0  0  0  0  0  0  0  0  0  0  0
  147.9410  157.5210  135.2400 H   0  0  0  0  0  0  0  0  0  0  0  0
  146.4110  161.4046  133.8006 H   0  0  0  0  0  0  0  0  0  0  0  0
  143.7548  162.3331  133.8222 H   0  0  0  0  0  0  0  0  0  0  0  0
  141.3817  161.5959  133.7496 H   0  0  0  0  0  0  0  0  0  0  0  0
  139.8268  159.5487  131.5035 H   0  0  0  0  0  0  0  0  0  0  0  0
  137.9000  157.7110  134.8260 H   0  0  0  0  0  0  0  0  0  0  0  0
  141.1483  155.4187  137.7401 H   0  0  0  0  0  0  0  0  0  0  0  0
  141.6910  159.5547  138.7471 H   0  0  0  0  0  0  0  0  0  0  0  0
  142.7008  157.5089  133.5144 H   0  0  0  0  0  0  0  0  0  0  0  0
  1  2  1  0
  2  3  1  0
  3  4  1  0
  4  5  2  0
  4  6  1  0
  6  7  1  0
  7  8  1  0
  8  9  1  0
  8 10  2  0
  7 11  2  0
 11 12  1  0
 12 13  2  0
 13 14  1  0
 14 15  2  0
 15 16  1  0
 16 17  1  0
 17 18  2  0
 18 19  1  0
 19 20  1  0
 20 21  1  0
 21 22  2  0
 22 23  1  0
 23 24  2  0
 24 25  1  0
 24 26  1  0
 26 27  2  0
 27 28  1  0
 15 29  1  0
 29 30  2  0
 30  6  1  0
 30 12  1  0
 20 16  2  0
 27 21  1  0
  1 31  1  0
  1 32  1  0
  1 33  1  0
  2 34  1  0
  2 35  1  0
  9 36  1  0
  9 37  1  0
 11 38  1  0
 13 39  1  0
 14 40  1  0
 17 41  1  0
 19 42  1  0
 23 43  1  0
 26 44  1  0
 29 45  1  0
M  END
>  <smiles>  (89) 
CCOC(=O)n1c(C(N)=O)cc2ccc(-c3cn[nH]c3-c3ncc(F)cc3F)cc21

>  <score_type>  (89) 
oracle

>  <origin>  (89) 
adg

>  <m_score__min__energy>  (89) 
-8.5099999999999998

>  <m_primary>  (89) 
energy

$$$$
90:0
     RDKit          3D

 58 61  0  0  0  0  0  0  0  0999 V2000
  149.4390  158.8710  133.2250 N   0  0  0  0  0  0  0  0  0  0  0  0
  148.2210  159.4640  132.7770 C   0  0  0  0  0  0  0  0  0  0  0  0
  148.2790  160.5030  132.0710 O   0  0  0  0  0  0  0  0  0  0  0  0
  146.9160  158.8510  133.1220 C   0  0  0  0  0  0  0  0  0  0  0  0
  145.7110  159.5530  133.0810 C   0  0  0  0  0  0  0  0  0  0  0  0
  144.7360  158.6330  133.3680 C   0  0  0  0  0  0  0  0  0  0  0  0
  143.3540  158.7870  133.4460 C   0  0  0  0  0  0  0  0  0  0  0  0
  142.5840  157.6610  133.7790 C   0  0  0  0  0  0  0  0  0  0  0  0
  143.2030  156.4090  134.0150 C   0  0  0  0  0  0  0  0  0  0  0  0
  142.3720  155.2170  134.4180 C   0  0  0  0  0  0  0  0  0  0  0  0
  141.2510  154.9300  133.4080 C   0  0  0  0  0  0  0  0  0  0  0  0
  141.1480  153.4500  133.0010 C   0  0  0  0  0  0  0  0  0  0  0  0
  142.5280  152.7990  132.7950 C   0  0  0  0  0  0  0  0  0  0  0  0
  142.5870  151.3950  133.2560 N   0  0  0  0  0  0  0  0  0  0  0  0
  141.4230  150.9540  134.0710 C   0  0  0  0  0  0  0  0  0  0  0  0
  140.3580  150.1850  133.2570 C   0  0  0  0  0  0  0  0  0  0  0  0
  140.9680  149.2660  132.2860 N   0  0  0  0  0  0  0  0  0  0  0  0
  140.1700  148.7510  131.1990 C   0  0  0  0  0  0  0  0  0  0  0  0
  139.4910  149.6320  130.3400 C   0  0  0  0  0  0  0  0  0  0  0  0
  138.7430  149.1360  129.2680 C   0  0  0  0  0  0  0  0  0  0  0  0
  138.6760  147.7610  129.0360 C   0  0  0  0  0  0  0  0  0  0  0  0
  139.3540  146.8770  129.8770 C   0  0  0  0  0  0  0  0  0  0  0  0
  140.1010  147.3680  130.9520 C   0  0  0  0  0  0  0  0  0  0  0  0
  142.4210  149.0740  132.3200 C   0  0  0  0  0  0  0  0  0  0  0  0
  143.0910  150.4470  132.2320 C   0  0  0  0  0  0  0  0  0  0  0  0
  144.6070  156.2870  133.9060 C   0  0  0  0  0  0  0  0  0  0  0  0
  145.3520  157.4260  133.5770 C   0  0  0  0  0  0  0  0  0  0  0  0
  146.6920  157.5400  133.4300 N   0  0  0  0  0  0  0  0  0  0  0  0
  147.6340  156.4540  133.4830 C   0  0  0  0  0  0  0  0  0  0  0  0
  147.4730  155.5010  134.2880 O   0  0  0  0  0  0  0  0  0  0  0  0
  148.7370  156.4500  132.6410 O   0  0  0  0  0  0  0  0  0  0  0  0
  149.4460  158.0750  133.8980 H   0  0  0  0  0  0  0  0  0  0  0  0
  150.3530  159.2920  132.9440 H   0  0  0  0  0  0  0  0  0  0  0  0
  145.5721  160.6223  132.8636 H   0  0  0  0  0  0  0  0  0  0  0  0
  142.8803  159.7608  133.2527 H   0  0  0  0  0  0  0  0  0  0  0  0
  141.4906  157.7520  133.8573 H   0  0  0  0  0  0  0  0  0  0  0  0
  143.0253  154.3345  134.4840 H   0  0  0  0  0  0  0  0  0  0  0  0
  141.9059  155.4401  135.3891 H   0  0  0  0  0  0  0  0  0  0  0  0
  140.2937  155.2341  133.8563 H   0  0  0  0  0  0  0  0  0  0  0  0
  141.4873  155.4980  132.4961 H   0  0  0  0  0  0  0  0  0  0  0  0
  140.6141  152.9028  133.7919 H   0  0  0  0  0  0  0  0  0  0  0  0
  140.6093  153.4029  132.0431 H   0  0  0  0  0  0  0  0  0  0  0  0
  142.7695  152.8247  131.7222 H   0  0  0  0  0  0  0  0  0  0  0  0
  143.2507  153.3701  133.3963 H   0  0  0  0  0  0  0  0  0  0  0  0
  141.7888  150.2974  134.8741 H   0  0  0  0  0  0  0  0  0  0  0  0
  140.9392  151.8610  134.4624 H   0  0  0  0  0  0  0  0  0  0  0  0
  139.7311  149.6050  133.9502 H   0  0  0  0  0  0  0  0  0  0  0  0
  139.7584  150.9201  132.7002 H   0  0  0  0  0  0  0  0  0  0  0  0
  139.5483  150.7170  130.5119 H   0  0  0  0  0  0  0  0  0  0  0  0
  138.2059  149.8309  128.6057 H   0  0  0  0  0  0  0  0  0  0  0  0
  138.0887  147.3741  128.1902 H   0  0  0  0  0  0  0  0  0  0  0  0
  139.3006  145.7937  129.6939 H   0  0  0  0  0  0  0  0  0  0  0  0
  140.6383  146.6682  131.6089 H   0  0  0  0  0  0  0  0  0  0  0  0
  142.7087  148.5796  133.2596 H   0  0  0  0  0  0  0  0  0  0  0  0
  142.7391  148.4431  131.4769 H   0  0  0  0  0  0  0  0  0  0  0  0
  144.1745  150.3198  132.3727 H   0  0  0  0  0  0  0  0  0  0  0  0
  142.8568  150.8691  131.2436 H   0  0  0  0  0  0  0  0  0  0  0  0
  145.1028  155.3198  134.0757 H   0  0  0  0  0  0  0  0  0  0  0  0
  1  2  1  0
  2  3  2  0
  2  4  1  0
  4  5  2  0
  5  6  1  0
  6  7  2  0
  7  8  1  0
  8  9  2  0
  9 10  1  0
 10 11  1  0
 11 12  1  0
 12 13  1  0
 13 14  1  0
 14 15  1  0
 15 16  1  0
 16 17  1  0
 17 18  1  0
 18 19  2  0
 19 20  1  0
 20 21  2  0
 21 22  1  0
 22 23  2  0
 17 24  1  0
 24 25  1  0
  9 26  1  0
 26 27  2  0
 27 28  1  0
 28 29  1  0
 29 30  2  0
 29 31  1  0
 28  4  1  0
 27  6  1  0
 25 14  1  0
 23 18  1  0
  1 32  1  0
  1 33  1  0
  5 34  1  0
  7 35  1  0
  8 36  1  0
 10 37  1  0
 10 38  1  0
 11 39  1  0
 11 40  1  0
 12 41  1  0
 12 42  1  0
 13 43  1  0
 13 44  1  0
 15 45  1  0
 15 46  1  0
 16 47  1  0
 16 48  1  0
 19 49  1  0
 20 50  1  0
 21 51  1  0
 22 52  1  0
 23 53  1  0
 24 54  1  0
 24 55  1  0
 25 56  1  0
 25 57  1  0
 26 58  1  0
M  CHG  1  31  -1
M  END
>  <UniqueID>  (90) 
88

>  <SMILES>  (90) 
NC(=O)c1cc2ccc(CCCCN3CCN(c4ccccc4)CC3)cc2n1C(=O)[O-]

>  <Energy>  (90) 
109.97775061991341

>  <Genealogy>  (90) 
NC(=O)c1cc2ccc(CCCCN3CCN(c4ccccc4)CC3)cc2n1C(=O)[O-] (protonated)
NC(=O)c1cc2ccc(CCCCN3CCN(c4ccccc4)CC3)cc2n1C(=O)[O-] (3D coordinates assigned)
NC(=O)c1cc2ccc(CCCCN3CCN(c4ccccc4)CC3)cc2n1C(=O)[O-] (nonaromatic ring conformer: 109.97775061991341 kcal/mol)

>  <smiles>  (90) 
NC(=O)c1cc2ccc(CCCCN3CCN(c4ccccc4)CC3)cc2n1C(=O)O

>  <score_type>  (90) 
oracle

>  <origin>  (90) 
adg

>  <m_score__min__energy>  (90) 
-9.9299999999999997

>  <m_primary>  (90) 
energy

$$$$
91:0
     RDKit          3D

 38 40  0  0  0  0  0  0  0  0999 V2000
  146.9110  155.8700  132.2310 N   0  0  0  0  0  0  0  0  0  0  0  0
  147.1220  156.7780  133.3090 C   0  0  0  0  0  0  0  0  0  0  0  0
  147.9170  156.4670  134.2360 O   0  0  0  0  0  0  0  0  0  0  0  0
  146.4260  158.0350  133.3480 N   0  0  0  0  0  0  0  0  0  0  0  0
  146.8920  159.2510  132.9440 C   0  0  0  0  0  0  0  0  0  0  0  0
  148.2750  159.5500  132.5230 C   0  0  0  0  0  0  0  0  0  0  0  0
  149.3780  158.7740  132.9950 N   0  0  0  0  0  0  0  0  0  0  0  0
  148.4940  160.5410  131.7770 O   0  0  0  0  0  0  0  0  0  0  0  0
  145.8900  160.2130  133.0210 C   0  0  0  0  0  0  0  0  0  0  0  0
  144.7840  159.5480  133.4990 C   0  0  0  0  0  0  0  0  0  0  0  0
  143.5030  160.0200  133.7590 C   0  0  0  0  0  0  0  0  0  0  0  0
  142.5430  159.1030  134.2140 C   0  0  0  0  0  0  0  0  0  0  0  0
  142.8650  157.7290  134.3800 C   0  0  0  0  0  0  0  0  0  0  0  0
  141.7980  156.7780  134.9100 C   0  0  0  0  0  0  0  0  0  0  0  0
  140.4700  156.9600  134.1500 C   0  0  0  0  0  0  0  0  0  0  0  0
  139.6870  158.2140  134.5960 C   0  0  0  0  0  0  0  0  0  0  0  0
  139.9360  158.6050  135.9960 N   0  0  0  0  0  0  0  0  0  0  0  0
  140.2490  157.4570  136.8520 C   0  0  0  0  0  0  0  0  0  0  0  0
  141.6020  156.8480  136.4500 C   0  0  0  0  0  0  0  0  0  0  0  0
  144.1860  157.2940  134.1110 C   0  0  0  0  0  0  0  0  0  0  0  0
  145.1300  158.2350  133.6850 C   0  0  0  0  0  0  0  0  0  0  0  0
  146.2510  156.1010  131.4550 H   0  0  0  0  0  0  0  0  0  0  0  0
  150.3440  158.9740  132.6520 H   0  0  0  0  0  0  0  0  0  0  0  0
  149.2540  158.0620  133.7480 H   0  0  0  0  0  0  0  0  0  0  0  0
  145.9656  161.2780  132.7563 H   0  0  0  0  0  0  0  0  0  0  0  0
  143.2492  161.0803  133.6126 H   0  0  0  0  0  0  0  0  0  0  0  0
  141.5262  159.4531  134.4456 H   0  0  0  0  0  0  0  0  0  0  0  0
  142.1701  155.7612  134.7161 H   0  0  0  0  0  0  0  0  0  0  0  0
  140.6900  157.0477  133.0758 H   0  0  0  0  0  0  0  0  0  0  0  0
  139.8420  156.0842  134.3702 H   0  0  0  0  0  0  0  0  0  0  0  0
  139.9756  159.0526  133.9452 H   0  0  0  0  0  0  0  0  0  0  0  0
  138.6176  157.9685  134.5175 H   0  0  0  0  0  0  0  0  0  0  0  0
  139.0730  159.0660  136.3690 H   0  0  0  0  0  0  0  0  0  0  0  0
  140.2964  157.7875  137.9001 H   0  0  0  0  0  0  0  0  0  0  0  0
  139.4635  156.6961  136.7332 H   0  0  0  0  0  0  0  0  0  0  0  0
  142.4059  157.4643  136.8788 H   0  0  0  0  0  0  0  0  0  0  0  0
  141.6282  155.8176  136.8340 H   0  0  0  0  0  0  0  0  0  0  0  0
  144.4643  156.2370  134.2346 H   0  0  0  0  0  0  0  0  0  0  0  0
  1  2  1  0
  2  3  2  0
  2  4  1  0
  4  5  1  0
  5  6  1  0
  6  7  1  0
  6  8  2  0
  5  9  2  0
  9 10  1  0
 10 11  2  0
 11 12  1  0
 12 13  2  0
 13 14  1  0
 14 15  1  0
 15 16  1  0
 16 17  1  0
 17 18  1  0
 18 19  1  0
 13 20  1  0
 20 21  2  0
 21  4  1  0
 21 10  1  0
 19 14  1  0
  1 22  1  0
  7 23  1  0
  7 24  1  0
  9 25  1  0
 11 26  1  0
 12 27  1  0
 14 28  1  0
 15 29  1  0
 15 30  1  0
 16 31  1  0
 16 32  1  0
 17 33  1  0
 18 34  1  0
 18 35  1  0
 19 36  1  0
 19 37  1  0
 20 38  1  0
M  CHG  1   1  -1
M  END
>  <UniqueID>  (91) 
89

>  <SMILES>  (91) 
[NH-]C(=O)n1c(C(N)=O)cc2ccc(C3CCNCC3)cc21

>  <Energy>  (91) 
86.13487717770079

>  <Genealogy>  (91) 
[NH-]C(=O)n1c(C(N)=O)cc2ccc(C3CCNCC3)cc21 (protonated)
[NH-]C(=O)n1c(C(N)=O)cc2ccc(C3CCNCC3)cc21 (3D coordinates assigned)
[NH-]C(=O)n1c(C(N)=O)cc2ccc(C3CCNCC3)cc21 (nonaromatic ring conformer: 86.13487717770079 kcal/mol)

>  <smiles>  (91) 
NC(=O)c1cc2ccc(C3CCNCC3)cc2n1C(N)=O

>  <score_type>  (91) 
oracle

>  <origin>  (91) 
adg

>  <m_score__min__energy>  (91) 
-8.0199999999999996

>  <m_primary>  (91) 
energy

$$$$
92:0
     RDKit          3D

 44 46  0  0  0  0  0  0  0  0999 V2000
  144.4220  154.5160  131.7210 C   0  0  0  0  0  0  0  0  0  0  0  0
  145.7200  154.4000  132.9910 S   0  0  0  0  0  0  0  0  0  0  0  0
  146.7690  155.6910  132.2480 C   0  0  0  0  0  0  0  0  0  0  0  0
  147.1010  156.7110  133.2910 C   0  0  0  0  0  0  0  0  0  0  0  0
  147.9150  156.4160  134.2070 O   0  0  0  0  0  0  0  0  0  0  0  0
  146.4300  157.9800  133.3180 N   0  0  0  0  0  0  0  0  0  0  0  0
  146.9040  159.1910  132.9160 C   0  0  0  0  0  0  0  0  0  0  0  0
  148.2920  159.4850  132.5010 C   0  0  0  0  0  0  0  0  0  0  0  0
  149.3930  158.7170  132.9850 N   0  0  0  0  0  0  0  0  0  0  0  0
  148.5130  160.4620  131.7350 O   0  0  0  0  0  0  0  0  0  0  0  0
  145.9000  160.1550  132.9830 C   0  0  0  0  0  0  0  0  0  0  0  0
  144.7890  159.4900  133.4540 C   0  0  0  0  0  0  0  0  0  0  0  0
  143.5050  159.9570  133.7050 C   0  0  0  0  0  0  0  0  0  0  0  0
  142.5460  159.0350  134.1590 C   0  0  0  0  0  0  0  0  0  0  0  0
  142.8760  157.6640  134.3350 C   0  0  0  0  0  0  0  0  0  0  0  0
  141.8110  156.7100  134.8630 C   0  0  0  0  0  0  0  0  0  0  0  0
  141.6170  156.7760  136.4030 C   0  0  0  0  0  0  0  0  0  0  0  0
  140.2650  157.3840  136.8080 C   0  0  0  0  0  0  0  0  0  0  0  0
  139.9500  158.5330  135.9550 N   0  0  0  0  0  0  0  0  0  0  0  0
  139.6980  158.1430  134.5550 C   0  0  0  0  0  0  0  0  0  0  0  0
  140.4820  156.8910  134.1050 C   0  0  0  0  0  0  0  0  0  0  0  0
  144.2010  157.2360  134.0790 C   0  0  0  0  0  0  0  0  0  0  0  0
  145.1360  158.1800  133.6460 C   0  0  0  0  0  0  0  0  0  0  0  0
  143.4395  154.6038  132.2078 H   0  0  0  0  0  0  0  0  0  0  0  0
  144.6009  155.4017  131.0937 H   0  0  0  0  0  0  0  0  0  0  0  0
  144.4410  153.6126  131.0937 H   0  0  0  0  0  0  0  0  0  0  0  0
  147.6963  155.2383  131.8669 H   0  0  0  0  0  0  0  0  0  0  0  0
  146.2328  156.1716  131.4164 H   0  0  0  0  0  0  0  0  0  0  0  0
  150.3570  158.9030  132.6310 H   0  0  0  0  0  0  0  0  0  0  0  0
  149.2760  158.0300  133.7620 H   0  0  0  0  0  0  0  0  0  0  0  0
  145.9778  161.2194  132.7168 H   0  0  0  0  0  0  0  0  0  0  0  0
  143.2468  161.0154  133.5532 H   0  0  0  0  0  0  0  0  0  0  0  0
  141.5253  159.3797  134.3812 H   0  0  0  0  0  0  0  0  0  0  0  0
  142.1842  155.6943  134.6655 H   0  0  0  0  0  0  0  0  0  0  0  0
  141.6791  155.7555  136.8090 H   0  0  0  0  0  0  0  0  0  0  0  0
  142.4067  157.4256  136.8085 H   0  0  0  0  0  0  0  0  0  0  0  0
  139.4775  156.6238  136.6986 H   0  0  0  0  0  0  0  0  0  0  0  0
  140.3215  157.7190  137.8542 H   0  0  0  0  0  0  0  0  0  0  0  0
  139.0890  158.9950  136.3300 H   0  0  0  0  0  0  0  0  0  0  0  0
  138.6232  157.9388  134.4401 H   0  0  0  0  0  0  0  0  0  0  0  0
  140.0383  158.9775  133.9242 H   0  0  0  0  0  0  0  0  0  0  0  0
  139.8555  156.0037  134.2786 H   0  0  0  0  0  0  0  0  0  0  0  0
  140.7249  157.0193  133.0398 H   0  0  0  0  0  0  0  0  0  0  0  0
  144.4883  156.1833  134.2179 H   0  0  0  0  0  0  0  0  0  0  0  0
  1  2  1  0
  2  3  1  0
  3  4  1  0
  4  5  2  0
  4  6  1  0
  6  7  1  0
  7  8  1  0
  8  9  1  0
  8 10  2  0
  7 11  2  0
 11 12  1  0
 12 13  2  0
 13 14  1  0
 14 15  2  0
 15 16  1  0
 16 17  1  0
 17 18  1  0
 18 19  1  0
 19 20  1  0
 20 21  1  0
 15 22  1  0
 22 23  2  0
 23  6  1  0
 23 12  1  0
 21 16  1  0
  1 24  1  0
  1 25  1  0
  1 26  1  0
  3 27  1  0
  3 28  1  0
  9 29  1  0
  9 30  1  0
 11 31  1  0
 13 32  1  0
 14 33  1  0
 16 34  1  0
 17 35  1  0
 17 36  1  0
 18 37  1  0
 18 38  1  0
 19 39  1  0
 20 40  1  0
 20 41  1  0
 21 42  1  0
 21 43  1  0
 22 44  1  0
M  END
>  <UniqueID>  (92) 
90

>  <SMILES>  (92) 
CSCC(=O)n1c(C(N)=O)cc2ccc(C3CCNCC3)cc21

>  <Energy>  (92) 
87.29548174152183

>  <Genealogy>  (92) 
CSCC(=O)n1c(C(N)=O)cc2ccc(C3CCNCC3)cc21 (3D coordinates assigned)
CSCC(=O)n1c(C(N)=O)cc2ccc(C3CCNCC3)cc21 (nonaromatic ring conformer: 87.29548174152183 kcal/mol)

>  <smiles>  (92) 
CSCC(=O)n1c(C(N)=O)cc2ccc(C3CCNCC3)cc21

>  <score_type>  (92) 
oracle

>  <origin>  (92) 
adg

>  <m_score__min__energy>  (92) 
-8.4000000000000004

>  <m_primary>  (92) 
energy

$$$$
93:0
     RDKit          3D

 43 45  0  0  0  0  0  0  0  0999 V2000
  149.3130  151.0810  133.7970 C   0  0  0  0  0  0  0  0  0  0  0  0
  149.0720  151.7020  132.4830 N   0  0  0  0  0  0  0  0  0  0  0  0
  149.9470  152.8760  132.2580 C   0  0  0  0  0  0  0  0  0  0  0  0
  149.2240  154.2150  132.5030 C   0  0  0  0  0  0  0  0  0  0  0  0
  148.2900  154.0930  133.5540 O   0  0  0  0  0  0  0  0  0  0  0  0
  147.2170  153.2250  133.2050 C   0  0  1  0  0  0  0  0  0  0  0  0
  146.0510  154.0420  132.6070 C   0  0  0  0  0  0  0  0  0  0  0  0
  145.2920  154.8920  133.6400 C   0  0  0  0  0  0  0  0  0  0  0  0
  145.7260  156.3360  133.6200 C   0  0  0  0  0  0  0  0  0  0  0  0
  147.0500  156.6790  133.2500 C   0  0  0  0  0  0  0  0  0  0  0  0
  147.4510  158.0250  133.1900 C   0  0  0  0  0  0  0  0  0  0  0  0
  146.5120  158.9990  133.5110 C   0  0  0  0  0  0  0  0  0  0  0  0
  146.6250  160.3710  133.5080 C   0  0  0  0  0  0  0  0  0  0  0  0
  145.3750  160.8460  133.8980 C   0  0  0  0  0  0  0  0  0  0  0  0
  145.0790  162.2790  134.1080 C   0  0  0  0  0  0  0  0  0  0  0  0
  145.9680  163.0790  134.8860 N   0  0  0  0  0  0  0  0  0  0  0  0
  144.0330  162.7990  133.6390 O   0  0  0  0  0  0  0  0  0  0  0  0
  144.5180  159.8090  134.1260 N   0  0  0  0  0  0  0  0  0  0  0  0
  143.1270  159.8730  134.4810 C   0  0  0  0  0  0  0  0  0  0  0  0
  142.2970  160.4180  133.7070 O   0  0  0  0  0  0  0  0  0  0  0  0
  142.6790  159.3120  135.6700 O   0  0  0  0  0  0  0  0  0  0  0  0
  145.2310  158.6860  133.8880 C   0  0  0  0  0  0  0  0  0  0  0  0
  144.8000  157.3550  133.9380 C   0  0  0  0  0  0  0  0  0  0  0  0
  147.6500  152.0400  132.2930 C   0  0  0  0  0  0  0  0  0  0  0  0
  149.0383  151.7888  134.5930 H   0  0  0  0  0  0  0  0  0  0  0  0
  148.7030  150.1703  133.8896 H   0  0  0  0  0  0  0  0  0  0  0  0
  150.3776  150.8202  133.8896 H   0  0  0  0  0  0  0  0  0  0  0  0
  150.8062  152.8102  132.9417 H   0  0  0  0  0  0  0  0  0  0  0  0
  150.2619  152.8574  131.2042 H   0  0  0  0  0  0  0  0  0  0  0  0
  149.9660  154.9830  132.7668 H   0  0  0  0  0  0  0  0  0  0  0  0
  148.6885  154.5006  131.5856 H   0  0  0  0  0  0  0  0  0  0  0  0
  146.8652  152.7451  134.1302 H   0  0  0  0  0  0  0  0  0  0  0  0
  146.4580  154.7141  131.8372 H   0  0  0  0  0  0  0  0  0  0  0  0
  145.3308  153.3184  132.1976 H   0  0  0  0  0  0  0  0  0  0  0  0
  144.2159  154.8426  133.4173 H   0  0  0  0  0  0  0  0  0  0  0  0
  145.5136  154.4869  134.6384 H   0  0  0  0  0  0  0  0  0  0  0  0
  147.7710  155.8845  133.0074 H   0  0  0  0  0  0  0  0  0  0  0  0
  148.4756  158.2991  132.8982 H   0  0  0  0  0  0  0  0  0  0  0  0
  147.5140  160.9661  133.2519 H   0  0  0  0  0  0  0  0  0  0  0  0
  147.0020  163.0070  134.7630 H   0  0  0  0  0  0  0  0  0  0  0  0
  143.7653  157.1083  134.2181 H   0  0  0  0  0  0  0  0  0  0  0  0
  147.0378  151.1593  132.5370 H   0  0  0  0  0  0  0  0  0  0  0  0
  147.5044  152.3407  131.2450 H   0  0  0  0  0  0  0  0  0  0  0  0
  1  2  1  0
  2  3  1  0
  3  4  1  0
  4  5  1  0
  5  6  1  0
  6  7  1  0
  7  8  1  0
  8  9  1  0
  9 10  2  0
 10 11  1  0
 11 12  2  0
 12 13  1  0
 13 14  2  0
 14 15  1  0
 15 16  1  0
 15 17  2  0
 14 18  1  0
 18 19  1  0
 19 20  2  0
 19 21  1  0
 18 22  1  0
 22 23  2  0
  6 24  1  0
 24  2  1  0
 23  9  1  0
 22 12  1  0
  1 25  1  0
  1 26  1  0
  1 27  1  0
  3 28  1  0
  3 29  1  0
  4 30  1  0
  4 31  1  0
  6 32  1  1
  7 33  1  0
  7 34  1  0
  8 35  1  0
  8 36  1  0
 10 37  1  0
 11 38  1  0
 13 39  1  0
 16 40  1  0
 23 41  1  0
 24 42  1  0
 24 43  1  0
M  CHG  2  16  -1  21  -1
M  END
>  <UniqueID>  (93) 
91

>  <SMILES>  (93) 
CN1CCO[C@@H](CCc2ccc3cc(C([NH-])=O)n(C(=O)[O-])c3c2)C1

>  <Energy>  (93) 
92.46332180218917

>  <Genealogy>  (93) 
CN1CCO[C@@H](CCc2ccc3cc(C([NH-])=O)n(C(=O)[O-])c3c2)C1 (protonated)
CN1CCO[C@@H](CCc2ccc3cc(C([NH-])=O)n(C(=O)[O-])c3c2)C1 (3D coordinates assigned)
CN1CCO[C@@H](CCc2ccc3cc(C([NH-])=O)n(C(=O)[O-])c3c2)C1 (nonaromatic ring conformer: 92.46332180218917 kcal/mol)

>  <smiles>  (93) 
CN1CCO[C@@H](CCc2ccc3cc(C(N)=O)n(C(=O)O)c3c2)C1

>  <score_type>  (93) 
oracle

>  <origin>  (93) 
adg

>  <m_score__min__energy>  (93) 
-7.4400000000000004

>  <m_primary>  (93) 
energy

$$$$
94:0
     RDKit          3D

 53 55  0  0  0  0  0  0  0  0999 V2000
  141.7920  151.8940  134.3830 C   0  0  0  0  0  0  0  0  0  0  0  0
  142.4510  153.2480  134.0770 C   0  0  0  0  0  0  0  0  0  0  0  0
  142.7380  153.3320  132.5660 C   0  0  0  0  0  0  0  0  0  0  0  0
  143.7580  153.3610  134.8860 C   0  0  0  0  0  0  0  0  0  0  0  0
  141.5240  154.2690  134.4710 O   0  0  0  0  0  0  0  0  0  0  0  0
  140.9850  155.2690  133.6470 C   0  0  0  0  0  0  0  0  0  0  0  0
  140.1130  154.9930  132.7800 O   0  0  0  0  0  0  0  0  0  0  0  0
  141.4170  156.6290  133.8110 N   0  0  0  0  0  0  0  0  0  0  0  0
  140.6650  157.7060  134.1750 C   0  0  0  0  0  0  0  0  0  0  0  0
  139.1940  157.7100  134.3300 C   0  0  0  0  0  0  0  0  0  0  0  0
  138.3550  157.0790  133.3610 N   0  0  0  0  0  0  0  0  0  0  0  0
  138.6660  158.2500  135.3380 O   0  0  0  0  0  0  0  0  0  0  0  0
  141.4670  158.8410  134.2920 C   0  0  0  0  0  0  0  0  0  0  0  0
  142.7410  158.4220  133.9890 C   0  0  0  0  0  0  0  0  0  0  0  0
  143.9360  159.1360  133.9570 C   0  0  0  0  0  0  0  0  0  0  0  0
  145.1120  158.4390  133.6360 C   0  0  0  0  0  0  0  0  0  0  0  0
  145.0760  157.0460  133.3690 C   0  0  0  0  0  0  0  0  0  0  0  0
  146.3380  156.3130  133.0140 C   0  0  0  0  0  0  0  0  0  0  0  0
  147.2970  156.3550  134.1600 C   0  0  0  0  0  0  0  0  0  0  0  0
  147.3980  155.3560  134.9220 O   0  0  0  0  0  0  0  0  0  0  0  0
  148.1350  157.4700  134.3110 O   0  0  0  0  0  0  0  0  0  0  0  0
  148.4910  158.3610  133.2890 C   0  0  0  0  0  0  0  0  0  0  0  0
  149.2650  157.8840  132.2280 C   0  0  0  0  0  0  0  0  0  0  0  0
  149.6330  158.7300  131.1790 C   0  0  0  0  0  0  0  0  0  0  0  0
  149.2210  160.0730  131.1670 C   0  0  0  0  0  0  0  0  0  0  0  0
  149.6060  160.9620  130.0500 C   0  0  0  0  0  0  0  0  0  0  0  0
  149.9450  160.4810  128.9350 O   0  0  0  0  0  0  0  0  0  0  0  0
  149.6030  162.3430  130.2150 O   0  0  0  0  0  0  0  0  0  0  0  0
  148.4270  160.5490  132.2250 C   0  0  0  0  0  0  0  0  0  0  0  0
  148.0600  159.7000  133.2740 C   0  0  0  0  0  0  0  0  0  0  0  0
  143.8440  156.3570  133.3960 C   0  0  0  0  0  0  0  0  0  0  0  0
  142.6850  157.0820  133.7020 C   0  0  0  0  0  0  0  0  0  0  0  0
  141.7251  151.7566  135.4723 H   0  0  0  0  0  0  0  0  0  0  0  0
  140.7820  151.8711  133.9479 H   0  0  0  0  0  0  0  0  0  0  0  0
  142.3971  151.0850  133.9479 H   0  0  0  0  0  0  0  0  0  0  0  0
  143.7827  153.6378  132.4077 H   0  0  0  0  0  0  0  0  0  0  0  0
  142.5704  152.3471  132.1056 H   0  0  0  0  0  0  0  0  0  0  0  0
  142.0658  154.0711  132.1056 H   0  0  0  0  0  0  0  0  0  0  0  0
  143.5266  153.3410  135.9612 H   0  0  0  0  0  0  0  0  0  0  0  0
  144.4175  152.5165  134.6371 H   0  0  0  0  0  0  0  0  0  0  0  0
  144.2627  154.3061  134.6371 H   0  0  0  0  0  0  0  0  0  0  0  0
  138.7480  156.6740  132.4850 H   0  0  0  0  0  0  0  0  0  0  0  0
  137.3200  157.0590  133.4990 H   0  0  0  0  0  0  0  0  0  0  0  0
  141.1478  159.8568  134.5683 H   0  0  0  0  0  0  0  0  0  0  0  0
  143.9582  160.2136  134.1766 H   0  0  0  0  0  0  0  0  0  0  0  0
  146.0699  158.9779  133.5911 H   0  0  0  0  0  0  0  0  0  0  0  0
  146.0967  155.2656  132.7799 H   0  0  0  0  0  0  0  0  0  0  0  0
  146.8004  156.7952  132.1401 H   0  0  0  0  0  0  0  0  0  0  0  0
  149.5876  156.8324  132.2186 H   0  0  0  0  0  0  0  0  0  0  0  0
  150.2504  158.3414  130.3557 H   0  0  0  0  0  0  0  0  0  0  0  0
  148.0920  161.5967  132.2278 H   0  0  0  0  0  0  0  0  0  0  0  0
  147.4309  160.0813  134.0918 H   0  0  0  0  0  0  0  0  0  0  0  0
  143.7954  155.2790  133.1823 H   0  0  0  0  0  0  0  0  0  0  0  0
  1  2  1  0
  2  3  1  0
  2  4  1  0
  2  5  1  0
  5  6  1  0
  6  7  2  0
  6  8  1  0
  8  9  1  0
  9 10  1  0
 10 11  1  0
 10 12  2  0
  9 13  2  0
 13 14  1  0
 14 15  2  0
 15 16  1  0
 16 17  2  0
 17 18  1  0
 18 19  1  0
 19 20  2  0
 19 21  1  0
 21 22  1  0
 22 23  2  0
 23 24  1  0
 24 25  2  0
 25 26  1  0
 26 27  2  0
 26 28  1  0
 25 29  1  0
 29 30  2  0
 17 31  1  0
 31 32  2  0
 32  8  1  0
 32 14  1  0
 30 22  1  0
  1 33  1  0
  1 34  1  0
  1 35  1  0
  3 36  1  0
  3 37  1  0
  3 38  1  0
  4 39  1  0
  4 40  1  0
  4 41  1  0
 11 42  1  0
 11 43  1  0
 13 44  1  0
 15 45  1  0
 16 46  1  0
 18 47  1  0
 18 48  1  0
 23 49  1  0
 24 50  1  0
 29 51  1  0
 30 52  1  0
 31 53  1  0
M  CHG  1  28  -1
M  END
>  <UniqueID>  (94) 
92

>  <SMILES>  (94) 
CC(C)(C)OC(=O)n1c(C(N)=O)cc2ccc(CC(=O)Oc3ccc(C(=O)[O-])cc3)cc21

>  <Energy>  (94) 
91.75619781357173

>  <Genealogy>  (94) 
CC(C)(C)OC(=O)n1c(C(N)=O)cc2ccc(CC(=O)Oc3ccc(C(=O)[O-])cc3)cc21 (protonated)
CC(C)(C)OC(=O)n1c(C(N)=O)cc2ccc(CC(=O)Oc3ccc(C(=O)[O-])cc3)cc21 (3D coordinates assigned)
CC(C)(C)OC(=O)n1c(C(N)=O)cc2ccc(CC(=O)Oc3ccc(C(=O)[O-])cc3)cc21 (optimized conformer: 91.75619781357173 kcal/mol)

>  <smiles>  (94) 
CC(C)(C)OC(=O)n1c(C(N)=O)cc2ccc(CC(=O)Oc3ccc(C(=O)O)cc3)cc21

>  <score_type>  (94) 
oracle

>  <origin>  (94) 
adg

>  <m_score__min__energy>  (94) 
-9.7300000000000004

>  <m_primary>  (94) 
energy

$$$$
