0:0
     RDKit          3D

 43 44  0  0  0  0  0  0  0  0999 V2000
  150.6970  150.7150  132.6920 C   0  0  0  0  0  0  0  0  0  0  0  0
  149.8490  151.6650  133.4200 N   0  0  0  0  0  0  0  0  0  0  0  0
  149.6180  151.4840  134.8570 C   0  0  0  0  0  0  0  0  0  0  0  0
  149.2340  152.7520  132.6910 C   0  0  0  0  0  0  0  0  0  0  0  0
  149.2570  152.7470  131.4300 O   0  0  0  0  0  0  0  0  0  0  0  0
  148.5250  153.8880  133.3870 C   0  0  0  0  0  0  0  0  0  0  0  0
  147.9860  154.8320  132.4060 N   0  0  0  0  0  0  0  0  0  0  0  0
  147.8080  156.2410  132.6530 C   0  0  0  0  0  0  0  0  0  0  0  0
  148.9370  157.0970  132.6120 C   0  0  0  0  0  0  0  0  0  0  0  0
  148.8080  158.4720  132.8720 C   0  0  0  0  0  0  0  0  0  0  0  0
  147.5400  158.9670  133.1590 C   0  0  0  0  0  0  0  0  0  0  0  0
  147.1410  160.2400  133.4990 C   0  0  0  0  0  0  0  0  0  0  0  0
  145.7690  160.1490  133.7160 C   0  0  0  0  0  0  0  0  0  0  0  0
  144.9200  161.3040  134.0700 C   0  0  0  0  0  0  0  0  0  0  0  0
  143.5330  161.3370  133.7340 N   0  0  0  0  0  0  0  0  0  0  0  0
  145.4390  162.3020  134.6390 O   0  0  0  0  0  0  0  0  0  0  0  0
  145.3360  158.8710  133.5270 N   0  0  0  0  0  0  0  0  0  0  0  0
  144.0310  158.3390  133.7940 C   0  0  0  0  0  0  0  0  0  0  0  0
  143.8720  157.4920  134.7140 O   0  0  0  0  0  0  0  0  0  0  0  0
  142.9070  158.7880  133.0300 N   0  0  0  0  0  0  0  0  0  0  0  0
  141.5430  158.8130  133.5450 C   0  0  0  0  0  0  0  0  0  0  0  0
  140.7960  159.9820  132.9860 C   0  0  0  0  0  0  0  0  0  0  0  0
  141.0730  161.1490  133.3630 O   0  0  0  0  0  0  0  0  0  0  0  0
  139.7720  159.7800  132.0690 O   0  0  0  0  0  0  0  0  0  0  0  0
  146.4330  158.1610  133.1830 C   0  0  0  0  0  0  0  0  0  0  0  0
  146.5340  156.7870  132.9460 C   0  0  0  0  0  0  0  0  0  0  0  0
  151.2517  150.0935  133.4104 H   0  0  0  0  0  0  0  0  0  0  0  0
  150.0676  150.0714  132.0598 H   0  0  0  0  0  0  0  0  0  0  0  0
  151.4076  151.2676  132.0598 H   0  0  0  0  0  0  0  0  0  0  0  0
  150.3601  152.0654  135.4238 H   0  0  0  0  0  0  0  0  0  0  0  0
  148.6064  151.8324  135.1125 H   0  0  0  0  0  0  0  0  0  0  0  0
  149.7143  150.4184  135.1125 H   0  0  0  0  0  0  0  0  0  0  0  0
  147.7000  153.4837  133.9920 H   0  0  0  0  0  0  0  0  0  0  0  0
  149.2438  154.4153  134.0314 H   0  0  0  0  0  0  0  0  0  0  0  0
  147.7070  154.4480  131.4750 H   0  0  0  0  0  0  0  0  0  0  0  0
  149.9265  156.6798  132.3737 H   0  0  0  0  0  0  0  0  0  0  0  0
  149.6838  159.1372  132.8492 H   0  0  0  0  0  0  0  0  0  0  0  0
  147.7717  161.1374  133.5815 H   0  0  0  0  0  0  0  0  0  0  0  0
  142.9370  162.1340  134.0490 H   0  0  0  0  0  0  0  0  0  0  0  0
  143.1150  160.6230  133.0990 H   0  0  0  0  0  0  0  0  0  0  0  0
  141.0298  157.8836  133.2571 H   0  0  0  0  0  0  0  0  0  0  0  0
  141.5769  158.9022  134.6409 H   0  0  0  0  0  0  0  0  0  0  0  0
  145.6429  156.1433  132.9862 H   0  0  0  0  0  0  0  0  0  0  0  0
  1  2  1  0
  2  3  1  0
  2  4  1  0
  4  5  2  0
  4  6  1  0
  6  7  1  0
  7  8  1  0
  8  9  2  0
  9 10  1  0
 10 11  2  0
 11 12  1  0
 12 13  2  0
 13 14  1  0
 14 15  1  0
 14 16  2  0
 13 17  1  0
 17 18  1  0
 18 19  2  0
 18 20  1  0
 20 21  1  0
 21 22  1  0
 22 23  2  0
 22 24  1  0
 17 25  1  0
 25 26  2  0
 26  8  1  0
 25 11  1  0
  1 27  1  0
  1 28  1  0
  1 29  1  0
  3 30  1  0
  3 31  1  0
  3 32  1  0
  6 33  1  0
  6 34  1  0
  7 35  1  0
  9 36  1  0
 10 37  1  0
 12 38  1  0
 15 39  1  0
 15 40  1  0
 21 41  1  0
 21 42  1  0
 26 43  1  0
M  CHG  2  20  -1  24  -1
M  END
>  <UniqueID>  (1) 
1

>  <SMILES>  (1) 
CN(C)C(=O)CNc1ccc2cc(C(N)=O)n(C(=O)[N-]CC(=O)[O-])c2c1

>  <Energy>  (1) 
75.17225897737826

>  <Genealogy>  (1) 
CN(C)C(=O)CNc1ccc2cc(C(N)=O)n(C(=O)[N-]CC(=O)[O-])c2c1 (protonated)
CN(C)C(=O)CNc1ccc2cc(C(N)=O)n(C(=O)[N-]CC(=O)[O-])c2c1 (3D coordinates assigned)
CN(C)C(=O)CNc1ccc2cc(C(N)=O)n(C(=O)[N-]CC(=O)[O-])c2c1 (optimized conformer: 75.17225897737826 kcal/mol)

>  <smiles>  (1) 
CN(C)C(=O)CNc1ccc2cc(C(N)=O)n(C(=O)NCC(=O)O)c2c1

>  <score_type>  (1) 
oracle

>  <origin>  (1) 
adg

>  <m_score__min__energy>  (1) 
-7.75

>  <m_primary>  (1) 
energy

$$$$
1:0
     RDKit          3D

 31 32  0  0  0  0  0  0  0  0999 V2000
  147.7650  154.0990  136.5390 C   0  0  0  0  0  0  0  0  0  0  0  0
  146.5390  153.5790  136.0350 O   0  0  0  0  0  0  0  0  0  0  0  0
  145.5990  154.3760  135.3750 C   0  0  0  0  0  0  0  0  0  0  0  0
  144.5950  154.8250  135.9910 O   0  0  0  0  0  0  0  0  0  0  0  0
  145.8000  154.7060  133.9560 C   0  0  0  0  0  0  0  0  0  0  0  0
  145.0060  154.2420  133.0940 O   0  0  0  0  0  0  0  0  0  0  0  0
  146.9040  155.5230  133.5360 N   0  0  0  0  0  0  0  0  0  0  0  0
  148.1070  155.0990  133.0590 C   0  0  0  0  0  0  0  0  0  0  0  0
  148.5750  153.6990  133.0170 C   0  0  0  0  0  0  0  0  0  0  0  0
  147.7570  152.6270  133.4870 N   0  0  0  0  0  0  0  0  0  0  0  0
  149.7360  153.4470  132.5970 O   0  0  0  0  0  0  0  0  0  0  0  0
  148.8640  156.1790  132.6070 C   0  0  0  0  0  0  0  0  0  0  0  0
  148.0780  157.2880  132.8250 C   0  0  0  0  0  0  0  0  0  0  0  0
  148.3200  158.6280  132.5310 C   0  0  0  0  0  0  0  0  0  0  0  0
  147.3040  159.5570  132.8120 C   0  0  0  0  0  0  0  0  0  0  0  0
  146.0700  159.1340  133.3660 C   0  0  0  0  0  0  0  0  0  0  0  0
  144.9880  160.1400  133.6350 C   0  0  0  0  0  0  0  0  0  0  0  0
  143.9980  159.5650  134.4110 F   0  0  0  0  0  0  0  0  0  0  0  0
  145.5210  161.2270  134.3060 F   0  0  0  0  0  0  0  0  0  0  0  0
  145.8580  157.7640  133.6420 C   0  0  0  0  0  0  0  0  0  0  0  0
  146.8980  156.8660  133.3790 C   0  0  0  0  0  0  0  0  0  0  0  0
  147.7428  154.0896  137.6387 H   0  0  0  0  0  0  0  0  0  0  0  0
  148.6004  153.4777  136.1838 H   0  0  0  0  0  0  0  0  0  0  0  0
  147.8990  155.1314  136.1838 H   0  0  0  0  0  0  0  0  0  0  0  0
  146.8780  152.8090  134.0200 H   0  0  0  0  0  0  0  0  0  0  0  0
  148.0840  151.6400  133.3940 H   0  0  0  0  0  0  0  0  0  0  0  0
  149.8730  156.1510  132.1699 H   0  0  0  0  0  0  0  0  0  0  0  0
  149.2765  158.9488  132.0926 H   0  0  0  0  0  0  0  0  0  0  0  0
  147.4681  160.6238  132.5998 H   0  0  0  0  0  0  0  0  0  0  0  0
  144.5578  160.4715  132.6784 H   0  0  0  0  0  0  0  0  0  0  0  0
  144.8999  157.4130  134.0530 H   0  0  0  0  0  0  0  0  0  0  0  0
  1  2  1  0
  2  3  1  0
  3  4  2  0
  3  5  1  0
  5  6  2  0
  5  7  1  0
  7  8  1  0
  8  9  1  0
  9 10  1  0
  9 11  2  0
  8 12  2  0
 12 13  1  0
 13 14  2  0
 14 15  1  0
 15 16  2  0
 16 17  1  0
 17 18  1  0
 17 19  1  0
 16 20  1  0
 20 21  2  0
 21  7  1  0
 21 13  1  0
  1 22  1  0
  1 23  1  0
  1 24  1  0
 10 25  1  0
 10 26  1  0
 12 27  1  0
 14 28  1  0
 15 29  1  0
 17 30  1  0
 20 31  1  0
M  END
>  <UniqueID>  (2) 
2

>  <SMILES>  (2) 
COC(=O)C(=O)n1c(C(N)=O)cc2ccc(C(F)F)cc21

>  <Energy>  (2) 
68.65025754238138

>  <Genealogy>  (2) 
COC(=O)C(=O)n1c(C(N)=O)cc2ccc(C(F)F)cc21 (3D coordinates assigned)
COC(=O)C(=O)n1c(C(N)=O)cc2ccc(C(F)F)cc21 (optimized conformer: 68.65025754238138 kcal/mol)

>  <smiles>  (2) 
COC(=O)C(=O)n1c(C(N)=O)cc2ccc(C(F)F)cc21

>  <score_type>  (2) 
oracle

>  <origin>  (2) 
adg

>  <m_score__min__energy>  (2) 
-6.3099999999999996

>  <m_primary>  (2) 
energy

$$$$
2:0
     RDKit          3D

 47 48  0  0  0  0  0  0  0  0999 V2000
  147.2110  150.7860  132.2380 C   0  0  0  0  0  0  0  0  0  0  0  0
  148.7950  151.7270  132.5390 Si  0  0  0  0  0  4  0  0  0  0  0  0
  149.6040  151.1060  134.1040 C   0  0  0  0  0  0  0  0  0  0  0  0
  149.9520  151.4800  131.0950 C   0  0  0  0  0  0  0  0  0  0  0  0
  148.4240  153.4940  132.7110 C   0  0  0  0  0  0  0  0  0  0  0  0
  148.1830  154.6700  132.8080 C   0  0  0  0  0  0  0  0  0  0  0  0
  147.8750  156.0690  132.9320 C   0  0  0  0  0  0  0  0  0  0  0  0
  148.9050  157.0340  132.8510 C   0  0  0  0  0  0  0  0  0  0  0  0
  148.6070  158.4030  132.9710 C   0  0  0  0  0  0  0  0  0  0  0  0
  147.2790  158.7660  133.1840 C   0  0  0  0  0  0  0  0  0  0  0  0
  146.7100  160.0120  133.3170 C   0  0  0  0  0  0  0  0  0  0  0  0
  145.3470  159.7780  133.5050 C   0  0  0  0  0  0  0  0  0  0  0  0
  144.3700  160.8520  133.7800 C   0  0  0  0  0  0  0  0  0  0  0  0
  143.0070  160.5500  134.0650 N   0  0  0  0  0  0  0  0  0  0  0  0
  144.7540  162.0520  133.8090 O   0  0  0  0  0  0  0  0  0  0  0  0
  145.0850  158.4410  133.4800 N   0  0  0  0  0  0  0  0  0  0  0  0
  143.8110  157.7840  133.5730 C   0  0  0  0  0  0  0  0  0  0  0  0
  143.2250  157.3940  132.5270 O   0  0  0  0  0  0  0  0  0  0  0  0
  143.2430  157.5520  134.8300 O   0  0  0  0  0  0  0  0  0  0  0  0
  141.9700  156.9360  134.9990 C   0  0  0  0  0  0  0  0  0  0  0  0
  140.9160  157.9860  135.3680 C   0  0  1  0  0  0  0  0  0  0  0  0
  141.5660  159.0910  135.9390 O   0  0  0  0  0  0  0  0  0  0  0  0
  140.1170  158.4290  134.1310 C   0  0  0  0  0  0  0  0  0  0  0  0
  140.9760  158.9430  133.1480 O   0  0  0  0  0  0  0  0  0  0  0  0
  146.2760  157.8360  133.2830 C   0  0  0  0  0  0  0  0  0  0  0  0
  146.5410  156.4700  133.1390 C   0  0  0  0  0  0  0  0  0  0  0  0
  146.7561  150.5158  133.2024 H   0  0  0  0  0  0  0  0  0  0  0  0
  146.5130  151.4160  131.6671 H   0  0  0  0  0  0  0  0  0  0  0  0
  147.4305  149.8717  131.6671 H   0  0  0  0  0  0  0  0  0  0  0  0
  149.0736  151.5132  134.9774 H   0  0  0  0  0  0  0  0  0  0  0  0
  149.5605  150.0071  134.1281 H   0  0  0  0  0  0  0  0  0  0  0  0
  150.6543  151.4320  134.1281 H   0  0  0  0  0  0  0  0  0  0  0  0
  150.9638  151.2640  131.4686 H   0  0  0  0  0  0  0  0  0  0  0  0
  149.5995  150.6369  130.4827 H   0  0  0  0  0  0  0  0  0  0  0  0
  149.9745  152.3936  130.4827 H   0  0  0  0  0  0  0  0  0  0  0  0
  149.9450  156.7122  132.6933 H   0  0  0  0  0  0  0  0  0  0  0  0
  149.3981  159.1639  132.8989 H   0  0  0  0  0  0  0  0  0  0  0  0
  147.2209  160.9855  133.2825 H   0  0  0  0  0  0  0  0  0  0  0  0
  142.6760  159.5620  134.1210 H   0  0  0  0  0  0  0  0  0  0  0  0
  141.6779  156.4429  134.0601 H   0  0  0  0  0  0  0  0  0  0  0  0
  142.0358  156.1948  135.8091 H   0  0  0  0  0  0  0  0  0  0  0  0
  140.2067  157.5472  136.0852 H   0  0  0  0  0  0  0  0  0  0  0  0
  142.2170  159.4250  135.2670 H   0  0  0  0  0  0  0  0  0  0  0  0
  139.5751  157.5638  133.7214 H   0  0  0  0  0  0  0  0  0  0  0  0
  139.4076  159.2151  134.4291 H   0  0  0  0  0  0  0  0  0  0  0  0
  141.9020  158.8470  133.4960 H   0  0  0  0  0  0  0  0  0  0  0  0
  145.7293  155.7291  133.1862 H   0  0  0  0  0  0  0  0  0  0  0  0
  1  2  1  0
  2  3  1  0
  2  4  1  0
  2  5  1  0
  5  6  3  0
  6  7  1  0
  7  8  2  0
  8  9  1  0
  9 10  2  0
 10 11  1  0
 11 12  2  0
 12 13  1  0
 13 14  1  0
 13 15  2  0
 12 16  1  0
 16 17  1  0
 17 18  2  0
 17 19  1  0
 19 20  1  0
 20 21  1  0
 21 22  1  0
 21 23  1  0
 23 24  1  0
 16 25  1  0
 25 26  2  0
 26  7  1  0
 25 10  1  0
  1 27  1  0
  1 28  1  0
  1 29  1  0
  3 30  1  0
  3 31  1  0
  3 32  1  0
  4 33  1  0
  4 34  1  0
  4 35  1  0
  8 36  1  0
  9 37  1  0
 11 38  1  0
 14 39  1  0
 20 40  1  0
 20 41  1  0
 21 42  1  1
 22 43  1  0
 23 44  1  0
 23 45  1  0
 24 46  1  0
 26 47  1  0
M  CHG  1  14  -1
M  END
>  <UniqueID>  (3) 
3

>  <SMILES>  (3) 
C[Si](C)(C)C#Cc1ccc2cc(C([NH-])=O)n(C(=O)OC[C@@H](O)CO)c2c1

>  <Energy>  (3) 
63.16930527807032

>  <Genealogy>  (3) 
C[Si](C)(C)C#Cc1ccc2cc(C([NH-])=O)n(C(=O)OCC(O)CO)c2c1 (protonated)
C[Si](C)(C)C#Cc1ccc2cc(C([NH-])=O)n(C(=O)OC[C@@H](O)CO)c2c1 (chirality)
C[Si](C)(C)C#Cc1ccc2cc(C([NH-])=O)n(C(=O)OC[C@@H](O)CO)c2c1 (3D coordinates assigned)
C[Si](C)(C)C#Cc1ccc2cc(C([NH-])=O)n(C(=O)OC[C@@H](O)CO)c2c1 (optimized conformer: 63.16930527807032 kcal/mol)

>  <smiles>  (3) 
C[Si](C)(C)C#Cc1ccc2cc(C(N)=O)n(C(=O)OCC(O)CO)c2c1

>  <score_type>  (3) 
oracle

>  <origin>  (3) 
adg

>  <m_score__min__energy>  (3) 
-6.79

>  <m_primary>  (3) 
energy

$$$$
3:0
     RDKit          3D

 38 40  0  0  0  0  0  0  0  0999 V2000
  139.5330  156.4080  133.0480 N   0  0  0  0  0  0  0  0  0  0  0  0
  139.7410  157.7420  133.5130 C   0  0  0  0  0  0  0  0  0  0  0  0
  138.7440  158.4650  133.7780 O   0  0  0  0  0  0  0  0  0  0  0  0
  141.0990  158.3110  133.6260 C   0  0  0  0  0  0  0  0  0  0  0  0
  141.3490  159.6740  133.7430 C   0  0  0  0  0  0  0  0  0  0  0  0
  142.7200  159.7920  133.7550 C   0  0  0  0  0  0  0  0  0  0  0  0
  143.5180  160.9260  133.8640 C   0  0  0  0  0  0  0  0  0  0  0  0
  144.9100  160.7530  133.8870 C   0  0  0  0  0  0  0  0  0  0  0  0
  145.4830  159.4560  133.8160 C   0  0  0  0  0  0  0  0  0  0  0  0
  146.9150  159.2910  133.8430 N   0  0  0  0  0  0  0  0  0  0  0  0
  147.5030  157.9660  134.1050 C   0  0  0  0  0  0  0  0  0  0  0  0
  147.9840  157.2720  132.8120 C   0  0  0  0  0  0  0  0  0  0  0  0
  148.7730  158.1830  131.8500 C   0  0  0  0  0  0  0  0  0  0  0  0
  148.0400  159.2780  131.3230 O   0  0  0  0  0  0  0  0  0  0  0  0
  148.2010  160.4950  132.0390 C   0  0  0  0  0  0  0  0  0  0  0  0
  147.7740  160.4470  133.5220 C   0  0  0  0  0  0  0  0  0  0  0  0
  144.6350  158.3280  133.7030 C   0  0  0  0  0  0  0  0  0  0  0  0
  143.2520  158.5310  133.6600 C   0  0  0  0  0  0  0  0  0  0  0  0
  142.2660  157.6080  133.5810 N   0  0  0  0  0  0  0  0  0  0  0  0
  142.4260  156.1780  133.5780 C   0  0  0  0  0  0  0  0  0  0  0  0
  143.3280  155.6400  132.8840 O   0  0  0  0  0  0  0  0  0  0  0  0
  141.5850  155.3750  134.3390 O   0  0  0  0  0  0  0  0  0  0  0  0
  138.5680  156.0100  133.0120 H   0  0  0  0  0  0  0  0  0  0  0  0
  140.3210  155.8440  132.6600 H   0  0  0  0  0  0  0  0  0  0  0  0
  140.6088  160.4848  133.8114 H   0  0  0  0  0  0  0  0  0  0  0  0
  143.0709  161.9288  133.9302 H   0  0  0  0  0  0  0  0  0  0  0  0
  145.5656  161.6332  133.9609 H   0  0  0  0  0  0  0  0  0  0  0  0
  148.3617  158.0876  134.7816 H   0  0  0  0  0  0  0  0  0  0  0  0
  146.7228  157.3348  134.5554 H   0  0  0  0  0  0  0  0  0  0  0  0
  148.6318  156.4294  133.0954 H   0  0  0  0  0  0  0  0  0  0  0  0
  147.0789  156.9575  132.2717 H   0  0  0  0  0  0  0  0  0  0  0  0
  149.6406  158.5839  132.3945 H   0  0  0  0  0  0  0  0  0  0  0  0
  149.0485  157.5555  130.9896 H   0  0  0  0  0  0  0  0  0  0  0  0
  149.2641  160.7746  131.9999 H   0  0  0  0  0  0  0  0  0  0  0  0
  147.5364  161.2248  131.5536 H   0  0  0  0  0  0  0  0  0  0  0  0
  148.6792  160.3934  134.1448 H   0  0  0  0  0  0  0  0  0  0  0  0
  147.1873  161.3556  133.7225 H   0  0  0  0  0  0  0  0  0  0  0  0
  145.0553  157.3128  133.6501 H   0  0  0  0  0  0  0  0  0  0  0  0
  1  2  1  0
  2  3  2  0
  2  4  1  0
  4  5  2  0
  5  6  1  0
  6  7  2  0
  7  8  1  0
  8  9  2  0
  9 10  1  0
 10 11  1  0
 11 12  1  0
 12 13  1  0
 13 14  1  0
 14 15  1  0
 15 16  1  0
  9 17  1  0
 17 18  2  0
 18 19  1  0
 19 20  1  0
 20 21  2  0
 20 22  1  0
 19  4  1  0
 18  6  1  0
 16 10  1  0
  1 23  1  0
  1 24  1  0
  5 25  1  0
  7 26  1  0
  8 27  1  0
 11 28  1  0
 11 29  1  0
 12 30  1  0
 12 31  1  0
 13 32  1  0
 13 33  1  0
 15 34  1  0
 15 35  1  0
 16 36  1  0
 16 37  1  0
 17 38  1  0
M  CHG  1  22  -1
M  END
>  <UniqueID>  (4) 
4

>  <SMILES>  (4) 
NC(=O)c1cc2ccc(N3CCCOCC3)cc2n1C(=O)[O-]

>  <Energy>  (4) 
97.22396642107171

>  <Genealogy>  (4) 
NC(=O)c1cc2ccc(N3CCCOCC3)cc2n1C(=O)[O-] (protonated)
NC(=O)c1cc2ccc(N3CCCOCC3)cc2n1C(=O)[O-] (3D coordinates assigned)
NC(=O)c1cc2ccc(N3CCCOCC3)cc2n1C(=O)[O-] (nonaromatic ring conformer: 97.22396642107171 kcal/mol)

>  <smiles>  (4) 
NC(=O)c1cc2ccc(N3CCCOCC3)cc2n1C(=O)O

>  <score_type>  (4) 
oracle

>  <origin>  (4) 
adg

>  <m_score__min__energy>  (4) 
-5.1399999999999997

>  <m_primary>  (4) 
energy

$$$$
4:0
     RDKit          3D

 41 42  0  0  0  0  0  0  0  0999 V2000
  138.3870  159.3440  131.1990 C   0  0  0  0  0  0  0  0  0  0  0  0
  139.3060  158.2880  131.4530 O   0  0  0  0  0  0  0  0  0  0  0  0
  139.2970  157.5480  132.6390 C   0  0  0  0  0  0  0  0  0  0  0  0
  139.4750  156.3000  132.6200 O   0  0  0  0  0  0  0  0  0  0  0  0
  139.1060  158.2500  133.9510 C   0  0  0  0  0  0  0  0  0  0  0  0
  139.5360  157.4190  135.0260 O   0  0  0  0  0  0  0  0  0  0  0  0
  140.7810  157.5580  135.6440 C   0  0  0  0  0  0  0  0  0  0  0  0
  140.9420  158.3780  136.5870 O   0  0  0  0  0  0  0  0  0  0  0  0
  141.9420  156.7690  135.1380 C   0  0  0  0  0  0  0  0  0  0  0  0
  142.9130  157.6950  134.4580 C   0  0  0  0  0  0  0  0  0  0  0  0
  142.4970  158.9780  134.0230 C   0  0  0  0  0  0  0  0  0  0  0  0
  143.4140  159.8640  133.4350 C   0  0  0  0  0  0  0  0  0  0  0  0
  144.7370  159.4500  133.3130 C   0  0  0  0  0  0  0  0  0  0  0  0
  145.8280  160.1090  132.7950 C   0  0  0  0  0  0  0  0  0  0  0  0
  146.9000  159.2370  132.9650 C   0  0  0  0  0  0  0  0  0  0  0  0
  148.2930  159.5860  132.6210 C   0  0  0  0  0  0  0  0  0  0  0  0
  149.3880  158.7750  133.0500 N   0  0  0  0  0  0  0  0  0  0  0  0
  148.5240  160.6480  131.9850 O   0  0  0  0  0  0  0  0  0  0  0  0
  146.4860  158.0770  133.5470 N   0  0  0  0  0  0  0  0  0  0  0  0
  147.2700  156.9110  133.8320 C   0  0  0  0  0  0  0  0  0  0  0  0
  148.1150  156.9340  134.7700 O   0  0  0  0  0  0  0  0  0  0  0  0
  147.0940  155.7540  133.0670 O   0  0  0  0  0  0  0  0  0  0  0  0
  147.6030  154.4820  133.4490 C   0  0  0  0  0  0  0  0  0  0  0  0
  149.1150  154.1350  132.5680 Cl  0  0  0  0  0  0  0  0  0  0  0  0
  145.1600  158.2230  133.7540 C   0  0  0  0  0  0  0  0  0  0  0  0
  144.2620  157.3080  134.3130 C   0  0  0  0  0  0  0  0  0  0  0  0
  138.0286  159.7558  132.1540 H   0  0  0  0  0  0  0  0  0  0  0  0
  138.8884  160.1359  130.6233 H   0  0  0  0  0  0  0  0  0  0  0  0
  137.5334  158.9567  130.6233 H   0  0  0  0  0  0  0  0  0  0  0  0
  139.6941  159.1796  133.9537 H   0  0  0  0  0  0  0  0  0  0  0  0
  138.0379  158.4783  134.0815 H   0  0  0  0  0  0  0  0  0  0  0  0
  142.4408  156.2675  135.9805 H   0  0  0  0  0  0  0  0  0  0  0  0
  141.5896  156.0129  134.4210 H   0  0  0  0  0  0  0  0  0  0  0  0
  141.4472  159.2822  134.1470 H   0  0  0  0  0  0  0  0  0  0  0  0
  143.0961  160.8559  133.0813 H   0  0  0  0  0  0  0  0  0  0  0  0
  145.8489  161.1115  132.3428 H   0  0  0  0  0  0  0  0  0  0  0  0
  150.3590  159.0050  132.7460 H   0  0  0  0  0  0  0  0  0  0  0  0
  149.2500  158.0000  133.7340 H   0  0  0  0  0  0  0  0  0  0  0  0
  147.8039  154.4807  134.5305 H   0  0  0  0  0  0  0  0  0  0  0  0
  146.8593  153.7092  133.2048 H   0  0  0  0  0  0  0  0  0  0  0  0
  144.5993  156.3107  134.6319 H   0  0  0  0  0  0  0  0  0  0  0  0
  1  2  1  0
  2  3  1  0
  3  4  2  0
  3  5  1  0
  5  6  1  0
  6  7  1  0
  7  8  2  0
  7  9  1  0
  9 10  1  0
 10 11  2  0
 11 12  1  0
 12 13  2  0
 13 14  1  0
 14 15  2  0
 15 16  1  0
 16 17  1  0
 16 18  2  0
 15 19  1  0
 19 20  1  0
 20 21  2  0
 20 22  1  0
 22 23  1  0
 23 24  1  0
 19 25  1  0
 25 26  2  0
 26 10  1  0
 25 13  1  0
  1 27  1  0
  1 28  1  0
  1 29  1  0
  5 30  1  0
  5 31  1  0
  9 32  1  0
  9 33  1  0
 11 34  1  0
 12 35  1  0
 14 36  1  0
 17 37  1  0
 17 38  1  0
 23 39  1  0
 23 40  1  0
 26 41  1  0
M  END
>  <UniqueID>  (5) 
5

>  <SMILES>  (5) 
COC(=O)COC(=O)Cc1ccc2cc(C(N)=O)n(C(=O)OCCl)c2c1

>  <Energy>  (5) 
69.72954333617386

>  <Genealogy>  (5) 
COC(=O)COC(=O)Cc1ccc2cc(C(N)=O)n(C(=O)OCCl)c2c1 (3D coordinates assigned)
COC(=O)COC(=O)Cc1ccc2cc(C(N)=O)n(C(=O)OCCl)c2c1 (optimized conformer: 69.72954333617386 kcal/mol)

>  <smiles>  (5) 
COC(=O)COC(=O)Cc1ccc2cc(C(N)=O)n(C(=O)OCCl)c2c1

>  <score_type>  (5) 
oracle

>  <origin>  (5) 
adg

>  <m_score__min__energy>  (5) 
-6.2800000000000002

>  <m_primary>  (5) 
energy

$$$$
5:0
     RDKit          3D

 44 46  0  0  0  0  0  0  0  0999 V2000
  149.2500  154.4120  132.6010 C   0  0  0  0  0  0  0  0  0  0  0  0
  147.8220  154.6640  133.0780 C   0  0  0  0  0  0  0  0  0  0  0  0
  147.7240  154.4750  134.5950 C   0  0  0  0  0  0  0  0  0  0  0  0
  147.4460  155.9940  132.7250 O   0  0  0  0  0  0  0  0  0  0  0  0
  146.2090  156.5640  133.0470 C   0  0  0  0  0  0  0  0  0  0  0  0
  145.1910  155.8340  133.1990 O   0  0  0  0  0  0  0  0  0  0  0  0
  146.1010  157.9880  133.2080 N   0  0  0  0  0  0  0  0  0  0  0  0
  147.0500  158.9300  132.9440 C   0  0  0  0  0  0  0  0  0  0  0  0
  148.4560  158.6640  132.5830 C   0  0  0  0  0  0  0  0  0  0  0  0
  148.7910  157.7890  131.5040 N   0  0  0  0  0  0  0  0  0  0  0  0
  149.3790  159.1740  133.2720 O   0  0  0  0  0  0  0  0  0  0  0  0
  146.5270  160.2100  133.1040 C   0  0  0  0  0  0  0  0  0  0  0  0
  145.2210  160.0230  133.4910 C   0  0  0  0  0  0  0  0  0  0  0  0
  144.2300  160.9570  133.7730 C   0  0  0  0  0  0  0  0  0  0  0  0
  142.9520  160.4820  134.1100 C   0  0  0  0  0  0  0  0  0  0  0  0
  142.6760  159.0880  134.1510 C   0  0  0  0  0  0  0  0  0  0  0  0
  141.3520  158.6090  134.4870 N   0  0  0  0  0  0  0  0  0  0  0  0
  140.4160  158.0580  133.5170 C   0  0  0  0  0  0  0  0  0  0  0  0
  139.1120  157.8430  134.2710 C   0  0  0  0  0  0  0  0  0  0  0  0
  139.4790  157.8680  135.7500 C   0  0  0  0  0  0  0  0  0  0  0  0
  140.8020  158.6180  135.8350 C   0  0  0  0  0  0  0  0  0  0  0  0
  143.7160  158.1730  133.8540 C   0  0  0  0  0  0  0  0  0  0  0  0
  144.9860  158.6740  133.5450 C   0  0  0  0  0  0  0  0  0  0  0  0
  149.9121  154.2952  133.4716 H   0  0  0  0  0  0  0  0  0  0  0  0
  149.2774  153.4952  131.9938 H   0  0  0  0  0  0  0  0  0  0  0  0
  149.5895  155.2641  131.9938 H   0  0  0  0  0  0  0  0  0  0  0  0
  147.1428  153.9446  132.5972 H   0  0  0  0  0  0  0  0  0  0  0  0
  148.1733  155.3415  135.1022 H   0  0  0  0  0  0  0  0  0  0  0  0
  146.6668  154.3874  134.8860 H   0  0  0  0  0  0  0  0  0  0  0  0
  148.2615  153.5604  134.8860 H   0  0  0  0  0  0  0  0  0  0  0  0
  149.7900  157.6450  131.2370 H   0  0  0  0  0  0  0  0  0  0  0  0
  148.0600  157.2160  131.0270 H   0  0  0  0  0  0  0  0  0  0  0  0
  147.0476  161.1672  132.9530 H   0  0  0  0  0  0  0  0  0  0  0  0
  144.4408  162.0359  133.7333 H   0  0  0  0  0  0  0  0  0  0  0  0
  142.1523  161.1996  134.3458 H   0  0  0  0  0  0  0  0  0  0  0  0
  140.2659  158.7637  132.6866 H   0  0  0  0  0  0  0  0  0  0  0  0
  140.7906  157.1195  133.0825 H   0  0  0  0  0  0  0  0  0  0  0  0
  138.3985  158.6476  134.0397 H   0  0  0  0  0  0  0  0  0  0  0  0
  138.6326  156.8941  133.9886 H   0  0  0  0  0  0  0  0  0  0  0  0
  138.7037  158.3916  136.3285 H   0  0  0  0  0  0  0  0  0  0  0  0
  139.5612  156.8525  136.1646 H   0  0  0  0  0  0  0  0  0  0  0  0
  140.6352  159.6512  136.1735 H   0  0  0  0  0  0  0  0  0  0  0  0
  141.4880  158.1474  136.5547 H   0  0  0  0  0  0  0  0  0  0  0  0
  143.5290  157.0891  133.8660 H   0  0  0  0  0  0  0  0  0  0  0  0
  1  2  1  0
  2  3  1  0
  2  4  1  0
  4  5  1  0
  5  6  2  0
  5  7  1  0
  7  8  1  0
  8  9  1  0
  9 10  1  0
  9 11  2  0
  8 12  2  0
 12 13  1  0
 13 14  2  0
 14 15  1  0
 15 16  2  0
 16 17  1  0
 17 18  1  0
 18 19  1  0
 19 20  1  0
 20 21  1  0
 16 22  1  0
 22 23  2  0
 23  7  1  0
 23 13  1  0
 21 17  1  0
  1 24  1  0
  1 25  1  0
  1 26  1  0
  2 27  1  0
  3 28  1  0
  3 29  1  0
  3 30  1  0
 10 31  1  0
 10 32  1  0
 12 33  1  0
 14 34  1  0
 15 35  1  0
 18 36  1  0
 18 37  1  0
 19 38  1  0
 19 39  1  0
 20 40  1  0
 20 41  1  0
 21 42  1  0
 21 43  1  0
 22 44  1  0
M  END
>  <UniqueID>  (6) 
6

>  <SMILES>  (6) 
CC(C)OC(=O)n1c(C(N)=O)cc2ccc(N3CCCC3)cc21

>  <Energy>  (6) 
78.85027085038162

>  <Genealogy>  (6) 
CC(C)OC(=O)n1c(C(N)=O)cc2ccc(N3CCCC3)cc21 (3D coordinates assigned)
CC(C)OC(=O)n1c(C(N)=O)cc2ccc(N3CCCC3)cc21 (nonaromatic ring conformer: 78.85027085038162 kcal/mol)

>  <smiles>  (6) 
CC(C)OC(=O)n1c(C(N)=O)cc2ccc(N3CCCC3)cc21

>  <score_type>  (6) 
oracle

>  <origin>  (6) 
adg

>  <m_score__min__energy>  (6) 
-7.6500000000000004

>  <m_primary>  (6) 
energy

$$$$
6:0
     RDKit          3D

 45 46  0  0  0  0  0  0  0  0999 V2000
  150.2110  150.5960  131.5810 C   0  0  0  0  0  0  0  0  0  0  0  0
  149.8910  151.2950  132.6740 C   0  0  0  0  0  0  0  0  0  0  0  0
  149.5880  152.7690  132.6050 C   0  0  0  0  0  0  0  0  0  0  0  0
  148.8860  153.1990  133.7710 O   0  0  0  0  0  0  0  0  0  0  0  0
  148.0970  154.3550  133.8070 C   0  0  0  0  0  0  0  0  0  0  0  0
  147.7510  154.8690  134.9090 O   0  0  0  0  0  0  0  0  0  0  0  0
  147.6990  155.0070  132.5230 C   0  0  0  0  0  0  0  0  0  0  0  0
  147.5710  156.4900  132.7310 C   0  0  0  0  0  0  0  0  0  0  0  0
  148.7240  157.3150  132.7430 C   0  0  0  0  0  0  0  0  0  0  0  0
  148.6160  158.6940  132.9970 C   0  0  0  0  0  0  0  0  0  0  0  0
  147.3470  159.2150  133.2400 C   0  0  0  0  0  0  0  0  0  0  0  0
  146.9620  160.4980  133.5570 C   0  0  0  0  0  0  0  0  0  0  0  0
  145.5800  160.4360  133.7300 C   0  0  0  0  0  0  0  0  0  0  0  0
  144.7380  161.6170  134.0110 C   0  0  0  0  0  0  0  0  0  0  0  0
  143.3390  161.6010  133.7350 N   0  0  0  0  0  0  0  0  0  0  0  0
  145.2690  162.6730  134.4520 O   0  0  0  0  0  0  0  0  0  0  0  0
  145.1290  159.1650  133.5340 N   0  0  0  0  0  0  0  0  0  0  0  0
  143.8030  158.6610  133.7530 C   0  0  0  0  0  0  0  0  0  0  0  0
  143.2270  158.8650  134.8580 O   0  0  0  0  0  0  0  0  0  0  0  0
  143.1410  157.9830  132.7220 O   0  0  0  0  0  0  0  0  0  0  0  0
  141.7840  157.5420  132.8050 C   0  0  0  0  0  0  0  0  0  0  0  0
  140.8020  158.6740  132.4430 C   0  0  1  0  0  0  0  0  0  0  0  0
  139.3410  158.3150  132.7470 C   0  0  0  0  0  0  0  0  0  0  0  0
  141.1600  159.8740  133.0810 O   0  0  0  0  0  0  0  0  0  0  0  0
  146.2220  158.4300  133.2300 C   0  0  0  0  0  0  0  0  0  0  0  0
  146.3020  157.0530  132.9940 C   0  0  0  0  0  0  0  0  0  0  0  0
  150.4276  149.5204  131.6599 H   0  0  0  0  0  0  0  0  0  0  0  0
  150.2578  151.0962  130.6024 H   0  0  0  0  0  0  0  0  0  0  0  0
  149.8479  150.7824  133.6463 H   0  0  0  0  0  0  0  0  0  0  0  0
  150.5323  153.3277  132.5264 H   0  0  0  0  0  0  0  0  0  0  0  0
  148.9562  152.9574  131.7245 H   0  0  0  0  0  0  0  0  0  0  0  0
  148.4649  154.8090  131.7587 H   0  0  0  0  0  0  0  0  0  0  0  0
  146.7332  154.5995  132.1895 H   0  0  0  0  0  0  0  0  0  0  0  0
  149.7126  156.8722  132.5518 H   0  0  0  0  0  0  0  0  0  0  0  0
  149.5056  159.3410  133.0036 H   0  0  0  0  0  0  0  0  0  0  0  0
  147.6073  161.3836  133.6533 H   0  0  0  0  0  0  0  0  0  0  0  0
  142.7450  160.7870  134.0090 H   0  0  0  0  0  0  0  0  0  0  0  0
  141.6367  156.7038  132.1080 H   0  0  0  0  0  0  0  0  0  0  0  0
  141.5845  157.2282  133.8402 H   0  0  0  0  0  0  0  0  0  0  0  0
  140.8759  158.8143  131.3545 H   0  0  0  0  0  0  0  0  0  0  0  0
  139.1915  158.2783  133.8362 H   0  0  0  0  0  0  0  0  0  0  0  0
  138.6779  159.0769  132.3113 H   0  0  0  0  0  0  0  0  0  0  0  0
  139.1066  157.3325  132.3113 H   0  0  0  0  0  0  0  0  0  0  0  0
  142.1390  159.8500  133.2460 H   0  0  0  0  0  0  0  0  0  0  0  0
  145.3994  156.4245  133.0128 H   0  0  0  0  0  0  0  0  0  0  0  0
  1  2  2  0
  2  3  1  0
  3  4  1  0
  4  5  1  0
  5  6  2  0
  5  7  1  0
  7  8  1  0
  8  9  2  0
  9 10  1  0
 10 11  2  0
 11 12  1  0
 12 13  2  0
 13 14  1  0
 14 15  1  0
 14 16  2  0
 13 17  1  0
 17 18  1  0
 18 19  2  0
 18 20  1  0
 20 21  1  0
 21 22  1  0
 22 23  1  0
 22 24  1  0
 17 25  1  0
 25 26  2  0
 26  8  1  0
 25 11  1  0
  1 27  1  0
  1 28  1  0
  2 29  1  0
  3 30  1  0
  3 31  1  0
  7 32  1  0
  7 33  1  0
  9 34  1  0
 10 35  1  0
 12 36  1  0
 15 37  1  0
 21 38  1  0
 21 39  1  0
 22 40  1  6
 23 41  1  0
 23 42  1  0
 23 43  1  0
 24 44  1  0
 26 45  1  0
M  CHG  1  15  -1
M  END
>  <UniqueID>  (7) 
7

>  <SMILES>  (7) 
C=CCOC(=O)Cc1ccc2cc(C([NH-])=O)n(C(=O)OC[C@@H](C)O)c2c1

>  <Energy>  (7) 
72.9984030066135

>  <Genealogy>  (7) 
C=CCOC(=O)Cc1ccc2cc(C([NH-])=O)n(C(=O)OCC(C)O)c2c1 (protonated)
C=CCOC(=O)Cc1ccc2cc(C([NH-])=O)n(C(=O)OC[C@@H](C)O)c2c1 (chirality)
C=CCOC(=O)Cc1ccc2cc(C([NH-])=O)n(C(=O)OC[C@@H](C)O)c2c1 (3D coordinates assigned)
C=CCOC(=O)Cc1ccc2cc(C([NH-])=O)n(C(=O)OC[C@@H](C)O)c2c1 (optimized conformer: 72.9984030066135 kcal/mol)

>  <smiles>  (7) 
C=CCOC(=O)Cc1ccc2cc(C(N)=O)n(C(=O)OCC(C)O)c2c1

>  <score_type>  (7) 
oracle

>  <origin>  (7) 
adg

>  <m_score__min__energy>  (7) 
-6.3200000000000003

>  <m_primary>  (7) 
energy

$$$$
7:0
     RDKit          3D

 33 34  0  0  0  0  0  0  0  0999 V2000
  148.5120  157.9170  133.7920 N   0  0  0  0  0  0  0  0  0  0  0  0
  147.8470  159.1300  133.4340 C   0  0  0  0  0  0  0  0  0  0  0  0
  148.5170  160.0860  132.9610 O   0  0  0  0  0  0  0  0  0  0  0  0
  146.3810  159.2590  133.5470 C   0  0  0  0  0  0  0  0  0  0  0  0
  145.7220  160.4830  133.6190 C   0  0  0  0  0  0  0  0  0  0  0  0
  144.3820  160.1720  133.6490 C   0  0  0  0  0  0  0  0  0  0  0  0
  143.2750  161.0070  133.7450 C   0  0  0  0  0  0  0  0  0  0  0  0
  142.0030  160.4130  133.8030 C   0  0  0  0  0  0  0  0  0  0  0  0
  141.8590  159.0020  133.7570 C   0  0  0  0  0  0  0  0  0  0  0  0
  140.4940  158.3740  133.8870 C   0  0  0  0  0  0  0  0  0  0  0  0
  140.0490  158.5190  135.1880 F   0  0  0  0  0  0  0  0  0  0  0  0
  140.5440  157.0270  133.5740 F   0  0  0  0  0  0  0  0  0  0  0  0
  139.5930  158.9840  133.0310 F   0  0  0  0  0  0  0  0  0  0  0  0
  143.0120  158.1860  133.6850 C   0  0  0  0  0  0  0  0  0  0  0  0
  144.2660  158.8060  133.6050 C   0  0  0  0  0  0  0  0  0  0  0  0
  145.4870  158.2290  133.5460 N   0  0  0  0  0  0  0  0  0  0  0  0
  145.7750  156.8220  133.5950 C   0  0  0  0  0  0  0  0  0  0  0  0
  145.2710  156.1090  134.5050 O   0  0  0  0  0  0  0  0  0  0  0  0
  146.6030  156.2470  132.6230 O   0  0  0  0  0  0  0  0  0  0  0  0
  146.9970  154.8770  132.6270 C   0  0  0  0  0  0  0  0  0  0  0  0
  148.5040  154.7410  132.8520 C   0  0  0  0  0  0  0  0  0  0  0  0
  149.1660  155.9400  132.5580 O   0  0  0  0  0  0  0  0  0  0  0  0
  147.9730  157.0540  134.0160 H   0  0  0  0  0  0  0  0  0  0  0  0
  149.5540  157.8590  133.7470 H   0  0  0  0  0  0  0  0  0  0  0  0
  146.1756  161.4848  133.6461 H   0  0  0  0  0  0  0  0  0  0  0  0
  143.3913  162.1004  133.7747 H   0  0  0  0  0  0  0  0  0  0  0  0
  141.1090  161.0487  133.8849 H   0  0  0  0  0  0  0  0  0  0  0  0
  142.9262  157.0894  133.6917 H   0  0  0  0  0  0  0  0  0  0  0  0
  146.4640  154.3517  133.4332 H   0  0  0  0  0  0  0  0  0  0  0  0
  146.7473  154.4375  131.6500 H   0  0  0  0  0  0  0  0  0  0  0  0
  148.6882  154.4770  133.9038 H   0  0  0  0  0  0  0  0  0  0  0  0
  148.8884  153.9558  132.1844 H   0  0  0  0  0  0  0  0  0  0  0  0
  148.6310  156.3960  131.8570 H   0  0  0  0  0  0  0  0  0  0  0  0
  1  2  1  0
  2  3  2  0
  2  4  1  0
  4  5  2  0
  5  6  1  0
  6  7  2  0
  7  8  1  0
  8  9  2  0
  9 10  1  0
 10 11  1  0
 10 12  1  0
 10 13  1  0
  9 14  1  0
 14 15  2  0
 15 16  1  0
 16 17  1  0
 17 18  2  0
 17 19  1  0
 19 20  1  0
 20 21  1  0
 21 22  1  0
 16  4  1  0
 15  6  1  0
  1 23  1  0
  1 24  1  0
  5 25  1  0
  7 26  1  0
  8 27  1  0
 14 28  1  0
 20 29  1  0
 20 30  1  0
 21 31  1  0
 21 32  1  0
 22 33  1  0
M  END
>  <UniqueID>  (8) 
8

>  <SMILES>  (8) 
NC(=O)c1cc2ccc(C(F)(F)F)cc2n1C(=O)OCCO

>  <Energy>  (8) 
70.09321443501123

>  <Genealogy>  (8) 
NC(=O)c1cc2ccc(C(F)(F)F)cc2n1C(=O)OCCO (3D coordinates assigned)
NC(=O)c1cc2ccc(C(F)(F)F)cc2n1C(=O)OCCO (optimized conformer: 70.09321443501123 kcal/mol)

>  <smiles>  (8) 
NC(=O)c1cc2ccc(C(F)(F)F)cc2n1C(=O)OCCO

>  <score_type>  (8) 
oracle

>  <origin>  (8) 
adg

>  <m_score__min__energy>  (8) 
-5.7300000000000004

>  <m_primary>  (8) 
energy

$$$$
8:0
     RDKit          3D

 38 39  0  0  0  0  0  0  0  0999 V2000
  143.3340  161.7720  133.7270 N   0  0  0  0  0  0  0  0  0  0  0  0
  144.7320  161.6800  133.9930 C   0  0  0  0  0  0  0  0  0  0  0  0
  145.3230  162.6550  134.5280 O   0  0  0  0  0  0  0  0  0  0  0  0
  145.4800  160.4380  133.7040 C   0  0  0  0  0  0  0  0  0  0  0  0
  146.8450  160.4140  133.4280 C   0  0  0  0  0  0  0  0  0  0  0  0
  147.1690  159.0820  133.3060 C   0  0  0  0  0  0  0  0  0  0  0  0
  148.3900  158.4810  133.0140 C   0  0  0  0  0  0  0  0  0  0  0  0
  148.4270  157.0810  132.9110 C   0  0  0  0  0  0  0  0  0  0  0  0
  147.2520  156.3120  133.1040 C   0  0  0  0  0  0  0  0  0  0  0  0
  147.2940  154.8160  132.9410 C   0  0  0  0  0  0  0  0  0  0  0  0
  147.9980  154.1650  134.1390 C   0  0  0  0  0  0  0  0  0  0  0  0
  147.7000  154.8940  135.4550 C   0  0  0  0  0  0  0  0  0  0  0  0
  147.7960  153.9730  136.6320 C   0  0  0  0  0  0  0  0  0  0  0  0
  146.9750  153.0290  136.7670 O   0  0  0  0  0  0  0  0  0  0  0  0
  148.8120  154.1400  137.5650 O   0  0  0  0  0  0  0  0  0  0  0  0
  146.0270  156.9570  133.3860 C   0  0  0  0  0  0  0  0  0  0  0  0
  146.0240  158.3530  133.5010 C   0  0  0  0  0  0  0  0  0  0  0  0
  144.9760  159.1730  133.7420 N   0  0  0  0  0  0  0  0  0  0  0  0
  143.6040  158.7800  133.8980 C   0  0  0  0  0  0  0  0  0  0  0  0
  142.7720  159.0190  132.9810 O   0  0  0  0  0  0  0  0  0  0  0  0
  143.1910  158.1540  135.0780 O   0  0  0  0  0  0  0  0  0  0  0  0
  141.8810  157.6290  135.2530 C   0  0  0  0  0  0  0  0  0  0  0  0
  140.9370  158.7510  135.5320 C   0  0  0  0  0  0  0  0  0  0  0  0
  139.7420  158.5090  135.8450 O   0  0  0  0  0  0  0  0  0  0  0  0
  141.3610  160.0660  135.3900 O   0  0  0  0  0  0  0  0  0  0  0  0
  142.6960  160.9690  133.9240 H   0  0  0  0  0  0  0  0  0  0  0  0
  147.5205  161.2764  133.3286 H   0  0  0  0  0  0  0  0  0  0  0  0
  149.2982  159.0843  132.8684 H   0  0  0  0  0  0  0  0  0  0  0  0
  149.3764  156.5765  132.6784 H   0  0  0  0  0  0  0  0  0  0  0  0
  146.2662  154.4303  132.8716 H   0  0  0  0  0  0  0  0  0  0  0  0
  147.8525  154.5732  132.0249 H   0  0  0  0  0  0  0  0  0  0  0  0
  147.6567  153.1230  134.2266 H   0  0  0  0  0  0  0  0  0  0  0  0
  149.0824  154.2187  133.9623 H   0  0  0  0  0  0  0  0  0  0  0  0
  148.4250  155.7115  135.5819 H   0  0  0  0  0  0  0  0  0  0  0  0
  146.6722  155.2829  135.4066 H   0  0  0  0  0  0  0  0  0  0  0  0
  145.1001  156.3782  133.5119 H   0  0  0  0  0  0  0  0  0  0  0  0
  141.5693  157.1046  134.3377 H   0  0  0  0  0  0  0  0  0  0  0  0
  141.8752  156.9222  136.0959 H   0  0  0  0  0  0  0  0  0  0  0  0
  1  2  1  0
  2  3  2  0
  2  4  1  0
  4  5  2  0
  5  6  1  0
  6  7  2  0
  7  8  1  0
  8  9  2  0
  9 10  1  0
 10 11  1  0
 11 12  1  0
 12 13  1  0
 13 14  2  0
 13 15  1  0
  9 16  1  0
 16 17  2  0
 17 18  1  0
 18 19  1  0
 19 20  2  0
 19 21  1  0
 21 22  1  0
 22 23  1  0
 23 24  2  0
 23 25  1  0
 18  4  1  0
 17  6  1  0
  1 26  1  0
  5 27  1  0
  7 28  1  0
  8 29  1  0
 10 30  1  0
 10 31  1  0
 11 32  1  0
 11 33  1  0
 12 34  1  0
 12 35  1  0
 16 36  1  0
 22 37  1  0
 22 38  1  0
M  CHG  3   1  -1  15  -1  25  -1
M  END
>  <UniqueID>  (9) 
9

>  <SMILES>  (9) 
[NH-]C(=O)c1cc2ccc(CCCC(=O)[O-])cc2n1C(=O)OCC(=O)[O-]

>  <Energy>  (9) 
68.7670538713189

>  <Genealogy>  (9) 
[NH-]C(=O)c1cc2ccc(CCCC(=O)[O-])cc2n1C(=O)OCC(=O)[O-] (protonated)
[NH-]C(=O)c1cc2ccc(CCCC(=O)[O-])cc2n1C(=O)OCC(=O)[O-] (3D coordinates assigned)
[NH-]C(=O)c1cc2ccc(CCCC(=O)[O-])cc2n1C(=O)OCC(=O)[O-] (optimized conformer: 68.7670538713189 kcal/mol)

>  <smiles>  (9) 
NC(=O)c1cc2ccc(CCCC(=O)O)cc2n1C(=O)OCC(=O)O

>  <score_type>  (9) 
oracle

>  <origin>  (9) 
adg

>  <m_score__min__energy>  (9) 
-6.9699999999999998

>  <m_primary>  (9) 
energy

$$$$
9:0
     RDKit          3D

 48 49  0  0  0  0  0  0  0  0999 V2000
  143.2570  155.2180  133.8860 C   0  0  0  0  0  0  0  0  0  0  0  0
  143.8910  155.5220  135.2490 C   0  0  2  0  0  0  0  0  0  0  0  0
  145.2990  155.1080  135.2470 N   0  0  0  0  0  0  0  0  0  0  0  0
  146.3370  155.7210  134.4560 C   0  0  0  0  0  0  0  0  0  0  0  0
  147.4410  154.9300  134.0470 C   0  0  0  0  0  0  0  0  0  0  0  0
  148.4840  155.4820  133.2860 C   0  0  0  0  0  0  0  0  0  0  0  0
  148.3950  156.8240  132.9360 C   0  0  0  0  0  0  0  0  0  0  0  0
  149.2700  157.6110  132.2220 C   0  0  0  0  0  0  0  0  0  0  0  0
  148.6790  158.8730  132.1750 C   0  0  0  0  0  0  0  0  0  0  0  0
  149.2340  160.0170  131.4200 C   0  0  0  0  0  0  0  0  0  0  0  0
  148.5010  161.2380  131.2990 N   0  0  0  0  0  0  0  0  0  0  0  0
  150.3780  159.9360  130.8980 O   0  0  0  0  0  0  0  0  0  0  0  0
  147.4880  158.8650  132.8390 N   0  0  0  0  0  0  0  0  0  0  0  0
  146.5990  159.9720  133.0600 C   0  0  0  0  0  0  0  0  0  0  0  0
  146.9950  160.9750  133.7160 O   0  0  0  0  0  0  0  0  0  0  0  0
  145.2930  159.9240  132.5620 O   0  0  0  0  0  0  0  0  0  0  0  0
  144.1520  159.6340  133.3680 C   0  0  0  0  0  0  0  0  0  0  0  0
  143.7740  160.8360  134.2290 C   0  0  0  0  0  0  0  0  0  0  0  0
  144.3520  161.9970  133.7000 O   0  0  0  0  0  0  0  0  0  0  0  0
  147.3300  157.6040  133.2990 C   0  0  0  0  0  0  0  0  0  0  0  0
  146.2860  157.0870  134.0770 C   0  0  0  0  0  0  0  0  0  0  0  0
  143.1570  154.8280  136.3800 C   0  0  0  0  0  0  0  0  0  0  0  0
  143.6510  153.7790  136.8830 O   0  0  0  0  0  0  0  0  0  0  0  0
  141.9430  155.3760  136.9430 N   0  0  0  0  0  0  0  0  0  0  0  0
  141.2730  154.6530  138.0280 C   0  0  0  0  0  0  0  0  0  0  0  0
  141.3910  156.6480  136.4620 C   0  0  0  0  0  0  0  0  0  0  0  0
  142.2743  154.7468  134.0356 H   0  0  0  0  0  0  0  0  0  0  0  0
  143.1326  156.1544  133.3224 H   0  0  0  0  0  0  0  0  0  0  0  0
  143.9093  154.5347  133.3224 H   0  0  0  0  0  0  0  0  0  0  0  0
  143.8193  156.6069  135.4158 H   0  0  0  0  0  0  0  0  0  0  0  0
  145.5640  154.2890  135.8410 H   0  0  0  0  0  0  0  0  0  0  0  0
  147.4807  153.8678  134.3303 H   0  0  0  0  0  0  0  0  0  0  0  0
  149.3448  154.8711  132.9765 H   0  0  0  0  0  0  0  0  0  0  0  0
  150.2316  157.3084  131.7818 H   0  0  0  0  0  0  0  0  0  0  0  0
  147.5290  161.3260  131.6690 H   0  0  0  0  0  0  0  0  0  0  0  0
  148.9190  162.0520  130.7960 H   0  0  0  0  0  0  0  0  0  0  0  0
  143.3049  159.3785  132.7144 H   0  0  0  0  0  0  0  0  0  0  0  0
  144.3947  158.7897  134.0301 H   0  0  0  0  0  0  0  0  0  0  0  0
  142.6796  160.9461  134.2427 H   0  0  0  0  0  0  0  0  0  0  0  0
  144.1428  160.6802  135.2536 H   0  0  0  0  0  0  0  0  0  0  0  0
  145.0540  161.6910  133.0690 H   0  0  0  0  0  0  0  0  0  0  0  0
  145.4458  157.7258  134.3869 H   0  0  0  0  0  0  0  0  0  0  0  0
  141.6272  155.0352  138.9968 H   0  0  0  0  0  0  0  0  0  0  0  0
  140.1858  154.8011  137.9507 H   0  0  0  0  0  0  0  0  0  0  0  0
  141.5033  153.5802  137.9507 H   0  0  0  0  0  0  0  0  0  0  0  0
  141.1178  157.2776  137.3217 H   0  0  0  0  0  0  0  0  0  0  0  0
  142.1447  157.1674  135.8519 H   0  0  0  0  0  0  0  0  0  0  0  0
  140.4968  156.4523  135.8519 H   0  0  0  0  0  0  0  0  0  0  0  0
  1  2  1  0
  2  3  1  0
  3  4  1  0
  4  5  2  0
  5  6  1  0
  6  7  2  0
  7  8  1  0
  8  9  2  0
  9 10  1  0
 10 11  1  0
 10 12  2  0
  9 13  1  0
 13 14  1  0
 14 15  2  0
 14 16  1  0
 16 17  1  0
 17 18  1  0
 18 19  1  0
 13 20  1  0
 20 21  2  0
  2 22  1  0
 22 23  2  0
 22 24  1  0
 24 25  1  0
 24 26  1  0
 21  4  1  0
 20  7  1  0
  1 27  1  0
  1 28  1  0
  1 29  1  0
  2 30  1  1
  3 31  1  0
  5 32  1  0
  6 33  1  0
  8 34  1  0
 11 35  1  0
 11 36  1  0
 17 37  1  0
 17 38  1  0
 18 39  1  0
 18 40  1  0
 19 41  1  0
 21 42  1  0
 25 43  1  0
 25 44  1  0
 25 45  1  0
 26 46  1  0
 26 47  1  0
 26 48  1  0
M  END
>  <UniqueID>  (10) 
10

>  <SMILES>  (10) 
C[C@H](Nc1ccc2cc(C(N)=O)n(C(=O)OCCO)c2c1)C(=O)N(C)C

>  <Energy>  (10) 
78.53685983873865

>  <Genealogy>  (10) 
C[C@H](Nc1ccc2cc(C(N)=O)n(C(=O)OCCO)c2c1)C(=O)N(C)C (chirality)
C[C@H](Nc1ccc2cc(C(N)=O)n(C(=O)OCCO)c2c1)C(=O)N(C)C (3D coordinates assigned)
C[C@H](Nc1ccc2cc(C(N)=O)n(C(=O)OCCO)c2c1)C(=O)N(C)C (optimized conformer: 78.53685983873865 kcal/mol)

>  <smiles>  (10) 
CC(Nc1ccc2cc(C(N)=O)n(C(=O)OCCO)c2c1)C(=O)N(C)C

>  <score_type>  (10) 
oracle

>  <origin>  (10) 
adg

>  <m_score__min__energy>  (10) 
-6.8200000000000003

>  <m_primary>  (10) 
energy

$$$$
10:0
     RDKit          3D

 47 48  0  0  0  0  0  0  0  0999 V2000
  138.6960  160.6900  130.6620 C   0  0  0  0  0  0  0  0  0  0  0  0
  139.0780  160.0110  131.8910 N   0  0  0  0  0  0  0  0  0  0  0  0
  138.9630  158.5950  132.0620 C   0  0  0  0  0  0  0  0  0  0  0  0
  138.6850  157.8710  131.0710 O   0  0  0  0  0  0  0  0  0  0  0  0
  139.2230  158.0070  133.3930 C   0  0  0  0  0  0  0  0  0  0  0  0
  138.3550  158.1990  134.2880 O   0  0  0  0  0  0  0  0  0  0  0  0
  140.4130  157.2440  133.7210 N   0  0  0  0  0  0  0  0  0  0  0  0
  140.4410  155.8260  133.3360 C   0  0  0  0  0  0  0  0  0  0  0  0
  141.6640  157.8620  134.1970 C   0  0  0  0  0  0  0  0  0  0  0  0
  142.0410  159.1220  133.3920 C   0  0  0  0  0  0  0  0  0  0  0  0
  143.2840  159.8390  133.9280 C   0  0  0  0  0  0  0  0  0  0  0  0
  144.4410  159.4710  133.1820 O   0  0  0  0  0  0  0  0  0  0  0  0
  145.7290  159.9250  133.4770 C   0  0  0  0  0  0  0  0  0  0  0  0
  145.8900  161.0270  134.0690 O   0  0  0  0  0  0  0  0  0  0  0  0
  146.8690  159.1240  133.1200 N   0  0  0  0  0  0  0  0  0  0  0  0
  147.1330  157.8340  133.4820 C   0  0  0  0  0  0  0  0  0  0  0  0
  146.3460  157.0110  134.4240 C   0  0  0  0  0  0  0  0  0  0  0  0
  144.9230  156.9980  134.3350 N   0  0  0  0  0  0  0  0  0  0  0  0
  146.9160  156.2810  135.2790 O   0  0  0  0  0  0  0  0  0  0  0  0
  148.3320  157.4030  132.9210 C   0  0  0  0  0  0  0  0  0  0  0  0
  148.8120  158.4780  132.2120 C   0  0  0  0  0  0  0  0  0  0  0  0
  149.9800  158.6060  131.4680 C   0  0  0  0  0  0  0  0  0  0  0  0
  150.2230  159.8330  130.8280 C   0  0  0  0  0  0  0  0  0  0  0  0
  149.2950  160.8950  130.9330 C   0  0  0  0  0  0  0  0  0  0  0  0
  149.5780  162.1930  130.2380 C   0  0  0  0  0  0  0  0  0  0  0  0
  148.1200  160.7320  131.7010 C   0  0  0  0  0  0  0  0  0  0  0  0
  147.9120  159.5050  132.3450 C   0  0  0  0  0  0  0  0  0  0  0  0
  138.1703  161.6245  130.9076 H   0  0  0  0  0  0  0  0  0  0  0  0
  139.5973  160.9198  130.0747 H   0  0  0  0  0  0  0  0  0  0  0  0
  138.0317  160.0390  130.0747 H   0  0  0  0  0  0  0  0  0  0  0  0
  140.4533  155.2006  134.2408 H   0  0  0  0  0  0  0  0  0  0  0  0
  139.5473  155.5903  132.7395 H   0  0  0  0  0  0  0  0  0  0  0  0
  141.3433  155.6258  132.7395 H   0  0  0  0  0  0  0  0  0  0  0  0
  141.5400  158.1419  135.2535 H   0  0  0  0  0  0  0  0  0  0  0  0
  142.4718  157.1268  134.0668 H   0  0  0  0  0  0  0  0  0  0  0  0
  142.2320  158.8255  132.3501 H   0  0  0  0  0  0  0  0  0  0  0  0
  141.1993  159.8250  133.4775 H   0  0  0  0  0  0  0  0  0  0  0  0
  143.1351  160.9261  133.8499 H   0  0  0  0  0  0  0  0  0  0  0  0
  143.4339  159.5478  134.9781 H   0  0  0  0  0  0  0  0  0  0  0  0
  144.3620  157.8410  134.5890 H   0  0  0  0  0  0  0  0  0  0  0  0
  148.7970  156.4114  133.0236 H   0  0  0  0  0  0  0  0  0  0  0  0
  150.6920  157.7719  131.3832 H   0  0  0  0  0  0  0  0  0  0  0  0
  151.1429  159.9687  130.2403 H   0  0  0  0  0  0  0  0  0  0  0  0
  149.7496  162.9801  130.9870 H   0  0  0  0  0  0  0  0  0  0  0  0
  150.4735  162.0842  129.6086 H   0  0  0  0  0  0  0  0  0  0  0  0
  148.7185  162.4669  129.6086 H   0  0  0  0  0  0  0  0  0  0  0  0
  147.3873  161.5475  131.7910 H   0  0  0  0  0  0  0  0  0  0  0  0
  1  2  1  0
  2  3  1  0
  3  4  2  0
  3  5  1  0
  5  6  2  0
  5  7  1  0
  7  8  1  0
  7  9  1  0
  9 10  1  0
 10 11  1  0
 11 12  1  0
 12 13  1  0
 13 14  2  0
 13 15  1  0
 15 16  1  0
 16 17  1  0
 17 18  1  0
 17 19  2  0
 16 20  2  0
 20 21  1  0
 21 22  2  0
 22 23  1  0
 23 24  2  0
 24 25  1  0
 24 26  1  0
 26 27  2  0
 27 15  1  0
 27 21  1  0
  1 28  1  0
  1 29  1  0
  1 30  1  0
  8 31  1  0
  8 32  1  0
  8 33  1  0
  9 34  1  0
  9 35  1  0
 10 36  1  0
 10 37  1  0
 11 38  1  0
 11 39  1  0
 18 40  1  0
 20 41  1  0
 22 42  1  0
 23 43  1  0
 25 44  1  0
 25 45  1  0
 25 46  1  0
 26 47  1  0
M  CHG  2   2  -1  18  -1
M  END
>  <UniqueID>  (11) 
11

>  <SMILES>  (11) 
C[N-]C(=O)C(=O)N(C)CCCOC(=O)n1c(C([NH-])=O)cc2ccc(C)cc21

>  <Energy>  (11) 
76.08128032840236

>  <Genealogy>  (11) 
C[N-]C(=O)C(=O)N(C)CCCOC(=O)n1c(C([NH-])=O)cc2ccc(C)cc21 (protonated)
C[N-]C(=O)C(=O)N(C)CCCOC(=O)n1c(C([NH-])=O)cc2ccc(C)cc21 (3D coordinates assigned)
C[N-]C(=O)C(=O)N(C)CCCOC(=O)n1c(C([NH-])=O)cc2ccc(C)cc21 (optimized conformer: 76.08128032840236 kcal/mol)

>  <smiles>  (11) 
CNC(=O)C(=O)N(C)CCCOC(=O)n1c(C(N)=O)cc2ccc(C)cc21

>  <score_type>  (11) 
oracle

>  <origin>  (11) 
adg

>  <m_score__min__energy>  (11) 
-7.0199999999999996

>  <m_primary>  (11) 
energy

$$$$
11:0
     RDKit          3D

 35 36  0  0  0  0  0  0  0  0999 V2000
  141.3500  157.7040  133.6970 C   0  0  0  0  0  0  0  0  0  0  0  0
  142.0540  158.7090  134.5010 N   0  0  0  0  0  0  0  0  0  0  0  0
  141.4010  159.2370  135.7050 C   0  0  0  0  0  0  0  0  0  0  0  0
  143.3730  159.1750  134.1120 C   0  0  0  0  0  0  0  0  0  0  0  0
  143.6820  160.5650  134.1120 C   0  0  0  0  0  0  0  0  0  0  0  0
  144.9580  161.0250  133.7480 C   0  0  0  0  0  0  0  0  0  0  0  0
  145.9110  160.0840  133.3780 C   0  0  0  0  0  0  0  0  0  0  0  0
  147.2260  160.2540  133.0120 C   0  0  0  0  0  0  0  0  0  0  0  0
  147.7090  158.9710  132.7640 C   0  0  0  0  0  0  0  0  0  0  0  0
  149.0710  158.6980  132.2600 C   0  0  0  0  0  0  0  0  0  0  0  0
  149.5900  157.3710  132.2360 N   0  0  0  0  0  0  0  0  0  0  0  0
  149.7670  159.6410  131.8010 O   0  0  0  0  0  0  0  0  0  0  0  0
  146.7330  158.0450  132.9780 N   0  0  0  0  0  0  0  0  0  0  0  0
  146.8550  156.6150  132.9260 C   0  0  0  0  0  0  0  0  0  0  0  0
  147.3000  156.0590  131.8850 O   0  0  0  0  0  0  0  0  0  0  0  0
  146.4600  155.8450  134.0260 O   0  0  0  0  0  0  0  0  0  0  0  0
  147.3810  155.2050  134.9060 C   0  0  0  0  0  0  0  0  0  0  0  0
  146.6670  154.2330  135.7880 C   0  0  0  0  0  0  0  0  0  0  0  0
  147.3100  153.3440  136.4050 O   0  0  0  0  0  0  0  0  0  0  0  0
  145.2850  154.2920  135.9080 O   0  0  0  0  0  0  0  0  0  0  0  0
  145.6370  158.7440  133.3520 C   0  0  0  0  0  0  0  0  0  0  0  0
  144.3820  158.2530  133.7270 C   0  0  0  0  0  0  0  0  0  0  0  0
  140.8479  156.9873  134.3635 H   0  0  0  0  0  0  0  0  0  0  0  0
  140.6015  158.2009  133.0623 H   0  0  0  0  0  0  0  0  0  0  0  0
  142.0727  157.1703  133.0623 H   0  0  0  0  0  0  0  0  0  0  0  0
  141.8993  158.8341  136.5990 H   0  0  0  0  0  0  0  0  0  0  0  0
  141.4719  160.3347  135.7091 H   0  0  0  0  0  0  0  0  0  0  0  0
  140.3425  158.9379  135.7091 H   0  0  0  0  0  0  0  0  0  0  0  0
  142.9081  161.2909  134.4021 H   0  0  0  0  0  0  0  0  0  0  0  0
  145.1960  162.0989  133.7556 H   0  0  0  0  0  0  0  0  0  0  0  0
  147.7788  161.2016  132.9321 H   0  0  0  0  0  0  0  0  0  0  0  0
  149.3120  156.6990  131.4860 H   0  0  0  0  0  0  0  0  0  0  0  0
  148.1368  154.6692  134.3129 H   0  0  0  0  0  0  0  0  0  0  0  0
  147.8650  155.9680  135.5333 H   0  0  0  0  0  0  0  0  0  0  0  0
  144.1803  157.1717  133.7237 H   0  0  0  0  0  0  0  0  0  0  0  0
  1  2  1  0
  2  3  1  0
  2  4  1  0
  4  5  2  0
  5  6  1  0
  6  7  2  0
  7  8  1  0
  8  9  2  0
  9 10  1  0
 10 11  1  0
 10 12  2  0
  9 13  1  0
 13 14  1  0
 14 15  2  0
 14 16  1  0
 16 17  1  0
 17 18  1  0
 18 19  2  0
 18 20  1  0
 13 21  1  0
 21 22  2  0
 22  4  1  0
 21  7  1  0
  1 23  1  0
  1 24  1  0
  1 25  1  0
  3 26  1  0
  3 27  1  0
  3 28  1  0
  5 29  1  0
  6 30  1  0
  8 31  1  0
 11 32  1  0
 17 33  1  0
 17 34  1  0
 22 35  1  0
M  CHG  2  11  -1  20  -1
M  END
>  <UniqueID>  (12) 
12

>  <SMILES>  (12) 
CN(C)c1ccc2cc(C([NH-])=O)n(C(=O)OCC(=O)[O-])c2c1

>  <Energy>  (12) 
73.54513428271662

>  <Genealogy>  (12) 
CN(C)c1ccc2cc(C([NH-])=O)n(C(=O)OCC(=O)[O-])c2c1 (protonated)
CN(C)c1ccc2cc(C([NH-])=O)n(C(=O)OCC(=O)[O-])c2c1 (3D coordinates assigned)
CN(C)c1ccc2cc(C([NH-])=O)n(C(=O)OCC(=O)[O-])c2c1 (optimized conformer: 73.54513428271662 kcal/mol)

>  <smiles>  (12) 
CN(C)c1ccc2cc(C(N)=O)n(C(=O)OCC(=O)O)c2c1

>  <score_type>  (12) 
oracle

>  <origin>  (12) 
adg

>  <m_score__min__energy>  (12) 
-6.04

>  <m_primary>  (12) 
energy

$$$$
12:0
     RDKit          3D

 37 38  0  0  0  0  0  0  0  0999 V2000
  148.8620  159.2860  129.8280 C   0  0  0  0  0  0  0  0  0  0  0  0
  148.7340  160.1160  131.1140 C   0  0  0  0  0  0  0  0  0  0  0  0
  149.6440  159.5020  132.1950 C   0  0  0  0  0  0  0  0  0  0  0  0
  149.1480  161.5690  130.8140 C   0  0  0  0  0  0  0  0  0  0  0  0
  147.3590  160.0560  131.5190 O   0  0  0  0  0  0  0  0  0  0  0  0
  146.8810  160.0230  132.8370 C   0  0  0  0  0  0  0  0  0  0  0  0
  147.2640  160.8700  133.6890 O   0  0  0  0  0  0  0  0  0  0  0  0
  145.9190  159.0240  133.2110 N   0  0  0  0  0  0  0  0  0  0  0  0
  144.6110  159.2030  133.5520 C   0  0  0  0  0  0  0  0  0  0  0  0
  143.9380  160.5020  133.7650 C   0  0  0  0  0  0  0  0  0  0  0  0
  144.6900  161.6830  134.0320 N   0  0  0  0  0  0  0  0  0  0  0  0
  142.6800  160.5610  133.7580 O   0  0  0  0  0  0  0  0  0  0  0  0
  143.9900  157.9740  133.7620 C   0  0  0  0  0  0  0  0  0  0  0  0
  144.9670  157.0290  133.5490 C   0  0  0  0  0  0  0  0  0  0  0  0
  144.9000  155.6410  133.6120 C   0  0  0  0  0  0  0  0  0  0  0  0
  146.0620  154.9090  133.3130 C   0  0  0  0  0  0  0  0  0  0  0  0
  147.2610  155.5760  132.9520 C   0  0  0  0  0  0  0  0  0  0  0  0
  148.4970  154.7920  132.6150 C   0  0  0  0  0  0  0  0  0  0  0  0
  148.7120  153.8230  133.5780 F   0  0  0  0  0  0  0  0  0  0  0  0
  149.5880  155.6410  132.5670 F   0  0  0  0  0  0  0  0  0  0  0  0
  147.2890  156.9870  132.8950 C   0  0  0  0  0  0  0  0  0  0  0  0
  146.1220  157.6880  133.2160 C   0  0  0  0  0  0  0  0  0  0  0  0
  149.0249  158.2297  130.0881 H   0  0  0  0  0  0  0  0  0  0  0  0
  147.9387  159.3800  129.2375 H   0  0  0  0  0  0  0  0  0  0  0  0
  149.7140  159.6538  129.2375 H   0  0  0  0  0  0  0  0  0  0  0  0
  149.2574  159.7629  133.1912 H   0  0  0  0  0  0  0  0  0  0  0  0
  149.6598  158.4079  132.0828 H   0  0  0  0  0  0  0  0  0  0  0  0
  150.6645  159.8969  132.0828 H   0  0  0  0  0  0  0  0  0  0  0  0
  149.3019  162.1091  131.7598 H   0  0  0  0  0  0  0  0  0  0  0  0
  150.0826  161.5716  130.2340 H   0  0  0  0  0  0  0  0  0  0  0  0
  148.3551  162.0639  130.2340 H   0  0  0  0  0  0  0  0  0  0  0  0
  145.4600  161.9840  133.3950 H   0  0  0  0  0  0  0  0  0  0  0  0
  142.9405  157.7965  134.0394 H   0  0  0  0  0  0  0  0  0  0  0  0
  143.9650  155.1313  133.8877 H   0  0  0  0  0  0  0  0  0  0  0  0
  146.0416  153.8102  133.3593 H   0  0  0  0  0  0  0  0  0  0  0  0
  148.3628  154.3108  131.6350 H   0  0  0  0  0  0  0  0  0  0  0  0
  148.2058  157.5213  132.6054 H   0  0  0  0  0  0  0  0  0  0  0  0
  1  2  1  0
  2  3  1  0
  2  4  1  0
  2  5  1  0
  5  6  1  0
  6  7  2  0
  6  8  1  0
  8  9  1  0
  9 10  1  0
 10 11  1  0
 10 12  2  0
  9 13  2  0
 13 14  1  0
 14 15  2  0
 15 16  1  0
 16 17  2  0
 17 18  1  0
 18 19  1  0
 18 20  1  0
 17 21  1  0
 21 22  2  0
 22  8  1  0
 22 14  1  0
  1 23  1  0
  1 24  1  0
  1 25  1  0
  3 26  1  0
  3 27  1  0
  3 28  1  0
  4 29  1  0
  4 30  1  0
  4 31  1  0
 11 32  1  0
 13 33  1  0
 15 34  1  0
 16 35  1  0
 18 36  1  0
 21 37  1  0
M  CHG  1  11  -1
M  END
>  <UniqueID>  (13) 
13

>  <SMILES>  (13) 
CC(C)(C)OC(=O)n1c(C([NH-])=O)cc2ccc(C(F)F)cc21

>  <Energy>  (13) 
70.82066369669366

>  <Genealogy>  (13) 
CC(C)(C)OC(=O)n1c(C([NH-])=O)cc2ccc(C(F)F)cc21 (protonated)
CC(C)(C)OC(=O)n1c(C([NH-])=O)cc2ccc(C(F)F)cc21 (3D coordinates assigned)
CC(C)(C)OC(=O)n1c(C([NH-])=O)cc2ccc(C(F)F)cc21 (optimized conformer: 70.82066369669366 kcal/mol)

>  <smiles>  (13) 
CC(C)(C)OC(=O)n1c(C(N)=O)cc2ccc(C(F)F)cc21

>  <score_type>  (13) 
oracle

>  <origin>  (13) 
adg

>  <m_score__min__energy>  (13) 
-6.3600000000000003

>  <m_primary>  (13) 
energy

$$$$
13:0
     RDKit          3D

 37 38  0  0  0  0  0  0  0  0999 V2000
  149.5880  162.0840  130.3410 C   0  0  0  0  0  0  0  0  0  0  0  0
  149.7000  160.6280  130.8040 C   0  0  0  0  0  0  0  0  0  0  0  0
  149.6160  159.6650  129.6150 C   0  0  0  0  0  0  0  0  0  0  0  0
  148.6370  160.3060  131.8160 C   0  0  0  0  0  0  0  0  0  0  0  0
  148.0940  161.2340  132.4770 O   0  0  0  0  0  0  0  0  0  0  0  0
  148.2490  158.9710  131.9880 O   0  0  0  0  0  0  0  0  0  0  0  0
  147.9360  158.3740  133.2160 C   0  0  0  0  0  0  0  0  0  0  0  0
  148.6270  158.6110  134.2440 O   0  0  0  0  0  0  0  0  0  0  0  0
  146.8120  157.4820  133.3050 N   0  0  0  0  0  0  0  0  0  0  0  0
  145.4920  157.8140  133.3730 C   0  0  0  0  0  0  0  0  0  0  0  0
  144.9490  159.1780  133.5310 C   0  0  0  0  0  0  0  0  0  0  0  0
  145.5670  160.2980  132.8960 N   0  0  0  0  0  0  0  0  0  0  0  0
  143.9570  159.3650  134.2840 O   0  0  0  0  0  0  0  0  0  0  0  0
  144.6950  156.6740  133.3250 C   0  0  0  0  0  0  0  0  0  0  0  0
  145.5750  155.6190  133.2380 C   0  0  0  0  0  0  0  0  0  0  0  0
  145.3260  154.2540  133.1600 C   0  0  0  0  0  0  0  0  0  0  0  0
  146.4270  153.3880  133.0490 C   0  0  0  0  0  0  0  0  0  0  0  0
  147.7490  153.9000  132.9870 C   0  0  0  0  0  0  0  0  0  0  0  0
  148.9240  152.9590  132.9020 C   0  0  0  0  0  0  0  0  0  0  0  0
  148.6630  151.9340  132.0090 F   0  0  0  0  0  0  0  0  0  0  0  0
  149.1920  152.3980  134.1380 F   0  0  0  0  0  0  0  0  0  0  0  0
  150.0360  153.6590  132.4720 F   0  0  0  0  0  0  0  0  0  0  0  0
  147.9610  155.2950  133.0910 C   0  0  0  0  0  0  0  0  0  0  0  0
  146.8460  156.1330  133.2250 C   0  0  0  0  0  0  0  0  0  0  0  0
  149.5372  162.7450  131.2188 H   0  0  0  0  0  0  0  0  0  0  0  0
  150.4687  162.3451  129.7359 H   0  0  0  0  0  0  0  0  0  0  0  0
  148.6777  162.2073  129.7359 H   0  0  0  0  0  0  0  0  0  0  0  0
  150.6834  160.5012  131.2803 H   0  0  0  0  0  0  0  0  0  0  0  0
  149.5260  158.6329  129.9847 H   0  0  0  0  0  0  0  0  0  0  0  0
  148.7361  159.9134  129.0034 H   0  0  0  0  0  0  0  0  0  0  0  0
  150.5256  159.7573  129.0034 H   0  0  0  0  0  0  0  0  0  0  0  0
  146.4840  160.2030  132.4080 H   0  0  0  0  0  0  0  0  0  0  0  0
  145.1450  161.2490  132.9860 H   0  0  0  0  0  0  0  0  0  0  0  0
  143.5964  156.6262  133.3510 H   0  0  0  0  0  0  0  0  0  0  0  0
  144.2980  153.8633  133.1844 H   0  0  0  0  0  0  0  0  0  0  0  0
  146.2623  152.3011  133.0097 H   0  0  0  0  0  0  0  0  0  0  0  0
  148.9784  155.7124  133.0672 H   0  0  0  0  0  0  0  0  0  0  0  0
  1  2  1  0
  2  3  1  0
  2  4  1  0
  4  5  2  0
  4  6  1  0
  6  7  1  0
  7  8  2  0
  7  9  1  0
  9 10  1  0
 10 11  1  0
 11 12  1  0
 11 13  2  0
 10 14  2  0
 14 15  1  0
 15 16  2  0
 16 17  1  0
 17 18  2  0
 18 19  1  0
 19 20  1  0
 19 21  1  0
 19 22  1  0
 18 23  1  0
 23 24  2  0
 24  9  1  0
 24 15  1  0
  1 25  1  0
  1 26  1  0
  1 27  1  0
  2 28  1  0
  3 29  1  0
  3 30  1  0
  3 31  1  0
 12 32  1  0
 12 33  1  0
 14 34  1  0
 16 35  1  0
 17 36  1  0
 23 37  1  0
M  END
>  <UniqueID>  (14) 
14

>  <SMILES>  (14) 
CC(C)C(=O)OC(=O)n1c(C(N)=O)cc2ccc(C(F)(F)F)cc21

>  <Energy>  (14) 
72.88229798026215

>  <Genealogy>  (14) 
CC(C)C(=O)OC(=O)n1c(C(N)=O)cc2ccc(C(F)(F)F)cc21 (3D coordinates assigned)
CC(C)C(=O)OC(=O)n1c(C(N)=O)cc2ccc(C(F)(F)F)cc21 (optimized conformer: 72.88229798026215 kcal/mol)

>  <smiles>  (14) 
CC(C)C(=O)OC(=O)n1c(C(N)=O)cc2ccc(C(F)(F)F)cc21

>  <score_type>  (14) 
oracle

>  <origin>  (14) 
adg

>  <m_score__min__energy>  (14) 
-6.9199999999999999

>  <m_primary>  (14) 
energy

$$$$
14:0
     RDKit          3D

 46 47  0  0  0  0  0  0  0  0999 V2000
  141.6450  149.2870  132.2410 C   0  0  0  0  0  0  0  0  0  0  0  0
  140.3640  149.9740  132.4660 N   0  0  0  0  0  0  0  0  0  0  0  0
  139.3360  149.4040  131.5800 C   0  0  0  0  0  0  0  0  0  0  0  0
  140.5080  151.4310  132.2490 C   0  0  0  0  0  0  0  0  0  0  0  0
  141.3170  152.0690  133.3840 C   0  0  0  0  0  0  0  0  0  0  0  0
  141.7470  153.4260  133.0170 N   0  0  0  0  0  0  0  0  0  0  0  0
  143.1170  153.6510  132.5520 C   0  0  0  0  0  0  0  0  0  0  0  0
  140.9430  154.5680  133.3600 C   0  0  0  0  0  0  0  0  0  0  0  0
  139.8840  154.7950  132.7160 O   0  0  0  0  0  0  0  0  0  0  0  0
  141.3290  155.4780  134.4570 C   0  0  0  0  0  0  0  0  0  0  0  0
  141.4520  155.0380  135.6310 O   0  0  0  0  0  0  0  0  0  0  0  0
  141.5850  156.8650  134.1960 N   0  0  0  0  0  0  0  0  0  0  0  0
  140.6820  157.8760  134.0650 C   0  0  0  0  0  0  0  0  0  0  0  0
  139.2260  157.7510  134.3020 C   0  0  0  0  0  0  0  0  0  0  0  0
  138.3780  157.0970  133.3550 N   0  0  0  0  0  0  0  0  0  0  0  0
  138.7140  158.2370  135.3460 O   0  0  0  0  0  0  0  0  0  0  0  0
  141.3350  159.0670  133.7400 C   0  0  0  0  0  0  0  0  0  0  0  0
  142.6730  158.7450  133.6780 C   0  0  0  0  0  0  0  0  0  0  0  0
  143.7760  159.5400  133.3820 C   0  0  0  0  0  0  0  0  0  0  0  0
  145.0430  158.9300  133.3710 C   0  0  0  0  0  0  0  0  0  0  0  0
  145.1830  157.5470  133.6560 C   0  0  0  0  0  0  0  0  0  0  0  0
  146.5360  156.8950  133.6300 C   0  0  0  0  0  0  0  0  0  0  0  0
  147.5100  157.8330  133.9160 F   0  0  0  0  0  0  0  0  0  0  0  0
  146.5840  155.8850  134.5730 F   0  0  0  0  0  0  0  0  0  0  0  0
  144.0410  156.7760  133.9580 C   0  0  0  0  0  0  0  0  0  0  0  0
  142.7950  157.4100  133.9620 C   0  0  0  0  0  0  0  0  0  0  0  0
  142.1041  149.0408  133.2098 H   0  0  0  0  0  0  0  0  0  0  0  0
  141.4699  148.3617  131.6725 H   0  0  0  0  0  0  0  0  0  0  0  0
  142.3189  149.9447  131.6725 H   0  0  0  0  0  0  0  0  0  0  0  0
  138.5340  148.9593  132.1875 H   0  0  0  0  0  0  0  0  0  0  0  0
  138.9174  150.1989  130.9452 H   0  0  0  0  0  0  0  0  0  0  0  0
  139.7884  148.6279  130.9452 H   0  0  0  0  0  0  0  0  0  0  0  0
  141.0259  151.6047  131.2942 H   0  0  0  0  0  0  0  0  0  0  0  0
  139.5070  151.8867  132.2278 H   0  0  0  0  0  0  0  0  0  0  0  0
  140.6923  152.1203  134.2880 H   0  0  0  0  0  0  0  0  0  0  0  0
  142.2095  151.4538  133.5710 H   0  0  0  0  0  0  0  0  0  0  0  0
  143.7851  153.7607  133.4190 H   0  0  0  0  0  0  0  0  0  0  0  0
  143.4431  152.7944  131.9439 H   0  0  0  0  0  0  0  0  0  0  0  0
  143.1520  154.5669  131.9439 H   0  0  0  0  0  0  0  0  0  0  0  0
  138.7650  156.6350  132.5020 H   0  0  0  0  0  0  0  0  0  0  0  0
  137.3510  157.0330  133.5310 H   0  0  0  0  0  0  0  0  0  0  0  0
  140.8779  160.0529  133.5697 H   0  0  0  0  0  0  0  0  0  0  0  0
  143.6605  160.6119  133.1635 H   0  0  0  0  0  0  0  0  0  0  0  0
  145.9346  159.5310  133.1391 H   0  0  0  0  0  0  0  0  0  0  0  0
  146.7140  156.4732  132.6298 H   0  0  0  0  0  0  0  0  0  0  0  0
  144.1286  155.7032  134.1846 H   0  0  0  0  0  0  0  0  0  0  0  0
  1  2  1  0
  2  3  1  0
  2  4  1  0
  4  5  1  0
  5  6  1  0
  6  7  1  0
  6  8  1  0
  8  9  2  0
  8 10  1  0
 10 11  2  0
 10 12  1  0
 12 13  1  0
 13 14  1  0
 14 15  1  0
 14 16  2  0
 13 17  2  0
 17 18  1  0
 18 19  2  0
 19 20  1  0
 20 21  2  0
 21 22  1  0
 22 23  1  0
 22 24  1  0
 21 25  1  0
 25 26  2  0
 26 12  1  0
 26 18  1  0
  1 27  1  0
  1 28  1  0
  1 29  1  0
  3 30  1  0
  3 31  1  0
  3 32  1  0
  4 33  1  0
  4 34  1  0
  5 35  1  0
  5 36  1  0
  7 37  1  0
  7 38  1  0
  7 39  1  0
 15 40  1  0
 15 41  1  0
 17 42  1  0
 19 43  1  0
 20 44  1  0
 22 45  1  0
 25 46  1  0
M  END
>  <UniqueID>  (15) 
15

>  <SMILES>  (15) 
CN(C)CCN(C)C(=O)C(=O)n1c(C(N)=O)cc2ccc(C(F)F)cc21

>  <Energy>  (15) 
84.02946248221379

>  <Genealogy>  (15) 
CN(C)CCN(C)C(=O)C(=O)n1c(C(N)=O)cc2ccc(C(F)F)cc21 (3D coordinates assigned)
CN(C)CCN(C)C(=O)C(=O)n1c(C(N)=O)cc2ccc(C(F)F)cc21 (optimized conformer: 84.02946248221379 kcal/mol)

>  <smiles>  (15) 
CN(C)CCN(C)C(=O)C(=O)n1c(C(N)=O)cc2ccc(C(F)F)cc21

>  <score_type>  (15) 
oracle

>  <origin>  (15) 
adg

>  <m_score__min__energy>  (15) 
-6.6900000000000004

>  <m_primary>  (15) 
energy

$$$$
15:0
     RDKit          3D

 43 46  0  0  0  0  0  0  0  0999 V2000
  149.9200  152.2730  132.4060 C   0  0  0  0  0  0  0  0  0  0  0  0
  148.8180  153.1960  132.6360 N   0  0  0  0  0  0  0  0  0  0  0  0
  147.5490  152.8540  132.9190 C   0  0  0  0  0  0  0  0  0  0  0  0
  146.8260  154.0060  133.1380 C   0  0  0  0  0  0  0  0  0  0  0  0
  147.7470  155.0350  132.9790 C   0  0  0  0  0  0  0  0  0  0  0  0
  147.4930  156.4900  133.1140 C   0  0  0  0  0  0  0  0  0  0  0  0
  148.5620  157.4270  133.1060 C   0  0  0  0  0  0  0  0  0  0  0  0
  148.3120  158.8040  133.2250 C   0  0  0  0  0  0  0  0  0  0  0  0
  146.9920  159.2200  133.3610 C   0  0  0  0  0  0  0  0  0  0  0  0
  146.4660  160.4880  133.4670 C   0  0  0  0  0  0  0  0  0  0  0  0
  145.0870  160.3110  133.5580 C   0  0  0  0  0  0  0  0  0  0  0  0
  144.1260  161.4210  133.7290 C   0  0  0  0  0  0  0  0  0  0  0  0
  142.7450  161.2540  133.4210 N   0  0  0  0  0  0  0  0  0  0  0  0
  144.5260  162.5270  134.1840 O   0  0  0  0  0  0  0  0  0  0  0  0
  144.7740  158.9850  133.5130 N   0  0  0  0  0  0  0  0  0  0  0  0
  143.4680  158.3910  133.5030 C   0  0  0  0  0  0  0  0  0  0  0  0
  143.1590  157.5810  132.5890 O   0  0  0  0  0  0  0  0  0  0  0  0
  142.4820  158.7190  134.5430 C   0  0  0  0  0  0  0  0  0  0  0  0
  142.8570  159.3010  135.5970 O   0  0  0  0  0  0  0  0  0  0  0  0
  141.1450  158.3390  134.3650 O   0  0  0  0  0  0  0  0  0  0  0  0
  140.3210  158.7410  133.3050 C   0  0  0  0  0  0  0  0  0  0  0  0
  139.5270  157.8290  132.5850 C   0  0  0  0  0  0  0  0  0  0  0  0
  138.7170  158.2950  131.5470 C   0  0  0  0  0  0  0  0  0  0  0  0
  138.6940  159.6560  131.2410 C   0  0  0  0  0  0  0  0  0  0  0  0
  139.4800  160.5360  131.9870 C   0  0  0  0  0  0  0  0  0  0  0  0
  140.2640  160.0640  132.9930 N   0  0  0  0  0  0  0  0  0  0  0  0
  145.9500  158.3320  133.3870 C   0  0  0  0  0  0  0  0  0  0  0  0
  146.1640  156.9560  133.2510 C   0  0  0  0  0  0  0  0  0  0  0  0
  148.9540  154.5110  132.6810 N   0  0  0  0  0  0  0  0  0  0  0  0
  150.3232  151.9353  133.3721 H   0  0  0  0  0  0  0  0  0  0  0  0
  149.5581  151.4046  131.8360 H   0  0  0  0  0  0  0  0  0  0  0  0
  150.7115  152.7817  131.8360 H   0  0  0  0  0  0  0  0  0  0  0  0
  147.1548  151.8282  132.9675 H   0  0  0  0  0  0  0  0  0  0  0  0
  145.7574  154.0924  133.3840 H   0  0  0  0  0  0  0  0  0  0  0  0
  149.5974  157.0694  133.0054 H   0  0  0  0  0  0  0  0  0  0  0  0
  149.1363  159.5322  133.2110 H   0  0  0  0  0  0  0  0  0  0  0  0
  147.0178  161.4395  133.4776 H   0  0  0  0  0  0  0  0  0  0  0  0
  142.1420  160.6130  133.9810 H   0  0  0  0  0  0  0  0  0  0  0  0
  139.5442  156.7585  132.8376 H   0  0  0  0  0  0  0  0  0  0  0  0
  138.0984  157.5903  130.9719 H   0  0  0  0  0  0  0  0  0  0  0  0
  138.0637  160.0313  130.4213 H   0  0  0  0  0  0  0  0  0  0  0  0
  139.4652  161.6124  131.7609 H   0  0  0  0  0  0  0  0  0  0  0  0
  145.3184  156.2525  133.2506 H   0  0  0  0  0  0  0  0  0  0  0  0
  1  2  1  0
  2  3  1  0
  3  4  2  0
  4  5  1  0
  5  6  1  0
  6  7  2  0
  7  8  1  0
  8  9  2  0
  9 10  1  0
 10 11  2  0
 11 12  1  0
 12 13  1  0
 12 14  2  0
 11 15  1  0
 15 16  1  0
 16 17  2  0
 16 18  1  0
 18 19  2  0
 18 20  1  0
 20 21  1  0
 21 22  2  0
 22 23  1  0
 23 24  2  0
 24 25  1  0
 25 26  2  0
 15 27  1  0
 27 28  2  0
  5 29  2  0
 29  2  1  0
 28  6  1  0
 27  9  1  0
 26 21  1  0
  1 30  1  0
  1 31  1  0
  1 32  1  0
  3 33  1  0
  4 34  1  0
  7 35  1  0
  8 36  1  0
 10 37  1  0
 13 38  1  0
 22 39  1  0
 23 40  1  0
 24 41  1  0
 25 42  1  0
 28 43  1  0
M  CHG  1  13  -1
M  END
>  <UniqueID>  (16) 
16

>  <SMILES>  (16) 
Cn1ccc(-c2ccc3cc(C([NH-])=O)n(C(=O)C(=O)Oc4ccccn4)c3c2)n1

>  <Energy>  (16) 
122.11574295462356

>  <Genealogy>  (16) 
Cn1ccc(-c2ccc3cc(C([NH-])=O)n(C(=O)C(=O)Oc4ccccn4)c3c2)n1 (protonated)
Cn1ccc(-c2ccc3cc(C([NH-])=O)n(C(=O)C(=O)Oc4ccccn4)c3c2)n1 (3D coordinates assigned)
Cn1ccc(-c2ccc3cc(C([NH-])=O)n(C(=O)C(=O)Oc4ccccn4)c3c2)n1 (optimized conformer: 122.11574295462356 kcal/mol)

>  <smiles>  (16) 
Cn1ccc(-c2ccc3cc(C(N)=O)n(C(=O)C(=O)Oc4ccccn4)c3c2)n1

>  <score_type>  (16) 
oracle

>  <origin>  (16) 
adg

>  <m_score__min__energy>  (16) 
-8.4499999999999993

>  <m_primary>  (16) 
energy

$$$$
16:0
     RDKit          3D

 39 40  0  0  0  0  0  0  0  0999 V2000
  141.0010  158.4050  135.5410 C   0  0  0  0  0  0  0  0  0  0  0  0
  141.1290  157.7960  134.1480 C   0  0  2  0  0  0  0  0  0  0  0  0
  142.3910  158.1550  133.5850 O   0  0  0  0  0  0  0  0  0  0  0  0
  143.6150  157.7950  134.1580 C   0  0  0  0  0  0  0  0  0  0  0  0
  143.6580  156.9040  135.0510 O   0  0  0  0  0  0  0  0  0  0  0  0
  144.8270  158.4400  133.7300 N   0  0  0  0  0  0  0  0  0  0  0  0
  145.0700  159.7810  133.6600 C   0  0  0  0  0  0  0  0  0  0  0  0
  144.0710  160.8510  133.8470 C   0  0  0  0  0  0  0  0  0  0  0  0
  142.7350  160.7090  133.3630 N   0  0  0  0  0  0  0  0  0  0  0  0
  144.4190  161.9340  134.3900 O   0  0  0  0  0  0  0  0  0  0  0  0
  146.3980  160.0250  133.3270 C   0  0  0  0  0  0  0  0  0  0  0  0
  146.9680  158.7810  133.1760 C   0  0  0  0  0  0  0  0  0  0  0  0
  148.2790  158.4340  132.8680 C   0  0  0  0  0  0  0  0  0  0  0  0
  148.6040  157.0690  132.8170 C   0  0  0  0  0  0  0  0  0  0  0  0
  147.6180  156.0780  133.0630 C   0  0  0  0  0  0  0  0  0  0  0  0
  147.9930  154.6180  133.0670 C   0  0  0  0  0  0  0  0  0  0  0  0
  149.0820  154.3920  132.2420 F   0  0  0  0  0  0  0  0  0  0  0  0
  146.9220  153.8720  132.6140 F   0  0  0  0  0  0  0  0  0  0  0  0
  148.3260  154.2020  134.3450 F   0  0  0  0  0  0  0  0  0  0  0  0
  146.3030  156.4740  133.3970 C   0  0  0  0  0  0  0  0  0  0  0  0
  146.0010  157.8410  133.4240 C   0  0  0  0  0  0  0  0  0  0  0  0
  140.0250  158.2600  133.2870 N   0  0  0  0  0  0  0  0  0  0  0  0
  138.7150  157.6030  133.3410 C   0  0  0  0  0  0  0  0  0  0  0  0
  140.2330  159.3010  132.3140 C   0  0  0  0  0  0  0  0  0  0  0  0
  140.3310  160.5050  132.6700 O   0  0  0  0  0  0  0  0  0  0  0  0
  140.3330  158.9880  130.9630 O   0  0  0  0  0  0  0  0  0  0  0  0
  141.1650  157.6247  136.2988 H   0  0  0  0  0  0  0  0  0  0  0  0
  141.7518  159.1994  135.6643 H   0  0  0  0  0  0  0  0  0  0  0  0
  139.9939  158.8300  135.6643 H   0  0  0  0  0  0  0  0  0  0  0  0
  141.0705  156.7000  134.2218 H   0  0  0  0  0  0  0  0  0  0  0  0
  142.4610  159.8990  132.7650 H   0  0  0  0  0  0  0  0  0  0  0  0
  142.0320  161.4620  133.5360 H   0  0  0  0  0  0  0  0  0  0  0  0
  146.8881  161.0027  133.2094 H   0  0  0  0  0  0  0  0  0  0  0  0
  149.0381  159.2052  132.6704 H   0  0  0  0  0  0  0  0  0  0  0  0
  149.6348  156.7640  132.5837 H   0  0  0  0  0  0  0  0  0  0  0  0
  145.5330  155.7241  133.6308 H   0  0  0  0  0  0  0  0  0  0  0  0
  138.4216  157.4559  134.3909 H   0  0  0  0  0  0  0  0  0  0  0  0
  137.9678  158.2330  132.8363 H   0  0  0  0  0  0  0  0  0  0  0  0
  138.7730  156.6273  132.8363 H   0  0  0  0  0  0  0  0  0  0  0  0
  1  2  1  0
  2  3  1  0
  3  4  1  0
  4  5  2  0
  4  6  1  0
  6  7  1  0
  7  8  1  0
  8  9  1  0
  8 10  2  0
  7 11  2  0
 11 12  1  0
 12 13  2  0
 13 14  1  0
 14 15  2  0
 15 16  1  0
 16 17  1  0
 16 18  1  0
 16 19  1  0
 15 20  1  0
 20 21  2  0
  2 22  1  0
 22 23  1  0
 22 24  1  0
 24 25  2  0
 24 26  1  0
 21  6  1  0
 21 12  1  0
  1 27  1  0
  1 28  1  0
  1 29  1  0
  2 30  1  1
  9 31  1  0
  9 32  1  0
 11 33  1  0
 13 34  1  0
 14 35  1  0
 20 36  1  0
 23 37  1  0
 23 38  1  0
 23 39  1  0
M  CHG  1  26  -1
M  END
>  <UniqueID>  (17) 
17

>  <SMILES>  (17) 
C[C@H](OC(=O)n1c(C(N)=O)cc2ccc(C(F)(F)F)cc21)N(C)C(=O)[O-]

>  <Energy>  (17) 
72.84856312563907

>  <Genealogy>  (17) 
CC(OC(=O)n1c(C(N)=O)cc2ccc(C(F)(F)F)cc21)N(C)C(=O)[O-] (protonated)
C[C@H](OC(=O)n1c(C(N)=O)cc2ccc(C(F)(F)F)cc21)N(C)C(=O)[O-] (chirality)
C[C@H](OC(=O)n1c(C(N)=O)cc2ccc(C(F)(F)F)cc21)N(C)C(=O)[O-] (3D coordinates assigned)
C[C@H](OC(=O)n1c(C(N)=O)cc2ccc(C(F)(F)F)cc21)N(C)C(=O)[O-] (optimized conformer: 72.84856312563907 kcal/mol)

>  <smiles>  (17) 
CC(OC(=O)n1c(C(N)=O)cc2ccc(C(F)(F)F)cc21)N(C)C(=O)O

>  <score_type>  (17) 
oracle

>  <origin>  (17) 
adg

>  <m_score__min__energy>  (17) 
-6.3499999999999996

>  <m_primary>  (17) 
energy

$$$$
17:0
     RDKit          3D

 42 44  0  0  0  0  0  0  0  0999 V2000
  142.7160  159.9230  133.3120 N   0  0  0  0  0  0  0  0  0  0  0  0
  144.0410  160.2930  133.6820 C   0  0  0  0  0  0  0  0  0  0  0  0
  144.2500  161.4360  134.1680 O   0  0  0  0  0  0  0  0  0  0  0  0
  145.1500  159.3300  133.5150 C   0  0  0  0  0  0  0  0  0  0  0  0
  146.4380  159.6880  133.1200 C   0  0  0  0  0  0  0  0  0  0  0  0
  147.1310  158.5010  133.0150 C   0  0  0  0  0  0  0  0  0  0  0  0
  148.4500  158.2600  132.6460 C   0  0  0  0  0  0  0  0  0  0  0  0
  148.8950  156.9260  132.6270 C   0  0  0  0  0  0  0  0  0  0  0  0
  148.0260  155.8650  132.9950 C   0  0  0  0  0  0  0  0  0  0  0  0
  148.5020  154.4360  132.9270 C   0  0  0  0  0  0  0  0  0  0  0  0
  149.7160  154.3550  132.2680 F   0  0  0  0  0  0  0  0  0  0  0  0
  147.5890  153.6490  132.2470 F   0  0  0  0  0  0  0  0  0  0  0  0
  148.6510  153.9450  134.2110 F   0  0  0  0  0  0  0  0  0  0  0  0
  146.6850  156.1520  133.3400 C   0  0  0  0  0  0  0  0  0  0  0  0
  146.2710  157.4870  133.3420 C   0  0  0  0  0  0  0  0  0  0  0  0
  145.0560  157.9790  133.6570 N   0  0  0  0  0  0  0  0  0  0  0  0
  143.9190  157.2090  134.0700 C   0  0  0  0  0  0  0  0  0  0  0  0
  143.9530  156.6140  135.1790 O   0  0  0  0  0  0  0  0  0  0  0  0
  142.7170  157.1330  133.2090 C   0  0  0  0  0  0  0  0  0  0  0  0
  142.8720  157.1320  131.9580 O   0  0  0  0  0  0  0  0  0  0  0  0
  141.3830  157.0730  133.7560 N   0  0  0  0  0  0  0  0  0  0  0  0
  140.3050  156.4240  132.9970 C   0  0  0  0  0  0  0  0  0  0  0  0
  139.2260  157.4480  132.6090 C   0  0  0  0  0  0  0  0  0  0  0  0
  138.9950  158.5410  133.6810 C   0  0  0  0  0  0  0  0  0  0  0  0
  139.6160  159.7340  133.2740 O   0  0  0  0  0  0  0  0  0  0  0  0
  139.5340  158.1150  135.0600 C   0  0  0  0  0  0  0  0  0  0  0  0
  141.0390  157.8080  134.9860 C   0  0  0  0  0  0  0  0  0  0  0  0
  142.5450  159.2420  132.5390 H   0  0  0  0  0  0  0  0  0  0  0  0
  146.8202  160.7022  132.9320 H   0  0  0  0  0  0  0  0  0  0  0  0
  149.1240  159.0867  132.3774 H   0  0  0  0  0  0  0  0  0  0  0  0
  149.9283  156.7019  132.3235 H   0  0  0  0  0  0  0  0  0  0  0  0
  145.9849  155.3445  133.6004 H   0  0  0  0  0  0  0  0  0  0  0  0
  140.7242  155.9766  132.0837 H   0  0  0  0  0  0  0  0  0  0  0  0
  139.8468  155.6460  133.6253 H   0  0  0  0  0  0  0  0  0  0  0  0
  139.5321  157.9381  131.6730 H   0  0  0  0  0  0  0  0  0  0  0  0
  138.2806  156.8958  132.5022 H   0  0  0  0  0  0  0  0  0  0  0  0
  137.9104  158.6948  133.7812 H   0  0  0  0  0  0  0  0  0  0  0  0
  140.5880  159.5420  133.1970 H   0  0  0  0  0  0  0  0  0  0  0  0
  139.3669  158.9296  135.7800 H   0  0  0  0  0  0  0  0  0  0  0  0
  139.0037  157.2062  135.3809 H   0  0  0  0  0  0  0  0  0  0  0  0
  141.5978  158.7553  135.0038 H   0  0  0  0  0  0  0  0  0  0  0  0
  141.3045  157.1788  135.8483 H   0  0  0  0  0  0  0  0  0  0  0  0
  1  2  1  0
  2  3  2  0
  2  4  1  0
  4  5  2  0
  5  6  1  0
  6  7  2  0
  7  8  1  0
  8  9  2  0
  9 10  1  0
 10 11  1  0
 10 12  1  0
 10 13  1  0
  9 14  1  0
 14 15  2  0
 15 16  1  0
 16 17  1  0
 17 18  2  0
 17 19  1  0
 19 20  2  0
 19 21  1  0
 21 22  1  0
 22 23  1  0
 23 24  1  0
 24 25  1  0
 24 26  1  0
 26 27  1  0
 16  4  1  0
 27 21  1  0
 15  6  1  0
  1 28  1  0
  5 29  1  0
  7 30  1  0
  8 31  1  0
 14 32  1  0
 22 33  1  0
 22 34  1  0
 23 35  1  0
 23 36  1  0
 24 37  1  0
 25 38  1  0
 26 39  1  0
 26 40  1  0
 27 41  1  0
 27 42  1  0
M  CHG  1   1  -1
M  END
>  <UniqueID>  (18) 
18

>  <SMILES>  (18) 
[NH-]C(=O)c1cc2ccc(C(F)(F)F)cc2n1C(=O)C(=O)N1CCC(O)CC1

>  <Energy>  (18) 
88.975179395228

>  <Genealogy>  (18) 
[NH-]C(=O)c1cc2ccc(C(F)(F)F)cc2n1C(=O)C(=O)N1CCC(O)CC1 (protonated)
[NH-]C(=O)c1cc2ccc(C(F)(F)F)cc2n1C(=O)C(=O)N1CCC(O)CC1 (3D coordinates assigned)
[NH-]C(=O)c1cc2ccc(C(F)(F)F)cc2n1C(=O)C(=O)N1CCC(O)CC1 (nonaromatic ring conformer: 88.975179395228 kcal/mol)

>  <smiles>  (18) 
NC(=O)c1cc2ccc(C(F)(F)F)cc2n1C(=O)C(=O)N1CCC(O)CC1

>  <score_type>  (18) 
oracle

>  <origin>  (18) 
adg

>  <m_score__min__energy>  (18) 
-6.6500000000000004

>  <m_primary>  (18) 
energy

$$$$
18:0
     RDKit          3D

 36 37  0  0  0  0  0  0  0  0999 V2000
  149.2360  158.7380  130.6520 N   0  0  0  0  0  0  0  0  0  0  0  0
  148.6820  159.4370  131.7640 C   0  0  0  0  0  0  0  0  0  0  0  0
  149.2650  160.4650  132.1980 O   0  0  0  0  0  0  0  0  0  0  0  0
  147.4130  158.9760  132.3660 C   0  0  0  0  0  0  0  0  0  0  0  0
  146.3250  159.8130  132.6040 C   0  0  0  0  0  0  0  0  0  0  0  0
  145.3900  159.0250  133.2350 C   0  0  0  0  0  0  0  0  0  0  0  0
  144.1150  159.3430  133.6950 C   0  0  0  0  0  0  0  0  0  0  0  0
  143.3550  158.3190  134.2850 C   0  0  0  0  0  0  0  0  0  0  0  0
  143.8660  156.9980  134.3830 C   0  0  0  0  0  0  0  0  0  0  0  0
  143.0540  155.9170  135.0500 C   0  0  0  0  0  0  0  0  0  0  0  0
  142.0880  155.4290  134.1880 F   0  0  0  0  0  0  0  0  0  0  0  0
  143.8660  154.8630  135.4310 F   0  0  0  0  0  0  0  0  0  0  0  0
  142.4360  156.4380  136.1710 F   0  0  0  0  0  0  0  0  0  0  0  0
  145.1750  156.7230  133.9240 C   0  0  0  0  0  0  0  0  0  0  0  0
  145.9170  157.7670  133.3580 C   0  0  0  0  0  0  0  0  0  0  0  0
  147.1590  157.7200  132.8300 N   0  0  0  0  0  0  0  0  0  0  0  0
  147.9870  156.5550  132.7090 C   0  0  0  0  0  0  0  0  0  0  0  0
  149.2340  156.6820  132.5720 O   0  0  0  0  0  0  0  0  0  0  0  0
  147.4070  155.2830  132.7710 O   0  0  0  0  0  0  0  0  0  0  0  0
  148.1570  154.0700  132.8360 C   0  0  0  0  0  0  0  0  0  0  0  0
  148.1040  153.4630  134.2430 C   0  0  0  0  0  0  0  0  0  0  0  0
  147.5190  154.4300  135.2780 C   0  0  0  0  0  0  0  0  0  0  0  0
  147.7090  153.8920  136.6610 C   0  0  0  0  0  0  0  0  0  0  0  0
  146.9580  152.9780  137.0940 O   0  0  0  0  0  0  0  0  0  0  0  0
  148.6830  154.4340  137.4910 O   0  0  0  0  0  0  0  0  0  0  0  0
  149.3320  157.6990  130.6650 H   0  0  0  0  0  0  0  0  0  0  0  0
  146.2330  160.8776  132.3430 H   0  0  0  0  0  0  0  0  0  0  0  0
  143.7154  160.3634  133.5996 H   0  0  0  0  0  0  0  0  0  0  0  0
  142.3516  158.5436  134.6758 H   0  0  0  0  0  0  0  0  0  0  0  0
  145.6005  155.7123  134.0096 H   0  0  0  0  0  0  0  0  0  0  0  0
  147.7381  153.3497  132.1179 H   0  0  0  0  0  0  0  0  0  0  0  0
  149.2058  154.2942  132.5915 H   0  0  0  0  0  0  0  0  0  0  0  0
  147.4795  152.5579  134.2134 H   0  0  0  0  0  0  0  0  0  0  0  0
  149.1359  153.2328  134.5466 H   0  0  0  0  0  0  0  0  0  0  0  0
  148.0276  155.4017  135.1941 H   0  0  0  0  0  0  0  0  0  0  0  0
  146.4424  154.5489  135.0864 H   0  0  0  0  0  0  0  0  0  0  0  0
  1  2  1  0
  2  3  2  0
  2  4  1  0
  4  5  2  0
  5  6  1  0
  6  7  2  0
  7  8  1  0
  8  9  2  0
  9 10  1  0
 10 11  1  0
 10 12  1  0
 10 13  1  0
  9 14  1  0
 14 15  2  0
 15 16  1  0
 16 17  1  0
 17 18  2  0
 17 19  1  0
 19 20  1  0
 20 21  1  0
 21 22  1  0
 22 23  1  0
 23 24  2  0
 23 25  1  0
 16  4  1  0
 15  6  1  0
  1 26  1  0
  5 27  1  0
  7 28  1  0
  8 29  1  0
 14 30  1  0
 20 31  1  0
 20 32  1  0
 21 33  1  0
 21 34  1  0
 22 35  1  0
 22 36  1  0
M  CHG  2   1  -1  25  -1
M  END
>  <UniqueID>  (19) 
19

>  <SMILES>  (19) 
[NH-]C(=O)c1cc2ccc(C(F)(F)F)cc2n1C(=O)OCCCC(=O)[O-]

>  <Energy>  (19) 
70.06363107365672

>  <Genealogy>  (19) 
[NH-]C(=O)c1cc2ccc(C(F)(F)F)cc2n1C(=O)OCCCC(=O)[O-] (protonated)
[NH-]C(=O)c1cc2ccc(C(F)(F)F)cc2n1C(=O)OCCCC(=O)[O-] (3D coordinates assigned)
[NH-]C(=O)c1cc2ccc(C(F)(F)F)cc2n1C(=O)OCCCC(=O)[O-] (optimized conformer: 70.06363107365672 kcal/mol)

>  <smiles>  (19) 
NC(=O)c1cc2ccc(C(F)(F)F)cc2n1C(=O)OCCCC(=O)O

>  <score_type>  (19) 
oracle

>  <origin>  (19) 
adg

>  <m_score__min__energy>  (19) 
-6.2400000000000002

>  <m_primary>  (19) 
energy

$$$$
19:0
     RDKit          3D

 40 42  0  0  0  0  0  0  0  0999 V2000
  147.3550  153.5500  133.6920 C   0  0  0  0  0  0  0  0  0  0  0  0
  146.9140  154.6530  135.0170 S   0  0  0  0  0  0  0  0  0  0  0  0
  148.0960  155.5190  135.3530 O   0  0  0  0  0  0  0  0  0  0  0  0
  146.5380  153.8410  136.2240 O   0  0  0  0  0  0  0  0  0  0  0  0
  145.5170  155.6620  134.5330 C   0  0  0  0  0  0  0  0  0  0  0  0
  145.8260  156.4850  133.3160 C   0  0  0  0  0  0  0  0  0  0  0  0
  146.1640  155.9080  132.2480 O   0  0  0  0  0  0  0  0  0  0  0  0
  145.6440  157.9120  133.3220 N   0  0  0  0  0  0  0  0  0  0  0  0
  146.6210  158.8600  133.3770 C   0  0  0  0  0  0  0  0  0  0  0  0
  148.0740  158.6100  133.2770 C   0  0  0  0  0  0  0  0  0  0  0  0
  148.6090  157.2890  133.3790 N   0  0  0  0  0  0  0  0  0  0  0  0
  148.8530  159.5740  133.0500 O   0  0  0  0  0  0  0  0  0  0  0  0
  146.0690  160.1290  133.5300 C   0  0  0  0  0  0  0  0  0  0  0  0
  144.7080  159.9310  133.5630 C   0  0  0  0  0  0  0  0  0  0  0  0
  143.6760  160.8490  133.7390 C   0  0  0  0  0  0  0  0  0  0  0  0
  142.3610  160.3590  133.7950 C   0  0  0  0  0  0  0  0  0  0  0  0
  142.1040  158.9710  133.6730 C   0  0  0  0  0  0  0  0  0  0  0  0
  140.7000  158.4490  133.7910 C   0  0  0  0  0  0  0  0  0  0  0  0
  139.8950  158.9340  132.6770 N   0  0  0  0  0  0  0  0  0  0  0  0
  139.1280  158.1990  131.8550 C   0  0  0  0  0  0  0  0  0  0  0  0
  138.4610  158.9810  130.9850 N   0  0  0  0  0  0  0  0  0  0  0  0
  138.8660  160.2220  131.3390 C   0  0  0  0  0  0  0  0  0  0  0  0
  139.7300  160.2080  132.3730 N   0  0  0  0  0  0  0  0  0  0  0  0
  143.1770  158.0700  133.5140 C   0  0  0  0  0  0  0  0  0  0  0  0
  144.4760  158.5840  133.4400 C   0  0  0  0  0  0  0  0  0  0  0  0
  147.7325  152.6057  134.1113 H   0  0  0  0  0  0  0  0  0  0  0  0
  146.4686  153.3478  133.0728 H   0  0  0  0  0  0  0  0  0  0  0  0
  148.1365  154.0147  133.0728 H   0  0  0  0  0  0  0  0  0  0  0  0
  144.6619  155.0060  134.3128 H   0  0  0  0  0  0  0  0  0  0  0  0
  145.2832  156.3467  135.3616 H   0  0  0  0  0  0  0  0  0  0  0  0
  149.6420  157.1410  133.3580 H   0  0  0  0  0  0  0  0  0  0  0  0
  147.9860  156.4520  133.3760 H   0  0  0  0  0  0  0  0  0  0  0  0
  146.6064  161.0856  133.6079 H   0  0  0  0  0  0  0  0  0  0  0  0
  143.8843  161.9251  133.8314 H   0  0  0  0  0  0  0  0  0  0  0  0
  141.5237  161.0586  133.9347 H   0  0  0  0  0  0  0  0  0  0  0  0
  140.7174  157.3492  133.7768 H   0  0  0  0  0  0  0  0  0  0  0  0
  140.2607  158.8018  134.7357 H   0  0  0  0  0  0  0  0  0  0  0  0
  139.0544  157.1020  131.8882 H   0  0  0  0  0  0  0  0  0  0  0  0
  138.5275  161.1411  130.8382 H   0  0  0  0  0  0  0  0  0  0  0  0
  142.9966  156.9868  133.4496 H   0  0  0  0  0  0  0  0  0  0  0  0
  1  2  1  0
  2  3  2  0
  2  4  2  0
  2  5  1  0
  5  6  1  0
  6  7  2  0
  6  8  1  0
  8  9  1  0
  9 10  1  0
 10 11  1  0
 10 12  2  0
  9 13  2  0
 13 14  1  0
 14 15  2  0
 15 16  1  0
 16 17  2  0
 17 18  1  0
 18 19  1  0
 19 20  1  0
 20 21  2  0
 21 22  1  0
 22 23  2  0
 17 24  1  0
 24 25  2  0
 25  8  1  0
 25 14  1  0
 23 19  1  0
  1 26  1  0
  1 27  1  0
  1 28  1  0
  5 29  1  0
  5 30  1  0
 11 31  1  0
 11 32  1  0
 13 33  1  0
 15 34  1  0
 16 35  1  0
 18 36  1  0
 18 37  1  0
 20 38  1  0
 22 39  1  0
 24 40  1  0
M  END
>  <UniqueID>  (20) 
20

>  <SMILES>  (20) 
CS(=O)(=O)CC(=O)n1c(C(N)=O)cc2ccc(Cn3cncn3)cc21

>  <Energy>  (20) 
105.67643285386738

>  <Genealogy>  (20) 
CS(=O)(=O)CC(=O)n1c(C(N)=O)cc2ccc(Cn3cncn3)cc21 (3D coordinates assigned)
CS(=O)(=O)CC(=O)n1c(C(N)=O)cc2ccc(Cn3cncn3)cc21 (optimized conformer: 105.67643285386738 kcal/mol)

>  <smiles>  (20) 
CS(=O)(=O)CC(=O)n1c(C(N)=O)cc2ccc(Cn3cncn3)cc21

>  <score_type>  (20) 
oracle

>  <origin>  (20) 
adg

>  <m_score__min__energy>  (20) 
-7.8899999999999997

>  <m_primary>  (20) 
energy

$$$$
20:0
     RDKit          3D

 51 54  0  0  0  0  0  0  0  0999 V2000
  145.1250  153.9190  132.4320 C   0  0  0  0  0  0  0  0  0  0  0  0
  145.9220  153.5140  133.6030 N   0  0  0  0  0  0  0  0  0  0  0  0
  146.0690  154.6210  134.5850 C   0  0  0  0  0  0  0  0  0  0  0  0
  147.4650  155.2750  134.5950 C   0  0  0  0  0  0  0  0  0  0  0  0
  148.0750  155.2210  133.2620 N   0  0  0  0  0  0  0  0  0  0  0  0
  148.8180  156.3410  132.7470 C   0  0  0  0  0  0  0  0  0  0  0  0
  149.9540  156.1440  132.2330 O   0  0  0  0  0  0  0  0  0  0  0  0
  148.2670  157.7160  132.7840 C   0  0  0  0  0  0  0  0  0  0  0  0
  149.0950  158.8180  132.5190 C   0  0  0  0  0  0  0  0  0  0  0  0
  148.5750  160.1130  132.5410 C   0  0  0  0  0  0  0  0  0  0  0  0
  147.2220  160.3240  132.8180 C   0  0  0  0  0  0  0  0  0  0  0  0
  146.3710  159.2340  133.0720 C   0  0  0  0  0  0  0  0  0  0  0  0
  144.9310  159.4510  133.3610 C   0  0  0  0  0  0  0  0  0  0  0  0
  144.4180  160.7690  133.4860 C   0  0  0  0  0  0  0  0  0  0  0  0
  143.0570  160.9890  133.7500 C   0  0  0  0  0  0  0  0  0  0  0  0
  142.2320  159.8780  133.8940 C   0  0  0  0  0  0  0  0  0  0  0  0
  140.8770  159.8090  134.1200 C   0  0  0  0  0  0  0  0  0  0  0  0
  140.5810  158.4490  134.1620 C   0  0  0  0  0  0  0  0  0  0  0  0
  139.2320  157.9220  134.4430 C   0  0  0  0  0  0  0  0  0  0  0  0
  138.5610  157.0690  133.5150 N   0  0  0  0  0  0  0  0  0  0  0  0
  138.6830  158.1820  135.5470 O   0  0  0  0  0  0  0  0  0  0  0  0
  141.7040  157.7040  133.9570 N   0  0  0  0  0  0  0  0  0  0  0  0
  141.7910  156.2760  133.8140 C   0  0  0  0  0  0  0  0  0  0  0  0
  140.8580  155.6350  133.2610 O   0  0  0  0  0  0  0  0  0  0  0  0
  142.9020  155.5870  134.2820 O   0  0  0  0  0  0  0  0  0  0  0  0
  142.7090  158.5950  133.7960 C   0  0  0  0  0  0  0  0  0  0  0  0
  144.0580  158.3470  133.5120 C   0  0  0  0  0  0  0  0  0  0  0  0
  146.9020  157.9320  133.0440 C   0  0  0  0  0  0  0  0  0  0  0  0
  148.1580  153.9300  132.5720 C   0  0  0  0  0  0  0  0  0  0  0  0
  147.2080  152.9030  133.2110 C   0  0  0  0  0  0  0  0  0  0  0  0
  144.1918  154.3932  132.7699 H   0  0  0  0  0  0  0  0  0  0  0  0
  145.7010  154.6338  131.8259 H   0  0  0  0  0  0  0  0  0  0  0  0
  144.8872  153.0324  131.8259 H   0  0  0  0  0  0  0  0  0  0  0  0
  145.3265  155.3962  134.3448 H   0  0  0  0  0  0  0  0  0  0  0  0
  145.9185  154.1814  135.5821 H   0  0  0  0  0  0  0  0  0  0  0  0
  147.3687  156.3259  134.9052 H   0  0  0  0  0  0  0  0  0  0  0  0
  148.1069  154.7252  135.2991 H   0  0  0  0  0  0  0  0  0  0  0  0
  150.1598  158.6600  132.2927 H   0  0  0  0  0  0  0  0  0  0  0  0
  149.2331  160.9710  132.3394 H   0  0  0  0  0  0  0  0  0  0  0  0
  146.8205  161.3479  132.8375 H   0  0  0  0  0  0  0  0  0  0  0  0
  145.0955  161.6284  133.3746 H   0  0  0  0  0  0  0  0  0  0  0  0
  142.6549  162.0089  133.8403 H   0  0  0  0  0  0  0  0  0  0  0  0
  140.1769  160.6487  134.2416 H   0  0  0  0  0  0  0  0  0  0  0  0
  137.5920  156.7360  133.7140 H   0  0  0  0  0  0  0  0  0  0  0  0
  139.0540  156.6970  132.6730 H   0  0  0  0  0  0  0  0  0  0  0  0
  144.4307  157.3172  133.4086 H   0  0  0  0  0  0  0  0  0  0  0  0
  146.2413  157.0719  133.2278 H   0  0  0  0  0  0  0  0  0  0  0  0
  147.8818  154.0677  131.5162 H   0  0  0  0  0  0  0  0  0  0  0  0
  149.1884  153.5537  132.6541 H   0  0  0  0  0  0  0  0  0  0  0  0
  147.0136  152.0988  132.4861 H   0  0  0  0  0  0  0  0  0  0  0  0
  147.6901  152.5101  134.1183 H   0  0  0  0  0  0  0  0  0  0  0  0
  1  2  1  0
  2  3  1  0
  3  4  1  0
  4  5  1  0
  5  6  1  0
  6  7  2  0
  6  8  1  0
  8  9  2  0
  9 10  1  0
 10 11  2  0
 11 12  1  0
 12 13  1  0
 13 14  2  0
 14 15  1  0
 15 16  2  0
 16 17  1  0
 17 18  2  0
 18 19  1  0
 19 20  1  0
 19 21  2  0
 18 22  1  0
 22 23  1  0
 23 24  2  0
 23 25  1  0
 22 26  1  0
 26 27  2  0
 12 28  2  0
  5 29  1  0
 29 30  1  0
 30  2  1  0
 28  8  1  0
 27 13  1  0
 26 16  1  0
  1 31  1  0
  1 32  1  0
  1 33  1  0
  3 34  1  0
  3 35  1  0
  4 36  1  0
  4 37  1  0
  9 38  1  0
 10 39  1  0
 11 40  1  0
 14 41  1  0
 15 42  1  0
 17 43  1  0
 20 44  1  0
 20 45  1  0
 27 46  1  0
 28 47  1  0
 29 48  1  0
 29 49  1  0
 30 50  1  0
 30 51  1  0
M  CHG  1  25  -1
M  END
>  <UniqueID>  (21) 
21

>  <SMILES>  (21) 
CN1CCN(C(=O)c2cccc(-c3ccc4cc(C(N)=O)n(C(=O)[O-])c4c3)c2)CC1

>  <Energy>  (21) 
110.55406123987999

>  <Genealogy>  (21) 
CN1CCN(C(=O)c2cccc(-c3ccc4cc(C(N)=O)n(C(=O)[O-])c4c3)c2)CC1 (protonated)
CN1CCN(C(=O)c2cccc(-c3ccc4cc(C(N)=O)n(C(=O)[O-])c4c3)c2)CC1 (3D coordinates assigned)
CN1CCN(C(=O)c2cccc(-c3ccc4cc(C(N)=O)n(C(=O)[O-])c4c3)c2)CC1 (nonaromatic ring conformer: 110.55406123987999 kcal/mol)

>  <smiles>  (21) 
CN1CCN(C(=O)c2cccc(-c3ccc4cc(C(N)=O)n(C(=O)O)c4c3)c2)CC1

>  <score_type>  (21) 
oracle

>  <origin>  (21) 
adg

>  <m_score__min__energy>  (21) 
-9.5199999999999996

>  <m_primary>  (21) 
energy

$$$$
21:0
     RDKit          3D

 33 34  0  0  0  0  0  0  0  0999 V2000
   -2.6177    2.3941   -2.3356 N   0  0  0  0  0  0  0  0  0  0  0  0
   -3.0855    1.2628   -1.6065 C   0  0  0  0  0  0  0  0  0  0  0  0
   -3.1872    0.1730   -2.1981 O   0  0  0  0  0  0  0  0  0  0  0  0
   -4.2105    2.4192   -0.4772 C   0  0  0  0  0  0  0  0  0  0  0  0
   -2.0795    0.1997    0.5856 I   0  0  0  0  0  0  0  0  0  0  0  0
   -2.9563   -2.1992    2.8323 O   0  0  0  0  0  0  0  0  0  0  0  0
    0.9233    0.4233   -0.6316 C   0  0  0  0  0  0  0  0  0  0  0  0
   -0.7338   -0.3862   -1.3598 O   0  0  0  0  0  0  0  0  0  0  0  0
    1.0130    0.4014   -0.0584 N   0  0  0  0  0  0  0  0  0  0  0  0
    2.0058    0.0751   -0.9152 C   0  0  0  0  0  0  0  0  0  0  0  0
    2.0309   -0.5688   -2.2063 C   0  0  0  0  0  0  0  0  0  0  0  0
    0.9163   -0.9518   -2.9904 N   0  0  0  0  0  0  0  0  0  0  0  0
    3.1564   -0.8567   -2.7722 O   0  0  0  0  0  0  0  0  0  0  0  0
    3.2119    0.5096   -0.3234 C   0  0  0  0  0  0  0  0  0  0  0  0
    2.9226    1.0826    0.8620 C   0  0  0  0  0  0  0  0  0  0  0  0
    3.7679    1.6575    1.8027 C   0  0  0  0  0  0  0  0  0  0  0  0
    3.2420    2.1994    2.9778 C   0  0  0  0  0  0  0  0  0  0  0  0
    1.8860    2.1444    3.1663 C   0  0  0  0  0  0  0  0  0  0  0  0
    1.2750    2.6834    4.3878 C   0  0  0  0  0  0  0  0  0  0  0  0
    2.0075    2.2324    5.4692 F   0  0  0  0  0  0  0  0  0  0  0  0
   -0.0216    2.2461    4.5698 F   0  0  0  0  0  0  0  0  0  0  0  0
    1.3258    4.0762    4.4348 F   0  0  0  0  0  0  0  0  0  0  0  0
    1.0677    1.5587    2.1951 C   0  0  0  0  0  0  0  0  0  0  0  0
    1.5628    1.0201    1.0326 C   0  0  0  0  0  0  0  0  0  0  0  0
   -2.5153    2.3332   -3.3715 H   0  0  0  0  0  0  0  0  0  0  0  0
   -4.4056    0.7419   -0.0117 H   0  0  0  0  0  0  0  0  0  0  0  0
   -3.6428    2.3978    0.0795 H   0  0  0  0  0  0  0  0  0  0  0  0
   -2.4507   -1.9234    1.0337 H   0  0  0  0  0  0  0  0  0  0  0  0
    1.0028   -1.8374   -3.5619 H   0  0  0  0  0  0  0  0  0  0  0  0
    4.2117    0.4180   -0.7286 H   0  0  0  0  0  0  0  0  0  0  0  0
    4.8352    1.6963    1.6486 H   0  0  0  0  0  0  0  0  0  0  0  0
    3.8981    2.6467    3.7022 H   0  0  0  0  0  0  0  0  0  0  0  0
    0.0396    1.5464    2.4019 H   0  0  0  0  0  0  0  0  0  0  0  0
  1  2  1  0
  2  3  2  0
  2  4  1  0
  4  5  1  0
  5  6  1  0
  5  7  1  0
  7  8  2  0
  7  9  1  0
  9 10  1  0
 10 11  1  0
 11 12  1  0
 11 13  2  0
 10 14  2  0
 14 15  1  0
 15 16  2  0
 16 17  1  0
 17 18  2  0
 18 19  1  0
 19 20  1  0
 19 21  1  0
 19 22  1  0
 18 23  1  0
 23 24  2  0
 24  9  1  0
 24 15  1  0
  1 25  1  0
  4 26  1  0
  4 27  1  0
  6 28  1  0
 12 29  1  0
 14 30  1  0
 16 31  1  0
 17 32  1  0
 23 33  1  0
M  CHG  2   1  -1  12  -1
M  END
>  <UniqueID>  (22) 
22

>  <SMILES>  (22) 
[NH-]C(=O)CI(O)C(=O)n1c(C([NH-])=O)cc2ccc(C(F)(F)F)cc21

>  <Energy>  (22) 
1405988931.9670866

>  <Genealogy>  (22) 
[NH-]C(=O)CI(O)C(=O)n1c(C([NH-])=O)cc2ccc(C(F)(F)F)cc21 (protonated)
[NH-]C(=O)CI(O)C(=O)n1c(C([NH-])=O)cc2ccc(C(F)(F)F)cc21 (3D coordinates assigned)
[NH-]C(=O)CI(O)C(=O)n1c(C([NH-])=O)cc2ccc(C(F)(F)F)cc21 (optimized conformer: 1405988931.9670866 kcal/mol)

>  <smiles>  (22) 
NC(=O)CI(O)C(=O)n1c(C(N)=O)cc2ccc(C(F)(F)F)cc21

>  <m_score__min__energy>  (22) 
nan

>  <m_primary>  (22) 
energy

$$$$
22:0
     RDKit          3D

 40 42  0  0  0  0  0  0  0  0999 V2000
  139.4560  159.5240  131.0630 C   0  0  0  0  0  0  0  0  0  0  0  0
  139.6860  158.9230  132.3730 N   0  0  0  0  0  0  0  0  0  0  0  0
  139.0270  157.7250  132.8600 C   0  0  0  0  0  0  0  0  0  0  0  0
  139.5310  157.5240  134.3070 C   0  0  1  0  0  0  0  0  0  0  0  0
  139.9650  156.1740  134.4850 O   0  0  0  0  0  0  0  0  0  0  0  0
  140.1680  155.2830  133.4230 C   0  0  0  0  0  0  0  0  0  0  0  0
  139.2240  155.0400  132.6230 O   0  0  0  0  0  0  0  0  0  0  0  0
  141.4500  154.6420  133.2610 N   0  0  0  0  0  0  0  0  0  0  0  0
  142.6730  155.2320  133.3620 C   0  0  0  0  0  0  0  0  0  0  0  0
  142.9310  156.6850  133.4040 C   0  0  0  0  0  0  0  0  0  0  0  0
  142.5380  157.5240  132.3160 N   0  0  0  0  0  0  0  0  0  0  0  0
  143.5760  157.1770  134.3790 O   0  0  0  0  0  0  0  0  0  0  0  0
  143.6910  154.2840  133.3080 C   0  0  0  0  0  0  0  0  0  0  0  0
  143.0550  153.0800  133.1370 C   0  0  0  0  0  0  0  0  0  0  0  0
  143.5940  151.8070  132.9810 C   0  0  0  0  0  0  0  0  0  0  0  0
  142.7090  150.7330  132.8020 C   0  0  0  0  0  0  0  0  0  0  0  0
  141.3070  150.9390  132.8100 C   0  0  0  0  0  0  0  0  0  0  0  0
  140.3700  149.7810  132.5540 C   0  0  0  0  0  0  0  0  0  0  0  0
  140.1940  149.0720  133.7330 F   0  0  0  0  0  0  0  0  0  0  0  0
  140.8910  148.9370  131.5880 F   0  0  0  0  0  0  0  0  0  0  0  0
  139.1340  150.2350  132.1110 F   0  0  0  0  0  0  0  0  0  0  0  0
  140.7960  152.2510  132.9580 C   0  0  0  0  0  0  0  0  0  0  0  0
  141.7030  153.3150  133.1130 C   0  0  0  0  0  0  0  0  0  0  0  0
  140.7020  158.5110  134.5210 C   0  0  0  0  0  0  0  0  0  0  0  0
  140.6490  159.3580  133.3130 C   0  0  0  0  0  0  0  0  0  0  0  0
  141.4000  160.3580  133.1250 O   0  0  0  0  0  0  0  0  0  0  0  0
  139.0655  160.5443  131.1912 H   0  0  0  0  0  0  0  0  0  0  0  0
  140.4034  159.5613  130.5053 H   0  0  0  0  0  0  0  0  0  0  0  0
  138.7258  158.9193  130.5053 H   0  0  0  0  0  0  0  0  0  0  0  0
  137.9351  157.8578  132.8500 H   0  0  0  0  0  0  0  0  0  0  0  0
  139.2539  156.8536  132.2282 H   0  0  0  0  0  0  0  0  0  0  0  0
  138.7324  157.7156  135.0389 H   0  0  0  0  0  0  0  0  0  0  0  0
  142.7340  158.5500  132.3450 H   0  0  0  0  0  0  0  0  0  0  0  0
  142.0960  157.1150  131.4610 H   0  0  0  0  0  0  0  0  0  0  0  0
  144.7737  154.4619  133.3858 H   0  0  0  0  0  0  0  0  0  0  0  0
  144.6822  151.6471  132.9975 H   0  0  0  0  0  0  0  0  0  0  0  0
  143.1083  149.7188  132.6537 H   0  0  0  0  0  0  0  0  0  0  0  0
  139.7115  152.4347  132.9519 H   0  0  0  0  0  0  0  0  0  0  0  0
  140.5521  159.1106  135.4309 H   0  0  0  0  0  0  0  0  0  0  0  0
  141.6717  158.0096  134.6560 H   0  0  0  0  0  0  0  0  0  0  0  0
  1  2  1  0
  2  3  1  0
  3  4  1  0
  4  5  1  0
  5  6  1  0
  6  7  2  0
  6  8  1  0
  8  9  1  0
  9 10  1  0
 10 11  1  0
 10 12  2  0
  9 13  2  0
 13 14  1  0
 14 15  2  0
 15 16  1  0
 16 17  2  0
 17 18  1  0
 18 19  1  0
 18 20  1  0
 18 21  1  0
 17 22  1  0
 22 23  2  0
  4 24  1  0
 24 25  1  0
 25 26  2  0
 25  2  1  0
 23  8  1  0
 23 14  1  0
  1 27  1  0
  1 28  1  0
  1 29  1  0
  3 30  1  0
  3 31  1  0
  4 32  1  1
 11 33  1  0
 11 34  1  0
 13 35  1  0
 15 36  1  0
 16 37  1  0
 22 38  1  0
 24 39  1  0
 24 40  1  0
M  END
>  <UniqueID>  (23) 
23

>  <SMILES>  (23) 
CN1C[C@@H](OC(=O)n2c(C(N)=O)cc3ccc(C(F)(F)F)cc32)CC1=O

>  <Energy>  (23) 
85.5493793482308

>  <Genealogy>  (23) 
CN1C[C@@H](OC(=O)n2c(C(N)=O)cc3ccc(C(F)(F)F)cc32)CC1=O (chirality)
CN1C[C@@H](OC(=O)n2c(C(N)=O)cc3ccc(C(F)(F)F)cc32)CC1=O (3D coordinates assigned)
CN1C[C@@H](OC(=O)n2c(C(N)=O)cc3ccc(C(F)(F)F)cc32)CC1=O (nonaromatic ring conformer: 85.5493793482308 kcal/mol)

>  <smiles>  (23) 
CN1CC(OC(=O)n2c(C(N)=O)cc3ccc(C(F)(F)F)cc32)CC1=O

>  <score_type>  (23) 
oracle

>  <origin>  (23) 
adg

>  <m_score__min__energy>  (23) 
-7.25

>  <m_primary>  (23) 
energy

$$$$
23:0
     RDKit          3D

 35 37  0  0  0  0  0  0  0  0999 V2000
  140.5970  159.3140  131.2800 C   0  0  0  0  0  0  0  0  0  0  0  0
  140.0810  158.6960  132.5540 C   0  0  0  0  0  0  0  0  0  0  0  0
  138.8110  158.1070  132.5620 C   0  0  0  0  0  0  0  0  0  0  0  0
  138.3270  157.5270  133.7290 C   0  0  0  0  0  0  0  0  0  0  0  0
  139.0780  157.5390  134.8580 N   0  0  0  0  0  0  0  0  0  0  0  0
  140.3140  158.1050  134.9130 C   0  0  0  0  0  0  0  0  0  0  0  0
  141.0200  158.0620  136.2170 C   0  0  0  0  0  0  0  0  0  0  0  0
  141.3340  156.9750  136.7670 O   0  0  0  0  0  0  0  0  0  0  0  0
  141.3620  159.2540  136.8450 O   0  0  0  0  0  0  0  0  0  0  0  0
  140.8520  158.7040  133.7420 C   0  0  0  0  0  0  0  0  0  0  0  0
  142.2000  159.3100  133.7300 C   0  0  0  0  0  0  0  0  0  0  0  0
  142.3430  160.7180  133.7690 C   0  0  0  0  0  0  0  0  0  0  0  0
  143.6190  161.3050  133.7370 C   0  0  0  0  0  0  0  0  0  0  0  0
  144.7240  160.4600  133.6720 C   0  0  0  0  0  0  0  0  0  0  0  0
  146.0640  160.7610  133.6040 C   0  0  0  0  0  0  0  0  0  0  0  0
  146.7180  159.5320  133.5470 C   0  0  0  0  0  0  0  0  0  0  0  0
  148.1880  159.3940  133.5530 C   0  0  0  0  0  0  0  0  0  0  0  0
  148.8770  158.9320  134.7110 N   0  0  0  0  0  0  0  0  0  0  0  0
  148.8520  159.7370  132.5370 O   0  0  0  0  0  0  0  0  0  0  0  0
  145.8170  158.5080  133.5690 N   0  0  0  0  0  0  0  0  0  0  0  0
  146.0790  157.1030  133.4320 C   0  0  0  0  0  0  0  0  0  0  0  0
  145.4530  156.2670  134.1330 O   0  0  0  0  0  0  0  0  0  0  0  0
  147.0070  156.6510  132.5010 O   0  0  0  0  0  0  0  0  0  0  0  0
  144.6000  159.0940  133.6490 C   0  0  0  0  0  0  0  0  0  0  0  0
  143.3400  158.4830  133.6610 C   0  0  0  0  0  0  0  0  0  0  0  0
  141.2844  160.1373  131.5241 H   0  0  0  0  0  0  0  0  0  0  0  0
  141.1310  158.5522  130.6930 H   0  0  0  0  0  0  0  0  0  0  0  0
  139.7522  159.7035  130.6930 H   0  0  0  0  0  0  0  0  0  0  0  0
  138.1984  158.1031  131.6483 H   0  0  0  0  0  0  0  0  0  0  0  0
  137.3324  157.0572  133.7366 H   0  0  0  0  0  0  0  0  0  0  0  0
  141.4491  161.3566  133.8247 H   0  0  0  0  0  0  0  0  0  0  0  0
  143.7414  162.3979  133.7625 H   0  0  0  0  0  0  0  0  0  0  0  0
  146.5227  161.7608  133.5963 H   0  0  0  0  0  0  0  0  0  0  0  0
  149.2330  157.9520  134.7690 H   0  0  0  0  0  0  0  0  0  0  0  0
  143.2423  157.3882  133.6178 H   0  0  0  0  0  0  0  0  0  0  0  0
  1  2  1  0
  2  3  2  0
  3  4  1  0
  4  5  2  0
  5  6  1  0
  6  7  1  0
  7  8  2  0
  7  9  1  0
  6 10  2  0
 10 11  1  0
 11 12  2  0
 12 13  1  0
 13 14  2  0
 14 15  1  0
 15 16  2  0
 16 17  1  0
 17 18  1  0
 17 19  2  0
 16 20  1  0
 20 21  1  0
 21 22  2  0
 21 23  1  0
 20 24  1  0
 24 25  2  0
 10  2  1  0
 25 11  1  0
 24 14  1  0
  1 26  1  0
  1 27  1  0
  1 28  1  0
  3 29  1  0
  4 30  1  0
 12 31  1  0
 13 32  1  0
 15 33  1  0
 18 34  1  0
 25 35  1  0
M  CHG  3   9  -1  18  -1  23  -1
M  END
>  <UniqueID>  (24) 
24

>  <SMILES>  (24) 
Cc1ccnc(C(=O)[O-])c1-c1ccc2cc(C([NH-])=O)n(C(=O)[O-])c2c1

>  <Energy>  (24) 
89.17516380260558

>  <Genealogy>  (24) 
Cc1ccnc(C(=O)[O-])c1-c1ccc2cc(C([NH-])=O)n(C(=O)[O-])c2c1 (protonated)
Cc1ccnc(C(=O)[O-])c1-c1ccc2cc(C([NH-])=O)n(C(=O)[O-])c2c1 (3D coordinates assigned)
Cc1ccnc(C(=O)[O-])c1-c1ccc2cc(C([NH-])=O)n(C(=O)[O-])c2c1 (optimized conformer: 89.17516380260558 kcal/mol)

>  <smiles>  (24) 
Cc1ccnc(C(=O)O)c1-c1ccc2cc(C(N)=O)n(C(=O)O)c2c1

>  <score_type>  (24) 
oracle

>  <origin>  (24) 
adg

>  <m_score__min__energy>  (24) 
-7.4699999999999998

>  <m_primary>  (24) 
energy

$$$$
24:0
     RDKit          3D

 39 40  0  0  0  0  0  0  0  0999 V2000
  141.6230  157.4360  133.5660 C   0  0  0  0  0  0  0  0  0  0  0  0
  142.1160  158.5060  134.5510 C   0  0  2  0  0  0  0  0  0  0  0  0
  141.1280  159.6290  134.7090 C   0  0  0  0  0  0  0  0  0  0  0  0
  140.6190  160.1910  133.7020 O   0  0  0  0  0  0  0  0  0  0  0  0
  140.8060  160.0840  135.9810 O   0  0  0  0  0  0  0  0  0  0  0  0
  143.4690  159.0450  134.1320 C   0  0  0  0  0  0  0  0  0  0  0  0
  143.6960  160.4460  134.1060 C   0  0  0  0  0  0  0  0  0  0  0  0
  144.9470  160.9640  133.7240 C   0  0  0  0  0  0  0  0  0  0  0  0
  145.9530  160.0630  133.3870 C   0  0  0  0  0  0  0  0  0  0  0  0
  147.2470  160.2920  132.9750 C   0  0  0  0  0  0  0  0  0  0  0  0
  147.8020  159.0270  132.7770 C   0  0  0  0  0  0  0  0  0  0  0  0
  149.2080  158.7960  132.3870 C   0  0  0  0  0  0  0  0  0  0  0  0
  149.6920  157.4650  132.2250 N   0  0  0  0  0  0  0  0  0  0  0  0
  149.9790  159.7690  132.1650 O   0  0  0  0  0  0  0  0  0  0  0  0
  146.8850  158.0570  133.0570 N   0  0  0  0  0  0  0  0  0  0  0  0
  147.0470  156.6350  132.9270 C   0  0  0  0  0  0  0  0  0  0  0  0
  147.0370  156.1220  131.7770 O   0  0  0  0  0  0  0  0  0  0  0  0
  147.2490  155.7960  134.1370 C   0  0  0  0  0  0  0  0  0  0  0  0
  146.7270  156.1940  135.2160 O   0  0  0  0  0  0  0  0  0  0  0  0
  148.0030  154.5590  134.1380 N   0  0  0  0  0  0  0  0  0  0  0  0
  148.0880  153.7960  135.3900 C   0  0  0  0  0  0  0  0  0  0  0  0
  148.6640  154.0430  132.9310 C   0  0  0  0  0  0  0  0  0  0  0  0
  145.7590  158.7080  133.4240 C   0  0  0  0  0  0  0  0  0  0  0  0
  144.5180  158.1640  133.7740 C   0  0  0  0  0  0  0  0  0  0  0  0
  141.2269  156.5763  134.1264 H   0  0  0  0  0  0  0  0  0  0  0  0
  140.8287  157.8584  132.9330 H   0  0  0  0  0  0  0  0  0  0  0  0
  142.4602  157.1068  132.9330 H   0  0  0  0  0  0  0  0  0  0  0  0
  142.2186  158.0171  135.5310 H   0  0  0  0  0  0  0  0  0  0  0  0
  142.8852  161.1339  134.3875 H   0  0  0  0  0  0  0  0  0  0  0  0
  145.1249  162.0491  133.6926 H   0  0  0  0  0  0  0  0  0  0  0  0
  147.7388  161.2655  132.8323 H   0  0  0  0  0  0  0  0  0  0  0  0
  149.1130  156.7380  131.7500 H   0  0  0  0  0  0  0  0  0  0  0  0
  148.0113  154.4842  136.2447 H   0  0  0  0  0  0  0  0  0  0  0  0
  147.2655  153.0667  135.4315 H   0  0  0  0  0  0  0  0  0  0  0  0
  149.0508  153.2656  135.4315 H   0  0  0  0  0  0  0  0  0  0  0  0
  149.5003  153.3902  133.2216 H   0  0  0  0  0  0  0  0  0  0  0  0
  147.9406  153.4683  132.3340 H   0  0  0  0  0  0  0  0  0  0  0  0
  149.0459  154.8843  132.3340 H   0  0  0  0  0  0  0  0  0  0  0  0
  144.3609  157.0753  133.7710 H   0  0  0  0  0  0  0  0  0  0  0  0
  1  2  1  0
  2  3  1  0
  3  4  2  0
  3  5  1  0
  2  6  1  0
  6  7  2  0
  7  8  1  0
  8  9  2  0
  9 10  1  0
 10 11  2  0
 11 12  1  0
 12 13  1  0
 12 14  2  0
 11 15  1  0
 15 16  1  0
 16 17  2  0
 16 18  1  0
 18 19  2  0
 18 20  1  0
 20 21  1  0
 20 22  1  0
 15 23  1  0
 23 24  2  0
 24  6  1  0
 23  9  1  0
  1 25  1  0
  1 26  1  0
  1 27  1  0
  2 28  1  1
  7 29  1  0
  8 30  1  0
 10 31  1  0
 13 32  1  0
 21 33  1  0
 21 34  1  0
 21 35  1  0
 22 36  1  0
 22 37  1  0
 22 38  1  0
 24 39  1  0
M  CHG  2   5  -1  13  -1
M  END
>  <UniqueID>  (25) 
25

>  <SMILES>  (25) 
C[C@H](C(=O)[O-])c1ccc2cc(C([NH-])=O)n(C(=O)C(=O)N(C)C)c2c1

>  <Energy>  (25) 
77.13325579446409

>  <Genealogy>  (25) 
C[C@H](C(=O)[O-])c1ccc2cc(C([NH-])=O)n(C(=O)C(=O)N(C)C)c2c1 (protonated)
C[C@H](C(=O)[O-])c1ccc2cc(C([NH-])=O)n(C(=O)C(=O)N(C)C)c2c1 (3D coordinates assigned)
C[C@H](C(=O)[O-])c1ccc2cc(C([NH-])=O)n(C(=O)C(=O)N(C)C)c2c1 (optimized conformer: 77.13325579446409 kcal/mol)

>  <smiles>  (25) 
C[C@H](C(=O)O)c1ccc2cc(C(N)=O)n(C(=O)C(=O)N(C)C)c2c1

>  <score_type>  (25) 
oracle

>  <origin>  (25) 
adg

>  <m_score__min__energy>  (25) 
-7.0700000000000003

>  <m_primary>  (25) 
energy

$$$$
25:0
     RDKit          3D

 44 46  0  0  0  0  0  0  0  0999 V2000
  140.7995  149.4439  132.8182 H   0  0  0  0  0  0  0  0  0  0  0  0
  141.4360  150.3190  133.0160 C   0  0  0  0  0  0  0  0  0  0  0  0
  142.4075  150.1907  133.5158 H   0  0  0  0  0  0  0  0  0  0  0  0
  141.0310  151.5320  132.6510 C   0  0  0  0  0  0  0  0  0  0  0  0
  140.0578  151.6491  132.1519 H   0  0  0  0  0  0  0  0  0  0  0  0
  141.8620  152.7210  132.9030 C   0  0  0  0  0  0  0  0  0  0  0  0
  142.7244  152.9291  132.2527 H   0  0  0  0  0  0  0  0  0  0  0  0
  141.5810  153.5500  133.9120 C   0  0  0  0  0  0  0  0  0  0  0  0
  140.7219  153.3226  134.5602 H   0  0  0  0  0  0  0  0  0  0  0  0
  142.3800  154.7600  134.1900 C   0  0  0  0  0  0  0  0  0  0  0  0
  143.4340  154.9910  133.5380 O   0  0  0  0  0  0  0  0  0  0  0  0
  141.9740  155.6700  135.2260 N   0  0  0  0  0  0  0  0  0  0  0  0
  141.7530  157.0090  135.1100 C   0  0  0  0  0  0  0  0  0  0  0  0
  142.0130  157.8270  133.9090 C   0  0  0  0  0  0  0  0  0  0  0  0
  142.2710  159.0530  134.0410 O   0  0  0  0  0  0  0  0  0  0  0  0
  142.0300  157.2460  132.6030 N   0  0  0  0  0  0  0  0  0  0  0  0
  142.0100  156.2120  132.4710 H   0  0  0  0  0  0  0  0  0  0  0  0
  142.1640  157.8530  131.7640 H   0  0  0  0  0  0  0  0  0  0  0  0
  141.2610  157.5300  136.3050 C   0  0  0  0  0  0  0  0  0  0  0  0
  140.9856  158.5742  136.5141 H   0  0  0  0  0  0  0  0  0  0  0  0
  141.1930  156.4600  137.1680 C   0  0  0  0  0  0  0  0  0  0  0  0
  140.7580  156.3990  138.4880 C   0  0  0  0  0  0  0  0  0  0  0  0
  140.4227  157.3035  139.0166 H   0  0  0  0  0  0  0  0  0  0  0  0
  140.7600  155.1460  139.1260 C   0  0  0  0  0  0  0  0  0  0  0  0
  140.4387  155.0681  140.1752 H   0  0  0  0  0  0  0  0  0  0  0  0
  141.1720  153.9830  138.4300 C   0  0  0  0  0  0  0  0  0  0  0  0
  141.1720  152.7060  139.0880 N   0  0  0  0  0  0  0  0  0  0  0  0
  141.1400  152.5730  140.5350 C   0  0  0  0  0  0  0  0  0  0  0  0
  141.7340  153.3699  141.0063 H   0  0  0  0  0  0  0  0  0  0  0  0
  140.1158  152.6579  140.9272 H   0  0  0  0  0  0  0  0  0  0  0  0
  141.7460  151.2090  140.8390 C   0  0  0  0  0  0  0  0  0  0  0  0
  142.7841  151.3205  141.1852 H   0  0  0  0  0  0  0  0  0  0  0  0
  141.1912  150.6896  141.6343 H   0  0  0  0  0  0  0  0  0  0  0  0
  141.7050  150.4290  139.5270 C   0  0  0  0  0  0  0  0  0  0  0  0
  142.6251  149.8390  139.4030 H   0  0  0  0  0  0  0  0  0  0  0  0
  140.8620  149.7228  139.5015 H   0  0  0  0  0  0  0  0  0  0  0  0
  141.5930  151.4810  138.4210 C   0  0  1  0  0  0  0  0  0  0  0  0
  142.5521  151.6131  137.8988 H   0  0  0  0  0  0  0  0  0  0  0  0
  140.6150  151.0710  137.3560 C   0  0  0  0  0  0  0  0  0  0  0  0
  139.4540  150.6910  137.6650 O   0  0  0  0  0  0  0  0  0  0  0  0
  140.9870  151.1130  136.0180 O   0  0  0  0  0  0  0  0  0  0  0  0
  141.5960  154.0830  137.0890 C   0  0  0  0  0  0  0  0  0  0  0  0
  141.8999  153.1879  136.5264 H   0  0  0  0  0  0  0  0  0  0  0  0
  141.6210  155.3470  136.4910 C   0  0  0  0  0  0  0  0  0  0  0  0
  1  2  1  0
  2  3  1  0
  2  4  2  0
  4  5  1  0
  4  6  1  0
  6  7  1  0
  6  8  2  0
  8  9  1  0
  8 10  1  0
 10 11  2  0
 10 12  1  0
 12 13  1  0
 13 14  1  0
 14 15  2  0
 14 16  1  0
 16 17  1  0
 16 18  1  0
 13 19  2  0
 19 20  1  0
 19 21  1  0
 21 22  2  0
 22 23  1  0
 22 24  1  0
 24 25  1  0
 24 26  2  0
 26 27  1  0
 27 28  1  0
 28 29  1  0
 28 30  1  0
 28 31  1  0
 31 32  1  0
 31 33  1  0
 31 34  1  0
 34 35  1  0
 34 36  1  0
 34 37  1  0
 37 38  1  6
 37 39  1  0
 39 40  2  0
 39 41  1  0
 26 42  1  0
 42 43  1  0
 42 44  2  0
 44 12  1  0
 44 21  1  0
 37 27  1  0
M  CHG  1  41  -1
M  END
>  <UniqueID>  (26) 
26

>  <SMILES>  (26) 
C=C/C=C/C(=O)n1c(C(N)=O)cc2ccc(N3CCC[C@H]3C(=O)[O-])cc21

>  <Energy>  (26) 
87.76745836818608

>  <Genealogy>  (26) 
C=C/C=C/C(=O)n1c(C(N)=O)cc2ccc(N3CCCC3C(=O)[O-])cc21 (protonated)
C=C/C=C/C(=O)n1c(C(N)=O)cc2ccc(N3CCC[C@H]3C(=O)[O-])cc21 (chirality)
C=C/C=C/C(=O)n1c(C(N)=O)cc2ccc(N3CCC[C@H]3C(=O)[O-])cc21 (cis-trans isomerization)
C=C/C=C/C(=O)n1c(C(N)=O)cc2ccc(N3CCC[C@H]3C(=O)[O-])cc21 (3D coordinates assigned)
C=C/C=C/C(=O)n1c(C(N)=O)cc2ccc(N3CCC[C@H]3C(=O)[O-])cc21 (nonaromatic ring conformer: 87.76745836818608 kcal/mol)

>  <smiles>  (26) 
C=C/C=C/C(=O)n1c(C(N)=O)cc2ccc(N3CCCC3C(=O)O)cc21

>  <score_type>  (26) 
oracle

>  <origin>  (26) 
adg

>  <m_score__min__energy>  (26) 
-8.6600000000000001

>  <m_primary>  (26) 
energy

$$$$
26:0
     RDKit          3D

 45 46  0  0  0  0  0  0  0  0999 V2000
  140.2430  159.0710  131.2710 C   0  0  0  0  0  0  0  0  0  0  0  0
  141.0450  158.9210  132.4770 N   0  0  0  0  0  0  0  0  0  0  0  0
  140.6100  158.1030  133.5740 C   0  0  0  0  0  0  0  0  0  0  0  0
  139.5000  157.5070  133.5120 O   0  0  0  0  0  0  0  0  0  0  0  0
  141.4470  157.9730  134.8230 C   0  0  1  0  0  0  0  0  0  0  0  0
  142.7150  158.6050  134.6120 O   0  0  0  0  0  0  0  0  0  0  0  0
  143.6040  158.2580  133.5860 C   0  0  0  0  0  0  0  0  0  0  0  0
  143.2950  157.3770  132.7380 O   0  0  0  0  0  0  0  0  0  0  0  0
  144.8800  158.9100  133.5020 N   0  0  0  0  0  0  0  0  0  0  0  0
  145.1380  160.2490  133.5040 C   0  0  0  0  0  0  0  0  0  0  0  0
  144.1510  161.3240  133.7380 C   0  0  0  0  0  0  0  0  0  0  0  0
  142.7530  161.0500  133.7380 N   0  0  0  0  0  0  0  0  0  0  0  0
  144.5500  162.4930  133.9850 O   0  0  0  0  0  0  0  0  0  0  0  0
  146.5020  160.4830  133.3330 C   0  0  0  0  0  0  0  0  0  0  0  0
  147.0750  159.2360  133.2330 C   0  0  0  0  0  0  0  0  0  0  0  0
  148.4070  158.8740  133.0560 C   0  0  0  0  0  0  0  0  0  0  0  0
  148.7110  157.5050  132.9660 C   0  0  0  0  0  0  0  0  0  0  0  0
  147.6840  156.5280  133.0260 C   0  0  0  0  0  0  0  0  0  0  0  0
  148.0250  155.0610  132.9640 C   0  0  0  0  0  0  0  0  0  0  0  0
  149.2510  154.8680  132.3500 F   0  0  0  0  0  0  0  0  0  0  0  0
  148.0900  154.5210  134.2370 F   0  0  0  0  0  0  0  0  0  0  0  0
  147.0520  154.3970  132.2420 F   0  0  0  0  0  0  0  0  0  0  0  0
  146.3460  156.9380  133.2280 C   0  0  0  0  0  0  0  0  0  0  0  0
  146.0750  158.3050  133.3360 C   0  0  0  0  0  0  0  0  0  0  0  0
  140.7190  158.5610  136.0730 C   0  0  0  0  0  0  0  0  0  0  0  0
  139.2320  158.1480  136.0710 C   0  0  0  0  0  0  0  0  0  0  0  0
  141.3670  158.0740  137.3840 C   0  0  0  0  0  0  0  0  0  0  0  0
  140.8030  159.9670  136.0560 O   0  0  0  0  0  0  0  0  0  0  0  0
  139.1967  159.2667  131.5484 H   0  0  0  0  0  0  0  0  0  0  0  0
  140.6283  159.9127  130.6767 H   0  0  0  0  0  0  0  0  0  0  0  0
  140.2981  158.1470  130.6767 H   0  0  0  0  0  0  0  0  0  0  0  0
  141.9520  159.4360  132.5410 H   0  0  0  0  0  0  0  0  0  0  0  0
  141.6073  156.9045  135.0292 H   0  0  0  0  0  0  0  0  0  0  0  0
  142.2710  160.7170  134.6020 H   0  0  0  0  0  0  0  0  0  0  0  0
  147.0114  161.4569  133.2877 H   0  0  0  0  0  0  0  0  0  0  0  0
  149.1975  159.6360  132.9886 H   0  0  0  0  0  0  0  0  0  0  0  0
  149.7574  157.1872  132.8477 H   0  0  0  0  0  0  0  0  0  0  0  0
  145.5359  156.1973  133.2986 H   0  0  0  0  0  0  0  0  0  0  0  0
  138.8774  158.0495  137.1076 H   0  0  0  0  0  0  0  0  0  0  0  0
  138.6390  158.9154  135.5520 H   0  0  0  0  0  0  0  0  0  0  0  0
  139.1197  157.1847  135.5520 H   0  0  0  0  0  0  0  0  0  0  0  0
  140.8160  158.4881  138.2413 H   0  0  0  0  0  0  0  0  0  0  0  0
  141.3341  156.9752  137.4232 H   0  0  0  0  0  0  0  0  0  0  0  0
  142.4133  158.4112  137.4232 H   0  0  0  0  0  0  0  0  0  0  0  0
  141.4660  160.2280  135.3630 H   0  0  0  0  0  0  0  0  0  0  0  0
  1  2  1  0
  2  3  1  0
  3  4  2  0
  3  5  1  0
  5  6  1  0
  6  7  1  0
  7  8  2  0
  7  9  1  0
  9 10  1  0
 10 11  1  0
 11 12  1  0
 11 13  2  0
 10 14  2  0
 14 15  1  0
 15 16  2  0
 16 17  1  0
 17 18  2  0
 18 19  1  0
 19 20  1  0
 19 21  1  0
 19 22  1  0
 18 23  1  0
 23 24  2  0
  5 25  1  0
 25 26  1  0
 25 27  1  0
 25 28  1  0
 24  9  1  0
 24 15  1  0
  1 29  1  0
  1 30  1  0
  1 31  1  0
  2 32  1  0
  5 33  1  1
 12 34  1  0
 14 35  1  0
 16 36  1  0
 17 37  1  0
 23 38  1  0
 26 39  1  0
 26 40  1  0
 26 41  1  0
 27 42  1  0
 27 43  1  0
 27 44  1  0
 28 45  1  0
M  CHG  1  12  -1
M  END
>  <UniqueID>  (27) 
27

>  <SMILES>  (27) 
CNC(=O)[C@@H](OC(=O)n1c(C([NH-])=O)cc2ccc(C(F)(F)F)cc21)C(C)(C)O

>  <Energy>  (27) 
78.60933166617357

>  <Genealogy>  (27) 
CNC(=O)C(OC(=O)n1c(C([NH-])=O)cc2ccc(C(F)(F)F)cc21)C(C)(C)O (protonated)
CNC(=O)[C@@H](OC(=O)n1c(C([NH-])=O)cc2ccc(C(F)(F)F)cc21)C(C)(C)O (chirality)
CNC(=O)[C@@H](OC(=O)n1c(C([NH-])=O)cc2ccc(C(F)(F)F)cc21)C(C)(C)O (3D coordinates assigned)
CNC(=O)[C@@H](OC(=O)n1c(C([NH-])=O)cc2ccc(C(F)(F)F)cc21)C(C)(C)O (optimized conformer: 78.60933166617357 kcal/mol)

>  <smiles>  (27) 
CNC(=O)C(OC(=O)n1c(C(N)=O)cc2ccc(C(F)(F)F)cc21)C(C)(C)O

>  <score_type>  (27) 
oracle

>  <origin>  (27) 
adg

>  <m_score__min__energy>  (27) 
-6.7199999999999998

>  <m_primary>  (27) 
energy

$$$$
27:0
     RDKit          3D

 44 45  0  0  0  0  0  0  0  0999 V2000
  148.5870  155.0920  132.6040 C   0  0  0  0  0  0  0  0  0  0  0  0
  148.2160  156.5330  132.7860 C   0  0  0  0  0  0  0  0  0  0  0  0
  149.1920  157.5450  132.6190 C   0  0  0  0  0  0  0  0  0  0  0  0
  148.8440  158.9010  132.7410 C   0  0  0  0  0  0  0  0  0  0  0  0
  147.5160  159.2120  133.0230 C   0  0  0  0  0  0  0  0  0  0  0  0
  146.9070  160.4350  133.1670 C   0  0  0  0  0  0  0  0  0  0  0  0
  145.5680  160.1530  133.4280 C   0  0  0  0  0  0  0  0  0  0  0  0
  144.5680  161.1930  133.7450 C   0  0  0  0  0  0  0  0  0  0  0  0
  143.1720  160.9050  133.7140 N   0  0  0  0  0  0  0  0  0  0  0  0
  144.9520  162.3400  134.1000 O   0  0  0  0  0  0  0  0  0  0  0  0
  145.3540  158.8060  133.4320 N   0  0  0  0  0  0  0  0  0  0  0  0
  144.1030  158.1120  133.5770 C   0  0  0  0  0  0  0  0  0  0  0  0
  143.3010  158.0560  132.6050 O   0  0  0  0  0  0  0  0  0  0  0  0
  143.8050  157.4710  134.7860 O   0  0  0  0  0  0  0  0  0  0  0  0
  142.6560  156.7040  135.0290 C   0  0  0  0  0  0  0  0  0  0  0  0
  142.7440  155.4720  135.2850 O   0  0  0  0  0  0  0  0  0  0  0  0
  141.2910  157.3570  134.9860 C   0  0  2  0  0  0  0  0  0  0  0  0
  141.3250  158.5740  134.1650 N   0  0  0  0  0  0  0  0  0  0  0  0
  140.6940  157.6370  136.4100 C   0  0  0  0  0  0  0  0  0  0  0  0
  141.3410  158.9100  137.0000 C   0  0  0  0  0  0  0  0  0  0  0  0
  139.1710  157.8800  136.3050 C   0  0  0  0  0  0  0  0  0  0  0  0
  140.9380  156.4620  137.3840 C   0  0  0  0  0  0  0  0  0  0  0  0
  146.5590  158.2430  133.1880 C   0  0  0  0  0  0  0  0  0  0  0  0
  146.8760  156.8860  133.0540 C   0  0  0  0  0  0  0  0  0  0  0  0
  148.7091  154.6176  133.5889 H   0  0  0  0  0  0  0  0  0  0  0  0
  147.7923  154.5766  132.0448 H   0  0  0  0  0  0  0  0  0  0  0  0
  149.5318  155.0244  132.0448 H   0  0  0  0  0  0  0  0  0  0  0  0
  150.2318  157.2674  132.3918 H   0  0  0  0  0  0  0  0  0  0  0  0
  149.5975  159.6928  132.6175 H   0  0  0  0  0  0  0  0  0  0  0  0
  147.3770  161.4267  133.0921 H   0  0  0  0  0  0  0  0  0  0  0  0
  142.8240  159.9640  133.4250 H   0  0  0  0  0  0  0  0  0  0  0  0
  140.6085  156.6351  134.5137 H   0  0  0  0  0  0  0  0  0  0  0  0
  141.2090  158.3040  133.1610 H   0  0  0  0  0  0  0  0  0  0  0  0
  142.2530  159.0470  134.2500 H   0  0  0  0  0  0  0  0  0  0  0  0
  141.3151  158.8591  138.0985 H   0  0  0  0  0  0  0  0  0  0  0  0
  142.3849  158.9817  136.6608 H   0  0  0  0  0  0  0  0  0  0  0  0
  140.7836  159.7956  136.6608 H   0  0  0  0  0  0  0  0  0  0  0  0
  138.7402  157.9487  137.3148 H   0  0  0  0  0  0  0  0  0  0  0  0
  138.9861  158.8190  135.7627 H   0  0  0  0  0  0  0  0  0  0  0  0
  138.7030  157.0452  135.7627 H   0  0  0  0  0  0  0  0  0  0  0  0
  140.8630  156.8232  138.4203 H   0  0  0  0  0  0  0  0  0  0  0  0
  140.1829  155.6807  137.2124 H   0  0  0  0  0  0  0  0  0  0  0  0
  141.9417  156.0459  137.2124 H   0  0  0  0  0  0  0  0  0  0  0  0
  146.0995  156.1135  133.1551 H   0  0  0  0  0  0  0  0  0  0  0  0
  1  2  1  0
  2  3  2  0
  3  4  1  0
  4  5  2  0
  5  6  1  0
  6  7  2  0
  7  8  1  0
  8  9  1  0
  8 10  2  0
  7 11  1  0
 11 12  1  0
 12 13  2  0
 12 14  1  0
 14 15  1  0
 15 16  2  0
 15 17  1  0
 17 18  1  0
 17 19  1  0
 19 20  1  0
 19 21  1  0
 19 22  1  0
 11 23  1  0
 23 24  2  0
 24  2  1  0
 23  5  1  0
  1 25  1  0
  1 26  1  0
  1 27  1  0
  3 28  1  0
  4 29  1  0
  6 30  1  0
  9 31  1  0
 17 32  1  6
 18 33  1  0
 18 34  1  0
 20 35  1  0
 20 36  1  0
 20 37  1  0
 21 38  1  0
 21 39  1  0
 21 40  1  0
 22 41  1  0
 22 42  1  0
 22 43  1  0
 24 44  1  0
M  CHG  1   9  -1
M  END
>  <UniqueID>  (28) 
28

>  <SMILES>  (28) 
Cc1ccc2cc(C([NH-])=O)n(C(=O)OC(=O)[C@H](N)C(C)(C)C)c2c1

>  <Energy>  (28) 
79.51202853914177

>  <Genealogy>  (28) 
Cc1ccc2cc(C([NH-])=O)n(C(=O)OC(=O)C(N)C(C)(C)C)c2c1 (protonated)
Cc1ccc2cc(C([NH-])=O)n(C(=O)OC(=O)[C@H](N)C(C)(C)C)c2c1 (chirality)
Cc1ccc2cc(C([NH-])=O)n(C(=O)OC(=O)[C@H](N)C(C)(C)C)c2c1 (3D coordinates assigned)
Cc1ccc2cc(C([NH-])=O)n(C(=O)OC(=O)[C@H](N)C(C)(C)C)c2c1 (optimized conformer: 79.51202853914177 kcal/mol)

>  <smiles>  (28) 
Cc1ccc2cc(C(N)=O)n(C(=O)OC(=O)C(N)C(C)(C)C)c2c1

>  <score_type>  (28) 
oracle

>  <origin>  (28) 
adg

>  <m_score__min__energy>  (28) 
-7.4199999999999999

>  <m_primary>  (28) 
energy

$$$$
28:0
     RDKit          3D

 46 48  0  0  0  0  0  0  0  0999 V2000
  148.6740  159.6540  131.8290 C   0  0  0  0  0  0  0  0  0  0  0  0
  148.1690  159.4370  133.1940 N   0  0  0  0  0  0  0  0  0  0  0  0
  146.8460  160.0830  133.3550 C   0  0  0  0  0  0  0  0  0  0  0  0
  145.7230  159.3680  132.5820 C   0  0  0  0  0  0  0  0  0  0  0  0
  145.1730  158.0980  133.2670 C   0  0  0  0  0  0  0  0  0  0  0  0
  146.0140  156.9150  133.0140 N   0  0  0  0  0  0  0  0  0  0  0  0
  145.4330  155.5940  133.0700 C   0  0  0  0  0  0  0  0  0  0  0  0
  146.2610  154.4430  132.9820 C   0  0  0  0  0  0  0  0  0  0  0  0
  145.7040  153.1540  133.0150 C   0  0  0  0  0  0  0  0  0  0  0  0
  144.3230  153.0420  133.1430 C   0  0  0  0  0  0  0  0  0  0  0  0
  143.5250  151.9220  133.1730 C   0  0  0  0  0  0  0  0  0  0  0  0
  142.2210  152.3990  133.2950 C   0  0  0  0  0  0  0  0  0  0  0  0
  141.0240  151.5360  133.4220 C   0  0  0  0  0  0  0  0  0  0  0  0
  139.8840  151.7330  132.5820 N   0  0  0  0  0  0  0  0  0  0  0  0
  141.0050  150.6030  134.2670 O   0  0  0  0  0  0  0  0  0  0  0  0
  142.2160  153.7610  133.3450 N   0  0  0  0  0  0  0  0  0  0  0  0
  141.0660  154.6230  133.4150 C   0  0  0  0  0  0  0  0  0  0  0  0
  140.1100  154.4470  132.6120 O   0  0  0  0  0  0  0  0  0  0  0  0
  140.9800  155.7390  134.4130 C   0  0  0  0  0  0  0  0  0  0  0  0
  139.8300  156.5060  134.1910 O   0  0  0  0  0  0  0  0  0  0  0  0
  143.5100  154.1400  133.2440 C   0  0  0  0  0  0  0  0  0  0  0  0
  144.0340  155.4350  133.1910 C   0  0  0  0  0  0  0  0  0  0  0  0
  147.4330  157.0590  132.6380 C   0  0  0  0  0  0  0  0  0  0  0  0
  148.2280  158.0010  133.5680 C   0  0  0  0  0  0  0  0  0  0  0  0
  149.6837  160.0879  131.8762 H   0  0  0  0  0  0  0  0  0  0  0  0
  148.7125  158.6930  131.2952 H   0  0  0  0  0  0  0  0  0  0  0  0
  148.0033  160.3433  131.2952 H   0  0  0  0  0  0  0  0  0  0  0  0
  146.5868  160.0868  134.4240 H   0  0  0  0  0  0  0  0  0  0  0  0
  146.9275  161.1007  132.9455 H   0  0  0  0  0  0  0  0  0  0  0  0
  144.8908  160.0759  132.4546 H   0  0  0  0  0  0  0  0  0  0  0  0
  146.1632  159.0400  131.6288 H   0  0  0  0  0  0  0  0  0  0  0  0
  145.1271  158.2734  134.3519 H   0  0  0  0  0  0  0  0  0  0  0  0
  144.1757  157.8964  132.8490 H   0  0  0  0  0  0  0  0  0  0  0  0
  147.3503  154.5625  132.8870 H   0  0  0  0  0  0  0  0  0  0  0  0
  146.3405  152.2598  132.9418 H   0  0  0  0  0  0  0  0  0  0  0  0
  143.8477  150.8721  133.1133 H   0  0  0  0  0  0  0  0  0  0  0  0
  139.0620  151.0950  132.6580 H   0  0  0  0  0  0  0  0  0  0  0  0
  139.8290  152.5350  131.9160 H   0  0  0  0  0  0  0  0  0  0  0  0
  140.9428  155.3156  135.4276 H   0  0  0  0  0  0  0  0  0  0  0  0
  141.8647  156.3835  134.3040 H   0  0  0  0  0  0  0  0  0  0  0  0
  139.3420  156.0610  133.4510 H   0  0  0  0  0  0  0  0  0  0  0  0
  143.3714  156.3116  133.2424 H   0  0  0  0  0  0  0  0  0  0  0  0
  147.9027  156.0647  132.6667 H   0  0  0  0  0  0  0  0  0  0  0  0
  147.4560  157.5046  131.6326 H   0  0  0  0  0  0  0  0  0  0  0  0
  147.8268  157.8955  134.5868 H   0  0  0  0  0  0  0  0  0  0  0  0
  149.2832  157.7015  133.4853 H   0  0  0  0  0  0  0  0  0  0  0  0
  1  2  1  0
  2  3  1  0
  3  4  1  0
  4  5  1  0
  5  6  1  0
  6  7  1  0
  7  8  2  0
  8  9  1  0
  9 10  2  0
 10 11  1  0
 11 12  2  0
 12 13  1  0
 13 14  1  0
 13 15  2  0
 12 16  1  0
 16 17  1  0
 17 18  2  0
 17 19  1  0
 19 20  1  0
 16 21  1  0
 21 22  2  0
  6 23  1  0
 23 24  1  0
 24  2  1  0
 22  7  1  0
 21 10  1  0
  1 25  1  0
  1 26  1  0
  1 27  1  0
  3 28  1  0
  3 29  1  0
  4 30  1  0
  4 31  1  0
  5 32  1  0
  5 33  1  0
  8 34  1  0
  9 35  1  0
 11 36  1  0
 14 37  1  0
 14 38  1  0
 19 39  1  0
 19 40  1  0
 20 41  1  0
 22 42  1  0
 23 43  1  0
 23 44  1  0
 24 45  1  0
 24 46  1  0
M  END
>  <UniqueID>  (29) 
29

>  <SMILES>  (29) 
CN1CCCN(c2ccc3cc(C(N)=O)n(C(=O)CO)c3c2)CC1

>  <Energy>  (29) 
99.8799851087114

>  <Genealogy>  (29) 
CN1CCCN(c2ccc3cc(C(N)=O)n(C(=O)CO)c3c2)CC1 (3D coordinates assigned)
CN1CCCN(c2ccc3cc(C(N)=O)n(C(=O)CO)c3c2)CC1 (nonaromatic ring conformer: 99.8799851087114 kcal/mol)

>  <smiles>  (29) 
CN1CCCN(c2ccc3cc(C(N)=O)n(C(=O)CO)c3c2)CC1

>  <score_type>  (29) 
oracle

>  <origin>  (29) 
adg

>  <m_score__min__energy>  (29) 
-5.21

>  <m_primary>  (29) 
energy

$$$$
29:0
     RDKit          3D

 40 41  0  0  0  0  0  0  0  0999 V2000
  138.9080  158.3330  132.1890 C   0  0  0  0  0  0  0  0  0  0  0  0
  139.9680  157.8900  133.1000 N   0  0  0  0  0  0  0  0  0  0  0  0
  140.1550  156.4580  133.3620 C   0  0  0  0  0  0  0  0  0  0  0  0
  140.8110  158.8820  133.7260 C   0  0  0  0  0  0  0  0  0  0  0  0
  140.6240  160.1050  133.4750 O   0  0  0  0  0  0  0  0  0  0  0  0
  141.9010  158.5160  134.7010 C   0  0  0  0  0  0  0  0  0  0  0  0
  143.2370  159.0440  134.2500 C   0  0  0  0  0  0  0  0  0  0  0  0
  143.4400  160.4380  134.0910 C   0  0  0  0  0  0  0  0  0  0  0  0
  144.6810  160.9390  133.6690 C   0  0  0  0  0  0  0  0  0  0  0  0
  145.7050  160.0280  133.4280 C   0  0  0  0  0  0  0  0  0  0  0  0
  146.9930  160.2370  132.9920 C   0  0  0  0  0  0  0  0  0  0  0  0
  147.5710  158.9720  132.9220 C   0  0  0  0  0  0  0  0  0  0  0  0
  148.9900  158.7430  132.5770 C   0  0  0  0  0  0  0  0  0  0  0  0
  149.4310  157.4350  132.2230 N   0  0  0  0  0  0  0  0  0  0  0  0
  149.8110  159.6980  132.5550 O   0  0  0  0  0  0  0  0  0  0  0  0
  146.6720  158.0150  133.2930 N   0  0  0  0  0  0  0  0  0  0  0  0
  146.8530  156.5900  133.3030 C   0  0  0  0  0  0  0  0  0  0  0  0
  146.7920  155.9400  132.2240 O   0  0  0  0  0  0  0  0  0  0  0  0
  147.0720  155.9280  134.5160 O   0  0  0  0  0  0  0  0  0  0  0  0
  147.1690  154.5100  134.6280 C   0  0  0  0  0  0  0  0  0  0  0  0
  146.3940  154.0260  135.8120 C   0  0  0  0  0  0  0  0  0  0  0  0
  145.2150  154.4230  136.0000 O   0  0  0  0  0  0  0  0  0  0  0  0
  146.9830  153.1590  136.7240 O   0  0  0  0  0  0  0  0  0  0  0  0
  145.5360  158.6790  133.6030 C   0  0  0  0  0  0  0  0  0  0  0  0
  144.3050  158.1500  134.0060 C   0  0  0  0  0  0  0  0  0  0  0  0
  138.0484  158.6922  132.7738 H   0  0  0  0  0  0  0  0  0  0  0  0
  139.2865  159.1482  131.5549 H   0  0  0  0  0  0  0  0  0  0  0  0
  138.5939  157.4909  131.5549 H   0  0  0  0  0  0  0  0  0  0  0  0
  140.1777  156.2838  134.4479 H   0  0  0  0  0  0  0  0  0  0  0  0
  139.3231  155.8922  132.9172 H   0  0  0  0  0  0  0  0  0  0  0  0
  141.1043  156.1248  132.9172 H   0  0  0  0  0  0  0  0  0  0  0  0
  141.6601  158.9440  135.6853 H   0  0  0  0  0  0  0  0  0  0  0  0
  141.9621  157.4192  134.7585 H   0  0  0  0  0  0  0  0  0  0  0  0
  142.6152  161.1349  134.3008 H   0  0  0  0  0  0  0  0  0  0  0  0
  144.8396  162.0190  133.5329 H   0  0  0  0  0  0  0  0  0  0  0  0
  147.4663  161.2000  132.7498 H   0  0  0  0  0  0  0  0  0  0  0  0
  148.7660  156.7320  131.8290 H   0  0  0  0  0  0  0  0  0  0  0  0
  146.7650  154.0460  133.7161 H   0  0  0  0  0  0  0  0  0  0  0  0
  148.2260  154.2338  134.7564 H   0  0  0  0  0  0  0  0  0  0  0  0
  144.1713  157.0652  134.1300 H   0  0  0  0  0  0  0  0  0  0  0  0
  1  2  1  0
  2  3  1  0
  2  4  1  0
  4  5  2  0
  4  6  1  0
  6  7  1  0
  7  8  2  0
  8  9  1  0
  9 10  2  0
 10 11  1  0
 11 12  2  0
 12 13  1  0
 13 14  1  0
 13 15  2  0
 12 16  1  0
 16 17  1  0
 17 18  2  0
 17 19  1  0
 19 20  1  0
 20 21  1  0
 21 22  2  0
 21 23  1  0
 16 24  1  0
 24 25  2  0
 25  7  1  0
 24 10  1  0
  1 26  1  0
  1 27  1  0
  1 28  1  0
  3 29  1  0
  3 30  1  0
  3 31  1  0
  6 32  1  0
  6 33  1  0
  8 34  1  0
  9 35  1  0
 11 36  1  0
 14 37  1  0
 20 38  1  0
 20 39  1  0
 25 40  1  0
M  CHG  2  14  -1  23  -1
M  END
>  <UniqueID>  (30) 
30

>  <SMILES>  (30) 
CN(C)C(=O)Cc1ccc2cc(C([NH-])=O)n(C(=O)OCC(=O)[O-])c2c1

>  <Energy>  (30) 
72.86946054716627

>  <Genealogy>  (30) 
CN(C)C(=O)Cc1ccc2cc(C([NH-])=O)n(C(=O)OCC(=O)[O-])c2c1 (protonated)
CN(C)C(=O)Cc1ccc2cc(C([NH-])=O)n(C(=O)OCC(=O)[O-])c2c1 (3D coordinates assigned)
CN(C)C(=O)Cc1ccc2cc(C([NH-])=O)n(C(=O)OCC(=O)[O-])c2c1 (optimized conformer: 72.86946054716627 kcal/mol)

>  <smiles>  (30) 
CN(C)C(=O)Cc1ccc2cc(C(N)=O)n(C(=O)OCC(=O)O)c2c1

>  <score_type>  (30) 
oracle

>  <origin>  (30) 
adg

>  <m_score__min__energy>  (30) 
-6.9800000000000004

>  <m_primary>  (30) 
energy

$$$$
30:0
     RDKit          3D

 38 39  0  0  0  0  0  0  0  0999 V2000
  140.1780  159.2420  132.0400 C   0  0  0  0  0  0  0  0  0  0  0  0
  140.3170  159.7840  133.3340 O   0  0  0  0  0  0  0  0  0  0  0  0
  140.5900  158.7640  134.2790 C   0  0  0  0  0  0  0  0  0  0  0  0
  141.5950  159.2730  135.3170 C   0  0  1  0  0  0  0  0  0  0  0  0
  141.0920  158.9860  136.7360 C   0  0  0  0  0  0  0  0  0  0  0  0
  142.8530  158.6330  135.1010 O   0  0  0  0  0  0  0  0  0  0  0  0
  143.4480  158.4890  133.8420 C   0  0  0  0  0  0  0  0  0  0  0  0
  142.8590  157.8530  132.9270 O   0  0  0  0  0  0  0  0  0  0  0  0
  144.7540  159.0410  133.6080 N   0  0  0  0  0  0  0  0  0  0  0  0
  145.1170  160.3550  133.6370 C   0  0  0  0  0  0  0  0  0  0  0  0
  144.1980  161.5080  133.7340 C   0  0  0  0  0  0  0  0  0  0  0  0
  142.7880  161.3310  133.6200 N   0  0  0  0  0  0  0  0  0  0  0  0
  144.6660  162.6690  133.8650 O   0  0  0  0  0  0  0  0  0  0  0  0
  146.4950  160.4860  133.4820 C   0  0  0  0  0  0  0  0  0  0  0  0
  146.9700  159.2020  133.3500 C   0  0  0  0  0  0  0  0  0  0  0  0
  148.2720  158.7450  133.1720 C   0  0  0  0  0  0  0  0  0  0  0  0
  148.4790  157.3590  133.0920 C   0  0  0  0  0  0  0  0  0  0  0  0
  147.3930  156.4540  133.2180 C   0  0  0  0  0  0  0  0  0  0  0  0
  147.6240  154.9700  133.0950 C   0  0  0  0  0  0  0  0  0  0  0  0
  148.7010  154.7450  132.2600 F   0  0  0  0  0  0  0  0  0  0  0  0
  146.5060  154.3450  132.5680 F   0  0  0  0  0  0  0  0  0  0  0  0
  147.8870  154.4100  134.3320 F   0  0  0  0  0  0  0  0  0  0  0  0
  146.0810  156.9600  133.3750 C   0  0  0  0  0  0  0  0  0  0  0  0
  145.9010  158.3480  133.4310 C   0  0  0  0  0  0  0  0  0  0  0  0
  139.9054  158.1790  132.1151 H   0  0  0  0  0  0  0  0  0  0  0  0
  139.3901  159.7852  131.4976 H   0  0  0  0  0  0  0  0  0  0  0  0
  141.1301  159.3389  131.4976 H   0  0  0  0  0  0  0  0  0  0  0  0
  139.6568  158.4759  134.7851 H   0  0  0  0  0  0  0  0  0  0  0  0
  141.0147  157.8923  133.7597 H   0  0  0  0  0  0  0  0  0  0  0  0
  141.7111  160.3614  135.2079 H   0  0  0  0  0  0  0  0  0  0  0  0
  141.8057  159.3932  137.4674 H   0  0  0  0  0  0  0  0  0  0  0  0
  140.1096  159.4595  136.8795 H   0  0  0  0  0  0  0  0  0  0  0  0
  140.9998  157.8993  136.8795 H   0  0  0  0  0  0  0  0  0  0  0  0
  142.3610  160.3790  133.6590 H   0  0  0  0  0  0  0  0  0  0  0  0
  147.0791  161.4180  133.4681 H   0  0  0  0  0  0  0  0  0  0  0  0
  149.1140  159.4488  133.0962 H   0  0  0  0  0  0  0  0  0  0  0  0
  149.4949  156.9697  132.9297 H   0  0  0  0  0  0  0  0  0  0  0  0
  145.2211  156.2783  133.4514 H   0  0  0  0  0  0  0  0  0  0  0  0
  1  2  1  0
  2  3  1  0
  3  4  1  0
  4  5  1  0
  4  6  1  0
  6  7  1  0
  7  8  2  0
  7  9  1  0
  9 10  1  0
 10 11  1  0
 11 12  1  0
 11 13  2  0
 10 14  2  0
 14 15  1  0
 15 16  2  0
 16 17  1  0
 17 18  2  0
 18 19  1  0
 19 20  1  0
 19 21  1  0
 19 22  1  0
 18 23  1  0
 23 24  2  0
 24  9  1  0
 24 15  1  0
  1 25  1  0
  1 26  1  0
  1 27  1  0
  3 28  1  0
  3 29  1  0
  4 30  1  1
  5 31  1  0
  5 32  1  0
  5 33  1  0
 12 34  1  0
 14 35  1  0
 16 36  1  0
 17 37  1  0
 23 38  1  0
M  CHG  1  12  -1
M  END
>  <UniqueID>  (31) 
31

>  <SMILES>  (31) 
COC[C@@H](C)OC(=O)n1c(C([NH-])=O)cc2ccc(C(F)(F)F)cc21

>  <Energy>  (31) 
74.34959777182141

>  <Genealogy>  (31) 
COCC(C)OC(=O)n1c(C([NH-])=O)cc2ccc(C(F)(F)F)cc21 (protonated)
COC[C@@H](C)OC(=O)n1c(C([NH-])=O)cc2ccc(C(F)(F)F)cc21 (chirality)
COC[C@@H](C)OC(=O)n1c(C([NH-])=O)cc2ccc(C(F)(F)F)cc21 (3D coordinates assigned)
COC[C@@H](C)OC(=O)n1c(C([NH-])=O)cc2ccc(C(F)(F)F)cc21 (optimized conformer: 74.34959777182141 kcal/mol)

>  <smiles>  (31) 
COCC(C)OC(=O)n1c(C(N)=O)cc2ccc(C(F)(F)F)cc21

>  <score_type>  (31) 
oracle

>  <origin>  (31) 
adg

>  <m_score__min__energy>  (31) 
-5.9500000000000002

>  <m_primary>  (31) 
energy

$$$$
31:0
     RDKit          3D

 49 50  0  0  0  0  0  0  0  0999 V2000
  149.5770  161.6110  130.6460 C   0  0  0  0  0  0  0  0  0  0  0  0
  148.9130  160.3360  130.9740 N   0  0  0  0  0  0  0  0  0  0  0  0
  149.0140  159.4200  129.8260 C   0  0  0  0  0  0  0  0  0  0  0  0
  149.5060  159.7250  132.1840 C   0  0  0  0  0  0  0  0  0  0  0  0
  148.4420  159.5960  133.2810 C   0  0  0  0  0  0  0  0  0  0  0  0
  147.2630  160.4030  132.9620 N   0  0  0  0  0  0  0  0  0  0  0  0
  145.9120  160.0680  133.3350 C   0  0  0  0  0  0  0  0  0  0  0  0
  145.0310  161.1090  133.7230 C   0  0  0  0  0  0  0  0  0  0  0  0
  143.6990  160.8350  134.0750 C   0  0  0  0  0  0  0  0  0  0  0  0
  143.2750  159.5110  134.0430 C   0  0  0  0  0  0  0  0  0  0  0  0
  142.0390  158.9700  134.3130 C   0  0  0  0  0  0  0  0  0  0  0  0
  142.1860  157.5990  134.1160 C   0  0  0  0  0  0  0  0  0  0  0  0
  141.1140  156.6150  134.3770 C   0  0  0  0  0  0  0  0  0  0  0  0
  140.8710  155.5660  133.4410 N   0  0  0  0  0  0  0  0  0  0  0  0
  140.3870  156.7110  135.3990 O   0  0  0  0  0  0  0  0  0  0  0  0
  143.4610  157.3060  133.7330 N   0  0  0  0  0  0  0  0  0  0  0  0
  143.9980  156.0210  133.3840 C   0  0  0  0  0  0  0  0  0  0  0  0
  143.6490  155.4750  132.3030 O   0  0  0  0  0  0  0  0  0  0  0  0
  144.8860  155.3830  134.2640 O   0  0  0  0  0  0  0  0  0  0  0  0
  146.1830  154.8610  133.9390 C   0  0  0  0  0  0  0  0  0  0  0  0
  146.8960  155.7860  132.9360 C   0  0  0  0  0  0  0  0  0  0  0  0
  146.0610  153.4310  133.3770 C   0  0  0  0  0  0  0  0  0  0  0  0
  146.9930  154.8220  135.2120 C   0  0  0  0  0  0  0  0  0  0  0  0
  147.7030  155.8080  135.5520 O   0  0  0  0  0  0  0  0  0  0  0  0
  146.9200  153.7190  136.0580 O   0  0  0  0  0  0  0  0  0  0  0  0
  144.1150  158.4880  133.6910 C   0  0  0  0  0  0  0  0  0  0  0  0
  145.4370  158.7320  133.3080 C   0  0  0  0  0  0  0  0  0  0  0  0
  149.8487  162.1327  131.5755 H   0  0  0  0  0  0  0  0  0  0  0  0
  150.4854  161.4109  130.0589 H   0  0  0  0  0  0  0  0  0  0  0  0
  148.8922  162.2406  130.0589 H   0  0  0  0  0  0  0  0  0  0  0  0
  149.1278  158.3880  130.1893 H   0  0  0  0  0  0  0  0  0  0  0  0
  148.1021  159.4953  129.2155 H   0  0  0  0  0  0  0  0  0  0  0  0
  149.8876  159.6922  129.2155 H   0  0  0  0  0  0  0  0  0  0  0  0
  149.8953  158.7268  131.9348 H   0  0  0  0  0  0  0  0  0  0  0  0
  150.3241  160.3641  132.5476 H   0  0  0  0  0  0  0  0  0  0  0  0
  148.1431  158.5412  133.3706 H   0  0  0  0  0  0  0  0  0  0  0  0
  148.8686  159.9560  134.2288 H   0  0  0  0  0  0  0  0  0  0  0  0
  147.4170  161.2500  132.3680 H   0  0  0  0  0  0  0  0  0  0  0  0
  145.3959  162.1464  133.7488 H   0  0  0  0  0  0  0  0  0  0  0  0
  143.0123  161.6431  134.3670 H   0  0  0  0  0  0  0  0  0  0  0  0
  141.1286  159.5061  134.6192 H   0  0  0  0  0  0  0  0  0  0  0  0
  141.4800  155.4440  132.6030 H   0  0  0  0  0  0  0  0  0  0  0  0
  147.4783  156.5415  133.4839 H   0  0  0  0  0  0  0  0  0  0  0  0
  147.5709  155.1904  132.3037 H   0  0  0  0  0  0  0  0  0  0  0  0
  146.1482  156.2870  132.3037 H   0  0  0  0  0  0  0  0  0  0  0  0
  145.9998  152.7140  134.2090 H   0  0  0  0  0  0  0  0  0  0  0  0
  145.1532  153.3555  132.7605 H   0  0  0  0  0  0  0  0  0  0  0  0
  146.9429  153.2029  132.7605 H   0  0  0  0  0  0  0  0  0  0  0  0
  146.0933  157.9073  132.9931 H   0  0  0  0  0  0  0  0  0  0  0  0
  1  2  1  0
  2  3  1  0
  2  4  1  0
  4  5  1  0
  5  6  1  0
  6  7  1  0
  7  8  2  0
  8  9  1  0
  9 10  2  0
 10 11  1  0
 11 12  2  0
 12 13  1  0
 13 14  1  0
 13 15  2  0
 12 16  1  0
 16 17  1  0
 17 18  2  0
 17 19  1  0
 19 20  1  0
 20 21  1  0
 20 22  1  0
 20 23  1  0
 23 24  2  0
 23 25  1  0
 16 26  1  0
 26 27  2  0
 27  7  1  0
 26 10  1  0
  1 28  1  0
  1 29  1  0
  1 30  1  0
  3 31  1  0
  3 32  1  0
  3 33  1  0
  4 34  1  0
  4 35  1  0
  5 36  1  0
  5 37  1  0
  6 38  1  0
  8 39  1  0
  9 40  1  0
 11 41  1  0
 14 42  1  0
 21 43  1  0
 21 44  1  0
 21 45  1  0
 22 46  1  0
 22 47  1  0
 22 48  1  0
 27 49  1  0
M  CHG  2  14  -1  25  -1
M  END
>  <UniqueID>  (32) 
32

>  <SMILES>  (32) 
CN(C)CCNc1ccc2cc(C([NH-])=O)n(C(=O)OC(C)(C)C(=O)[O-])c2c1

>  <Energy>  (32) 
83.68011425641063

>  <Genealogy>  (32) 
CN(C)CCNc1ccc2cc(C([NH-])=O)n(C(=O)OC(C)(C)C(=O)[O-])c2c1 (protonated)
CN(C)CCNc1ccc2cc(C([NH-])=O)n(C(=O)OC(C)(C)C(=O)[O-])c2c1 (3D coordinates assigned)
CN(C)CCNc1ccc2cc(C([NH-])=O)n(C(=O)OC(C)(C)C(=O)[O-])c2c1 (optimized conformer: 83.68011425641063 kcal/mol)

>  <smiles>  (32) 
CN(C)CCNc1ccc2cc(C(N)=O)n(C(=O)OC(C)(C)C(=O)O)c2c1

>  <score_type>  (32) 
oracle

>  <origin>  (32) 
adg

>  <m_score__min__energy>  (32) 
-7.6200000000000001

>  <m_primary>  (32) 
energy

$$$$
32:0
     RDKit          3D

 37 38  0  0  0  0  0  0  0  0999 V2000
  148.7950  161.6210  130.7570 C   0  0  0  0  0  0  0  0  0  0  0  0
  149.4270  160.2990  130.6780 N   0  0  0  0  0  0  0  0  0  0  0  0
  150.1270  159.8930  129.4550 C   0  0  0  0  0  0  0  0  0  0  0  0
  149.3710  159.3780  131.7920 C   0  0  0  0  0  0  0  0  0  0  0  0
  149.9050  158.2390  131.6880 O   0  0  0  0  0  0  0  0  0  0  0  0
  148.7320  159.7470  133.1010 C   0  0  0  0  0  0  0  0  0  0  0  0
  147.4140  159.1170  133.2080 C   0  0  0  0  0  0  0  0  0  0  0  0
  146.3310  158.5920  133.2940 C   0  0  0  0  0  0  0  0  0  0  0  0
  145.0420  157.9630  133.3920 C   0  0  0  0  0  0  0  0  0  0  0  0
  144.8990  156.5980  133.0510 C   0  0  0  0  0  0  0  0  0  0  0  0
  143.6480  155.9670  133.1540 C   0  0  0  0  0  0  0  0  0  0  0  0
  142.5670  156.7290  133.5910 C   0  0  0  0  0  0  0  0  0  0  0  0
  141.2590  156.3610  133.8100 C   0  0  0  0  0  0  0  0  0  0  0  0
  140.6220  157.5180  134.2530 C   0  0  0  0  0  0  0  0  0  0  0  0
  139.1780  157.5860  134.5450 C   0  0  0  0  0  0  0  0  0  0  0  0
  138.6900  158.2430  135.7150 N   0  0  0  0  0  0  0  0  0  0  0  0
  138.3560  157.1060  133.7190 O   0  0  0  0  0  0  0  0  0  0  0  0
  141.5000  158.5580  134.3190 N   0  0  0  0  0  0  0  0  0  0  0  0
  141.2520  159.8760  134.8420 C   0  0  0  0  0  0  0  0  0  0  0  0
  141.3860  160.8900  134.1090 O   0  0  0  0  0  0  0  0  0  0  0  0
  140.8670  160.0430  136.1670 O   0  0  0  0  0  0  0  0  0  0  0  0
  142.6890  158.0600  133.9070 C   0  0  0  0  0  0  0  0  0  0  0  0
  143.9300  158.7060  133.8330 C   0  0  0  0  0  0  0  0  0  0  0  0
  148.6612  161.9009  131.8123 H   0  0  0  0  0  0  0  0  0  0  0  0
  149.4353  162.3639  130.2590 H   0  0  0  0  0  0  0  0  0  0  0  0
  147.8147  161.5891  130.2590 H   0  0  0  0  0  0  0  0  0  0  0  0
  151.0502  159.3576  129.7215 H   0  0  0  0  0  0  0  0  0  0  0  0
  149.4773  159.2315  128.8631 H   0  0  0  0  0  0  0  0  0  0  0  0
  150.3785  160.7854  128.8631 H   0  0  0  0  0  0  0  0  0  0  0  0
  149.3695  159.4015  133.9282 H   0  0  0  0  0  0  0  0  0  0  0  0
  148.6161  160.8397  133.1519 H   0  0  0  0  0  0  0  0  0  0  0  0
  145.7724  156.0270  132.7030 H   0  0  0  0  0  0  0  0  0  0  0  0
  143.5260  154.9043  132.8976 H   0  0  0  0  0  0  0  0  0  0  0  0
  140.8122  155.3662  133.6660 H   0  0  0  0  0  0  0  0  0  0  0  0
  137.6670  158.2520  135.9250 H   0  0  0  0  0  0  0  0  0  0  0  0
  139.3300  158.7910  136.3320 H   0  0  0  0  0  0  0  0  0  0  0  0
  144.0330  159.7651  134.1119 H   0  0  0  0  0  0  0  0  0  0  0  0
  1  2  1  0
  2  3  1  0
  2  4  1  0
  4  5  2  0
  4  6  1  0
  6  7  1  0
  7  8  3  0
  8  9  1  0
  9 10  2  0
 10 11  1  0
 11 12  2  0
 12 13  1  0
 13 14  2  0
 14 15  1  0
 15 16  1  0
 15 17  2  0
 14 18  1  0
 18 19  1  0
 19 20  2  0
 19 21  1  0
 18 22  1  0
 22 23  2  0
 23  9  1  0
 22 12  1  0
  1 24  1  0
  1 25  1  0
  1 26  1  0
  3 27  1  0
  3 28  1  0
  3 29  1  0
  6 30  1  0
  6 31  1  0
 10 32  1  0
 11 33  1  0
 13 34  1  0
 16 35  1  0
 16 36  1  0
 23 37  1  0
M  CHG  1  21  -1
M  END
>  <UniqueID>  (33) 
33

>  <SMILES>  (33) 
CN(C)C(=O)CC#Cc1ccc2cc(C(N)=O)n(C(=O)[O-])c2c1

>  <Energy>  (33) 
69.0622973069383

>  <Genealogy>  (33) 
CN(C)C(=O)CC#Cc1ccc2cc(C(N)=O)n(C(=O)[O-])c2c1 (protonated)
CN(C)C(=O)CC#Cc1ccc2cc(C(N)=O)n(C(=O)[O-])c2c1 (3D coordinates assigned)
CN(C)C(=O)CC#Cc1ccc2cc(C(N)=O)n(C(=O)[O-])c2c1 (optimized conformer: 69.0622973069383 kcal/mol)

>  <smiles>  (33) 
CN(C)C(=O)CC#Cc1ccc2cc(C(N)=O)n(C(=O)O)c2c1

>  <score_type>  (33) 
oracle

>  <origin>  (33) 
adg

>  <m_score__min__energy>  (33) 
-7.5700000000000003

>  <m_primary>  (33) 
energy

$$$$
33:0
     RDKit          3D

 31 32  0  0  0  0  0  0  0  0999 V2000
  147.8170  152.8320  133.7310 N   0  0  0  0  0  0  0  0  0  0  0  0
  148.4190  153.8210  132.8940 C   0  0  0  0  0  0  0  0  0  0  0  0
  149.3660  153.4910  132.1320 O   0  0  0  0  0  0  0  0  0  0  0  0
  147.9940  155.2340  132.9530 C   0  0  0  0  0  0  0  0  0  0  0  0
  148.8780  156.3040  132.8460 C   0  0  0  0  0  0  0  0  0  0  0  0
  148.1070  157.4300  133.0150 C   0  0  0  0  0  0  0  0  0  0  0  0
  148.4690  158.7740  132.9890 C   0  0  0  0  0  0  0  0  0  0  0  0
  147.4580  159.7330  133.1530 C   0  0  0  0  0  0  0  0  0  0  0  0
  146.1090  159.3370  133.3310 C   0  0  0  0  0  0  0  0  0  0  0  0
  145.0390  160.3800  133.4830 C   0  0  0  0  0  0  0  0  0  0  0  0
  145.5400  161.4620  134.1820 F   0  0  0  0  0  0  0  0  0  0  0  0
  143.9640  159.8490  134.1730 F   0  0  0  0  0  0  0  0  0  0  0  0
  145.7760  157.9640  133.3460 C   0  0  0  0  0  0  0  0  0  0  0  0
  146.8090  157.0270  133.2030 C   0  0  0  0  0  0  0  0  0  0  0  0
  146.7230  155.6780  133.1640 N   0  0  0  0  0  0  0  0  0  0  0  0
  145.5190  154.8940  133.2180 C   0  0  0  0  0  0  0  0  0  0  0  0
  144.7100  154.9170  132.2500 O   0  0  0  0  0  0  0  0  0  0  0  0
  145.2470  154.1130  134.3430 O   0  0  0  0  0  0  0  0  0  0  0  0
  145.4360  154.5850  135.6720 C   0  0  0  0  0  0  0  0  0  0  0  0
  146.6950  154.0070  136.2240 C   0  0  0  0  0  0  0  0  0  0  0  0
  146.6490  153.0220  137.0080 O   0  0  0  0  0  0  0  0  0  0  0  0
  147.9190  154.5860  135.9170 O   0  0  0  0  0  0  0  0  0  0  0  0
  147.1540  153.1000  134.4910 H   0  0  0  0  0  0  0  0  0  0  0  0
  148.1030  151.8320  133.6470 H   0  0  0  0  0  0  0  0  0  0  0  0
  149.9620  156.2585  132.6649 H   0  0  0  0  0  0  0  0  0  0  0  0
  149.5170  159.0753  132.8441 H   0  0  0  0  0  0  0  0  0  0  0  0
  147.7150  160.8025  133.1433 H   0  0  0  0  0  0  0  0  0  0  0  0
  144.7101  160.7063  132.4853 H   0  0  0  0  0  0  0  0  0  0  0  0
  144.7323  157.6384  133.4668 H   0  0  0  0  0  0  0  0  0  0  0  0
  145.5070  155.6827  135.6658 H   0  0  0  0  0  0  0  0  0  0  0  0
  144.5841  154.2792  136.2971 H   0  0  0  0  0  0  0  0  0  0  0  0
  1  2  1  0
  2  3  2  0
  2  4  1  0
  4  5  2  0
  5  6  1  0
  6  7  2  0
  7  8  1  0
  8  9  2  0
  9 10  1  0
 10 11  1  0
 10 12  1  0
  9 13  1  0
 13 14  2  0
 14 15  1  0
 15 16  1  0
 16 17  2  0
 16 18  1  0
 18 19  1  0
 19 20  1  0
 20 21  2  0
 20 22  1  0
 15  4  1  0
 14  6  1  0
  1 23  1  0
  1 24  1  0
  5 25  1  0
  7 26  1  0
  8 27  1  0
 10 28  1  0
 13 29  1  0
 19 30  1  0
 19 31  1  0
M  CHG  1  22  -1
M  END
>  <UniqueID>  (34) 
34

>  <SMILES>  (34) 
NC(=O)c1cc2ccc(C(F)F)cc2n1C(=O)OCC(=O)[O-]

>  <Energy>  (34) 
67.21938918458687

>  <Genealogy>  (34) 
NC(=O)c1cc2ccc(C(F)F)cc2n1C(=O)OCC(=O)[O-] (protonated)
NC(=O)c1cc2ccc(C(F)F)cc2n1C(=O)OCC(=O)[O-] (3D coordinates assigned)
NC(=O)c1cc2ccc(C(F)F)cc2n1C(=O)OCC(=O)[O-] (optimized conformer: 67.21938918458687 kcal/mol)

>  <smiles>  (34) 
NC(=O)c1cc2ccc(C(F)F)cc2n1C(=O)OCC(=O)O

>  <score_type>  (34) 
oracle

>  <origin>  (34) 
adg

>  <m_score__min__energy>  (34) 
-5.8399999999999999

>  <m_primary>  (34) 
energy

$$$$
34:0
     RDKit          3D

 38 40  0  0  0  0  0  0  0  0999 V2000
  143.1090  160.5070  133.3240 N   0  0  0  0  0  0  0  0  0  0  0  0
  144.4520  160.6980  133.7780 C   0  0  0  0  0  0  0  0  0  0  0  0
  144.7470  161.7590  134.3880 O   0  0  0  0  0  0  0  0  0  0  0  0
  145.4750  159.6510  133.5690 C   0  0  0  0  0  0  0  0  0  0  0  0
  146.8120  159.9190  133.2780 C   0  0  0  0  0  0  0  0  0  0  0  0
  147.3910  158.6900  133.0640 C   0  0  0  0  0  0  0  0  0  0  0  0
  148.7050  158.3660  132.7480 C   0  0  0  0  0  0  0  0  0  0  0  0
  149.0360  157.0080  132.6070 C   0  0  0  0  0  0  0  0  0  0  0  0
  148.0550  155.9940  132.7890 C   0  0  0  0  0  0  0  0  0  0  0  0
  148.4100  154.5980  132.6530 N   0  0  0  0  0  0  0  0  0  0  0  0
  149.7310  154.1290  132.2520 C   0  0  0  0  0  0  0  0  0  0  0  0
  149.6020  152.6240  132.0610 C   0  0  0  0  0  0  0  0  0  0  0  0
  148.3390  152.2280  132.8280 C   0  0  2  0  0  0  0  0  0  0  0  0
  147.6050  151.0180  132.2230 C   0  0  0  0  0  0  0  0  0  0  0  0
  148.0310  149.8140  132.8070 O   0  0  0  0  0  0  0  0  0  0  0  0
  147.4870  153.4970  132.8920 C   0  0  0  0  0  0  0  0  0  0  0  0
  146.7280  156.3710  133.1110 C   0  0  0  0  0  0  0  0  0  0  0  0
  146.4250  157.7340  133.2270 C   0  0  0  0  0  0  0  0  0  0  0  0
  145.2400  158.3080  133.5370 N   0  0  0  0  0  0  0  0  0  0  0  0
  144.0100  157.6300  133.8470 C   0  0  0  0  0  0  0  0  0  0  0  0
  143.9360  156.8680  134.8470 O   0  0  0  0  0  0  0  0  0  0  0  0
  142.8850  157.8220  133.0550 O   0  0  0  0  0  0  0  0  0  0  0  0
  142.3850  161.2360  133.5120 H   0  0  0  0  0  0  0  0  0  0  0  0
  142.8390  159.6660  132.7690 H   0  0  0  0  0  0  0  0  0  0  0  0
  147.2998  160.9037  133.2298 H   0  0  0  0  0  0  0  0  0  0  0  0
  149.4641  159.1504  132.6122 H   0  0  0  0  0  0  0  0  0  0  0  0
  150.0680  156.7248  132.3523 H   0  0  0  0  0  0  0  0  0  0  0  0
  150.0375  154.6088  131.3108 H   0  0  0  0  0  0  0  0  0  0  0  0
  150.4923  154.3755  133.0068 H   0  0  0  0  0  0  0  0  0  0  0  0
  149.4980  152.3783  130.9939 H   0  0  0  0  0  0  0  0  0  0  0  0
  150.4895  152.0862  132.4257 H   0  0  0  0  0  0  0  0  0  0  0  0
  148.5858  151.8699  133.8384 H   0  0  0  0  0  0  0  0  0  0  0  0
  146.5242  151.1345  132.3916 H   0  0  0  0  0  0  0  0  0  0  0  0
  147.8311  150.9792  131.1472 H   0  0  0  0  0  0  0  0  0  0  0  0
  147.8330  149.8720  133.7770 H   0  0  0  0  0  0  0  0  0  0  0  0
  146.7060  153.4751  132.1177 H   0  0  0  0  0  0  0  0  0  0  0  0
  146.9753  153.5965  133.8606 H   0  0  0  0  0  0  0  0  0  0  0  0
  145.9506  155.6085  133.2669 H   0  0  0  0  0  0  0  0  0  0  0  0
  1  2  1  0
  2  3  2  0
  2  4  1  0
  4  5  2  0
  5  6  1  0
  6  7  2  0
  7  8  1  0
  8  9  2  0
  9 10  1  0
 10 11  1  0
 11 12  1  0
 12 13  1  0
 13 14  1  0
 14 15  1  0
 13 16  1  0
  9 17  1  0
 17 18  2  0
 18 19  1  0
 19 20  1  0
 20 21  2  0
 20 22  1  0
 19  4  1  0
 18  6  1  0
 16 10  1  0
  1 23  1  0
  1 24  1  0
  5 25  1  0
  7 26  1  0
  8 27  1  0
 11 28  1  0
 11 29  1  0
 12 30  1  0
 12 31  1  0
 13 32  1  1
 14 33  1  0
 14 34  1  0
 15 35  1  0
 16 36  1  0
 16 37  1  0
 17 38  1  0
M  CHG  1  22  -1
M  END
>  <UniqueID>  (35) 
35

>  <SMILES>  (35) 
NC(=O)c1cc2ccc(N3CC[C@H](CO)C3)cc2n1C(=O)[O-]

>  <Energy>  (35) 
80.37845436386347

>  <Genealogy>  (35) 
NC(=O)c1cc2ccc(N3CCC(CO)C3)cc2n1C(=O)[O-] (protonated)
NC(=O)c1cc2ccc(N3CC[C@H](CO)C3)cc2n1C(=O)[O-] (chirality)
NC(=O)c1cc2ccc(N3CC[C@H](CO)C3)cc2n1C(=O)[O-] (3D coordinates assigned)
NC(=O)c1cc2ccc(N3CC[C@H](CO)C3)cc2n1C(=O)[O-] (nonaromatic ring conformer: 80.37845436386347 kcal/mol)

>  <smiles>  (35) 
NC(=O)c1cc2ccc(N3CCC(CO)C3)cc2n1C(=O)O

>  <score_type>  (35) 
oracle

>  <origin>  (35) 
adg

>  <m_score__min__energy>  (35) 
-7.4000000000000004

>  <m_primary>  (35) 
energy

$$$$
35:0
     RDKit          3D

 31 32  0  0  0  0  0  0  0  0999 V2000
  146.6570  160.6260  132.9740 N   0  0  0  0  0  0  0  0  0  0  0  0
  145.8240  159.5780  133.4710 C   0  0  0  0  0  0  0  0  0  0  0  0
  144.7300  159.8720  134.0220 O   0  0  0  0  0  0  0  0  0  0  0  0
  146.2500  158.1640  133.3740 C   0  0  0  0  0  0  0  0  0  0  0  0
  145.3810  157.0800  133.4850 C   0  0  0  0  0  0  0  0  0  0  0  0
  146.1520  155.9670  133.2430 C   0  0  0  0  0  0  0  0  0  0  0  0
  145.8040  154.6200  133.2490 C   0  0  0  0  0  0  0  0  0  0  0  0
  146.8150  153.6770  133.0010 C   0  0  0  0  0  0  0  0  0  0  0  0
  148.1460  154.0910  132.7430 C   0  0  0  0  0  0  0  0  0  0  0  0
  149.2340  153.0670  132.5420 C   0  0  0  0  0  0  0  0  0  0  0  0
  150.4100  153.7120  132.2080 F   0  0  0  0  0  0  0  0  0  0  0  0
  149.4350  152.3340  133.6990 F   0  0  0  0  0  0  0  0  0  0  0  0
  148.8980  152.1890  131.5260 F   0  0  0  0  0  0  0  0  0  0  0  0
  148.4640  155.4690  132.7700 C   0  0  0  0  0  0  0  0  0  0  0  0
  147.4340  156.3890  133.0000 C   0  0  0  0  0  0  0  0  0  0  0  0
  147.5100  157.7360  133.0770 N   0  0  0  0  0  0  0  0  0  0  0  0
  148.6970  158.5360  132.9540 C   0  0  0  0  0  0  0  0  0  0  0  0
  148.9360  159.4440  133.7960 O   0  0  0  0  0  0  0  0  0  0  0  0
  149.5790  158.3110  131.8900 O   0  0  0  0  0  0  0  0  0  0  0  0
  149.9020  159.3010  130.9170 C   0  0  0  0  0  0  0  0  0  0  0  0
  148.8360  160.3480  130.8670 C   0  0  0  0  0  0  0  0  0  0  0  0
  147.7360  160.1080  130.3050 O   0  0  0  0  0  0  0  0  0  0  0  0
  149.0690  161.6010  131.4200 O   0  0  0  0  0  0  0  0  0  0  0  0
  147.5440  160.4190  132.4630 H   0  0  0  0  0  0  0  0  0  0  0  0
  146.3650  161.6220  133.0820 H   0  0  0  0  0  0  0  0  0  0  0  0
  144.3061  157.1086  133.7170 H   0  0  0  0  0  0  0  0  0  0  0  0
  144.7685  154.3031  133.4421 H   0  0  0  0  0  0  0  0  0  0  0  0
  146.5710  152.6044  133.0071 H   0  0  0  0  0  0  0  0  0  0  0  0
  149.4980  155.8103  132.6137 H   0  0  0  0  0  0  0  0  0  0  0  0
  150.8602  159.7714  131.1825 H   0  0  0  0  0  0  0  0  0  0  0  0
  149.9779  158.8209  129.9302 H   0  0  0  0  0  0  0  0  0  0  0  0
  1  2  1  0
  2  3  2  0
  2  4  1  0
  4  5  2  0
  5  6  1  0
  6  7  2  0
  7  8  1  0
  8  9  2  0
  9 10  1  0
 10 11  1  0
 10 12  1  0
 10 13  1  0
  9 14  1  0
 14 15  2  0
 15 16  1  0
 16 17  1  0
 17 18  2  0
 17 19  1  0
 19 20  1  0
 20 21  1  0
 21 22  2  0
 21 23  1  0
 16  4  1  0
 15  6  1  0
  1 24  1  0
  1 25  1  0
  5 26  1  0
  7 27  1  0
  8 28  1  0
 14 29  1  0
 20 30  1  0
 20 31  1  0
M  CHG  1  23  -1
M  END
>  <UniqueID>  (36) 
36

>  <SMILES>  (36) 
NC(=O)c1cc2ccc(C(F)(F)F)cc2n1C(=O)OCC(=O)[O-]

>  <Energy>  (36) 
68.35792240423226

>  <Genealogy>  (36) 
NC(=O)c1cc2ccc(C(F)(F)F)cc2n1C(=O)OCC(=O)[O-] (protonated)
NC(=O)c1cc2ccc(C(F)(F)F)cc2n1C(=O)OCC(=O)[O-] (3D coordinates assigned)
NC(=O)c1cc2ccc(C(F)(F)F)cc2n1C(=O)OCC(=O)[O-] (optimized conformer: 68.35792240423226 kcal/mol)

>  <smiles>  (36) 
NC(=O)c1cc2ccc(C(F)(F)F)cc2n1C(=O)OCC(=O)O

>  <score_type>  (36) 
oracle

>  <origin>  (36) 
adg

>  <m_score__min__energy>  (36) 
-5.75

>  <m_primary>  (36) 
energy

$$$$
36:0
     RDKit          3D

 33 34  0  0  0  0  0  0  0  0999 V2000
  149.5820  157.6750  132.0790 N   0  0  0  0  0  0  0  0  0  0  0  0
  148.9620  158.9150  132.4110 C   0  0  0  0  0  0  0  0  0  0  0  0
  149.6060  159.9860  132.2540 O   0  0  0  0  0  0  0  0  0  0  0  0
  147.5630  158.9630  132.8830 C   0  0  0  0  0  0  0  0  0  0  0  0
  146.8320  160.1450  132.9920 C   0  0  0  0  0  0  0  0  0  0  0  0
  145.5680  159.7560  133.3740 C   0  0  0  0  0  0  0  0  0  0  0  0
  144.4410  160.5250  133.6500 C   0  0  0  0  0  0  0  0  0  0  0  0
  143.2750  159.8600  134.0650 C   0  0  0  0  0  0  0  0  0  0  0  0
  143.2580  158.4490  134.1960 C   0  0  0  0  0  0  0  0  0  0  0  0
  142.0200  157.7530  134.6880 C   0  0  0  0  0  0  0  0  0  0  0  0
  140.6370  158.9290  134.7930 P   0  0  0  0  0  0  0  0  0  0  0  0
  140.4430  159.6120  133.4580 O   0  0  0  0  0  0  0  0  0  0  0  0
  140.9790  160.0910  135.9720 O   0  0  0  0  0  0  0  0  0  0  0  0
  139.2200  158.1060  135.2140 O   0  0  0  0  0  0  0  0  0  0  0  0
  144.4240  157.7020  133.9180 C   0  0  0  0  0  0  0  0  0  0  0  0
  145.5660  158.3900  133.4890 C   0  0  0  0  0  0  0  0  0  0  0  0
  146.7840  157.8880  133.1920 N   0  0  0  0  0  0  0  0  0  0  0  0
  147.1880  156.5140  133.2990 C   0  0  0  0  0  0  0  0  0  0  0  0
  147.4220  155.8450  132.2550 O   0  0  0  0  0  0  0  0  0  0  0  0
  147.2970  155.9190  134.5610 O   0  0  0  0  0  0  0  0  0  0  0  0
  146.9800  154.5510  134.8120 C   0  0  0  0  0  0  0  0  0  0  0  0
  147.4710  154.1420  136.1640 C   0  0  0  0  0  0  0  0  0  0  0  0
  147.0030  153.1150  136.7220 O   0  0  0  0  0  0  0  0  0  0  0  0
  148.4650  154.8780  136.7960 O   0  0  0  0  0  0  0  0  0  0  0  0
  149.0920  156.9720  131.4820 H   0  0  0  0  0  0  0  0  0  0  0  0
  147.1890  161.1697  132.8114 H   0  0  0  0  0  0  0  0  0  0  0  0
  144.4626  161.6199  133.5463 H   0  0  0  0  0  0  0  0  0  0  0  0
  142.3675  160.4395  134.2902 H   0  0  0  0  0  0  0  0  0  0  0  0
  141.7567  156.9440  133.9907 H   0  0  0  0  0  0  0  0  0  0  0  0
  142.2151  157.3386  135.6881 H   0  0  0  0  0  0  0  0  0  0  0  0
  144.4349  156.6083  134.0354 H   0  0  0  0  0  0  0  0  0  0  0  0
  145.8891  154.4175  134.7668 H   0  0  0  0  0  0  0  0  0  0  0  0
  147.4690  153.9257  134.0505 H   0  0  0  0  0  0  0  0  0  0  0  0
  1  2  1  0
  2  3  2  0
  2  4  1  0
  4  5  2  0
  5  6  1  0
  6  7  2  0
  7  8  1  0
  8  9  2  0
  9 10  1  0
 10 11  1  0
 11 12  2  0
 11 13  1  0
 11 14  1  0
  9 15  1  0
 15 16  2  0
 16 17  1  0
 17 18  1  0
 18 19  2  0
 18 20  1  0
 20 21  1  0
 21 22  1  0
 22 23  2  0
 22 24  1  0
 17  4  1  0
 16  6  1  0
  1 25  1  0
  5 26  1  0
  7 27  1  0
  8 28  1  0
 10 29  1  0
 10 30  1  0
 15 31  1  0
 21 32  1  0
 21 33  1  0
M  CHG  4   1  -1  13  -1  14  -1  24  -1
M  END
>  <UniqueID>  (37) 
37

>  <SMILES>  (37) 
[NH-]C(=O)c1cc2ccc(CP(=O)([O-])[O-])cc2n1C(=O)OCC(=O)[O-]

>  <Energy>  (37) 
65.41447260721907

>  <Genealogy>  (37) 
[NH-]C(=O)c1cc2ccc(CP(=O)([O-])[O-])cc2n1C(=O)OCC(=O)[O-] (protonated)
[NH-]C(=O)c1cc2ccc(CP(=O)([O-])[O-])cc2n1C(=O)OCC(=O)[O-] (3D coordinates assigned)
[NH-]C(=O)c1cc2ccc(CP(=O)([O-])[O-])cc2n1C(=O)OCC(=O)[O-] (optimized conformer: 65.41447260721907 kcal/mol)

>  <smiles>  (37) 
NC(=O)c1cc2ccc(CP(=O)(O)O)cc2n1C(=O)OCC(=O)O

>  <score_type>  (37) 
oracle

>  <origin>  (37) 
adg

>  <m_score__min__energy>  (37) 
-6.6699999999999999

>  <m_primary>  (37) 
energy

$$$$
37:0
     RDKit          3D

 37 38  0  0  0  0  0  0  0  0999 V2000
  139.1190  146.3410  129.5390 C   0  0  0  0  0  0  0  0  0  0  0  0
  138.7040  147.2990  130.5050 O   0  0  0  0  0  0  0  0  0  0  0  0
  138.7250  148.6740  130.2570 C   0  0  0  0  0  0  0  0  0  0  0  0
  137.7910  149.2270  129.6130 O   0  0  0  0  0  0  0  0  0  0  0  0
  139.8420  149.5040  130.8040 C   0  0  0  0  0  0  0  0  0  0  0  0
  140.5280  148.7760  131.9670 C   0  0  0  0  0  0  0  0  0  0  0  0
  140.5600  149.6230  133.2470 C   0  0  0  0  0  0  0  0  0  0  0  0
  141.5070  150.7900  133.1270 C   0  0  0  0  0  0  0  0  0  0  0  0
  142.8970  150.5670  132.9660 C   0  0  0  0  0  0  0  0  0  0  0  0
  143.7870  151.6480  132.8650 C   0  0  0  0  0  0  0  0  0  0  0  0
  143.2630  152.9350  132.9410 C   0  0  0  0  0  0  0  0  0  0  0  0
  143.8950  154.1520  132.8430 C   0  0  0  0  0  0  0  0  0  0  0  0
  142.8880  155.1020  132.9810 C   0  0  0  0  0  0  0  0  0  0  0  0
  143.1400  156.5560  132.9960 C   0  0  0  0  0  0  0  0  0  0  0  0
  142.2870  157.4620  132.2960 N   0  0  0  0  0  0  0  0  0  0  0  0
  144.0920  157.0120  133.6850 O   0  0  0  0  0  0  0  0  0  0  0  0
  141.6760  154.4990  133.1450 N   0  0  0  0  0  0  0  0  0  0  0  0
  140.3860  155.1310  133.2100 C   0  0  0  0  0  0  0  0  0  0  0  0
  139.3470  154.4880  132.9050 O   0  0  0  0  0  0  0  0  0  0  0  0
  140.2690  156.4560  133.6110 O   0  0  0  0  0  0  0  0  0  0  0  0
  141.9230  153.1700  133.1210 C   0  0  0  0  0  0  0  0  0  0  0  0
  141.0110  152.1100  133.2020 C   0  0  0  0  0  0  0  0  0  0  0  0
  139.5060  145.4477  130.0512 H   0  0  0  0  0  0  0  0  0  0  0  0
  138.2619  146.0602  128.9094 H   0  0  0  0  0  0  0  0  0  0  0  0
  139.9101  146.7742  128.9094 H   0  0  0  0  0  0  0  0  0  0  0  0
  140.5782  149.6908  130.0084 H   0  0  0  0  0  0  0  0  0  0  0  0
  139.4326  150.4568  131.1708 H   0  0  0  0  0  0  0  0  0  0  0  0
  139.9809  147.8442  132.1730 H   0  0  0  0  0  0  0  0  0  0  0  0
  141.5680  148.5742  131.6710 H   0  0  0  0  0  0  0  0  0  0  0  0
  139.5479  150.0056  133.4454 H   0  0  0  0  0  0  0  0  0  0  0  0
  140.9111  148.9830  134.0699 H   0  0  0  0  0  0  0  0  0  0  0  0
  143.2822  149.5377  132.9197 H   0  0  0  0  0  0  0  0  0  0  0  0
  144.8661  151.4827  132.7299 H   0  0  0  0  0  0  0  0  0  0  0  0
  144.9685  154.3356  132.6884 H   0  0  0  0  0  0  0  0  0  0  0  0
  142.5030  158.4840  132.2870 H   0  0  0  0  0  0  0  0  0  0  0  0
  141.3960  157.1360  131.8600 H   0  0  0  0  0  0  0  0  0  0  0  0
  139.9343  152.3012  133.3212 H   0  0  0  0  0  0  0  0  0  0  0  0
  1  2  1  0
  2  3  1  0
  3  4  2  0
  3  5  1  0
  5  6  1  0
  6  7  1  0
  7  8  1  0
  8  9  2  0
  9 10  1  0
 10 11  2  0
 11 12  1  0
 12 13  2  0
 13 14  1  0
 14 15  1  0
 14 16  2  0
 13 17  1  0
 17 18  1  0
 18 19  2  0
 18 20  1  0
 17 21  1  0
 21 22  2  0
 22  8  1  0
 21 11  1  0
  1 23  1  0
  1 24  1  0
  1 25  1  0
  5 26  1  0
  5 27  1  0
  6 28  1  0
  6 29  1  0
  7 30  1  0
  7 31  1  0
  9 32  1  0
 10 33  1  0
 12 34  1  0
 15 35  1  0
 15 36  1  0
 22 37  1  0
M  CHG  1  20  -1
M  END
>  <UniqueID>  (38) 
38

>  <SMILES>  (38) 
COC(=O)CCCc1ccc2cc(C(N)=O)n(C(=O)[O-])c2c1

>  <Energy>  (38) 
69.15466540995278

>  <Genealogy>  (38) 
COC(=O)CCCc1ccc2cc(C(N)=O)n(C(=O)[O-])c2c1 (protonated)
COC(=O)CCCc1ccc2cc(C(N)=O)n(C(=O)[O-])c2c1 (3D coordinates assigned)
COC(=O)CCCc1ccc2cc(C(N)=O)n(C(=O)[O-])c2c1 (optimized conformer: 69.15466540995278 kcal/mol)

>  <smiles>  (38) 
COC(=O)CCCc1ccc2cc(C(N)=O)n(C(=O)O)c2c1

>  <score_type>  (38) 
oracle

>  <origin>  (38) 
adg

>  <m_score__min__energy>  (38) 
-6.5499999999999998

>  <m_primary>  (38) 
energy

$$$$
38:0
     RDKit          3D

 48 50  0  0  0  0  0  0  0  0999 V2000
  141.0080  159.3500  135.7750 C   0  0  0  0  0  0  0  0  0  0  0  0
  142.3090  159.3090  135.4910 C   0  0  0  0  0  0  0  0  0  0  0  0
  142.8790  159.9050  134.2690 C   0  0  0  0  0  0  0  0  0  0  0  0
  142.1050  160.4470  133.4360 O   0  0  0  0  0  0  0  0  0  0  0  0
  144.2910  159.8720  134.0020 N   0  0  0  0  0  0  0  0  0  0  0  0
  145.1380  160.9310  133.8680 C   0  0  0  0  0  0  0  0  0  0  0  0
  144.7940  162.3490  134.1050 C   0  0  0  0  0  0  0  0  0  0  0  0
  143.7050  162.9650  133.4240 N   0  0  0  0  0  0  0  0  0  0  0  0
  145.4570  163.0190  134.9410 O   0  0  0  0  0  0  0  0  0  0  0  0
  146.4120  160.4920  133.5110 C   0  0  0  0  0  0  0  0  0  0  0  0
  146.3150  159.1200  133.4250 C   0  0  0  0  0  0  0  0  0  0  0  0
  147.2740  158.1720  133.0840 C   0  0  0  0  0  0  0  0  0  0  0  0
  146.8820  156.8230  133.0470 C   0  0  0  0  0  0  0  0  0  0  0  0
  145.5470  156.4470  133.3440 C   0  0  0  0  0  0  0  0  0  0  0  0
  145.1520  155.0630  133.2870 N   0  0  0  0  0  0  0  0  0  0  0  0
  145.3150  154.1880  134.4550 C   0  0  0  0  0  0  0  0  0  0  0  0
  143.9680  153.5540  134.8120 C   0  0  0  0  0  0  0  0  0  0  0  0
  143.2650  153.0520  133.6160 N   0  0  0  0  0  0  0  0  0  0  0  0
  141.9860  152.4020  133.7920 C   0  0  0  0  0  0  0  0  0  0  0  0
  141.6020  152.0950  134.9560 O   0  0  0  0  0  0  0  0  0  0  0  0
  141.0930  152.0710  132.6230 C   0  0  0  0  0  0  0  0  0  0  0  0
  140.8710  150.6760  132.5240 O   0  0  0  0  0  0  0  0  0  0  0  0
  142.1000  149.9830  132.5440 C   0  0  0  0  0  0  0  0  0  0  0  0
  143.9310  153.1350  132.3040 C   0  0  0  0  0  0  0  0  0  0  0  0
  144.4890  154.5460  132.0800 C   0  0  0  0  0  0  0  0  0  0  0  0
  144.5990  157.4430  133.6740 C   0  0  0  0  0  0  0  0  0  0  0  0
  145.0230  158.7740  133.7200 C   0  0  0  0  0  0  0  0  0  0  0  0
  140.6324  158.8898  136.7008 H   0  0  0  0  0  0  0  0  0  0  0  0
  140.3094  159.8440  135.0837 H   0  0  0  0  0  0  0  0  0  0  0  0
  142.9869  158.8091  136.1985 H   0  0  0  0  0  0  0  0  0  0  0  0
  142.7760  162.4930  133.3580 H   0  0  0  0  0  0  0  0  0  0  0  0
  147.3051  161.1096  133.3353 H   0  0  0  0  0  0  0  0  0  0  0  0
  148.3071  158.4690  132.8505 H   0  0  0  0  0  0  0  0  0  0  0  0
  147.6190  156.0497  132.7847 H   0  0  0  0  0  0  0  0  0  0  0  0
  146.0420  153.3963  134.2210 H   0  0  0  0  0  0  0  0  0  0  0  0
  145.6782  154.7801  135.3079 H   0  0  0  0  0  0  0  0  0  0  0  0
  144.1410  152.7148  135.5018 H   0  0  0  0  0  0  0  0  0  0  0  0
  143.3395  154.3264  135.2792 H   0  0  0  0  0  0  0  0  0  0  0  0
  140.1264  152.5792  132.7553 H   0  0  0  0  0  0  0  0  0  0  0  0
  141.5880  152.4101  131.7010 H   0  0  0  0  0  0  0  0  0  0  0  0
  142.4066  149.8101  133.5862 H   0  0  0  0  0  0  0  0  0  0  0  0
  141.9846  149.0170  132.0307 H   0  0  0  0  0  0  0  0  0  0  0  0
  142.8669  150.5817  132.0307 H   0  0  0  0  0  0  0  0  0  0  0  0
  144.7562  152.4084  132.2691 H   0  0  0  0  0  0  0  0  0  0  0  0
  143.1980  152.9101  131.5152 H   0  0  0  0  0  0  0  0  0  0  0  0
  145.2185  154.5151  131.2573 H   0  0  0  0  0  0  0  0  0  0  0  0
  143.6496  155.2135  131.8353 H   0  0  0  0  0  0  0  0  0  0  0  0
  143.5536  157.1768  133.8892 H   0  0  0  0  0  0  0  0  0  0  0  0
  1  2  2  0
  2  3  1  0
  3  4  2  0
  3  5  1  0
  5  6  1  0
  6  7  1  0
  7  8  1  0
  7  9  2  0
  6 10  2  0
 10 11  1  0
 11 12  2  0
 12 13  1  0
 13 14  2  0
 14 15  1  0
 15 16  1  0
 16 17  1  0
 17 18  1  0
 18 19  1  0
 19 20  2  0
 19 21  1  0
 21 22  1  0
 22 23  1  0
 18 24  1  0
 24 25  1  0
 14 26  1  0
 26 27  2  0
 27  5  1  0
 27 11  1  0
 25 15  1  0
  1 28  1  0
  1 29  1  0
  2 30  1  0
  8 31  1  0
 10 32  1  0
 12 33  1  0
 13 34  1  0
 16 35  1  0
 16 36  1  0
 17 37  1  0
 17 38  1  0
 21 39  1  0
 21 40  1  0
 23 41  1  0
 23 42  1  0
 23 43  1  0
 24 44  1  0
 24 45  1  0
 25 46  1  0
 25 47  1  0
 26 48  1  0
M  CHG  1   8  -1
M  END
>  <UniqueID>  (39) 
39

>  <SMILES>  (39) 
C=CC(=O)n1c(C([NH-])=O)cc2ccc(N3CCN(C(=O)COC)CC3)cc21

>  <Energy>  (39) 
95.03992110957407

>  <Genealogy>  (39) 
C=CC(=O)n1c(C([NH-])=O)cc2ccc(N3CCN(C(=O)COC)CC3)cc21 (protonated)
C=CC(=O)n1c(C([NH-])=O)cc2ccc(N3CCN(C(=O)COC)CC3)cc21 (3D coordinates assigned)
C=CC(=O)n1c(C([NH-])=O)cc2ccc(N3CCN(C(=O)COC)CC3)cc21 (nonaromatic ring conformer: 95.03992110957407 kcal/mol)

>  <smiles>  (39) 
C=CC(=O)n1c(C(N)=O)cc2ccc(N3CCN(C(=O)COC)CC3)cc21

>  <score_type>  (39) 
oracle

>  <origin>  (39) 
adg

>  <m_score__min__energy>  (39) 
-7.6299999999999999

>  <m_primary>  (39) 
energy

$$$$
39:0
     RDKit          3D

 39 40  0  0  0  0  0  0  0  0999 V2000
  149.9110  151.5520  133.7290 C   0  0  0  0  0  0  0  0  0  0  0  0
  149.0740  151.3580  132.4480 C   0  0  0  0  0  0  0  0  0  0  0  0
  149.9720  151.4310  131.1960 C   0  0  0  0  0  0  0  0  0  0  0  0
  148.3650  149.9860  132.4950 C   0  0  0  0  0  0  0  0  0  0  0  0
  146.9700  150.1240  132.5990 O   0  0  0  0  0  0  0  0  0  0  0  0
  148.0390  152.3500  132.3760 O   0  0  0  0  0  0  0  0  0  0  0  0
  148.1770  153.7270  132.6140 C   0  0  0  0  0  0  0  0  0  0  0  0
  149.3130  154.2730  132.6120 O   0  0  0  0  0  0  0  0  0  0  0  0
  147.0040  154.5220  132.8490 N   0  0  0  0  0  0  0  0  0  0  0  0
  145.7080  154.1030  132.8430 C   0  0  0  0  0  0  0  0  0  0  0  0
  145.2620  152.6950  132.7530 C   0  0  0  0  0  0  0  0  0  0  0  0
  145.6610  151.8710  131.6560 N   0  0  0  0  0  0  0  0  0  0  0  0
  144.4980  152.2150  133.6330 O   0  0  0  0  0  0  0  0  0  0  0  0
  144.8440  155.1810  133.0310 C   0  0  0  0  0  0  0  0  0  0  0  0
  145.6590  156.2830  133.1530 C   0  0  0  0  0  0  0  0  0  0  0  0
  145.3310  157.6190  133.3560 C   0  0  0  0  0  0  0  0  0  0  0  0
  146.3780  158.5520  133.4230 C   0  0  0  0  0  0  0  0  0  0  0  0
  147.7260  158.1430  133.2620 C   0  0  0  0  0  0  0  0  0  0  0  0
  148.8430  159.1490  133.3730 C   0  0  0  0  0  0  0  0  0  0  0  0
  149.2220  159.2650  134.6970 F   0  0  0  0  0  0  0  0  0  0  0  0
  149.9370  158.7490  132.6250 F   0  0  0  0  0  0  0  0  0  0  0  0
  148.4340  160.3880  132.9100 F   0  0  0  0  0  0  0  0  0  0  0  0
  148.0210  156.7710  133.0820 C   0  0  0  0  0  0  0  0  0  0  0  0
  146.9580  155.8610  133.0380 C   0  0  0  0  0  0  0  0  0  0  0  0
  149.2709  151.4036  134.6112 H   0  0  0  0  0  0  0  0  0  0  0  0
  150.7323  150.8204  133.7447 H   0  0  0  0  0  0  0  0  0  0  0  0
  150.3267  152.5703  133.7447 H   0  0  0  0  0  0  0  0  0  0  0  0
  151.0245  151.5166  131.5041 H   0  0  0  0  0  0  0  0  0  0  0  0
  149.8387  150.5191  130.5955 H   0  0  0  0  0  0  0  0  0  0  0  0
  149.6932  152.3094  130.5955 H   0  0  0  0  0  0  0  0  0  0  0  0
  148.6006  149.4315  131.5747 H   0  0  0  0  0  0  0  0  0  0  0  0
  148.7230  149.4458  133.3838 H   0  0  0  0  0  0  0  0  0  0  0  0
  146.7970  150.9690  133.0900 H   0  0  0  0  0  0  0  0  0  0  0  0
  146.3350  152.2150  130.9370 H   0  0  0  0  0  0  0  0  0  0  0  0
  145.3110  150.8900  131.5840 H   0  0  0  0  0  0  0  0  0  0  0  0
  143.7451  155.1559  133.0729 H   0  0  0  0  0  0  0  0  0  0  0  0
  144.2827  157.9354  133.4609 H   0  0  0  0  0  0  0  0  0  0  0  0
  146.1498  159.6130  133.6026 H   0  0  0  0  0  0  0  0  0  0  0  0
  149.0609  156.4275  132.9791 H   0  0  0  0  0  0  0  0  0  0  0  0
  1  2  1  0
  2  3  1  0
  2  4  1  0
  4  5  1  0
  2  6  1  0
  6  7  1  0
  7  8  2  0
  7  9  1  0
  9 10  1  0
 10 11  1  0
 11 12  1  0
 11 13  2  0
 10 14  2  0
 14 15  1  0
 15 16  2  0
 16 17  1  0
 17 18  2  0
 18 19  1  0
 19 20  1  0
 19 21  1  0
 19 22  1  0
 18 23  1  0
 23 24  2  0
 24  9  1  0
 24 15  1  0
  1 25  1  0
  1 26  1  0
  1 27  1  0
  3 28  1  0
  3 29  1  0
  3 30  1  0
  4 31  1  0
  4 32  1  0
  5 33  1  0
 12 34  1  0
 12 35  1  0
 14 36  1  0
 16 37  1  0
 17 38  1  0
 23 39  1  0
M  END
>  <UniqueID>  (40) 
40

>  <SMILES>  (40) 
CC(C)(CO)OC(=O)n1c(C(N)=O)cc2ccc(C(F)(F)F)cc21

>  <Energy>  (40) 
75.15559877032122

>  <Genealogy>  (40) 
CC(C)(CO)OC(=O)n1c(C(N)=O)cc2ccc(C(F)(F)F)cc21 (3D coordinates assigned)
CC(C)(CO)OC(=O)n1c(C(N)=O)cc2ccc(C(F)(F)F)cc21 (optimized conformer: 75.15559877032122 kcal/mol)

>  <smiles>  (40) 
CC(C)(CO)OC(=O)n1c(C(N)=O)cc2ccc(C(F)(F)F)cc21

>  <score_type>  (40) 
oracle

>  <origin>  (40) 
adg

>  <m_score__min__energy>  (40) 
-6.1799999999999997

>  <m_primary>  (40) 
energy

$$$$
40:0
     RDKit          3D

 48 50  0  0  0  0  0  0  0  0999 V2000
  142.1010  150.7350  133.2710 C   0  0  0  0  0  0  0  0  0  0  0  0
  141.3230  151.5720  132.2510 C   0  0  0  0  0  0  0  0  0  0  0  0
  139.8660  151.1110  132.1600 C   0  0  0  0  0  0  0  0  0  0  0  0
  141.3980  153.0310  132.6030 C   0  0  0  0  0  0  0  0  0  0  0  0
  140.3480  153.7310  132.6260 O   0  0  0  0  0  0  0  0  0  0  0  0
  142.6380  153.5980  132.9170 O   0  0  0  0  0  0  0  0  0  0  0  0
  142.9830  154.0160  134.2320 C   0  0  0  0  0  0  0  0  0  0  0  0
  143.8430  155.1490  134.1630 O   0  0  0  0  0  0  0  0  0  0  0  0
  143.8210  156.0540  133.0990 C   0  0  0  0  0  0  0  0  0  0  0  0
  143.9780  155.6450  131.9150 O   0  0  0  0  0  0  0  0  0  0  0  0
  143.6090  157.4510  133.3550 N   0  0  0  0  0  0  0  0  0  0  0  0
  142.4130  158.1000  133.4580 C   0  0  0  0  0  0  0  0  0  0  0  0
  141.0840  157.4520  133.4900 C   0  0  0  0  0  0  0  0  0  0  0  0
  140.9030  156.1330  132.9720 N   0  0  0  0  0  0  0  0  0  0  0  0
  140.0880  158.0750  133.9460 O   0  0  0  0  0  0  0  0  0  0  0  0
  142.6130  159.4690  133.6240 C   0  0  0  0  0  0  0  0  0  0  0  0
  143.9770  159.6430  133.6200 C   0  0  0  0  0  0  0  0  0  0  0  0
  144.7310  160.8060  133.7450 C   0  0  0  0  0  0  0  0  0  0  0  0
  146.1290  160.6950  133.6840 C   0  0  0  0  0  0  0  0  0  0  0  0
  146.7440  159.4350  133.4790 C   0  0  0  0  0  0  0  0  0  0  0  0
  148.2420  159.3240  133.4470 C   0  0  0  0  0  0  0  0  0  0  0  0
  148.7410  159.7260  132.1350 N   0  0  0  0  0  0  0  0  0  0  0  0
  148.5130  160.8900  131.5060 C   0  0  0  0  0  0  0  0  0  0  0  0
  149.2390  160.8850  130.3360 C   0  0  0  0  0  0  0  0  0  0  0  0
  149.9320  159.7320  130.2370 N   0  0  0  0  0  0  0  0  0  0  0  0
  149.6070  159.0500  131.3560 C   0  0  0  0  0  0  0  0  0  0  0  0
  145.9480  158.2740  133.3690 C   0  0  0  0  0  0  0  0  0  0  0  0
  144.5570  158.4120  133.4540 C   0  0  0  0  0  0  0  0  0  0  0  0
  141.8171  151.0405  134.2889 H   0  0  0  0  0  0  0  0  0  0  0  0
  141.8645  149.6702  133.1283 H   0  0  0  0  0  0  0  0  0  0  0  0
  143.1802  150.8932  133.1283 H   0  0  0  0  0  0  0  0  0  0  0  0
  141.7856  151.4272  131.2636 H   0  0  0  0  0  0  0  0  0  0  0  0
  139.4583  150.9820  133.1735 H   0  0  0  0  0  0  0  0  0  0  0  0
  139.2755  151.8662  131.6206 H   0  0  0  0  0  0  0  0  0  0  0  0
  139.8174  150.1536  131.6206 H   0  0  0  0  0  0  0  0  0  0  0  0
  142.0691  154.2831  134.7828 H   0  0  0  0  0  0  0  0  0  0  0  0
  143.5000  153.1961  134.7521 H   0  0  0  0  0  0  0  0  0  0  0  0
  141.7120  155.5680  132.6330 H   0  0  0  0  0  0  0  0  0  0  0  0
  139.9530  155.7000  132.9640 H   0  0  0  0  0  0  0  0  0  0  0  0
  141.8426  160.2462  133.7348 H   0  0  0  0  0  0  0  0  0  0  0  0
  144.2460  161.7830  133.8873 H   0  0  0  0  0  0  0  0  0  0  0  0
  146.7526  161.5942  133.7964 H   0  0  0  0  0  0  0  0  0  0  0  0
  148.6731  159.9796  134.2180 H   0  0  0  0  0  0  0  0  0  0  0  0
  148.5326  158.2811  133.6416 H   0  0  0  0  0  0  0  0  0  0  0  0
  147.8624  161.7025  131.8618 H   0  0  0  0  0  0  0  0  0  0  0  0
  149.2519  161.6977  129.5948 H   0  0  0  0  0  0  0  0  0  0  0  0
  150.0046  158.0547  131.6035 H   0  0  0  0  0  0  0  0  0  0  0  0
  146.4087  157.2863  133.2203 H   0  0  0  0  0  0  0  0  0  0  0  0
  1  2  1  0
  2  3  1  0
  2  4  1  0
  4  5  2  0
  4  6  1  0
  6  7  1  0
  7  8  1  0
  8  9  1  0
  9 10  2  0
  9 11  1  0
 11 12  1  0
 12 13  1  0
 13 14  1  0
 13 15  2  0
 12 16  2  0
 16 17  1  0
 17 18  2  0
 18 19  1  0
 19 20  2  0
 20 21  1  0
 21 22  1  0
 22 23  1  0
 23 24  2  0
 24 25  1  0
 25 26  2  0
 20 27  1  0
 27 28  2  0
 28 11  1  0
 28 17  1  0
 26 22  1  0
  1 29  1  0
  1 30  1  0
  1 31  1  0
  2 32  1  0
  3 33  1  0
  3 34  1  0
  3 35  1  0
  7 36  1  0
  7 37  1  0
 14 38  1  0
 14 39  1  0
 16 40  1  0
 18 41  1  0
 19 42  1  0
 21 43  1  0
 21 44  1  0
 23 45  1  0
 24 46  1  0
 26 47  1  0
 27 48  1  0
M  END
>  <UniqueID>  (41) 
41

>  <SMILES>  (41) 
CC(C)C(=O)OCOC(=O)n1c(C(N)=O)cc2ccc(Cn3ccnc3)cc21

>  <Energy>  (41) 
106.79301034464162

>  <Genealogy>  (41) 
CC(C)C(=O)OCOC(=O)n1c(C(N)=O)cc2ccc(Cn3ccnc3)cc21 (3D coordinates assigned)
CC(C)C(=O)OCOC(=O)n1c(C(N)=O)cc2ccc(Cn3ccnc3)cc21 (optimized conformer: 106.79301034464162 kcal/mol)

>  <smiles>  (41) 
CC(C)C(=O)OCOC(=O)n1c(C(N)=O)cc2ccc(Cn3ccnc3)cc21

>  <score_type>  (41) 
oracle

>  <origin>  (41) 
adg

>  <m_score__min__energy>  (41) 
-7.4400000000000004

>  <m_primary>  (41) 
energy

$$$$
41:0
     RDKit          3D

 41 43  0  0  0  0  0  0  0  0999 V2000
  147.0220  160.8370  133.2870 N   0  0  0  0  0  0  0  0  0  0  0  0
  145.9400  159.9730  133.6440 C   0  0  0  0  0  0  0  0  0  0  0  0
  144.8880  160.4740  134.1200 O   0  0  0  0  0  0  0  0  0  0  0  0
  146.0360  158.5130  133.4360 C   0  0  0  0  0  0  0  0  0  0  0  0
  144.9820  157.6210  133.6310 C   0  0  0  0  0  0  0  0  0  0  0  0
  145.5200  156.3710  133.4250 C   0  0  0  0  0  0  0  0  0  0  0  0
  144.9210  155.1160  133.4800 C   0  0  0  0  0  0  0  0  0  0  0  0
  145.7180  153.9940  133.1970 C   0  0  0  0  0  0  0  0  0  0  0  0
  147.0900  154.1410  132.8660 C   0  0  0  0  0  0  0  0  0  0  0  0
  147.8880  152.9850  132.5480 N   0  0  0  0  0  0  0  0  0  0  0  0
  147.2400  151.7060  132.2330 C   0  0  0  0  0  0  0  0  0  0  0  0
  148.2430  150.5490  132.3390 C   0  0  0  0  0  0  0  0  0  0  0  0
  149.1350  150.7490  133.4900 N   0  0  0  0  0  0  0  0  0  0  0  0
  149.9910  151.9440  133.3390 C   0  0  0  0  0  0  0  0  0  0  0  0
  149.3520  153.0660  132.4940 C   0  0  0  0  0  0  0  0  0  0  0  0
  147.6590  155.4340  132.8170 C   0  0  0  0  0  0  0  0  0  0  0  0
  146.8450  156.5300  133.1160 C   0  0  0  0  0  0  0  0  0  0  0  0
  147.1760  157.8380  133.1180 N   0  0  0  0  0  0  0  0  0  0  0  0
  148.4610  158.3830  132.7780 C   0  0  0  0  0  0  0  0  0  0  0  0
  149.1980  158.8490  133.6900 O   0  0  0  0  0  0  0  0  0  0  0  0
  148.9920  158.2530  131.3770 C   0  0  0  0  0  0  0  0  0  0  0  0
  149.2930  159.5910  130.7760 C   0  0  0  0  0  0  0  0  0  0  0  0
  149.7890  159.6700  129.6210 O   0  0  0  0  0  0  0  0  0  0  0  0
  149.0520  160.7530  131.5010 O   0  0  0  0  0  0  0  0  0  0  0  0
  146.9300  161.8690  133.4110 H   0  0  0  0  0  0  0  0  0  0  0  0
  147.9340  160.4540  132.9530 H   0  0  0  0  0  0  0  0  0  0  0  0
  143.9419  157.8646  133.8936 H   0  0  0  0  0  0  0  0  0  0  0  0
  143.8571  155.0059  133.7369 H   0  0  0  0  0  0  0  0  0  0  0  0
  145.2727  152.9888  133.2325 H   0  0  0  0  0  0  0  0  0  0  0  0
  146.4154  151.5350  132.9407 H   0  0  0  0  0  0  0  0  0  0  0  0
  146.8564  151.7482  131.2029 H   0  0  0  0  0  0  0  0  0  0  0  0
  147.6944  149.6040  132.4653 H   0  0  0  0  0  0  0  0  0  0  0  0
  148.8473  150.5149  131.4205 H   0  0  0  0  0  0  0  0  0  0  0  0
  148.5480  150.8620  134.3500 H   0  0  0  0  0  0  0  0  0  0  0  0
  150.2070  152.3445  134.3405 H   0  0  0  0  0  0  0  0  0  0  0  0
  150.8995  151.6220  132.8089 H   0  0  0  0  0  0  0  0  0  0  0  0
  149.6745  154.0418  132.8861 H   0  0  0  0  0  0  0  0  0  0  0  0
  149.6747  152.9496  131.4489 H   0  0  0  0  0  0  0  0  0  0  0  0
  148.7169  155.5742  132.5500 H   0  0  0  0  0  0  0  0  0  0  0  0
  149.9154  157.6556  131.3991 H   0  0  0  0  0  0  0  0  0  0  0  0
  148.2228  157.7641  130.7612 H   0  0  0  0  0  0  0  0  0  0  0  0
  1  2  1  0
  2  3  2  0
  2  4  1  0
  4  5  2  0
  5  6  1  0
  6  7  2  0
  7  8  1  0
  8  9  2  0
  9 10  1  0
 10 11  1  0
 11 12  1  0
 12 13  1  0
 13 14  1  0
 14 15  1  0
  9 16  1  0
 16 17  2  0
 17 18  1  0
 18 19  1  0
 19 20  2  0
 19 21  1  0
 21 22  1  0
 22 23  2  0
 22 24  1  0
 18  4  1  0
 17  6  1  0
 15 10  1  0
  1 25  1  0
  1 26  1  0
  5 27  1  0
  7 28  1  0
  8 29  1  0
 11 30  1  0
 11 31  1  0
 12 32  1  0
 12 33  1  0
 13 34  1  0
 14 35  1  0
 14 36  1  0
 15 37  1  0
 15 38  1  0
 16 39  1  0
 21 40  1  0
 21 41  1  0
M  CHG  1  24  -1
M  END
>  <UniqueID>  (42) 
42

>  <SMILES>  (42) 
NC(=O)c1cc2ccc(N3CCNCC3)cc2n1C(=O)CC(=O)[O-]

>  <Energy>  (42) 
89.38329661996546

>  <Genealogy>  (42) 
NC(=O)c1cc2ccc(N3CCNCC3)cc2n1C(=O)CC(=O)[O-] (protonated)
NC(=O)c1cc2ccc(N3CCNCC3)cc2n1C(=O)CC(=O)[O-] (3D coordinates assigned)
NC(=O)c1cc2ccc(N3CCNCC3)cc2n1C(=O)CC(=O)[O-] (nonaromatic ring conformer: 89.38329661996546 kcal/mol)

>  <smiles>  (42) 
NC(=O)c1cc2ccc(N3CCNCC3)cc2n1C(=O)CC(=O)O

>  <score_type>  (42) 
oracle

>  <origin>  (42) 
adg

>  <m_score__min__energy>  (42) 
-7.5

>  <m_primary>  (42) 
energy

$$$$
42:0
     RDKit          3D

 30 31  0  0  0  0  0  0  0  0999 V2000
  143.1250  160.5620  133.3620 N   0  0  0  0  0  0  0  0  0  0  0  0
  144.4780  160.7510  133.7690 C   0  0  0  0  0  0  0  0  0  0  0  0
  144.7780  161.7600  134.4610 O   0  0  0  0  0  0  0  0  0  0  0  0
  145.5170  159.7520  133.4430 C   0  0  0  0  0  0  0  0  0  0  0  0
  146.8330  160.0890  133.1370 C   0  0  0  0  0  0  0  0  0  0  0  0
  147.4930  158.8910  132.9900 C   0  0  0  0  0  0  0  0  0  0  0  0
  148.8240  158.6350  132.6720 C   0  0  0  0  0  0  0  0  0  0  0  0
  149.2270  157.2930  132.5560 C   0  0  0  0  0  0  0  0  0  0  0  0
  148.2960  156.2470  132.7520 C   0  0  0  0  0  0  0  0  0  0  0  0
  148.7180  154.8790  132.6170 C   0  0  0  0  0  0  0  0  0  0  0  0
  149.0720  153.7310  132.5040 C   0  0  0  0  0  0  0  0  0  0  0  0
  149.5030  152.3370  132.3660 C   0  0  0  0  0  0  0  0  0  0  0  0
  149.5710  151.6610  133.7350 C   0  0  0  0  0  0  0  0  0  0  0  0
  149.2650  150.2980  133.6180 O   0  0  0  0  0  0  0  0  0  0  0  0
  146.9550  156.5390  133.0720 C   0  0  0  0  0  0  0  0  0  0  0  0
  146.5850  157.8840  133.1990 C   0  0  0  0  0  0  0  0  0  0  0  0
  145.3640  158.3970  133.4750 N   0  0  0  0  0  0  0  0  0  0  0  0
  144.1470  157.6540  133.6570 C   0  0  0  0  0  0  0  0  0  0  0  0
  143.9940  156.9250  134.6720 O   0  0  0  0  0  0  0  0  0  0  0  0
  143.1400  157.7130  132.7030 O   0  0  0  0  0  0  0  0  0  0  0  0
  142.8800  159.8730  132.6170 H   0  0  0  0  0  0  0  0  0  0  0  0
  147.2555  161.0995  133.0345 H   0  0  0  0  0  0  0  0  0  0  0  0
  149.5381  159.4571  132.5163 H   0  0  0  0  0  0  0  0  0  0  0  0
  150.2728  157.0554  132.3113 H   0  0  0  0  0  0  0  0  0  0  0  0
  148.7854  151.7972  131.7307 H   0  0  0  0  0  0  0  0  0  0  0  0
  150.5032  152.3170  131.9087 H   0  0  0  0  0  0  0  0  0  0  0  0
  150.5858  151.7716  134.1448 H   0  0  0  0  0  0  0  0  0  0  0  0
  148.8408  152.1363  134.4065 H   0  0  0  0  0  0  0  0  0  0  0  0
  148.4510  150.1420  134.1650 H   0  0  0  0  0  0  0  0  0  0  0  0
  146.2199  155.7338  133.2179 H   0  0  0  0  0  0  0  0  0  0  0  0
  1  2  1  0
  2  3  2  0
  2  4  1  0
  4  5  2  0
  5  6  1  0
  6  7  2  0
  7  8  1  0
  8  9  2  0
  9 10  1  0
 10 11  3  0
 11 12  1  0
 12 13  1  0
 13 14  1  0
  9 15  1  0
 15 16  2  0
 16 17  1  0
 17 18  1  0
 18 19  2  0
 18 20  1  0
 17  4  1  0
 16  6  1  0
  1 21  1  0
  5 22  1  0
  7 23  1  0
  8 24  1  0
 12 25  1  0
 12 26  1  0
 13 27  1  0
 13 28  1  0
 14 29  1  0
 15 30  1  0
M  CHG  2   1  -1  20  -1
M  END
>  <UniqueID>  (43) 
43

>  <SMILES>  (43) 
[NH-]C(=O)c1cc2ccc(C#CCCO)cc2n1C(=O)[O-]

>  <Energy>  (43) 
63.24792009958295

>  <Genealogy>  (43) 
[NH-]C(=O)c1cc2ccc(C#CCCO)cc2n1C(=O)[O-] (protonated)
[NH-]C(=O)c1cc2ccc(C#CCCO)cc2n1C(=O)[O-] (3D coordinates assigned)
[NH-]C(=O)c1cc2ccc(C#CCCO)cc2n1C(=O)[O-] (optimized conformer: 63.24792009958295 kcal/mol)

>  <smiles>  (43) 
NC(=O)c1cc2ccc(C#CCCO)cc2n1C(=O)O

>  <score_type>  (43) 
oracle

>  <origin>  (43) 
adg

>  <m_score__min__energy>  (43) 
-6.8399999999999999

>  <m_primary>  (43) 
energy

$$$$
43:0
     RDKit          3D

 32 33  0  0  0  0  0  0  0  0999 V2000
  147.7090  156.3530  135.2220 C   0  0  0  0  0  0  0  0  0  0  0  0
  147.3870  155.7590  133.9220 N   0  0  0  0  0  0  0  0  0  0  0  0
  147.3910  154.3050  133.7450 C   0  0  0  0  0  0  0  0  0  0  0  0
  147.1190  156.6090  132.7900 C   0  0  0  0  0  0  0  0  0  0  0  0
  147.0330  156.1160  131.6320 O   0  0  0  0  0  0  0  0  0  0  0  0
  146.9450  158.0230  132.9610 N   0  0  0  0  0  0  0  0  0  0  0  0
  147.8390  159.0110  132.6880 C   0  0  0  0  0  0  0  0  0  0  0  0
  149.2310  158.8160  132.2290 C   0  0  0  0  0  0  0  0  0  0  0  0
  149.7460  157.5090  131.9840 N   0  0  0  0  0  0  0  0  0  0  0  0
  149.9810  159.8140  132.0650 O   0  0  0  0  0  0  0  0  0  0  0  0
  147.2690  160.2610  132.9330 C   0  0  0  0  0  0  0  0  0  0  0  0
  145.9860  160.0000  133.3620 C   0  0  0  0  0  0  0  0  0  0  0  0
  144.9670  160.8700  133.7350 C   0  0  0  0  0  0  0  0  0  0  0  0
  143.7330  160.3140  134.1180 C   0  0  0  0  0  0  0  0  0  0  0  0
  143.5420  158.9090  134.1190 C   0  0  0  0  0  0  0  0  0  0  0  0
  142.2150  158.3360  134.5270 C   0  0  0  0  0  0  0  0  0  0  0  0
  141.7900  158.9340  135.7000 F   0  0  0  0  0  0  0  0  0  0  0  0
  141.2820  158.5670  133.5330 F   0  0  0  0  0  0  0  0  0  0  0  0
  144.6000  158.0570  133.7310 C   0  0  0  0  0  0  0  0  0  0  0  0
  145.8170  158.6400  133.3660 C   0  0  0  0  0  0  0  0  0  0  0  0
  147.3510  155.6927  136.0256 H   0  0  0  0  0  0  0  0  0  0  0  0
  148.7985  156.4781  135.3082 H   0  0  0  0  0  0  0  0  0  0  0  0
  147.2193  157.3342  135.3082 H   0  0  0  0  0  0  0  0  0  0  0  0
  147.3924  153.8157  134.7302 H   0  0  0  0  0  0  0  0  0  0  0  0
  146.4937  154.0012  133.1859 H   0  0  0  0  0  0  0  0  0  0  0  0
  148.2900  154.0062  133.1859 H   0  0  0  0  0  0  0  0  0  0  0  0
  149.1240  156.7410  131.6480 H   0  0  0  0  0  0  0  0  0  0  0  0
  147.7434  161.2458  132.8098 H   0  0  0  0  0  0  0  0  0  0  0  0
  145.1213  161.9591  133.7306 H   0  0  0  0  0  0  0  0  0  0  0  0
  142.9078  160.9758  134.4198 H   0  0  0  0  0  0  0  0  0  0  0  0
  142.3237  157.2528  134.6846 H   0  0  0  0  0  0  0  0  0  0  0  0
  144.4697  156.9648  133.7165 H   0  0  0  0  0  0  0  0  0  0  0  0
  1  2  1  0
  2  3  1  0
  2  4  1  0
  4  5  2  0
  4  6  1  0
  6  7  1  0
  7  8  1  0
  8  9  1  0
  8 10  2  0
  7 11  2  0
 11 12  1  0
 12 13  2  0
 13 14  1  0
 14 15  2  0
 15 16  1  0
 16 17  1  0
 16 18  1  0
 15 19  1  0
 19 20  2  0
 20  6  1  0
 20 12  1  0
  1 21  1  0
  1 22  1  0
  1 23  1  0
  3 24  1  0
  3 25  1  0
  3 26  1  0
  9 27  1  0
 11 28  1  0
 13 29  1  0
 14 30  1  0
 16 31  1  0
 19 32  1  0
M  CHG  1   9  -1
M  END
>  <UniqueID>  (44) 
44

>  <SMILES>  (44) 
CN(C)C(=O)n1c(C([NH-])=O)cc2ccc(C(F)F)cc21

>  <Energy>  (44) 
68.74156930297295

>  <Genealogy>  (44) 
CN(C)C(=O)n1c(C([NH-])=O)cc2ccc(C(F)F)cc21 (protonated)
CN(C)C(=O)n1c(C([NH-])=O)cc2ccc(C(F)F)cc21 (3D coordinates assigned)
CN(C)C(=O)n1c(C([NH-])=O)cc2ccc(C(F)F)cc21 (optimized conformer: 68.74156930297295 kcal/mol)

>  <smiles>  (44) 
CN(C)C(=O)n1c(C(N)=O)cc2ccc(C(F)F)cc21

>  <score_type>  (44) 
oracle

>  <origin>  (44) 
adg

>  <m_score__min__energy>  (44) 
-5.1699999999999999

>  <m_primary>  (44) 
energy

$$$$
44:0
     RDKit          3D

 31 32  0  0  0  0  0  0  0  0999 V2000
  137.4190  159.5900  131.1060 C   0  0  0  0  0  0  0  0  0  0  0  0
  138.5360  158.8550  131.6830 N   0  0  0  0  0  0  0  0  0  0  0  0
  139.5090  159.3820  132.5960 C   0  0  0  0  0  0  0  0  0  0  0  0
  139.9410  160.5490  132.3990 O   0  0  0  0  0  0  0  0  0  0  0  0
  140.0210  158.6210  133.7580 C   0  0  0  0  0  0  0  0  0  0  0  0
  139.3940  158.6210  134.8510 O   0  0  0  0  0  0  0  0  0  0  0  0
  141.2670  157.9110  133.6680 N   0  0  0  0  0  0  0  0  0  0  0  0
  141.4450  156.5890  133.3920 C   0  0  0  0  0  0  0  0  0  0  0  0
  140.3730  155.5790  133.2800 C   0  0  0  0  0  0  0  0  0  0  0  0
  139.0920  155.9090  132.7420 N   0  0  0  0  0  0  0  0  0  0  0  0
  140.5790  154.4110  133.7080 O   0  0  0  0  0  0  0  0  0  0  0  0
  142.7980  156.2990  133.2320 C   0  0  0  0  0  0  0  0  0  0  0  0
  143.4520  157.4960  133.4220 C   0  0  0  0  0  0  0  0  0  0  0  0
  144.8080  157.7970  133.3450 C   0  0  0  0  0  0  0  0  0  0  0  0
  145.1970  159.1350  133.5310 C   0  0  0  0  0  0  0  0  0  0  0  0
  144.2300  160.1420  133.7730 C   0  0  0  0  0  0  0  0  0  0  0  0
  144.6650  161.5690  133.9430 C   0  0  0  0  0  0  0  0  0  0  0  0
  145.1230  161.7640  135.2340 F   0  0  0  0  0  0  0  0  0  0  0  0
  143.5970  162.4150  133.7050 F   0  0  0  0  0  0  0  0  0  0  0  0
  142.8600  159.7990  133.8350 C   0  0  0  0  0  0  0  0  0  0  0  0
  142.5050  158.4540  133.6750 C   0  0  0  0  0  0  0  0  0  0  0  0
  136.7945  160.0009  131.9129 H   0  0  0  0  0  0  0  0  0  0  0  0
  137.8031  160.4124  130.4846 H   0  0  0  0  0  0  0  0  0  0  0  0
  136.8157  158.9118  130.4846 H   0  0  0  0  0  0  0  0  0  0  0  0
  138.8210  156.9000  132.5590 H   0  0  0  0  0  0  0  0  0  0  0  0
  138.3700  155.1650  132.6190 H   0  0  0  0  0  0  0  0  0  0  0  0
  143.2482  155.3219  133.0027 H   0  0  0  0  0  0  0  0  0  0  0  0
  145.5526  157.0125  133.1448 H   0  0  0  0  0  0  0  0  0  0  0  0
  146.2630  159.4030  133.4883 H   0  0  0  0  0  0  0  0  0  0  0  0
  145.4718  161.7873  133.2279 H   0  0  0  0  0  0  0  0  0  0  0  0
  142.0927  160.5688  134.0046 H   0  0  0  0  0  0  0  0  0  0  0  0
  1  2  1  0
  2  3  1  0
  3  4  2  0
  3  5  1  0
  5  6  2  0
  5  7  1  0
  7  8  1  0
  8  9  1  0
  9 10  1  0
  9 11  2  0
  8 12  2  0
 12 13  1  0
 13 14  2  0
 14 15  1  0
 15 16  2  0
 16 17  1  0
 17 18  1  0
 17 19  1  0
 16 20  1  0
 20 21  2  0
 21  7  1  0
 21 13  1  0
  1 22  1  0
  1 23  1  0
  1 24  1  0
 10 25  1  0
 10 26  1  0
 12 27  1  0
 14 28  1  0
 15 29  1  0
 17 30  1  0
 20 31  1  0
M  CHG  1   2  -1
M  END
>  <UniqueID>  (45) 
45

>  <SMILES>  (45) 
C[N-]C(=O)C(=O)n1c(C(N)=O)cc2ccc(C(F)F)cc21

>  <Energy>  (45) 
70.88526559195076

>  <Genealogy>  (45) 
C[N-]C(=O)C(=O)n1c(C(N)=O)cc2ccc(C(F)F)cc21 (protonated)
C[N-]C(=O)C(=O)n1c(C(N)=O)cc2ccc(C(F)F)cc21 (3D coordinates assigned)
C[N-]C(=O)C(=O)n1c(C(N)=O)cc2ccc(C(F)F)cc21 (optimized conformer: 70.88526559195076 kcal/mol)

>  <smiles>  (45) 
CNC(=O)C(=O)n1c(C(N)=O)cc2ccc(C(F)F)cc21

>  <score_type>  (45) 
oracle

>  <origin>  (45) 
adg

>  <m_score__min__energy>  (45) 
-5.9299999999999997

>  <m_primary>  (45) 
energy

$$$$
45:0
     RDKit          3D

 39 40  0  0  0  0  0  0  0  0999 V2000
  147.0140  155.1550  135.1220 C   0  0  0  0  0  0  0  0  0  0  0  0
  146.0450  155.4650  134.2640 C   0  0  0  0  0  0  0  0  0  0  0  0
  146.2590  156.3680  133.1170 C   0  0  0  0  0  0  0  0  0  0  0  0
  146.6700  155.9130  132.0140 O   0  0  0  0  0  0  0  0  0  0  0  0
  146.0170  157.7780  133.2550 N   0  0  0  0  0  0  0  0  0  0  0  0
  146.9170  158.7900  133.1050 C   0  0  0  0  0  0  0  0  0  0  0  0
  148.3720  158.6130  132.8840 C   0  0  0  0  0  0  0  0  0  0  0  0
  148.8580  157.7210  131.8790 N   0  0  0  0  0  0  0  0  0  0  0  0
  149.2000  159.2670  133.5730 O   0  0  0  0  0  0  0  0  0  0  0  0
  146.2900  160.0250  133.2610 C   0  0  0  0  0  0  0  0  0  0  0  0
  144.9670  159.7350  133.5050 C   0  0  0  0  0  0  0  0  0  0  0  0
  143.8900  160.5870  133.7230 C   0  0  0  0  0  0  0  0  0  0  0  0
  142.6230  160.0110  133.9210 C   0  0  0  0  0  0  0  0  0  0  0  0
  142.4510  158.6010  133.8860 C   0  0  0  0  0  0  0  0  0  0  0  0
  141.1610  157.9860  134.0760 N   0  0  0  0  0  0  0  0  0  0  0  0
  140.9230  156.5430  134.0930 C   0  0  0  0  0  0  0  0  0  0  0  0
  141.4990  155.9380  135.3320 C   0  0  0  0  0  0  0  0  0  0  0  0
  142.3910  155.0510  135.2370 O   0  0  0  0  0  0  0  0  0  0  0  0
  141.0240  156.3390  136.5840 O   0  0  0  0  0  0  0  0  0  0  0  0
  141.3940  157.5730  137.1870 C   0  0  0  0  0  0  0  0  0  0  0  0
  140.4110  158.6260  136.7980 C   0  0  0  0  0  0  0  0  0  0  0  0
  139.3720  158.3200  136.1570 O   0  0  0  0  0  0  0  0  0  0  0  0
  140.6370  159.9500  137.1560 O   0  0  0  0  0  0  0  0  0  0  0  0
  143.5740  157.7730  133.6630 C   0  0  0  0  0  0  0  0  0  0  0  0
  144.8270  158.3720  133.4920 C   0  0  0  0  0  0  0  0  0  0  0  0
  146.8077  154.4768  135.9631 H   0  0  0  0  0  0  0  0  0  0  0  0
  148.0212  155.5770  134.9900 H   0  0  0  0  0  0  0  0  0  0  0  0
  145.0457  155.0311  134.4159 H   0  0  0  0  0  0  0  0  0  0  0  0
  149.8840  157.6290  131.7140 H   0  0  0  0  0  0  0  0  0  0  0  0
  148.2110  157.1120  131.3310 H   0  0  0  0  0  0  0  0  0  0  0  0
  146.7542  161.0205  133.2017 H   0  0  0  0  0  0  0  0  0  0  0  0
  144.0253  161.6785  133.7400 H   0  0  0  0  0  0  0  0  0  0  0  0
  141.7541  160.6598  134.1053 H   0  0  0  0  0  0  0  0  0  0  0  0
  140.3360  158.6050  134.2430 H   0  0  0  0  0  0  0  0  0  0  0  0
  139.8398  156.3533  134.0661 H   0  0  0  0  0  0  0  0  0  0  0  0
  141.4063  156.0898  133.2149 H   0  0  0  0  0  0  0  0  0  0  0  0
  141.3984  157.4606  138.2812 H   0  0  0  0  0  0  0  0  0  0  0  0
  142.3989  157.8630  136.8464 H   0  0  0  0  0  0  0  0  0  0  0  0
  143.4654  156.6790  133.6246 H   0  0  0  0  0  0  0  0  0  0  0  0
  1  2  2  0
  2  3  1  0
  3  4  2  0
  3  5  1  0
  5  6  1  0
  6  7  1  0
  7  8  1  0
  7  9  2  0
  6 10  2  0
 10 11  1  0
 11 12  2  0
 12 13  1  0
 13 14  2  0
 14 15  1  0
 15 16  1  0
 16 17  1  0
 17 18  2  0
 17 19  1  0
 19 20  1  0
 20 21  1  0
 21 22  2  0
 21 23  1  0
 14 24  1  0
 24 25  2  0
 25  5  1  0
 25 11  1  0
  1 26  1  0
  1 27  1  0
  2 28  1  0
  8 29  1  0
  8 30  1  0
 10 31  1  0
 12 32  1  0
 13 33  1  0
 15 34  1  0
 16 35  1  0
 16 36  1  0
 20 37  1  0
 20 38  1  0
 24 39  1  0
M  CHG  1  23  -1
M  END
>  <UniqueID>  (46) 
46

>  <SMILES>  (46) 
C=CC(=O)n1c(C(N)=O)cc2ccc(NCC(=O)OCC(=O)[O-])cc21

>  <Energy>  (46) 
72.48509547646383

>  <Genealogy>  (46) 
C=CC(=O)n1c(C(N)=O)cc2ccc(NCC(=O)OCC(=O)[O-])cc21 (protonated)
C=CC(=O)n1c(C(N)=O)cc2ccc(NCC(=O)OCC(=O)[O-])cc21 (3D coordinates assigned)
C=CC(=O)n1c(C(N)=O)cc2ccc(NCC(=O)OCC(=O)[O-])cc21 (optimized conformer: 72.48509547646383 kcal/mol)

>  <smiles>  (46) 
C=CC(=O)n1c(C(N)=O)cc2ccc(NCC(=O)OCC(=O)O)cc21

>  <score_type>  (46) 
oracle

>  <origin>  (46) 
adg

>  <m_score__min__energy>  (46) 
-7.1299999999999999

>  <m_primary>  (46) 
energy

$$$$
46:0
     RDKit          3D

 34 35  0  0  0  0  0  0  0  0999 V2000
  142.9760  160.1160  133.3750 N   0  0  0  0  0  0  0  0  0  0  0  0
  144.2840  160.4720  133.8210 C   0  0  0  0  0  0  0  0  0  0  0  0
  144.4480  161.5460  134.4570 O   0  0  0  0  0  0  0  0  0  0  0  0
  145.4190  159.5590  133.5720 C   0  0  0  0  0  0  0  0  0  0  0  0
  146.6790  159.9940  133.1650 C   0  0  0  0  0  0  0  0  0  0  0  0
  147.4120  158.8480  132.9590 C   0  0  0  0  0  0  0  0  0  0  0  0
  148.7330  158.6920  132.5510 C   0  0  0  0  0  0  0  0  0  0  0  0
  149.2400  157.3850  132.4450 C   0  0  0  0  0  0  0  0  0  0  0  0
  148.4280  156.2690  132.7640 C   0  0  0  0  0  0  0  0  0  0  0  0
  148.9760  154.8740  132.6270 C   0  0  0  0  0  0  0  0  0  0  0  0
  147.8800  153.8370  132.8830 C   0  0  0  0  0  0  0  0  0  0  0  0
  147.9690  153.3540  134.1970 O   0  0  0  0  0  0  0  0  0  0  0  0
  147.0880  156.4660  133.1640 C   0  0  0  0  0  0  0  0  0  0  0  0
  146.6040  157.7770  133.2430 C   0  0  0  0  0  0  0  0  0  0  0  0
  145.3760  158.1970  133.6230 N   0  0  0  0  0  0  0  0  0  0  0  0
  144.2900  157.3690  134.0650 C   0  0  0  0  0  0  0  0  0  0  0  0
  143.1370  157.5310  133.5800 O   0  0  0  0  0  0  0  0  0  0  0  0
  144.5220  156.3680  135.0160 O   0  0  0  0  0  0  0  0  0  0  0  0
  143.9230  155.0760  134.9560 C   0  0  0  0  0  0  0  0  0  0  0  0
  144.9780  154.0160  134.9340 C   0  0  0  0  0  0  0  0  0  0  0  0
  145.0390  153.2000  133.9780 O   0  0  0  0  0  0  0  0  0  0  0  0
  145.9120  153.9470  135.9600 O   0  0  0  0  0  0  0  0  0  0  0  0
  142.8420  159.4280  132.6030 H   0  0  0  0  0  0  0  0  0  0  0  0
  147.0160  161.0331  133.0358 H   0  0  0  0  0  0  0  0  0  0  0  0
  149.3614  159.5644  132.3185 H   0  0  0  0  0  0  0  0  0  0  0  0
  150.2763  157.2276  132.1114 H   0  0  0  0  0  0  0  0  0  0  0  0
  149.3707  154.7390  131.6092 H   0  0  0  0  0  0  0  0  0  0  0  0
  149.7771  154.7334  133.3676 H   0  0  0  0  0  0  0  0  0  0  0  0
  146.8954  154.3041  132.7332 H   0  0  0  0  0  0  0  0  0  0  0  0
  148.0078  152.9986  132.1825 H   0  0  0  0  0  0  0  0  0  0  0  0
  147.0750  152.9880  134.4260 H   0  0  0  0  0  0  0  0  0  0  0  0
  146.4408  155.6105  133.4074 H   0  0  0  0  0  0  0  0  0  0  0  0
  143.2819  154.9318  135.8381 H   0  0  0  0  0  0  0  0  0  0  0  0
  143.3220  155.0022  134.0376 H   0  0  0  0  0  0  0  0  0  0  0  0
  1  2  1  0
  2  3  2  0
  2  4  1  0
  4  5  2  0
  5  6  1  0
  6  7  2  0
  7  8  1  0
  8  9  2  0
  9 10  1  0
 10 11  1  0
 11 12  1  0
  9 13  1  0
 13 14  2  0
 14 15  1  0
 15 16  1  0
 16 17  2  0
 16 18  1  0
 18 19  1  0
 19 20  1  0
 20 21  2  0
 20 22  1  0
 15  4  1  0
 14  6  1  0
  1 23  1  0
  5 24  1  0
  7 25  1  0
  8 26  1  0
 10 27  1  0
 10 28  1  0
 11 29  1  0
 11 30  1  0
 12 31  1  0
 13 32  1  0
 19 33  1  0
 19 34  1  0
M  CHG  2   1  -1  22  -1
M  END
>  <UniqueID>  (47) 
47

>  <SMILES>  (47) 
[NH-]C(=O)c1cc2ccc(CCO)cc2n1C(=O)OCC(=O)[O-]

>  <Energy>  (47) 
67.7404577813278

>  <Genealogy>  (47) 
[NH-]C(=O)c1cc2ccc(CCO)cc2n1C(=O)OCC(=O)[O-] (protonated)
[NH-]C(=O)c1cc2ccc(CCO)cc2n1C(=O)OCC(=O)[O-] (3D coordinates assigned)
[NH-]C(=O)c1cc2ccc(CCO)cc2n1C(=O)OCC(=O)[O-] (optimized conformer: 67.7404577813278 kcal/mol)

>  <smiles>  (47) 
NC(=O)c1cc2ccc(CCO)cc2n1C(=O)OCC(=O)O

>  <score_type>  (47) 
oracle

>  <origin>  (47) 
adg

>  <m_score__min__energy>  (47) 
-5.3200000000000003

>  <m_primary>  (47) 
energy

$$$$
47:0
     RDKit          3D

 39 41  0  0  0  0  0  0  0  0999 V2000
  147.8400  157.6620  133.7950 C   0  0  0  0  0  0  0  0  0  0  0  0
  147.2880  158.7150  133.6010 C   0  0  0  0  0  0  0  0  0  0  0  0
  146.6270  159.9710  133.3670 C   0  0  0  0  0  0  0  0  0  0  0  0
  147.3040  160.9590  132.9770 O   0  0  0  0  0  0  0  0  0  0  0  0
  145.2030  160.0880  133.5150 N   0  0  0  0  0  0  0  0  0  0  0  0
  144.4820  161.1780  133.9060 C   0  0  0  0  0  0  0  0  0  0  0  0
  145.0180  162.5370  134.1220 C   0  0  0  0  0  0  0  0  0  0  0  0
  146.2270  162.7140  134.8580 N   0  0  0  0  0  0  0  0  0  0  0  0
  144.4030  163.5480  133.6930 O   0  0  0  0  0  0  0  0  0  0  0  0
  143.1290  160.8580  133.9990 C   0  0  0  0  0  0  0  0  0  0  0  0
  143.0420  159.5320  133.6410 C   0  0  0  0  0  0  0  0  0  0  0  0
  141.9340  158.6950  133.5650 C   0  0  0  0  0  0  0  0  0  0  0  0
  142.1450  157.3580  133.1890 C   0  0  0  0  0  0  0  0  0  0  0  0
  143.4460  156.8730  132.9000 C   0  0  0  0  0  0  0  0  0  0  0  0
  143.6010  155.4840  132.5300 N   0  0  0  0  0  0  0  0  0  0  0  0
  144.1140  154.3890  133.3690 C   0  0  1  0  0  0  0  0  0  0  0  0
  145.1410  153.5090  132.6380 C   0  0  0  0  0  0  0  0  0  0  0  0
  146.3180  153.3370  133.5950 C   0  0  0  0  0  0  0  0  0  0  0  0
  146.0530  154.2100  134.7260 N   0  0  0  0  0  0  0  0  0  0  0  0
  146.9850  154.3980  135.7980 C   0  0  0  0  0  0  0  0  0  0  0  0
  147.6320  155.4740  135.8980 O   0  0  0  0  0  0  0  0  0  0  0  0
  147.1850  153.3920  136.7370 O   0  0  0  0  0  0  0  0  0  0  0  0
  144.7710  154.8870  134.6590 C   0  0  0  0  0  0  0  0  0  0  0  0
  144.5460  157.7640  132.9890 C   0  0  0  0  0  0  0  0  0  0  0  0
  144.3050  159.0920  133.3530 C   0  0  0  0  0  0  0  0  0  0  0  0
  148.3441  156.7005  133.9721 H   0  0  0  0  0  0  0  0  0  0  0  0
  147.1570  162.5710  134.4040 H   0  0  0  0  0  0  0  0  0  0  0  0
  142.3052  161.5239  134.2956 H   0  0  0  0  0  0  0  0  0  0  0  0
  140.9244  159.0680  133.7921 H   0  0  0  0  0  0  0  0  0  0  0  0
  141.2857  156.6750  133.1174 H   0  0  0  0  0  0  0  0  0  0  0  0
  143.3210  155.2160  131.5600 H   0  0  0  0  0  0  0  0  0  0  0  0
  143.2200  153.7957  133.6113 H   0  0  0  0  0  0  0  0  0  0  0  0
  144.7005  152.5304  132.3966 H   0  0  0  0  0  0  0  0  0  0  0  0
  145.4600  153.9699  131.6915 H   0  0  0  0  0  0  0  0  0  0  0  0
  146.3881  152.2913  133.9289 H   0  0  0  0  0  0  0  0  0  0  0  0
  147.2708  153.5911  133.1076 H   0  0  0  0  0  0  0  0  0  0  0  0
  144.1527  154.6270  135.5308 H   0  0  0  0  0  0  0  0  0  0  0  0
  144.8859  155.9810  134.6632 H   0  0  0  0  0  0  0  0  0  0  0  0
  145.5679  157.4171  132.7759 H   0  0  0  0  0  0  0  0  0  0  0  0
  1  2  3  0
  2  3  1  0
  3  4  2  0
  3  5  1  0
  5  6  1  0
  6  7  1  0
  7  8  1  0
  7  9  2  0
  6 10  2  0
 10 11  1  0
 11 12  2  0
 12 13  1  0
 13 14  2  0
 14 15  1  0
 15 16  1  0
 16 17  1  0
 17 18  1  0
 18 19  1  0
 19 20  1  0
 20 21  2  0
 20 22  1  0
 19 23  1  0
 14 24  1  0
 24 25  2  0
 25  5  1  0
 25 11  1  0
 23 16  1  0
  1 26  1  0
  8 27  1  0
 10 28  1  0
 12 29  1  0
 13 30  1  0
 15 31  1  0
 16 32  1  1
 17 33  1  0
 17 34  1  0
 18 35  1  0
 18 36  1  0
 23 37  1  0
 23 38  1  0
 24 39  1  0
M  CHG  2   8  -1  22  -1
M  END
>  <UniqueID>  (48) 
48

>  <SMILES>  (48) 
C#CC(=O)n1c(C([NH-])=O)cc2ccc(N[C@H]3CCN(C(=O)[O-])C3)cc21

>  <Energy>  (48) 
79.62677442804215

>  <Genealogy>  (48) 
C#CC(=O)n1c(C([NH-])=O)cc2ccc(NC3CCN(C(=O)[O-])C3)cc21 (protonated)
C#CC(=O)n1c(C([NH-])=O)cc2ccc(N[C@H]3CCN(C(=O)[O-])C3)cc21 (chirality)
C#CC(=O)n1c(C([NH-])=O)cc2ccc(N[C@H]3CCN(C(=O)[O-])C3)cc21 (3D coordinates assigned)
C#CC(=O)n1c(C([NH-])=O)cc2ccc(N[C@H]3CCN(C(=O)[O-])C3)cc21 (nonaromatic ring conformer: 79.62677442804215 kcal/mol)

>  <smiles>  (48) 
C#CC(=O)n1c(C(N)=O)cc2ccc(NC3CCN(C(=O)O)C3)cc21

>  <score_type>  (48) 
oracle

>  <origin>  (48) 
adg

>  <m_score__min__energy>  (48) 
-8.6099999999999994

>  <m_primary>  (48) 
energy

$$$$
48:0
     RDKit          3D

 37 38  0  0  0  0  0  0  0  0999 V2000
  138.8120  159.0000  132.0060 C   0  0  0  0  0  0  0  0  0  0  0  0
  139.0740  157.8580  132.9820 C   0  0  0  0  0  0  0  0  0  0  0  0
  140.3480  157.2680  132.7320 O   0  0  0  0  0  0  0  0  0  0  0  0
  140.8690  156.2120  133.4890 C   0  0  0  0  0  0  0  0  0  0  0  0
  140.5080  155.0240  133.2650 O   0  0  0  0  0  0  0  0  0  0  0  0
  141.8190  156.5230  134.6130 C   0  0  2  0  0  0  0  0  0  0  0  0
  141.0860  156.9850  135.8800 C   0  0  0  0  0  0  0  0  0  0  0  0
  142.8450  157.5440  134.1710 C   0  0  0  0  0  0  0  0  0  0  0  0
  142.4730  158.8960  133.9430 C   0  0  0  0  0  0  0  0  0  0  0  0
  143.4250  159.8470  133.5440 C   0  0  0  0  0  0  0  0  0  0  0  0
  144.7390  159.4230  133.3760 C   0  0  0  0  0  0  0  0  0  0  0  0
  145.8590  160.1390  133.0200 C   0  0  0  0  0  0  0  0  0  0  0  0
  146.9020  159.2140  133.0140 C   0  0  0  0  0  0  0  0  0  0  0  0
  148.2830  159.5350  132.5930 C   0  0  0  0  0  0  0  0  0  0  0  0
  149.3830  158.7330  133.0270 N   0  0  0  0  0  0  0  0  0  0  0  0
  148.5060  160.5430  131.8700 O   0  0  0  0  0  0  0  0  0  0  0  0
  146.4450  157.9760  133.3560 N   0  0  0  0  0  0  0  0  0  0  0  0
  147.2190  156.7770  133.5290 C   0  0  0  0  0  0  0  0  0  0  0  0
  147.9920  156.3800  132.6180 O   0  0  0  0  0  0  0  0  0  0  0  0
  147.1080  156.0320  134.6970 O   0  0  0  0  0  0  0  0  0  0  0  0
  145.1170  158.1210  133.5750 C   0  0  0  0  0  0  0  0  0  0  0  0
  144.1930  157.1550  133.9910 C   0  0  0  0  0  0  0  0  0  0  0  0
  138.6006  159.9216  132.5682 H   0  0  0  0  0  0  0  0  0  0  0  0
  139.6986  159.1520  131.3729 H   0  0  0  0  0  0  0  0  0  0  0  0
  137.9478  158.7503  131.3729 H   0  0  0  0  0  0  0  0  0  0  0  0
  139.0517  158.2485  134.0101 H   0  0  0  0  0  0  0  0  0  0  0  0
  138.2957  157.0920  132.8496 H   0  0  0  0  0  0  0  0  0  0  0  0
  142.3419  155.5906  134.8723 H   0  0  0  0  0  0  0  0  0  0  0  0
  141.6351  156.6389  136.7681 H   0  0  0  0  0  0  0  0  0  0  0  0
  141.0277  158.0834  135.8900 H   0  0  0  0  0  0  0  0  0  0  0  0
  140.0699  156.5638  135.8900 H   0  0  0  0  0  0  0  0  0  0  0  0
  141.4253  159.2014  134.0809 H   0  0  0  0  0  0  0  0  0  0  0  0
  143.1407  160.8952  133.3696 H   0  0  0  0  0  0  0  0  0  0  0  0
  145.9186  161.2129  132.7892 H   0  0  0  0  0  0  0  0  0  0  0  0
  150.3580  158.9910  132.7560 H   0  0  0  0  0  0  0  0  0  0  0  0
  149.2340  157.8620  133.5810 H   0  0  0  0  0  0  0  0  0  0  0  0
  144.5081  156.1171  134.1737 H   0  0  0  0  0  0  0  0  0  0  0  0
  1  2  1  0
  2  3  1  0
  3  4  1  0
  4  5  2  0
  4  6  1  0
  6  7  1  0
  6  8  1  0
  8  9  2  0
  9 10  1  0
 10 11  2  0
 11 12  1  0
 12 13  2  0
 13 14  1  0
 14 15  1  0
 14 16  2  0
 13 17  1  0
 17 18  1  0
 18 19  2  0
 18 20  1  0
 17 21  1  0
 21 22  2  0
 22  8  1  0
 21 11  1  0
  1 23  1  0
  1 24  1  0
  1 25  1  0
  2 26  1  0
  2 27  1  0
  6 28  1  1
  7 29  1  0
  7 30  1  0
  7 31  1  0
  9 32  1  0
 10 33  1  0
 12 34  1  0
 15 35  1  0
 15 36  1  0
 22 37  1  0
M  CHG  1  20  -1
M  END
>  <UniqueID>  (49) 
49

>  <SMILES>  (49) 
CCOC(=O)[C@H](C)c1ccc2cc(C(N)=O)n(C(=O)[O-])c2c1

>  <Energy>  (49) 
70.34378586219322

>  <Genealogy>  (49) 
CCOC(=O)C(C)c1ccc2cc(C(N)=O)n(C(=O)[O-])c2c1 (protonated)
CCOC(=O)[C@H](C)c1ccc2cc(C(N)=O)n(C(=O)[O-])c2c1 (chirality)
CCOC(=O)[C@H](C)c1ccc2cc(C(N)=O)n(C(=O)[O-])c2c1 (3D coordinates assigned)
CCOC(=O)[C@H](C)c1ccc2cc(C(N)=O)n(C(=O)[O-])c2c1 (optimized conformer: 70.34378586219322 kcal/mol)

>  <smiles>  (49) 
CCOC(=O)C(C)c1ccc2cc(C(N)=O)n(C(=O)O)c2c1

>  <score_type>  (49) 
oracle

>  <origin>  (49) 
adg

>  <m_score__min__energy>  (49) 
-6.4900000000000002

>  <m_primary>  (49) 
energy

$$$$
49:0
     RDKit          3D

 43 45  0  0  0  0  0  0  0  0999 V2000
  138.7960  158.6860  131.7880 C   0  0  0  0  0  0  0  0  0  0  0  0
  138.2010  158.3560  133.0240 O   0  0  0  0  0  0  0  0  0  0  0  0
  139.0260  157.4530  133.7430 C   0  0  2  0  0  0  0  0  0  0  0  0
  139.1040  157.8740  135.2130 C   0  0  0  0  0  0  0  0  0  0  0  0
  140.3460  158.7440  135.3330 C   0  0  0  0  0  0  0  0  0  0  0  0
  141.1560  158.4390  134.1630 N   0  0  0  0  0  0  0  0  0  0  0  0
  142.5000  158.9330  133.9600 C   0  0  0  0  0  0  0  0  0  0  0  0
  142.7600  160.3310  133.9350 C   0  0  0  0  0  0  0  0  0  0  0  0
  144.0610  160.8220  133.7300 C   0  0  0  0  0  0  0  0  0  0  0  0
  145.0870  159.9010  133.5580 C   0  0  0  0  0  0  0  0  0  0  0  0
  146.4280  160.1010  133.3180 C   0  0  0  0  0  0  0  0  0  0  0  0
  146.9770  158.8240  133.2240 C   0  0  0  0  0  0  0  0  0  0  0  0
  148.4180  158.5670  133.0370 C   0  0  0  0  0  0  0  0  0  0  0  0
  148.9600  157.2560  133.1890 N   0  0  0  0  0  0  0  0  0  0  0  0
  149.1920  159.5310  132.7910 O   0  0  0  0  0  0  0  0  0  0  0  0
  146.0140  157.8750  133.3860 N   0  0  0  0  0  0  0  0  0  0  0  0
  146.1390  156.4520  133.2320 C   0  0  0  0  0  0  0  0  0  0  0  0
  146.7450  155.9880  132.2280 O   0  0  0  0  0  0  0  0  0  0  0  0
  145.6830  155.5230  134.3220 C   0  0  0  0  0  0  0  0  0  0  0  0
  146.8170  155.1110  135.2080 C   0  0  0  0  0  0  0  0  0  0  0  0
  147.7870  155.8920  135.4020 O   0  0  0  0  0  0  0  0  0  0  0  0
  146.8080  153.8640  135.8210 O   0  0  0  0  0  0  0  0  0  0  0  0
  144.8650  158.5500  133.5950 C   0  0  0  0  0  0  0  0  0  0  0  0
  143.5800  158.0310  133.7810 C   0  0  0  0  0  0  0  0  0  0  0  0
  140.4590  157.5700  133.2250 C   0  0  0  0  0  0  0  0  0  0  0  0
  139.7451  159.2124  131.9669 H   0  0  0  0  0  0  0  0  0  0  0  0
  138.9890  157.7660  131.2167 H   0  0  0  0  0  0  0  0  0  0  0  0
  138.1178  159.3369  131.2167 H   0  0  0  0  0  0  0  0  0  0  0  0
  138.6093  156.4418  133.6259 H   0  0  0  0  0  0  0  0  0  0  0  0
  138.2077  158.4459  135.4952 H   0  0  0  0  0  0  0  0  0  0  0  0
  139.1567  157.0012  135.8805 H   0  0  0  0  0  0  0  0  0  0  0  0
  140.0691  159.8086  135.3407 H   0  0  0  0  0  0  0  0  0  0  0  0
  140.8917  158.5453  136.2672 H   0  0  0  0  0  0  0  0  0  0  0  0
  141.9303  161.0388  134.0783 H   0  0  0  0  0  0  0  0  0  0  0  0
  144.2610  161.9034  133.7064 H   0  0  0  0  0  0  0  0  0  0  0  0
  146.9531  161.0627  133.2212 H   0  0  0  0  0  0  0  0  0  0  0  0
  148.3780  156.4670  133.5460 H   0  0  0  0  0  0  0  0  0  0  0  0
  149.9780  157.0870  133.0200 H   0  0  0  0  0  0  0  0  0  0  0  0
  144.9223  156.0337  134.9307 H   0  0  0  0  0  0  0  0  0  0  0  0
  145.2692  154.6189  133.8515 H   0  0  0  0  0  0  0  0  0  0  0  0
  143.4099  156.9443  133.7884 H   0  0  0  0  0  0  0  0  0  0  0  0
  140.4662  158.0114  132.2175 H   0  0  0  0  0  0  0  0  0  0  0  0
  140.9428  156.5847  133.1532 H   0  0  0  0  0  0  0  0  0  0  0  0
  1  2  1  0
  2  3  1  0
  3  4  1  0
  4  5  1  0
  5  6  1  0
  6  7  1  0
  7  8  2  0
  8  9  1  0
  9 10  2  0
 10 11  1  0
 11 12  2  0
 12 13  1  0
 13 14  1  0
 13 15  2  0
 12 16  1  0
 16 17  1  0
 17 18  2  0
 17 19  1  0
 19 20  1  0
 20 21  2  0
 20 22  1  0
 16 23  1  0
 23 24  2  0
  6 25  1  0
 25  3  1  0
 24  7  1  0
 23 10  1  0
  1 26  1  0
  1 27  1  0
  1 28  1  0
  3 29  1  1
  4 30  1  0
  4 31  1  0
  5 32  1  0
  5 33  1  0
  8 34  1  0
  9 35  1  0
 11 36  1  0
 14 37  1  0
 14 38  1  0
 19 39  1  0
 19 40  1  0
 24 41  1  0
 25 42  1  0
 25 43  1  0
M  CHG  1  22  -1
M  END
>  <UniqueID>  (50) 
50

>  <SMILES>  (50) 
CO[C@@H]1CCN(c2ccc3cc(C(N)=O)n(C(=O)CC(=O)[O-])c3c2)C1

>  <Energy>  (50) 
87.75427646546893

>  <Genealogy>  (50) 
CO[C@@H]1CCN(c2ccc3cc(C(N)=O)n(C(=O)CC(=O)[O-])c3c2)C1 (protonated)
CO[C@@H]1CCN(c2ccc3cc(C(N)=O)n(C(=O)CC(=O)[O-])c3c2)C1 (3D coordinates assigned)
CO[C@@H]1CCN(c2ccc3cc(C(N)=O)n(C(=O)CC(=O)[O-])c3c2)C1 (nonaromatic ring conformer: 87.75427646546893 kcal/mol)

>  <smiles>  (50) 
CO[C@@H]1CCN(c2ccc3cc(C(N)=O)n(C(=O)CC(=O)O)c3c2)C1

>  <score_type>  (50) 
oracle

>  <origin>  (50) 
adg

>  <m_score__min__energy>  (50) 
-7.3200000000000003

>  <m_primary>  (50) 
energy

$$$$
50:0
     RDKit          3D

 46 48  0  0  0  0  0  0  0  0999 V2000
  143.9460  162.9080  133.3830 N   0  0  0  0  0  0  0  0  0  0  0  0
  144.7300  161.9640  134.1070 C   0  0  0  0  0  0  0  0  0  0  0  0
  145.4700  162.3660  135.0450 O   0  0  0  0  0  0  0  0  0  0  0  0
  144.6380  160.5200  133.8160 C   0  0  0  0  0  0  0  0  0  0  0  0
  145.7380  159.7300  133.4900 C   0  0  0  0  0  0  0  0  0  0  0  0
  145.2500  158.4480  133.3950 C   0  0  0  0  0  0  0  0  0  0  0  0
  145.9040  157.2660  133.0830 C   0  0  0  0  0  0  0  0  0  0  0  0
  145.1470  156.0850  133.0230 C   0  0  0  0  0  0  0  0  0  0  0  0
  143.7400  156.0880  133.2730 C   0  0  0  0  0  0  0  0  0  0  0  0
  142.9580  154.8530  133.2020 N   0  0  0  0  0  0  0  0  0  0  0  0
  141.5190  154.9030  133.5270 C   0  0  0  0  0  0  0  0  0  0  0  0
  140.7660  153.5980  133.2560 C   0  0  0  0  0  0  0  0  0  0  0  0
  141.5280  152.4110  133.6560 N   0  0  0  0  0  0  0  0  0  0  0  0
  141.7380  152.3430  135.0860 C   0  0  0  0  0  0  0  0  0  0  0  0
  142.6120  153.0730  135.6250 O   0  0  0  0  0  0  0  0  0  0  0  0
  141.0210  151.4560  135.8800 O   0  0  0  0  0  0  0  0  0  0  0  0
  142.7740  152.3190  132.8790 C   0  0  0  0  0  0  0  0  0  0  0  0
  143.6620  153.5770  132.9530 C   0  0  0  0  0  0  0  0  0  0  0  0
  143.1210  157.3340  133.5790 C   0  0  0  0  0  0  0  0  0  0  0  0
  143.9070  158.4880  133.6510 C   0  0  0  0  0  0  0  0  0  0  0  0
  143.5140  159.7560  133.9110 N   0  0  0  0  0  0  0  0  0  0  0  0
  142.1690  160.2080  134.1280 C   0  0  0  0  0  0  0  0  0  0  0  0
  141.7100  161.1610  133.4430 O   0  0  0  0  0  0  0  0  0  0  0  0
  141.3870  159.5910  135.1150 O   0  0  0  0  0  0  0  0  0  0  0  0
  140.4460  158.5790  134.8810 C   0  0  0  0  0  0  0  0  0  0  0  0
  140.4180  157.5350  135.5880 O   0  0  0  0  0  0  0  0  0  0  0  0
  139.4350  158.7620  133.7960 C   0  0  0  0  0  0  0  0  0  0  0  0
  139.8440  157.9900  132.5830 C   0  0  0  0  0  0  0  0  0  0  0  0
  139.4790  156.7920  132.4420 O   0  0  0  0  0  0  0  0  0  0  0  0
  140.5870  158.6070  131.5850 O   0  0  0  0  0  0  0  0  0  0  0  0
  142.9020  162.8880  133.4270 H   0  0  0  0  0  0  0  0  0  0  0  0
  146.7762  160.0613  133.3404 H   0  0  0  0  0  0  0  0  0  0  0  0
  146.9865  157.2538  132.8878 H   0  0  0  0  0  0  0  0  0  0  0  0
  145.6479  155.1368  132.7782 H   0  0  0  0  0  0  0  0  0  0  0  0
  141.4153  155.1451  134.5950 H   0  0  0  0  0  0  0  0  0  0  0  0
  141.0742  155.6654  132.8705 H   0  0  0  0  0  0  0  0  0  0  0  0
  139.8201  153.6145  133.8173 H   0  0  0  0  0  0  0  0  0  0  0  0
  140.5946  153.5326  132.1714 H   0  0  0  0  0  0  0  0  0  0  0  0
  140.9510  151.5770  133.3870 H   0  0  0  0  0  0  0  0  0  0  0  0
  143.3543  151.4649  133.2582 H   0  0  0  0  0  0  0  0  0  0  0  0
  142.4804  152.2022  131.8254 H   0  0  0  0  0  0  0  0  0  0  0  0
  144.3883  153.4290  133.7658 H   0  0  0  0  0  0  0  0  0  0  0  0
  144.1166  153.6784  131.9565 H   0  0  0  0  0  0  0  0  0  0  0  0
  142.0368  157.3876  133.7566 H   0  0  0  0  0  0  0  0  0  0  0  0
  138.4563  158.4011  134.1450 H   0  0  0  0  0  0  0  0  0  0  0  0
  139.3683  159.8297  133.5399 H   0  0  0  0  0  0  0  0  0  0  0  0
  1  2  1  0
  2  3  2  0
  2  4  1  0
  4  5  2  0
  5  6  1  0
  6  7  2  0
  7  8  1  0
  8  9  2  0
  9 10  1  0
 10 11  1  0
 11 12  1  0
 12 13  1  0
 13 14  1  0
 14 15  2  0
 14 16  1  0
 13 17  1  0
 17 18  1  0
  9 19  1  0
 19 20  2  0
 20 21  1  0
 21 22  1  0
 22 23  2  0
 22 24  1  0
 24 25  1  0
 25 26  2  0
 25 27  1  0
 27 28  1  0
 28 29  2  0
 28 30  1  0
 21  4  1  0
 20  6  1  0
 18 10  1  0
  1 31  1  0
  5 32  1  0
  7 33  1  0
  8 34  1  0
 11 35  1  0
 11 36  1  0
 12 37  1  0
 12 38  1  0
 13 39  1  0
 17 40  1  0
 17 41  1  0
 18 42  1  0
 18 43  1  0
 19 44  1  0
 27 45  1  0
 27 46  1  0
M  CHG  4   1  -1  13   1  16  -1  30  -1
M  END
>  <UniqueID>  (51) 
51

>  <SMILES>  (51) 
[NH-]C(=O)c1cc2ccc(N3CC[NH+](C(=O)[O-])CC3)cc2n1C(=O)OC(=O)CC(=O)[O-]

>  <Energy>  (51) 
98.69199268620521

>  <Genealogy>  (51) 
[NH-]C(=O)c1cc2ccc(N3CC[NH+](C(=O)[O-])CC3)cc2n1C(=O)OC(=O)CC(=O)[O-] (protonated)
[NH-]C(=O)c1cc2ccc(N3CC[NH+](C(=O)[O-])CC3)cc2n1C(=O)OC(=O)CC(=O)[O-] (3D coordinates assigned)
[NH-]C(=O)c1cc2ccc(N3CC[NH+](C(=O)[O-])CC3)cc2n1C(=O)OC(=O)CC(=O)[O-] (nonaromatic ring conformer: 98.69199268620521 kcal/mol)

>  <smiles>  (51) 
NC(=O)c1cc2ccc(N3CCN(C(=O)O)CC3)cc2n1C(=O)OC(=O)CC(=O)O

>  <score_type>  (51) 
oracle

>  <origin>  (51) 
adg

>  <m_score__min__energy>  (51) 
-7.3099999999999996

>  <m_primary>  (51) 
energy

$$$$
51:0
     RDKit          3D

 35 37  0  0  0  0  0  0  0  0999 V2000
  146.5890  160.9790  133.6690 N   0  0  0  0  0  0  0  0  0  0  0  0
  145.6950  159.9050  133.3740 C   0  0  0  0  0  0  0  0  0  0  0  0
  144.5000  160.1620  133.0710 O   0  0  0  0  0  0  0  0  0  0  0  0
  146.1640  158.5070  133.3550 C   0  0  0  0  0  0  0  0  0  0  0  0
  145.3840  157.4270  133.7600 C   0  0  0  0  0  0  0  0  0  0  0  0
  146.1600  156.3130  133.5330 C   0  0  0  0  0  0  0  0  0  0  0  0
  145.8890  154.9690  133.7620 C   0  0  0  0  0  0  0  0  0  0  0  0
  146.8930  154.0330  133.4620 C   0  0  0  0  0  0  0  0  0  0  0  0
  148.1540  154.4540  132.9650 C   0  0  0  0  0  0  0  0  0  0  0  0
  149.2050  153.4320  132.6130 C   0  0  0  0  0  0  0  0  0  0  0  0
  150.3710  154.0830  132.2570 F   0  0  0  0  0  0  0  0  0  0  0  0
  149.4640  152.6000  133.6890 F   0  0  0  0  0  0  0  0  0  0  0  0
  148.7820  152.6490  131.5530 F   0  0  0  0  0  0  0  0  0  0  0  0
  148.3840  155.8300  132.7270 C   0  0  0  0  0  0  0  0  0  0  0  0
  147.3590  156.7360  133.0190 C   0  0  0  0  0  0  0  0  0  0  0  0
  147.3780  158.0800  132.9080 N   0  0  0  0  0  0  0  0  0  0  0  0
  148.5170  158.8760  132.5400 C   0  0  0  0  0  0  0  0  0  0  0  0
  149.2290  159.3890  133.4470 O   0  0  0  0  0  0  0  0  0  0  0  0
  148.9010  159.0750  131.0920 C   0  0  0  0  0  0  0  0  0  0  0  0
  148.2410  160.2800  130.4180 C   0  0  0  0  0  0  0  0  0  0  0  0
  149.6060  160.9190  130.2150 C   0  0  0  0  0  0  0  0  0  0  0  0
  150.2690  159.7360  130.9050 C   0  0  0  0  0  0  0  0  0  0  0  0
  146.2320  161.9590  133.7190 H   0  0  0  0  0  0  0  0  0  0  0  0
  147.6140  160.8150  133.7690 H   0  0  0  0  0  0  0  0  0  0  0  0
  144.3650  157.4575  134.1732 H   0  0  0  0  0  0  0  0  0  0  0  0
  144.9176  154.6478  134.1660 H   0  0  0  0  0  0  0  0  0  0  0  0
  146.6994  152.9609  133.6142 H   0  0  0  0  0  0  0  0  0  0  0  0
  149.3456  156.1786  132.3222 H   0  0  0  0  0  0  0  0  0  0  0  0
  148.7062  158.0576  130.7219 H   0  0  0  0  0  0  0  0  0  0  0  0
  147.7153  160.0384  129.4825 H   0  0  0  0  0  0  0  0  0  0  0  0
  147.4395  160.8328  130.9300 H   0  0  0  0  0  0  0  0  0  0  0  0
  149.8917  161.0401  129.1597 H   0  0  0  0  0  0  0  0  0  0  0  0
  149.7965  161.9440  130.5660 H   0  0  0  0  0  0  0  0  0  0  0  0
  150.9571  159.1688  130.2609 H   0  0  0  0  0  0  0  0  0  0  0  0
  150.9317  159.8960  131.7683 H   0  0  0  0  0  0  0  0  0  0  0  0
  1  2  1  0
  2  3  2  0
  2  4  1  0
  4  5  2  0
  5  6  1  0
  6  7  2  0
  7  8  1  0
  8  9  2  0
  9 10  1  0
 10 11  1  0
 10 12  1  0
 10 13  1  0
  9 14  1  0
 14 15  2  0
 15 16  1  0
 16 17  1  0
 17 18  2  0
 17 19  1  0
 19 20  1  0
 20 21  1  0
 21 22  1  0
 16  4  1  0
 22 19  1  0
 15  6  1  0
  1 23  1  0
  1 24  1  0
  5 25  1  0
  7 26  1  0
  8 27  1  0
 14 28  1  0
 19 29  1  0
 20 30  1  0
 20 31  1  0
 21 32  1  0
 21 33  1  0
 22 34  1  0
 22 35  1  0
M  END
>  <UniqueID>  (52) 
52

>  <SMILES>  (52) 
NC(=O)c1cc2ccc(C(F)(F)F)cc2n1C(=O)C1CCC1

>  <Energy>  (52) 
136.78631479945412

>  <Genealogy>  (52) 
NC(=O)c1cc2ccc(C(F)(F)F)cc2n1C(=O)C1CCC1 (3D coordinates assigned)
NC(=O)c1cc2ccc(C(F)(F)F)cc2n1C(=O)C1CCC1 (nonaromatic ring conformer: 136.78631479945412 kcal/mol)

>  <smiles>  (52) 
NC(=O)c1cc2ccc(C(F)(F)F)cc2n1C(=O)C1CCC1

>  <score_type>  (52) 
oracle

>  <origin>  (52) 
adg

>  <m_score__min__energy>  (52) 
-7.6500000000000004

>  <m_primary>  (52) 
energy

$$$$
52:0
     RDKit          3D

 38 40  0  0  0  0  0  0  0  0999 V2000
  144.3400  153.3710  138.4750 N   0  0  0  0  0  0  0  0  0  0  0  0
  142.9340  153.5920  138.6010 C   0  0  0  0  0  0  0  0  0  0  0  0
  142.2510  152.8180  139.3240 O   0  0  0  0  0  0  0  0  0  0  0  0
  142.2580  154.6670  137.8500 C   0  0  0  0  0  0  0  0  0  0  0  0
  141.5590  155.7050  138.4590 C   0  0  0  0  0  0  0  0  0  0  0  0
  141.0320  156.4450  137.4250 C   0  0  0  0  0  0  0  0  0  0  0  0
  140.2570  157.6000  137.4570 C   0  0  0  0  0  0  0  0  0  0  0  0
  139.8820  158.1750  136.2320 C   0  0  0  0  0  0  0  0  0  0  0  0
  140.2930  157.5970  135.0040 C   0  0  0  0  0  0  0  0  0  0  0  0
  139.9030  158.2220  133.7180 C   0  0  0  0  0  0  0  0  0  0  0  0
  139.1420  157.5020  132.7760 C   0  0  0  0  0  0  0  0  0  0  0  0
  138.7800  156.2150  133.0130 F   0  0  0  0  0  0  0  0  0  0  0  0
  138.7770  158.0960  131.5640 C   0  0  0  0  0  0  0  0  0  0  0  0
  139.1620  159.4080  131.2800 C   0  0  0  0  0  0  0  0  0  0  0  0
  138.8050  159.9800  130.1040 F   0  0  0  0  0  0  0  0  0  0  0  0
  139.9160  160.1300  132.2070 C   0  0  0  0  0  0  0  0  0  0  0  0
  140.2880  159.5440  133.4210 C   0  0  0  0  0  0  0  0  0  0  0  0
  140.9950  160.2780  134.3170 F   0  0  0  0  0  0  0  0  0  0  0  0
  141.0820  156.4240  135.0130 C   0  0  0  0  0  0  0  0  0  0  0  0
  141.4230  155.8590  136.2470 C   0  0  0  0  0  0  0  0  0  0  0  0
  142.1810  154.7670  136.4920 N   0  0  0  0  0  0  0  0  0  0  0  0
  142.8560  153.9570  135.5170 C   0  0  0  0  0  0  0  0  0  0  0  0
  142.2380  153.5640  134.4890 O   0  0  0  0  0  0  0  0  0  0  0  0
  144.1960  153.6050  135.7120 O   0  0  0  0  0  0  0  0  0  0  0  0
  145.2880  154.3590  135.1890 C   0  0  0  0  0  0  0  0  0  0  0  0
  146.5080  154.1600  136.0300 C   0  0  0  0  0  0  0  0  0  0  0  0
  146.6000  153.1520  136.7800 O   0  0  0  0  0  0  0  0  0  0  0  0
  147.5300  155.1000  136.0110 O   0  0  0  0  0  0  0  0  0  0  0  0
  144.8080  152.6330  139.0460 H   0  0  0  0  0  0  0  0  0  0  0  0
  144.9040  153.8770  137.7570 H   0  0  0  0  0  0  0  0  0  0  0  0
  141.4507  155.8938  139.5372 H   0  0  0  0  0  0  0  0  0  0  0  0
  139.9476  158.0489  138.4124 H   0  0  0  0  0  0  0  0  0  0  0  0
  139.2625  159.0839  136.2249 H   0  0  0  0  0  0  0  0  0  0  0  0
  138.1845  157.5279  130.8317 H   0  0  0  0  0  0  0  0  0  0  0  0
  140.2185  161.1633  131.9817 H   0  0  0  0  0  0  0  0  0  0  0  0
  141.4201  155.9660  134.0718 H   0  0  0  0  0  0  0  0  0  0  0  0
  145.4981  154.0278  134.1613 H   0  0  0  0  0  0  0  0  0  0  0  0
  145.0205  155.4260  135.1946 H   0  0  0  0  0  0  0  0  0  0  0  0
  1  2  1  0
  2  3  2  0
  2  4  1  0
  4  5  2  0
  5  6  1  0
  6  7  2  0
  7  8  1  0
  8  9  2  0
  9 10  1  0
 10 11  2  0
 11 12  1  0
 11 13  1  0
 13 14  2  0
 14 15  1  0
 14 16  1  0
 16 17  2  0
 17 18  1  0
  9 19  1  0
 19 20  2  0
 20 21  1  0
 21 22  1  0
 22 23  2  0
 22 24  1  0
 24 25  1  0
 25 26  1  0
 26 27  2  0
 26 28  1  0
 21  4  1  0
 20  6  1  0
 17 10  1  0
  1 29  1  0
  1 30  1  0
  5 31  1  0
  7 32  1  0
  8 33  1  0
 13 34  1  0
 16 35  1  0
 19 36  1  0
 25 37  1  0
 25 38  1  0
M  CHG  1  28  -1
M  END
>  <UniqueID>  (53) 
53

>  <SMILES>  (53) 
NC(=O)c1cc2ccc(-c3c(F)cc(F)cc3F)cc2n1C(=O)OCC(=O)[O-]

>  <Energy>  (53) 
84.8261517878738

>  <Genealogy>  (53) 
NC(=O)c1cc2ccc(-c3c(F)cc(F)cc3F)cc2n1C(=O)OCC(=O)[O-] (protonated)
NC(=O)c1cc2ccc(-c3c(F)cc(F)cc3F)cc2n1C(=O)OCC(=O)[O-] (3D coordinates assigned)
NC(=O)c1cc2ccc(-c3c(F)cc(F)cc3F)cc2n1C(=O)OCC(=O)[O-] (optimized conformer: 84.8261517878738 kcal/mol)

>  <smiles>  (53) 
NC(=O)c1cc2ccc(-c3c(F)cc(F)cc3F)cc2n1C(=O)OCC(=O)O

>  <score_type>  (53) 
oracle

>  <origin>  (53) 
adg

>  <m_score__min__energy>  (53) 
-7.21

>  <m_primary>  (53) 
energy

$$$$
53:0
     RDKit          3D

 35 36  0  0  0  0  0  0  0  0999 V2000
  148.2240  161.1570  131.2750 N   0  0  0  0  0  0  0  0  0  0  0  0
  149.1510  160.1000  131.5130 C   0  0  0  0  0  0  0  0  0  0  0  0
  150.3680  160.2750  131.2420 O   0  0  0  0  0  0  0  0  0  0  0  0
  148.6820  158.8330  132.1110 C   0  0  0  0  0  0  0  0  0  0  0  0
  149.3950  157.6380  132.0320 C   0  0  0  0  0  0  0  0  0  0  0  0
  148.5890  156.6920  132.6210 C   0  0  0  0  0  0  0  0  0  0  0  0
  148.8030  155.3310  132.8180 C   0  0  0  0  0  0  0  0  0  0  0  0
  147.8040  154.5950  133.4760 C   0  0  0  0  0  0  0  0  0  0  0  0
  146.6230  155.2320  133.9350 C   0  0  0  0  0  0  0  0  0  0  0  0
  145.5470  154.4300  134.6220 C   0  0  0  0  0  0  0  0  0  0  0  0
  145.6560  154.5240  136.1490 C   0  0  0  0  0  0  0  0  0  0  0  0
  146.9550  153.9650  136.6450 C   0  0  0  0  0  0  0  0  0  0  0  0
  148.0030  154.6620  136.5990 O   0  0  0  0  0  0  0  0  0  0  0  0
  147.0160  152.6590  137.1160 O   0  0  0  0  0  0  0  0  0  0  0  0
  146.4390  156.6140  133.7120 C   0  0  0  0  0  0  0  0  0  0  0  0
  147.4420  157.3180  133.0370 C   0  0  0  0  0  0  0  0  0  0  0  0
  147.4850  158.6340  132.7330 N   0  0  0  0  0  0  0  0  0  0  0  0
  146.4850  159.6120  133.0580 C   0  0  0  0  0  0  0  0  0  0  0  0
  146.8020  160.6410  133.7170 O   0  0  0  0  0  0  0  0  0  0  0  0
  145.1580  159.4070  132.6630 O   0  0  0  0  0  0  0  0  0  0  0  0
  144.1340  158.9740  133.5540 C   0  0  0  0  0  0  0  0  0  0  0  0
  143.3110  160.1370  134.0080 C   0  0  0  0  0  0  0  0  0  0  0  0
  142.2230  159.9430  134.6100 O   0  0  0  0  0  0  0  0  0  0  0  0
  143.7290  161.4340  133.7380 O   0  0  0  0  0  0  0  0  0  0  0  0
  147.7410  161.6360  132.0660 H   0  0  0  0  0  0  0  0  0  0  0  0
  150.3913  157.4841  131.5918 H   0  0  0  0  0  0  0  0  0  0  0  0
  149.7267  154.8463  132.4689 H   0  0  0  0  0  0  0  0  0  0  0  0
  147.9388  153.5152  133.6367 H   0  0  0  0  0  0  0  0  0  0  0  0
  144.5638  154.8126  134.3107 H   0  0  0  0  0  0  0  0  0  0  0  0
  145.6692  153.3754  134.3341 H   0  0  0  0  0  0  0  0  0  0  0  0
  145.5848  155.5803  136.4476 H   0  0  0  0  0  0  0  0  0  0  0  0
  144.8377  153.9352  136.5892 H   0  0  0  0  0  0  0  0  0  0  0  0
  145.5292  157.1247  134.0605 H   0  0  0  0  0  0  0  0  0  0  0  0
  143.4857  158.2512  133.0370 H   0  0  0  0  0  0  0  0  0  0  0  0
  144.6008  158.5033  134.4318 H   0  0  0  0  0  0  0  0  0  0  0  0
  1  2  1  0
  2  3  2  0
  2  4  1  0
  4  5  2  0
  5  6  1  0
  6  7  2  0
  7  8  1  0
  8  9  2  0
  9 10  1  0
 10 11  1  0
 11 12  1  0
 12 13  2  0
 12 14  1  0
  9 15  1  0
 15 16  2  0
 16 17  1  0
 17 18  1  0
 18 19  2  0
 18 20  1  0
 20 21  1  0
 21 22  1  0
 22 23  2  0
 22 24  1  0
 17  4  1  0
 16  6  1  0
  1 25  1  0
  5 26  1  0
  7 27  1  0
  8 28  1  0
 10 29  1  0
 10 30  1  0
 11 31  1  0
 11 32  1  0
 15 33  1  0
 21 34  1  0
 21 35  1  0
M  CHG  3   1  -1  14  -1  24  -1
M  END
>  <UniqueID>  (54) 
54

>  <SMILES>  (54) 
[NH-]C(=O)c1cc2ccc(CCC(=O)[O-])cc2n1C(=O)OCC(=O)[O-]

>  <Energy>  (54) 
68.24146526152015

>  <Genealogy>  (54) 
[NH-]C(=O)c1cc2ccc(CCC(=O)[O-])cc2n1C(=O)OCC(=O)[O-] (protonated)
[NH-]C(=O)c1cc2ccc(CCC(=O)[O-])cc2n1C(=O)OCC(=O)[O-] (3D coordinates assigned)
[NH-]C(=O)c1cc2ccc(CCC(=O)[O-])cc2n1C(=O)OCC(=O)[O-] (optimized conformer: 68.24146526152015 kcal/mol)

>  <smiles>  (54) 
NC(=O)c1cc2ccc(CCC(=O)O)cc2n1C(=O)OCC(=O)O

>  <score_type>  (54) 
oracle

>  <origin>  (54) 
adg

>  <m_score__min__energy>  (54) 
-6.6399999999999997

>  <m_primary>  (54) 
energy

$$$$
54:0
     RDKit          3D

 37 39  0  0  0  0  0  0  0  0999 V2000
  148.6160  157.3350  131.8670 N   0  0  0  0  0  0  0  0  0  0  0  0
  148.2790  158.5250  132.5810 C   0  0  0  0  0  0  0  0  0  0  0  0
  149.1940  159.3330  132.8920 O   0  0  0  0  0  0  0  0  0  0  0  0
  146.8720  158.8290  132.9250 C   0  0  0  0  0  0  0  0  0  0  0  0
  146.3670  160.1210  133.0640 C   0  0  0  0  0  0  0  0  0  0  0  0
  145.0650  159.9610  133.4790 C   0  0  0  0  0  0  0  0  0  0  0  0
  144.0940  160.9170  133.7630 C   0  0  0  0  0  0  0  0  0  0  0  0
  142.8210  160.4680  134.1490 C   0  0  0  0  0  0  0  0  0  0  0  0
  142.5370  159.0800  134.2360 C   0  0  0  0  0  0  0  0  0  0  0  0
  141.1900  158.6200  134.6310 C   0  0  0  0  0  0  0  0  0  0  0  0
  140.1400  158.5230  133.7940 N   0  0  0  0  0  0  0  0  0  0  0  0
  139.1480  158.0790  134.5470 N   0  0  0  0  0  0  0  0  0  0  0  0
  139.5690  157.9110  135.7890 N   0  0  0  0  0  0  0  0  0  0  0  0
  140.8470  158.2420  135.8770 N   0  0  0  0  0  0  0  0  0  0  0  0
  143.5510  158.1400  133.9410 C   0  0  0  0  0  0  0  0  0  0  0  0
  144.8160  158.6170  133.5770 C   0  0  0  0  0  0  0  0  0  0  0  0
  145.9160  157.9080  133.2390 N   0  0  0  0  0  0  0  0  0  0  0  0
  146.0230  156.4770  133.1730 C   0  0  0  0  0  0  0  0  0  0  0  0
  147.0830  155.9070  133.5480 O   0  0  0  0  0  0  0  0  0  0  0  0
  144.9530  155.7240  132.6730 O   0  0  0  0  0  0  0  0  0  0  0  0
  144.2730  154.7260  133.4320 C   0  0  0  0  0  0  0  0  0  0  0  0
  142.7580  154.8420  133.2320 C   0  0  0  0  0  0  0  0  0  0  0  0
  142.0510  155.3010  134.5080 C   0  0  0  0  0  0  0  0  0  0  0  0
  140.7140  155.6160  134.2320 O   0  0  0  0  0  0  0  0  0  0  0  0
  149.6070  157.1500  131.5950 H   0  0  0  0  0  0  0  0  0  0  0  0
  147.8950  156.6150  131.6410 H   0  0  0  0  0  0  0  0  0  0  0  0
  146.8969  161.0674  132.8808 H   0  0  0  0  0  0  0  0  0  0  0  0
  144.3172  161.9915  133.6873 H   0  0  0  0  0  0  0  0  0  0  0  0
  142.0350  161.1999  134.3866 H   0  0  0  0  0  0  0  0  0  0  0  0
  143.3509  157.0598  133.9961 H   0  0  0  0  0  0  0  0  0  0  0  0
  144.6067  153.7307  133.1033 H   0  0  0  0  0  0  0  0  0  0  0  0
  144.5040  154.8695  134.4979 H   0  0  0  0  0  0  0  0  0  0  0  0
  142.5590  155.5710  132.4326 H   0  0  0  0  0  0  0  0  0  0  0  0
  142.3709  153.8476  132.9650 H   0  0  0  0  0  0  0  0  0  0  0  0
  142.0878  154.4939  135.2545 H   0  0  0  0  0  0  0  0  0  0  0  0
  142.5581  156.1958  134.8981 H   0  0  0  0  0  0  0  0  0  0  0  0
  140.5680  156.5320  134.5850 H   0  0  0  0  0  0  0  0  0  0  0  0
  1  2  1  0
  2  3  2  0
  2  4  1  0
  4  5  2  0
  5  6  1  0
  6  7  2  0
  7  8  1  0
  8  9  2  0
  9 10  1  0
 10 11  1  0
 11 12  2  0
 12 13  1  0
 13 14  1  0
  9 15  1  0
 15 16  2  0
 16 17  1  0
 17 18  1  0
 18 19  2  0
 18 20  1  0
 20 21  1  0
 21 22  1  0
 22 23  1  0
 23 24  1  0
 17  4  1  0
 16  6  1  0
 14 10  2  0
  1 25  1  0
  1 26  1  0
  5 27  1  0
  7 28  1  0
  8 29  1  0
 15 30  1  0
 21 31  1  0
 21 32  1  0
 22 33  1  0
 22 34  1  0
 23 35  1  0
 23 36  1  0
 24 37  1  0
M  CHG  1  13  -1
M  END
>  <UniqueID>  (55) 
55

>  <SMILES>  (55) 
NC(=O)c1cc2ccc(-c3nn[n-]n3)cc2n1C(=O)OCCCO

>  <Energy>  (55) 
110.58156723646286

>  <Genealogy>  (55) 
NC(=O)c1cc2ccc(-c3nn[n-]n3)cc2n1C(=O)OCCCO (protonated)
NC(=O)c1cc2ccc(-c3nn[n-]n3)cc2n1C(=O)OCCCO (3D coordinates assigned)
NC(=O)c1cc2ccc(-c3nn[n-]n3)cc2n1C(=O)OCCCO (optimized conformer: 110.58156723646286 kcal/mol)

>  <smiles>  (55) 
NC(=O)c1cc2ccc(-c3nn[nH]n3)cc2n1C(=O)OCCCO

>  <score_type>  (55) 
oracle

>  <origin>  (55) 
adg

>  <m_score__min__energy>  (55) 
-6.3799999999999999

>  <m_primary>  (55) 
energy

$$$$
55:0
     RDKit          3D

 39 40  0  0  0  0  0  0  0  0999 V2000
  148.7730  161.6810  130.7320 C   0  0  0  0  0  0  0  0  0  0  0  0
  149.1530  160.2960  131.0410 N   0  0  0  0  0  0  0  0  0  0  0  0
  150.3670  159.7410  130.4280 C   0  0  0  0  0  0  0  0  0  0  0  0
  148.3440  159.4900  131.9360 C   0  0  0  0  0  0  0  0  0  0  0  0
  147.2920  160.0800  132.6940 C   0  0  0  0  0  0  0  0  0  0  0  0
  146.4940  159.3060  133.5530 C   0  0  0  0  0  0  0  0  0  0  0  0
  146.7660  157.9470  133.6490 C   0  0  0  0  0  0  0  0  0  0  0  0
  146.1320  156.9680  134.3800 C   0  0  0  0  0  0  0  0  0  0  0  0
  146.8120  155.7900  134.0840 C   0  0  0  0  0  0  0  0  0  0  0  0
  146.5070  154.4900  134.7190 C   0  0  0  0  0  0  0  0  0  0  0  0
  146.2010  153.3590  133.9080 N   0  0  0  0  0  0  0  0  0  0  0  0
  146.4780  154.3760  135.9730 O   0  0  0  0  0  0  0  0  0  0  0  0
  147.8230  156.0300  133.2020 N   0  0  0  0  0  0  0  0  0  0  0  0
  148.7010  155.0730  132.5930 C   0  0  0  0  0  0  0  0  0  0  0  0
  149.8800  155.4060  132.2880 O   0  0  0  0  0  0  0  0  0  0  0  0
  148.2390  153.7800  132.3210 O   0  0  0  0  0  0  0  0  0  0  0  0
  149.0910  152.6380  132.2480 C   0  0  0  0  0  0  0  0  0  0  0  0
  148.2800  151.3590  131.9930 C   0  0  0  0  0  0  0  0  0  0  0  0
  146.8420  151.6130  132.0740 N   0  0  0  0  0  0  0  0  0  0  0  0
  147.7800  157.3570  132.9470 C   0  0  0  0  0  0  0  0  0  0  0  0
  148.5800  158.0970  132.0680 C   0  0  0  0  0  0  0  0  0  0  0  0
  148.6204  162.2371  131.6688 H   0  0  0  0  0  0  0  0  0  0  0  0
  149.5731  162.1591  130.1479 H   0  0  0  0  0  0  0  0  0  0  0  0
  147.8409  161.6839  130.1479 H   0  0  0  0  0  0  0  0  0  0  0  0
  151.0637  159.4225  131.2174 H   0  0  0  0  0  0  0  0  0  0  0  0
  150.0998  158.8756  129.8037 H   0  0  0  0  0  0  0  0  0  0  0  0
  150.8467  160.5093  129.8037 H   0  0  0  0  0  0  0  0  0  0  0  0
  147.1013  161.1597  132.6053 H   0  0  0  0  0  0  0  0  0  0  0  0
  145.6780  159.7625  134.1324 H   0  0  0  0  0  0  0  0  0  0  0  0
  145.2715  157.0904  135.0543 H   0  0  0  0  0  0  0  0  0  0  0  0
  146.9270  152.6410  133.6910 H   0  0  0  0  0  0  0  0  0  0  0  0
  149.8095  152.7776  131.4268 H   0  0  0  0  0  0  0  0  0  0  0  0
  149.6173  152.5326  133.2082 H   0  0  0  0  0  0  0  0  0  0  0  0
  148.5199  150.9774  130.9896 H   0  0  0  0  0  0  0  0  0  0  0  0
  148.5450  150.6217  132.7651 H   0  0  0  0  0  0  0  0  0  0  0  0
  146.6400  152.6170  131.8610 H   0  0  0  0  0  0  0  0  0  0  0  0
  146.5120  151.4020  133.0430 H   0  0  0  0  0  0  0  0  0  0  0  0
  146.3280  150.9980  131.4020 H   0  0  0  0  0  0  0  0  0  0  0  0
  149.3774  157.6072  131.4899 H   0  0  0  0  0  0  0  0  0  0  0  0
  1  2  1  0
  2  3  1  0
  2  4  1  0
  4  5  2  0
  5  6  1  0
  6  7  2  0
  7  8  1  0
  8  9  2  0
  9 10  1  0
 10 11  1  0
 10 12  2  0
  9 13  1  0
 13 14  1  0
 14 15  2  0
 14 16  1  0
 16 17  1  0
 17 18  1  0
 18 19  1  0
 13 20  1  0
 20 21  2  0
 21  4  1  0
 20  7  1  0
  1 22  1  0
  1 23  1  0
  1 24  1  0
  3 25  1  0
  3 26  1  0
  3 27  1  0
  5 28  1  0
  6 29  1  0
  8 30  1  0
 11 31  1  0
 17 32  1  0
 17 33  1  0
 18 34  1  0
 18 35  1  0
 19 36  1  0
 19 37  1  0
 19 38  1  0
 21 39  1  0
M  CHG  2  11  -1  19   1
M  END
>  <UniqueID>  (56) 
56

>  <SMILES>  (56) 
CN(C)c1ccc2cc(C([NH-])=O)n(C(=O)OCC[NH3+])c2c1

>  <Energy>  (56) 
74.46063598074183

>  <Genealogy>  (56) 
CN(C)c1ccc2cc(C([NH-])=O)n(C(=O)OCC[NH3+])c2c1 (protonated)
CN(C)c1ccc2cc(C([NH-])=O)n(C(=O)OCC[NH3+])c2c1 (3D coordinates assigned)
CN(C)c1ccc2cc(C([NH-])=O)n(C(=O)OCC[NH3+])c2c1 (optimized conformer: 74.46063598074183 kcal/mol)

>  <smiles>  (56) 
CN(C)c1ccc2cc(C(N)=O)n(C(=O)OCCN)c2c1

>  <score_type>  (56) 
oracle

>  <origin>  (56) 
adg

>  <m_score__min__energy>  (56) 
-6.0999999999999996

>  <m_primary>  (56) 
energy

$$$$
56:0
     RDKit          3D

 38 39  0  0  0  0  0  0  0  0999 V2000
  148.4970  160.8590  131.6760 C   0  0  0  0  0  0  0  0  0  0  0  0
  149.2270  159.6040  131.4380 N   0  0  0  0  0  0  0  0  0  0  0  0
  149.2300  159.2980  129.9970 C   0  0  0  0  0  0  0  0  0  0  0  0
  148.6290  158.4960  132.2140 C   0  0  0  0  0  0  0  0  0  0  0  0
  147.4690  158.9960  133.0850 C   0  0  0  0  0  0  0  0  0  0  0  0
  146.2310  158.2800  132.7700 N   0  0  0  0  0  0  0  0  0  0  0  0
  144.9150  158.6990  133.1800 C   0  0  0  0  0  0  0  0  0  0  0  0
  144.6300  160.0520  133.5070 C   0  0  0  0  0  0  0  0  0  0  0  0
  143.3420  160.4370  133.9100 C   0  0  0  0  0  0  0  0  0  0  0  0
  142.3600  159.4550  133.9840 C   0  0  0  0  0  0  0  0  0  0  0  0
  141.0420  159.5500  134.3670 C   0  0  0  0  0  0  0  0  0  0  0  0
  140.5330  158.2570  134.2650 C   0  0  0  0  0  0  0  0  0  0  0  0
  139.1130  157.9110  134.4940 C   0  0  0  0  0  0  0  0  0  0  0  0
  138.3780  157.1620  133.5240 N   0  0  0  0  0  0  0  0  0  0  0  0
  138.5460  158.2460  135.5680 O   0  0  0  0  0  0  0  0  0  0  0  0
  141.4990  157.3950  133.8380 N   0  0  0  0  0  0  0  0  0  0  0  0
  141.3900  155.9710  133.6740 C   0  0  0  0  0  0  0  0  0  0  0  0
  142.2610  155.2040  134.1610 O   0  0  0  0  0  0  0  0  0  0  0  0
  140.3110  155.4240  132.9890 O   0  0  0  0  0  0  0  0  0  0  0  0
  142.6120  158.1460  133.6710 C   0  0  0  0  0  0  0  0  0  0  0  0
  143.8920  157.7310  133.2830 C   0  0  0  0  0  0  0  0  0  0  0  0
  148.3994  161.0267  132.7587 H   0  0  0  0  0  0  0  0  0  0  0  0
  149.0492  161.6959  131.2236 H   0  0  0  0  0  0  0  0  0  0  0  0
  147.4965  160.7927  131.2236 H   0  0  0  0  0  0  0  0  0  0  0  0
  149.2407  158.2074  129.8538 H   0  0  0  0  0  0  0  0  0  0  0  0
  148.3277  159.7203  129.5306 H   0  0  0  0  0  0  0  0  0  0  0  0
  150.1239  159.7378  129.5306 H   0  0  0  0  0  0  0  0  0  0  0  0
  148.2525  157.7320  131.5180 H   0  0  0  0  0  0  0  0  0  0  0  0
  149.4024  158.0720  132.8713 H   0  0  0  0  0  0  0  0  0  0  0  0
  147.7186  158.8346  134.1441 H   0  0  0  0  0  0  0  0  0  0  0  0
  147.3158  160.0667  132.8845 H   0  0  0  0  0  0  0  0  0  0  0  0
  146.3070  157.4640  132.1210 H   0  0  0  0  0  0  0  0  0  0  0  0
  145.4281  160.8064  133.4436 H   0  0  0  0  0  0  0  0  0  0  0  0
  143.1159  161.4841  134.1599 H   0  0  0  0  0  0  0  0  0  0  0  0
  140.5041  160.4549  134.6861 H   0  0  0  0  0  0  0  0  0  0  0  0
  138.7960  156.9120  132.6010 H   0  0  0  0  0  0  0  0  0  0  0  0
  137.3880  156.8890  133.7130 H   0  0  0  0  0  0  0  0  0  0  0  0
  144.0963  156.6728  133.0630 H   0  0  0  0  0  0  0  0  0  0  0  0
  1  2  1  0
  2  3  1  0
  2  4  1  0
  4  5  1  0
  5  6  1  0
  6  7  1  0
  7  8  2  0
  8  9  1  0
  9 10  2  0
 10 11  1  0
 11 12  2  0
 12 13  1  0
 13 14  1  0
 13 15  2  0
 12 16  1  0
 16 17  1  0
 17 18  2  0
 17 19  1  0
 16 20  1  0
 20 21  2  0
 21  7  1  0
 20 10  1  0
  1 22  1  0
  1 23  1  0
  1 24  1  0
  3 25  1  0
  3 26  1  0
  3 27  1  0
  4 28  1  0
  4 29  1  0
  5 30  1  0
  5 31  1  0
  6 32  1  0
  8 33  1  0
  9 34  1  0
 11 35  1  0
 14 36  1  0
 14 37  1  0
 21 38  1  0
M  CHG  1  19  -1
M  END
>  <UniqueID>  (57) 
57

>  <SMILES>  (57) 
CN(C)CCNc1ccc2cc(C(N)=O)n(C(=O)[O-])c2c1

>  <Energy>  (57) 
76.25613616441612

>  <Genealogy>  (57) 
CN(C)CCNc1ccc2cc(C(N)=O)n(C(=O)[O-])c2c1 (protonated)
CN(C)CCNc1ccc2cc(C(N)=O)n(C(=O)[O-])c2c1 (3D coordinates assigned)
CN(C)CCNc1ccc2cc(C(N)=O)n(C(=O)[O-])c2c1 (optimized conformer: 76.25613616441612 kcal/mol)

>  <smiles>  (57) 
CN(C)CCNc1ccc2cc(C(N)=O)n(C(=O)O)c2c1

>  <score_type>  (57) 
oracle

>  <origin>  (57) 
adg

>  <m_score__min__energy>  (57) 
-6.6100000000000003

>  <m_primary>  (57) 
energy

$$$$
57:0
     RDKit          3D

 43 45  0  0  0  0  0  0  0  0999 V2000
  141.0040  159.4000  135.5990 C   0  0  0  0  0  0  0  0  0  0  0  0
  141.8870  158.5440  134.7920 N   0  0  0  0  0  0  0  0  0  0  0  0
  141.3770  157.2300  134.3540 C   0  0  0  0  0  0  0  0  0  0  0  0
  140.6610  157.3150  132.9870 C   0  0  0  0  0  0  0  0  0  0  0  0
  140.4810  158.7150  132.4200 C   0  0  0  0  0  0  0  0  0  0  0  0
  139.0140  158.6600  132.5330 N   0  0  0  0  0  0  0  0  0  0  0  0
  138.3530  158.6470  131.2130 C   0  0  0  0  0  0  0  0  0  0  0  0
  137.8170  160.0060  130.8970 C   0  0  0  0  0  0  0  0  0  0  0  0
  138.6030  160.9770  130.7490 O   0  0  0  0  0  0  0  0  0  0  0  0
  136.4510  160.1950  130.7300 O   0  0  0  0  0  0  0  0  0  0  0  0
  139.1410  157.3000  133.0810 C   0  0  0  0  0  0  0  0  0  0  0  0
  143.1680  159.0580  134.3320 C   0  0  0  0  0  0  0  0  0  0  0  0
  143.3740  160.4550  134.1380 C   0  0  0  0  0  0  0  0  0  0  0  0
  144.6110  160.9540  133.6970 C   0  0  0  0  0  0  0  0  0  0  0  0
  145.6280  160.0450  133.4420 C   0  0  0  0  0  0  0  0  0  0  0  0
  146.9240  160.2620  133.0330 C   0  0  0  0  0  0  0  0  0  0  0  0
  147.5000  158.9950  132.9490 C   0  0  0  0  0  0  0  0  0  0  0  0
  148.8740  158.7610  132.4580 C   0  0  0  0  0  0  0  0  0  0  0  0
  149.3590  157.4400  132.2320 N   0  0  0  0  0  0  0  0  0  0  0  0
  149.6170  159.7440  132.1900 O   0  0  0  0  0  0  0  0  0  0  0  0
  146.5980  158.0360  133.3010 N   0  0  0  0  0  0  0  0  0  0  0  0
  146.8170  156.6220  133.4230 C   0  0  0  0  0  0  0  0  0  0  0  0
  146.8520  155.8920  132.3970 O   0  0  0  0  0  0  0  0  0  0  0  0
  147.0180  156.0480  134.6720 O   0  0  0  0  0  0  0  0  0  0  0  0
  145.4550  158.6970  133.5970 C   0  0  0  0  0  0  0  0  0  0  0  0
  144.2420  158.1720  134.0540 C   0  0  0  0  0  0  0  0  0  0  0  0
  141.1924  159.2173  136.6672 H   0  0  0  0  0  0  0  0  0  0  0  0
  141.2048  160.4563  135.3666 H   0  0  0  0  0  0  0  0  0  0  0  0
  139.9545  159.1665  135.3666 H   0  0  0  0  0  0  0  0  0  0  0  0
  142.2220  156.5309  134.2697 H   0  0  0  0  0  0  0  0  0  0  0  0
  140.6469  156.8824  135.0997 H   0  0  0  0  0  0  0  0  0  0  0  0
  141.2501  156.5434  132.4697 H   0  0  0  0  0  0  0  0  0  0  0  0
  140.9376  159.4996  133.0412 H   0  0  0  0  0  0  0  0  0  0  0  0
  140.9272  158.9506  131.4425 H   0  0  0  0  0  0  0  0  0  0  0  0
  139.0823  158.3549  130.4431 H   0  0  0  0  0  0  0  0  0  0  0  0
  137.5222  157.9263  131.2320 H   0  0  0  0  0  0  0  0  0  0  0  0
  138.7680  157.2078  134.1117 H   0  0  0  0  0  0  0  0  0  0  0  0
  138.5893  156.4810  132.5964 H   0  0  0  0  0  0  0  0  0  0  0  0
  142.5493  161.1552  134.3372 H   0  0  0  0  0  0  0  0  0  0  0  0
  144.7688  162.0337  133.5579 H   0  0  0  0  0  0  0  0  0  0  0  0
  147.4031  161.2286  132.8182 H   0  0  0  0  0  0  0  0  0  0  0  0
  148.7560  156.7170  131.7820 H   0  0  0  0  0  0  0  0  0  0  0  0
  144.1217  157.0879  134.1961 H   0  0  0  0  0  0  0  0  0  0  0  0
  1  2  1  0
  2  3  1  0
  3  4  1  0
  4  5  1  0
  5  6  1  0
  6  7  1  0
  7  8  1  0
  8  9  2  0
  8 10  1  0
  6 11  1  0
  2 12  1  0
 12 13  2  0
 13 14  1  0
 14 15  2  0
 15 16  1  0
 16 17  2  0
 17 18  1  0
 18 19  1  0
 18 20  2  0
 17 21  1  0
 21 22  1  0
 22 23  2  0
 22 24  1  0
 21 25  1  0
 25 26  2  0
 11  4  1  0
 26 12  1  0
 25 15  1  0
  1 27  1  0
  1 28  1  0
  1 29  1  0
  3 30  1  0
  3 31  1  0
  4 32  1  0
  5 33  1  0
  5 34  1  0
  7 35  1  0
  7 36  1  0
 11 37  1  0
 11 38  1  0
 13 39  1  0
 14 40  1  0
 16 41  1  0
 19 42  1  0
 26 43  1  0
M  CHG  3  10  -1  19  -1  24  -1
M  END
>  <UniqueID>  (58) 
58

>  <SMILES>  (58) 
CN(CC1CN(CC(=O)[O-])C1)c1ccc2cc(C([NH-])=O)n(C(=O)[O-])c2c1

>  <Energy>  (58) 
156.76751844392186

>  <Genealogy>  (58) 
CN(CC1CN(CC(=O)[O-])C1)c1ccc2cc(C([NH-])=O)n(C(=O)[O-])c2c1 (protonated)
CN(CC1CN(CC(=O)[O-])C1)c1ccc2cc(C([NH-])=O)n(C(=O)[O-])c2c1 (3D coordinates assigned)
CN(CC1CN(CC(=O)[O-])C1)c1ccc2cc(C([NH-])=O)n(C(=O)[O-])c2c1 (nonaromatic ring conformer: 156.76751844392186 kcal/mol)

>  <smiles>  (58) 
CN(CC1CN(CC(=O)O)C1)c1ccc2cc(C(N)=O)n(C(=O)O)c2c1

>  <score_type>  (58) 
oracle

>  <origin>  (58) 
adg

>  <m_score__min__energy>  (58) 
-7.6699999999999999

>  <m_primary>  (58) 
energy

$$$$
58:0
     RDKit          3D

 45 46  0  0  0  0  0  0  0  0999 V2000
  148.6140  149.9410  132.7890 C   0  0  0  0  0  0  0  0  0  0  0  0
  148.7410  151.4090  132.5460 C   0  0  0  0  0  0  0  0  0  0  0  0
  149.8030  151.8570  132.0410 O   0  0  0  0  0  0  0  0  0  0  0  0
  147.6810  152.2930  132.9390 N   0  0  0  0  0  0  0  0  0  0  0  0
  147.6770  153.7070  132.6820 C   0  0  0  0  0  0  0  0  0  0  0  0
  148.5970  154.2370  132.0050 O   0  0  0  0  0  0  0  0  0  0  0  0
  146.6000  154.5210  133.1740 N   0  0  0  0  0  0  0  0  0  0  0  0
  146.6940  155.7390  133.7780 C   0  0  0  0  0  0  0  0  0  0  0  0
  147.9320  156.5320  133.9390 C   0  0  0  0  0  0  0  0  0  0  0  0
  148.8500  156.7050  132.8560 N   0  0  0  0  0  0  0  0  0  0  0  0
  148.1630  157.1010  135.0360 O   0  0  0  0  0  0  0  0  0  0  0  0
  145.4410  156.1630  134.2180 C   0  0  0  0  0  0  0  0  0  0  0  0
  144.5700  155.1610  133.8590 C   0  0  0  0  0  0  0  0  0  0  0  0
  143.2030  155.0470  134.0760 C   0  0  0  0  0  0  0  0  0  0  0  0
  142.5600  153.8790  133.6310 C   0  0  0  0  0  0  0  0  0  0  0  0
  143.3000  152.8420  132.9990 C   0  0  0  0  0  0  0  0  0  0  0  0
  142.6610  151.6410  132.5290 N   0  0  0  0  0  0  0  0  0  0  0  0
  142.4210  150.4590  133.3570 C   0  0  0  0  0  0  0  0  0  0  0  0
  141.6210  149.3810  132.6050 C   0  0  0  0  0  0  0  0  0  0  0  0
  140.8640  149.9500  131.4660 N   0  0  0  0  0  0  0  0  0  0  0  0
  139.6860  150.7060  131.9270 C   0  0  0  0  0  0  0  0  0  0  0  0
  140.4250  148.8680  130.5690 C   0  0  0  0  0  0  0  0  0  0  0  0
  144.6910  152.9870  132.8240 C   0  0  0  0  0  0  0  0  0  0  0  0
  145.2950  154.1780  133.2370 C   0  0  0  0  0  0  0  0  0  0  0  0
  148.5974  149.7487  133.8719 H   0  0  0  0  0  0  0  0  0  0  0  0
  147.6807  149.5739  132.3370 H   0  0  0  0  0  0  0  0  0  0  0  0
  149.4703  149.4191  132.3370 H   0  0  0  0  0  0  0  0  0  0  0  0
  146.8370  151.8770  133.3940 H   0  0  0  0  0  0  0  0  0  0  0  0
  149.7380  157.2320  133.0000 H   0  0  0  0  0  0  0  0  0  0  0  0
  148.6030  156.4020  131.8890 H   0  0  0  0  0  0  0  0  0  0  0  0
  145.2001  157.1001  134.7413 H   0  0  0  0  0  0  0  0  0  0  0  0
  142.6406  155.8464  134.5807 H   0  0  0  0  0  0  0  0  0  0  0  0
  141.4750  153.7661  133.7728 H   0  0  0  0  0  0  0  0  0  0  0  0
  142.2980  151.6230  131.5490 H   0  0  0  0  0  0  0  0  0  0  0  0
  143.3897  150.0353  133.6604 H   0  0  0  0  0  0  0  0  0  0  0  0
  141.8316  150.7710  134.2318 H   0  0  0  0  0  0  0  0  0  0  0  0
  142.3190  148.6209  132.2241 H   0  0  0  0  0  0  0  0  0  0  0  0
  140.8992  148.9393  133.3078 H   0  0  0  0  0  0  0  0  0  0  0  0
  139.6659  150.7189  133.0267 H   0  0  0  0  0  0  0  0  0  0  0  0
  139.7415  151.7376  131.5492 H   0  0  0  0  0  0  0  0  0  0  0  0
  138.7713  150.2258  131.5492 H   0  0  0  0  0  0  0  0  0  0  0  0
  140.0782  148.0131  131.1681 H   0  0  0  0  0  0  0  0  0  0  0  0
  139.6022  149.2289  129.9344 H   0  0  0  0  0  0  0  0  0  0  0  0
  141.2667  148.5536  129.9344 H   0  0  0  0  0  0  0  0  0  0  0  0
  145.2880  152.1809  132.3725 H   0  0  0  0  0  0  0  0  0  0  0  0
  1  2  1  0
  2  3  2  0
  2  4  1  0
  4  5  1  0
  5  6  2  0
  5  7  1  0
  7  8  1  0
  8  9  1  0
  9 10  1  0
  9 11  2  0
  8 12  2  0
 12 13  1  0
 13 14  2  0
 14 15  1  0
 15 16  2  0
 16 17  1  0
 17 18  1  0
 18 19  1  0
 19 20  1  0
 20 21  1  0
 20 22  1  0
 16 23  1  0
 23 24  2  0
 24  7  1  0
 24 13  1  0
  1 25  1  0
  1 26  1  0
  1 27  1  0
  4 28  1  0
 10 29  1  0
 10 30  1  0
 12 31  1  0
 14 32  1  0
 15 33  1  0
 17 34  1  0
 18 35  1  0
 18 36  1  0
 19 37  1  0
 19 38  1  0
 21 39  1  0
 21 40  1  0
 21 41  1  0
 22 42  1  0
 22 43  1  0
 22 44  1  0
 23 45  1  0
M  END
>  <UniqueID>  (59) 
59

>  <SMILES>  (59) 
CC(=O)NC(=O)n1c(C(N)=O)cc2ccc(NCCN(C)C)cc21

>  <Energy>  (59) 
82.71217512470311

>  <Genealogy>  (59) 
CC(=O)NC(=O)n1c(C(N)=O)cc2ccc(NCCN(C)C)cc21 (3D coordinates assigned)
CC(=O)NC(=O)n1c(C(N)=O)cc2ccc(NCCN(C)C)cc21 (optimized conformer: 82.71217512470311 kcal/mol)

>  <smiles>  (59) 
CC(=O)NC(=O)n1c(C(N)=O)cc2ccc(NCCN(C)C)cc21

>  <score_type>  (59) 
oracle

>  <origin>  (59) 
adg

>  <m_score__min__energy>  (59) 
-8.0600000000000005

>  <m_primary>  (59) 
energy

$$$$
59:0
     RDKit          3D

 33 34  0  0  0  0  0  0  0  0999 V2000
  138.4480  160.2540  130.7510 C   0  0  0  0  0  0  0  0  0  0  0  0
  139.1630  160.1240  131.9740 O   0  0  0  0  0  0  0  0  0  0  0  0
  139.2390  158.9170  132.6760 C   0  0  0  0  0  0  0  0  0  0  0  0
  138.7400  157.8640  132.1910 O   0  0  0  0  0  0  0  0  0  0  0  0
  139.9750  158.8810  133.9890 C   0  0  1  0  0  0  0  0  0  0  0  0
  139.3450  157.8860  134.9730 C   0  0  0  0  0  0  0  0  0  0  0  0
  141.4430  158.5800  133.7690 C   0  0  0  0  0  0  0  0  0  0  0  0
  141.8490  157.2660  133.4180 C   0  0  0  0  0  0  0  0  0  0  0  0
  143.2040  156.9680  133.1930 C   0  0  0  0  0  0  0  0  0  0  0  0
  144.1300  157.9950  133.3330 C   0  0  0  0  0  0  0  0  0  0  0  0
  145.4940  157.9870  133.1500 C   0  0  0  0  0  0  0  0  0  0  0  0
  145.9110  159.2900  133.4140 C   0  0  0  0  0  0  0  0  0  0  0  0
  147.3290  159.7030  133.4190 C   0  0  0  0  0  0  0  0  0  0  0  0
  147.7570  160.8580  132.7050 N   0  0  0  0  0  0  0  0  0  0  0  0
  148.1640  159.0560  134.1060 O   0  0  0  0  0  0  0  0  0  0  0  0
  144.8440  160.0760  133.7380 N   0  0  0  0  0  0  0  0  0  0  0  0
  144.8410  161.4920  133.9840 C   0  0  0  0  0  0  0  0  0  0  0  0
  145.8530  162.0540  134.4790 O   0  0  0  0  0  0  0  0  0  0  0  0
  143.7110  162.2500  133.7030 O   0  0  0  0  0  0  0  0  0  0  0  0
  143.7620  159.2670  133.6870 C   0  0  0  0  0  0  0  0  0  0  0  0
  142.4190  159.5980  133.8980 C   0  0  0  0  0  0  0  0  0  0  0  0
  137.3865  160.4470  130.9656 H   0  0  0  0  0  0  0  0  0  0  0  0
  138.8630  161.0914  130.1709 H   0  0  0  0  0  0  0  0  0  0  0  0
  138.5416  159.3241  130.1709 H   0  0  0  0  0  0  0  0  0  0  0  0
  139.8903  159.8785  134.4448 H   0  0  0  0  0  0  0  0  0  0  0  0
  139.5502  158.2101  136.0040 H   0  0  0  0  0  0  0  0  0  0  0  0
  138.2578  157.8478  134.8102 H   0  0  0  0  0  0  0  0  0  0  0  0
  139.7754  156.8869  134.8102 H   0  0  0  0  0  0  0  0  0  0  0  0
  141.0943  156.4716  133.3209 H   0  0  0  0  0  0  0  0  0  0  0  0
  143.5220  155.9525  132.9145 H   0  0  0  0  0  0  0  0  0  0  0  0
  146.1221  157.1327  132.8573 H   0  0  0  0  0  0  0  0  0  0  0  0
  147.3260  161.7920  132.8850 H   0  0  0  0  0  0  0  0  0  0  0  0
  142.1277  160.6263  134.1583 H   0  0  0  0  0  0  0  0  0  0  0  0
  1  2  1  0
  2  3  1  0
  3  4  2  0
  3  5  1  0
  5  6  1  0
  5  7  1  0
  7  8  2  0
  8  9  1  0
  9 10  2  0
 10 11  1  0
 11 12  2  0
 12 13  1  0
 13 14  1  0
 13 15  2  0
 12 16  1  0
 16 17  1  0
 17 18  2  0
 17 19  1  0
 16 20  1  0
 20 21  2  0
 21  7  1  0
 20 10  1  0
  1 22  1  0
  1 23  1  0
  1 24  1  0
  5 25  1  1
  6 26  1  0
  6 27  1  0
  6 28  1  0
  8 29  1  0
  9 30  1  0
 11 31  1  0
 14 32  1  0
 21 33  1  0
M  CHG  2  14  -1  19  -1
M  END
>  <UniqueID>  (60) 
60

>  <SMILES>  (60) 
COC(=O)[C@@H](C)c1ccc2cc(C([NH-])=O)n(C(=O)[O-])c2c1

>  <Energy>  (60) 
69.30478645354827

>  <Genealogy>  (60) 
COC(=O)C(C)c1ccc2cc(C([NH-])=O)n(C(=O)[O-])c2c1 (protonated)
COC(=O)[C@@H](C)c1ccc2cc(C([NH-])=O)n(C(=O)[O-])c2c1 (chirality)
COC(=O)[C@@H](C)c1ccc2cc(C([NH-])=O)n(C(=O)[O-])c2c1 (3D coordinates assigned)
COC(=O)[C@@H](C)c1ccc2cc(C([NH-])=O)n(C(=O)[O-])c2c1 (optimized conformer: 69.30478645354827 kcal/mol)

>  <smiles>  (60) 
COC(=O)C(C)c1ccc2cc(C(N)=O)n(C(=O)O)c2c1

>  <score_type>  (60) 
oracle

>  <origin>  (60) 
adg

>  <m_score__min__energy>  (60) 
-6.2699999999999996

>  <m_primary>  (60) 
energy

$$$$
60:0
     RDKit          3D

 29 30  0  0  0  0  0  0  0  0999 V2000
  147.0200  154.9960  135.2140 C   0  0  0  0  0  0  0  0  0  0  0  0
  145.9730  155.7970  134.6800 O   0  0  0  0  0  0  0  0  0  0  0  0
  146.0960  156.4870  133.4700 C   0  0  0  0  0  0  0  0  0  0  0  0
  146.3310  155.8600  132.4020 O   0  0  0  0  0  0  0  0  0  0  0  0
  145.9660  157.9190  133.4480 N   0  0  0  0  0  0  0  0  0  0  0  0
  146.9110  158.8300  133.0790 C   0  0  0  0  0  0  0  0  0  0  0  0
  148.3280  158.5240  132.7790 C   0  0  0  0  0  0  0  0  0  0  0  0
  148.6710  157.4950  131.8500 N   0  0  0  0  0  0  0  0  0  0  0  0
  149.2470  159.1950  133.3200 O   0  0  0  0  0  0  0  0  0  0  0  0
  146.3860  160.1200  133.1160 C   0  0  0  0  0  0  0  0  0  0  0  0
  145.0800  159.9720  133.5230 C   0  0  0  0  0  0  0  0  0  0  0  0
  144.0950  160.9300  133.7320 C   0  0  0  0  0  0  0  0  0  0  0  0
  142.8230  160.4920  134.1350 C   0  0  0  0  0  0  0  0  0  0  0  0
  142.5500  159.1090  134.2970 C   0  0  0  0  0  0  0  0  0  0  0  0
  141.1920  158.6540  134.7670 C   0  0  0  0  0  0  0  0  0  0  0  0
  141.0220  158.9330  136.1120 F   0  0  0  0  0  0  0  0  0  0  0  0
  140.2160  159.3140  134.0440 F   0  0  0  0  0  0  0  0  0  0  0  0
  141.0430  157.2900  134.5870 F   0  0  0  0  0  0  0  0  0  0  0  0
  143.5870  158.1670  134.0990 C   0  0  0  0  0  0  0  0  0  0  0  0
  144.8500  158.6340  133.7150 C   0  0  0  0  0  0  0  0  0  0  0  0
  146.9807  155.0261  136.3129 H   0  0  0  0  0  0  0  0  0  0  0  0
  146.8988  153.9579  134.8711 H   0  0  0  0  0  0  0  0  0  0  0  0
  147.9903  155.3845  134.8711 H   0  0  0  0  0  0  0  0  0  0  0  0
  149.6730  157.3140  131.6160 H   0  0  0  0  0  0  0  0  0  0  0  0
  147.9420  156.8840  131.4230 H   0  0  0  0  0  0  0  0  0  0  0  0
  146.9056  161.0582  132.8716 H   0  0  0  0  0  0  0  0  0  0  0  0
  144.3055  161.9997  133.5861 H   0  0  0  0  0  0  0  0  0  0  0  0
  142.0295  161.2292  134.3272 H   0  0  0  0  0  0  0  0  0  0  0  0
  143.4051  157.0918  134.2435 H   0  0  0  0  0  0  0  0  0  0  0  0
  1  2  1  0
  2  3  1  0
  3  4  2  0
  3  5  1  0
  5  6  1  0
  6  7  1  0
  7  8  1  0
  7  9  2  0
  6 10  2  0
 10 11  1  0
 11 12  2  0
 12 13  1  0
 13 14  2  0
 14 15  1  0
 15 16  1  0
 15 17  1  0
 15 18  1  0
 14 19  1  0
 19 20  2  0
 20  5  1  0
 20 11  1  0
  1 21  1  0
  1 22  1  0
  1 23  1  0
  8 24  1  0
  8 25  1  0
 10 26  1  0
 12 27  1  0
 13 28  1  0
 19 29  1  0
M  END
>  <UniqueID>  (61) 
61

>  <SMILES>  (61) 
COC(=O)n1c(C(N)=O)cc2ccc(C(F)(F)F)cc21

>  <Energy>  (61) 
66.5829605126374

>  <Genealogy>  (61) 
COC(=O)n1c(C(N)=O)cc2ccc(C(F)(F)F)cc21 (3D coordinates assigned)
COC(=O)n1c(C(N)=O)cc2ccc(C(F)(F)F)cc21 (optimized conformer: 66.5829605126374 kcal/mol)

>  <smiles>  (61) 
COC(=O)n1c(C(N)=O)cc2ccc(C(F)(F)F)cc21

>  <score_type>  (61) 
oracle

>  <origin>  (61) 
adg

>  <m_score__min__energy>  (61) 
-5.5800000000000001

>  <m_primary>  (61) 
energy

$$$$
61:0
     RDKit          3D

 39 40  0  0  0  0  0  0  0  0999 V2000
  145.9360  163.0830  135.0110 N   0  0  0  0  0  0  0  0  0  0  0  0
  145.0070  162.4560  134.1290 C   0  0  0  0  0  0  0  0  0  0  0  0
  144.1470  163.1590  133.5370 O   0  0  0  0  0  0  0  0  0  0  0  0
  145.0790  161.0050  133.8580 C   0  0  0  0  0  0  0  0  0  0  0  0
  146.2660  160.3410  133.5570 C   0  0  0  0  0  0  0  0  0  0  0  0
  145.9280  159.0110  133.4700 C   0  0  0  0  0  0  0  0  0  0  0  0
  146.7210  157.9030  133.1830 C   0  0  0  0  0  0  0  0  0  0  0  0
  146.1010  156.6450  133.1340 C   0  0  0  0  0  0  0  0  0  0  0  0
  144.7100  156.5150  133.3710 C   0  0  0  0  0  0  0  0  0  0  0  0
  144.0600  155.1540  133.3370 C   0  0  0  0  0  0  0  0  0  0  0  0
  142.5240  155.2310  133.2770 C   0  0  0  0  0  0  0  0  0  0  0  0
  141.8230  154.0420  133.9440 C   0  0  0  0  0  0  0  0  0  0  0  0
  142.4650  152.8400  133.5790 O   0  0  0  0  0  0  0  0  0  0  0  0
  141.2850  151.6230  133.3960 P   0  0  2  0  0  0  0  0  0  0  0  0
  140.0030  152.2520  132.9020 O   0  0  0  0  0  0  0  0  0  0  0  0
  140.9820  150.9190  134.9050 O   0  0  0  0  0  0  0  0  0  0  0  0
  141.7870  150.4540  132.2610 O   0  0  0  0  0  0  0  0  0  0  0  0
  140.3940  149.7280  131.6030 P   0  0  1  0  0  0  0  0  0  0  0  0
  139.8240  150.5610  130.4770 O   0  0  0  0  0  0  0  0  0  0  0  0
  140.7670  148.1810  131.0290 O   0  0  0  0  0  0  0  0  0  0  0  0
  139.2300  149.5860  132.8220 O   0  0  0  0  0  0  0  0  0  0  0  0
  143.9350  157.6640  133.6450 C   0  0  0  0  0  0  0  0  0  0  0  0
  144.5830  158.9030  133.7070 C   0  0  0  0  0  0  0  0  0  0  0  0
  144.0450  160.1210  133.9440 N   0  0  0  0  0  0  0  0  0  0  0  0
  142.6530  160.4150  134.1450 C   0  0  0  0  0  0  0  0  0  0  0  0
  142.0600  161.2340  133.3930 O   0  0  0  0  0  0  0  0  0  0  0  0
  141.9540  159.8200  135.1870 O   0  0  0  0  0  0  0  0  0  0  0  0
  146.9610  163.0620  134.8130 H   0  0  0  0  0  0  0  0  0  0  0  0
  147.2623  160.7862  133.4184 H   0  0  0  0  0  0  0  0  0  0  0  0
  147.8004  158.0105  133.0003 H   0  0  0  0  0  0  0  0  0  0  0  0
  146.7009  155.7508  132.9093 H   0  0  0  0  0  0  0  0  0  0  0  0
  144.4203  154.6140  132.4490 H   0  0  0  0  0  0  0  0  0  0  0  0
  144.3306  154.6331  134.2673 H   0  0  0  0  0  0  0  0  0  0  0  0
  142.2021  156.1530  133.7832 H   0  0  0  0  0  0  0  0  0  0  0  0
  142.2418  155.2167  132.2139 H   0  0  0  0  0  0  0  0  0  0  0  0
  141.8644  154.1604  135.0368 H   0  0  0  0  0  0  0  0  0  0  0  0
  140.7745  154.0076  133.6133 H   0  0  0  0  0  0  0  0  0  0  0  0
  139.4570  150.2990  133.4710 H   0  0  0  0  0  0  0  0  0  0  0  0
  142.8495  157.5868  133.8056 H   0  0  0  0  0  0  0  0  0  0  0  0
  1  2  1  0
  2  3  2  0
  2  4  1  0
  4  5  2  0
  5  6  1  0
  6  7  2  0
  7  8  1  0
  8  9  2  0
  9 10  1  0
 10 11  1  0
 11 12  1  0
 12 13  1  0
 13 14  1  0
 14 15  2  0
 14 16  1  1
 14 17  1  0
 17 18  1  0
 18 19  2  0
 18 20  1  6
 18 21  1  0
  9 22  1  0
 22 23  2  0
 23 24  1  0
 24 25  1  0
 25 26  2  0
 25 27  1  0
 24  4  1  0
 23  6  1  0
  1 28  1  0
  5 29  1  0
  7 30  1  0
  8 31  1  0
 10 32  1  0
 10 33  1  0
 11 34  1  0
 11 35  1  0
 12 36  1  0
 12 37  1  0
 21 38  1  0
 22 39  1  0
M  CHG  4   1  -1  16  -1  20  -1  27  -1
M  END
>  <UniqueID>  (62) 
62

>  <SMILES>  (62) 
[NH-]C(=O)c1cc2ccc(CCCO[P@](=O)([O-])O[P@@](=O)([O-])O)cc2n1C(=O)[O-]

>  <Energy>  (62) 
70.29556296551364

>  <Genealogy>  (62) 
[NH-]C(=O)c1cc2ccc(CCCOP(=O)([O-])OP(=O)([O-])O)cc2n1C(=O)[O-] (protonated)
[NH-]C(=O)c1cc2ccc(CCCO[P@](=O)([O-])O[P@@](=O)([O-])O)cc2n1C(=O)[O-] (chirality)
[NH-]C(=O)c1cc2ccc(CCCO[P@](=O)([O-])O[P@@](=O)([O-])O)cc2n1C(=O)[O-] (3D coordinates assigned)
[NH-]C(=O)c1cc2ccc(CCCO[P@](=O)([O-])O[P@@](=O)([O-])O)cc2n1C(=O)[O-] (optimized conformer: 70.29556296551364 kcal/mol)

>  <smiles>  (62) 
NC(=O)c1cc2ccc(CCCOP(=O)(O)OP(=O)(O)O)cc2n1C(=O)O

>  <score_type>  (62) 
oracle

>  <origin>  (62) 
adg

>  <m_score__min__energy>  (62) 
-7.6399999999999997

>  <m_primary>  (62) 
energy

$$$$
62:0
     RDKit          3D

 58 61  0  0  0  0  0  0  0  0999 V2000
  142.8160  155.6060  136.5100 N   0  0  0  0  0  0  0  0  0  0  0  0
  143.5310  154.9420  135.4680 C   0  0  0  0  0  0  0  0  0  0  0  0
  143.1120  153.8310  135.0440 O   0  0  0  0  0  0  0  0  0  0  0  0
  144.7090  155.5640  134.8280 C   0  0  0  0  0  0  0  0  0  0  0  0
  145.9700  154.9740  134.8100 C   0  0  0  0  0  0  0  0  0  0  0  0
  146.7570  155.8250  134.0680 C   0  0  0  0  0  0  0  0  0  0  0  0
  148.1040  155.7320  133.7360 C   0  0  0  0  0  0  0  0  0  0  0  0
  148.6710  156.7720  132.9800 C   0  0  0  0  0  0  0  0  0  0  0  0
  147.8920  157.8890  132.5780 C   0  0  0  0  0  0  0  0  0  0  0  0
  148.4870  158.9640  131.8160 N   0  0  0  0  0  0  0  0  0  0  0  0
  147.6940  160.1370  131.4410 C   0  0  0  0  0  0  0  0  0  0  0  0
  148.6240  161.3100  131.1090 C   0  0  0  0  0  0  0  0  0  0  0  0
  149.5330  161.0050  130.0660 O   0  0  0  0  0  0  0  0  0  0  0  0
  150.1630  159.7300  130.1850 C   0  0  0  0  0  0  0  0  0  0  0  0
  149.9190  158.9680  131.5020 C   0  0  0  0  0  0  0  0  0  0  0  0
  146.5250  157.9450  132.9420 C   0  0  0  0  0  0  0  0  0  0  0  0
  145.9800  156.8850  133.6770 C   0  0  0  0  0  0  0  0  0  0  0  0
  144.7170  156.7410  134.1400 N   0  0  0  0  0  0  0  0  0  0  0  0
  143.6470  157.6940  134.0180 C   0  0  0  0  0  0  0  0  0  0  0  0
  143.4030  158.2300  132.9030 O   0  0  0  0  0  0  0  0  0  0  0  0
  142.8680  158.0080  135.1340 O   0  0  0  0  0  0  0  0  0  0  0  0
  141.4460  158.0190  135.1080 C   0  0  0  0  0  0  0  0  0  0  0  0
  140.9330  159.0270  136.1380 C   0  0  0  0  0  0  0  0  0  0  0  0
  141.5230  158.8320  137.5550 C   0  0  0  0  0  0  0  0  0  0  0  0
  141.5280  157.4450  138.0780 N   0  0  0  0  0  0  0  0  0  0  0  0
  140.2670  156.7100  137.8540 C   0  0  0  0  0  0  0  0  0  0  0  0
  140.2710  155.3690  138.6100 C   0  0  0  0  0  0  0  0  0  0  0  0
  141.5980  154.9320  138.8230 O   0  0  0  0  0  0  0  0  0  0  0  0
  142.2490  155.7820  139.7560 C   0  0  0  0  0  0  0  0  0  0  0  0
  142.0460  157.2820  139.4470 C   0  0  0  0  0  0  0  0  0  0  0  0
  142.0200  155.1260  136.9880 H   0  0  0  0  0  0  0  0  0  0  0  0
  143.0190  156.6000  136.7560 H   0  0  0  0  0  0  0  0  0  0  0  0
  146.2725  154.0299  135.2867 H   0  0  0  0  0  0  0  0  0  0  0  0
  148.7079  154.8699  134.0556 H   0  0  0  0  0  0  0  0  0  0  0  0
  149.7324  156.7201  132.6959 H   0  0  0  0  0  0  0  0  0  0  0  0
  147.0810  159.8966  130.5598 H   0  0  0  0  0  0  0  0  0  0  0  0
  147.0422  160.4177  132.2814 H   0  0  0  0  0  0  0  0  0  0  0  0
  148.0108  162.1700  130.8019 H   0  0  0  0  0  0  0  0  0  0  0  0
  149.2134  161.5339  132.0104 H   0  0  0  0  0  0  0  0  0  0  0  0
  149.8003  159.0987  129.3604 H   0  0  0  0  0  0  0  0  0  0  0  0
  151.2437  159.9334  130.1598 H   0  0  0  0  0  0  0  0  0  0  0  0
  150.2722  157.9318  131.3951 H   0  0  0  0  0  0  0  0  0  0  0  0
  150.4677  159.4647  132.3158 H   0  0  0  0  0  0  0  0  0  0  0  0
  145.9028  158.8049  132.6529 H   0  0  0  0  0  0  0  0  0  0  0  0
  141.0984  158.3081  134.1052 H   0  0  0  0  0  0  0  0  0  0  0  0
  141.0637  157.0162  135.3494 H   0  0  0  0  0  0  0  0  0  0  0  0
  141.1919  160.0383  135.7914 H   0  0  0  0  0  0  0  0  0  0  0  0
  139.8469  158.8736  136.2209 H   0  0  0  0  0  0  0  0  0  0  0  0
  142.5639  159.1873  137.5367 H   0  0  0  0  0  0  0  0  0  0  0  0
  140.8625  159.3976  138.2286 H   0  0  0  0  0  0  0  0  0  0  0  0
  139.4253  157.3219  138.2105 H   0  0  0  0  0  0  0  0  0  0  0  0
  140.1653  156.5064  136.7778 H   0  0  0  0  0  0  0  0  0  0  0  0
  139.7708  155.4980  139.5812 H   0  0  0  0  0  0  0  0  0  0  0  0
  139.7379  154.6172  138.0095 H   0  0  0  0  0  0  0  0  0  0  0  0
  141.8492  155.5732  140.7593 H   0  0  0  0  0  0  0  0  0  0  0  0
  143.3276  155.5754  139.6937 H   0  0  0  0  0  0  0  0  0  0  0  0
  141.3271  157.7079  140.1624 H   0  0  0  0  0  0  0  0  0  0  0  0
  143.0103  157.8040  139.5344 H   0  0  0  0  0  0  0  0  0  0  0  0
  1  2  1  0
  2  3  2  0
  2  4  1  0
  4  5  2  0
  5  6  1  0
  6  7  2  0
  7  8  1  0
  8  9  2  0
  9 10  1  0
 10 11  1  0
 11 12  1  0
 12 13  1  0
 13 14  1  0
 14 15  1  0
  9 16  1  0
 16 17  2  0
 17 18  1  0
 18 19  1  0
 19 20  2  0
 19 21  1  0
 21 22  1  0
 22 23  1  0
 23 24  1  0
 24 25  1  0
 25 26  1  0
 26 27  1  0
 27 28  1  0
 28 29  1  0
 29 30  1  0
 18  4  1  0
 30 25  1  0
 17  6  1  0
 15 10  1  0
  1 31  1  0
  1 32  1  0
  5 33  1  0
  7 34  1  0
  8 35  1  0
 11 36  1  0
 11 37  1  0
 12 38  1  0
 12 39  1  0
 14 40  1  0
 14 41  1  0
 15 42  1  0
 15 43  1  0
 16 44  1  0
 22 45  1  0
 22 46  1  0
 23 47  1  0
 23 48  1  0
 24 49  1  0
 24 50  1  0
 26 51  1  0
 26 52  1  0
 27 53  1  0
 27 54  1  0
 29 55  1  0
 29 56  1  0
 30 57  1  0
 30 58  1  0
M  END
>  <UniqueID>  (63) 
63

>  <SMILES>  (63) 
NC(=O)c1cc2ccc(N3CCOCC3)cc2n1C(=O)OCCCN1CCOCC1

>  <Energy>  (63) 
121.27954322201789

>  <Genealogy>  (63) 
NC(=O)c1cc2ccc(N3CCOCC3)cc2n1C(=O)OCCCN1CCOCC1 (3D coordinates assigned)
NC(=O)c1cc2ccc(N3CCOCC3)cc2n1C(=O)OCCCN1CCOCC1 (nonaromatic ring conformer: 121.27954322201789 kcal/mol)

>  <smiles>  (63) 
NC(=O)c1cc2ccc(N3CCOCC3)cc2n1C(=O)OCCCN1CCOCC1

>  <score_type>  (63) 
oracle

>  <origin>  (63) 
adg

>  <m_score__min__energy>  (63) 
-8.7400000000000002

>  <m_primary>  (63) 
energy

$$$$
63:0
     RDKit          3D

 33 34  0  0  0  0  0  0  0  0999 V2000
  148.4820  152.6590  134.1080 N   0  0  0  0  0  0  0  0  0  0  0  0
  148.7900  153.5970  133.0760 C   0  0  0  0  0  0  0  0  0  0  0  0
  149.5710  153.2550  132.1480 O   0  0  0  0  0  0  0  0  0  0  0  0
  148.1770  154.9430  133.0490 C   0  0  0  0  0  0  0  0  0  0  0  0
  148.8630  156.0960  132.6740 C   0  0  0  0  0  0  0  0  0  0  0  0
  147.9480  157.1180  132.7950 C   0  0  0  0  0  0  0  0  0  0  0  0
  148.0980  158.4860  132.5860 C   0  0  0  0  0  0  0  0  0  0  0  0
  146.9960  159.3180  132.8460 C   0  0  0  0  0  0  0  0  0  0  0  0
  145.7750  158.7730  133.3190 C   0  0  0  0  0  0  0  0  0  0  0  0
  144.6080  159.6680  133.6200 C   0  0  0  0  0  0  0  0  0  0  0  0
  143.7050  159.0030  134.4290 F   0  0  0  0  0  0  0  0  0  0  0  0
  145.0500  160.8060  134.2690 F   0  0  0  0  0  0  0  0  0  0  0  0
  145.6630  157.3810  133.5280 C   0  0  0  0  0  0  0  0  0  0  0  0
  146.7680  156.5740  133.2340 C   0  0  0  0  0  0  0  0  0  0  0  0
  146.8910  155.2380  133.3850 N   0  0  0  0  0  0  0  0  0  0  0  0
  145.9190  154.3500  133.9570 C   0  0  0  0  0  0  0  0  0  0  0  0
  145.1790  153.6840  133.1880 O   0  0  0  0  0  0  0  0  0  0  0  0
  145.7760  154.2500  135.4300 C   0  0  0  0  0  0  0  0  0  0  0  0
  144.8750  154.9250  135.9950 O   0  0  0  0  0  0  0  0  0  0  0  0
  146.6030  153.4090  136.2500 N   0  0  0  0  0  0  0  0  0  0  0  0
  147.5400  153.8260  137.2880 C   0  0  0  0  0  0  0  0  0  0  0  0
  148.7660  152.9660  137.2670 C   0  0  0  0  0  0  0  0  0  0  0  0
  149.7000  153.1780  138.0820 O   0  0  0  0  0  0  0  0  0  0  0  0
  148.8550  151.8990  136.3820 O   0  0  0  0  0  0  0  0  0  0  0  0
  147.6940  152.8200  134.7720 H   0  0  0  0  0  0  0  0  0  0  0  0
  148.9780  151.7410  134.1440 H   0  0  0  0  0  0  0  0  0  0  0  0
  149.9115  156.1735  132.3504 H   0  0  0  0  0  0  0  0  0  0  0  0
  149.0508  158.9032  132.2280 H   0  0  0  0  0  0  0  0  0  0  0  0
  147.0810  160.4022  132.6811 H   0  0  0  0  0  0  0  0  0  0  0  0
  144.1173  159.9487  132.6764 H   0  0  0  0  0  0  0  0  0  0  0  0
  144.7305  156.9419  133.9123 H   0  0  0  0  0  0  0  0  0  0  0  0
  147.8296  154.8729  137.1143 H   0  0  0  0  0  0  0  0  0  0  0  0
  147.0518  153.7242  138.2685 H   0  0  0  0  0  0  0  0  0  0  0  0
  1  2  1  0
  2  3  2  0
  2  4  1  0
  4  5  2  0
  5  6  1  0
  6  7  2  0
  7  8  1  0
  8  9  2  0
  9 10  1  0
 10 11  1  0
 10 12  1  0
  9 13  1  0
 13 14  2  0
 14 15  1  0
 15 16  1  0
 16 17  2  0
 16 18  1  0
 18 19  2  0
 18 20  1  0
 20 21  1  0
 21 22  1  0
 22 23  2  0
 22 24  1  0
 15  4  1  0
 14  6  1  0
  1 25  1  0
  1 26  1  0
  5 27  1  0
  7 28  1  0
  8 29  1  0
 10 30  1  0
 13 31  1  0
 21 32  1  0
 21 33  1  0
M  CHG  2  20  -1  24  -1
M  END
>  <UniqueID>  (64) 
64

>  <SMILES>  (64) 
NC(=O)c1cc2ccc(C(F)F)cc2n1C(=O)C(=O)[N-]CC(=O)[O-]

>  <Energy>  (64) 
73.21908517599385

>  <Genealogy>  (64) 
NC(=O)c1cc2ccc(C(F)F)cc2n1C(=O)C(=O)[N-]CC(=O)[O-] (protonated)
NC(=O)c1cc2ccc(C(F)F)cc2n1C(=O)C(=O)[N-]CC(=O)[O-] (3D coordinates assigned)
NC(=O)c1cc2ccc(C(F)F)cc2n1C(=O)C(=O)[N-]CC(=O)[O-] (optimized conformer: 73.21908517599385 kcal/mol)

>  <smiles>  (64) 
NC(=O)c1cc2ccc(C(F)F)cc2n1C(=O)C(=O)NCC(=O)O

>  <score_type>  (64) 
oracle

>  <origin>  (64) 
adg

>  <m_score__min__energy>  (64) 
-6.3200000000000003

>  <m_primary>  (64) 
energy

$$$$
64:0
     RDKit          3D

 48 50  0  0  0  0  0  0  0  0999 V2000
  140.2250  158.9620  136.3680 C   0  0  0  0  0  0  0  0  0  0  0  0
  139.8560  158.1400  135.1320 C   0  0  2  0  0  0  0  0  0  0  0  0
  140.7360  156.8820  135.0240 C   0  0  0  0  0  0  0  0  0  0  0  0
  140.4880  156.1760  133.7600 N   0  0  0  0  0  0  0  0  0  0  0  0
  141.0390  154.8570  133.5390 C   0  0  0  0  0  0  0  0  0  0  0  0
  140.5290  154.1080  132.6600 O   0  0  0  0  0  0  0  0  0  0  0  0
  142.1650  154.3220  134.3930 C   0  0  0  0  0  0  0  0  0  0  0  0
  143.5020  154.8380  133.9280 C   0  0  0  0  0  0  0  0  0  0  0  0
  144.5430  153.9280  133.6150 C   0  0  0  0  0  0  0  0  0  0  0  0
  145.8100  154.3950  133.2260 C   0  0  0  0  0  0  0  0  0  0  0  0
  146.0090  155.7720  133.1710 C   0  0  0  0  0  0  0  0  0  0  0  0
  147.1350  156.4980  132.8500 C   0  0  0  0  0  0  0  0  0  0  0  0
  146.7640  157.8360  132.9830 C   0  0  0  0  0  0  0  0  0  0  0  0
  147.6710  158.9770  132.7280 C   0  0  0  0  0  0  0  0  0  0  0  0
  147.2190  160.1310  132.0250 N   0  0  0  0  0  0  0  0  0  0  0  0
  148.8630  158.9280  133.1310 O   0  0  0  0  0  0  0  0  0  0  0  0
  145.4610  157.9270  133.3680 N   0  0  0  0  0  0  0  0  0  0  0  0
  144.7050  159.1150  133.6340 C   0  0  0  0  0  0  0  0  0  0  0  0
  145.2840  160.1320  134.0970 O   0  0  0  0  0  0  0  0  0  0  0  0
  143.2620  159.1490  133.3820 C   0  0  0  0  0  0  0  0  0  0  0  0
  142.5670  160.1220  133.7780 O   0  0  0  0  0  0  0  0  0  0  0  0
  145.0130  156.6620  133.4780 C   0  0  0  0  0  0  0  0  0  0  0  0
  143.7420  156.2300  133.8650 C   0  0  0  0  0  0  0  0  0  0  0  0
  139.4830  156.7120  132.8320 C   0  0  0  0  0  0  0  0  0  0  0  0
  139.6420  158.2450  132.6680 C   0  0  1  0  0  0  0  0  0  0  0  0
  138.3680  158.8580  132.0880 C   0  0  0  0  0  0  0  0  0  0  0  0
  139.9970  158.9580  133.9180 N   0  0  0  0  0  0  0  0  0  0  0  0
  139.9703  158.3945  137.2752 H   0  0  0  0  0  0  0  0  0  0  0  0
  141.3044  159.1735  136.3588 H   0  0  0  0  0  0  0  0  0  0  0  0
  139.6657  159.9092  136.3588 H   0  0  0  0  0  0  0  0  0  0  0  0
  138.8080  157.8215  135.2330 H   0  0  0  0  0  0  0  0  0  0  0  0
  141.7945  157.1779  135.0696 H   0  0  0  0  0  0  0  0  0  0  0  0
  140.4893  156.2078  135.8575 H   0  0  0  0  0  0  0  0  0  0  0  0
  142.0035  154.6352  135.4350 H   0  0  0  0  0  0  0  0  0  0  0  0
  142.1701  153.2251  134.3108 H   0  0  0  0  0  0  0  0  0  0  0  0
  144.3571  152.8456  133.6773 H   0  0  0  0  0  0  0  0  0  0  0  0
  146.6194  153.6945  132.9728 H   0  0  0  0  0  0  0  0  0  0  0  0
  148.1184  156.1056  132.5519 H   0  0  0  0  0  0  0  0  0  0  0  0
  146.5610  160.8090  132.4700 H   0  0  0  0  0  0  0  0  0  0  0  0
  142.7821  158.3188  132.8431 H   0  0  0  0  0  0  0  0  0  0  0  0
  142.9505  156.9523  134.1137 H   0  0  0  0  0  0  0  0  0  0  0  0
  139.6060  156.2303  131.8507 H   0  0  0  0  0  0  0  0  0  0  0  0
  138.4827  156.5045  133.2398 H   0  0  0  0  0  0  0  0  0  0  0  0
  140.4877  158.3747  131.9766 H   0  0  0  0  0  0  0  0  0  0  0  0
  137.7076  159.1758  132.9083 H   0  0  0  0  0  0  0  0  0  0  0  0
  138.6291  159.7291  131.4691 H   0  0  0  0  0  0  0  0  0  0  0  0
  137.8502  158.1104  131.4691 H   0  0  0  0  0  0  0  0  0  0  0  0
  140.9900  159.2850  133.8460 H   0  0  0  0  0  0  0  0  0  0  0  0
  1  2  1  0
  2  3  1  0
  3  4  1  0
  4  5  1  0
  5  6  2  0
  5  7  1  0
  7  8  1  0
  8  9  2  0
  9 10  1  0
 10 11  2  0
 11 12  1  0
 12 13  2  0
 13 14  1  0
 14 15  1  0
 14 16  2  0
 13 17  1  0
 17 18  1  0
 18 19  2  0
 18 20  1  0
 20 21  2  0
 17 22  1  0
 22 23  2  0
  4 24  1  0
 24 25  1  0
 25 26  1  0
 25 27  1  0
 27  2  1  0
 23  8  1  0
 22 11  1  0
  1 28  1  0
  1 29  1  0
  1 30  1  0
  2 31  1  1
  3 32  1  0
  3 33  1  0
  7 34  1  0
  7 35  1  0
  9 36  1  0
 10 37  1  0
 12 38  1  0
 15 39  1  0
 20 40  1  0
 23 41  1  0
 24 42  1  0
 24 43  1  0
 25 44  1  6
 26 45  1  0
 26 46  1  0
 26 47  1  0
 27 48  1  0
M  CHG  1  15  -1
M  END
>  <UniqueID>  (65) 
65

>  <SMILES>  (65) 
C[C@@H]1CN(C(=O)Cc2ccc3cc(C([NH-])=O)n(C(=O)C=O)c3c2)C[C@@H](C)N1

>  <Energy>  (65) 
90.13074404031276

>  <Genealogy>  (65) 
CC1CN(C(=O)Cc2ccc3cc(C([NH-])=O)n(C(=O)C=O)c3c2)C[C@@H](C)N1 (protonated)
C[C@@H]1CN(C(=O)Cc2ccc3cc(C([NH-])=O)n(C(=O)C=O)c3c2)C[C@@H](C)N1 (chirality)
C[C@@H]1CN(C(=O)Cc2ccc3cc(C([NH-])=O)n(C(=O)C=O)c3c2)C[C@@H](C)N1 (3D coordinates assigned)
C[C@@H]1CN(C(=O)Cc2ccc3cc(C([NH-])=O)n(C(=O)C=O)c3c2)C[C@@H](C)N1 (nonaromatic ring conformer: 90.13074404031276 kcal/mol)

>  <smiles>  (65) 
CC1CN(C(=O)Cc2ccc3cc(C(N)=O)n(C(=O)C=O)c3c2)C[C@@H](C)N1

>  <score_type>  (65) 
oracle

>  <origin>  (65) 
adg

>  <m_score__min__energy>  (65) 
-7.4900000000000002

>  <m_primary>  (65) 
energy

$$$$
65:0
     RDKit          3D

 41 42  0  0  0  0  0  0  0  0999 V2000
  150.1220  160.1080  129.2090 C   0  0  0  0  0  0  0  0  0  0  0  0
  148.9830  160.1100  130.1440 N   0  0  0  0  0  0  0  0  0  0  0  0
  148.8330  161.4490  130.7360 C   0  0  0  0  0  0  0  0  0  0  0  0
  149.1670  159.0960  131.2060 C   0  0  0  0  0  0  0  0  0  0  0  0
  148.9500  159.7220  132.5960 C   0  0  0  0  0  0  0  0  0  0  0  0
  148.2690  158.7560  133.5870 C   0  0  0  0  0  0  0  0  0  0  0  0
  147.0800  157.9920  132.9780 C   0  0  0  0  0  0  0  0  0  0  0  0
  145.7540  158.5640  133.4090 C   0  0  0  0  0  0  0  0  0  0  0  0
  145.5550  159.9670  133.4060 C   0  0  0  0  0  0  0  0  0  0  0  0
  144.3020  160.5110  133.7350 C   0  0  0  0  0  0  0  0  0  0  0  0
  143.2670  159.6310  134.0390 C   0  0  0  0  0  0  0  0  0  0  0  0
  141.9590  159.8870  134.3780 C   0  0  0  0  0  0  0  0  0  0  0  0
  141.3700  158.6350  134.5500 C   0  0  0  0  0  0  0  0  0  0  0  0
  139.9300  158.4490  134.8260 C   0  0  0  0  0  0  0  0  0  0  0  0
  139.4620  158.2040  136.1500 N   0  0  0  0  0  0  0  0  0  0  0  0
  139.1070  158.4560  133.8730 O   0  0  0  0  0  0  0  0  0  0  0  0
  142.2820  157.6440  134.3350 N   0  0  0  0  0  0  0  0  0  0  0  0
  142.0920  156.2260  134.4610 C   0  0  0  0  0  0  0  0  0  0  0  0
  141.2510  155.6300  133.7380 O   0  0  0  0  0  0  0  0  0  0  0  0
  142.8190  155.5020  135.3990 O   0  0  0  0  0  0  0  0  0  0  0  0
  143.4380  158.2710  134.0250 C   0  0  0  0  0  0  0  0  0  0  0  0
  144.6840  157.7030  133.7360 C   0  0  0  0  0  0  0  0  0  0  0  0
  151.0634  160.1063  129.7780 H   0  0  0  0  0  0  0  0  0  0  0  0
  150.0748  159.2099  128.5756 H   0  0  0  0  0  0  0  0  0  0  0  0
  150.0780  161.0062  128.5756 H   0  0  0  0  0  0  0  0  0  0  0  0
  148.8421  161.3680  131.8330 H   0  0  0  0  0  0  0  0  0  0  0  0
  149.6650  162.0899  130.4087 H   0  0  0  0  0  0  0  0  0  0  0  0
  147.8798  161.8899  130.4087 H   0  0  0  0  0  0  0  0  0  0  0  0
  148.4416  158.2823  131.0586 H   0  0  0  0  0  0  0  0  0  0  0  0
  150.1937  158.7051  131.1493 H   0  0  0  0  0  0  0  0  0  0  0  0
  149.9278  160.0146  133.0062 H   0  0  0  0  0  0  0  0  0  0  0  0
  148.2849  160.5889  132.4686 H   0  0  0  0  0  0  0  0  0  0  0  0
  149.0155  158.0239  133.9287 H   0  0  0  0  0  0  0  0  0  0  0  0
  147.8741  159.3647  134.4138 H   0  0  0  0  0  0  0  0  0  0  0  0
  147.1491  158.0453  131.8815 H   0  0  0  0  0  0  0  0  0  0  0  0
  147.1300  156.9519  133.3325 H   0  0  0  0  0  0  0  0  0  0  0  0
  146.3882  160.6356  133.1440 H   0  0  0  0  0  0  0  0  0  0  0  0
  144.1436  161.5994  133.7519 H   0  0  0  0  0  0  0  0  0  0  0  0
  141.4794  160.8706  134.4897 H   0  0  0  0  0  0  0  0  0  0  0  0
  139.3830  158.9810  136.8430 H   0  0  0  0  0  0  0  0  0  0  0  0
  144.8261  156.6126  133.7630 H   0  0  0  0  0  0  0  0  0  0  0  0
  1  2  1  0
  2  3  1  0
  2  4  1  0
  4  5  1  0
  5  6  1  0
  6  7  1  0
  7  8  1  0
  8  9  2  0
  9 10  1  0
 10 11  2  0
 11 12  1  0
 12 13  2  0
 13 14  1  0
 14 15  1  0
 14 16  2  0
 13 17  1  0
 17 18  1  0
 18 19  2  0
 18 20  1  0
 17 21  1  0
 21 22  2  0
 22  8  1  0
 21 11  1  0
  1 23  1  0
  1 24  1  0
  1 25  1  0
  3 26  1  0
  3 27  1  0
  3 28  1  0
  4 29  1  0
  4 30  1  0
  5 31  1  0
  5 32  1  0
  6 33  1  0
  6 34  1  0
  7 35  1  0
  7 36  1  0
  9 37  1  0
 10 38  1  0
 12 39  1  0
 15 40  1  0
 22 41  1  0
M  CHG  2  15  -1  20  -1
M  END
>  <UniqueID>  (66) 
66

>  <SMILES>  (66) 
CN(C)CCCCc1ccc2cc(C([NH-])=O)n(C(=O)[O-])c2c1

>  <Energy>  (66) 
75.78871227443052

>  <Genealogy>  (66) 
CN(C)CCCCc1ccc2cc(C([NH-])=O)n(C(=O)[O-])c2c1 (protonated)
CN(C)CCCCc1ccc2cc(C([NH-])=O)n(C(=O)[O-])c2c1 (3D coordinates assigned)
CN(C)CCCCc1ccc2cc(C([NH-])=O)n(C(=O)[O-])c2c1 (optimized conformer: 75.78871227443052 kcal/mol)

>  <smiles>  (66) 
CN(C)CCCCc1ccc2cc(C(N)=O)n(C(=O)O)c2c1

>  <score_type>  (66) 
oracle

>  <origin>  (66) 
adg

>  <m_score__min__energy>  (66) 
-6.9699999999999998

>  <m_primary>  (66) 
energy

$$$$
66:0
     RDKit          3D

 47 49  0  0  0  0  0  0  0  0999 V2000
  138.9820  159.8850  132.0180 C   0  0  0  0  0  0  0  0  0  0  0  0
  139.8960  158.7540  132.3530 C   0  0  0  0  0  0  0  0  0  0  0  0
  141.2410  158.8540  132.3240 N   0  0  0  0  0  0  0  0  0  0  0  0
  141.6420  157.6310  132.7260 C   0  0  0  0  0  0  0  0  0  0  0  0
  143.0680  157.2500  132.9620 C   0  0  0  0  0  0  0  0  0  0  0  0
  143.7000  158.2160  133.9150 C   0  0  0  0  0  0  0  0  0  0  0  0
  143.0820  158.5750  134.9530 O   0  0  0  0  0  0  0  0  0  0  0  0
  144.9700  158.8040  133.6070 N   0  0  0  0  0  0  0  0  0  0  0  0
  145.2950  160.1260  133.5980 C   0  0  0  0  0  0  0  0  0  0  0  0
  144.3470  161.2360  133.8630 C   0  0  0  0  0  0  0  0  0  0  0  0
  142.9350  161.0550  133.7330 N   0  0  0  0  0  0  0  0  0  0  0  0
  144.7850  162.3700  134.1980 O   0  0  0  0  0  0  0  0  0  0  0  0
  146.6530  160.2830  133.3100 C   0  0  0  0  0  0  0  0  0  0  0  0
  147.1440  159.0050  133.1430 C   0  0  0  0  0  0  0  0  0  0  0  0
  148.4390  158.5640  132.8810 C   0  0  0  0  0  0  0  0  0  0  0  0
  148.6610  157.1760  132.8080 C   0  0  0  0  0  0  0  0  0  0  0  0
  147.5900  156.2700  132.9930 C   0  0  0  0  0  0  0  0  0  0  0  0
  147.8310  154.8530  132.9700 C   0  0  0  0  0  0  0  0  0  0  0  0
  148.0230  153.6630  132.9670 C   0  0  0  0  0  0  0  0  0  0  0  0
  148.2530  152.2070  132.9540 C   0  0  0  0  0  0  0  0  0  0  0  0
  149.6210  151.8310  133.3740 N   0  0  0  0  0  0  0  0  0  0  0  0
  149.6230  151.0650  134.6320 C   0  0  0  0  0  0  0  0  0  0  0  0
  150.3480  151.1090  132.3170 C   0  0  0  0  0  0  0  0  0  0  0  0
  146.2890  156.7500  133.2420 C   0  0  0  0  0  0  0  0  0  0  0  0
  146.1040  158.1340  133.3200 C   0  0  0  0  0  0  0  0  0  0  0  0
  140.5400  156.8510  133.0010 C   0  0  0  0  0  0  0  0  0  0  0  0
  139.4770  157.5740  132.7580 O   0  0  0  0  0  0  0  0  0  0  0  0
  138.6111  160.3440  132.9463 H   0  0  0  0  0  0  0  0  0  0  0  0
  139.5291  160.6369  131.4304 H   0  0  0  0  0  0  0  0  0  0  0  0
  138.1320  159.5078  131.4304 H   0  0  0  0  0  0  0  0  0  0  0  0
  143.1095  156.2367  133.3880 H   0  0  0  0  0  0  0  0  0  0  0  0
  143.6129  157.2731  132.0068 H   0  0  0  0  0  0  0  0  0  0  0  0
  142.2900  161.8630  133.8840 H   0  0  0  0  0  0  0  0  0  0  0  0
  142.5140  160.1250  133.5240 H   0  0  0  0  0  0  0  0  0  0  0  0
  147.2126  161.2268  133.2327 H   0  0  0  0  0  0  0  0  0  0  0  0
  149.2627  159.2784  132.7356 H   0  0  0  0  0  0  0  0  0  0  0  0
  149.6724  156.7936  132.6061 H   0  0  0  0  0  0  0  0  0  0  0  0
  147.5341  151.7330  133.6385 H   0  0  0  0  0  0  0  0  0  0  0  0
  148.1227  151.8639  131.9170 H   0  0  0  0  0  0  0  0  0  0  0  0
  149.6212  151.7601  135.4845 H   0  0  0  0  0  0  0  0  0  0  0  0
  148.7265  150.4291  134.6755 H   0  0  0  0  0  0  0  0  0  0  0  0
  150.5228  150.4338  134.6755 H   0  0  0  0  0  0  0  0  0  0  0  0
  151.0575  150.4044  132.7756 H   0  0  0  0  0  0  0  0  0  0  0  0
  149.6320  150.5542  131.6928 H   0  0  0  0  0  0  0  0  0  0  0  0
  150.8978  151.8288  131.6928 H   0  0  0  0  0  0  0  0  0  0  0  0
  145.4444  156.0572  133.3711 H   0  0  0  0  0  0  0  0  0  0  0  0
  140.5518  155.8110  133.3592 H   0  0  0  0  0  0  0  0  0  0  0  0
  1  2  1  0
  2  3  2  0
  3  4  1  0
  4  5  1  0
  5  6  1  0
  6  7  2  0
  6  8  1  0
  8  9  1  0
  9 10  1  0
 10 11  1  0
 10 12  2  0
  9 13  2  0
 13 14  1  0
 14 15  2  0
 15 16  1  0
 16 17  2  0
 17 18  1  0
 18 19  3  0
 19 20  1  0
 20 21  1  0
 21 22  1  0
 21 23  1  0
 17 24  1  0
 24 25  2  0
  4 26  2  0
 26 27  1  0
 27  2  1  0
 25  8  1  0
 25 14  1  0
  1 28  1  0
  1 29  1  0
  1 30  1  0
  5 31  1  0
  5 32  1  0
 11 33  1  0
 11 34  1  0
 13 35  1  0
 15 36  1  0
 16 37  1  0
 20 38  1  0
 20 39  1  0
 22 40  1  0
 22 41  1  0
 22 42  1  0
 23 43  1  0
 23 44  1  0
 23 45  1  0
 24 46  1  0
 26 47  1  0
M  END
>  <UniqueID>  (67) 
67

>  <SMILES>  (67) 
Cc1nc(CC(=O)n2c(C(N)=O)cc3ccc(C#CCN(C)C)cc32)co1

>  <Energy>  (67) 
110.64491308222725

>  <Genealogy>  (67) 
Cc1nc(CC(=O)n2c(C(N)=O)cc3ccc(C#CCN(C)C)cc32)co1 (3D coordinates assigned)
Cc1nc(CC(=O)n2c(C(N)=O)cc3ccc(C#CCN(C)C)cc32)co1 (optimized conformer: 110.64491308222725 kcal/mol)

>  <smiles>  (67) 
Cc1nc(CC(=O)n2c(C(N)=O)cc3ccc(C#CCN(C)C)cc32)co1

>  <score_type>  (67) 
oracle

>  <origin>  (67) 
adg

>  <m_score__min__energy>  (67) 
-8.5

>  <m_primary>  (67) 
energy

$$$$
67:0
     RDKit          3D

 29 30  0  0  0  0  0  0  0  0999 V2000
  149.6110  152.3140  132.2170 C   0  0  0  0  0  0  0  0  0  0  0  0
  148.6450  153.2630  132.6530 O   0  0  0  0  0  0  0  0  0  0  0  0
  148.8680  154.6420  132.6070 C   0  0  0  0  0  0  0  0  0  0  0  0
  149.9870  155.0920  132.2370 O   0  0  0  0  0  0  0  0  0  0  0  0
  147.8220  155.5490  132.9950 N   0  0  0  0  0  0  0  0  0  0  0  0
  146.6860  155.2530  133.6890 C   0  0  0  0  0  0  0  0  0  0  0  0
  146.2260  153.8920  134.0430 C   0  0  0  0  0  0  0  0  0  0  0  0
  146.2730  152.8340  133.0840 N   0  0  0  0  0  0  0  0  0  0  0  0
  145.8180  153.6460  135.2090 O   0  0  0  0  0  0  0  0  0  0  0  0
  145.9550  156.4120  133.9440 C   0  0  0  0  0  0  0  0  0  0  0  0
  146.6810  157.4340  133.3770 C   0  0  0  0  0  0  0  0  0  0  0  0
  146.4220  158.8010  133.3420 C   0  0  0  0  0  0  0  0  0  0  0  0
  147.3620  159.6330  132.7100 C   0  0  0  0  0  0  0  0  0  0  0  0
  148.5370  159.0880  132.1350 C   0  0  0  0  0  0  0  0  0  0  0  0
  149.5470  159.9830  131.4760 C   0  0  0  0  0  0  0  0  0  0  0  0
  148.9720  161.2110  131.1970 F   0  0  0  0  0  0  0  0  0  0  0  0
  149.9820  159.4060  130.2970 F   0  0  0  0  0  0  0  0  0  0  0  0
  148.7660  157.6960  132.1920 C   0  0  0  0  0  0  0  0  0  0  0  0
  147.8040  156.8880  132.8110 C   0  0  0  0  0  0  0  0  0  0  0  0
  150.0867  151.8467  133.0918 H   0  0  0  0  0  0  0  0  0  0  0  0
  149.1172  151.5401  131.6110 H   0  0  0  0  0  0  0  0  0  0  0  0
  150.3760  152.8215  131.6110 H   0  0  0  0  0  0  0  0  0  0  0  0
  145.9830  151.8690  133.3560 H   0  0  0  0  0  0  0  0  0  0  0  0
  146.5550  153.0100  132.0950 H   0  0  0  0  0  0  0  0  0  0  0  0
  145.0001  156.4925  134.4841 H   0  0  0  0  0  0  0  0  0  0  0  0
  145.5100  159.2172  133.7948 H   0  0  0  0  0  0  0  0  0  0  0  0
  147.1840  160.7174  132.6612 H   0  0  0  0  0  0  0  0  0  0  0  0
  150.4008  160.1223  132.1554 H   0  0  0  0  0  0  0  0  0  0  0  0
  149.6777  157.2568  131.7608 H   0  0  0  0  0  0  0  0  0  0  0  0
  1  2  1  0
  2  3  1  0
  3  4  2  0
  3  5  1  0
  5  6  1  0
  6  7  1  0
  7  8  1  0
  7  9  2  0
  6 10  2  0
 10 11  1  0
 11 12  2  0
 12 13  1  0
 13 14  2  0
 14 15  1  0
 15 16  1  0
 15 17  1  0
 14 18  1  0
 18 19  2  0
 19  5  1  0
 19 11  1  0
  1 20  1  0
  1 21  1  0
  1 22  1  0
  8 23  1  0
  8 24  1  0
 10 25  1  0
 12 26  1  0
 13 27  1  0
 15 28  1  0
 18 29  1  0
M  END
>  <UniqueID>  (68) 
68

>  <SMILES>  (68) 
COC(=O)n1c(C(N)=O)cc2ccc(C(F)F)cc21

>  <Energy>  (68) 
65.51224630427626

>  <Genealogy>  (68) 
COC(=O)n1c(C(N)=O)cc2ccc(C(F)F)cc21 (3D coordinates assigned)
COC(=O)n1c(C(N)=O)cc2ccc(C(F)F)cc21 (optimized conformer: 65.51224630427626 kcal/mol)

>  <smiles>  (68) 
COC(=O)n1c(C(N)=O)cc2ccc(C(F)F)cc21

>  <score_type>  (68) 
oracle

>  <origin>  (68) 
adg

>  <m_score__min__energy>  (68) 
-5.6399999999999997

>  <m_primary>  (68) 
energy

$$$$
68:0
     RDKit          3D

 37 38  0  0  0  0  0  0  0  0999 V2000
  142.7990  156.2980  135.4040 C   0  0  0  0  0  0  0  0  0  0  0  0
  143.6210  156.2970  134.1900 N   0  0  0  0  0  0  0  0  0  0  0  0
  144.7340  155.3430  134.0630 C   0  0  0  0  0  0  0  0  0  0  0  0
  144.9570  154.5750  135.3710 C   0  0  0  0  0  0  0  0  0  0  0  0
  146.4090  154.4920  135.7320 C   0  0  0  0  0  0  0  0  0  0  0  0
  147.1980  155.4190  135.4120 O   0  0  0  0  0  0  0  0  0  0  0  0
  146.8900  153.3910  136.4290 O   0  0  0  0  0  0  0  0  0  0  0  0
  143.4000  157.3050  133.1830 C   0  0  0  0  0  0  0  0  0  0  0  0
  142.6000  157.0890  132.2320 O   0  0  0  0  0  0  0  0  0  0  0  0
  144.0970  158.5590  133.2340 N   0  0  0  0  0  0  0  0  0  0  0  0
  143.5700  159.7960  133.4500 C   0  0  0  0  0  0  0  0  0  0  0  0
  142.1300  160.1160  133.5440 C   0  0  0  0  0  0  0  0  0  0  0  0
  141.2040  159.6280  132.5780 N   0  0  0  0  0  0  0  0  0  0  0  0
  141.7140  160.8510  134.4790 O   0  0  0  0  0  0  0  0  0  0  0  0
  144.5850  160.7480  133.5350 C   0  0  0  0  0  0  0  0  0  0  0  0
  145.7590  160.0460  133.3690 C   0  0  0  0  0  0  0  0  0  0  0  0
  147.0790  160.4870  133.3810 C   0  0  0  0  0  0  0  0  0  0  0  0
  148.0940  159.5300  133.2100 C   0  0  0  0  0  0  0  0  0  0  0  0
  147.7740  158.1590  133.0350 C   0  0  0  0  0  0  0  0  0  0  0  0
  148.8590  157.1380  132.8540 C   0  0  0  0  0  0  0  0  0  0  0  0
  149.7350  157.5590  131.8700 F   0  0  0  0  0  0  0  0  0  0  0  0
  148.3030  155.9270  132.4830 F   0  0  0  0  0  0  0  0  0  0  0  0
  146.4220  157.7510  133.0320 C   0  0  0  0  0  0  0  0  0  0  0  0
  145.4340  158.7270  133.1930 C   0  0  0  0  0  0  0  0  0  0  0  0
  143.4522  156.2972  136.2891 H   0  0  0  0  0  0  0  0  0  0  0  0
  142.1651  157.1969  135.4169 H   0  0  0  0  0  0  0  0  0  0  0  0
  142.1629  155.4006  135.4169 H   0  0  0  0  0  0  0  0  0  0  0  0
  144.5028  154.6265  133.2610 H   0  0  0  0  0  0  0  0  0  0  0  0
  145.6499  155.9051  133.8283 H   0  0  0  0  0  0  0  0  0  0  0  0
  144.4184  155.0888  136.1809 H   0  0  0  0  0  0  0  0  0  0  0  0
  144.5821  153.5503  135.2318 H   0  0  0  0  0  0  0  0  0  0  0  0
  141.4990  158.9420  131.8480 H   0  0  0  0  0  0  0  0  0  0  0  0
  144.4725  161.8298  133.6996 H   0  0  0  0  0  0  0  0  0  0  0  0
  147.3203  161.5512  133.5199 H   0  0  0  0  0  0  0  0  0  0  0  0
  149.1472  159.8473  133.2119 H   0  0  0  0  0  0  0  0  0  0  0  0
  149.4020  157.0174  133.8030 H   0  0  0  0  0  0  0  0  0  0  0  0
  146.1530  156.6919  132.9061 H   0  0  0  0  0  0  0  0  0  0  0  0
  1  2  1  0
  2  3  1  0
  3  4  1  0
  4  5  1  0
  5  6  2  0
  5  7  1  0
  2  8  1  0
  8  9  2  0
  8 10  1  0
 10 11  1  0
 11 12  1  0
 12 13  1  0
 12 14  2  0
 11 15  2  0
 15 16  1  0
 16 17  2  0
 17 18  1  0
 18 19  2  0
 19 20  1  0
 20 21  1  0
 20 22  1  0
 19 23  1  0
 23 24  2  0
 24 10  1  0
 24 16  1  0
  1 25  1  0
  1 26  1  0
  1 27  1  0
  3 28  1  0
  3 29  1  0
  4 30  1  0
  4 31  1  0
 13 32  1  0
 15 33  1  0
 17 34  1  0
 18 35  1  0
 20 36  1  0
 23 37  1  0
M  CHG  2   7  -1  13  -1
M  END
>  <UniqueID>  (69) 
69

>  <SMILES>  (69) 
CN(CCC(=O)[O-])C(=O)n1c(C([NH-])=O)cc2ccc(C(F)F)cc21

>  <Energy>  (69) 
71.53715339624132

>  <Genealogy>  (69) 
CN(CCC(=O)[O-])C(=O)n1c(C([NH-])=O)cc2ccc(C(F)F)cc21 (protonated)
CN(CCC(=O)[O-])C(=O)n1c(C([NH-])=O)cc2ccc(C(F)F)cc21 (3D coordinates assigned)
CN(CCC(=O)[O-])C(=O)n1c(C([NH-])=O)cc2ccc(C(F)F)cc21 (optimized conformer: 71.53715339624132 kcal/mol)

>  <smiles>  (69) 
CN(CCC(=O)O)C(=O)n1c(C(N)=O)cc2ccc(C(F)F)cc21

>  <score_type>  (69) 
oracle

>  <origin>  (69) 
adg

>  <m_score__min__energy>  (69) 
-6.1100000000000003

>  <m_primary>  (69) 
energy

$$$$
69:0
     RDKit          3D

 59 60  0  0  0  0  0  0  0  0999 V2000
  137.9700  160.0030  130.8730 C   0  0  0  0  0  0  0  0  0  0  0  0
  138.9920  160.4200  131.7700 O   0  0  0  0  0  0  0  0  0  0  0  0
  139.8160  159.5140  132.4480 C   0  0  0  0  0  0  0  0  0  0  0  0
  140.7820  159.9220  133.1490 O   0  0  0  0  0  0  0  0  0  0  0  0
  139.5130  158.0500  132.3750 C   0  0  0  0  0  0  0  0  0  0  0  0
  139.2230  157.4750  133.7660 C   0  0  0  0  0  0  0  0  0  0  0  0
  140.4340  157.4830  134.6030 N   0  0  0  0  0  0  0  0  0  0  0  0
  140.4580  158.2280  135.8630 C   0  0  0  0  0  0  0  0  0  0  0  0
  141.6190  156.7820  134.1800 C   0  0  0  0  0  0  0  0  0  0  0  0
  142.4650  157.3530  133.4390 O   0  0  0  0  0  0  0  0  0  0  0  0
  141.8350  155.4680  134.6060 O   0  0  0  0  0  0  0  0  0  0  0  0
  141.9160  154.3700  133.7020 C   0  0  0  0  0  0  0  0  0  0  0  0
  143.3600  153.8600  133.6210 C   0  0  1  0  0  0  0  0  0  0  0  0
  143.4620  152.7130  132.6170 C   0  0  0  0  0  0  0  0  0  0  0  0
  144.2310  154.9130  133.2040 O   0  0  0  0  0  0  0  0  0  0  0  0
  145.1380  155.5590  134.0540 C   0  0  0  0  0  0  0  0  0  0  0  0
  144.9680  155.5380  135.3020 O   0  0  0  0  0  0  0  0  0  0  0  0
  146.2800  156.2300  133.4980 N   0  0  0  0  0  0  0  0  0  0  0  0
  147.4550  155.6650  133.1040 C   0  0  0  0  0  0  0  0  0  0  0  0
  147.7210  154.2170  132.9980 C   0  0  0  0  0  0  0  0  0  0  0  0
  146.7700  153.2610  133.4670 N   0  0  0  0  0  0  0  0  0  0  0  0
  148.7790  153.8160  132.4440 O   0  0  0  0  0  0  0  0  0  0  0  0
  148.3810  156.6440  132.7540 C   0  0  0  0  0  0  0  0  0  0  0  0
  147.7270  157.8410  132.9360 C   0  0  0  0  0  0  0  0  0  0  0  0
  148.1850  159.1460  132.7670 C   0  0  0  0  0  0  0  0  0  0  0  0
  147.3100  160.1980  133.0830 C   0  0  0  0  0  0  0  0  0  0  0  0
  146.0010  159.9290  133.5570 C   0  0  0  0  0  0  0  0  0  0  0  0
  145.0890  161.0620  133.9430 C   0  0  0  0  0  0  0  0  0  0  0  0
  143.6230  160.6710  133.7350 C   0  0  0  0  0  0  0  0  0  0  0  0
  143.1930  159.8380  134.7770 O   0  0  0  0  0  0  0  0  0  0  0  0
  145.5750  158.5930  133.7280 C   0  0  0  0  0  0  0  0  0  0  0  0
  146.4610  157.5640  133.3880 C   0  0  0  0  0  0  0  0  0  0  0  0
  137.1009  159.6484  131.4466 H   0  0  0  0  0  0  0  0  0  0  0  0
  137.6700  160.8506  130.2393 H   0  0  0  0  0  0  0  0  0  0  0  0
  138.3486  159.1875  130.2393 H   0  0  0  0  0  0  0  0  0  0  0  0
  138.6332  157.8971  131.7328 H   0  0  0  0  0  0  0  0  0  0  0  0
  140.3904  157.5325  131.9597 H   0  0  0  0  0  0  0  0  0  0  0  0
  138.4459  158.0833  134.2519 H   0  0  0  0  0  0  0  0  0  0  0  0
  138.8829  156.4352  133.6515 H   0  0  0  0  0  0  0  0  0  0  0  0
  140.4353  157.5224  136.7066 H   0  0  0  0  0  0  0  0  0  0  0  0
  141.3760  158.8318  135.9146 H   0  0  0  0  0  0  0  0  0  0  0  0
  139.5807  158.8896  135.9146 H   0  0  0  0  0  0  0  0  0  0  0  0
  141.2628  153.5586  134.0555 H   0  0  0  0  0  0  0  0  0  0  0  0
  141.5944  154.7010  132.7035 H   0  0  0  0  0  0  0  0  0  0  0  0
  143.6554  153.5049  134.6193 H   0  0  0  0  0  0  0  0  0  0  0  0
  143.5469  151.7588  133.1577 H   0  0  0  0  0  0  0  0  0  0  0  0
  142.5617  152.6976  131.9852 H   0  0  0  0  0  0  0  0  0  0  0  0
  144.3509  152.8567  131.9852 H   0  0  0  0  0  0  0  0  0  0  0  0
  146.9970  152.2420  133.4440 H   0  0  0  0  0  0  0  0  0  0  0  0
  145.8190  153.5580  133.7790 H   0  0  0  0  0  0  0  0  0  0  0  0
  149.4137  156.4930  132.4066 H   0  0  0  0  0  0  0  0  0  0  0  0
  149.2014  159.3462  132.3972 H   0  0  0  0  0  0  0  0  0  0  0  0
  147.6429  161.2394  132.9618 H   0  0  0  0  0  0  0  0  0  0  0  0
  145.2498  161.3102  135.0025 H   0  0  0  0  0  0  0  0  0  0  0  0
  145.3168  161.9314  133.3088 H   0  0  0  0  0  0  0  0  0  0  0  0
  143.0034  161.5797  133.7167 H   0  0  0  0  0  0  0  0  0  0  0  0
  143.5265  160.1322  132.7809 H   0  0  0  0  0  0  0  0  0  0  0  0
  142.4540  159.2830  134.4080 H   0  0  0  0  0  0  0  0  0  0  0  0
  144.5719  158.3669  134.1186 H   0  0  0  0  0  0  0  0  0  0  0  0
  1  2  1  0
  2  3  1  0
  3  4  2  0
  3  5  1  0
  5  6  1  0
  6  7  1  0
  7  8  1  0
  7  9  1  0
  9 10  2  0
  9 11  1  0
 11 12  1  0
 12 13  1  0
 13 14  1  0
 13 15  1  0
 15 16  1  0
 16 17  2  0
 16 18  1  0
 18 19  1  0
 19 20  1  0
 20 21  1  0
 20 22  2  0
 19 23  2  0
 23 24  1  0
 24 25  2  0
 25 26  1  0
 26 27  2  0
 27 28  1  0
 28 29  1  0
 29 30  1  0
 27 31  1  0
 31 32  2  0
 32 18  1  0
 32 24  1  0
  1 33  1  0
  1 34  1  0
  1 35  1  0
  5 36  1  0
  5 37  1  0
  6 38  1  0
  6 39  1  0
  8 40  1  0
  8 41  1  0
  8 42  1  0
 12 43  1  0
 12 44  1  0
 13 45  1  1
 14 46  1  0
 14 47  1  0
 14 48  1  0
 21 49  1  0
 21 50  1  0
 23 51  1  0
 25 52  1  0
 26 53  1  0
 28 54  1  0
 28 55  1  0
 29 56  1  0
 29 57  1  0
 30 58  1  0
 31 59  1  0
M  END
>  <UniqueID>  (70) 
70

>  <SMILES>  (70) 
COC(=O)CCN(C)C(=O)OC[C@@H](C)OC(=O)n1c(C(N)=O)cc2ccc(CCO)cc21

>  <Energy>  (70) 
76.33945572478476

>  <Genealogy>  (70) 
COC(=O)CCN(C)C(=O)OC[C@@H](C)OC(=O)n1c(C(N)=O)cc2ccc(CCO)cc21 (chirality)
COC(=O)CCN(C)C(=O)OC[C@@H](C)OC(=O)n1c(C(N)=O)cc2ccc(CCO)cc21 (3D coordinates assigned)
COC(=O)CCN(C)C(=O)OC[C@@H](C)OC(=O)n1c(C(N)=O)cc2ccc(CCO)cc21 (optimized conformer: 76.33945572478476 kcal/mol)

>  <smiles>  (70) 
COC(=O)CCN(C)C(=O)OCC(C)OC(=O)n1c(C(N)=O)cc2ccc(CCO)cc21

>  <score_type>  (70) 
oracle

>  <origin>  (70) 
adg

>  <m_score__min__energy>  (70) 
-6.4199999999999999

>  <m_primary>  (70) 
energy

$$$$
70:0
     RDKit          3D

 41 42  0  0  0  0  0  0  0  0999 V2000
  148.0070  160.2100  132.2950 C   0  0  0  0  0  0  0  0  0  0  0  0
  147.2040  159.2060  133.0050 N   0  0  0  0  0  0  0  0  0  0  0  0
  147.8400  157.9540  133.4530 C   0  0  0  0  0  0  0  0  0  0  0  0
  147.4990  156.7410  132.5530 C   0  0  0  0  0  0  0  0  0  0  0  0
  146.3810  155.8770  133.0140 N   0  0  0  0  0  0  0  0  0  0  0  0
  146.5460  154.4660  132.6260 C   0  0  0  0  0  0  0  0  0  0  0  0
  146.1090  155.9990  134.4580 C   0  0  0  0  0  0  0  0  0  0  0  0
  145.8400  159.5290  133.3690 C   0  0  0  0  0  0  0  0  0  0  0  0
  145.4780  160.8540  133.7340 C   0  0  0  0  0  0  0  0  0  0  0  0
  144.1620  161.1650  134.1080 C   0  0  0  0  0  0  0  0  0  0  0  0
  143.2210  160.1420  134.0990 C   0  0  0  0  0  0  0  0  0  0  0  0
  141.8900  160.1620  134.4440 C   0  0  0  0  0  0  0  0  0  0  0  0
  141.4410  158.8560  134.2600 C   0  0  0  0  0  0  0  0  0  0  0  0
  140.0310  158.4500  134.4390 C   0  0  0  0  0  0  0  0  0  0  0  0
  139.4980  158.1980  135.7360 N   0  0  0  0  0  0  0  0  0  0  0  0
  139.2990  158.2760  133.4280 O   0  0  0  0  0  0  0  0  0  0  0  0
  142.4570  158.0580  133.8250 N   0  0  0  0  0  0  0  0  0  0  0  0
  142.4310  156.6390  133.6000 C   0  0  0  0  0  0  0  0  0  0  0  0
  141.4890  155.9400  134.0580 O   0  0  0  0  0  0  0  0  0  0  0  0
  143.4580  156.0210  132.8970 O   0  0  0  0  0  0  0  0  0  0  0  0
  143.5390  158.8620  133.7280 C   0  0  0  0  0  0  0  0  0  0  0  0
  144.8470  158.5200  133.3680 C   0  0  0  0  0  0  0  0  0  0  0  0
  148.5206  160.8522  133.0256 H   0  0  0  0  0  0  0  0  0  0  0  0
  148.7523  159.7039  131.6638 H   0  0  0  0  0  0  0  0  0  0  0  0
  147.3495  160.8259  131.6638 H   0  0  0  0  0  0  0  0  0  0  0  0
  148.9308  158.0956  133.4505 H   0  0  0  0  0  0  0  0  0  0  0  0
  147.4545  157.7332  134.4593 H   0  0  0  0  0  0  0  0  0  0  0  0
  147.2372  157.1255  131.5562 H   0  0  0  0  0  0  0  0  0  0  0  0
  148.3931  156.1005  132.5702 H   0  0  0  0  0  0  0  0  0  0  0  0
  145.5240  156.2200  132.5180 H   0  0  0  0  0  0  0  0  0  0  0  0
  146.6188  153.8433  133.5298 H   0  0  0  0  0  0  0  0  0  0  0  0
  145.6792  154.1461  132.0292 H   0  0  0  0  0  0  0  0  0  0  0  0
  147.4633  154.3547  132.0292 H   0  0  0  0  0  0  0  0  0  0  0  0
  146.9681  155.6137  135.0268 H   0  0  0  0  0  0  0  0  0  0  0  0
  145.9455  157.0566  134.7122 H   0  0  0  0  0  0  0  0  0  0  0  0
  145.2104  155.4177  134.7122 H   0  0  0  0  0  0  0  0  0  0  0  0
  146.2404  161.6469  133.7231 H   0  0  0  0  0  0  0  0  0  0  0  0
  143.8831  162.1883  134.3998 H   0  0  0  0  0  0  0  0  0  0  0  0
  141.3042  161.0258  134.7915 H   0  0  0  0  0  0  0  0  0  0  0  0
  139.1340  158.9780  136.3270 H   0  0  0  0  0  0  0  0  0  0  0  0
  145.0992  157.4862  133.0893 H   0  0  0  0  0  0  0  0  0  0  0  0
  1  2  1  0
  2  3  1  0
  3  4  1  0
  4  5  1  0
  5  6  1  0
  5  7  1  0
  2  8  1  0
  8  9  2  0
  9 10  1  0
 10 11  2  0
 11 12  1  0
 12 13  2  0
 13 14  1  0
 14 15  1  0
 14 16  2  0
 13 17  1  0
 17 18  1  0
 18 19  2  0
 18 20  1  0
 17 21  1  0
 21 22  2  0
 22  8  1  0
 21 11  1  0
  1 23  1  0
  1 24  1  0
  1 25  1  0
  3 26  1  0
  3 27  1  0
  4 28  1  0
  4 29  1  0
  5 30  1  0
  6 31  1  0
  6 32  1  0
  6 33  1  0
  7 34  1  0
  7 35  1  0
  7 36  1  0
  9 37  1  0
 10 38  1  0
 12 39  1  0
 15 40  1  0
 22 41  1  0
M  CHG  3   5   1  15  -1  20  -1
M  END
>  <UniqueID>  (71) 
71

>  <SMILES>  (71) 
CN(CC[NH+](C)C)c1ccc2cc(C([NH-])=O)n(C(=O)[O-])c2c1

>  <Energy>  (71) 
85.55985142312709

>  <Genealogy>  (71) 
CN(CC[NH+](C)C)c1ccc2cc(C([NH-])=O)n(C(=O)[O-])c2c1 (protonated)
CN(CC[NH+](C)C)c1ccc2cc(C([NH-])=O)n(C(=O)[O-])c2c1 (3D coordinates assigned)
CN(CC[NH+](C)C)c1ccc2cc(C([NH-])=O)n(C(=O)[O-])c2c1 (optimized conformer: 85.55985142312709 kcal/mol)

>  <smiles>  (71) 
CN(C)CCN(C)c1ccc2cc(C(N)=O)n(C(=O)O)c2c1

>  <score_type>  (71) 
oracle

>  <origin>  (71) 
adg

>  <m_score__min__energy>  (71) 
-5.1600000000000001

>  <m_primary>  (71) 
energy

$$$$
71:0
     RDKit          3D

 27 28  0  0  0  0  0  0  0  0999 V2000
  147.7760  152.6200  133.4820 N   0  0  0  0  0  0  0  0  0  0  0  0
  148.5930  153.6960  133.0170 C   0  0  0  0  0  0  0  0  0  0  0  0
  149.7560  153.4490  132.6010 O   0  0  0  0  0  0  0  0  0  0  0  0
  148.1210  155.0950  133.0600 C   0  0  0  0  0  0  0  0  0  0  0  0
  148.8730  156.1770  132.6070 C   0  0  0  0  0  0  0  0  0  0  0  0
  148.0850  157.2840  132.8240 C   0  0  0  0  0  0  0  0  0  0  0  0
  148.3220  158.6240  132.5290 C   0  0  0  0  0  0  0  0  0  0  0  0
  147.3030  159.5490  132.8090 C   0  0  0  0  0  0  0  0  0  0  0  0
  146.0700  159.1220  133.3630 C   0  0  0  0  0  0  0  0  0  0  0  0
  144.9850  160.1260  133.6300 C   0  0  0  0  0  0  0  0  0  0  0  0
  143.9340  159.5130  134.2890 F   0  0  0  0  0  0  0  0  0  0  0  0
  145.4810  161.1510  134.4140 F   0  0  0  0  0  0  0  0  0  0  0  0
  145.8630  157.7520  133.6410 C   0  0  0  0  0  0  0  0  0  0  0  0
  146.9060  156.8570  133.3780 C   0  0  0  0  0  0  0  0  0  0  0  0
  146.9170  155.5150  133.5370 N   0  0  0  0  0  0  0  0  0  0  0  0
  145.8150  154.6940  133.9570 C   0  0  0  0  0  0  0  0  0  0  0  0
  145.0190  154.2320  133.0950 O   0  0  0  0  0  0  0  0  0  0  0  0
  145.6190  154.3560  135.3740 C   0  0  0  0  0  0  0  0  0  0  0  0
  144.6370  154.8210  136.0110 O   0  0  0  0  0  0  0  0  0  0  0  0
  146.5310  153.5370  136.0270 O   0  0  0  0  0  0  0  0  0  0  0  0
  148.1070  151.6340  133.3890 H   0  0  0  0  0  0  0  0  0  0  0  0
  146.8940  152.7990  134.0110 H   0  0  0  0  0  0  0  0  0  0  0  0
  149.8818  156.1517  132.1691 H   0  0  0  0  0  0  0  0  0  0  0  0
  149.2774  158.9479  132.0904 H   0  0  0  0  0  0  0  0  0  0  0  0
  147.4633  160.6162  132.5961 H   0  0  0  0  0  0  0  0  0  0  0  0
  144.6295  160.5351  132.6728 H   0  0  0  0  0  0  0  0  0  0  0  0
  144.9066  157.3983  134.0535 H   0  0  0  0  0  0  0  0  0  0  0  0
  1  2  1  0
  2  3  2  0
  2  4  1  0
  4  5  2  0
  5  6  1  0
  6  7  2  0
  7  8  1  0
  8  9  2  0
  9 10  1  0
 10 11  1  0
 10 12  1  0
  9 13  1  0
 13 14  2  0
 14 15  1  0
 15 16  1  0
 16 17  2  0
 16 18  1  0
 18 19  2  0
 18 20  1  0
 15  4  1  0
 14  6  1  0
  1 21  1  0
  1 22  1  0
  5 23  1  0
  7 24  1  0
  8 25  1  0
 10 26  1  0
 13 27  1  0
M  CHG  1  20  -1
M  END
>  <UniqueID>  (72) 
72

>  <SMILES>  (72) 
NC(=O)c1cc2ccc(C(F)F)cc2n1C(=O)C(=O)[O-]

>  <Energy>  (72) 
67.32613287502484

>  <Genealogy>  (72) 
NC(=O)c1cc2ccc(C(F)F)cc2n1C(=O)C(=O)[O-] (protonated)
NC(=O)c1cc2ccc(C(F)F)cc2n1C(=O)C(=O)[O-] (3D coordinates assigned)
NC(=O)c1cc2ccc(C(F)F)cc2n1C(=O)C(=O)[O-] (optimized conformer: 67.32613287502484 kcal/mol)

>  <smiles>  (72) 
NC(=O)c1cc2ccc(C(F)F)cc2n1C(=O)C(=O)O

>  <score_type>  (72) 
oracle

>  <origin>  (72) 
adg

>  <m_score__min__energy>  (72) 
-5.6100000000000003

>  <m_primary>  (72) 
energy

$$$$
72:0
     RDKit          3D

 62 64  0  0  0  0  0  0  0  0999 V2000
  140.8590  159.2990  132.6950 C   0  0  0  0  0  0  0  0  0  0  0  0
  141.5870  159.8080  133.9530 C   0  0  0  0  0  0  0  0  0  0  0  0
  142.7440  158.8520  134.2780 C   0  0  0  0  0  0  0  0  0  0  0  0
  142.1590  161.2190  133.7180 C   0  0  0  0  0  0  0  0  0  0  0  0
  140.7040  159.8040  135.0850 O   0  0  0  0  0  0  0  0  0  0  0  0
  140.7990  158.9750  136.2140 C   0  0  0  0  0  0  0  0  0  0  0  0
  141.3810  159.3780  137.2580 O   0  0  0  0  0  0  0  0  0  0  0  0
  140.2330  157.6510  136.1730 N   0  0  0  0  0  0  0  0  0  0  0  0
  139.6770  157.1120  134.9440 C   0  0  0  0  0  0  0  0  0  0  0  0
  140.7510  156.3070  134.2050 C   0  0  0  0  0  0  0  0  0  0  0  0
  141.7200  155.5990  135.0820 N   0  0  0  0  0  0  0  0  0  0  0  0
  142.7650  154.7900  134.4530 C   0  0  0  0  0  0  0  0  0  0  0  0
  142.4430  153.7710  133.5040 C   0  0  0  0  0  0  0  0  0  0  0  0
  143.4440  153.0050  132.8840 C   0  0  0  0  0  0  0  0  0  0  0  0
  144.7670  153.2710  133.2040 C   0  0  0  0  0  0  0  0  0  0  0  0
  145.9230  152.6860  132.7450 C   0  0  0  0  0  0  0  0  0  0  0  0
  146.9590  153.3630  133.3830 C   0  0  0  0  0  0  0  0  0  0  0  0
  148.3860  153.1210  133.0850 C   0  0  0  0  0  0  0  0  0  0  0  0
  148.9600  151.8260  133.2450 N   0  0  0  0  0  0  0  0  0  0  0  0
  149.1220  154.0820  132.7370 O   0  0  0  0  0  0  0  0  0  0  0  0
  146.4620  154.3200  134.2190 N   0  0  0  0  0  0  0  0  0  0  0  0
  147.1910  155.1930  135.0990 C   0  0  0  0  0  0  0  0  0  0  0  0
  147.4030  156.3920  134.7690 O   0  0  0  0  0  0  0  0  0  0  0  0
  147.6990  154.6950  136.3010 O   0  0  0  0  0  0  0  0  0  0  0  0
  147.0590  153.6750  137.0600 C   0  0  0  0  0  0  0  0  0  0  0  0
  148.0870  152.9900  137.9550 C   0  0  0  0  0  0  0  0  0  0  0  0
  147.5720  152.9160  139.2410 F   0  0  0  0  0  0  0  0  0  0  0  0
  149.2420  153.7620  137.9640 F   0  0  0  0  0  0  0  0  0  0  0  0
  148.3410  151.6900  137.4520 O   0  0  0  0  0  0  0  0  0  0  0  0
  149.2430  151.7420  136.3630 C   0  0  0  0  0  0  0  0  0  0  0  0
  149.2760  150.4940  135.7320 O   0  0  0  0  0  0  0  0  0  0  0  0
  145.1160  154.2500  134.0930 C   0  0  0  0  0  0  0  0  0  0  0  0
  144.1400  155.0070  134.7520 C   0  0  0  0  0  0  0  0  0  0  0  0
  141.7820  155.8160  136.5530 C   0  0  0  0  0  0  0  0  0  0  0  0
  140.6270  156.6320  137.1320 C   0  0  0  0  0  0  0  0  0  0  0  0
  139.9914  158.6924  132.9937 H   0  0  0  0  0  0  0  0  0  0  0  0
  140.5182  160.1566  132.0964 H   0  0  0  0  0  0  0  0  0  0  0  0
  141.5475  158.6844  132.0964 H   0  0  0  0  0  0  0  0  0  0  0  0
  142.8511  158.7635  135.3692 H   0  0  0  0  0  0  0  0  0  0  0  0
  142.5328  157.8615  133.8488 H   0  0  0  0  0  0  0  0  0  0  0  0
  143.6770  159.2462  133.8488 H   0  0  0  0  0  0  0  0  0  0  0  0
  142.3546  161.7014  134.6870 H   0  0  0  0  0  0  0  0  0  0  0  0
  143.0978  161.1441  133.1496 H   0  0  0  0  0  0  0  0  0  0  0  0
  141.4331  161.8189  133.1496 H   0  0  0  0  0  0  0  0  0  0  0  0
  138.8272  156.4558  135.1833 H   0  0  0  0  0  0  0  0  0  0  0  0
  139.3344  157.9386  134.3041 H   0  0  0  0  0  0  0  0  0  0  0  0
  140.2451  155.5566  133.5798 H   0  0  0  0  0  0  0  0  0  0  0  0
  141.3366  157.0356  133.6251 H   0  0  0  0  0  0  0  0  0  0  0  0
  141.3886  153.5825  133.2537 H   0  0  0  0  0  0  0  0  0  0  0  0
  143.1854  152.2150  132.1636 H   0  0  0  0  0  0  0  0  0  0  0  0
  146.0110  151.8583  132.0259 H   0  0  0  0  0  0  0  0  0  0  0  0
  148.4710  151.0870  133.7970 H   0  0  0  0  0  0  0  0  0  0  0  0
  146.2696  154.1213  137.6826 H   0  0  0  0  0  0  0  0  0  0  0  0
  146.6130  152.9351  136.3792 H   0  0  0  0  0  0  0  0  0  0  0  0
  148.9107  152.5077  135.6465 H   0  0  0  0  0  0  0  0  0  0  0  0
  150.2485  151.9976  136.7284 H   0  0  0  0  0  0  0  0  0  0  0  0
  148.6550  150.5560  134.9610 H   0  0  0  0  0  0  0  0  0  0  0  0
  144.4331  155.7634  135.4949 H   0  0  0  0  0  0  0  0  0  0  0  0
  141.7847  154.8316  137.0438 H   0  0  0  0  0  0  0  0  0  0  0  0
  142.6960  156.3986  136.7407 H   0  0  0  0  0  0  0  0  0  0  0  0
  139.7735  155.9685  137.3352 H   0  0  0  0  0  0  0  0  0  0  0  0
  140.9466  157.1108  138.0693 H   0  0  0  0  0  0  0  0  0  0  0  0
  1  2  1  0
  2  3  1  0
  2  4  1  0
  2  5  1  0
  5  6  1  0
  6  7  2  0
  6  8  1  0
  8  9  1  0
  9 10  1  0
 10 11  1  0
 11 12  1  0
 12 13  2  0
 13 14  1  0
 14 15  2  0
 15 16  1  0
 16 17  2  0
 17 18  1  0
 18 19  1  0
 18 20  2  0
 17 21  1  0
 21 22  1  0
 22 23  2  0
 22 24  1  0
 24 25  1  0
 25 26  1  0
 26 27  1  0
 26 28  1  0
 26 29  1  0
 29 30  1  0
 30 31  1  0
 21 32  1  0
 32 33  2  0
 11 34  1  0
 34 35  1  0
 35  8  1  0
 33 12  1  0
 32 15  1  0
  1 36  1  0
  1 37  1  0
  1 38  1  0
  3 39  1  0
  3 40  1  0
  3 41  1  0
  4 42  1  0
  4 43  1  0
  4 44  1  0
  9 45  1  0
  9 46  1  0
 10 47  1  0
 10 48  1  0
 13 49  1  0
 14 50  1  0
 16 51  1  0
 19 52  1  0
 25 53  1  0
 25 54  1  0
 30 55  1  0
 30 56  1  0
 31 57  1  0
 33 58  1  0
 34 59  1  0
 34 60  1  0
 35 61  1  0
 35 62  1  0
M  CHG  1  19  -1
M  END
>  <UniqueID>  (73) 
73

>  <SMILES>  (73) 
CC(C)(C)OC(=O)N1CCN(c2ccc3cc(C([NH-])=O)n(C(=O)OCC(F)(F)OCO)c3c2)CC1

>  <Energy>  (73) 
103.41477185214926

>  <Genealogy>  (73) 
CC(C)(C)OC(=O)N1CCN(c2ccc3cc(C([NH-])=O)n(C(=O)OCC(F)(F)OCO)c3c2)CC1 (protonated)
CC(C)(C)OC(=O)N1CCN(c2ccc3cc(C([NH-])=O)n(C(=O)OCC(F)(F)OCO)c3c2)CC1 (3D coordinates assigned)
CC(C)(C)OC(=O)N1CCN(c2ccc3cc(C([NH-])=O)n(C(=O)OCC(F)(F)OCO)c3c2)CC1 (nonaromatic ring conformer: 103.41477185214926 kcal/mol)

>  <smiles>  (73) 
CC(C)(C)OC(=O)N1CCN(c2ccc3cc(C(N)=O)n(C(=O)OCC(F)(F)OCO)c3c2)CC1

>  <score_type>  (73) 
oracle

>  <origin>  (73) 
adg

>  <m_score__min__energy>  (73) 
-7.0199999999999996

>  <m_primary>  (73) 
energy

$$$$
73:0
     RDKit          3D

 33 34  0  0  0  0  0  0  0  0999 V2000
  140.2280  159.3530  130.6370 C   0  0  0  0  0  0  0  0  0  0  0  0
  139.2900  160.0100  131.6510 C   0  0  1  0  0  0  0  0  0  0  0  0
  138.0410  159.2460  131.7380 C   0  0  0  0  0  0  0  0  0  0  0  0
  137.0550  158.6420  131.8070 N   0  0  0  0  0  0  0  0  0  0  0  0
  139.8980  160.0400  132.9410 O   0  0  0  0  0  0  0  0  0  0  0  0
  140.1020  158.9010  133.7270 C   0  0  0  0  0  0  0  0  0  0  0  0
  139.2860  158.6040  134.6420 O   0  0  0  0  0  0  0  0  0  0  0  0
  141.2480  158.0670  133.4910 N   0  0  0  0  0  0  0  0  0  0  0  0
  141.2680  156.7160  133.3080 C   0  0  0  0  0  0  0  0  0  0  0  0
  140.0870  155.8460  133.1570 C   0  0  0  0  0  0  0  0  0  0  0  0
  138.7720  156.3930  133.0470 N   0  0  0  0  0  0  0  0  0  0  0  0
  140.2440  154.5990  133.0690 O   0  0  0  0  0  0  0  0  0  0  0  0
  142.5780  156.2510  133.2330 C   0  0  0  0  0  0  0  0  0  0  0  0
  143.3700  157.3700  133.3620 C   0  0  0  0  0  0  0  0  0  0  0  0
  144.7560  157.4860  133.3870 C   0  0  0  0  0  0  0  0  0  0  0  0
  145.3070  158.7620  133.5830 C   0  0  0  0  0  0  0  0  0  0  0  0
  144.4700  159.8970  133.7440 C   0  0  0  0  0  0  0  0  0  0  0  0
  145.0740  161.2510  134.0220 C   0  0  0  0  0  0  0  0  0  0  0  0
  144.3790  162.2440  133.3530 F   0  0  0  0  0  0  0  0  0  0  0  0
  145.0340  161.5340  135.3770 F   0  0  0  0  0  0  0  0  0  0  0  0
  146.3890  161.2580  133.5990 F   0  0  0  0  0  0  0  0  0  0  0  0
  143.0650  159.7330  133.7400 C   0  0  0  0  0  0  0  0  0  0  0  0
  142.5430  158.4540  133.5180 C   0  0  0  0  0  0  0  0  0  0  0  0
  141.0160  158.8011  131.1704 H   0  0  0  0  0  0  0  0  0  0  0  0
  139.6560  158.6571  130.0057 H   0  0  0  0  0  0  0  0  0  0  0  0
  140.6866  160.1284  130.0057 H   0  0  0  0  0  0  0  0  0  0  0  0
  139.0822  161.0377  131.3184 H   0  0  0  0  0  0  0  0  0  0  0  0
  137.9450  155.7590  132.9820 H   0  0  0  0  0  0  0  0  0  0  0  0
  138.6230  157.4210  132.9430 H   0  0  0  0  0  0  0  0  0  0  0  0
  142.9099  155.2108  133.0992 H   0  0  0  0  0  0  0  0  0  0  0  0
  145.4008  156.6043  133.2571 H   0  0  0  0  0  0  0  0  0  0  0  0
  146.3999  158.8838  133.6121 H   0  0  0  0  0  0  0  0  0  0  0  0
  142.3980  160.5915  133.9076 H   0  0  0  0  0  0  0  0  0  0  0  0
  1  2  1  0
  2  3  1  0
  3  4  3  0
  2  5  1  0
  5  6  1  0
  6  7  2  0
  6  8  1  0
  8  9  1  0
  9 10  1  0
 10 11  1  0
 10 12  2  0
  9 13  2  0
 13 14  1  0
 14 15  2  0
 15 16  1  0
 16 17  2  0
 17 18  1  0
 18 19  1  0
 18 20  1  0
 18 21  1  0
 17 22  1  0
 22 23  2  0
 23  8  1  0
 23 14  1  0
  1 24  1  0
  1 25  1  0
  1 26  1  0
  2 27  1  6
 11 28  1  0
 11 29  1  0
 13 30  1  0
 15 31  1  0
 16 32  1  0
 22 33  1  0
M  END
>  <UniqueID>  (74) 
74

>  <SMILES>  (74) 
C[C@@H](C#N)OC(=O)n1c(C(N)=O)cc2ccc(C(F)(F)F)cc21

>  <Energy>  (74) 
68.1881998540879

>  <Genealogy>  (74) 
C[C@@H](C#N)OC(=O)n1c(C(N)=O)cc2ccc(C(F)(F)F)cc21 (chirality)
C[C@@H](C#N)OC(=O)n1c(C(N)=O)cc2ccc(C(F)(F)F)cc21 (3D coordinates assigned)
C[C@@H](C#N)OC(=O)n1c(C(N)=O)cc2ccc(C(F)(F)F)cc21 (optimized conformer: 68.1881998540879 kcal/mol)

>  <smiles>  (74) 
CC(C#N)OC(=O)n1c(C(N)=O)cc2ccc(C(F)(F)F)cc21

>  <score_type>  (74) 
oracle

>  <origin>  (74) 
adg

>  <m_score__min__energy>  (74) 
-6.6200000000000001

>  <m_primary>  (74) 
energy

$$$$
74:0
     RDKit          3D

 37 38  0  0  0  0  0  0  0  0999 V2000
  144.1580  155.3170  135.0120 C   0  0  0  0  0  0  0  0  0  0  0  0
  143.8120  155.6550  133.6270 N   0  0  0  0  0  0  0  0  0  0  0  0
  143.6770  154.5840  132.6340 C   0  0  0  0  0  0  0  0  0  0  0  0
  143.5120  157.0120  133.2260 C   0  0  0  0  0  0  0  0  0  0  0  0
  142.8540  157.2050  132.1660 O   0  0  0  0  0  0  0  0  0  0  0  0
  143.9410  158.2000  134.0030 C   0  0  0  0  0  0  0  0  0  0  0  0
  143.2620  158.6200  134.9770 O   0  0  0  0  0  0  0  0  0  0  0  0
  145.1570  158.8820  133.6610 N   0  0  0  0  0  0  0  0  0  0  0  0
  145.3910  160.2230  133.6760 C   0  0  0  0  0  0  0  0  0  0  0  0
  144.3880  161.2730  133.9520 C   0  0  0  0  0  0  0  0  0  0  0  0
  142.9980  161.0400  133.7300 N   0  0  0  0  0  0  0  0  0  0  0  0
  144.7630  162.4010  134.3700 O   0  0  0  0  0  0  0  0  0  0  0  0
  146.7220  160.4890  133.3530 C   0  0  0  0  0  0  0  0  0  0  0  0
  147.3000  159.2550  133.1430 C   0  0  0  0  0  0  0  0  0  0  0  0
  148.6110  158.9220  132.8140 C   0  0  0  0  0  0  0  0  0  0  0  0
  148.9310  157.5580  132.6900 C   0  0  0  0  0  0  0  0  0  0  0  0
  147.9450  156.5680  132.9050 C   0  0  0  0  0  0  0  0  0  0  0  0
  148.2870  155.1760  132.7850 C   0  0  0  0  0  0  0  0  0  0  0  0
  148.5710  154.0080  132.6840 C   0  0  0  0  0  0  0  0  0  0  0  0
  148.9180  152.5890  132.5640 C   0  0  0  0  0  0  0  0  0  0  0  0
  150.3080  152.4300  132.6050 O   0  0  0  0  0  0  0  0  0  0  0  0
  146.6270  156.9390  133.2400 C   0  0  0  0  0  0  0  0  0  0  0  0
  146.3340  158.3030  133.3390 C   0  0  0  0  0  0  0  0  0  0  0  0
  143.5441  155.9167  135.7001 H   0  0  0  0  0  0  0  0  0  0  0  0
  143.9671  154.2480  135.1872 H   0  0  0  0  0  0  0  0  0  0  0  0
  145.2223  155.5329  135.1872 H   0  0  0  0  0  0  0  0  0  0  0  0
  143.5555  153.6197  133.1490 H   0  0  0  0  0  0  0  0  0  0  0  0
  142.7961  154.7769  132.0041 H   0  0  0  0  0  0  0  0  0  0  0  0
  144.5783  154.5522  132.0041 H   0  0  0  0  0  0  0  0  0  0  0  0
  142.6420  160.0840  133.5110 H   0  0  0  0  0  0  0  0  0  0  0  0
  147.2070  161.4737  133.2812 H   0  0  0  0  0  0  0  0  0  0  0  0
  149.3720  159.7004  132.6561 H   0  0  0  0  0  0  0  0  0  0  0  0
  149.9557  157.2595  132.4239 H   0  0  0  0  0  0  0  0  0  0  0  0
  148.4630  152.0313  133.3959 H   0  0  0  0  0  0  0  0  0  0  0  0
  148.5392  152.2049  131.6054 H   0  0  0  0  0  0  0  0  0  0  0  0
  150.6680  152.8450  131.7780 H   0  0  0  0  0  0  0  0  0  0  0  0
  145.8523  156.1787  133.4182 H   0  0  0  0  0  0  0  0  0  0  0  0
  1  2  1  0
  2  3  1  0
  2  4  1  0
  4  5  2  0
  4  6  1  0
  6  7  2  0
  6  8  1  0
  8  9  1  0
  9 10  1  0
 10 11  1  0
 10 12  2  0
  9 13  2  0
 13 14  1  0
 14 15  2  0
 15 16  1  0
 16 17  2  0
 17 18  1  0
 18 19  3  0
 19 20  1  0
 20 21  1  0
 17 22  1  0
 22 23  2  0
 23  8  1  0
 23 14  1  0
  1 24  1  0
  1 25  1  0
  1 26  1  0
  3 27  1  0
  3 28  1  0
  3 29  1  0
 11 30  1  0
 13 31  1  0
 15 32  1  0
 16 33  1  0
 20 34  1  0
 20 35  1  0
 21 36  1  0
 22 37  1  0
M  CHG  1  11  -1
M  END
>  <UniqueID>  (75) 
75

>  <SMILES>  (75) 
CN(C)C(=O)C(=O)n1c(C([NH-])=O)cc2ccc(C#CCO)cc21

>  <Energy>  (75) 
72.50218270783162

>  <Genealogy>  (75) 
CN(C)C(=O)C(=O)n1c(C([NH-])=O)cc2ccc(C#CCO)cc21 (protonated)
CN(C)C(=O)C(=O)n1c(C([NH-])=O)cc2ccc(C#CCO)cc21 (3D coordinates assigned)
CN(C)C(=O)C(=O)n1c(C([NH-])=O)cc2ccc(C#CCO)cc21 (optimized conformer: 72.50218270783162 kcal/mol)

>  <smiles>  (75) 
CN(C)C(=O)C(=O)n1c(C(N)=O)cc2ccc(C#CCO)cc21

>  <score_type>  (75) 
oracle

>  <origin>  (75) 
adg

>  <m_score__min__energy>  (75) 
-7.0999999999999996

>  <m_primary>  (75) 
energy

$$$$
75:0
     RDKit          3D

 51 53  0  0  0  0  0  0  0  0999 V2000
  149.3140  162.3610  130.3430 C   0  0  0  0  0  0  0  0  0  0  0  0
  148.5440  161.1230  130.5460 N   0  0  0  0  0  0  0  0  0  0  0  0
  149.1780  159.9800  129.8610 C   0  0  0  0  0  0  0  0  0  0  0  0
  149.6030  158.9610  130.9120 C   0  0  0  0  0  0  0  0  0  0  0  0
  149.5390  159.7120  132.2260 C   0  0  2  0  0  0  0  0  0  0  0  0
  149.1870  158.8290  133.3470 N   0  0  0  0  0  0  0  0  0  0  0  0
  148.0740  157.9150  133.3340 C   0  0  0  0  0  0  0  0  0  0  0  0
  146.7730  158.4140  133.5910 C   0  0  0  0  0  0  0  0  0  0  0  0
  145.6590  157.5590  133.6020 C   0  0  0  0  0  0  0  0  0  0  0  0
  145.8710  156.2090  133.3470 C   0  0  0  0  0  0  0  0  0  0  0  0
  144.9800  155.1610  133.3270 C   0  0  0  0  0  0  0  0  0  0  0  0
  145.7440  154.0320  133.0370 C   0  0  0  0  0  0  0  0  0  0  0  0
  145.1660  152.6870  132.8420 C   0  0  0  0  0  0  0  0  0  0  0  0
  145.5160  151.8950  131.7110 N   0  0  0  0  0  0  0  0  0  0  0  0
  144.3130  152.2500  133.6620 O   0  0  0  0  0  0  0  0  0  0  0  0
  147.0570  154.3680  132.8910 N   0  0  0  0  0  0  0  0  0  0  0  0
  148.1700  153.4860  132.6850 C   0  0  0  0  0  0  0  0  0  0  0  0
  149.3260  153.9640  132.5350 O   0  0  0  0  0  0  0  0  0  0  0  0
  147.9580  152.0980  132.6770 O   0  0  0  0  0  0  0  0  0  0  0  0
  148.9690  151.0820  132.7290 C   0  0  0  0  0  0  0  0  0  0  0  0
  149.9580  151.2370  131.5580 C   0  0  0  0  0  0  0  0  0  0  0  0
  148.2570  149.7280  132.6000 C   0  0  0  0  0  0  0  0  0  0  0  0
  149.7140  151.1280  134.0770 C   0  0  0  0  0  0  0  0  0  0  0  0
  147.1180  155.7050  133.0830 C   0  0  0  0  0  0  0  0  0  0  0  0
  148.2480  156.5300  133.0880 C   0  0  0  0  0  0  0  0  0  0  0  0
  148.4770  160.7720  131.9720 C   0  0  0  0  0  0  0  0  0  0  0  0
  149.5813  162.7908  131.3196 H   0  0  0  0  0  0  0  0  0  0  0  0
  150.2307  162.1343  129.7788 H   0  0  0  0  0  0  0  0  0  0  0  0
  148.7054  163.0830  129.7788 H   0  0  0  0  0  0  0  0  0  0  0  0
  148.4602  159.5192  129.1664 H   0  0  0  0  0  0  0  0  0  0  0  0
  150.0547  160.3214  129.2911 H   0  0  0  0  0  0  0  0  0  0  0  0
  148.9139  158.1036  130.9216 H   0  0  0  0  0  0  0  0  0  0  0  0
  150.6056  158.5538  130.7145 H   0  0  0  0  0  0  0  0  0  0  0  0
  150.5068  160.1445  132.5197 H   0  0  0  0  0  0  0  0  0  0  0  0
  149.7750  158.8600  134.2120 H   0  0  0  0  0  0  0  0  0  0  0  0
  146.6334  159.4877  133.7849 H   0  0  0  0  0  0  0  0  0  0  0  0
  144.6496  157.9457  133.8061 H   0  0  0  0  0  0  0  0  0  0  0  0
  143.8950  155.2048  133.5026 H   0  0  0  0  0  0  0  0  0  0  0  0
  146.3870  152.0840  131.1700 H   0  0  0  0  0  0  0  0  0  0  0  0
  150.9722  151.3959  131.9532 H   0  0  0  0  0  0  0  0  0  0  0  0
  149.9430  150.3255  130.9423 H   0  0  0  0  0  0  0  0  0  0  0  0
  149.6649  152.1002  130.9423 H   0  0  0  0  0  0  0  0  0  0  0  0
  148.0464  149.3275  133.6026 H   0  0  0  0  0  0  0  0  0  0  0  0
  147.3123  149.8612  132.0525 H   0  0  0  0  0  0  0  0  0  0  0  0
  148.9022  149.0252  132.0525 H   0  0  0  0  0  0  0  0  0  0  0  0
  148.9857  151.0830  134.9002 H   0  0  0  0  0  0  0  0  0  0  0  0
  150.3994  150.2705  134.1466 H   0  0  0  0  0  0  0  0  0  0  0  0
  150.2887  152.0634  134.1466 H   0  0  0  0  0  0  0  0  0  0  0  0
  149.2493  156.1130  132.9051 H   0  0  0  0  0  0  0  0  0  0  0  0
  147.4811  160.3734  132.2154 H   0  0  0  0  0  0  0  0  0  0  0  0
  148.6519  161.6578  132.6003 H   0  0  0  0  0  0  0  0  0  0  0  0
  1  2  1  0
  2  3  1  0
  3  4  1  0
  4  5  1  0
  5  6  1  0
  6  7  1  0
  7  8  2  0
  8  9  1  0
  9 10  2  0
 10 11  1  0
 11 12  2  0
 12 13  1  0
 13 14  1  0
 13 15  2  0
 12 16  1  0
 16 17  1  0
 17 18  2  0
 17 19  1  0
 19 20  1  0
 20 21  1  0
 20 22  1  0
 20 23  1  0
 16 24  1  0
 24 25  2  0
  5 26  1  0
 26  2  1  0
 25  7  1  0
 24 10  1  0
  1 27  1  0
  1 28  1  0
  1 29  1  0
  3 30  1  0
  3 31  1  0
  4 32  1  0
  4 33  1  0
  5 34  1  1
  6 35  1  0
  8 36  1  0
  9 37  1  0
 11 38  1  0
 14 39  1  0
 21 40  1  0
 21 41  1  0
 21 42  1  0
 22 43  1  0
 22 44  1  0
 22 45  1  0
 23 46  1  0
 23 47  1  0
 23 48  1  0
 25 49  1  0
 26 50  1  0
 26 51  1  0
M  CHG  1  14  -1
M  END
>  <UniqueID>  (76) 
76

>  <SMILES>  (76) 
CN1CC[C@H](Nc2ccc3cc(C([NH-])=O)n(C(=O)OC(C)(C)C)c3c2)C1

>  <Energy>  (76) 
88.86195058564363

>  <Genealogy>  (76) 
CN1CCC(Nc2ccc3cc(C([NH-])=O)n(C(=O)OC(C)(C)C)c3c2)C1 (protonated)
CN1CC[C@H](Nc2ccc3cc(C([NH-])=O)n(C(=O)OC(C)(C)C)c3c2)C1 (chirality)
CN1CC[C@H](Nc2ccc3cc(C([NH-])=O)n(C(=O)OC(C)(C)C)c3c2)C1 (3D coordinates assigned)
CN1CC[C@H](Nc2ccc3cc(C([NH-])=O)n(C(=O)OC(C)(C)C)c3c2)C1 (nonaromatic ring conformer: 88.86195058564363 kcal/mol)

>  <smiles>  (76) 
CN1CCC(Nc2ccc3cc(C(N)=O)n(C(=O)OC(C)(C)C)c3c2)C1

>  <score_type>  (76) 
oracle

>  <origin>  (76) 
adg

>  <m_score__min__energy>  (76) 
-8.3599999999999994

>  <m_primary>  (76) 
energy

$$$$
76:0
     RDKit          3D

 33 34  0  0  0  0  0  0  0  0999 V2000
  139.3070  157.4270  132.6010 N   0  0  0  0  0  0  0  0  0  0  0  0
  140.3370  156.7350  133.3090 C   0  0  0  0  0  0  0  0  0  0  0  0
  140.0380  155.7290  134.0060 O   0  0  0  0  0  0  0  0  0  0  0  0
  141.7330  157.2160  133.2910 C   0  0  0  0  0  0  0  0  0  0  0  0
  142.8340  156.3660  133.3070 C   0  0  0  0  0  0  0  0  0  0  0  0
  143.9320  157.1950  133.3470 C   0  0  0  0  0  0  0  0  0  0  0  0
  145.2870  156.8820  133.3670 C   0  0  0  0  0  0  0  0  0  0  0  0
  146.2090  157.9410  133.3730 C   0  0  0  0  0  0  0  0  0  0  0  0
  145.7620  159.2860  133.3430 C   0  0  0  0  0  0  0  0  0  0  0  0
  146.7580  160.4160  133.3610 C   0  0  0  0  0  0  0  0  0  0  0  0
  148.0640  160.0430  132.6450 C   0  0  0  0  0  0  0  0  0  0  0  0
  148.0240  160.3820  131.1480 C   0  0  0  0  0  0  0  0  0  0  0  0
  149.3790  160.7960  130.6700 C   0  0  0  0  0  0  0  0  0  0  0  0
  150.3060  159.9490  130.5820 O   0  0  0  0  0  0  0  0  0  0  0  0
  149.6040  162.1070  130.2700 O   0  0  0  0  0  0  0  0  0  0  0  0
  144.3780  159.5660  133.3250 C   0  0  0  0  0  0  0  0  0  0  0  0
  143.4800  158.4910  133.3440 C   0  0  0  0  0  0  0  0  0  0  0  0
  142.1290  158.5200  133.3070 N   0  0  0  0  0  0  0  0  0  0  0  0
  141.2980  159.6890  133.1860 C   0  0  0  0  0  0  0  0  0  0  0  0
  140.4870  159.7950  132.2280 O   0  0  0  0  0  0  0  0  0  0  0  0
  141.3820  160.7130  134.1190 O   0  0  0  0  0  0  0  0  0  0  0  0
  139.4880  158.3530  132.1560 H   0  0  0  0  0  0  0  0  0  0  0  0
  138.3330  157.0500  132.5940 H   0  0  0  0  0  0  0  0  0  0  0  0
  142.8283  155.2661  133.2911 H   0  0  0  0  0  0  0  0  0  0  0  0
  145.6264  155.8357  133.3778 H   0  0  0  0  0  0  0  0  0  0  0  0
  147.2872  157.7252  133.4012 H   0  0  0  0  0  0  0  0  0  0  0  0
  146.3144  161.2884  132.8589 H   0  0  0  0  0  0  0  0  0  0  0  0
  146.9982  160.6406  134.4107 H   0  0  0  0  0  0  0  0  0  0  0  0
  148.8933  160.5954  133.1110 H   0  0  0  0  0  0  0  0  0  0  0  0
  148.2021  158.9559  132.7407 H   0  0  0  0  0  0  0  0  0  0  0  0
  147.6962  159.4960  130.5845 H   0  0  0  0  0  0  0  0  0  0  0  0
  147.3208  161.2129  130.9894 H   0  0  0  0  0  0  0  0  0  0  0  0
  144.0137  160.6035  133.2967 H   0  0  0  0  0  0  0  0  0  0  0  0
  1  2  1  0
  2  3  2  0
  2  4  1  0
  4  5  2  0
  5  6  1  0
  6  7  2  0
  7  8  1  0
  8  9  2  0
  9 10  1  0
 10 11  1  0
 11 12  1  0
 12 13  1  0
 13 14  2  0
 13 15  1  0
  9 16  1  0
 16 17  2  0
 17 18  1  0
 18 19  1  0
 19 20  2  0
 19 21  1  0
 18  4  1  0
 17  6  1  0
  1 22  1  0
  1 23  1  0
  5 24  1  0
  7 25  1  0
  8 26  1  0
 10 27  1  0
 10 28  1  0
 11 29  1  0
 11 30  1  0
 12 31  1  0
 12 32  1  0
 16 33  1  0
M  CHG  2  15  -1  21  -1
M  END
>  <UniqueID>  (77) 
77

>  <SMILES>  (77) 
NC(=O)c1cc2ccc(CCCC(=O)[O-])cc2n1C(=O)[O-]

>  <Energy>  (77) 
67.82320112598836

>  <Genealogy>  (77) 
NC(=O)c1cc2ccc(CCCC(=O)[O-])cc2n1C(=O)[O-] (protonated)
NC(=O)c1cc2ccc(CCCC(=O)[O-])cc2n1C(=O)[O-] (3D coordinates assigned)
NC(=O)c1cc2ccc(CCCC(=O)[O-])cc2n1C(=O)[O-] (optimized conformer: 67.82320112598836 kcal/mol)

>  <smiles>  (77) 
NC(=O)c1cc2ccc(CCCC(=O)O)cc2n1C(=O)O

>  <score_type>  (77) 
oracle

>  <origin>  (77) 
adg

>  <m_score__min__energy>  (77) 
-6.6200000000000001

>  <m_primary>  (77) 
energy

$$$$
77:0
     RDKit          3D

 40 41  0  0  0  0  0  0  0  0999 V2000
  138.4180  157.7410  133.3680 N   0  0  0  0  0  0  0  0  0  0  0  0
  139.2390  158.0180  134.4990 C   0  0  0  0  0  0  0  0  0  0  0  0
  138.7370  157.9640  135.6540 O   0  0  0  0  0  0  0  0  0  0  0  0
  140.6540  158.4060  134.3320 C   0  0  0  0  0  0  0  0  0  0  0  0
  141.0780  159.7180  134.1300 C   0  0  0  0  0  0  0  0  0  0  0  0
  142.4420  159.6370  133.9550 C   0  0  0  0  0  0  0  0  0  0  0  0
  143.3790  160.6390  133.7270 C   0  0  0  0  0  0  0  0  0  0  0  0
  144.7270  160.2640  133.6070 C   0  0  0  0  0  0  0  0  0  0  0  0
  145.1200  158.9060  133.7220 C   0  0  0  0  0  0  0  0  0  0  0  0
  146.5130  158.5680  133.6010 N   0  0  0  0  0  0  0  0  0  0  0  0
  146.9900  157.3680  132.9060 C   0  0  0  0  0  0  0  0  0  0  0  0
  148.4390  157.5310  132.4410 C   0  0  0  0  0  0  0  0  0  0  0  0
  148.9390  158.8630  132.7700 N   0  0  0  0  0  0  0  0  0  0  0  0
  148.5640  160.0880  132.1230 C   0  0  0  0  0  0  0  0  0  0  0  0
  147.7700  160.8630  132.7190 O   0  0  0  0  0  0  0  0  0  0  0  0
  149.1260  160.4960  130.7890 C   0  0  0  0  0  0  0  0  0  0  0  0
  150.3620  159.9040  130.6030 F   0  0  0  0  0  0  0  0  0  0  0  0
  149.2830  161.8700  130.7350 F   0  0  0  0  0  0  0  0  0  0  0  0
  148.2740  160.1120  129.7720 F   0  0  0  0  0  0  0  0  0  0  0  0
  144.1330  157.9160  133.9540 C   0  0  0  0  0  0  0  0  0  0  0  0
  142.7980  158.3190  134.0560 C   0  0  0  0  0  0  0  0  0  0  0  0
  141.7140  157.5520  134.2890 N   0  0  0  0  0  0  0  0  0  0  0  0
  141.7240  156.1380  134.5290 C   0  0  0  0  0  0  0  0  0  0  0  0
  141.4890  155.7070  135.6910 O   0  0  0  0  0  0  0  0  0  0  0  0
  141.8440  155.1790  133.3790 C   0  0  0  0  0  0  0  0  0  0  0  0
  140.5950  154.3730  133.1960 C   0  0  0  0  0  0  0  0  0  0  0  0
  139.5020  154.9440  132.9380 O   0  0  0  0  0  0  0  0  0  0  0  0
  140.6390  152.9880  133.3020 O   0  0  0  0  0  0  0  0  0  0  0  0
  138.3390  156.7720  132.9860 H   0  0  0  0  0  0  0  0  0  0  0  0
  140.4560  160.6251  134.1138 H   0  0  0  0  0  0  0  0  0  0  0  0
  143.0738  161.6925  133.6433 H   0  0  0  0  0  0  0  0  0  0  0  0
  145.4894  161.0348  133.4211 H   0  0  0  0  0  0  0  0  0  0  0  0
  147.2140  159.2110  134.0350 H   0  0  0  0  0  0  0  0  0  0  0  0
  146.9283  156.5094  133.5909 H   0  0  0  0  0  0  0  0  0  0  0  0
  146.3581  157.2068  132.0201 H   0  0  0  0  0  0  0  0  0  0  0  0
  149.0654  156.7767  132.9395 H   0  0  0  0  0  0  0  0  0  0  0  0
  148.4777  157.3979  131.3498 H   0  0  0  0  0  0  0  0  0  0  0  0
  144.4104  156.8560  134.0515 H   0  0  0  0  0  0  0  0  0  0  0  0
  142.0383  155.7490  132.4585 H   0  0  0  0  0  0  0  0  0  0  0  0
  142.6702  154.4859  133.5958 H   0  0  0  0  0  0  0  0  0  0  0  0
  1  2  1  0
  2  3  2  0
  2  4  1  0
  4  5  2  0
  5  6  1  0
  6  7  2  0
  7  8  1  0
  8  9  2  0
  9 10  1  0
 10 11  1  0
 11 12  1  0
 12 13  1  0
 13 14  1  0
 14 15  2  0
 14 16  1  0
 16 17  1  0
 16 18  1  0
 16 19  1  0
  9 20  1  0
 20 21  2  0
 21 22  1  0
 22 23  1  0
 23 24  2  0
 23 25  1  0
 25 26  1  0
 26 27  2  0
 26 28  1  0
 22  4  1  0
 21  6  1  0
  1 29  1  0
  5 30  1  0
  7 31  1  0
  8 32  1  0
 10 33  1  0
 11 34  1  0
 11 35  1  0
 12 36  1  0
 12 37  1  0
 20 38  1  0
 25 39  1  0
 25 40  1  0
M  CHG  3   1  -1  13  -1  28  -1
M  END
>  <UniqueID>  (78) 
78

>  <SMILES>  (78) 
[NH-]C(=O)c1cc2ccc(NCC[N-]C(=O)C(F)(F)F)cc2n1C(=O)CC(=O)[O-]

>  <Energy>  (78) 
76.38752391648957

>  <Genealogy>  (78) 
[NH-]C(=O)c1cc2ccc(NCC[N-]C(=O)C(F)(F)F)cc2n1C(=O)CC(=O)[O-] (protonated)
[NH-]C(=O)c1cc2ccc(NCC[N-]C(=O)C(F)(F)F)cc2n1C(=O)CC(=O)[O-] (3D coordinates assigned)
[NH-]C(=O)c1cc2ccc(NCC[N-]C(=O)C(F)(F)F)cc2n1C(=O)CC(=O)[O-] (optimized conformer: 76.38752391648957 kcal/mol)

>  <smiles>  (78) 
NC(=O)c1cc2ccc(NCCNC(=O)C(F)(F)F)cc2n1C(=O)CC(=O)O

>  <score_type>  (78) 
oracle

>  <origin>  (78) 
adg

>  <m_score__min__energy>  (78) 
-6.4199999999999999

>  <m_primary>  (78) 
energy

$$$$
78:0
     RDKit          3D

 38 40  0  0  0  0  0  0  0  0999 V2000
  146.7020  160.9500  133.4680 N   0  0  0  0  0  0  0  0  0  0  0  0
  145.4450  161.2740  134.1110 C   0  0  0  0  0  0  0  0  0  0  0  0
  145.4870  162.2980  134.8320 O   0  0  0  0  0  0  0  0  0  0  0  0
  144.3000  160.4360  133.8860 C   0  0  0  0  0  0  0  0  0  0  0  0
  143.0120  160.9600  133.7040 C   0  0  0  0  0  0  0  0  0  0  0  0
  142.1140  159.9400  133.5090 C   0  0  0  0  0  0  0  0  0  0  0  0
  140.7560  159.9430  133.2910 C   0  0  0  0  0  0  0  0  0  0  0  0
  140.0780  158.7640  133.1250 C   0  0  0  0  0  0  0  0  0  0  0  0
  140.8030  157.5930  133.1860 C   0  0  0  0  0  0  0  0  0  0  0  0
  140.0770  156.2840  133.0060 C   0  0  0  0  0  0  0  0  0  0  0  0
  140.4620  155.4510  134.0390 F   0  0  0  0  0  0  0  0  0  0  0  0
  142.1720  157.5990  133.4060 C   0  0  0  0  0  0  0  0  0  0  0  0
  142.8680  158.7780  133.5750 C   0  0  0  0  0  0  0  0  0  0  0  0
  144.1640  159.1130  133.8000 N   0  0  0  0  0  0  0  0  0  0  0  0
  145.1830  158.1440  133.9180 C   0  0  0  0  0  0  0  0  0  0  0  0
  144.8520  156.9170  133.9680 O   0  0  0  0  0  0  0  0  0  0  0  0
  146.5370  158.3950  133.9870 O   0  0  0  0  0  0  0  0  0  0  0  0
  147.5430  157.4340  133.8110 C   0  0  0  0  0  0  0  0  0  0  0  0
  147.7620  157.2810  132.3150 C   0  0  0  0  0  0  0  0  0  0  0  0
  148.4140  158.5120  131.8350 C   0  0  0  0  0  0  0  0  0  0  0  0
  148.5700  159.6540  132.5490 N   0  0  0  0  0  0  0  0  0  0  0  0
  149.1880  160.4930  131.7750 O   0  0  0  0  0  0  0  0  0  0  0  0
  149.4280  159.9430  130.6120 C   0  0  0  0  0  0  0  0  0  0  0  0
  150.0060  160.4500  129.6130 O   0  0  0  0  0  0  0  0  0  0  0  0
  148.9490  158.6800  130.6130 N   0  0  0  0  0  0  0  0  0  0  0  0
  147.6020  160.9640  134.0010 H   0  0  0  0  0  0  0  0  0  0  0  0
  146.6660  160.7010  132.4410 H   0  0  0  0  0  0  0  0  0  0  0  0
  142.7586  162.0304  133.7157 H   0  0  0  0  0  0  0  0  0  0  0  0
  140.2110  160.8976  133.2497 H   0  0  0  0  0  0  0  0  0  0  0  0
  138.9922  158.7522  132.9491 H   0  0  0  0  0  0  0  0  0  0  0  0
  138.9901  156.4492  133.0417 H   0  0  0  0  0  0  0  0  0  0  0  0
  140.3236  155.8344  132.0328 H   0  0  0  0  0  0  0  0  0  0  0  0
  142.7147  156.6431  133.4467 H   0  0  0  0  0  0  0  0  0  0  0  0
  148.4722  157.7681  134.2956 H   0  0  0  0  0  0  0  0  0  0  0  0
  147.2499  156.4748  134.2627 H   0  0  0  0  0  0  0  0  0  0  0  0
  148.4071  156.4124  132.1167 H   0  0  0  0  0  0  0  0  0  0  0  0
  146.8044  157.1225  131.7973 H   0  0  0  0  0  0  0  0  0  0  0  0
  148.9790  157.9830  129.8520 H   0  0  0  0  0  0  0  0  0  0  0  0
  1  2  1  0
  2  3  2  0
  2  4  1  0
  4  5  2  0
  5  6  1  0
  6  7  2  0
  7  8  1  0
  8  9  2  0
  9 10  1  0
 10 11  1  0
  9 12  1  0
 12 13  2  0
 13 14  1  0
 14 15  1  0
 15 16  2  0
 15 17  1  0
 17 18  1  0
 18 19  1  0
 19 20  1  0
 20 21  2  0
 21 22  1  0
 22 23  1  0
 23 24  2  0
 23 25  1  0
 14  4  1  0
 25 20  1  0
 13  6  1  0
  1 26  1  0
  1 27  1  0
  5 28  1  0
  7 29  1  0
  8 30  1  0
 10 31  1  0
 10 32  1  0
 12 33  1  0
 18 34  1  0
 18 35  1  0
 19 36  1  0
 19 37  1  0
 25 38  1  0
M  END
>  <smiles>  (79) 
NC(=O)c1cc2ccc(CF)cc2n1C(=O)OCCc1noc(=O)[nH]1

>  <score_type>  (79) 
oracle

>  <origin>  (79) 
adg

>  <m_score__min__energy>  (79) 
-7.21

>  <m_primary>  (79) 
energy

$$$$
79:0
     RDKit          3D

 34 35  0  0  0  0  0  0  0  0999 V2000
  149.5920  161.8820  130.2440 C   0  0  0  0  0  0  0  0  0  0  0  0
  148.6640  161.4940  131.2310 O   0  0  0  0  0  0  0  0  0  0  0  0
  148.3330  160.1320  131.0550 C   0  0  0  0  0  0  0  0  0  0  0  0
  149.1910  159.2710  131.9830 C   0  0  0  0  0  0  0  0  0  0  0  0
  148.5100  158.9920  133.2980 C   0  0  0  0  0  0  0  0  0  0  0  0
  149.1720  159.0750  134.3670 O   0  0  0  0  0  0  0  0  0  0  0  0
  147.1260  158.6120  133.3510 N   0  0  0  0  0  0  0  0  0  0  0  0
  146.6080  157.3600  133.2120 C   0  0  0  0  0  0  0  0  0  0  0  0
  147.3880  156.1220  132.9930 C   0  0  0  0  0  0  0  0  0  0  0  0
  148.7820  156.1010  133.2880 N   0  0  0  0  0  0  0  0  0  0  0  0
  146.8370  155.0850  132.5400 O   0  0  0  0  0  0  0  0  0  0  0  0
  145.2210  157.3900  133.3470 C   0  0  0  0  0  0  0  0  0  0  0  0
  144.9050  158.7100  133.5740 C   0  0  0  0  0  0  0  0  0  0  0  0
  143.6660  159.3150  133.7670 C   0  0  0  0  0  0  0  0  0  0  0  0
  143.6360  160.7080  133.9550 C   0  0  0  0  0  0  0  0  0  0  0  0
  144.8360  161.4630  133.9520 C   0  0  0  0  0  0  0  0  0  0  0  0
  144.7850  162.9540  134.1030 C   0  0  0  0  0  0  0  0  0  0  0  0
  145.4690  163.3260  135.2450 F   0  0  0  0  0  0  0  0  0  0  0  0
  146.0720  160.8170  133.7370 C   0  0  0  0  0  0  0  0  0  0  0  0
  146.0730  159.4280  133.5690 C   0  0  0  0  0  0  0  0  0  0  0  0
  150.5036  162.2632  130.7274 H   0  0  0  0  0  0  0  0  0  0  0  0
  149.8448  161.0142  129.6171 H   0  0  0  0  0  0  0  0  0  0  0  0
  149.1519  162.6715  129.6171 H   0  0  0  0  0  0  0  0  0  0  0  0
  147.2700  159.9799  131.2935 H   0  0  0  0  0  0  0  0  0  0  0  0
  148.5213  159.8425  130.0106 H   0  0  0  0  0  0  0  0  0  0  0  0
  149.4008  158.3137  131.4834 H   0  0  0  0  0  0  0  0  0  0  0  0
  150.1170  159.8255  132.1951 H   0  0  0  0  0  0  0  0  0  0  0  0
  149.2470  156.9190  133.7400 H   0  0  0  0  0  0  0  0  0  0  0  0
  144.5265  156.5392  133.2852 H   0  0  0  0  0  0  0  0  0  0  0  0
  142.7397  158.7218  133.7722 H   0  0  0  0  0  0  0  0  0  0  0  0
  142.6725  161.2168  134.1058 H   0  0  0  0  0  0  0  0  0  0  0  0
  145.2510  163.4273  133.2262 H   0  0  0  0  0  0  0  0  0  0  0  0
  143.7369  163.2785  134.1818 H   0  0  0  0  0  0  0  0  0  0  0  0
  147.0101  161.3904  133.7024 H   0  0  0  0  0  0  0  0  0  0  0  0
  1  2  1  0
  2  3  1  0
  3  4  1  0
  4  5  1  0
  5  6  2  0
  5  7  1  0
  7  8  1  0
  8  9  1  0
  9 10  1  0
  9 11  2  0
  8 12  2  0
 12 13  1  0
 13 14  2  0
 14 15  1  0
 15 16  2  0
 16 17  1  0
 17 18  1  0
 16 19  1  0
 19 20  2  0
 20  7  1  0
 20 13  1  0
  1 21  1  0
  1 22  1  0
  1 23  1  0
  3 24  1  0
  3 25  1  0
  4 26  1  0
  4 27  1  0
 10 28  1  0
 12 29  1  0
 14 30  1  0
 15 31  1  0
 17 32  1  0
 17 33  1  0
 19 34  1  0
M  CHG  1  10  -1
M  END
>  <UniqueID>  (80) 
79

>  <SMILES>  (80) 
COCCC(=O)n1c(C([NH-])=O)cc2ccc(CF)cc21

>  <Energy>  (80) 
70.31536223541471

>  <Genealogy>  (80) 
COCCC(=O)n1c(C([NH-])=O)cc2ccc(CF)cc21 (protonated)
COCCC(=O)n1c(C([NH-])=O)cc2ccc(CF)cc21 (3D coordinates assigned)
COCCC(=O)n1c(C([NH-])=O)cc2ccc(CF)cc21 (optimized conformer: 70.31536223541471 kcal/mol)

>  <smiles>  (80) 
COCCC(=O)n1c(C(N)=O)cc2ccc(CF)cc21

>  <score_type>  (80) 
oracle

>  <origin>  (80) 
adg

>  <m_score__min__energy>  (80) 
-5.6100000000000003

>  <m_primary>  (80) 
energy

$$$$
80:0
     RDKit          3D

 41 43  0  0  0  0  0  0  0  0999 V2000
  139.6700  158.0230  136.3850 N   0  0  0  0  0  0  0  0  0  0  0  0
  140.2170  157.8220  135.0850 C   0  0  0  0  0  0  0  0  0  0  0  0
  139.5720  157.1410  134.2440 O   0  0  0  0  0  0  0  0  0  0  0  0
  141.5500  158.3500  134.7300 C   0  0  0  0  0  0  0  0  0  0  0  0
  141.8130  159.7060  134.5500 C   0  0  0  0  0  0  0  0  0  0  0  0
  143.1260  159.7730  134.1440 C   0  0  0  0  0  0  0  0  0  0  0  0
  143.9110  160.8790  133.8340 C   0  0  0  0  0  0  0  0  0  0  0  0
  145.2500  160.6550  133.4710 C   0  0  0  0  0  0  0  0  0  0  0  0
  145.7790  159.3400  133.4270 C   0  0  0  0  0  0  0  0  0  0  0  0
  147.1600  159.1300  133.0730 N   0  0  0  0  0  0  0  0  0  0  0  0
  147.8880  157.9620  133.5850 C   0  0  0  0  0  0  0  0  0  0  0  0
  148.8960  157.4260  132.5400 C   0  0  0  0  0  0  0  0  0  0  0  0
  149.0400  158.2620  131.4030 O   0  0  0  0  0  0  0  0  0  0  0  0
  149.2170  159.6030  131.8070 C   0  0  0  0  0  0  0  0  0  0  0  0
  147.8870  160.1590  132.3180 C   0  0  0  0  0  0  0  0  0  0  0  0
  144.9500  158.2430  133.7550 C   0  0  0  0  0  0  0  0  0  0  0  0
  143.6160  158.4940  134.0950 C   0  0  0  0  0  0  0  0  0  0  0  0
  142.6610  157.6080  134.4560 N   0  0  0  0  0  0  0  0  0  0  0  0
  142.8310  156.1890  134.5970 C   0  0  0  0  0  0  0  0  0  0  0  0
  141.9240  155.4050  134.2050 O   0  0  0  0  0  0  0  0  0  0  0  0
  143.9890  155.6860  135.1980 O   0  0  0  0  0  0  0  0  0  0  0  0
  144.5130  154.3860  134.9390 C   0  0  0  0  0  0  0  0  0  0  0  0
  146.3050  154.3490  135.2560 P   0  0  0  0  0  0  0  0  0  0  0  0
  147.0210  153.8080  134.0400 O   0  0  0  0  0  0  0  0  0  0  0  0
  146.6410  153.3650  136.5890 O   0  0  0  0  0  0  0  0  0  0  0  0
  146.8460  155.9190  135.5720 O   0  0  0  0  0  0  0  0  0  0  0  0
  139.4470  158.9820  136.7330 H   0  0  0  0  0  0  0  0  0  0  0  0
  141.1182  160.5454  134.7005 H   0  0  0  0  0  0  0  0  0  0  0  0
  143.4964  161.8972  133.8719 H   0  0  0  0  0  0  0  0  0  0  0  0
  145.8951  161.5094  133.2181 H   0  0  0  0  0  0  0  0  0  0  0  0
  148.4345  158.2509  134.4949 H   0  0  0  0  0  0  0  0  0  0  0  0
  147.1597  157.1675  133.8046 H   0  0  0  0  0  0  0  0  0  0  0  0
  149.8785  157.3272  133.0246 H   0  0  0  0  0  0  0  0  0  0  0  0
  148.5047  156.4623  132.1819 H   0  0  0  0  0  0  0  0  0  0  0  0
  149.9668  159.6483  132.6106 H   0  0  0  0  0  0  0  0  0  0  0  0
  149.5615  160.2023  130.9513 H   0  0  0  0  0  0  0  0  0  0  0  0
  148.0819  161.0203  132.9738 H   0  0  0  0  0  0  0  0  0  0  0  0
  147.2757  160.4704  131.4582 H   0  0  0  0  0  0  0  0  0  0  0  0
  145.3443  157.2162  133.7433 H   0  0  0  0  0  0  0  0  0  0  0  0
  144.0139  153.6570  135.5943 H   0  0  0  0  0  0  0  0  0  0  0  0
  144.3321  154.1322  133.8841 H   0  0  0  0  0  0  0  0  0  0  0  0
  1  2  1  0
  2  3  2  0
  2  4  1  0
  4  5  2  0
  5  6  1  0
  6  7  2  0
  7  8  1  0
  8  9  2  0
  9 10  1  0
 10 11  1  0
 11 12  1  0
 12 13  1  0
 13 14  1  0
 14 15  1  0
  9 16  1  0
 16 17  2  0
 17 18  1  0
 18 19  1  0
 19 20  2  0
 19 21  1  0
 21 22  1  0
 22 23  1  0
 23 24  2  0
 23 25  1  0
 23 26  1  0
 18  4  1  0
 17  6  1  0
 15 10  1  0
  1 27  1  0
  5 28  1  0
  7 29  1  0
  8 30  1  0
 11 31  1  0
 11 32  1  0
 12 33  1  0
 12 34  1  0
 14 35  1  0
 14 36  1  0
 15 37  1  0
 15 38  1  0
 16 39  1  0
 22 40  1  0
 22 41  1  0
M  CHG  3   1  -1  25  -1  26  -1
M  END
>  <UniqueID>  (81) 
80

>  <SMILES>  (81) 
[NH-]C(=O)c1cc2ccc(N3CCOCC3)cc2n1C(=O)OCP(=O)([O-])[O-]

>  <Energy>  (81) 
87.29783233413072

>  <Genealogy>  (81) 
[NH-]C(=O)c1cc2ccc(N3CCOCC3)cc2n1C(=O)OCP(=O)([O-])[O-] (protonated)
[NH-]C(=O)c1cc2ccc(N3CCOCC3)cc2n1C(=O)OCP(=O)([O-])[O-] (3D coordinates assigned)
[NH-]C(=O)c1cc2ccc(N3CCOCC3)cc2n1C(=O)OCP(=O)([O-])[O-] (nonaromatic ring conformer: 87.29783233413072 kcal/mol)

>  <smiles>  (81) 
NC(=O)c1cc2ccc(N3CCOCC3)cc2n1C(=O)OCP(=O)(O)O

>  <score_type>  (81) 
oracle

>  <origin>  (81) 
adg

>  <m_score__min__energy>  (81) 
-7.1600000000000001

>  <m_primary>  (81) 
energy

$$$$
81:0
     RDKit          3D

 30 31  0  0  0  0  0  0  0  0999 V2000
  148.4730  157.6670  134.0550 N   0  0  0  0  0  0  0  0  0  0  0  0
  147.7410  158.8470  133.7190 C   0  0  0  0  0  0  0  0  0  0  0  0
  148.3750  159.8930  133.4170 O   0  0  0  0  0  0  0  0  0  0  0  0
  146.2590  158.8470  133.7050 C   0  0  0  0  0  0  0  0  0  0  0  0
  145.4690  159.9970  133.6900 C   0  0  0  0  0  0  0  0  0  0  0  0
  144.1680  159.5480  133.7320 C   0  0  0  0  0  0  0  0  0  0  0  0
  142.9730  160.2600  133.7330 C   0  0  0  0  0  0  0  0  0  0  0  0
  141.7720  159.5320  133.7580 C   0  0  0  0  0  0  0  0  0  0  0  0
  141.7830  158.1130  133.7530 C   0  0  0  0  0  0  0  0  0  0  0  0
  140.4880  157.3430  133.8150 C   0  0  0  0  0  0  0  0  0  0  0  0
  139.8720  157.3880  132.5790 F   0  0  0  0  0  0  0  0  0  0  0  0
  140.7210  156.0220  134.1550 F   0  0  0  0  0  0  0  0  0  0  0  0
  139.6400  157.8890  134.7620 F   0  0  0  0  0  0  0  0  0  0  0  0
  143.0200  157.4270  133.7760 C   0  0  0  0  0  0  0  0  0  0  0  0
  144.1990  158.1790  133.7720 C   0  0  0  0  0  0  0  0  0  0  0  0
  145.4730  157.7360  133.7650 N   0  0  0  0  0  0  0  0  0  0  0  0
  145.9010  156.3650  133.7540 C   0  0  0  0  0  0  0  0  0  0  0  0
  146.6820  155.9610  132.8510 O   0  0  0  0  0  0  0  0  0  0  0  0
  145.4690  155.4210  134.8350 C   0  0  0  0  0  0  0  0  0  0  0  0
  146.6600  154.9410  135.5990 C   0  0  0  0  0  0  0  0  0  0  0  0
  147.7220  155.6200  135.6100 O   0  0  0  0  0  0  0  0  0  0  0  0
  146.6180  153.7190  136.2580 O   0  0  0  0  0  0  0  0  0  0  0  0
  147.9940  156.7980  134.3760 H   0  0  0  0  0  0  0  0  0  0  0  0
  149.5170  157.6730  134.0240 H   0  0  0  0  0  0  0  0  0  0  0  0
  145.8127  161.0412  133.6526 H   0  0  0  0  0  0  0  0  0  0  0  0
  142.9687  161.3598  133.7148 H   0  0  0  0  0  0  0  0  0  0  0  0
  140.8118  160.0681  133.7817 H   0  0  0  0  0  0  0  0  0  0  0  0
  143.0537  156.3277  133.7965 H   0  0  0  0  0  0  0  0  0  0  0  0
  144.7821  155.9404  135.5194 H   0  0  0  0  0  0  0  0  0  0  0  0
  144.9600  154.5587  134.3797 H   0  0  0  0  0  0  0  0  0  0  0  0
  1  2  1  0
  2  3  2  0
  2  4  1  0
  4  5  2  0
  5  6  1  0
  6  7  2  0
  7  8  1  0
  8  9  2  0
  9 10  1  0
 10 11  1  0
 10 12  1  0
 10 13  1  0
  9 14  1  0
 14 15  2  0
 15 16  1  0
 16 17  1  0
 17 18  2  0
 17 19  1  0
 19 20  1  0
 20 21  2  0
 20 22  1  0
 16  4  1  0
 15  6  1  0
  1 23  1  0
  1 24  1  0
  5 25  1  0
  7 26  1  0
  8 27  1  0
 14 28  1  0
 19 29  1  0
 19 30  1  0
M  CHG  1  22  -1
M  END
>  <UniqueID>  (82) 
81

>  <SMILES>  (82) 
NC(=O)c1cc2ccc(C(F)(F)F)cc2n1C(=O)CC(=O)[O-]

>  <Energy>  (82) 
68.46958012367496

>  <Genealogy>  (82) 
NC(=O)c1cc2ccc(C(F)(F)F)cc2n1C(=O)CC(=O)[O-] (protonated)
NC(=O)c1cc2ccc(C(F)(F)F)cc2n1C(=O)CC(=O)[O-] (3D coordinates assigned)
NC(=O)c1cc2ccc(C(F)(F)F)cc2n1C(=O)CC(=O)[O-] (optimized conformer: 68.46958012367496 kcal/mol)

>  <smiles>  (82) 
NC(=O)c1cc2ccc(C(F)(F)F)cc2n1C(=O)CC(=O)O

>  <score_type>  (82) 
oracle

>  <origin>  (82) 
adg

>  <m_score__min__energy>  (82) 
-6.0300000000000002

>  <m_primary>  (82) 
energy

$$$$
82:0
     RDKit          3D

 35 36  0  0  0  0  0  0  0  0999 V2000
  149.9720  150.7230  134.6020 C   0  0  0  0  0  0  0  0  0  0  0  0
  150.5300  150.7560  133.3070 O   0  0  0  0  0  0  0  0  0  0  0  0
  149.9570  151.8030  132.5440 C   0  0  0  0  0  0  0  0  0  0  0  0
  148.6530  152.2630  133.1870 C   0  0  0  0  0  0  0  0  0  0  0  0
  148.1920  153.4460  132.5450 O   0  0  0  0  0  0  0  0  0  0  0  0
  148.8170  154.6860  132.6960 C   0  0  0  0  0  0  0  0  0  0  0  0
  149.9750  154.8740  132.2330 O   0  0  0  0  0  0  0  0  0  0  0  0
  148.1270  155.7520  133.3680 N   0  0  0  0  0  0  0  0  0  0  0  0
  147.2390  155.6470  134.3980 C   0  0  0  0  0  0  0  0  0  0  0  0
  146.9370  154.4180  135.1620 C   0  0  0  0  0  0  0  0  0  0  0  0
  146.1680  153.3660  134.5860 N   0  0  0  0  0  0  0  0  0  0  0  0
  147.4090  154.2740  136.3220 O   0  0  0  0  0  0  0  0  0  0  0  0
  146.6900  156.8900  134.7020 C   0  0  0  0  0  0  0  0  0  0  0  0
  147.2790  157.7720  133.8240 C   0  0  0  0  0  0  0  0  0  0  0  0
  147.0980  159.1430  133.6810 C   0  0  0  0  0  0  0  0  0  0  0  0
  147.8180  159.8010  132.6710 C   0  0  0  0  0  0  0  0  0  0  0  0
  148.6830  159.0790  131.8080 C   0  0  0  0  0  0  0  0  0  0  0  0
  149.4780  159.8020  130.7510 C   0  0  0  0  0  0  0  0  0  0  0  0
  149.4290  161.1700  130.9520 F   0  0  0  0  0  0  0  0  0  0  0  0
  150.7950  159.3850  130.8080 F   0  0  0  0  0  0  0  0  0  0  0  0
  148.9740  159.5330  129.4900 F   0  0  0  0  0  0  0  0  0  0  0  0
  148.8560  157.6880  132.0010 C   0  0  0  0  0  0  0  0  0  0  0  0
  148.1410  157.0620  133.0290 C   0  0  0  0  0  0  0  0  0  0  0  0
  150.7775  150.7706  135.3496 H   0  0  0  0  0  0  0  0  0  0  0  0
  149.2987  151.5829  134.7332 H   0  0  0  0  0  0  0  0  0  0  0  0
  149.4047  149.7898  134.7332 H   0  0  0  0  0  0  0  0  0  0  0  0
  150.6595  152.6483  132.4999 H   0  0  0  0  0  0  0  0  0  0  0  0
  149.7493  151.4374  131.5276 H   0  0  0  0  0  0  0  0  0  0  0  0
  147.8955  151.4721  133.0835 H   0  0  0  0  0  0  0  0  0  0  0  0
  148.8266  152.4715  134.2530 H   0  0  0  0  0  0  0  0  0  0  0  0
  146.5960  152.6970  133.9080 H   0  0  0  0  0  0  0  0  0  0  0  0
  145.9447  157.1185  135.4781 H   0  0  0  0  0  0  0  0  0  0  0  0
  146.4115  159.6956  134.3393 H   0  0  0  0  0  0  0  0  0  0  0  0
  147.7104  160.8887  132.5472 H   0  0  0  0  0  0  0  0  0  0  0  0
  149.5370  157.1114  131.3578 H   0  0  0  0  0  0  0  0  0  0  0  0
  1  2  1  0
  2  3  1  0
  3  4  1  0
  4  5  1  0
  5  6  1  0
  6  7  2  0
  6  8  1  0
  8  9  1  0
  9 10  1  0
 10 11  1  0
 10 12  2  0
  9 13  2  0
 13 14  1  0
 14 15  2  0
 15 16  1  0
 16 17  2  0
 17 18  1  0
 18 19  1  0
 18 20  1  0
 18 21  1  0
 17 22  1  0
 22 23  2  0
 23  8  1  0
 23 14  1  0
  1 24  1  0
  1 25  1  0
  1 26  1  0
  3 27  1  0
  3 28  1  0
  4 29  1  0
  4 30  1  0
 11 31  1  0
 13 32  1  0
 15 33  1  0
 16 34  1  0
 22 35  1  0
M  CHG  1  11  -1
M  END
>  <UniqueID>  (83) 
82

>  <SMILES>  (83) 
COCCOC(=O)n1c(C([NH-])=O)cc2ccc(C(F)(F)F)cc21

>  <Energy>  (83) 
72.5618975393893

>  <Genealogy>  (83) 
COCCOC(=O)n1c(C([NH-])=O)cc2ccc(C(F)(F)F)cc21 (protonated)
COCCOC(=O)n1c(C([NH-])=O)cc2ccc(C(F)(F)F)cc21 (3D coordinates assigned)
COCCOC(=O)n1c(C([NH-])=O)cc2ccc(C(F)(F)F)cc21 (optimized conformer: 72.5618975393893 kcal/mol)

>  <smiles>  (83) 
COCCOC(=O)n1c(C(N)=O)cc2ccc(C(F)(F)F)cc21

>  <score_type>  (83) 
oracle

>  <origin>  (83) 
adg

>  <m_score__min__energy>  (83) 
-5.4800000000000004

>  <m_primary>  (83) 
energy

$$$$
83:0
     RDKit          3D

 53 55  0  0  0  0  0  0  0  0999 V2000
  149.5430  158.8360  132.9240 N   0  0  0  0  0  0  0  0  0  0  0  0
  148.3070  159.5030  132.6630 C   0  0  0  0  0  0  0  0  0  0  0  0
  148.3240  160.6560  132.1540 O   0  0  0  0  0  0  0  0  0  0  0  0
  147.0160  158.8960  133.0380 C   0  0  0  0  0  0  0  0  0  0  0  0
  145.7870  159.5100  132.8120 C   0  0  0  0  0  0  0  0  0  0  0  0
  144.8520  158.6610  133.3560 C   0  0  0  0  0  0  0  0  0  0  0  0
  143.4650  158.7690  133.3960 C   0  0  0  0  0  0  0  0  0  0  0  0
  142.7390  157.7200  133.9820 C   0  0  0  0  0  0  0  0  0  0  0  0
  143.4070  156.5870  134.5090 C   0  0  0  0  0  0  0  0  0  0  0  0
  142.6160  155.4440  135.0940 C   0  0  0  0  0  0  0  0  0  0  0  0
  141.6010  154.8740  134.0920 C   0  0  0  0  0  0  0  0  0  0  0  0
  142.2640  153.9840  133.0330 C   0  0  0  0  0  0  0  0  0  0  0  0
  141.4190  152.7820  132.7590 C   0  0  0  0  0  0  0  0  0  0  0  0
  140.1740  152.8350  132.9540 O   0  0  0  0  0  0  0  0  0  0  0  0
  142.0160  151.6270  132.2390 O   0  0  0  0  0  0  0  0  0  0  0  0
  142.0770  150.3840  132.9360 C   0  0  0  0  0  0  0  0  0  0  0  0
  141.9790  149.2060  131.9610 C   0  0  0  0  0  0  0  0  0  0  0  0
  140.6870  148.4990  132.1200 N   0  0  0  0  0  0  0  0  0  0  0  0
  139.6260  149.3740  132.6730 C   0  0  0  0  0  0  0  0  0  0  0  0
  138.7870  150.0540  131.5720 C   0  0  0  0  0  0  0  0  0  0  0  0
  139.5390  150.1870  130.3850 O   0  0  0  0  0  0  0  0  0  0  0  0
  139.7900  148.9120  129.8210 C   0  0  0  0  0  0  0  0  0  0  0  0
  140.2440  147.8630  130.8650 C   0  0  0  0  0  0  0  0  0  0  0  0
  144.8160  156.5090  134.4460 C   0  0  0  0  0  0  0  0  0  0  0  0
  145.5160  157.5780  133.8730 C   0  0  0  0  0  0  0  0  0  0  0  0
  146.8500  157.7060  133.6820 N   0  0  0  0  0  0  0  0  0  0  0  0
  147.8600  156.7290  133.9810 C   0  0  0  0  0  0  0  0  0  0  0  0
  148.1070  156.4090  135.1730 O   0  0  0  0  0  0  0  0  0  0  0  0
  148.5730  156.1210  132.9550 O   0  0  0  0  0  0  0  0  0  0  0  0
  150.4450  159.2630  132.6160 H   0  0  0  0  0  0  0  0  0  0  0  0
  149.5730  157.9630  133.4950 H   0  0  0  0  0  0  0  0  0  0  0  0
  145.6032  160.4694  132.3063 H   0  0  0  0  0  0  0  0  0  0  0  0
  142.9531  159.6497  132.9810 H   0  0  0  0  0  0  0  0  0  0  0  0
  141.6417  157.7782  134.0325 H   0  0  0  0  0  0  0  0  0  0  0  0
  143.3119  154.6445  135.3882 H   0  0  0  0  0  0  0  0  0  0  0  0
  142.0586  155.8259  135.9620 H   0  0  0  0  0  0  0  0  0  0  0  0
  140.8588  154.2765  134.6417 H   0  0  0  0  0  0  0  0  0  0  0  0
  141.1299  155.7211  133.5720 H   0  0  0  0  0  0  0  0  0  0  0  0
  142.3890  154.5586  132.1034 H   0  0  0  0  0  0  0  0  0  0  0  0
  143.2439  153.6532  133.4078 H   0  0  0  0  0  0  0  0  0  0  0  0
  143.0308  150.3227  133.4805 H   0  0  0  0  0  0  0  0  0  0  0  0
  141.2309  150.3318  133.6370 H   0  0  0  0  0  0  0  0  0  0  0  0
  142.0598  149.5827  130.9307 H   0  0  0  0  0  0  0  0  0  0  0  0
  142.7959  148.5012  132.1756 H   0  0  0  0  0  0  0  0  0  0  0  0
  138.9580  148.7652  133.3000 H   0  0  0  0  0  0  0  0  0  0  0  0
  140.1172  150.1668  133.2562 H   0  0  0  0  0  0  0  0  0  0  0  0
  137.8950  149.4434  131.3683 H   0  0  0  0  0  0  0  0  0  0  0  0
  138.4918  151.0553  131.9188 H   0  0  0  0  0  0  0  0  0  0  0  0
  138.8665  148.5530  129.3432 H   0  0  0  0  0  0  0  0  0  0  0  0
  140.6101  149.0299  129.0975 H   0  0  0  0  0  0  0  0  0  0  0  0
  139.4016  147.1904  131.0842 H   0  0  0  0  0  0  0  0  0  0  0  0
  141.0940  147.3059  130.4442 H   0  0  0  0  0  0  0  0  0  0  0  0
  145.3500  155.6305  134.8372 H   0  0  0  0  0  0  0  0  0  0  0  0
  1  2  1  0
  2  3  2  0
  2  4  1  0
  4  5  2  0
  5  6  1  0
  6  7  2  0
  7  8  1  0
  8  9  2  0
  9 10  1  0
 10 11  1  0
 11 12  1  0
 12 13  1  0
 13 14  2  0
 13 15  1  0
 15 16  1  0
 16 17  1  0
 17 18  1  0
 18 19  1  0
 19 20  1  0
 20 21  1  0
 21 22  1  0
 22 23  1  0
  9 24  1  0
 24 25  2  0
 25 26  1  0
 26 27  1  0
 27 28  2  0
 27 29  1  0
 26  4  1  0
 25  6  1  0
 23 18  1  0
  1 30  1  0
  1 31  1  0
  5 32  1  0
  7 33  1  0
  8 34  1  0
 10 35  1  0
 10 36  1  0
 11 37  1  0
 11 38  1  0
 12 39  1  0
 12 40  1  0
 16 41  1  0
 16 42  1  0
 17 43  1  0
 17 44  1  0
 19 45  1  0
 19 46  1  0
 20 47  1  0
 20 48  1  0
 22 49  1  0
 22 50  1  0
 23 51  1  0
 23 52  1  0
 24 53  1  0
M  CHG  1  29  -1
M  END
>  <UniqueID>  (84) 
83

>  <SMILES>  (84) 
NC(=O)c1cc2ccc(CCCC(=O)OCCN3CCOCC3)cc2n1C(=O)[O-]

>  <Energy>  (84) 
97.6544709181406

>  <Genealogy>  (84) 
NC(=O)c1cc2ccc(CCCC(=O)OCCN3CCOCC3)cc2n1C(=O)[O-] (protonated)
NC(=O)c1cc2ccc(CCCC(=O)OCCN3CCOCC3)cc2n1C(=O)[O-] (3D coordinates assigned)
NC(=O)c1cc2ccc(CCCC(=O)OCCN3CCOCC3)cc2n1C(=O)[O-] (nonaromatic ring conformer: 97.6544709181406 kcal/mol)

>  <smiles>  (84) 
NC(=O)c1cc2ccc(CCCC(=O)OCCN3CCOCC3)cc2n1C(=O)O

>  <score_type>  (84) 
oracle

>  <origin>  (84) 
adg

>  <m_score__min__energy>  (84) 
-7.7699999999999996

>  <m_primary>  (84) 
energy

$$$$
84:0
     RDKit          3D

 51 52  0  0  0  0  0  0  0  0999 V2000
  148.5990  153.0380  137.4270 C   0  0  0  0  0  0  0  0  0  0  0  0
  147.4040  152.9900  136.6560 O   0  0  0  0  0  0  0  0  0  0  0  0
  146.7880  154.1400  136.1550 C   0  0  0  0  0  0  0  0  0  0  0  0
  147.4300  155.2230  136.0550 O   0  0  0  0  0  0  0  0  0  0  0  0
  145.3530  154.0870  135.7440 C   0  0  0  0  0  0  0  0  0  0  0  0
  145.2570  153.4730  134.4630 O   0  0  0  0  0  0  0  0  0  0  0  0
  145.5140  154.1570  133.2670 C   0  0  0  0  0  0  0  0  0  0  0  0
  144.8650  153.8520  132.2260 O   0  0  0  0  0  0  0  0  0  0  0  0
  146.5270  155.1880  133.2290 N   0  0  0  0  0  0  0  0  0  0  0  0
  147.8700  155.0090  133.0630 C   0  0  0  0  0  0  0  0  0  0  0  0
  148.5750  153.7150  133.0260 C   0  0  0  0  0  0  0  0  0  0  0  0
  148.1170  152.6080  133.8050 N   0  0  0  0  0  0  0  0  0  0  0  0
  149.6230  153.5990  132.3370 O   0  0  0  0  0  0  0  0  0  0  0  0
  148.5290  156.2250  132.9400 C   0  0  0  0  0  0  0  0  0  0  0  0
  147.5500  157.1790  133.0590 C   0  0  0  0  0  0  0  0  0  0  0  0
  147.6560  158.5680  133.0220 C   0  0  0  0  0  0  0  0  0  0  0  0
  146.4810  159.3230  133.1640 C   0  0  0  0  0  0  0  0  0  0  0  0
  145.2370  158.6790  133.3360 C   0  0  0  0  0  0  0  0  0  0  0  0
  144.0390  159.4630  133.4820 C   0  0  0  0  0  0  0  0  0  0  0  0
  143.0300  160.1110  133.6050 C   0  0  0  0  0  0  0  0  0  0  0  0
  141.7980  160.8920  133.7570 C   0  0  0  0  0  0  0  0  0  0  0  0
  140.5970  160.1090  133.2210 C   0  0  0  0  0  0  0  0  0  0  0  0
  140.5620  158.7660  133.8150 N   0  0  0  0  0  0  0  0  0  0  0  0
  140.7860  157.5860  132.9760 C   0  0  0  0  0  0  0  0  0  0  0  0
  140.2700  158.5890  135.2140 C   0  0  0  0  0  0  0  0  0  0  0  0
  139.1120  158.2410  135.5810 O   0  0  0  0  0  0  0  0  0  0  0  0
  141.2740  158.8030  136.1660 O   0  0  0  0  0  0  0  0  0  0  0  0
  141.0060  159.3350  137.4580 C   0  0  0  0  0  0  0  0  0  0  0  0
  145.1600  157.2720  133.3680 C   0  0  0  0  0  0  0  0  0  0  0  0
  146.3480  156.5350  133.2310 C   0  0  0  0  0  0  0  0  0  0  0  0
  148.3454  153.0278  138.4973 H   0  0  0  0  0  0  0  0  0  0  0  0
  149.2237  152.1642  137.1898 H   0  0  0  0  0  0  0  0  0  0  0  0
  149.1516  153.9591  137.1898 H   0  0  0  0  0  0  0  0  0  0  0  0
  144.7813  153.4997  136.4776 H   0  0  0  0  0  0  0  0  0  0  0  0
  144.9432  155.1068  135.6975 H   0  0  0  0  0  0  0  0  0  0  0  0
  148.5920  151.6800  133.7290 H   0  0  0  0  0  0  0  0  0  0  0  0
  147.3190  152.7150  134.4750 H   0  0  0  0  0  0  0  0  0  0  0  0
  149.6051  156.3885  132.7812 H   0  0  0  0  0  0  0  0  0  0  0  0
  148.6312  159.0582  132.8856 H   0  0  0  0  0  0  0  0  0  0  0  0
  146.5301  160.4217  133.1411 H   0  0  0  0  0  0  0  0  0  0  0  0
  141.6392  161.1137  134.8227 H   0  0  0  0  0  0  0  0  0  0  0  0
  141.8968  161.8268  133.1857 H   0  0  0  0  0  0  0  0  0  0  0  0
  139.6706  160.6440  133.4771 H   0  0  0  0  0  0  0  0  0  0  0  0
  140.6870  160.0164  132.1286 H   0  0  0  0  0  0  0  0  0  0  0  0
  140.9528  156.7072  133.6162 H   0  0  0  0  0  0  0  0  0  0  0  0
  139.9043  157.4149  132.3409 H   0  0  0  0  0  0  0  0  0  0  0  0
  141.6691  157.7499  132.3409 H   0  0  0  0  0  0  0  0  0  0  0  0
  141.3606  158.6310  138.2252 H   0  0  0  0  0  0  0  0  0  0  0  0
  141.5272  160.2967  137.5739 H   0  0  0  0  0  0  0  0  0  0  0  0
  139.9230  159.4886  137.5739 H   0  0  0  0  0  0  0  0  0  0  0  0
  144.1932  156.7634  133.4971 H   0  0  0  0  0  0  0  0  0  0  0  0
  1  2  1  0
  2  3  1  0
  3  4  2  0
  3  5  1  0
  5  6  1  0
  6  7  1  0
  7  8  2  0
  7  9  1  0
  9 10  1  0
 10 11  1  0
 11 12  1  0
 11 13  2  0
 10 14  2  0
 14 15  1  0
 15 16  2  0
 16 17  1  0
 17 18  2  0
 18 19  1  0
 19 20  3  0
 20 21  1  0
 21 22  1  0
 22 23  1  0
 23 24  1  0
 23 25  1  0
 25 26  2  0
 25 27  1  0
 27 28  1  0
 18 29  1  0
 29 30  2  0
 30  9  1  0
 30 15  1  0
  1 31  1  0
  1 32  1  0
  1 33  1  0
  5 34  1  0
  5 35  1  0
 12 36  1  0
 12 37  1  0
 14 38  1  0
 16 39  1  0
 17 40  1  0
 21 41  1  0
 21 42  1  0
 22 43  1  0
 22 44  1  0
 24 45  1  0
 24 46  1  0
 24 47  1  0
 28 48  1  0
 28 49  1  0
 28 50  1  0
 29 51  1  0
M  END
>  <UniqueID>  (85) 
84

>  <SMILES>  (85) 
COC(=O)COC(=O)n1c(C(N)=O)cc2ccc(C#CCCN(C)C(=O)OC)cc21

>  <Energy>  (85) 
74.30315484921113

>  <Genealogy>  (85) 
COC(=O)COC(=O)n1c(C(N)=O)cc2ccc(C#CCCN(C)C(=O)OC)cc21 (3D coordinates assigned)
COC(=O)COC(=O)n1c(C(N)=O)cc2ccc(C#CCCN(C)C(=O)OC)cc21 (optimized conformer: 74.30315484921113 kcal/mol)

>  <smiles>  (85) 
COC(=O)COC(=O)n1c(C(N)=O)cc2ccc(C#CCCN(C)C(=O)OC)cc21

>  <score_type>  (85) 
oracle

>  <origin>  (85) 
adg

>  <m_score__min__energy>  (85) 
-7.3300000000000001

>  <m_primary>  (85) 
energy

$$$$
85:0
     RDKit          3D

 31 32  0  0  0  0  0  0  0  0999 V2000
  141.0190  159.6780  132.3040 N   0  0  0  0  0  0  0  0  0  0  0  0
  140.5750  158.3840  132.7030 C   0  0  0  0  0  0  0  0  0  0  0  0
  139.3420  158.1470  132.8080 O   0  0  0  0  0  0  0  0  0  0  0  0
  141.5690  157.2990  132.9720 C   0  0  0  0  0  0  0  0  0  0  0  0
  142.8970  157.8020  132.8500 O   0  0  0  0  0  0  0  0  0  0  0  0
  143.5230  158.5680  133.8410 C   0  0  0  0  0  0  0  0  0  0  0  0
  142.9450  158.7820  134.9410 O   0  0  0  0  0  0  0  0  0  0  0  0
  144.8410  159.0910  133.6100 N   0  0  0  0  0  0  0  0  0  0  0  0
  145.2390  160.3950  133.6200 C   0  0  0  0  0  0  0  0  0  0  0  0
  144.3540  161.5730  133.7430 C   0  0  0  0  0  0  0  0  0  0  0  0
  142.9470  161.4260  133.5620 N   0  0  0  0  0  0  0  0  0  0  0  0
  144.8220  162.7030  134.0410 O   0  0  0  0  0  0  0  0  0  0  0  0
  146.6140  160.4880  133.4140 C   0  0  0  0  0  0  0  0  0  0  0  0
  147.0480  159.1890  133.2670 C   0  0  0  0  0  0  0  0  0  0  0  0
  148.3320  158.6950  133.0590 C   0  0  0  0  0  0  0  0  0  0  0  0
  148.4960  157.3020  132.9790 C   0  0  0  0  0  0  0  0  0  0  0  0
  147.3810  156.4320  133.0950 C   0  0  0  0  0  0  0  0  0  0  0  0
  147.5790  154.9380  133.0690 C   0  0  0  0  0  0  0  0  0  0  0  0
  146.4320  154.3350  132.5890 F   0  0  0  0  0  0  0  0  0  0  0  0
  148.6430  154.5990  132.2500 F   0  0  0  0  0  0  0  0  0  0  0  0
  147.8430  154.4580  134.3400 F   0  0  0  0  0  0  0  0  0  0  0  0
  146.0960  156.9750  133.3300 C   0  0  0  0  0  0  0  0  0  0  0  0
  145.9600  158.3660  133.3880 C   0  0  0  0  0  0  0  0  0  0  0  0
  142.0380  159.8960  132.2340 H   0  0  0  0  0  0  0  0  0  0  0  0
  141.4191  156.9144  133.9916 H   0  0  0  0  0  0  0  0  0  0  0  0
  141.4239  156.4917  132.2391 H   0  0  0  0  0  0  0  0  0  0  0  0
  142.4840  160.4980  133.6870 H   0  0  0  0  0  0  0  0  0  0  0  0
  147.2229  161.4034  133.3767 H   0  0  0  0  0  0  0  0  0  0  0  0
  149.1918  159.3739  132.9603 H   0  0  0  0  0  0  0  0  0  0  0  0
  149.5004  156.8808  132.8247 H   0  0  0  0  0  0  0  0  0  0  0  0
  145.2237  156.3184  133.4641 H   0  0  0  0  0  0  0  0  0  0  0  0
  1  2  1  0
  2  3  2  0
  2  4  1  0
  4  5  1  0
  5  6  1  0
  6  7  2  0
  6  8  1  0
  8  9  1  0
  9 10  1  0
 10 11  1  0
 10 12  2  0
  9 13  2  0
 13 14  1  0
 14 15  2  0
 15 16  1  0
 16 17  2  0
 17 18  1  0
 18 19  1  0
 18 20  1  0
 18 21  1  0
 17 22  1  0
 22 23  2  0
 23  8  1  0
 23 14  1  0
  1 24  1  0
  4 25  1  0
  4 26  1  0
 11 27  1  0
 13 28  1  0
 15 29  1  0
 16 30  1  0
 22 31  1  0
M  CHG  2   1  -1  11  -1
M  END
>  <UniqueID>  (86) 
85

>  <SMILES>  (86) 
[NH-]C(=O)COC(=O)n1c(C([NH-])=O)cc2ccc(C(F)(F)F)cc21

>  <Energy>  (86) 
67.74437752155653

>  <Genealogy>  (86) 
[NH-]C(=O)COC(=O)n1c(C([NH-])=O)cc2ccc(C(F)(F)F)cc21 (protonated)
[NH-]C(=O)COC(=O)n1c(C([NH-])=O)cc2ccc(C(F)(F)F)cc21 (3D coordinates assigned)
[NH-]C(=O)COC(=O)n1c(C([NH-])=O)cc2ccc(C(F)(F)F)cc21 (optimized conformer: 67.74437752155653 kcal/mol)

>  <smiles>  (86) 
NC(=O)COC(=O)n1c(C(N)=O)cc2ccc(C(F)(F)F)cc21

>  <score_type>  (86) 
oracle

>  <origin>  (86) 
adg

>  <m_score__min__energy>  (86) 
-5.3700000000000001

>  <m_primary>  (86) 
energy

$$$$
86:0
     RDKit          3D

 27 28  0  0  0  0  0  0  0  0999 V2000
  145.6050  160.4800  132.8390 N   0  0  0  0  0  0  0  0  0  0  0  0
  145.0830  159.3600  133.5580 C   0  0  0  0  0  0  0  0  0  0  0  0
  144.1110  159.5370  134.3390 O   0  0  0  0  0  0  0  0  0  0  0  0
  145.6580  158.0060  133.3810 C   0  0  0  0  0  0  0  0  0  0  0  0
  144.9140  156.8260  133.3860 C   0  0  0  0  0  0  0  0  0  0  0  0
  145.8350  155.8130  133.2410 C   0  0  0  0  0  0  0  0  0  0  0  0
  145.6470  154.4370  133.1480 C   0  0  0  0  0  0  0  0  0  0  0  0
  146.7790  153.6280  132.9560 C   0  0  0  0  0  0  0  0  0  0  0  0
  148.0750  154.2020  132.8700 C   0  0  0  0  0  0  0  0  0  0  0  0
  149.2750  153.3300  132.6020 C   0  0  0  0  0  0  0  0  0  0  0  0
  149.0280  152.4700  131.5450 F   0  0  0  0  0  0  0  0  0  0  0  0
  150.3780  154.1030  132.2830 F   0  0  0  0  0  0  0  0  0  0  0  0
  149.5570  152.5850  133.7320 F   0  0  0  0  0  0  0  0  0  0  0  0
  148.2200  155.6070  132.9450 C   0  0  0  0  0  0  0  0  0  0  0  0
  147.0770  156.3850  133.1560 C   0  0  0  0  0  0  0  0  0  0  0  0
  146.9850  157.7290  133.2490 N   0  0  0  0  0  0  0  0  0  0  0  0
  148.0650  158.6700  133.1390 C   0  0  0  0  0  0  0  0  0  0  0  0
  148.6370  159.0870  134.1810 O   0  0  0  0  0  0  0  0  0  0  0  0
  148.5260  159.1400  131.8240 C   0  0  0  0  0  0  0  0  0  0  0  0
  149.5960  158.6970  131.3280 O   0  0  0  0  0  0  0  0  0  0  0  0
  147.7920  160.0920  131.1280 O   0  0  0  0  0  0  0  0  0  0  0  0
  146.4490  160.3950  132.2330 H   0  0  0  0  0  0  0  0  0  0  0  0
  145.1660  161.4210  132.9470 H   0  0  0  0  0  0  0  0  0  0  0  0
  143.8230  156.7261  133.4848 H   0  0  0  0  0  0  0  0  0  0  0  0
  144.6419  153.9963  133.2226 H   0  0  0  0  0  0  0  0  0  0  0  0
  146.6603  152.5377  132.8713 H   0  0  0  0  0  0  0  0  0  0  0  0
  149.2090  156.0770  132.8398 H   0  0  0  0  0  0  0  0  0  0  0  0
  1  2  1  0
  2  3  2  0
  2  4  1  0
  4  5  2  0
  5  6  1  0
  6  7  2  0
  7  8  1  0
  8  9  2  0
  9 10  1  0
 10 11  1  0
 10 12  1  0
 10 13  1  0
  9 14  1  0
 14 15  2  0
 15 16  1  0
 16 17  1  0
 17 18  2  0
 17 19  1  0
 19 20  2  0
 19 21  1  0
 16  4  1  0
 15  6  1  0
  1 22  1  0
  1 23  1  0
  5 24  1  0
  7 25  1  0
  8 26  1  0
 14 27  1  0
M  CHG  1  21  -1
M  END
>  <UniqueID>  (87) 
86

>  <SMILES>  (87) 
NC(=O)c1cc2ccc(C(F)(F)F)cc2n1C(=O)C(=O)[O-]

>  <Energy>  (87) 
67.22472614921124

>  <Genealogy>  (87) 
NC(=O)c1cc2ccc(C(F)(F)F)cc2n1C(=O)C(=O)[O-] (protonated)
NC(=O)c1cc2ccc(C(F)(F)F)cc2n1C(=O)C(=O)[O-] (3D coordinates assigned)
NC(=O)c1cc2ccc(C(F)(F)F)cc2n1C(=O)C(=O)[O-] (optimized conformer: 67.22472614921124 kcal/mol)

>  <smiles>  (87) 
NC(=O)c1cc2ccc(C(F)(F)F)cc2n1C(=O)C(=O)O

>  <score_type>  (87) 
oracle

>  <origin>  (87) 
adg

>  <m_score__min__energy>  (87) 
-5.7300000000000004

>  <m_primary>  (87) 
energy

$$$$
87:0
     RDKit          3D

 30 31  0  0  0  0  0  0  0  0999 V2000
  144.0020  163.8420  133.7290 C   0  0  0  0  0  0  0  0  0  0  0  0
  144.1440  162.6450  133.7360 C   0  0  0  0  0  0  0  0  0  0  0  0
  144.3130  161.2160  133.7420 C   0  0  0  0  0  0  0  0  0  0  0  0
  143.1820  160.3710  133.8420 C   0  0  0  0  0  0  0  0  0  0  0  0
  143.3350  158.9740  133.8590 C   0  0  0  0  0  0  0  0  0  0  0  0
  144.6260  158.4590  133.7680 C   0  0  0  0  0  0  0  0  0  0  0  0
  145.0660  157.1540  133.7830 C   0  0  0  0  0  0  0  0  0  0  0  0
  146.4550  157.2310  133.6790 C   0  0  0  0  0  0  0  0  0  0  0  0
  147.3450  156.0530  133.6200 C   0  0  0  0  0  0  0  0  0  0  0  0
  148.7430  156.2280  133.3990 N   0  0  0  0  0  0  0  0  0  0  0  0
  146.8870  154.8910  133.7770 O   0  0  0  0  0  0  0  0  0  0  0  0
  146.8530  158.5300  133.5970 N   0  0  0  0  0  0  0  0  0  0  0  0
  148.1960  159.0310  133.5180 C   0  0  0  0  0  0  0  0  0  0  0  0
  148.9010  159.0630  134.5640 O   0  0  0  0  0  0  0  0  0  0  0  0
  148.7560  159.5010  132.2260 C   0  0  0  0  0  0  0  0  0  0  0  0
  149.6210  158.7430  131.5430 C   0  0  0  0  0  0  0  0  0  0  0  0
  148.3970  160.8630  131.6970 C   0  0  0  0  0  0  0  0  0  0  0  0
  145.7260  159.2690  133.6580 C   0  0  0  0  0  0  0  0  0  0  0  0
  145.6060  160.6630  133.6550 C   0  0  0  0  0  0  0  0  0  0  0  0
  143.8724  164.9343  133.7226 H   0  0  0  0  0  0  0  0  0  0  0  0
  142.1759  160.8109  133.9069 H   0  0  0  0  0  0  0  0  0  0  0  0
  142.4630  158.3085  133.9415 H   0  0  0  0  0  0  0  0  0  0  0  0
  144.4525  156.2443  133.8605 H   0  0  0  0  0  0  0  0  0  0  0  0
  149.2580  157.0290  133.8260 H   0  0  0  0  0  0  0  0  0  0  0  0
  150.0299  159.1008  130.5866 H   0  0  0  0  0  0  0  0  0  0  0  0
  149.9234  157.7618  131.9378 H   0  0  0  0  0  0  0  0  0  0  0  0
  148.2166  161.5475  132.5390 H   0  0  0  0  0  0  0  0  0  0  0  0
  149.2245  161.2475  131.0827 H   0  0  0  0  0  0  0  0  0  0  0  0
  147.4875  160.7897  131.0827 H   0  0  0  0  0  0  0  0  0  0  0  0
  146.4945  161.3079  133.5868 H   0  0  0  0  0  0  0  0  0  0  0  0
  1  2  3  0
  2  3  1  0
  3  4  2  0
  4  5  1  0
  5  6  2  0
  6  7  1  0
  7  8  2  0
  8  9  1  0
  9 10  1  0
  9 11  2  0
  8 12  1  0
 12 13  1  0
 13 14  2  0
 13 15  1  0
 15 16  2  0
 15 17  1  0
 12 18  1  0
 18 19  2  0
 19  3  1  0
 18  6  1  0
  1 20  1  0
  4 21  1  0
  5 22  1  0
  7 23  1  0
 10 24  1  0
 16 25  1  0
 16 26  1  0
 17 27  1  0
 17 28  1  0
 17 29  1  0
 19 30  1  0
M  CHG  1  10  -1
M  END
>  <UniqueID>  (88) 
87

>  <SMILES>  (88) 
C#Cc1ccc2cc(C([NH-])=O)n(C(=O)C(=C)C)c2c1

>  <Energy>  (88) 
66.69897640869686

>  <Genealogy>  (88) 
C#Cc1ccc2cc(C([NH-])=O)n(C(=O)C(=C)C)c2c1 (protonated)
C#Cc1ccc2cc(C([NH-])=O)n(C(=O)C(=C)C)c2c1 (3D coordinates assigned)
C#Cc1ccc2cc(C([NH-])=O)n(C(=O)C(=C)C)c2c1 (optimized conformer: 66.69897640869686 kcal/mol)

>  <smiles>  (88) 
C#Cc1ccc2cc(C(N)=O)n(C(=O)C(=C)C)c2c1

>  <score_type>  (88) 
oracle

>  <origin>  (88) 
adg

>  <m_score__min__energy>  (88) 
-6.7699999999999996

>  <m_primary>  (88) 
energy

$$$$
88:0
     RDKit          3D

 46 47  0  0  0  0  0  0  0  0999 V2000
  143.8080  152.0640  132.9350 C   0  0  0  0  0  0  0  0  0  0  0  0
  142.8170  153.1450  133.3950 C   0  0  0  0  0  0  0  0  0  0  0  0
  141.7600  152.4990  134.3140 C   0  0  0  0  0  0  0  0  0  0  0  0
  142.1880  153.6770  132.2540 O   0  0  0  0  0  0  0  0  0  0  0  0
  143.5690  154.2580  134.1650 C   0  0  0  0  0  0  0  0  0  0  0  0
  143.5420  155.4950  133.4530 O   0  0  0  0  0  0  0  0  0  0  0  0
  144.6870  156.1790  133.0310 C   0  0  0  0  0  0  0  0  0  0  0  0
  145.6260  155.5580  132.4600 O   0  0  0  0  0  0  0  0  0  0  0  0
  144.7830  157.5980  133.2280 N   0  0  0  0  0  0  0  0  0  0  0  0
  145.9060  158.3710  133.1830 C   0  0  0  0  0  0  0  0  0  0  0  0
  147.2920  157.8670  133.0620 C   0  0  0  0  0  0  0  0  0  0  0  0
  147.6790  157.0540  131.9520 N   0  0  0  0  0  0  0  0  0  0  0  0
  148.1550  158.1780  133.9240 O   0  0  0  0  0  0  0  0  0  0  0  0
  145.5800  159.7140  133.3640 C   0  0  0  0  0  0  0  0  0  0  0  0
  144.2140  159.7400  133.5270 C   0  0  0  0  0  0  0  0  0  0  0  0
  143.3570  160.8180  133.7290 C   0  0  0  0  0  0  0  0  0  0  0  0
  141.9810  160.5560  133.8330 C   0  0  0  0  0  0  0  0  0  0  0  0
  141.4890  159.2300  133.7330 C   0  0  0  0  0  0  0  0  0  0  0  0
  140.0070  158.9700  133.8060 C   0  0  0  0  0  0  0  0  0  0  0  0
  139.6870  157.5000  134.1190 C   0  0  0  0  0  0  0  0  0  0  0  0
  139.8330  156.5780  132.9030 C   0  0  0  0  0  0  0  0  0  0  0  0
  140.7500  155.5550  133.1760 O   0  0  0  0  0  0  0  0  0  0  0  0
  142.3900  158.1610  133.5270 C   0  0  0  0  0  0  0  0  0  0  0  0
  143.7570  158.4500  133.4410 C   0  0  0  0  0  0  0  0  0  0  0  0
  144.2542  151.5773  133.8148 H   0  0  0  0  0  0  0  0  0  0  0  0
  143.2775  151.3136  132.3305 H   0  0  0  0  0  0  0  0  0  0  0  0
  144.6016  152.5274  132.3305 H   0  0  0  0  0  0  0  0  0  0  0  0
  142.0360  152.6677  135.3654 H   0  0  0  0  0  0  0  0  0  0  0  0
  140.7767  152.9507  134.1160 H   0  0  0  0  0  0  0  0  0  0  0  0
  141.7135  151.4180  134.1160 H   0  0  0  0  0  0  0  0  0  0  0  0
  142.4360  154.6370  132.1890 H   0  0  0  0  0  0  0  0  0  0  0  0
  143.0917  154.3994  135.1459 H   0  0  0  0  0  0  0  0  0  0  0  0
  144.6183  153.9492  134.2817 H   0  0  0  0  0  0  0  0  0  0  0  0
  148.6690  156.7360  131.8570 H   0  0  0  0  0  0  0  0  0  0  0  0
  146.9810  156.7290  131.2480 H   0  0  0  0  0  0  0  0  0  0  0  0
  146.2689  160.5715  133.3743 H   0  0  0  0  0  0  0  0  0  0  0  0
  143.7456  161.8442  133.8049 H   0  0  0  0  0  0  0  0  0  0  0  0
  141.2786  161.3872  133.9935 H   0  0  0  0  0  0  0  0  0  0  0  0
  139.5756  159.6019  134.5963 H   0  0  0  0  0  0  0  0  0  0  0  0
  139.5753  159.2060  132.8222 H   0  0  0  0  0  0  0  0  0  0  0  0
  140.3731  157.1526  134.9055 H   0  0  0  0  0  0  0  0  0  0  0  0
  138.6354  157.4553  134.4387 H   0  0  0  0  0  0  0  0  0  0  0  0
  138.8550  156.1346  132.6643 H   0  0  0  0  0  0  0  0  0  0  0  0
  140.1981  157.1673  132.0489 H   0  0  0  0  0  0  0  0  0  0  0  0
  141.5310  155.7210  132.5870 H   0  0  0  0  0  0  0  0  0  0  0  0
  142.0260  157.1269  133.4364 H   0  0  0  0  0  0  0  0  0  0  0  0
  1  2  1  0
  2  3  1  0
  2  4  1  0
  2  5  1  0
  5  6  1  0
  6  7  1  0
  7  8  2  0
  7  9  1  0
  9 10  1  0
 10 11  1  0
 11 12  1  0
 11 13  2  0
 10 14  2  0
 14 15  1  0
 15 16  2  0
 16 17  1  0
 17 18  2  0
 18 19  1  0
 19 20  1  0
 20 21  1  0
 21 22  1  0
 18 23  1  0
 23 24  2  0
 24  9  1  0
 24 15  1  0
  1 25  1  0
  1 26  1  0
  1 27  1  0
  3 28  1  0
  3 29  1  0
  3 30  1  0
  4 31  1  0
  5 32  1  0
  5 33  1  0
 12 34  1  0
 12 35  1  0
 14 36  1  0
 16 37  1  0
 17 38  1  0
 19 39  1  0
 19 40  1  0
 20 41  1  0
 20 42  1  0
 21 43  1  0
 21 44  1  0
 22 45  1  0
 23 46  1  0
M  END
>  <UniqueID>  (89) 
88

>  <SMILES>  (89) 
CC(C)(O)COC(=O)n1c(C(N)=O)cc2ccc(CCCO)cc21

>  <Energy>  (89) 
74.79957802923069

>  <Genealogy>  (89) 
CC(C)(O)COC(=O)n1c(C(N)=O)cc2ccc(CCCO)cc21 (3D coordinates assigned)
CC(C)(O)COC(=O)n1c(C(N)=O)cc2ccc(CCCO)cc21 (optimized conformer: 74.79957802923069 kcal/mol)

>  <smiles>  (89) 
CC(C)(O)COC(=O)n1c(C(N)=O)cc2ccc(CCCO)cc21

>  <score_type>  (89) 
oracle

>  <origin>  (89) 
adg

>  <m_score__min__energy>  (89) 
-7.8399999999999999

>  <m_primary>  (89) 
energy

$$$$
89:0
     RDKit          3D

 37 38  0  0  0  0  0  0  0  0999 V2000
  147.8670  155.6940  132.9490 C   0  0  0  0  0  0  0  0  0  0  0  0
  148.4280  157.1070  132.8280 C   0  0  0  0  0  0  0  0  0  0  0  0
  147.3590  158.1290  133.1090 C   0  0  0  0  0  0  0  0  0  0  0  0
  147.6870  159.5070  133.1530 C   0  0  0  0  0  0  0  0  0  0  0  0
  146.6900  160.4740  133.3740 C   0  0  0  0  0  0  0  0  0  0  0  0
  145.3810  160.0330  133.5430 C   0  0  0  0  0  0  0  0  0  0  0  0
  144.2210  160.7490  133.7360 C   0  0  0  0  0  0  0  0  0  0  0  0
  143.2060  159.7960  133.8110 C   0  0  0  0  0  0  0  0  0  0  0  0
  141.7860  160.1300  134.0590 C   0  0  0  0  0  0  0  0  0  0  0  0
  141.2300  160.0450  135.3690 N   0  0  0  0  0  0  0  0  0  0  0  0
  141.0610  160.5200  133.1070 O   0  0  0  0  0  0  0  0  0  0  0  0
  143.7190  158.5420  133.6740 N   0  0  0  0  0  0  0  0  0  0  0  0
  143.0010  157.3010  133.6180 C   0  0  0  0  0  0  0  0  0  0  0  0
  143.2430  156.4830  132.6900 O   0  0  0  0  0  0  0  0  0  0  0  0
  141.9800  156.9770  134.6260 C   0  0  0  0  0  0  0  0  0  0  0  0
  142.1630  157.2980  135.8310 O   0  0  0  0  0  0  0  0  0  0  0  0
  140.7840  156.2980  134.2310 N   0  0  0  0  0  0  0  0  0  0  0  0
  139.8300  156.8260  133.2590 C   0  0  0  0  0  0  0  0  0  0  0  0
  138.9090  157.8580  133.9070 C   0  0  0  0  0  0  0  0  0  0  0  0
  139.2400  158.0250  135.2580 O   0  0  0  0  0  0  0  0  0  0  0  0
  145.0490  158.7040  133.5070 C   0  0  0  0  0  0  0  0  0  0  0  0
  146.0170  157.7210  133.2710 C   0  0  0  0  0  0  0  0  0  0  0  0
  147.7625  155.4308  134.0119 H   0  0  0  0  0  0  0  0  0  0  0  0
  146.8822  155.6475  132.4612 H   0  0  0  0  0  0  0  0  0  0  0  0
  148.5517  154.9846  132.4612 H   0  0  0  0  0  0  0  0  0  0  0  0
  149.2475  157.2334  133.5508 H   0  0  0  0  0  0  0  0  0  0  0  0
  148.7978  157.2544  131.8026 H   0  0  0  0  0  0  0  0  0  0  0  0
  148.7312  159.8232  133.0130 H   0  0  0  0  0  0  0  0  0  0  0  0
  146.9371  161.5452  133.4121 H   0  0  0  0  0  0  0  0  0  0  0  0
  144.1170  161.8413  133.8144 H   0  0  0  0  0  0  0  0  0  0  0  0
  141.0210  159.1190  135.8050 H   0  0  0  0  0  0  0  0  0  0  0  0
  140.3814  157.3021  132.4348 H   0  0  0  0  0  0  0  0  0  0  0  0
  139.2166  155.9951  132.8804 H   0  0  0  0  0  0  0  0  0  0  0  0
  139.0181  158.8201  133.3851 H   0  0  0  0  0  0  0  0  0  0  0  0
  137.8695  157.5055  133.8343 H   0  0  0  0  0  0  0  0  0  0  0  0
  140.2270  158.1140  135.2900 H   0  0  0  0  0  0  0  0  0  0  0  0
  145.7395  156.6581  133.2132 H   0  0  0  0  0  0  0  0  0  0  0  0
  1  2  1  0
  2  3  1  0
  3  4  2  0
  4  5  1  0
  5  6  2  0
  6  7  1  0
  7  8  2  0
  8  9  1  0
  9 10  1  0
  9 11  2  0
  8 12  1  0
 12 13  1  0
 13 14  2  0
 13 15  1  0
 15 16  2  0
 15 17  1  0
 17 18  1  0
 18 19  1  0
 19 20  1  0
 12 21  1  0
 21 22  2  0
 22  3  1  0
 21  6  1  0
  1 23  1  0
  1 24  1  0
  1 25  1  0
  2 26  1  0
  2 27  1  0
  4 28  1  0
  5 29  1  0
  7 30  1  0
 10 31  1  0
 18 32  1  0
 18 33  1  0
 19 34  1  0
 19 35  1  0
 20 36  1  0
 22 37  1  0
M  CHG  2  10  -1  17  -1
M  END
>  <UniqueID>  (90) 
89

>  <SMILES>  (90) 
CCc1ccc2cc(C([NH-])=O)n(C(=O)C(=O)[N-]CCO)c2c1

>  <Energy>  (90) 
68.87961715138916

>  <Genealogy>  (90) 
CCc1ccc2cc(C([NH-])=O)n(C(=O)C(=O)[N-]CCO)c2c1 (protonated)
CCc1ccc2cc(C([NH-])=O)n(C(=O)C(=O)[N-]CCO)c2c1 (3D coordinates assigned)
CCc1ccc2cc(C([NH-])=O)n(C(=O)C(=O)[N-]CCO)c2c1 (optimized conformer: 68.87961715138916 kcal/mol)

>  <smiles>  (90) 
CCc1ccc2cc(C(N)=O)n(C(=O)C(=O)NCCO)c2c1

>  <score_type>  (90) 
oracle

>  <origin>  (90) 
adg

>  <m_score__min__energy>  (90) 
-5.6299999999999999

>  <m_primary>  (90) 
energy

$$$$
90:0
     RDKit          3D

 36 37  0  0  0  0  0  0  0  0999 V2000
  140.2750  158.6720  132.7600 C   0  0  0  0  0  0  0  0  0  0  0  0
  140.2280  159.3840  133.9900 O   0  0  0  0  0  0  0  0  0  0  0  0
  141.0570  159.0710  135.0720 C   0  0  0  0  0  0  0  0  0  0  0  0
  140.9450  159.6860  136.1680 O   0  0  0  0  0  0  0  0  0  0  0  0
  142.1150  158.0280  134.9100 C   0  0  0  0  0  0  0  0  0  0  0  0
  143.3630  158.6470  134.3440 C   0  0  0  0  0  0  0  0  0  0  0  0
  143.4250  160.0460  134.1240 C   0  0  0  0  0  0  0  0  0  0  0  0
  144.5930  160.6390  133.6160 C   0  0  0  0  0  0  0  0  0  0  0  0
  145.6830  159.8130  133.3540 C   0  0  0  0  0  0  0  0  0  0  0  0
  146.9230  160.1200  132.8410 C   0  0  0  0  0  0  0  0  0  0  0  0
  147.6110  158.9090  132.7920 C   0  0  0  0  0  0  0  0  0  0  0  0
  149.0270  158.7960  132.3830 C   0  0  0  0  0  0  0  0  0  0  0  0
  149.6470  157.5220  132.2300 N   0  0  0  0  0  0  0  0  0  0  0  0
  149.7130  159.8400  132.2120 O   0  0  0  0  0  0  0  0  0  0  0  0
  146.8240  157.8930  133.2460 N   0  0  0  0  0  0  0  0  0  0  0  0
  147.1290  156.4910  133.2890 C   0  0  0  0  0  0  0  0  0  0  0  0
  147.2120  155.8320  132.2170 O   0  0  0  0  0  0  0  0  0  0  0  0
  147.3120  155.8590  134.5240 O   0  0  0  0  0  0  0  0  0  0  0  0
  147.3580  154.4430  134.6790 C   0  0  0  0  0  0  0  0  0  0  0  0
  146.5120  154.0190  135.8380 C   0  0  0  0  0  0  0  0  0  0  0  0
  145.3470  154.4770  135.9740 O   0  0  0  0  0  0  0  0  0  0  0  0
  147.0030  153.0980  136.7550 O   0  0  0  0  0  0  0  0  0  0  0  0
  145.6490  158.4630  133.5890 C   0  0  0  0  0  0  0  0  0  0  0  0
  144.4920  157.8430  134.0780 C   0  0  0  0  0  0  0  0  0  0  0  0
  140.3462  157.5933  132.9632 H   0  0  0  0  0  0  0  0  0  0  0  0
  139.3614  158.8768  132.1826 H   0  0  0  0  0  0  0  0  0  0  0  0
  141.1538  158.9951  132.1826 H   0  0  0  0  0  0  0  0  0  0  0  0
  142.3411  157.5828  135.8901 H   0  0  0  0  0  0  0  0  0  0  0  0
  141.7533  157.2497  134.2220 H   0  0  0  0  0  0  0  0  0  0  0  0
  142.5507  160.6730  134.3531 H   0  0  0  0  0  0  0  0  0  0  0  0
  144.6448  161.7221  133.4310 H   0  0  0  0  0  0  0  0  0  0  0  0
  147.2921  161.1100  132.5350 H   0  0  0  0  0  0  0  0  0  0  0  0
  149.1310  156.7220  131.8000 H   0  0  0  0  0  0  0  0  0  0  0  0
  146.9827  153.9653  133.7620 H   0  0  0  0  0  0  0  0  0  0  0  0
  148.3982  154.1373  134.8649 H   0  0  0  0  0  0  0  0  0  0  0  0
  144.4641  156.7569  134.2503 H   0  0  0  0  0  0  0  0  0  0  0  0
  1  2  1  0
  2  3  1  0
  3  4  2  0
  3  5  1  0
  5  6  1  0
  6  7  2  0
  7  8  1  0
  8  9  2  0
  9 10  1  0
 10 11  2  0
 11 12  1  0
 12 13  1  0
 12 14  2  0
 11 15  1  0
 15 16  1  0
 16 17  2  0
 16 18  1  0
 18 19  1  0
 19 20  1  0
 20 21  2  0
 20 22  1  0
 15 23  1  0
 23 24  2  0
 24  6  1  0
 23  9  1  0
  1 25  1  0
  1 26  1  0
  1 27  1  0
  5 28  1  0
  5 29  1  0
  7 30  1  0
  8 31  1  0
 10 32  1  0
 13 33  1  0
 19 34  1  0
 19 35  1  0
 24 36  1  0
M  CHG  2  13  -1  22  -1
M  END
>  <UniqueID>  (91) 
90

>  <SMILES>  (91) 
COC(=O)Cc1ccc2cc(C([NH-])=O)n(C(=O)OCC(=O)[O-])c2c1

>  <Energy>  (91) 
68.94914761058044

>  <Genealogy>  (91) 
COC(=O)Cc1ccc2cc(C([NH-])=O)n(C(=O)OCC(=O)[O-])c2c1 (protonated)
COC(=O)Cc1ccc2cc(C([NH-])=O)n(C(=O)OCC(=O)[O-])c2c1 (3D coordinates assigned)
COC(=O)Cc1ccc2cc(C([NH-])=O)n(C(=O)OCC(=O)[O-])c2c1 (optimized conformer: 68.94914761058044 kcal/mol)

>  <smiles>  (91) 
COC(=O)Cc1ccc2cc(C(N)=O)n(C(=O)OCC(=O)O)c2c1

>  <score_type>  (91) 
oracle

>  <origin>  (91) 
adg

>  <m_score__min__energy>  (91) 
-5.9400000000000004

>  <m_primary>  (91) 
energy

$$$$
91:0
     RDKit          3D

 39 40  0  0  0  0  0  0  0  0999 V2000
  149.2740  150.7320  133.1030 C   0  0  0  0  0  0  0  0  0  0  0  0
  149.6010  152.0200  133.6070 O   0  0  0  0  0  0  0  0  0  0  0  0
  149.2610  153.2000  132.9390 C   0  0  0  0  0  0  0  0  0  0  0  0
  149.6410  153.4010  131.7520 O   0  0  0  0  0  0  0  0  0  0  0  0
  148.3820  154.2030  133.6200 C   0  0  0  0  0  0  0  0  0  0  0  0
  147.4290  154.8820  132.6280 C   0  0  0  0  0  0  0  0  0  0  0  0
  147.4230  156.3800  132.7970 C   0  0  0  0  0  0  0  0  0  0  0  0
  148.6360  157.1070  132.7310 C   0  0  0  0  0  0  0  0  0  0  0  0
  148.6490  158.4970  132.9330 C   0  0  0  0  0  0  0  0  0  0  0  0
  147.4410  159.1260  133.2190 C   0  0  0  0  0  0  0  0  0  0  0  0
  147.1680  160.4540  133.4540 C   0  0  0  0  0  0  0  0  0  0  0  0
  145.7970  160.5120  133.6970 C   0  0  0  0  0  0  0  0  0  0  0  0
  145.0960  161.7530  134.0900 C   0  0  0  0  0  0  0  0  0  0  0  0
  143.7320  161.9690  133.7350 N   0  0  0  0  0  0  0  0  0  0  0  0
  145.6940  162.6110  134.7930 O   0  0  0  0  0  0  0  0  0  0  0  0
  145.2410  159.2710  133.6030 N   0  0  0  0  0  0  0  0  0  0  0  0
  143.8540  158.9130  133.7140 C   0  0  0  0  0  0  0  0  0  0  0  0
  143.3120  158.2210  132.8090 O   0  0  0  0  0  0  0  0  0  0  0  0
  143.1280  159.3070  134.8460 O   0  0  0  0  0  0  0  0  0  0  0  0
  141.7480  159.5520  134.8720 C   0  0  0  0  0  0  0  0  0  0  0  0
  141.1710  160.1330  133.9140 O   0  0  0  0  0  0  0  0  0  0  0  0
  140.9680  159.1720  136.0890 C   0  0  0  0  0  0  0  0  0  0  0  0
  139.8240  158.4810  135.7310 F   0  0  0  0  0  0  0  0  0  0  0  0
  140.6120  160.3150  136.7800 F   0  0  0  0  0  0  0  0  0  0  0  0
  141.7410  158.3670  136.9060 F   0  0  0  0  0  0  0  0  0  0  0  0
  146.2610  158.4330  133.3130 C   0  0  0  0  0  0  0  0  0  0  0  0
  146.2160  157.0520  133.0880 C   0  0  0  0  0  0  0  0  0  0  0  0
  149.0991  150.0432  133.9427 H   0  0  0  0  0  0  0  0  0  0  0  0
  148.3644  150.7989  132.4881 H   0  0  0  0  0  0  0  0  0  0  0  0
  150.1054  150.3569  132.4881 H   0  0  0  0  0  0  0  0  0  0  0  0
  147.7888  153.6920  134.3926 H   0  0  0  0  0  0  0  0  0  0  0  0
  149.0237  154.9769  134.0664 H   0  0  0  0  0  0  0  0  0  0  0  0
  147.7489  154.6401  131.6037 H   0  0  0  0  0  0  0  0  0  0  0  0
  146.4116  154.5110  132.8211 H   0  0  0  0  0  0  0  0  0  0  0  0
  149.5772  156.5784  132.5195 H   0  0  0  0  0  0  0  0  0  0  0  0
  149.5852  159.0707  132.8672 H   0  0  0  0  0  0  0  0  0  0  0  0
  147.8806  161.2919  133.4507 H   0  0  0  0  0  0  0  0  0  0  0  0
  143.0390  161.1890  133.7670 H   0  0  0  0  0  0  0  0  0  0  0  0
  145.2635  156.5039  133.1367 H   0  0  0  0  0  0  0  0  0  0  0  0
  1  2  1  0
  2  3  1  0
  3  4  2  0
  3  5  1  0
  5  6  1  0
  6  7  1  0
  7  8  2  0
  8  9  1  0
  9 10  2  0
 10 11  1  0
 11 12  2  0
 12 13  1  0
 13 14  1  0
 13 15  2  0
 12 16  1  0
 16 17  1  0
 17 18  2  0
 17 19  1  0
 19 20  1  0
 20 21  2  0
 20 22  1  0
 22 23  1  0
 22 24  1  0
 22 25  1  0
 16 26  1  0
 26 27  2  0
 27  7  1  0
 26 10  1  0
  1 28  1  0
  1 29  1  0
  1 30  1  0
  5 31  1  0
  5 32  1  0
  6 33  1  0
  6 34  1  0
  8 35  1  0
  9 36  1  0
 11 37  1  0
 14 38  1  0
 27 39  1  0
M  CHG  1  14  -1
M  END
>  <UniqueID>  (92) 
91

>  <SMILES>  (92) 
COC(=O)CCc1ccc2cc(C([NH-])=O)n(C(=O)OC(=O)C(F)(F)F)c2c1

>  <Energy>  (92) 
70.16942750009723

>  <Genealogy>  (92) 
COC(=O)CCc1ccc2cc(C([NH-])=O)n(C(=O)OC(=O)C(F)(F)F)c2c1 (protonated)
COC(=O)CCc1ccc2cc(C([NH-])=O)n(C(=O)OC(=O)C(F)(F)F)c2c1 (3D coordinates assigned)
COC(=O)CCc1ccc2cc(C([NH-])=O)n(C(=O)OC(=O)C(F)(F)F)c2c1 (optimized conformer: 70.16942750009723 kcal/mol)

>  <smiles>  (92) 
COC(=O)CCc1ccc2cc(C(N)=O)n(C(=O)OC(=O)C(F)(F)F)c2c1

>  <score_type>  (92) 
oracle

>  <origin>  (92) 
adg

>  <m_score__min__energy>  (92) 
-6.6200000000000001

>  <m_primary>  (92) 
energy

$$$$
92:0
     RDKit          3D

 40 41  0  0  0  0  0  0  0  0999 V2000
  149.2710  162.3850  130.3300 C   0  0  0  0  0  0  0  0  0  0  0  0
  149.4700  161.1620  129.6580 O   0  0  0  0  0  0  0  0  0  0  0  0
  148.9070  160.1140  130.4180 C   0  0  0  0  0  0  0  0  0  0  0  0
  149.9730  159.5020  131.3320 C   0  0  0  0  0  0  0  0  0  0  0  0
  149.5690  158.1240  131.8600 C   0  0  0  0  0  0  0  0  0  0  0  0
  148.2530  158.1670  132.4030 O   0  0  0  0  0  0  0  0  0  0  0  0
  147.8640  159.1110  133.3580 C   0  0  0  0  0  0  0  0  0  0  0  0
  148.6150  159.3820  134.3350 O   0  0  0  0  0  0  0  0  0  0  0  0
  146.5640  159.8380  133.2020 C   0  0  0  0  0  0  0  0  0  0  0  0
  145.3970  158.9190  133.4510 C   0  0  0  0  0  0  0  0  0  0  0  0
  145.6160  157.5610  133.7900 C   0  0  0  0  0  0  0  0  0  0  0  0
  144.5320  156.7020  134.0330 C   0  0  0  0  0  0  0  0  0  0  0  0
  143.2460  157.2260  133.9310 C   0  0  0  0  0  0  0  0  0  0  0  0
  142.0290  156.6320  134.1640 C   0  0  0  0  0  0  0  0  0  0  0  0
  141.0830  157.6330  133.9590 C   0  0  0  0  0  0  0  0  0  0  0  0
  139.6260  157.4020  134.0340 C   0  0  0  0  0  0  0  0  0  0  0  0
  139.0220  156.3060  133.3520 N   0  0  0  0  0  0  0  0  0  0  0  0
  138.9110  158.1530  134.7490 O   0  0  0  0  0  0  0  0  0  0  0  0
  141.6930  158.8040  133.6180 N   0  0  0  0  0  0  0  0  0  0  0  0
  141.0810  160.0910  133.4370 C   0  0  0  0  0  0  0  0  0  0  0  0
  141.5060  161.0930  134.0700 O   0  0  0  0  0  0  0  0  0  0  0  0
  139.9920  160.2370  132.5840 O   0  0  0  0  0  0  0  0  0  0  0  0
  143.0180  158.5370  133.6010 C   0  0  0  0  0  0  0  0  0  0  0  0
  144.0780  159.4180  133.3630 C   0  0  0  0  0  0  0  0  0  0  0  0
  149.2986  162.2151  131.4165 H   0  0  0  0  0  0  0  0  0  0  0  0
  150.0660  163.0914  130.0490 H   0  0  0  0  0  0  0  0  0  0  0  0
  148.2930  162.8029  130.0490 H   0  0  0  0  0  0  0  0  0  0  0  0
  148.0841  160.5096  131.0314 H   0  0  0  0  0  0  0  0  0  0  0  0
  148.5244  159.3386  129.7381 H   0  0  0  0  0  0  0  0  0  0  0  0
  150.9097  159.4017  130.7640 H   0  0  0  0  0  0  0  0  0  0  0  0
  150.0953  160.1696  132.1976 H   0  0  0  0  0  0  0  0  0  0  0  0
  149.5971  157.3971  131.0349 H   0  0  0  0  0  0  0  0  0  0  0  0
  150.2721  157.8247  132.6513 H   0  0  0  0  0  0  0  0  0  0  0  0
  146.5278  160.6684  133.9225 H   0  0  0  0  0  0  0  0  0  0  0  0
  146.4968  160.2177  132.1718 H   0  0  0  0  0  0  0  0  0  0  0  0
  146.6439  157.1762  133.8635 H   0  0  0  0  0  0  0  0  0  0  0  0
  144.6940  155.6463  134.2962 H   0  0  0  0  0  0  0  0  0  0  0  0
  141.8417  155.5869  134.4516 H   0  0  0  0  0  0  0  0  0  0  0  0
  137.9850  156.1890  133.3350 H   0  0  0  0  0  0  0  0  0  0  0  0
  143.8895  160.4727  133.1136 H   0  0  0  0  0  0  0  0  0  0  0  0
  1  2  1  0
  2  3  1  0
  3  4  1  0
  4  5  1  0
  5  6  1  0
  6  7  1  0
  7  8  2  0
  7  9  1  0
  9 10  1  0
 10 11  2  0
 11 12  1  0
 12 13  2  0
 13 14  1  0
 14 15  2  0
 15 16  1  0
 16 17  1  0
 16 18  2  0
 15 19  1  0
 19 20  1  0
 20 21  2  0
 20 22  1  0
 19 23  1  0
 23 24  2  0
 24 10  1  0
 23 13  1  0
  1 25  1  0
  1 26  1  0
  1 27  1  0
  3 28  1  0
  3 29  1  0
  4 30  1  0
  4 31  1  0
  5 32  1  0
  5 33  1  0
  9 34  1  0
  9 35  1  0
 11 36  1  0
 12 37  1  0
 14 38  1  0
 17 39  1  0
 24 40  1  0
M  CHG  2  17  -1  22  -1
M  END
>  <UniqueID>  (93) 
92

>  <SMILES>  (93) 
COCCCOC(=O)Cc1ccc2cc(C([NH-])=O)n(C(=O)[O-])c2c1

>  <Energy>  (93) 
70.28386172248497

>  <Genealogy>  (93) 
COCCCOC(=O)Cc1ccc2cc(C([NH-])=O)n(C(=O)[O-])c2c1 (protonated)
COCCCOC(=O)Cc1ccc2cc(C([NH-])=O)n(C(=O)[O-])c2c1 (3D coordinates assigned)
COCCCOC(=O)Cc1ccc2cc(C([NH-])=O)n(C(=O)[O-])c2c1 (optimized conformer: 70.28386172248497 kcal/mol)

>  <smiles>  (93) 
COCCCOC(=O)Cc1ccc2cc(C(N)=O)n(C(=O)O)c2c1

>  <score_type>  (93) 
oracle

>  <origin>  (93) 
adg

>  <m_score__min__energy>  (93) 
-6.4199999999999999

>  <m_primary>  (93) 
energy

$$$$
93:0
     RDKit          3D

 35 36  0  0  0  0  0  0  0  0999 V2000
  148.5340  151.7170  132.5710 C   0  0  0  0  0  0  0  0  0  0  0  0
  149.3560  152.8750  132.6390 O   0  0  0  0  0  0  0  0  0  0  0  0
  148.8440  154.1710  132.5240 C   0  0  0  0  0  0  0  0  0  0  0  0
  149.6130  155.1540  132.3470 O   0  0  0  0  0  0  0  0  0  0  0  0
  147.3720  154.3970  132.6560 C   0  0  0  0  0  0  0  0  0  0  0  0
  147.0700  155.7810  132.5110 O   0  0  0  0  0  0  0  0  0  0  0  0
  146.6840  156.6010  133.5790 C   0  0  0  0  0  0  0  0  0  0  0  0
  146.5520  156.1170  134.7360 O   0  0  0  0  0  0  0  0  0  0  0  0
  146.4400  157.9980  133.3520 N   0  0  0  0  0  0  0  0  0  0  0  0
  147.3410  158.9390  132.9520 C   0  0  0  0  0  0  0  0  0  0  0  0
  148.7220  158.6760  132.5030 C   0  0  0  0  0  0  0  0  0  0  0  0
  149.0710  157.4500  131.8570 N   0  0  0  0  0  0  0  0  0  0  0  0
  149.5990  159.5710  132.6410 O   0  0  0  0  0  0  0  0  0  0  0  0
  146.7720  160.2090  132.9770 C   0  0  0  0  0  0  0  0  0  0  0  0
  145.4750  160.0170  133.3970 C   0  0  0  0  0  0  0  0  0  0  0  0
  144.4650  160.9460  133.6270 C   0  0  0  0  0  0  0  0  0  0  0  0
  143.2330  160.4730  134.1070 C   0  0  0  0  0  0  0  0  0  0  0  0
  143.0270  159.0890  134.3410 C   0  0  0  0  0  0  0  0  0  0  0  0
  141.7230  158.6040  134.9190 C   0  0  0  0  0  0  0  0  0  0  0  0
  141.3160  159.4180  135.9620 F   0  0  0  0  0  0  0  0  0  0  0  0
  141.8850  157.3150  135.3910 F   0  0  0  0  0  0  0  0  0  0  0  0
  140.7290  158.6090  133.9550 F   0  0  0  0  0  0  0  0  0  0  0  0
  144.0880  158.1800  134.1190 C   0  0  0  0  0  0  0  0  0  0  0  0
  145.2980  158.6760  133.6180 C   0  0  0  0  0  0  0  0  0  0  0  0
  148.2933  151.3779  133.5894 H   0  0  0  0  0  0  0  0  0  0  0  0
  147.6040  151.9584  132.0355 H   0  0  0  0  0  0  0  0  0  0  0  0
  149.0687  150.9187  132.0355 H   0  0  0  0  0  0  0  0  0  0  0  0
  146.8459  153.8270  131.8760 H   0  0  0  0  0  0  0  0  0  0  0  0
  147.0462  154.0619  133.6518 H   0  0  0  0  0  0  0  0  0  0  0  0
  148.3380  156.7610  131.5770 H   0  0  0  0  0  0  0  0  0  0  0  0
  150.0610  157.2660  131.5840 H   0  0  0  0  0  0  0  0  0  0  0  0
  147.2553  161.1623  132.7168 H   0  0  0  0  0  0  0  0  0  0  0  0
  144.6266  162.0176  133.4387 H   0  0  0  0  0  0  0  0  0  0  0  0
  142.4175  161.1845  134.3040 H   0  0  0  0  0  0  0  0  0  0  0  0
  143.9654  157.1084  134.3349 H   0  0  0  0  0  0  0  0  0  0  0  0
  1  2  1  0
  2  3  1  0
  3  4  2  0
  3  5  1  0
  5  6  1  0
  6  7  1  0
  7  8  2  0
  7  9  1  0
  9 10  1  0
 10 11  1  0
 11 12  1  0
 11 13  2  0
 10 14  2  0
 14 15  1  0
 15 16  2  0
 16 17  1  0
 17 18  2  0
 18 19  1  0
 19 20  1  0
 19 21  1  0
 19 22  1  0
 18 23  1  0
 23 24  2  0
 24  9  1  0
 24 15  1  0
  1 25  1  0
  1 26  1  0
  1 27  1  0
  5 28  1  0
  5 29  1  0
 12 30  1  0
 12 31  1  0
 14 32  1  0
 16 33  1  0
 17 34  1  0
 23 35  1  0
M  END
>  <UniqueID>  (94) 
93

>  <SMILES>  (94) 
COC(=O)COC(=O)n1c(C(N)=O)cc2ccc(C(F)(F)F)cc21

>  <Energy>  (94) 
70.2572899622192

>  <Genealogy>  (94) 
COC(=O)COC(=O)n1c(C(N)=O)cc2ccc(C(F)(F)F)cc21 (3D coordinates assigned)
COC(=O)COC(=O)n1c(C(N)=O)cc2ccc(C(F)(F)F)cc21 (optimized conformer: 70.2572899622192 kcal/mol)

>  <smiles>  (94) 
COC(=O)COC(=O)n1c(C(N)=O)cc2ccc(C(F)(F)F)cc21

>  <score_type>  (94) 
oracle

>  <origin>  (94) 
adg

>  <m_score__min__energy>  (94) 
-5.79

>  <m_primary>  (94) 
energy

$$$$
94:0
     RDKit          3D

 42 44  0  0  0  0  0  0  0  0999 V2000
  139.3570  158.2300  136.3100 N   0  0  0  0  0  0  0  0  0  0  0  0
  140.7040  158.6880  136.3930 C   0  0  0  0  0  0  0  0  0  0  0  0
  140.9590  159.7440  137.0280 O   0  0  0  0  0  0  0  0  0  0  0  0
  141.7750  157.9470  135.6940 C   0  0  0  0  0  0  0  0  0  0  0  0
  142.0090  156.5830  135.8690 C   0  0  0  0  0  0  0  0  0  0  0  0
  143.0260  156.2720  134.9950 C   0  0  0  0  0  0  0  0  0  0  0  0
  143.6760  155.0620  134.7740 C   0  0  0  0  0  0  0  0  0  0  0  0
  144.7300  155.0400  133.8470 C   0  0  0  0  0  0  0  0  0  0  0  0
  145.1180  156.2210  133.1600 C   0  0  0  0  0  0  0  0  0  0  0  0
  146.2280  156.1880  132.2360 N   0  0  0  0  0  0  0  0  0  0  0  0
  147.4430  155.6380  132.8720 C   0  0  0  0  0  0  0  0  0  0  0  0
  148.4970  156.7230  133.1550 C   0  0  0  0  0  0  0  0  0  0  0  0
  148.1100  157.9770  132.4710 N   0  0  0  0  0  0  0  0  0  0  0  0
  147.5780  158.9950  133.3840 C   0  0  0  0  0  0  0  0  0  0  0  0
  147.7420  160.3270  132.6700 C   0  0  0  0  0  0  0  0  0  0  0  0
  148.8220  160.0920  131.6150 C   0  0  0  0  0  0  0  0  0  0  0  0
  149.2270  158.6360  131.7780 C   0  0  0  0  0  0  0  0  0  0  0  0
  144.4230  157.4280  133.4040 C   0  0  0  0  0  0  0  0  0  0  0  0
  143.3710  157.4190  134.3270 C   0  0  0  0  0  0  0  0  0  0  0  0
  142.6160  158.4570  134.7490 N   0  0  0  0  0  0  0  0  0  0  0  0
  142.7460  159.8260  134.3330 C   0  0  0  0  0  0  0  0  0  0  0  0
  143.8480  160.4200  134.4530 O   0  0  0  0  0  0  0  0  0  0  0  0
  141.6750  160.4840  133.7410 O   0  0  0  0  0  0  0  0  0  0  0  0
  138.6350  158.5620  136.9870 H   0  0  0  0  0  0  0  0  0  0  0  0
  141.4908  155.9007  136.5590 H   0  0  0  0  0  0  0  0  0  0  0  0
  143.3732  154.1501  135.3095 H   0  0  0  0  0  0  0  0  0  0  0  0
  145.2615  154.0972  133.6504 H   0  0  0  0  0  0  0  0  0  0  0  0
  146.4120  157.1430  131.8490 H   0  0  0  0  0  0  0  0  0  0  0  0
  145.9710  155.5780  131.4240 H   0  0  0  0  0  0  0  0  0  0  0  0
  147.1602  155.1631  133.8230 H   0  0  0  0  0  0  0  0  0  0  0  0
  147.8872  154.9111  132.1760 H   0  0  0  0  0  0  0  0  0  0  0  0
  148.5586  156.9005  134.2388 H   0  0  0  0  0  0  0  0  0  0  0  0
  149.4764  156.3890  132.7819 H   0  0  0  0  0  0  0  0  0  0  0  0
  146.5155  158.8023  133.5936 H   0  0  0  0  0  0  0  0  0  0  0  0
  148.1079  158.9873  134.3479 H   0  0  0  0  0  0  0  0  0  0  0  0
  146.7972  160.6269  132.1932 H   0  0  0  0  0  0  0  0  0  0  0  0
  148.0186  161.1327  133.3659 H   0  0  0  0  0  0  0  0  0  0  0  0
  148.4214  160.2705  130.6062 H   0  0  0  0  0  0  0  0  0  0  0  0
  149.6762  160.7734  131.7417 H   0  0  0  0  0  0  0  0  0  0  0  0
  149.3920  158.1732  130.7938 H   0  0  0  0  0  0  0  0  0  0  0  0
  150.1643  158.5408  132.3457 H   0  0  0  0  0  0  0  0  0  0  0  0
  144.7030  158.3537  132.8799 H   0  0  0  0  0  0  0  0  0  0  0  0
  1  2  1  0
  2  3  2  0
  2  4  1  0
  4  5  2  0
  5  6  1  0
  6  7  2  0
  7  8  1  0
  8  9  2  0
  9 10  1  0
 10 11  1  0
 11 12  1  0
 12 13  1  0
 13 14  1  0
 14 15  1  0
 15 16  1  0
 16 17  1  0
  9 18  1  0
 18 19  2  0
 19 20  1  0
 20 21  1  0
 21 22  2  0
 21 23  1  0
 20  4  1  0
 19  6  1  0
 17 13  1  0
  1 24  1  0
  5 25  1  0
  7 26  1  0
  8 27  1  0
 10 28  1  0
 10 29  1  0
 11 30  1  0
 11 31  1  0
 12 32  1  0
 12 33  1  0
 14 34  1  0
 14 35  1  0
 15 36  1  0
 15 37  1  0
 16 38  1  0
 16 39  1  0
 17 40  1  0
 17 41  1  0
 18 42  1  0
M  CHG  3   1  -1  10   1  23  -1
M  END
>  <UniqueID>  (95) 
94

>  <SMILES>  (95) 
[NH-]C(=O)c1cc2ccc([NH2+]CCN3CCCC3)cc2n1C(=O)[O-]

>  <Energy>  (95) 
86.62054276962542

>  <Genealogy>  (95) 
[NH-]C(=O)c1cc2ccc([NH2+]CCN3CCCC3)cc2n1C(=O)[O-] (protonated)
[NH-]C(=O)c1cc2ccc([NH2+]CCN3CCCC3)cc2n1C(=O)[O-] (3D coordinates assigned)
[NH-]C(=O)c1cc2ccc([NH2+]CCN3CCCC3)cc2n1C(=O)[O-] (nonaromatic ring conformer: 86.62054276962542 kcal/mol)

>  <smiles>  (95) 
NC(=O)c1cc2ccc(NCCN3CCCC3)cc2n1C(=O)O

>  <score_type>  (95) 
oracle

>  <origin>  (95) 
adg

>  <m_score__min__energy>  (95) 
-6.9800000000000004

>  <m_primary>  (95) 
energy

$$$$
95:0
     RDKit          3D

 35 36  0  0  0  0  0  0  0  0999 V2000
  149.1980  161.0390  130.8100 C   0  0  0  0  0  0  0  0  0  0  0  0
  149.0290  159.5660  130.4570 C   0  0  0  0  0  0  0  0  0  0  0  0
  149.4630  158.7380  131.5350 O   0  0  0  0  0  0  0  0  0  0  0  0
  148.8280  158.6990  132.7820 C   0  0  0  0  0  0  0  0  0  0  0  0
  149.2400  159.4220  133.7300 O   0  0  0  0  0  0  0  0  0  0  0  0
  147.6910  157.8450  132.9740 N   0  0  0  0  0  0  0  0  0  0  0  0
  146.4290  158.2070  133.3430 C   0  0  0  0  0  0  0  0  0  0  0  0
  145.9200  159.5880  133.4540 C   0  0  0  0  0  0  0  0  0  0  0  0
  146.8100  160.7020  133.4320 N   0  0  0  0  0  0  0  0  0  0  0  0
  144.6790  159.7930  133.5200 O   0  0  0  0  0  0  0  0  0  0  0  0
  145.6320  157.0780  133.5290 C   0  0  0  0  0  0  0  0  0  0  0  0
  146.4470  156.0050  133.2530 C   0  0  0  0  0  0  0  0  0  0  0  0
  146.1740  154.6410  133.2850 C   0  0  0  0  0  0  0  0  0  0  0  0
  147.2170  153.7520  132.9770 C   0  0  0  0  0  0  0  0  0  0  0  0
  148.5100  154.2400  132.6600 C   0  0  0  0  0  0  0  0  0  0  0  0
  149.6110  153.2810  132.3100 C   0  0  0  0  0  0  0  0  0  0  0  0
  149.3270  151.6770  133.1210 P   0  0  2  0  0  0  0  0  0  0  0  0
  149.2210  151.8820  134.6150 O   0  0  0  0  0  0  0  0  0  0  0  0
  150.6190  150.6380  132.7900 O   0  0  0  0  0  0  0  0  0  0  0  0
  147.8920  150.9880  132.5440 O   0  0  0  0  0  0  0  0  0  0  0  0
  148.7490  155.6310  132.6300 C   0  0  0  0  0  0  0  0  0  0  0  0
  147.6850  156.4940  132.9220 C   0  0  0  0  0  0  0  0  0  0  0  0
  149.2113  161.1547  131.9038 H   0  0  0  0  0  0  0  0  0  0  0  0
  150.1446  161.4103  130.3905 H   0  0  0  0  0  0  0  0  0  0  0  0
  148.3601  161.6151  130.3905 H   0  0  0  0  0  0  0  0  0  0  0  0
  147.9678  159.3633  130.2501 H   0  0  0  0  0  0  0  0  0  0  0  0
  149.6394  159.3418  129.5698 H   0  0  0  0  0  0  0  0  0  0  0  0
  147.6030  160.7700  134.1080 H   0  0  0  0  0  0  0  0  0  0  0  0
  144.5750  157.0512  133.8323 H   0  0  0  0  0  0  0  0  0  0  0  0
  145.1713  154.2700  133.5438 H   0  0  0  0  0  0  0  0  0  0  0  0
  147.0291  152.6682  132.9818 H   0  0  0  0  0  0  0  0  0  0  0  0
  149.6354  153.1378  131.2196 H   0  0  0  0  0  0  0  0  0  0  0  0
  150.5703  153.6936  132.6556 H   0  0  0  0  0  0  0  0  0  0  0  0
  147.2410  151.1000  133.2820 H   0  0  0  0  0  0  0  0  0  0  0  0
  149.7452  156.0270  132.3836 H   0  0  0  0  0  0  0  0  0  0  0  0
  1  2  1  0
  2  3  1  0
  3  4  1  0
  4  5  2  0
  4  6  1  0
  6  7  1  0
  7  8  1  0
  8  9  1  0
  8 10  2  0
  7 11  2  0
 11 12  1  0
 12 13  2  0
 13 14  1  0
 14 15  2  0
 15 16  1  0
 16 17  1  0
 17 18  2  0
 17 19  1  1
 17 20  1  0
 15 21  1  0
 21 22  2  0
 22  6  1  0
 22 12  1  0
  1 23  1  0
  1 24  1  0
  1 25  1  0
  2 26  1  0
  2 27  1  0
  9 28  1  0
 11 29  1  0
 13 30  1  0
 14 31  1  0
 16 32  1  0
 16 33  1  0
 20 34  1  0
 21 35  1  0
M  CHG  2   9  -1  19  -1
M  END
>  <UniqueID>  (96) 
95

>  <SMILES>  (96) 
CCOC(=O)n1c(C([NH-])=O)cc2ccc(C[P@](=O)([O-])O)cc21

>  <Energy>  (96) 
64.22067354172374

>  <Genealogy>  (96) 
CCOC(=O)n1c(C([NH-])=O)cc2ccc(CP(=O)([O-])O)cc21 (protonated)
CCOC(=O)n1c(C([NH-])=O)cc2ccc(C[P@](=O)([O-])O)cc21 (chirality)
CCOC(=O)n1c(C([NH-])=O)cc2ccc(C[P@](=O)([O-])O)cc21 (3D coordinates assigned)
CCOC(=O)n1c(C([NH-])=O)cc2ccc(C[P@](=O)([O-])O)cc21 (optimized conformer: 64.22067354172374 kcal/mol)

>  <smiles>  (96) 
CCOC(=O)n1c(C(N)=O)cc2ccc(CP(=O)(O)O)cc21

>  <score_type>  (96) 
oracle

>  <origin>  (96) 
adg

>  <m_score__min__energy>  (96) 
-6.6299999999999999

>  <m_primary>  (96) 
energy

$$$$
96:0
     RDKit          3D

 44 45  0  0  0  0  0  0  0  0999 V2000
  138.6510  159.4190  131.2140 C   0  0  0  0  0  0  0  0  0  0  0  0
  139.4420  158.2710  131.4970 O   0  0  0  0  0  0  0  0  0  0  0  0
  139.3060  157.5370  132.6790 C   0  0  0  0  0  0  0  0  0  0  0  0
  139.5300  156.2950  132.6940 O   0  0  0  0  0  0  0  0  0  0  0  0
  138.8600  158.2260  133.9300 C   0  0  0  0  0  0  0  0  0  0  0  0
  139.9060  158.1150  135.0450 C   0  0  0  0  0  0  0  0  0  0  0  0
  141.2730  158.5470  134.5790 C   0  0  0  0  0  0  0  0  0  0  0  0
  141.5080  159.9020  134.2340 C   0  0  0  0  0  0  0  0  0  0  0  0
  142.7740  160.3190  133.7900 C   0  0  0  0  0  0  0  0  0  0  0  0
  143.7850  159.3650  133.7110 C   0  0  0  0  0  0  0  0  0  0  0  0
  145.0870  159.4860  133.2800 C   0  0  0  0  0  0  0  0  0  0  0  0
  145.6340  158.2080  133.3910 C   0  0  0  0  0  0  0  0  0  0  0  0
  147.0410  157.8660  133.0780 C   0  0  0  0  0  0  0  0  0  0  0  0
  147.3570  156.9210  132.0530 N   0  0  0  0  0  0  0  0  0  0  0  0
  147.9800  158.4220  133.7060 O   0  0  0  0  0  0  0  0  0  0  0  0
  144.7070  157.3380  133.8830 N   0  0  0  0  0  0  0  0  0  0  0  0
  144.8570  155.9250  134.0880 C   0  0  0  0  0  0  0  0  0  0  0  0
  144.9390  155.4680  135.2600 O   0  0  0  0  0  0  0  0  0  0  0  0
  144.9240  155.0050  132.9460 C   0  0  0  0  0  0  0  0  0  0  0  0
  143.8610  154.6530  132.3640 O   0  0  0  0  0  0  0  0  0  0  0  0
  146.1650  154.5230  132.5160 O   0  0  0  0  0  0  0  0  0  0  0  0
  146.8050  153.3880  133.0970 C   0  0  0  0  0  0  0  0  0  0  0  0
  148.3280  153.5350  133.0420 C   0  0  0  0  0  0  0  0  0  0  0  0
  148.6890  154.6090  132.2170 O   0  0  0  0  0  0  0  0  0  0  0  0
  143.5800  158.0590  134.0670 C   0  0  0  0  0  0  0  0  0  0  0  0
  142.3260  157.6110  134.4980 C   0  0  0  0  0  0  0  0  0  0  0  0
  138.3301  159.8848  132.1574 H   0  0  0  0  0  0  0  0  0  0  0  0
  139.2452  160.1396  130.6329 H   0  0  0  0  0  0  0  0  0  0  0  0
  137.7661  159.1204  130.6329 H   0  0  0  0  0  0  0  0  0  0  0  0
  138.6872  159.2895  133.7085 H   0  0  0  0  0  0  0  0  0  0  0  0
  137.9368  157.7395  134.2777 H   0  0  0  0  0  0  0  0  0  0  0  0
  139.5986  158.7542  135.8858 H   0  0  0  0  0  0  0  0  0  0  0  0
  139.9678  157.0601  135.3504 H   0  0  0  0  0  0  0  0  0  0  0  0
  140.6909  160.6340  134.3148 H   0  0  0  0  0  0  0  0  0  0  0  0
  142.9608  161.3671  133.5132 H   0  0  0  0  0  0  0  0  0  0  0  0
  145.5893  160.3974  132.9237 H   0  0  0  0  0  0  0  0  0  0  0  0
  146.6140  156.3870  131.5530 H   0  0  0  0  0  0  0  0  0  0  0  0
  148.3540  156.7180  131.8200 H   0  0  0  0  0  0  0  0  0  0  0  0
  146.4894  153.2941  134.1466 H   0  0  0  0  0  0  0  0  0  0  0  0
  146.5166  152.4914  132.5287 H   0  0  0  0  0  0  0  0  0  0  0  0
  148.7111  153.7141  134.0575 H   0  0  0  0  0  0  0  0  0  0  0  0
  148.7596  152.6105  132.6309 H   0  0  0  0  0  0  0  0  0  0  0  0
  148.0440  154.6160  131.4630 H   0  0  0  0  0  0  0  0  0  0  0  0
  142.1654  156.5565  134.7667 H   0  0  0  0  0  0  0  0  0  0  0  0
  1  2  1  0
  2  3  1  0
  3  4  2  0
  3  5  1  0
  5  6  1  0
  6  7  1  0
  7  8  2  0
  8  9  1  0
  9 10  2  0
 10 11  1  0
 11 12  2  0
 12 13  1  0
 13 14  1  0
 13 15  2  0
 12 16  1  0
 16 17  1  0
 17 18  2  0
 17 19  1  0
 19 20  2  0
 19 21  1  0
 21 22  1  0
 22 23  1  0
 23 24  1  0
 16 25  1  0
 25 26  2  0
 26  7  1  0
 25 10  1  0
  1 27  1  0
  1 28  1  0
  1 29  1  0
  5 30  1  0
  5 31  1  0
  6 32  1  0
  6 33  1  0
  8 34  1  0
  9 35  1  0
 11 36  1  0
 14 37  1  0
 14 38  1  0
 22 39  1  0
 22 40  1  0
 23 41  1  0
 23 42  1  0
 24 43  1  0
 26 44  1  0
M  END
>  <UniqueID>  (97) 
96

>  <SMILES>  (97) 
COC(=O)CCc1ccc2cc(C(N)=O)n(C(=O)C(=O)OCCO)c2c1

>  <Energy>  (97) 
71.24306451245558

>  <Genealogy>  (97) 
COC(=O)CCc1ccc2cc(C(N)=O)n(C(=O)C(=O)OCCO)c2c1 (3D coordinates assigned)
COC(=O)CCc1ccc2cc(C(N)=O)n(C(=O)C(=O)OCCO)c2c1 (optimized conformer: 71.24306451245558 kcal/mol)

>  <smiles>  (97) 
COC(=O)CCc1ccc2cc(C(N)=O)n(C(=O)C(=O)OCCO)c2c1

>  <score_type>  (97) 
oracle

>  <origin>  (97) 
adg

>  <m_score__min__energy>  (97) 
-6.2000000000000002

>  <m_primary>  (97) 
energy

$$$$
