0:0
     RDKit          3D

 38 39  0  0  0  0  0  0  0  0999 V2000
  151.0980  149.9480  129.9500 C   0  0  0  0  0  0  0  0  0  0  0  0
  150.2490  150.4310  131.1210 C   0  0  0  0  0  0  0  0  0  0  0  0
  149.9810  151.8250  131.0000 O   0  0  0  0  0  0  0  0  0  0  0  0
  149.5480  152.6200  132.0690 C   0  0  0  0  0  0  0  0  0  0  0  0
  149.8630  153.8390  132.1350 O   0  0  0  0  0  0  0  0  0  0  0  0
  148.7490  152.0000  133.1680 C   0  0  0  0  0  0  0  0  0  0  0  0
  147.5420  152.7310  133.3690 O   0  0  0  0  0  0  0  0  0  0  0  0
  146.3680  152.4920  132.6460 C   0  0  0  0  0  0  0  0  0  0  0  0
  146.2930  151.5080  131.8600 O   0  0  0  0  0  0  0  0  0  0  0  0
  145.2490  153.3810  132.7900 N   0  0  0  0  0  0  0  0  0  0  0  0
  145.2720  154.7430  132.7870 C   0  0  0  0  0  0  0  0  0  0  0  0
  146.4910  155.5820  132.7990 C   0  0  0  0  0  0  0  0  0  0  0  0
  147.6960  155.1250  132.1830 N   0  0  0  0  0  0  0  0  0  0  0  0
  146.4670  156.7250  133.3280 O   0  0  0  0  0  0  0  0  0  0  0  0
  143.9770  155.2530  132.8760 C   0  0  0  0  0  0  0  0  0  0  0  0
  143.1550  154.1510  132.9360 C   0  0  0  0  0  0  0  0  0  0  0  0
  141.7690  154.0730  133.0360 C   0  0  0  0  0  0  0  0  0  0  0  0
  141.1810  152.7980  133.0620 C   0  0  0  0  0  0  0  0  0  0  0  0
  141.9790  151.6280  132.9630 C   0  0  0  0  0  0  0  0  0  0  0  0
  141.3380  150.2650  133.0300 C   0  0  0  0  0  0  0  0  0  0  0  0
  140.9770  149.9970  134.3370 F   0  0  0  0  0  0  0  0  0  0  0  0
  140.2090  150.2150  132.2300 F   0  0  0  0  0  0  0  0  0  0  0  0
  142.2190  149.2900  132.5960 F   0  0  0  0  0  0  0  0  0  0  0  0
  143.3860  151.7490  132.8870 C   0  0  0  0  0  0  0  0  0  0  0  0
  143.9460  153.0330  132.8800 C   0  0  0  0  0  0  0  0  0  0  0  0
  151.9944  149.4381  130.3327 H   0  0  0  0  0  0  0  0  0  0  0  0
  150.5119  149.2481  129.3363 H   0  0  0  0  0  0  0  0  0  0  0  0
  151.4002  150.8094  129.3363 H   0  0  0  0  0  0  0  0  0  0  0  0
  149.2977  149.8788  131.1307 H   0  0  0  0  0  0  0  0  0  0  0  0
  150.7992  150.2539  132.0569 H   0  0  0  0  0  0  0  0  0  0  0  0
  148.5049  150.9617  132.8991 H   0  0  0  0  0  0  0  0  0  0  0  0
  149.3392  152.0176  134.0961 H   0  0  0  0  0  0  0  0  0  0  0  0
  147.7700  154.1650  131.7800 H   0  0  0  0  0  0  0  0  0  0  0  0
  148.5400  155.7400  132.1640 H   0  0  0  0  0  0  0  0  0  0  0  0
  143.6766  156.3110  132.8943 H   0  0  0  0  0  0  0  0  0  0  0  0
  141.1529  154.9825  133.0929 H   0  0  0  0  0  0  0  0  0  0  0  0
  140.0894  152.7047  133.1602 H   0  0  0  0  0  0  0  0  0  0  0  0
  144.0257  150.8557  132.8346 H   0  0  0  0  0  0  0  0  0  0  0  0
  1  2  1  0
  2  3  1  0
  3  4  1  0
  4  5  2  0
  4  6  1  0
  6  7  1  0
  7  8  1  0
  8  9  2  0
  8 10  1  0
 10 11  1  0
 11 12  1  0
 12 13  1  0
 12 14  2  0
 11 15  2  0
 15 16  1  0
 16 17  2  0
 17 18  1  0
 18 19  2  0
 19 20  1  0
 20 21  1  0
 20 22  1  0
 20 23  1  0
 19 24  1  0
 24 25  2  0
 25 10  1  0
 25 16  1  0
  1 26  1  0
  1 27  1  0
  1 28  1  0
  2 29  1  0
  2 30  1  0
  6 31  1  0
  6 32  1  0
 13 33  1  0
 13 34  1  0
 15 35  1  0
 17 36  1  0
 18 37  1  0
 24 38  1  0
M  END
>  <UniqueID>  (1) 
1

>  <SMILES>  (1) 
CCOC(=O)COC(=O)n1c(C(N)=O)cc2ccc(C(F)(F)F)cc21

>  <Energy>  (1) 
70.07954402364959

>  <Genealogy>  (1) 
CCOC(=O)COC(=O)n1c(C(N)=O)cc2ccc(C(F)(F)F)cc21 (3D coordinates assigned)
CCOC(=O)COC(=O)n1c(C(N)=O)cc2ccc(C(F)(F)F)cc21 (optimized conformer: 70.07954402364959 kcal/mol)

>  <smiles>  (1) 
CCOC(=O)COC(=O)n1c(C(N)=O)cc2ccc(C(F)(F)F)cc21

>  <score_type>  (1) 
oracle

>  <origin>  (1) 
adg

>  <m_score__min__energy>  (1) 
-6.0700000000000003

>  <m_primary>  (1) 
energy

$$$$
1:0
     RDKit          3D

 44 45  0  0  0  0  0  0  0  0999 V2000
  146.3610  156.2330  133.5070 C   0  0  0  0  0  0  0  0  0  0  0  0
  144.8680  156.0910  133.5520 C   0  0  0  0  0  0  0  0  0  0  0  0
  144.2440  154.8900  133.1280 C   0  0  0  0  0  0  0  0  0  0  0  0
  142.8460  154.7490  133.1940 C   0  0  0  0  0  0  0  0  0  0  0  0
  142.1050  155.8210  133.6830 C   0  0  0  0  0  0  0  0  0  0  0  0
  140.7480  155.9430  133.8880 C   0  0  0  0  0  0  0  0  0  0  0  0
  140.5690  157.2180  134.4210 C   0  0  0  0  0  0  0  0  0  0  0  0
  139.2480  157.7920  134.7550 C   0  0  0  0  0  0  0  0  0  0  0  0
  138.9800  158.2340  136.0850 N   0  0  0  0  0  0  0  0  0  0  0  0
  138.3440  157.8770  133.8830 O   0  0  0  0  0  0  0  0  0  0  0  0
  141.7650  157.8590  134.5360 N   0  0  0  0  0  0  0  0  0  0  0  0
  142.0210  159.1590  135.0860 C   0  0  0  0  0  0  0  0  0  0  0  0
  141.5920  159.4440  136.2370 O   0  0  0  0  0  0  0  0  0  0  0  0
  142.7810  160.1570  134.3060 C   0  0  0  0  0  0  0  0  0  0  0  0
  142.1690  160.8610  133.4610 O   0  0  0  0  0  0  0  0  0  0  0  0
  144.1940  160.3320  134.4560 N   0  0  0  0  0  0  0  0  0  0  0  0
  145.1360  160.4950  133.3550 C   0  0  0  0  0  0  0  0  0  0  0  0
  146.3520  159.5830  133.5560 C   0  0  0  0  0  0  0  0  0  0  0  0
  147.6540  160.1990  133.0130 C   0  0  0  0  0  0  0  0  0  0  0  0
  148.1410  159.4650  131.8230 N   0  0  0  0  0  0  0  0  0  0  0  0
  149.0820  158.4000  132.2060 C   0  0  0  0  0  0  0  0  0  0  0  0
  148.7950  160.3870  130.8800 C   0  0  0  0  0  0  0  0  0  0  0  0
  142.6950  156.9910  134.0850 C   0  0  0  0  0  0  0  0  0  0  0  0
  144.0850  157.1540  134.0450 C   0  0  0  0  0  0  0  0  0  0  0  0
  146.7568  156.2706  134.5326 H   0  0  0  0  0  0  0  0  0  0  0  0
  146.7954  155.3721  132.9777 H   0  0  0  0  0  0  0  0  0  0  0  0
  146.6253  157.1603  132.9777 H   0  0  0  0  0  0  0  0  0  0  0  0
  144.8583  154.0620  132.7444 H   0  0  0  0  0  0  0  0  0  0  0  0
  142.3537  153.8205  132.8693 H   0  0  0  0  0  0  0  0  0  0  0  0
  139.9713  155.1935  133.6760 H   0  0  0  0  0  0  0  0  0  0  0  0
  139.4560  159.0760  136.4760 H   0  0  0  0  0  0  0  0  0  0  0  0
  144.6382  160.2331  132.4097 H   0  0  0  0  0  0  0  0  0  0  0  0
  145.4743  161.5413  133.3253 H   0  0  0  0  0  0  0  0  0  0  0  0
  146.4750  159.3929  134.6324 H   0  0  0  0  0  0  0  0  0  0  0  0
  146.1661  158.6540  132.9970 H   0  0  0  0  0  0  0  0  0  0  0  0
  147.4663  161.2468  132.7357 H   0  0  0  0  0  0  0  0  0  0  0  0
  148.4218  160.1358  133.7982 H   0  0  0  0  0  0  0  0  0  0  0  0
  149.1377  158.3369  133.3028 H   0  0  0  0  0  0  0  0  0  0  0  0
  148.7327  157.4389  131.8007 H   0  0  0  0  0  0  0  0  0  0  0  0
  150.0788  158.6283  131.8007 H   0  0  0  0  0  0  0  0  0  0  0  0
  149.3423  161.1585  131.4415 H   0  0  0  0  0  0  0  0  0  0  0  0
  149.4983  159.8261  130.2469 H   0  0  0  0  0  0  0  0  0  0  0  0
  148.0331  160.8653  130.2469 H   0  0  0  0  0  0  0  0  0  0  0  0
  144.5538  158.0876  134.3894 H   0  0  0  0  0  0  0  0  0  0  0  0
  1  2  1  0
  2  3  2  0
  3  4  1  0
  4  5  2  0
  5  6  1  0
  6  7  2  0
  7  8  1  0
  8  9  1  0
  8 10  2  0
  7 11  1  0
 11 12  1  0
 12 13  2  0
 12 14  1  0
 14 15  2  0
 14 16  1  0
 16 17  1  0
 17 18  1  0
 18 19  1  0
 19 20  1  0
 20 21  1  0
 20 22  1  0
 11 23  1  0
 23 24  2  0
 24  2  1  0
 23  5  1  0
  1 25  1  0
  1 26  1  0
  1 27  1  0
  3 28  1  0
  4 29  1  0
  6 30  1  0
  9 31  1  0
 17 32  1  0
 17 33  1  0
 18 34  1  0
 18 35  1  0
 19 36  1  0
 19 37  1  0
 21 38  1  0
 21 39  1  0
 21 40  1  0
 22 41  1  0
 22 42  1  0
 22 43  1  0
 24 44  1  0
M  CHG  2   9  -1  16  -1
M  END
>  <UniqueID>  (2) 
2

>  <SMILES>  (2) 
Cc1ccc2cc(C([NH-])=O)n(C(=O)C(=O)[N-]CCCN(C)C)c2c1

>  <Energy>  (2) 
78.46747566768616

>  <Genealogy>  (2) 
Cc1ccc2cc(C([NH-])=O)n(C(=O)C(=O)[N-]CCCN(C)C)c2c1 (protonated)
Cc1ccc2cc(C([NH-])=O)n(C(=O)C(=O)[N-]CCCN(C)C)c2c1 (3D coordinates assigned)
Cc1ccc2cc(C([NH-])=O)n(C(=O)C(=O)[N-]CCCN(C)C)c2c1 (optimized conformer: 78.46747566768616 kcal/mol)

>  <smiles>  (2) 
Cc1ccc2cc(C(N)=O)n(C(=O)C(=O)NCCCN(C)C)c2c1

>  <score_type>  (2) 
oracle

>  <origin>  (2) 
adg

>  <m_score__min__energy>  (2) 
-7.0999999999999996

>  <m_primary>  (2) 
energy

$$$$
2:0
     RDKit          3D

 38 39  0  0  0  0  0  0  0  0999 V2000
  138.4820  160.4840  130.3810 C   0  0  0  0  0  0  0  0  0  0  0  0
  137.9840  159.1590  130.9360 C   0  0  0  0  0  0  0  0  0  0  0  0
  138.2560  159.0940  132.3310 O   0  0  0  0  0  0  0  0  0  0  0  0
  139.4120  158.5000  132.8450 C   0  0  0  0  0  0  0  0  0  0  0  0
  140.5550  158.9210  132.5170 O   0  0  0  0  0  0  0  0  0  0  0  0
  139.2860  157.3250  133.7610 C   0  0  0  0  0  0  0  0  0  0  0  0
  140.4950  156.5130  133.7030 N   0  0  0  0  0  0  0  0  0  0  0  0
  140.5480  155.2180  133.0930 C   0  0  0  0  0  0  0  0  0  0  0  0
  139.4980  154.6910  132.6330 O   0  0  0  0  0  0  0  0  0  0  0  0
  141.7990  154.5180  133.0030 N   0  0  0  0  0  0  0  0  0  0  0  0
  143.0520  155.0550  133.0040 C   0  0  0  0  0  0  0  0  0  0  0  0
  143.3640  156.5010  132.9560 C   0  0  0  0  0  0  0  0  0  0  0  0
  142.4600  157.4260  132.3500 N   0  0  0  0  0  0  0  0  0  0  0  0
  144.4270  156.9360  133.4760 O   0  0  0  0  0  0  0  0  0  0  0  0
  144.0140  154.0470  132.9670 C   0  0  0  0  0  0  0  0  0  0  0  0
  143.3060  152.8670  132.9460 C   0  0  0  0  0  0  0  0  0  0  0  0
  143.7610  151.5530  132.9090 C   0  0  0  0  0  0  0  0  0  0  0  0
  142.8040  150.5240  132.9160 C   0  0  0  0  0  0  0  0  0  0  0  0
  141.4180  150.8240  132.9850 C   0  0  0  0  0  0  0  0  0  0  0  0
  140.4000  149.7120  132.9570 C   0  0  0  0  0  0  0  0  0  0  0  0
  140.2100  149.2360  134.2410 F   0  0  0  0  0  0  0  0  0  0  0  0
  139.1900  150.1690  132.4620 F   0  0  0  0  0  0  0  0  0  0  0  0
  140.8320  148.6740  132.1500 F   0  0  0  0  0  0  0  0  0  0  0  0
  140.9970  152.1730  132.9950 C   0  0  0  0  0  0  0  0  0  0  0  0
  141.9710  153.1770  132.9690 C   0  0  0  0  0  0  0  0  0  0  0  0
  138.7353  161.1579  131.2127 H   0  0  0  0  0  0  0  0  0  0  0  0
  139.3762  160.3104  129.7644 H   0  0  0  0  0  0  0  0  0  0  0  0
  137.6948  160.9423  129.7644 H   0  0  0  0  0  0  0  0  0  0  0  0
  136.8997  159.0769  130.7701 H   0  0  0  0  0  0  0  0  0  0  0  0
  138.4982  158.3320  130.4244 H   0  0  0  0  0  0  0  0  0  0  0  0
  139.1358  157.6810  134.7909 H   0  0  0  0  0  0  0  0  0  0  0  0
  138.4266  156.7143  133.4472 H   0  0  0  0  0  0  0  0  0  0  0  0
  141.5950  157.1000  131.8640 H   0  0  0  0  0  0  0  0  0  0  0  0
  142.6790  158.4480  132.3460 H   0  0  0  0  0  0  0  0  0  0  0  0
  145.1072  154.1688  132.9567 H   0  0  0  0  0  0  0  0  0  0  0  0
  144.8369  151.3264  132.8753 H   0  0  0  0  0  0  0  0  0  0  0  0
  143.1321  149.4752  132.8675 H   0  0  0  0  0  0  0  0  0  0  0  0
  139.9273  152.4280  133.0226 H   0  0  0  0  0  0  0  0  0  0  0  0
  1  2  1  0
  2  3  1  0
  3  4  1  0
  4  5  2  0
  4  6  1  0
  6  7  1  0
  7  8  1  0
  8  9  2  0
  8 10  1  0
 10 11  1  0
 11 12  1  0
 12 13  1  0
 12 14  2  0
 11 15  2  0
 15 16  1  0
 16 17  2  0
 17 18  1  0
 18 19  2  0
 19 20  1  0
 20 21  1  0
 20 22  1  0
 20 23  1  0
 19 24  1  0
 24 25  2  0
 25 10  1  0
 25 16  1  0
  1 26  1  0
  1 27  1  0
  1 28  1  0
  2 29  1  0
  2 30  1  0
  6 31  1  0
  6 32  1  0
 13 33  1  0
 13 34  1  0
 15 35  1  0
 17 36  1  0
 18 37  1  0
 24 38  1  0
M  CHG  1   7  -1
M  END
>  <UniqueID>  (3) 
3

>  <SMILES>  (3) 
CCOC(=O)C[N-]C(=O)n1c(C(N)=O)cc2ccc(C(F)(F)F)cc21

>  <Energy>  (3) 
69.35039546287214

>  <Genealogy>  (3) 
CCOC(=O)C[N-]C(=O)n1c(C(N)=O)cc2ccc(C(F)(F)F)cc21 (protonated)
CCOC(=O)C[N-]C(=O)n1c(C(N)=O)cc2ccc(C(F)(F)F)cc21 (3D coordinates assigned)
CCOC(=O)C[N-]C(=O)n1c(C(N)=O)cc2ccc(C(F)(F)F)cc21 (optimized conformer: 69.35039546287214 kcal/mol)

>  <smiles>  (3) 
CCOC(=O)CNC(=O)n1c(C(N)=O)cc2ccc(C(F)(F)F)cc21

>  <score_type>  (3) 
oracle

>  <origin>  (3) 
adg

>  <m_score__min__energy>  (3) 
-6.2699999999999996

>  <m_primary>  (3) 
energy

$$$$
3:0
     RDKit          3D

 44 45  0  0  0  0  0  0  0  0999 V2000
  144.0170  154.0990  132.0720 C   0  0  0  0  0  0  0  0  0  0  0  0
  143.8260  154.2200  133.5300 N   0  0  0  0  0  0  0  0  0  0  0  0
  145.0460  154.3920  134.3050 C   0  0  0  0  0  0  0  0  0  0  0  0
  145.6270  153.3680  134.7620 O   0  0  0  0  0  0  0  0  0  0  0  0
  145.6540  155.7520  134.5650 C   0  0  0  0  0  0  0  0  0  0  0  0
  146.0130  156.5420  133.3290 C   0  0  0  0  0  0  0  0  0  0  0  0
  146.6000  155.9550  132.3840 O   0  0  0  0  0  0  0  0  0  0  0  0
  145.8440  157.9720  133.2690 N   0  0  0  0  0  0  0  0  0  0  0  0
  146.8340  158.9130  133.1980 C   0  0  0  0  0  0  0  0  0  0  0  0
  148.2740  158.6500  132.9890 C   0  0  0  0  0  0  0  0  0  0  0  0
  148.7340  157.9420  131.8400 N   0  0  0  0  0  0  0  0  0  0  0  0
  149.1180  159.0930  133.8210 O   0  0  0  0  0  0  0  0  0  0  0  0
  146.3120  160.1970  133.3500 C   0  0  0  0  0  0  0  0  0  0  0  0
  144.9610  160.0210  133.5180 C   0  0  0  0  0  0  0  0  0  0  0  0
  143.9720  160.9660  133.7530 C   0  0  0  0  0  0  0  0  0  0  0  0
  142.6600  160.5080  133.9520 C   0  0  0  0  0  0  0  0  0  0  0  0
  142.3600  159.1200  133.9470 C   0  0  0  0  0  0  0  0  0  0  0  0
  141.0100  158.6610  134.1670 N   0  0  0  0  0  0  0  0  0  0  0  0
  140.3140  158.0630  136.0480 I   0  0  0  0  0  0  0  0  0  0  0  0
  139.6130  158.4890  132.6210 I   0  0  0  0  0  0  0  0  0  0  0  0
  143.4060  158.1920  133.7310 C   0  0  0  0  0  0  0  0  0  0  0  0
  144.6990  158.6740  133.4770 C   0  0  0  0  0  0  0  0  0  0  0  0
  142.4320  154.2490  134.0860 C   0  0  0  0  0  0  0  0  0  0  0  0
  141.7960  152.8460  133.9150 C   0  0  0  0  0  0  0  0  0  0  0  0
  141.5310  155.3110  133.4090 C   0  0  0  0  0  0  0  0  0  0  0  0
  142.4740  154.6360  135.5580 C   0  0  0  0  0  0  0  0  0  0  0  0
  142.8850  155.7690  135.9260 O   0  0  0  0  0  0  0  0  0  0  0  0
  142.1440  153.6940  136.5260 O   0  0  0  0  0  0  0  0  0  0  0  0
  144.9302  153.5205  131.8686 H   0  0  0  0  0  0  0  0  0  0  0  0
  143.1509  153.5845  131.6302 H   0  0  0  0  0  0  0  0  0  0  0  0
  144.1123  155.1019  131.6302 H   0  0  0  0  0  0  0  0  0  0  0  0
  144.9317  156.3420  135.1482 H   0  0  0  0  0  0  0  0  0  0  0  0
  146.6000  155.5675  135.0952 H   0  0  0  0  0  0  0  0  0  0  0  0
  148.2040  157.1150  131.4820 H   0  0  0  0  0  0  0  0  0  0  0  0
  146.8648  161.1480  133.3379 H   0  0  0  0  0  0  0  0  0  0  0  0
  144.2087  162.0398  133.7824 H   0  0  0  0  0  0  0  0  0  0  0  0
  141.8514  161.2359  134.1144 H   0  0  0  0  0  0  0  0  0  0  0  0
  143.2087  157.1103  133.7617 H   0  0  0  0  0  0  0  0  0  0  0  0
  141.5983  152.4099  134.9053 H   0  0  0  0  0  0  0  0  0  0  0  0
  140.8511  152.9370  133.3592 H   0  0  0  0  0  0  0  0  0  0  0  0
  142.4872  152.1954  133.3592 H   0  0  0  0  0  0  0  0  0  0  0  0
  141.0243  155.9082  134.1814 H   0  0  0  0  0  0  0  0  0  0  0  0
  142.1492  155.9706  132.7823 H   0  0  0  0  0  0  0  0  0  0  0  0
  140.7794  154.8086  132.7823 H   0  0  0  0  0  0  0  0  0  0  0  0
  1  2  1  0
  2  3  1  0
  3  4  2  0
  3  5  1  0
  5  6  1  0
  6  7  2  0
  6  8  1  0
  8  9  1  0
  9 10  1  0
 10 11  1  0
 10 12  2  0
  9 13  2  0
 13 14  1  0
 14 15  2  0
 15 16  1  0
 16 17  2  0
 17 18  1  0
 18 19  1  0
 18 20  1  0
 17 21  1  0
 21 22  2  0
  2 23  1  0
 23 24  1  0
 23 25  1  0
 23 26  1  0
 26 27  2  0
 26 28  1  0
 22  8  1  0
 22 14  1  0
  1 29  1  0
  1 30  1  0
  1 31  1  0
  5 32  1  0
  5 33  1  0
 11 34  1  0
 13 35  1  0
 15 36  1  0
 16 37  1  0
 21 38  1  0
 24 39  1  0
 24 40  1  0
 24 41  1  0
 25 42  1  0
 25 43  1  0
 25 44  1  0
M  CHG  2  11  -1  28  -1
M  END
>  <UniqueID>  (4) 
4

>  <SMILES>  (4) 
CN(C(=O)CC(=O)n1c(C([NH-])=O)cc2ccc(N(I)I)cc21)C(C)(C)C(=O)[O-]

>  <Energy>  (4) 
96.6522301205355

>  <Genealogy>  (4) 
CN(C(=O)CC(=O)n1c(C([NH-])=O)cc2ccc(N(I)I)cc21)C(C)(C)C(=O)[O-] (protonated)
CN(C(=O)CC(=O)n1c(C([NH-])=O)cc2ccc(N(I)I)cc21)C(C)(C)C(=O)[O-] (3D coordinates assigned)
CN(C(=O)CC(=O)n1c(C([NH-])=O)cc2ccc(N(I)I)cc21)C(C)(C)C(=O)[O-] (optimized conformer: 96.6522301205355 kcal/mol)

>  <smiles>  (4) 
CN(C(=O)CC(=O)n1c(C(N)=O)cc2ccc(N(I)I)cc21)C(C)(C)C(=O)O

>  <score_type>  (4) 
oracle

>  <origin>  (4) 
adg

>  <m_score__min__energy>  (4) 
-8.7799999999999994

>  <m_primary>  (4) 
energy

$$$$
4:0
     RDKit          3D

 43 46  0  0  0  0  0  0  0  0999 V2000
  140.5320  152.3080  132.9860 N   0  0  0  0  0  0  0  0  0  0  0  0
  141.4190  152.6530  134.0510 C   0  0  0  0  0  0  0  0  0  0  0  0
  141.3570  152.0120  135.1350 O   0  0  0  0  0  0  0  0  0  0  0  0
  142.3700  153.7780  133.9300 C   0  0  0  0  0  0  0  0  0  0  0  0
  143.7440  153.6500  134.1250 C   0  0  0  0  0  0  0  0  0  0  0  0
  144.2580  154.9120  133.9310 C   0  0  0  0  0  0  0  0  0  0  0  0
  145.5720  155.3650  133.9940 C   0  0  0  0  0  0  0  0  0  0  0  0
  145.8150  156.7210  133.7140 C   0  0  0  0  0  0  0  0  0  0  0  0
  144.7530  157.5880  133.3450 C   0  0  0  0  0  0  0  0  0  0  0  0
  145.0160  159.0490  133.0840 C   0  0  0  0  0  0  0  0  0  0  0  0
  145.7120  159.2150  131.9000 F   0  0  0  0  0  0  0  0  0  0  0  0
  145.7670  159.6020  134.1080 F   0  0  0  0  0  0  0  0  0  0  0  0
  143.8110  159.7190  132.9970 F   0  0  0  0  0  0  0  0  0  0  0  0
  143.4310  157.0890  133.3070 C   0  0  0  0  0  0  0  0  0  0  0  0
  143.2160  155.7450  133.6210 C   0  0  0  0  0  0  0  0  0  0  0  0
  142.0490  155.0660  133.6270 N   0  0  0  0  0  0  0  0  0  0  0  0
  140.7610  155.5800  133.2530 C   0  0  0  0  0  0  0  0  0  0  0  0
  139.8680  154.7810  132.8620 O   0  0  0  0  0  0  0  0  0  0  0  0
  140.4800  156.9910  133.3280 N   0  0  0  0  0  0  0  0  0  0  0  0
  140.6090  157.7770  134.5430 C   0  0  2  0  0  0  0  0  0  0  0  0
  139.1540  157.9710  134.9950 C   0  0  0  0  0  0  0  0  0  0  0  0
  138.3370  157.8520  133.7030 C   0  0  0  0  0  0  0  0  0  0  0  0
  139.3920  157.6340  132.6110 C   0  0  1  0  0  0  0  0  0  0  0  0
  139.9140  158.9960  132.0690 C   0  0  0  0  0  0  0  0  0  0  0  0
  141.1770  159.4250  132.7110 N   0  0  0  0  0  0  0  0  0  0  0  0
  141.2560  159.1380  134.1620 C   0  0  0  0  0  0  0  0  0  0  0  0
  140.4150  152.9280  132.1560 H   0  0  0  0  0  0  0  0  0  0  0  0
  139.9110  151.4740  133.0730 H   0  0  0  0  0  0  0  0  0  0  0  0
  144.2994  152.7353  134.3797 H   0  0  0  0  0  0  0  0  0  0  0  0
  146.3950  154.6834  134.2548 H   0  0  0  0  0  0  0  0  0  0  0  0
  146.8398  157.1149  133.7816 H   0  0  0  0  0  0  0  0  0  0  0  0
  142.5902  157.7445  133.0362 H   0  0  0  0  0  0  0  0  0  0  0  0
  141.2273  157.3173  135.3281 H   0  0  0  0  0  0  0  0  0  0  0  0
  138.8620  157.1913  135.7139 H   0  0  0  0  0  0  0  0  0  0  0  0
  138.9969  158.9331  135.5045 H   0  0  0  0  0  0  0  0  0  0  0  0
  137.6467  156.9972  133.7550 H   0  0  0  0  0  0  0  0  0  0  0  0
  137.7127  158.7381  133.5156 H   0  0  0  0  0  0  0  0  0  0  0  0
  138.9975  157.0620  131.7582 H   0  0  0  0  0  0  0  0  0  0  0  0
  140.0851  158.9008  130.9866 H   0  0  0  0  0  0  0  0  0  0  0  0
  139.1525  159.7562  132.2975 H   0  0  0  0  0  0  0  0  0  0  0  0
  141.9680  158.9310  132.2330 H   0  0  0  0  0  0  0  0  0  0  0  0
  142.3149  159.1193  134.4594 H   0  0  0  0  0  0  0  0  0  0  0  0
  140.6987  159.9280  134.6867 H   0  0  0  0  0  0  0  0  0  0  0  0
  1  2  1  0
  2  3  2  0
  2  4  1  0
  4  5  2  0
  5  6  1  0
  6  7  2  0
  7  8  1  0
  8  9  2  0
  9 10  1  0
 10 11  1  0
 10 12  1  0
 10 13  1  0
  9 14  1  0
 14 15  2  0
 15 16  1  0
 16 17  1  0
 17 18  2  0
 17 19  1  0
 19 20  1  0
 20 21  1  0
 21 22  1  0
 22 23  1  0
 23 24  1  0
 24 25  1  0
 25 26  1  0
 16  4  1  0
 23 19  1  0
 15  6  1  0
 26 20  1  0
  1 27  1  0
  1 28  1  0
  5 29  1  0
  7 30  1  0
  8 31  1  0
 14 32  1  0
 20 33  1  1
 21 34  1  0
 21 35  1  0
 22 36  1  0
 22 37  1  0
 23 38  1  6
 24 39  1  0
 24 40  1  0
 25 41  1  0
 26 42  1  0
 26 43  1  0
M  END
>  <UniqueID>  (5) 
5

>  <SMILES>  (5) 
NC(=O)c1cc2ccc(C(F)(F)F)cc2n1C(=O)N1[C@@H]2CC[C@H]1CNC2

>  <Energy>  (5) 
110.67766819588162

>  <Genealogy>  (5) 
NC(=O)c1cc2ccc(C(F)(F)F)cc2n1C(=O)N1[C@@H]2CC[C@H]1CNC2 (chirality)
NC(=O)c1cc2ccc(C(F)(F)F)cc2n1C(=O)N1[C@@H]2CC[C@H]1CNC2 (3D coordinates assigned)
NC(=O)c1cc2ccc(C(F)(F)F)cc2n1C(=O)N1[C@@H]2CC[C@H]1CNC2 (nonaromatic ring conformer: 110.67766819588162 kcal/mol)

>  <smiles>  (5) 
NC(=O)c1cc2ccc(C(F)(F)F)cc2n1C(=O)N1C2CCC1CNC2

>  <score_type>  (5) 
oracle

>  <origin>  (5) 
adg

>  <m_score__min__energy>  (5) 
-7.3799999999999999

>  <m_primary>  (5) 
energy

$$$$
5:0
     RDKit          3D

 43 44  0  0  0  0  0  0  0  0999 V2000
  140.2640  149.3690  132.9590 C   0  0  0  0  0  0  0  0  0  0  0  0
  141.0190  150.4060  133.6480 N   0  0  0  0  0  0  0  0  0  0  0  0
  141.9200  151.2850  132.9700 C   0  0  0  0  0  0  0  0  0  0  0  0
  143.0610  150.8820  132.6160 O   0  0  0  0  0  0  0  0  0  0  0  0
  141.4840  152.6730  132.6280 C   0  0  0  0  0  0  0  0  0  0  0  0
  141.6700  153.5770  133.8140 C   0  0  0  0  0  0  0  0  0  0  0  0
  142.5720  153.2190  134.8480 C   0  0  0  0  0  0  0  0  0  0  0  0
  142.7700  154.0670  135.9510 C   0  0  0  0  0  0  0  0  0  0  0  0
  142.0650  155.2670  135.9860 C   0  0  0  0  0  0  0  0  0  0  0  0
  142.0690  156.2730  136.9270 C   0  0  0  0  0  0  0  0  0  0  0  0
  141.1940  157.2410  136.4370 C   0  0  0  0  0  0  0  0  0  0  0  0
  140.9570  158.5540  137.0750 C   0  0  0  0  0  0  0  0  0  0  0  0
  140.2500  159.5870  136.3850 N   0  0  0  0  0  0  0  0  0  0  0  0
  141.3610  158.7670  138.2480 O   0  0  0  0  0  0  0  0  0  0  0  0
  140.6610  156.8380  135.2480 N   0  0  0  0  0  0  0  0  0  0  0  0
  139.7220  157.5450  134.4220 C   0  0  0  0  0  0  0  0  0  0  0  0
  138.6050  157.8740  134.9070 O   0  0  0  0  0  0  0  0  0  0  0  0
  140.0480  157.8970  133.0620 N   0  0  0  0  0  0  0  0  0  0  0  0
  141.4430  158.1400  132.6670 C   0  0  0  0  0  0  0  0  0  0  0  0
  142.0900  159.1190  133.5970 C   0  0  0  0  0  0  0  0  0  0  0  0
  143.2360  158.8900  134.0630 O   0  0  0  0  0  0  0  0  0  0  0  0
  141.4070  160.2660  133.9830 O   0  0  0  0  0  0  0  0  0  0  0  0
  138.9710  158.1460  132.0950 C   0  0  0  0  0  0  0  0  0  0  0  0
  139.1500  159.4800  131.4450 C   0  0  0  0  0  0  0  0  0  0  0  0
  138.5490  160.4910  131.8930 O   0  0  0  0  0  0  0  0  0  0  0  0
  139.9650  159.6060  130.3270 O   0  0  0  0  0  0  0  0  0  0  0  0
  141.2110  155.6370  134.9820 C   0  0  0  0  0  0  0  0  0  0  0  0
  140.9840  154.8100  133.8780 C   0  0  0  0  0  0  0  0  0  0  0  0
  139.7850  148.7111  133.6991 H   0  0  0  0  0  0  0  0  0  0  0  0
  139.4922  149.8349  132.3287 H   0  0  0  0  0  0  0  0  0  0  0  0
  140.9444  148.7776  132.3287 H   0  0  0  0  0  0  0  0  0  0  0  0
  142.0861  153.0471  131.7868 H   0  0  0  0  0  0  0  0  0  0  0  0
  140.4203  152.6587  132.3481 H   0  0  0  0  0  0  0  0  0  0  0  0
  143.1220  152.2684  134.7861 H   0  0  0  0  0  0  0  0  0  0  0  0
  143.4606  153.7912  136.7616 H   0  0  0  0  0  0  0  0  0  0  0  0
  142.6413  156.3055  137.8659 H   0  0  0  0  0  0  0  0  0  0  0  0
  139.9660  159.4790  135.3880 H   0  0  0  0  0  0  0  0  0  0  0  0
  140.0530  160.4940  136.8630 H   0  0  0  0  0  0  0  0  0  0  0  0
  141.9982  157.1909  132.6976 H   0  0  0  0  0  0  0  0  0  0  0  0
  141.4565  158.5555  131.6486 H   0  0  0  0  0  0  0  0  0  0  0  0
  138.9886  157.3620  131.3236 H   0  0  0  0  0  0  0  0  0  0  0  0
  138.0071  158.1346  132.6249 H   0  0  0  0  0  0  0  0  0  0  0  0
  140.2894  155.1116  133.0802 H   0  0  0  0  0  0  0  0  0  0  0  0
  1  2  1  0
  2  3  1  0
  3  4  2  0
  3  5  1  0
  5  6  1  0
  6  7  2  0
  7  8  1  0
  8  9  2  0
  9 10  1  0
 10 11  2  0
 11 12  1  0
 12 13  1  0
 12 14  2  0
 11 15  1  0
 15 16  1  0
 16 17  2  0
 16 18  1  0
 18 19  1  0
 19 20  1  0
 20 21  2  0
 20 22  1  0
 18 23  1  0
 23 24  1  0
 24 25  2  0
 24 26  1  0
 15 27  1  0
 27 28  2  0
 28  6  1  0
 27  9  1  0
  1 29  1  0
  1 30  1  0
  1 31  1  0
  5 32  1  0
  5 33  1  0
  7 34  1  0
  8 35  1  0
 10 36  1  0
 13 37  1  0
 13 38  1  0
 19 39  1  0
 19 40  1  0
 23 41  1  0
 23 42  1  0
 28 43  1  0
M  CHG  3   2  -1  22  -1  26  -1
M  END
>  <UniqueID>  (6) 
6

>  <SMILES>  (6) 
C[N-]C(=O)Cc1ccc2cc(C(N)=O)n(C(=O)N(CC(=O)[O-])CC(=O)[O-])c2c1

>  <Energy>  (6) 
74.20997572327995

>  <Genealogy>  (6) 
C[N-]C(=O)Cc1ccc2cc(C(N)=O)n(C(=O)N(CC(=O)[O-])CC(=O)[O-])c2c1 (protonated)
C[N-]C(=O)Cc1ccc2cc(C(N)=O)n(C(=O)N(CC(=O)[O-])CC(=O)[O-])c2c1 (3D coordinates assigned)
C[N-]C(=O)Cc1ccc2cc(C(N)=O)n(C(=O)N(CC(=O)[O-])CC(=O)[O-])c2c1 (optimized conformer: 74.20997572327995 kcal/mol)

>  <smiles>  (6) 
CNC(=O)Cc1ccc2cc(C(N)=O)n(C(=O)N(CC(=O)O)CC(=O)O)c2c1

>  <score_type>  (6) 
oracle

>  <origin>  (6) 
adg

>  <m_score__min__energy>  (6) 
-7.29

>  <m_primary>  (6) 
energy

$$$$
6:0
     RDKit          3D

 35 36  0  0  0  0  0  0  0  0999 V2000
  147.8220  152.7000  133.7410 N   0  0  0  0  0  0  0  0  0  0  0  0
  148.3010  153.6780  132.8140 C   0  0  0  0  0  0  0  0  0  0  0  0
  149.0760  153.3170  131.8900 O   0  0  0  0  0  0  0  0  0  0  0  0
  147.9260  155.1010  132.9570 C   0  0  0  0  0  0  0  0  0  0  0  0
  148.8380  156.1540  132.9050 C   0  0  0  0  0  0  0  0  0  0  0  0
  148.0790  157.2990  132.9750 C   0  0  0  0  0  0  0  0  0  0  0  0
  148.4720  158.6330  132.9720 C   0  0  0  0  0  0  0  0  0  0  0  0
  147.4730  159.6140  133.0810 C   0  0  0  0  0  0  0  0  0  0  0  0
  146.1060  159.2530  133.1940 C   0  0  0  0  0  0  0  0  0  0  0  0
  145.1160  160.2910  133.3140 N   0  0  0  0  0  0  0  0  0  0  0  0
  143.7680  160.0580  133.8370 C   0  0  0  0  0  0  0  0  0  0  0  0
  142.9400  161.2990  133.7320 C   0  0  0  0  0  0  0  0  0  0  0  0
  143.4840  162.4060  133.4770 O   0  0  0  0  0  0  0  0  0  0  0  0
  141.5580  161.2240  133.8550 O   0  0  0  0  0  0  0  0  0  0  0  0
  145.7470  157.8820  133.1940 C   0  0  0  0  0  0  0  0  0  0  0  0
  146.7630  156.9260  133.0660 C   0  0  0  0  0  0  0  0  0  0  0  0
  146.6530  155.5780  133.0570 N   0  0  0  0  0  0  0  0  0  0  0  0
  145.4440  154.8140  133.2040 C   0  0  0  0  0  0  0  0  0  0  0  0
  144.5560  154.8620  132.3080 O   0  0  0  0  0  0  0  0  0  0  0  0
  145.2530  154.0300  134.3460 O   0  0  0  0  0  0  0  0  0  0  0  0
  145.4630  154.5090  135.6720 C   0  0  0  0  0  0  0  0  0  0  0  0
  146.8180  154.1110  136.1620 C   0  0  0  0  0  0  0  0  0  0  0  0
  146.9870  152.9920  136.7120 O   0  0  0  0  0  0  0  0  0  0  0  0
  147.9030  154.9610  135.9820 O   0  0  0  0  0  0  0  0  0  0  0  0
  148.1310  151.7050  133.6590 H   0  0  0  0  0  0  0  0  0  0  0  0
  147.1160  152.9440  134.4690 H   0  0  0  0  0  0  0  0  0  0  0  0
  149.9328  156.0841  132.8249 H   0  0  0  0  0  0  0  0  0  0  0  0
  149.5328  158.9112  132.8869 H   0  0  0  0  0  0  0  0  0  0  0  0
  147.7546  160.6773  133.0787 H   0  0  0  0  0  0  0  0  0  0  0  0
  145.3760  161.2560  133.0030 H   0  0  0  0  0  0  0  0  0  0  0  0
  143.2896  159.2543  133.2579 H   0  0  0  0  0  0  0  0  0  0  0  0
  143.8436  159.7711  134.8962 H   0  0  0  0  0  0  0  0  0  0  0  0
  144.6951  157.5757  133.2922 H   0  0  0  0  0  0  0  0  0  0  0  0
  145.3834  155.6061  135.6778 H   0  0  0  0  0  0  0  0  0  0  0  0
  144.7016  154.0710  136.3341 H   0  0  0  0  0  0  0  0  0  0  0  0
  1  2  1  0
  2  3  2  0
  2  4  1  0
  4  5  2  0
  5  6  1  0
  6  7  2  0
  7  8  1  0
  8  9  2  0
  9 10  1  0
 10 11  1  0
 11 12  1  0
 12 13  2  0
 12 14  1  0
  9 15  1  0
 15 16  2  0
 16 17  1  0
 17 18  1  0
 18 19  2  0
 18 20  1  0
 20 21  1  0
 21 22  1  0
 22 23  2  0
 22 24  1  0
 17  4  1  0
 16  6  1  0
  1 25  1  0
  1 26  1  0
  5 27  1  0
  7 28  1  0
  8 29  1  0
 10 30  1  0
 11 31  1  0
 11 32  1  0
 15 33  1  0
 21 34  1  0
 21 35  1  0
M  CHG  2  14  -1  24  -1
M  END
>  <UniqueID>  (7) 
7

>  <SMILES>  (7) 
NC(=O)c1cc2ccc(NCC(=O)[O-])cc2n1C(=O)OCC(=O)[O-]

>  <Energy>  (7) 
70.41964855579633

>  <Genealogy>  (7) 
NC(=O)c1cc2ccc(NCC(=O)[O-])cc2n1C(=O)OCC(=O)[O-] (protonated)
NC(=O)c1cc2ccc(NCC(=O)[O-])cc2n1C(=O)OCC(=O)[O-] (3D coordinates assigned)
NC(=O)c1cc2ccc(NCC(=O)[O-])cc2n1C(=O)OCC(=O)[O-] (optimized conformer: 70.41964855579633 kcal/mol)

>  <smiles>  (7) 
NC(=O)c1cc2ccc(NCC(=O)O)cc2n1C(=O)OCC(=O)O

>  <score_type>  (7) 
oracle

>  <origin>  (7) 
adg

>  <m_score__min__energy>  (7) 
-6.6699999999999999

>  <m_primary>  (7) 
energy

$$$$
8:0
     RDKit          3D

 40 42  0  0  0  0  0  0  0  0999 V2000
  148.5420  157.7900  132.4470 N   0  0  0  0  0  0  0  0  0  0  0  0
  148.0730  158.5540  133.5550 C   0  0  0  0  0  0  0  0  0  0  0  0
  148.8790  158.8830  134.4640 O   0  0  0  0  0  0  0  0  0  0  0  0
  146.6460  158.9290  133.6370 C   0  0  0  0  0  0  0  0  0  0  0  0
  146.1850  160.2440  133.5920 C   0  0  0  0  0  0  0  0  0  0  0  0
  144.8130  160.1530  133.6500 C   0  0  0  0  0  0  0  0  0  0  0  0
  143.8460  161.1560  133.6690 C   0  0  0  0  0  0  0  0  0  0  0  0
  142.4980  160.7690  133.7720 C   0  0  0  0  0  0  0  0  0  0  0  0
  142.1450  159.4000  133.8530 C   0  0  0  0  0  0  0  0  0  0  0  0
  140.7050  158.9930  134.0020 C   0  0  0  0  0  0  0  0  0  0  0  0
  139.9970  159.2080  132.7460 N   0  0  0  0  0  0  0  0  0  0  0  0
  139.4310  158.2690  131.9680 C   0  0  0  0  0  0  0  0  0  0  0  0
  138.7970  158.8270  130.9190 N   0  0  0  0  0  0  0  0  0  0  0  0
  139.0090  160.1480  131.1190 C   0  0  0  0  0  0  0  0  0  0  0  0
  139.7290  160.3930  132.2300 N   0  0  0  0  0  0  0  0  0  0  0  0
  143.1530  158.4130  133.8490 C   0  0  0  0  0  0  0  0  0  0  0  0
  144.4840  158.8250  133.7250 C   0  0  0  0  0  0  0  0  0  0  0  0
  145.5980  158.0610  133.7130 N   0  0  0  0  0  0  0  0  0  0  0  0
  145.6510  156.6310  133.8510 C   0  0  0  0  0  0  0  0  0  0  0  0
  144.8030  156.0410  134.5720 O   0  0  0  0  0  0  0  0  0  0  0  0
  146.6680  155.8440  133.1400 C   0  0  0  0  0  0  0  0  0  0  0  0
  146.6240  155.7470  131.8830 O   0  0  0  0  0  0  0  0  0  0  0  0
  147.6810  155.2110  133.8690 O   0  0  0  0  0  0  0  0  0  0  0  0
  148.0940  153.8640  133.6370 C   0  0  0  0  0  0  0  0  0  0  0  0
  149.1660  153.8060  132.5520 C   0  0  0  0  0  0  0  0  0  0  0  0
  149.6050  155.0970  132.2320 O   0  0  0  0  0  0  0  0  0  0  0  0
  148.4560  156.7490  132.4380 H   0  0  0  0  0  0  0  0  0  0  0  0
  146.7899  161.1603  133.5244 H   0  0  0  0  0  0  0  0  0  0  0  0
  144.1282  162.2173  133.6054 H   0  0  0  0  0  0  0  0  0  0  0  0
  141.7105  161.5368  133.7898 H   0  0  0  0  0  0  0  0  0  0  0  0
  140.6529  157.9281  134.2726 H   0  0  0  0  0  0  0  0  0  0  0  0
  140.2365  159.5999  134.7907 H   0  0  0  0  0  0  0  0  0  0  0  0
  139.4794  157.1874  132.1626 H   0  0  0  0  0  0  0  0  0  0  0  0
  138.6345  160.9351  130.4480 H   0  0  0  0  0  0  0  0  0  0  0  0
  142.8988  157.3467  133.9410 H   0  0  0  0  0  0  0  0  0  0  0  0
  148.5013  153.4458  134.5693 H   0  0  0  0  0  0  0  0  0  0  0  0
  147.2231  153.2801  133.3043 H   0  0  0  0  0  0  0  0  0  0  0  0
  150.0181  153.2127  132.9153 H   0  0  0  0  0  0  0  0  0  0  0  0
  148.7387  153.3403  131.6517 H   0  0  0  0  0  0  0  0  0  0  0  0
  148.7870  155.6310  132.0570 H   0  0  0  0  0  0  0  0  0  0  0  0
  1  2  1  0
  2  3  2  0
  2  4  1  0
  4  5  2  0
  5  6  1  0
  6  7  2  0
  7  8  1  0
  8  9  2  0
  9 10  1  0
 10 11  1  0
 11 12  1  0
 12 13  2  0
 13 14  1  0
 14 15  2  0
  9 16  1  0
 16 17  2  0
 17 18  1  0
 18 19  1  0
 19 20  2  0
 19 21  1  0
 21 22  2  0
 21 23  1  0
 23 24  1  0
 24 25  1  0
 25 26  1  0
 18  4  1  0
 17  6  1  0
 15 11  1  0
  1 27  1  0
  5 28  1  0
  7 29  1  0
  8 30  1  0
 10 31  1  0
 10 32  1  0
 12 33  1  0
 14 34  1  0
 16 35  1  0
 24 36  1  0
 24 37  1  0
 25 38  1  0
 25 39  1  0
 26 40  1  0
M  CHG  1   1  -1
M  END
>  <UniqueID>  (8) 
8

>  <SMILES>  (8) 
[NH-]C(=O)c1cc2ccc(Cn3cncn3)cc2n1C(=O)C(=O)OCCO

>  <Energy>  (8) 
107.76804369300507

>  <Genealogy>  (8) 
[NH-]C(=O)c1cc2ccc(Cn3cncn3)cc2n1C(=O)C(=O)OCCO (protonated)
[NH-]C(=O)c1cc2ccc(Cn3cncn3)cc2n1C(=O)C(=O)OCCO (3D coordinates assigned)
[NH-]C(=O)c1cc2ccc(Cn3cncn3)cc2n1C(=O)C(=O)OCCO (optimized conformer: 107.76804369300507 kcal/mol)

>  <smiles>  (8) 
NC(=O)c1cc2ccc(Cn3cncn3)cc2n1C(=O)C(=O)OCCO

>  <score_type>  (8) 
oracle

>  <origin>  (8) 
adg

>  <m_score__min__energy>  (8) 
-5.7999999999999998

>  <m_primary>  (8) 
energy

$$$$
9:0
     RDKit          3D

 50 51  0  0  0  0  0  0  0  0999 V2000
  141.0040  159.2080  135.7040 C   0  0  0  0  0  0  0  0  0  0  0  0
  141.4650  158.7450  134.3270 C   0  0  0  0  0  0  0  0  0  0  0  0
  142.8750  159.1960  134.0590 C   0  0  0  0  0  0  0  0  0  0  0  0
  143.1880  160.5790  134.0340 C   0  0  0  0  0  0  0  0  0  0  0  0
  144.4940  161.0120  133.7440 C   0  0  0  0  0  0  0  0  0  0  0  0
  145.4600  160.0460  133.4820 C   0  0  0  0  0  0  0  0  0  0  0  0
  146.7860  160.1860  133.1380 C   0  0  0  0  0  0  0  0  0  0  0  0
  147.2640  158.8880  132.9660 C   0  0  0  0  0  0  0  0  0  0  0  0
  148.6660  158.5430  132.6290 C   0  0  0  0  0  0  0  0  0  0  0  0
  148.9750  157.3690  131.8760 N   0  0  0  0  0  0  0  0  0  0  0  0
  149.6050  159.3040  132.9850 O   0  0  0  0  0  0  0  0  0  0  0  0
  146.2720  157.9840  133.2060 N   0  0  0  0  0  0  0  0  0  0  0  0
  146.3450  156.5550  133.0730 C   0  0  0  0  0  0  0  0  0  0  0  0
  146.6340  156.0610  131.9520 O   0  0  0  0  0  0  0  0  0  0  0  0
  146.0850  155.6820  134.2400 C   0  0  0  0  0  0  0  0  0  0  0  0
  145.0560  155.9030  134.9360 O   0  0  0  0  0  0  0  0  0  0  0  0
  146.9590  154.5890  134.6010 N   0  0  0  0  0  0  0  0  0  0  0  0
  147.7520  154.6830  135.8380 C   0  0  0  0  0  0  0  0  0  0  0  0
  147.8310  153.3540  136.5220 C   0  0  0  0  0  0  0  0  0  0  0  0
  146.9060  152.9810  137.2900 O   0  0  0  0  0  0  0  0  0  0  0  0
  148.9470  152.5470  136.3420 O   0  0  0  0  0  0  0  0  0  0  0  0
  147.3090  153.5520  133.6150 C   0  0  0  0  0  0  0  0  0  0  0  0
  148.6670  153.7830  133.0220 C   0  0  0  0  0  0  0  0  0  0  0  0
  148.9860  154.9480  132.6610 O   0  0  0  0  0  0  0  0  0  0  0  0
  149.5480  152.7100  132.8280 O   0  0  0  0  0  0  0  0  0  0  0  0
  149.2190  151.5490  132.0660 C   0  0  0  0  0  0  0  0  0  0  0  0
  149.1370  150.3110  132.9570 C   0  0  0  0  0  0  0  0  0  0  0  0
  149.4280  150.6470  134.2860 O   0  0  0  0  0  0  0  0  0  0  0  0
  145.1740  158.7060  133.5100 C   0  0  0  0  0  0  0  0  0  0  0  0
  143.8790  158.2450  133.7710 C   0  0  0  0  0  0  0  0  0  0  0  0
  141.5542  158.6554  136.4798 H   0  0  0  0  0  0  0  0  0  0  0  0
  141.1990  160.2851  135.8130 H   0  0  0  0  0  0  0  0  0  0  0  0
  139.9261  159.0177  135.8130 H   0  0  0  0  0  0  0  0  0  0  0  0
  141.4225  157.6467  134.2823 H   0  0  0  0  0  0  0  0  0  0  0  0
  140.8026  159.1837  133.5662 H   0  0  0  0  0  0  0  0  0  0  0  0
  142.4021  161.3196  134.2433 H   0  0  0  0  0  0  0  0  0  0  0  0
  144.7444  162.0830  133.7249 H   0  0  0  0  0  0  0  0  0  0  0  0
  147.3490  161.1240  133.0232 H   0  0  0  0  0  0  0  0  0  0  0  0
  148.2390  156.6850  131.5950 H   0  0  0  0  0  0  0  0  0  0  0  0
  149.9630  157.1850  131.5840 H   0  0  0  0  0  0  0  0  0  0  0  0
  148.7687  155.0215  135.5896 H   0  0  0  0  0  0  0  0  0  0  0  0
  147.2643  155.3994  136.5155 H   0  0  0  0  0  0  0  0  0  0  0  0
  147.2997  152.5707  134.1119 H   0  0  0  0  0  0  0  0  0  0  0  0
  146.5696  153.5903  132.8014 H   0  0  0  0  0  0  0  0  0  0  0  0
  148.2462  151.7044  131.5766 H   0  0  0  0  0  0  0  0  0  0  0  0
  150.0078  151.3881  131.3164 H   0  0  0  0  0  0  0  0  0  0  0  0
  148.1214  149.8918  132.9029 H   0  0  0  0  0  0  0  0  0  0  0  0
  149.8704  149.5696  132.6070 H   0  0  0  0  0  0  0  0  0  0  0  0
  148.8830  151.4530  134.4900 H   0  0  0  0  0  0  0  0  0  0  0  0
  143.6486  157.1695  133.7524 H   0  0  0  0  0  0  0  0  0  0  0  0
  1  2  1  0
  2  3  1  0
  3  4  2  0
  4  5  1  0
  5  6  2  0
  6  7  1  0
  7  8  2  0
  8  9  1  0
  9 10  1  0
  9 11  2  0
  8 12  1  0
 12 13  1  0
 13 14  2  0
 13 15  1  0
 15 16  2  0
 15 17  1  0
 17 18  1  0
 18 19  1  0
 19 20  2  0
 19 21  1  0
 17 22  1  0
 22 23  1  0
 23 24  2  0
 23 25  1  0
 25 26  1  0
 26 27  1  0
 27 28  1  0
 12 29  1  0
 29 30  2  0
 30  3  1  0
 29  6  1  0
  1 31  1  0
  1 32  1  0
  1 33  1  0
  2 34  1  0
  2 35  1  0
  4 36  1  0
  5 37  1  0
  7 38  1  0
 10 39  1  0
 10 40  1  0
 18 41  1  0
 18 42  1  0
 22 43  1  0
 22 44  1  0
 26 45  1  0
 26 46  1  0
 27 47  1  0
 27 48  1  0
 28 49  1  0
 30 50  1  0
M  CHG  1  21  -1
M  END
>  <UniqueID>  (9) 
9

>  <SMILES>  (9) 
CCc1ccc2cc(C(N)=O)n(C(=O)C(=O)N(CC(=O)[O-])CC(=O)OCCO)c2c1

>  <Energy>  (9) 
83.57532939726262

>  <Genealogy>  (9) 
CCc1ccc2cc(C(N)=O)n(C(=O)C(=O)N(CC(=O)[O-])CC(=O)OCCO)c2c1 (protonated)
CCc1ccc2cc(C(N)=O)n(C(=O)C(=O)N(CC(=O)[O-])CC(=O)OCCO)c2c1 (3D coordinates assigned)
CCc1ccc2cc(C(N)=O)n(C(=O)C(=O)N(CC(=O)[O-])CC(=O)OCCO)c2c1 (optimized conformer: 83.57532939726262 kcal/mol)

>  <smiles>  (9) 
CCc1ccc2cc(C(N)=O)n(C(=O)C(=O)N(CC(=O)O)CC(=O)OCCO)c2c1

>  <score_type>  (9) 
oracle

>  <origin>  (9) 
adg

>  <m_score__min__energy>  (9) 
-7.3499999999999996

>  <m_primary>  (9) 
energy

$$$$
10:0
     RDKit          3D

 40 41  0  0  0  0  0  0  0  0999 V2000
  149.3800  161.0490  130.3150 C   0  0  0  0  0  0  0  0  0  0  0  0
  148.7960  159.7750  130.9240 C   0  0  0  0  0  0  0  0  0  0  0  0
  148.3870  159.9530  132.4080 C   0  0  1  0  0  0  0  0  0  0  0  0
  147.7330  161.2440  132.6370 N   0  0  0  0  0  0  0  0  0  0  0  0
  147.4390  158.8320  132.8630 C   0  0  0  0  0  0  0  0  0  0  0  0
  146.0490  159.2870  132.8590 N   0  0  0  0  0  0  0  0  0  0  0  0
  145.0100  158.6300  133.5990 C   0  0  0  0  0  0  0  0  0  0  0  0
  145.2650  157.5990  134.2780 O   0  0  0  0  0  0  0  0  0  0  0  0
  143.6830  159.1770  133.6130 N   0  0  0  0  0  0  0  0  0  0  0  0
  143.3160  160.4830  133.7270 C   0  0  0  0  0  0  0  0  0  0  0  0
  144.2350  161.6400  133.7290 C   0  0  0  0  0  0  0  0  0  0  0  0
  145.5940  161.4670  134.1230 N   0  0  0  0  0  0  0  0  0  0  0  0
  143.8260  162.7870  133.4120 O   0  0  0  0  0  0  0  0  0  0  0  0
  141.9270  160.5970  133.7710 C   0  0  0  0  0  0  0  0  0  0  0  0
  141.4530  159.3080  133.6740 C   0  0  0  0  0  0  0  0  0  0  0  0
  140.1470  158.8290  133.6910 C   0  0  0  0  0  0  0  0  0  0  0  0
  139.9530  157.4400  133.6100 C   0  0  0  0  0  0  0  0  0  0  0  0
  141.0600  156.5570  133.5040 C   0  0  0  0  0  0  0  0  0  0  0  0
  140.8360  155.0670  133.4810 C   0  0  0  0  0  0  0  0  0  0  0  0
  139.5590  154.8070  133.0190 F   0  0  0  0  0  0  0  0  0  0  0  0
  140.9750  154.5270  134.7470 F   0  0  0  0  0  0  0  0  0  0  0  0
  141.7510  154.4520  132.6450 F   0  0  0  0  0  0  0  0  0  0  0  0
  142.3730  157.0830  133.5130 C   0  0  0  0  0  0  0  0  0  0  0  0
  142.5330  158.4700  133.5790 C   0  0  0  0  0  0  0  0  0  0  0  0
  149.6924  161.7304  131.1200 H   0  0  0  0  0  0  0  0  0  0  0  0
  150.2505  160.7926  129.6933 H   0  0  0  0  0  0  0  0  0  0  0  0
  148.6176  161.5411  129.6933 H   0  0  0  0  0  0  0  0  0  0  0  0
  147.9060  159.4850  130.3463 H   0  0  0  0  0  0  0  0  0  0  0  0
  149.5767  159.0010  130.8857 H   0  0  0  0  0  0  0  0  0  0  0  0
  149.3160  159.9101  132.9955 H   0  0  0  0  0  0  0  0  0  0  0  0
  147.7030  161.4500  133.6630 H   0  0  0  0  0  0  0  0  0  0  0  0
  146.7500  161.2030  132.2850 H   0  0  0  0  0  0  0  0  0  0  0  0
  147.5394  157.9764  132.1791 H   0  0  0  0  0  0  0  0  0  0  0  0
  147.7090  158.5395  133.8885 H   0  0  0  0  0  0  0  0  0  0  0  0
  145.8300  160.1930  132.3880 H   0  0  0  0  0  0  0  0  0  0  0  0
  146.3740  161.6500  133.4530 H   0  0  0  0  0  0  0  0  0  0  0  0
  141.3359  161.5201  133.8635 H   0  0  0  0  0  0  0  0  0  0  0  0
  139.2921  159.5171  133.7656 H   0  0  0  0  0  0  0  0  0  0  0  0
  138.9318  157.0317  133.6289 H   0  0  0  0  0  0  0  0  0  0  0  0
  143.2471  156.4166  133.4691 H   0  0  0  0  0  0  0  0  0  0  0  0
  1  2  1  0
  2  3  1  0
  3  4  1  0
  3  5  1  0
  5  6  1  0
  6  7  1  0
  7  8  2  0
  7  9  1  0
  9 10  1  0
 10 11  1  0
 11 12  1  0
 11 13  2  0
 10 14  2  0
 14 15  1  0
 15 16  2  0
 16 17  1  0
 17 18  2  0
 18 19  1  0
 19 20  1  0
 19 21  1  0
 19 22  1  0
 18 23  1  0
 23 24  2  0
 24  9  1  0
 24 15  1  0
  1 25  1  0
  1 26  1  0
  1 27  1  0
  2 28  1  0
  2 29  1  0
  3 30  1  1
  4 31  1  0
  4 32  1  0
  5 33  1  0
  5 34  1  0
  6 35  1  0
 12 36  1  0
 14 37  1  0
 16 38  1  0
 17 39  1  0
 23 40  1  0
M  CHG  1  12  -1
M  END
>  <UniqueID>  (10) 
10

>  <SMILES>  (10) 
CC[C@@H](N)CNC(=O)n1c(C([NH-])=O)cc2ccc(C(F)(F)F)cc21

>  <Energy>  (10) 
72.56019032628126

>  <Genealogy>  (10) 
CC[C@@H](N)CNC(=O)n1c(C([NH-])=O)cc2ccc(C(F)(F)F)cc21 (protonated)
CC[C@@H](N)CNC(=O)n1c(C([NH-])=O)cc2ccc(C(F)(F)F)cc21 (3D coordinates assigned)
CC[C@@H](N)CNC(=O)n1c(C([NH-])=O)cc2ccc(C(F)(F)F)cc21 (optimized conformer: 72.56019032628126 kcal/mol)

>  <smiles>  (10) 
CC[C@@H](N)CNC(=O)n1c(C(N)=O)cc2ccc(C(F)(F)F)cc21

>  <score_type>  (10) 
oracle

>  <origin>  (10) 
adg

>  <m_score__min__energy>  (10) 
-7.2999999999999998

>  <m_primary>  (10) 
energy

$$$$
11:0
     RDKit          3D

 41 42  0  0  0  0  0  0  0  0999 V2000
  141.5260  153.9120  133.3900 C   0  0  0  0  0  0  0  0  0  0  0  0
  142.4930  154.1930  134.3720 O   0  0  0  0  0  0  0  0  0  0  0  0
  143.5140  155.4300  133.7890 P   0  0  1  0  0  0  0  0  0  0  0  0
  144.3350  155.9630  134.9410 O   0  0  0  0  0  0  0  0  0  0  0  0
  144.5650  154.8380  132.5990 O   0  0  0  0  0  0  0  0  0  0  0  0
  142.5280  156.7950  133.0940 C   0  0  0  0  0  0  0  0  0  0  0  0
  143.3800  157.8730  132.7160 O   0  0  0  0  0  0  0  0  0  0  0  0
  143.8970  158.8010  133.6260 C   0  0  0  0  0  0  0  0  0  0  0  0
  143.1630  159.2900  134.5270 O   0  0  0  0  0  0  0  0  0  0  0  0
  145.2780  159.1820  133.5480 N   0  0  0  0  0  0  0  0  0  0  0  0
  145.8160  160.4230  133.7120 C   0  0  0  0  0  0  0  0  0  0  0  0
  145.0860  161.6310  134.1490 C   0  0  0  0  0  0  0  0  0  0  0  0
  143.7420  161.8420  133.7240 N   0  0  0  0  0  0  0  0  0  0  0  0
  145.6480  162.4980  134.8690 O   0  0  0  0  0  0  0  0  0  0  0  0
  147.1900  160.3940  133.4830 C   0  0  0  0  0  0  0  0  0  0  0  0
  147.4800  159.0840  133.1730 C   0  0  0  0  0  0  0  0  0  0  0  0
  148.6950  158.4900  132.8470 C   0  0  0  0  0  0  0  0  0  0  0  0
  148.6960  157.1170  132.5440 C   0  0  0  0  0  0  0  0  0  0  0  0
  147.4910  156.3690  132.5620 C   0  0  0  0  0  0  0  0  0  0  0  0
  147.5060  154.9600  132.2500 N   0  0  0  0  0  0  0  0  0  0  0  0
  148.0550  154.1650  133.3630 C   0  0  0  0  0  0  0  0  0  0  0  0
  148.9060  152.9840  132.8830 C   0  0  0  0  0  0  0  0  0  0  0  0
  149.6290  153.3320  131.7570 F   0  0  0  0  0  0  0  0  0  0  0  0
  146.2760  157.0120  132.9000 C   0  0  0  0  0  0  0  0  0  0  0  0
  146.3100  158.3740  133.2180 C   0  0  0  0  0  0  0  0  0  0  0  0
  140.5786  153.6367  133.8765 H   0  0  0  0  0  0  0  0  0  0  0  0
  141.3709  154.8022  132.7628 H   0  0  0  0  0  0  0  0  0  0  0  0
  141.8722  153.0773  132.7628 H   0  0  0  0  0  0  0  0  0  0  0  0
  141.9822  156.4355  132.2092 H   0  0  0  0  0  0  0  0  0  0  0  0
  141.8169  157.1486  133.8551 H   0  0  0  0  0  0  0  0  0  0  0  0
  143.1810  161.0630  133.3140 H   0  0  0  0  0  0  0  0  0  0  0  0
  147.8934  161.2379  133.5381 H   0  0  0  0  0  0  0  0  0  0  0  0
  149.6257  159.0761  132.8269 H   0  0  0  0  0  0  0  0  0  0  0  0
  149.6424  156.6171  132.2900 H   0  0  0  0  0  0  0  0  0  0  0  0
  146.5450  154.6240  132.0060 H   0  0  0  0  0  0  0  0  0  0  0  0
  148.1060  154.8080  131.4060 H   0  0  0  0  0  0  0  0  0  0  0  0
  148.6812  154.8192  133.9874 H   0  0  0  0  0  0  0  0  0  0  0  0
  147.2056  153.7543  133.9285 H   0  0  0  0  0  0  0  0  0  0  0  0
  149.6016  152.6907  133.6831 H   0  0  0  0  0  0  0  0  0  0  0  0
  148.2399  152.1453  132.6320 H   0  0  0  0  0  0  0  0  0  0  0  0
  145.3280  156.4542  132.9123 H   0  0  0  0  0  0  0  0  0  0  0  0
  1  2  1  0
  2  3  1  0
  3  4  2  0
  3  5  1  6
  3  6  1  0
  6  7  1  0
  7  8  1  0
  8  9  2  0
  8 10  1  0
 10 11  1  0
 11 12  1  0
 12 13  1  0
 12 14  2  0
 11 15  2  0
 15 16  1  0
 16 17  2  0
 17 18  1  0
 18 19  2  0
 19 20  1  0
 20 21  1  0
 21 22  1  0
 22 23  1  0
 19 24  1  0
 24 25  2  0
 25 10  1  0
 25 16  1  0
  1 26  1  0
  1 27  1  0
  1 28  1  0
  6 29  1  0
  6 30  1  0
 13 31  1  0
 15 32  1  0
 17 33  1  0
 18 34  1  0
 20 35  1  0
 20 36  1  0
 21 37  1  0
 21 38  1  0
 22 39  1  0
 22 40  1  0
 24 41  1  0
M  CHG  3   5  -1  13  -1  20   1
M  END
>  <UniqueID>  (11) 
11

>  <SMILES>  (11) 
CO[P@@](=O)([O-])COC(=O)n1c(C([NH-])=O)cc2ccc([NH2+]CCF)cc21

>  <Energy>  (11) 
72.79565399806538

>  <Genealogy>  (11) 
COP(=O)([O-])COC(=O)n1c(C([NH-])=O)cc2ccc([NH2+]CCF)cc21 (protonated)
CO[P@@](=O)([O-])COC(=O)n1c(C([NH-])=O)cc2ccc([NH2+]CCF)cc21 (chirality)
CO[P@@](=O)([O-])COC(=O)n1c(C([NH-])=O)cc2ccc([NH2+]CCF)cc21 (3D coordinates assigned)
CO[P@@](=O)([O-])COC(=O)n1c(C([NH-])=O)cc2ccc([NH2+]CCF)cc21 (optimized conformer: 72.79565399806538 kcal/mol)

>  <smiles>  (11) 
COP(=O)(O)COC(=O)n1c(C(N)=O)cc2ccc(NCCF)cc21

>  <score_type>  (11) 
oracle

>  <origin>  (11) 
adg

>  <m_score__min__energy>  (11) 
-5.5499999999999998

>  <m_primary>  (11) 
energy

$$$$
12:0
     RDKit          3D

 45 46  0  0  0  0  0  0  0  0999 V2000
  141.8110  155.6940  135.8770 C   0  0  0  0  0  0  0  0  0  0  0  0
  140.6000  155.9010  134.9630 C   0  0  1  0  0  0  0  0  0  0  0  0
  140.2650  157.3670  134.8440 C   0  0  0  0  0  0  0  0  0  0  0  0
  139.7410  157.9700  135.8200 O   0  0  0  0  0  0  0  0  0  0  0  0
  140.5310  158.0730  133.6210 N   0  0  0  0  0  0  0  0  0  0  0  0
  140.2870  159.5130  133.4820 C   0  0  0  0  0  0  0  0  0  0  0  0
  141.5330  160.2950  133.9310 C   0  0  0  0  0  0  0  0  0  0  0  0
  142.5530  160.1720  132.9790 O   0  0  0  0  0  0  0  0  0  0  0  0
  139.9090  159.8390  132.0260 C   0  0  0  0  0  0  0  0  0  0  0  0
  140.5820  158.9810  131.1470 O   0  0  0  0  0  0  0  0  0  0  0  0
  140.8600  155.2870  133.6100 C   0  0  0  0  0  0  0  0  0  0  0  0
  140.0170  155.4180  132.6800 O   0  0  0  0  0  0  0  0  0  0  0  0
  142.1280  154.6780  133.3300 N   0  0  0  0  0  0  0  0  0  0  0  0
  143.3180  155.2940  133.0890 C   0  0  0  0  0  0  0  0  0  0  0  0
  143.5760  156.7420  133.2140 C   0  0  0  0  0  0  0  0  0  0  0  0
  143.0680  157.6430  132.2320 N   0  0  0  0  0  0  0  0  0  0  0  0
  144.2610  157.1900  134.1690 O   0  0  0  0  0  0  0  0  0  0  0  0
  144.2960  154.3540  132.7660 C   0  0  0  0  0  0  0  0  0  0  0  0
  143.6600  153.1330  132.8250 C   0  0  0  0  0  0  0  0  0  0  0  0
  144.1570  151.8500  132.6150 C   0  0  0  0  0  0  0  0  0  0  0  0
  143.2690  150.7690  132.7550 C   0  0  0  0  0  0  0  0  0  0  0  0
  141.9030  150.9870  133.0740 C   0  0  0  0  0  0  0  0  0  0  0  0
  140.9720  149.8180  133.2630 C   0  0  0  0  0  0  0  0  0  0  0  0
  139.8480  150.0010  132.4800 F   0  0  0  0  0  0  0  0  0  0  0  0
  140.5880  149.7100  134.5870 F   0  0  0  0  0  0  0  0  0  0  0  0
  141.5890  148.6340  132.8940 F   0  0  0  0  0  0  0  0  0  0  0  0
  141.4430  152.3050  133.2990 C   0  0  0  0  0  0  0  0  0  0  0  0
  142.3530  153.3580  133.1690 C   0  0  0  0  0  0  0  0  0  0  0  0
  141.4908  155.7487  136.9279 H   0  0  0  0  0  0  0  0  0  0  0  0
  142.2547  154.7070  135.6798 H   0  0  0  0  0  0  0  0  0  0  0  0
  142.5574  156.4776  135.6798 H   0  0  0  0  0  0  0  0  0  0  0  0
  139.7297  155.3965  135.4080 H   0  0  0  0  0  0  0  0  0  0  0  0
  140.9160  157.5390  132.8080 H   0  0  0  0  0  0  0  0  0  0  0  0
  139.4467  159.8134  134.1251 H   0  0  0  0  0  0  0  0  0  0  0  0
  141.2721  161.3572  134.0482 H   0  0  0  0  0  0  0  0  0  0  0  0
  141.8863  159.8859  134.8890 H   0  0  0  0  0  0  0  0  0  0  0  0
  142.3240  159.3770  132.4310 H   0  0  0  0  0  0  0  0  0  0  0  0
  138.8239  159.7141  131.8958 H   0  0  0  0  0  0  0  0  0  0  0  0
  140.1972  160.8772  131.8046 H   0  0  0  0  0  0  0  0  0  0  0  0
  141.5180  158.9340  131.4720 H   0  0  0  0  0  0  0  0  0  0  0  0
  142.1520  158.1250  132.3700 H   0  0  0  0  0  0  0  0  0  0  0  0
  145.3501  154.5461  132.5172 H   0  0  0  0  0  0  0  0  0  0  0  0
  145.2115  151.6869  132.3479 H   0  0  0  0  0  0  0  0  0  0  0  0
  143.6372  149.7419  132.6157 H   0  0  0  0  0  0  0  0  0  0  0  0
  140.3943  152.4970  133.5698 H   0  0  0  0  0  0  0  0  0  0  0  0
  1  2  1  0
  2  3  1  0
  3  4  2  0
  3  5  1  0
  5  6  1  0
  6  7  1  0
  7  8  1  0
  6  9  1  0
  9 10  1  0
  2 11  1  0
 11 12  2  0
 11 13  1  0
 13 14  1  0
 14 15  1  0
 15 16  1  0
 15 17  2  0
 14 18  2  0
 18 19  1  0
 19 20  2  0
 20 21  1  0
 21 22  2  0
 22 23  1  0
 23 24  1  0
 23 25  1  0
 23 26  1  0
 22 27  1  0
 27 28  2  0
 28 13  1  0
 28 19  1  0
  1 29  1  0
  1 30  1  0
  1 31  1  0
  2 32  1  1
  5 33  1  0
  6 34  1  0
  7 35  1  0
  7 36  1  0
  8 37  1  0
  9 38  1  0
  9 39  1  0
 10 40  1  0
 16 41  1  0
 18 42  1  0
 20 43  1  0
 21 44  1  0
 27 45  1  0
M  CHG  1  16  -1
M  END
>  <UniqueID>  (12) 
12

>  <SMILES>  (12) 
C[C@@H](C(=O)NC(CO)CO)C(=O)n1c(C([NH-])=O)cc2ccc(C(F)(F)F)cc21

>  <Energy>  (12) 
76.62418925091009

>  <Genealogy>  (12) 
CC(C(=O)NC(CO)CO)C(=O)n1c(C([NH-])=O)cc2ccc(C(F)(F)F)cc21 (protonated)
C[C@@H](C(=O)NC(CO)CO)C(=O)n1c(C([NH-])=O)cc2ccc(C(F)(F)F)cc21 (chirality)
C[C@@H](C(=O)NC(CO)CO)C(=O)n1c(C([NH-])=O)cc2ccc(C(F)(F)F)cc21 (3D coordinates assigned)
C[C@@H](C(=O)NC(CO)CO)C(=O)n1c(C([NH-])=O)cc2ccc(C(F)(F)F)cc21 (optimized conformer: 76.62418925091009 kcal/mol)

>  <smiles>  (12) 
CC(C(=O)NC(CO)CO)C(=O)n1c(C(N)=O)cc2ccc(C(F)(F)F)cc21

>  <score_type>  (12) 
oracle

>  <origin>  (12) 
adg

>  <m_score__min__energy>  (12) 
-5.2300000000000004

>  <m_primary>  (12) 
energy

$$$$
13:0
     RDKit          3D

 56 59  0  0  0  0  0  0  0  0999 V2000
  147.6960  157.0790  131.9090 N   0  0  0  0  0  0  0  0  0  0  0  0
  147.4210  158.0950  132.8750 C   0  0  0  0  0  0  0  0  0  0  0  0
  148.3820  158.7050  133.4140 O   0  0  0  0  0  0  0  0  0  0  0  0
  146.0260  158.4590  133.2120 C   0  0  0  0  0  0  0  0  0  0  0  0
  145.5220  159.7570  133.1420 C   0  0  0  0  0  0  0  0  0  0  0  0
  144.2350  159.6770  133.6230 C   0  0  0  0  0  0  0  0  0  0  0  0
  143.2740  160.6700  133.7740 C   0  0  0  0  0  0  0  0  0  0  0  0
  142.0140  160.2980  134.2710 C   0  0  0  0  0  0  0  0  0  0  0  0
  141.7300  158.9440  134.5860 C   0  0  0  0  0  0  0  0  0  0  0  0
  140.3860  158.5660  135.1600 C   0  0  0  0  0  0  0  0  0  0  0  0
  140.3970  157.2250  135.4950 F   0  0  0  0  0  0  0  0  0  0  0  0
  139.3780  158.7930  134.2380 F   0  0  0  0  0  0  0  0  0  0  0  0
  140.1120  159.3140  136.2930 F   0  0  0  0  0  0  0  0  0  0  0  0
  142.7420  157.9670  134.4420 C   0  0  0  0  0  0  0  0  0  0  0  0
  143.9940  158.3710  133.9630 C   0  0  0  0  0  0  0  0  0  0  0  0
  145.0860  157.6100  133.7180 N   0  0  0  0  0  0  0  0  0  0  0  0
  145.1920  156.1890  133.9010 C   0  0  0  0  0  0  0  0  0  0  0  0
  145.9850  155.5190  133.1850 O   0  0  0  0  0  0  0  0  0  0  0  0
  144.4050  155.5520  134.8670 O   0  0  0  0  0  0  0  0  0  0  0  0
  143.2720  154.7570  134.5400 C   0  0  0  0  0  0  0  0  0  0  0  0
  143.2930  154.4470  133.1510 O   0  0  0  0  0  0  0  0  0  0  0  0
  143.7770  153.2360  132.6480 C   0  0  0  0  0  0  0  0  0  0  0  0
  144.7550  153.2320  131.8480 O   0  0  0  0  0  0  0  0  0  0  0  0
  143.1490  152.0000  133.0390 N   0  0  0  0  0  0  0  0  0  0  0  0
  143.6950  150.7010  132.6140 C   0  0  0  0  0  0  0  0  0  0  0  0
  142.5910  149.7740  132.0700 C   0  0  0  0  0  0  0  0  0  0  0  0
  141.1960  150.0410  132.7060 C   0  0  0  0  0  0  0  0  0  0  0  0
  141.3070  150.6950  134.0990 C   0  0  0  0  0  0  0  0  0  0  0  0
  142.0310  152.0470  133.9940 C   0  0  0  0  0  0  0  0  0  0  0  0
  140.2110  150.7770  131.7730 C   0  0  0  0  0  0  0  0  0  0  0  0
  139.3070  149.5430  131.7540 C   0  0  0  0  0  0  0  0  0  0  0  0
  139.1700  148.9120  130.3950 C   0  0  0  0  0  0  0  0  0  0  0  0
  138.5540  149.5010  129.4670 O   0  0  0  0  0  0  0  0  0  0  0  0
  139.7230  147.6600  130.1600 O   0  0  0  0  0  0  0  0  0  0  0  0
  140.2750  148.8080  132.6840 C   0  0  0  0  0  0  0  0  0  0  0  0
  148.6820  156.8590  131.6480 H   0  0  0  0  0  0  0  0  0  0  0  0
  146.9290  156.5120  131.4830 H   0  0  0  0  0  0  0  0  0  0  0  0
  146.0429  160.6553  132.7790 H   0  0  0  0  0  0  0  0  0  0  0  0
  143.4937  161.7156  133.5122 H   0  0  0  0  0  0  0  0  0  0  0  0
  141.2390  161.0647  134.4176 H   0  0  0  0  0  0  0  0  0  0  0  0
  142.5502  156.9150  134.7001 H   0  0  0  0  0  0  0  0  0  0  0  0
  143.2975  153.8251  135.1238 H   0  0  0  0  0  0  0  0  0  0  0  0
  142.3535  155.3139  134.7769 H   0  0  0  0  0  0  0  0  0  0  0  0
  144.4420  150.8686  131.8242 H   0  0  0  0  0  0  0  0  0  0  0  0
  144.1519  150.2161  133.4893 H   0  0  0  0  0  0  0  0  0  0  0  0
  142.5137  149.9233  130.9829 H   0  0  0  0  0  0  0  0  0  0  0  0
  142.8748  148.7428  132.3270 H   0  0  0  0  0  0  0  0  0  0  0  0
  140.2980  150.8538  134.5074 H   0  0  0  0  0  0  0  0  0  0  0  0
  141.8804  150.0312  134.7627 H   0  0  0  0  0  0  0  0  0  0  0  0
  141.3119  152.8102  133.6618 H   0  0  0  0  0  0  0  0  0  0  0  0
  142.4406  152.2913  134.9853 H   0  0  0  0  0  0  0  0  0  0  0  0
  139.7465  151.6671  132.2225 H   0  0  0  0  0  0  0  0  0  0  0  0
  140.5638  151.2232  130.8315 H   0  0  0  0  0  0  0  0  0  0  0  0
  138.2432  149.6304  132.0200 H   0  0  0  0  0  0  0  0  0  0  0  0
  139.8469  148.5504  133.6640 H   0  0  0  0  0  0  0  0  0  0  0  0
  140.6736  147.8218  132.4038 H   0  0  0  0  0  0  0  0  0  0  0  0
  1  2  1  0
  2  3  2  0
  2  4  1  0
  4  5  2  0
  5  6  1  0
  6  7  2  0
  7  8  1  0
  8  9  2  0
  9 10  1  0
 10 11  1  0
 10 12  1  0
 10 13  1  0
  9 14  1  0
 14 15  2  0
 15 16  1  0
 16 17  1  0
 17 18  2  0
 17 19  1  0
 19 20  1  0
 20 21  1  0
 21 22  1  0
 22 23  2  0
 22 24  1  0
 24 25  1  0
 25 26  1  0
 26 27  1  0
 27 28  1  0
 28 29  1  0
 27 30  1  0
 30 31  1  0
 31 32  1  0
 32 33  2  0
 32 34  1  0
 31 35  1  0
 16  4  1  0
 29 24  1  0
 15  6  1  0
 35 27  1  0
  1 36  1  0
  1 37  1  0
  5 38  1  0
  7 39  1  0
  8 40  1  0
 14 41  1  0
 20 42  1  0
 20 43  1  0
 25 44  1  0
 25 45  1  0
 26 46  1  0
 26 47  1  0
 28 48  1  0
 28 49  1  0
 29 50  1  0
 29 51  1  0
 30 52  1  0
 30 53  1  0
 31 54  1  0
 35 55  1  0
 35 56  1  0
M  CHG  1  34  -1
M  END
>  <UniqueID>  (13) 
13

>  <SMILES>  (13) 
NC(=O)c1cc2ccc(C(F)(F)F)cc2n1C(=O)OCOC(=O)N1CCC2(CC1)CC(C(=O)[O-])C2

>  <Energy>  (13) 
159.11446727064592

>  <Genealogy>  (13) 
NC(=O)c1cc2ccc(C(F)(F)F)cc2n1C(=O)OCOC(=O)N1CCC2(CC1)CC(C(=O)[O-])C2 (protonated)
NC(=O)c1cc2ccc(C(F)(F)F)cc2n1C(=O)OCOC(=O)N1CCC2(CC1)CC(C(=O)[O-])C2 (3D coordinates assigned)
NC(=O)c1cc2ccc(C(F)(F)F)cc2n1C(=O)OCOC(=O)N1CCC2(CC1)CC(C(=O)[O-])C2 (nonaromatic ring conformer: 159.11446727064592 kcal/mol)

>  <smiles>  (13) 
NC(=O)c1cc2ccc(C(F)(F)F)cc2n1C(=O)OCOC(=O)N1CCC2(CC1)CC(C(=O)O)C2

>  <score_type>  (13) 
oracle

>  <origin>  (13) 
adg

>  <m_score__min__energy>  (13) 
-9.4900000000000002

>  <m_primary>  (13) 
energy

$$$$
14:0
     RDKit          3D

 38 39  0  0  0  0  0  0  0  0999 V2000
  139.4430  157.5290  133.7650 C   0  0  0  0  0  0  0  0  0  0  0  0
  139.7720  158.7590  133.0370 N   0  0  0  0  0  0  0  0  0  0  0  0
  139.1620  159.0240  131.7300 C   0  0  0  0  0  0  0  0  0  0  0  0
  140.6790  159.7320  133.5990 C   0  0  0  0  0  0  0  0  0  0  0  0
  140.8670  160.8260  132.9970 O   0  0  0  0  0  0  0  0  0  0  0  0
  141.3600  159.4990  134.9250 C   0  0  0  0  0  0  0  0  0  0  0  0
  142.8010  159.7190  134.8360 N   0  0  0  0  0  0  0  0  0  0  0  0
  143.6160  159.1900  133.7840 C   0  0  0  0  0  0  0  0  0  0  0  0
  143.1420  158.3330  132.9900 O   0  0  0  0  0  0  0  0  0  0  0  0
  144.9880  159.6010  133.6600 N   0  0  0  0  0  0  0  0  0  0  0  0
  145.5040  160.8550  133.8120 C   0  0  0  0  0  0  0  0  0  0  0  0
  144.7280  162.0990  133.9860 C   0  0  0  0  0  0  0  0  0  0  0  0
  143.4300  162.2130  133.4080 N   0  0  0  0  0  0  0  0  0  0  0  0
  145.1820  163.0500  134.6750 O   0  0  0  0  0  0  0  0  0  0  0  0
  146.8920  160.8280  133.6990 C   0  0  0  0  0  0  0  0  0  0  0  0
  147.2150  159.5110  133.4630 C   0  0  0  0  0  0  0  0  0  0  0  0
  148.4580  158.9120  133.2920 C   0  0  0  0  0  0  0  0  0  0  0  0
  148.4990  157.5210  133.1000 C   0  0  0  0  0  0  0  0  0  0  0  0
  147.3030  156.7580  133.0690 C   0  0  0  0  0  0  0  0  0  0  0  0
  147.3640  155.2580  132.9250 C   0  0  0  0  0  0  0  0  0  0  0  0
  148.5130  154.8780  132.2510 F   0  0  0  0  0  0  0  0  0  0  0  0
  146.2620  154.8240  132.2140 F   0  0  0  0  0  0  0  0  0  0  0  0
  147.3690  154.6480  134.1670 F   0  0  0  0  0  0  0  0  0  0  0  0
  146.0600  157.4030  133.2720 C   0  0  0  0  0  0  0  0  0  0  0  0
  146.0490  158.7920  133.4430 C   0  0  0  0  0  0  0  0  0  0  0  0
  139.4938  157.7188  134.8473 H   0  0  0  0  0  0  0  0  0  0  0  0
  138.4266  157.2049  133.4968 H   0  0  0  0  0  0  0  0  0  0  0  0
  140.1619  156.7408  133.4968 H   0  0  0  0  0  0  0  0  0  0  0  0
  138.1617  159.4585  131.8735 H   0  0  0  0  0  0  0  0  0  0  0  0
  139.7912  159.7299  131.1680 H   0  0  0  0  0  0  0  0  0  0  0  0
  139.0755  158.0823  131.1680 H   0  0  0  0  0  0  0  0  0  0  0  0
  140.9386  160.1910  135.6690 H   0  0  0  0  0  0  0  0  0  0  0  0
  141.1895  158.4531  135.2199 H   0  0  0  0  0  0  0  0  0  0  0  0
  142.6780  161.5270  133.6390 H   0  0  0  0  0  0  0  0  0  0  0  0
  147.5838  161.6793  133.7810 H   0  0  0  0  0  0  0  0  0  0  0  0
  149.3816  159.5093  133.3066 H   0  0  0  0  0  0  0  0  0  0  0  0
  149.4688  157.0178  132.9723 H   0  0  0  0  0  0  0  0  0  0  0  0
  145.1238  156.8259  133.2949 H   0  0  0  0  0  0  0  0  0  0  0  0
  1  2  1  0
  2  3  1  0
  2  4  1  0
  4  5  2  0
  4  6  1  0
  6  7  1  0
  7  8  1  0
  8  9  2  0
  8 10  1  0
 10 11  1  0
 11 12  1  0
 12 13  1  0
 12 14  2  0
 11 15  2  0
 15 16  1  0
 16 17  2  0
 17 18  1  0
 18 19  2  0
 19 20  1  0
 20 21  1  0
 20 22  1  0
 20 23  1  0
 19 24  1  0
 24 25  2  0
 25 10  1  0
 25 16  1  0
  1 26  1  0
  1 27  1  0
  1 28  1  0
  3 29  1  0
  3 30  1  0
  3 31  1  0
  6 32  1  0
  6 33  1  0
 13 34  1  0
 15 35  1  0
 17 36  1  0
 18 37  1  0
 24 38  1  0
M  CHG  2   7  -1  13  -1
M  END
>  <UniqueID>  (14) 
14

>  <SMILES>  (14) 
CN(C)C(=O)C[N-]C(=O)n1c(C([NH-])=O)cc2ccc(C(F)(F)F)cc21

>  <Energy>  (14) 
73.66370464126246

>  <Genealogy>  (14) 
CN(C)C(=O)C[N-]C(=O)n1c(C([NH-])=O)cc2ccc(C(F)(F)F)cc21 (protonated)
CN(C)C(=O)C[N-]C(=O)n1c(C([NH-])=O)cc2ccc(C(F)(F)F)cc21 (3D coordinates assigned)
CN(C)C(=O)C[N-]C(=O)n1c(C([NH-])=O)cc2ccc(C(F)(F)F)cc21 (optimized conformer: 73.66370464126246 kcal/mol)

>  <smiles>  (14) 
CN(C)C(=O)CNC(=O)n1c(C(N)=O)cc2ccc(C(F)(F)F)cc21

>  <score_type>  (14) 
oracle

>  <origin>  (14) 
adg

>  <m_score__min__energy>  (14) 
-6.3300000000000001

>  <m_primary>  (14) 
energy

$$$$
15:0
     RDKit          3D

 42 43  0  0  0  0  0  0  0  0999 V2000
  139.0790  160.0500  131.5470 C   0  0  0  0  0  0  0  0  0  0  0  0
  140.0630  159.1490  132.2890 C   0  0  0  0  0  0  0  0  0  0  0  0
  140.3950  159.6940  133.5520 O   0  0  0  0  0  0  0  0  0  0  0  0
  140.2580  158.7360  134.5900 C   0  0  0  0  0  0  0  0  0  0  0  0
  141.5470  158.6660  135.4140 C   0  0  0  0  0  0  0  0  0  0  0  0
  142.1190  157.2440  135.5030 C   0  0  0  0  0  0  0  0  0  0  0  0
  143.4120  157.1520  134.8330 N   0  0  0  0  0  0  0  0  0  0  0  0
  143.6980  157.7460  133.5640 C   0  0  0  0  0  0  0  0  0  0  0  0
  142.8850  157.6180  132.6090 O   0  0  0  0  0  0  0  0  0  0  0  0
  144.9190  158.4800  133.3760 N   0  0  0  0  0  0  0  0  0  0  0  0
  145.1110  159.8220  133.5230 C   0  0  0  0  0  0  0  0  0  0  0  0
  144.0530  160.8290  133.7360 C   0  0  0  0  0  0  0  0  0  0  0  0
  142.7010  160.5740  133.3510 N   0  0  0  0  0  0  0  0  0  0  0  0
  144.3560  161.9540  134.2140 O   0  0  0  0  0  0  0  0  0  0  0  0
  146.4600  160.1430  133.4030 C   0  0  0  0  0  0  0  0  0  0  0  0
  147.0980  158.9480  133.1600 C   0  0  0  0  0  0  0  0  0  0  0  0
  148.4510  158.6770  132.9830 C   0  0  0  0  0  0  0  0  0  0  0  0
  148.8360  157.3380  132.7970 C   0  0  0  0  0  0  0  0  0  0  0  0
  147.8680  156.3050  132.7880 C   0  0  0  0  0  0  0  0  0  0  0  0
  148.2990  154.8750  132.6440 C   0  0  0  0  0  0  0  0  0  0  0  0
  146.5050  156.6150  132.9880 C   0  0  0  0  0  0  0  0  0  0  0  0
  146.1470  157.9580  133.1500 C   0  0  0  0  0  0  0  0  0  0  0  0
  138.4709  160.6068  132.2751 H   0  0  0  0  0  0  0  0  0  0  0  0
  139.6351  160.7586  130.9156 H   0  0  0  0  0  0  0  0  0  0  0  0
  138.4220  159.4338  130.9156 H   0  0  0  0  0  0  0  0  0  0  0  0
  139.6060  158.1588  132.4332 H   0  0  0  0  0  0  0  0  0  0  0  0
  140.9821  159.0653  131.6904 H   0  0  0  0  0  0  0  0  0  0  0  0
  139.4228  159.0256  135.2447 H   0  0  0  0  0  0  0  0  0  0  0  0
  140.0602  157.7493  134.1459 H   0  0  0  0  0  0  0  0  0  0  0  0
  142.2989  159.3188  134.9466 H   0  0  0  0  0  0  0  0  0  0  0  0
  141.3046  158.9904  136.4368 H   0  0  0  0  0  0  0  0  0  0  0  0
  142.2436  156.9731  136.5618 H   0  0  0  0  0  0  0  0  0  0  0  0
  141.4196  156.5557  135.0060 H   0  0  0  0  0  0  0  0  0  0  0  0
  141.9580  161.2820  133.5450 H   0  0  0  0  0  0  0  0  0  0  0  0
  142.4480  159.7200  132.8070 H   0  0  0  0  0  0  0  0  0  0  0  0
  146.9185  161.1395  133.4849 H   0  0  0  0  0  0  0  0  0  0  0  0
  149.1966  159.4857  132.9884 H   0  0  0  0  0  0  0  0  0  0  0  0
  149.8987  157.0906  132.6572 H   0  0  0  0  0  0  0  0  0  0  0  0
  148.4330  154.4303  133.6411 H   0  0  0  0  0  0  0  0  0  0  0  0
  147.5300  154.3140  132.0927 H   0  0  0  0  0  0  0  0  0  0  0  0
  149.2499  154.8324  132.0927 H   0  0  0  0  0  0  0  0  0  0  0  0
  145.7441  155.8211  133.0158 H   0  0  0  0  0  0  0  0  0  0  0  0
  1  2  1  0
  2  3  1  0
  3  4  1  0
  4  5  1  0
  5  6  1  0
  6  7  1  0
  7  8  1  0
  8  9  2  0
  8 10  1  0
 10 11  1  0
 11 12  1  0
 12 13  1  0
 12 14  2  0
 11 15  2  0
 15 16  1  0
 16 17  2  0
 17 18  1  0
 18 19  2  0
 19 20  1  0
 19 21  1  0
 21 22  2  0
 22 10  1  0
 22 16  1  0
  1 23  1  0
  1 24  1  0
  1 25  1  0
  2 26  1  0
  2 27  1  0
  4 28  1  0
  4 29  1  0
  5 30  1  0
  5 31  1  0
  6 32  1  0
  6 33  1  0
 13 34  1  0
 13 35  1  0
 15 36  1  0
 17 37  1  0
 18 38  1  0
 20 39  1  0
 20 40  1  0
 20 41  1  0
 21 42  1  0
M  CHG  1   7  -1
M  END
>  <UniqueID>  (15) 
15

>  <SMILES>  (15) 
CCOCCC[N-]C(=O)n1c(C(N)=O)cc2ccc(C)cc21

>  <Energy>  (15) 
75.89907003859761

>  <Genealogy>  (15) 
CCOCCC[N-]C(=O)n1c(C(N)=O)cc2ccc(C)cc21 (protonated)
CCOCCC[N-]C(=O)n1c(C(N)=O)cc2ccc(C)cc21 (3D coordinates assigned)
CCOCCC[N-]C(=O)n1c(C(N)=O)cc2ccc(C)cc21 (optimized conformer: 75.89907003859761 kcal/mol)

>  <smiles>  (15) 
CCOCCCNC(=O)n1c(C(N)=O)cc2ccc(C)cc21

>  <score_type>  (15) 
oracle

>  <origin>  (15) 
adg

>  <m_score__min__energy>  (15) 
-6.5599999999999996

>  <m_primary>  (15) 
energy

$$$$
16:0
     RDKit          3D

 51 52  0  0  0  0  0  0  0  0999 V2000
  141.2390  151.7580  132.2670 C   0  0  0  0  0  0  0  0  0  0  0  0
  141.8180  152.9130  132.9800 N   0  0  1  0  0  0  0  0  0  0  0  0
  142.9330  153.5480  132.2360 C   0  0  0  0  0  0  0  0  0  0  0  0
  144.2410  153.5440  132.9850 C   0  0  0  0  0  0  0  0  0  0  0  0
  144.4830  152.6100  133.7960 O   0  0  0  0  0  0  0  0  0  0  0  0
  145.1800  154.5570  132.7440 O   0  0  0  0  0  0  0  0  0  0  0  0
  145.3820  155.7320  133.5430 C   0  0  0  0  0  0  0  0  0  0  0  0
  145.5060  155.3560  135.0320 C   0  0  0  0  0  0  0  0  0  0  0  0
  144.2360  156.7380  133.3310 C   0  0  0  0  0  0  0  0  0  0  0  0
  146.6980  156.3750  133.0820 C   0  0  0  0  0  0  0  0  0  0  0  0
  140.8040  153.8810  133.3420 C   0  0  0  0  0  0  0  0  0  0  0  0
  139.6600  153.8410  132.8090 O   0  0  0  0  0  0  0  0  0  0  0  0
  141.1020  154.9240  134.2890 N   0  0  0  0  0  0  0  0  0  0  0  0
  141.8490  154.8390  135.4280 C   0  0  0  0  0  0  0  0  0  0  0  0
  142.4930  153.6210  135.9680 C   0  0  0  0  0  0  0  0  0  0  0  0
  142.1440  152.3250  135.4950 N   0  0  0  0  0  0  0  0  0  0  0  0
  143.3660  153.7280  136.8710 O   0  0  0  0  0  0  0  0  0  0  0  0
  141.9020  156.0740  136.0710 C   0  0  0  0  0  0  0  0  0  0  0  0
  141.1660  156.9290  135.2840 C   0  0  0  0  0  0  0  0  0  0  0  0
  140.9020  158.2870  135.4420 C   0  0  0  0  0  0  0  0  0  0  0  0
  140.1340  158.9270  134.4530 C   0  0  0  0  0  0  0  0  0  0  0  0
  139.6600  158.2020  133.3350 C   0  0  0  0  0  0  0  0  0  0  0  0
  138.8910  158.8710  132.3210 C   0  0  0  0  0  0  0  0  0  0  0  0
  138.2480  159.4320  131.4700 C   0  0  0  0  0  0  0  0  0  0  0  0
  137.4670  160.1140  130.4320 C   0  0  0  0  0  0  0  0  0  0  0  0
  138.1890  160.1450  129.2330 O   0  0  0  0  0  0  0  0  0  0  0  0
  139.9450  156.8280  133.2070 C   0  0  0  0  0  0  0  0  0  0  0  0
  140.6960  156.2120  134.2130 C   0  0  0  0  0  0  0  0  0  0  0  0
  140.8706  151.0231  132.9978 H   0  0  0  0  0  0  0  0  0  0  0  0
  140.4045  152.0975  131.6358 H   0  0  0  0  0  0  0  0  0  0  0  0
  142.0103  151.2925  131.6358 H   0  0  0  0  0  0  0  0  0  0  0  0
  142.2300  152.5410  133.8680 H   0  0  0  0  0  0  0  0  0  0  0  0
  143.0730  153.0048  131.2898 H   0  0  0  0  0  0  0  0  0  0  0  0
  142.6560  154.6008  132.0785 H   0  0  0  0  0  0  0  0  0  0  0  0
  145.2216  156.2184  135.6528 H   0  0  0  0  0  0  0  0  0  0  0  0
  144.8395  154.5093  135.2531 H   0  0  0  0  0  0  0  0  0  0  0  0
  146.5454  155.0719  135.2531 H   0  0  0  0  0  0  0  0  0  0  0  0
  143.8557  157.0718  134.3077 H   0  0  0  0  0  0  0  0  0  0  0  0
  144.6092  157.6055  132.7669 H   0  0  0  0  0  0  0  0  0  0  0  0
  143.4242  156.2555  132.7669 H   0  0  0  0  0  0  0  0  0  0  0  0
  147.2920  156.6652  133.9612 H   0  0  0  0  0  0  0  0  0  0  0  0
  147.2667  155.6532  132.4773 H   0  0  0  0  0  0  0  0  0  0  0  0
  146.4781  157.2672  132.4773 H   0  0  0  0  0  0  0  0  0  0  0  0
  142.7510  151.8230  134.8100 H   0  0  0  0  0  0  0  0  0  0  0  0
  142.4225  156.3145  137.0098 H   0  0  0  0  0  0  0  0  0  0  0  0
  141.2821  158.8415  136.3127 H   0  0  0  0  0  0  0  0  0  0  0  0
  139.9006  159.9976  134.5495 H   0  0  0  0  0  0  0  0  0  0  0  0
  136.5214  159.5746  130.2741 H   0  0  0  0  0  0  0  0  0  0  0  0
  137.2588  161.1447  130.7551 H   0  0  0  0  0  0  0  0  0  0  0  0
  137.8770  159.3730  128.6910 H   0  0  0  0  0  0  0  0  0  0  0  0
  139.5864  156.2553  132.3390 H   0  0  0  0  0  0  0  0  0  0  0  0
  1  2  1  0
  2  3  1  0
  3  4  1  0
  4  5  2  0
  4  6  1  0
  6  7  1  0
  7  8  1  0
  7  9  1  0
  7 10  1  0
  2 11  1  0
 11 12  2  0
 11 13  1  0
 13 14  1  0
 14 15  1  0
 15 16  1  0
 15 17  2  0
 14 18  2  0
 18 19  1  0
 19 20  2  0
 20 21  1  0
 21 22  2  0
 22 23  1  0
 23 24  3  0
 24 25  1  0
 25 26  1  0
 22 27  1  0
 27 28  2  0
 28 13  1  0
 28 19  1  0
  1 29  1  0
  1 30  1  0
  1 31  1  0
  2 32  1  1
  3 33  1  0
  3 34  1  0
  8 35  1  0
  8 36  1  0
  8 37  1  0
  9 38  1  0
  9 39  1  0
  9 40  1  0
 10 41  1  0
 10 42  1  0
 10 43  1  0
 16 44  1  0
 18 45  1  0
 20 46  1  0
 21 47  1  0
 25 48  1  0
 25 49  1  0
 26 50  1  0
 27 51  1  0
M  CHG  2   2   1  16  -1
M  END
>  <UniqueID>  (16) 
16

>  <SMILES>  (16) 
C[N@@H+](CC(=O)OC(C)(C)C)C(=O)n1c(C([NH-])=O)cc2ccc(C#CCO)cc21

>  <Energy>  (16) 
83.84367949185109

>  <Genealogy>  (16) 
C[NH+](CC(=O)OC(C)(C)C)C(=O)n1c(C([NH-])=O)cc2ccc(C#CCO)cc21 (protonated)
C[N@@H+](CC(=O)OC(C)(C)C)C(=O)n1c(C([NH-])=O)cc2ccc(C#CCO)cc21 (chirality)
C[N@@H+](CC(=O)OC(C)(C)C)C(=O)n1c(C([NH-])=O)cc2ccc(C#CCO)cc21 (3D coordinates assigned)
C[N@@H+](CC(=O)OC(C)(C)C)C(=O)n1c(C([NH-])=O)cc2ccc(C#CCO)cc21 (optimized conformer: 83.84367949185109 kcal/mol)

>  <smiles>  (16) 
CN(CC(=O)OC(C)(C)C)C(=O)n1c(C(N)=O)cc2ccc(C#CCO)cc21

>  <score_type>  (16) 
oracle

>  <origin>  (16) 
adg

>  <m_score__min__energy>  (16) 
-7.9400000000000004

>  <m_primary>  (16) 
energy

$$$$
17:0
     RDKit          3D

 43 45  0  0  0  0  0  0  0  0999 V2000
  144.2670  154.6300  135.4260 C   0  0  0  0  0  0  0  0  0  0  0  0
  145.5390  154.7160  135.0140 C   0  0  0  0  0  0  0  0  0  0  0  0
  146.6400  154.4240  135.9660 C   0  0  0  0  0  0  0  0  0  0  0  0
  147.6220  155.2060  136.0690 O   0  0  0  0  0  0  0  0  0  0  0  0
  146.6130  153.2760  136.7490 O   0  0  0  0  0  0  0  0  0  0  0  0
  145.8360  155.1170  133.6130 C   0  0  0  0  0  0  0  0  0  0  0  0
  145.1940  154.5970  132.6610 O   0  0  0  0  0  0  0  0  0  0  0  0
  146.8480  156.0940  133.3190 N   0  0  0  0  0  0  0  0  0  0  0  0
  148.1060  155.8750  132.8430 C   0  0  0  0  0  0  0  0  0  0  0  0
  148.7440  154.5540  132.6590 C   0  0  0  0  0  0  0  0  0  0  0  0
  147.9650  153.3620  132.6070 N   0  0  0  0  0  0  0  0  0  0  0  0
  149.9990  154.4740  132.5760 O   0  0  0  0  0  0  0  0  0  0  0  0
  148.7490  157.0870  132.5950 C   0  0  0  0  0  0  0  0  0  0  0  0
  147.8380  158.0610  132.9340 C   0  0  0  0  0  0  0  0  0  0  0  0
  147.9380  159.4480  132.8640 C   0  0  0  0  0  0  0  0  0  0  0  0
  146.8200  160.2080  133.2480 C   0  0  0  0  0  0  0  0  0  0  0  0
  145.6340  159.5740  133.6950 C   0  0  0  0  0  0  0  0  0  0  0  0
  144.4270  160.3950  134.0500 C   0  0  0  0  0  0  0  0  0  0  0  0
  143.2540  159.5340  134.1410 N   0  0  0  0  0  0  0  0  0  0  0  0
  142.4740  159.3760  135.2280 C   0  0  0  0  0  0  0  0  0  0  0  0
  141.4310  158.5460  134.8800 C   0  0  0  0  0  0  0  0  0  0  0  0
  140.3300  158.0990  135.7400 C   0  0  0  0  0  0  0  0  0  0  0  0
  139.1750  157.9490  135.2550 O   0  0  0  0  0  0  0  0  0  0  0  0
  140.5720  157.8430  137.0930 O   0  0  0  0  0  0  0  0  0  0  0  0
  141.3290  156.7230  137.5370 C   0  0  0  0  0  0  0  0  0  0  0  0
  141.6340  158.2400  133.5470 C   0  0  0  0  0  0  0  0  0  0  0  0
  142.7500  158.8630  133.1170 N   0  0  0  0  0  0  0  0  0  0  0  0
  145.5650  158.1650  133.7380 C   0  0  0  0  0  0  0  0  0  0  0  0
  146.6970  157.4350  133.3640 C   0  0  0  0  0  0  0  0  0  0  0  0
  143.4463  154.8450  134.7258 H   0  0  0  0  0  0  0  0  0  0  0  0
  144.0433  154.3444  136.4644 H   0  0  0  0  0  0  0  0  0  0  0  0
  146.9930  153.3710  132.2290 H   0  0  0  0  0  0  0  0  0  0  0  0
  149.7689  157.2336  132.2098 H   0  0  0  0  0  0  0  0  0  0  0  0
  148.8628  159.9335  132.5190 H   0  0  0  0  0  0  0  0  0  0  0  0
  146.8660  161.3060  133.2011 H   0  0  0  0  0  0  0  0  0  0  0  0
  144.5934  160.8892  135.0186 H   0  0  0  0  0  0  0  0  0  0  0  0
  144.2614  161.1535  133.2707 H   0  0  0  0  0  0  0  0  0  0  0  0
  142.6402  159.8288  136.2166 H   0  0  0  0  0  0  0  0  0  0  0  0
  141.3428  156.7025  138.6367 H   0  0  0  0  0  0  0  0  0  0  0  0
  140.8706  155.7974  137.1588 H   0  0  0  0  0  0  0  0  0  0  0  0
  142.3588  156.8033  137.1588 H   0  0  0  0  0  0  0  0  0  0  0  0
  140.9887  157.5923  132.9354 H   0  0  0  0  0  0  0  0  0  0  0  0
  144.6445  157.6545  134.0575 H   0  0  0  0  0  0  0  0  0  0  0  0
  1  2  2  0
  2  3  1  0
  3  4  2  0
  3  5  1  0
  2  6  1  0
  6  7  2  0
  6  8  1  0
  8  9  1  0
  9 10  1  0
 10 11  1  0
 10 12  2  0
  9 13  2  0
 13 14  1  0
 14 15  2  0
 15 16  1  0
 16 17  2  0
 17 18  1  0
 18 19  1  0
 19 20  1  0
 20 21  2  0
 21 22  1  0
 22 23  2  0
 22 24  1  0
 24 25  1  0
 21 26  1  0
 26 27  2  0
 17 28  1  0
 28 29  2  0
 29  8  1  0
 29 14  1  0
 27 19  1  0
  1 30  1  0
  1 31  1  0
 11 32  1  0
 13 33  1  0
 15 34  1  0
 16 35  1  0
 18 36  1  0
 18 37  1  0
 20 38  1  0
 25 39  1  0
 25 40  1  0
 25 41  1  0
 26 42  1  0
 28 43  1  0
M  CHG  2   5  -1  11  -1
M  END
>  <UniqueID>  (17) 
17

>  <SMILES>  (17) 
C=C(C(=O)[O-])C(=O)n1c(C([NH-])=O)cc2ccc(Cn3cc(C(=O)OC)cn3)cc21

>  <Energy>  (17) 
111.2527865188389

>  <Genealogy>  (17) 
C=C(C(=O)[O-])C(=O)n1c(C([NH-])=O)cc2ccc(Cn3cc(C(=O)OC)cn3)cc21 (protonated)
C=C(C(=O)[O-])C(=O)n1c(C([NH-])=O)cc2ccc(Cn3cc(C(=O)OC)cn3)cc21 (3D coordinates assigned)
C=C(C(=O)[O-])C(=O)n1c(C([NH-])=O)cc2ccc(Cn3cc(C(=O)OC)cn3)cc21 (optimized conformer: 111.2527865188389 kcal/mol)

>  <smiles>  (17) 
C=C(C(=O)O)C(=O)n1c(C(N)=O)cc2ccc(Cn3cc(C(=O)OC)cn3)cc21

>  <score_type>  (17) 
oracle

>  <origin>  (17) 
adg

>  <m_score__min__energy>  (17) 
-7.46

>  <m_primary>  (17) 
energy

$$$$
18:0
     RDKit          3D

 40 41  0  0  0  0  0  0  0  0999 V2000
  142.2110  155.9490  135.4790 N   0  0  0  0  0  0  0  0  0  0  0  0
  143.0280  155.3270  134.4910 C   0  0  0  0  0  0  0  0  0  0  0  0
  144.1340  155.8480  134.1880 O   0  0  0  0  0  0  0  0  0  0  0  0
  142.6220  154.0540  133.8600 C   0  0  0  0  0  0  0  0  0  0  0  0
  143.4820  152.9690  133.7010 C   0  0  0  0  0  0  0  0  0  0  0  0
  142.7070  151.9660  133.1630 C   0  0  0  0  0  0  0  0  0  0  0  0
  143.0510  150.6680  132.7990 C   0  0  0  0  0  0  0  0  0  0  0  0
  142.0510  149.8540  132.2420 C   0  0  0  0  0  0  0  0  0  0  0  0
  140.7390  150.3540  132.0350 C   0  0  0  0  0  0  0  0  0  0  0  0
  139.6660  149.4580  131.4710 C   0  0  0  0  0  0  0  0  0  0  0  0
  139.8660  148.1670  131.9230 F   0  0  0  0  0  0  0  0  0  0  0  0
  139.7030  149.4630  130.0870 F   0  0  0  0  0  0  0  0  0  0  0  0
  138.4110  149.8860  131.8710 F   0  0  0  0  0  0  0  0  0  0  0  0
  140.4240  151.6720  132.4410 C   0  0  0  0  0  0  0  0  0  0  0  0
  141.4360  152.4540  133.0100 C   0  0  0  0  0  0  0  0  0  0  0  0
  141.3680  153.7360  133.4330 N   0  0  0  0  0  0  0  0  0  0  0  0
  140.2280  154.6040  133.3400 C   0  0  0  0  0  0  0  0  0  0  0  0
  139.1100  154.1380  132.9860 O   0  0  0  0  0  0  0  0  0  0  0  0
  140.3680  155.9670  133.6260 O   0  0  0  0  0  0  0  0  0  0  0  0
  139.8590  157.0020  132.7880 C   0  0  0  0  0  0  0  0  0  0  0  0
  140.8610  158.1660  132.6890 C   0  0  2  0  0  0  0  0  0  0  0  0
  142.0550  157.8510  133.3620 O   0  0  0  0  0  0  0  0  0  0  0  0
  140.2580  159.4680  133.2340 C   0  0  0  0  0  0  0  0  0  0  0  0
  141.1710  160.0620  134.1260 O   0  0  0  0  0  0  0  0  0  0  0  0
  141.1020  159.2230  135.6080 P   0  0  1  0  0  0  0  0  0  0  0  0
  142.4820  158.7040  135.9400 O   0  0  0  0  0  0  0  0  0  0  0  0
  140.5970  160.2640  136.8430 O   0  0  0  0  0  0  0  0  0  0  0  0
  140.0360  157.9110  135.4910 O   0  0  0  0  0  0  0  0  0  0  0  0
  141.6520  156.8020  135.2540 H   0  0  0  0  0  0  0  0  0  0  0  0
  144.5520  152.9235  133.9519 H   0  0  0  0  0  0  0  0  0  0  0  0
  144.0743  150.2910  132.9429 H   0  0  0  0  0  0  0  0  0  0  0  0
  142.2876  148.8166  131.9629 H   0  0  0  0  0  0  0  0  0  0  0  0
  139.4077  152.0729  132.3126 H   0  0  0  0  0  0  0  0  0  0  0  0
  139.6777  156.5954  131.7821 H   0  0  0  0  0  0  0  0  0  0  0  0
  138.9215  157.3792  133.2226 H   0  0  0  0  0  0  0  0  0  0  0  0
  141.0919  158.3224  131.6250 H   0  0  0  0  0  0  0  0  0  0  0  0
  141.8120  157.5040  134.2600 H   0  0  0  0  0  0  0  0  0  0  0  0
  140.0560  160.1572  132.4008 H   0  0  0  0  0  0  0  0  0  0  0  0
  139.3169  159.2484  133.7595 H   0  0  0  0  0  0  0  0  0  0  0  0
  140.5190  157.2380  134.9470 H   0  0  0  0  0  0  0  0  0  0  0  0
  1  2  1  0
  2  3  2  0
  2  4  1  0
  4  5  2  0
  5  6  1  0
  6  7  2  0
  7  8  1  0
  8  9  2  0
  9 10  1  0
 10 11  1  0
 10 12  1  0
 10 13  1  0
  9 14  1  0
 14 15  2  0
 15 16  1  0
 16 17  1  0
 17 18  2  0
 17 19  1  0
 19 20  1  0
 20 21  1  0
 21 22  1  0
 21 23  1  0
 23 24  1  0
 24 25  1  0
 25 26  2  0
 25 27  1  1
 25 28  1  0
 16  4  1  0
 15  6  1  0
  1 29  1  0
  5 30  1  0
  7 31  1  0
  8 32  1  0
 14 33  1  0
 20 34  1  0
 20 35  1  0
 21 36  1  6
 22 37  1  0
 23 38  1  0
 23 39  1  0
 28 40  1  0
M  CHG  2   1  -1  27  -1
M  END
>  <UniqueID>  (18) 
18

>  <SMILES>  (18) 
[NH-]C(=O)c1cc2ccc(C(F)(F)F)cc2n1C(=O)OC[C@H](O)CO[P@@](=O)([O-])O

>  <Energy>  (18) 
73.4717347268725

>  <Genealogy>  (18) 
[NH-]C(=O)c1cc2ccc(C(F)(F)F)cc2n1C(=O)OCC(O)COP(=O)([O-])O (protonated)
[NH-]C(=O)c1cc2ccc(C(F)(F)F)cc2n1C(=O)OC[C@H](O)CO[P@@](=O)([O-])O (chirality)
[NH-]C(=O)c1cc2ccc(C(F)(F)F)cc2n1C(=O)OC[C@H](O)CO[P@@](=O)([O-])O (3D coordinates assigned)
[NH-]C(=O)c1cc2ccc(C(F)(F)F)cc2n1C(=O)OC[C@H](O)CO[P@@](=O)([O-])O (optimized conformer: 73.4717347268725 kcal/mol)

>  <smiles>  (18) 
NC(=O)c1cc2ccc(C(F)(F)F)cc2n1C(=O)OCC(O)COP(=O)(O)O

>  <score_type>  (18) 
oracle

>  <origin>  (18) 
adg

>  <m_score__min__energy>  (18) 
-4.8399999999999999

>  <m_primary>  (18) 
energy

$$$$
19:0
     RDKit          3D

 58 61  0  0  0  0  0  0  0  0999 V2000
  140.9420  152.5120  140.3690 C   0  0  0  0  0  0  0  0  0  0  0  0
  140.8160  151.9010  139.0130 C   0  0  0  0  0  0  0  0  0  0  0  0
  140.1410  150.8070  138.7450 O   0  0  0  0  0  0  0  0  0  0  0  0
  140.3030  150.5910  137.4590 C   0  0  0  0  0  0  0  0  0  0  0  0
  139.7890  149.6220  136.8440 O   0  0  0  0  0  0  0  0  0  0  0  0
  141.0600  151.4990  136.8870 O   0  0  0  0  0  0  0  0  0  0  0  0
  141.3990  152.3380  137.8390 C   0  0  0  0  0  0  0  0  0  0  0  0
  142.2740  153.5410  137.6570 C   0  0  0  0  0  0  0  0  0  0  0  0
  143.1500  153.3610  136.5470 O   0  0  0  0  0  0  0  0  0  0  0  0
  142.7520  153.5440  135.2160 C   0  0  0  0  0  0  0  0  0  0  0  0
  141.6000  153.1810  134.8500 O   0  0  0  0  0  0  0  0  0  0  0  0
  143.6830  154.0970  134.2620 N   0  0  0  0  0  0  0  0  0  0  0  0
  143.6320  153.6270  132.8710 C   0  0  0  0  0  0  0  0  0  0  0  0
  144.0380  152.1870  132.7890 C   0  0  0  0  0  0  0  0  0  0  0  0
  145.1080  151.8700  132.2000 O   0  0  0  0  0  0  0  0  0  0  0  0
  143.1990  151.1770  133.3530 N   0  0  0  0  0  0  0  0  0  0  0  0
  142.3060  150.3500  132.5530 C   0  0  0  0  0  0  0  0  0  0  0  0
  140.9080  150.3720  133.1640 C   0  0  0  0  0  0  0  0  0  0  0  0
  140.9870  150.3510  134.5630 O   0  0  0  0  0  0  0  0  0  0  0  0
  144.5170  155.2250  134.6030 C   0  0  0  0  0  0  0  0  0  0  0  0
  145.5900  155.0440  135.2380 O   0  0  0  0  0  0  0  0  0  0  0  0
  144.1320  156.5620  134.2490 N   0  0  0  0  0  0  0  0  0  0  0  0
  142.8700  157.0650  134.1420 C   0  0  0  0  0  0  0  0  0  0  0  0
  141.6260  156.3620  134.5180 C   0  0  0  0  0  0  0  0  0  0  0  0
  141.4000  155.9390  135.8600 N   0  0  0  0  0  0  0  0  0  0  0  0
  140.7360  156.1600  133.6500 O   0  0  0  0  0  0  0  0  0  0  0  0
  142.9090  158.3840  133.6930 C   0  0  0  0  0  0  0  0  0  0  0  0
  144.2460  158.6740  133.5320 C   0  0  0  0  0  0  0  0  0  0  0  0
  144.8640  159.8440  133.1070 C   0  0  0  0  0  0  0  0  0  0  0  0
  146.2670  159.8590  133.0250 C   0  0  0  0  0  0  0  0  0  0  0  0
  147.0310  158.7030  133.3640 C   0  0  0  0  0  0  0  0  0  0  0  0
  148.5470  158.6490  133.3010 C   0  0  0  0  0  0  0  0  0  0  0  0
  149.1730  157.8320  132.1780 C   0  0  0  0  0  0  0  0  0  0  0  0
  149.2180  159.3550  132.1300 C   0  0  0  0  0  0  0  0  0  0  0  0
  146.3560  157.5350  133.7870 C   0  0  0  0  0  0  0  0  0  0  0  0
  144.9610  157.5580  133.8720 C   0  0  0  0  0  0  0  0  0  0  0  0
  140.7827  151.7393  141.1356 H   0  0  0  0  0  0  0  0  0  0  0  0
  141.9477  152.9420  140.4854 H   0  0  0  0  0  0  0  0  0  0  0  0
  140.1885  153.3049  140.4854 H   0  0  0  0  0  0  0  0  0  0  0  0
  141.6424  154.4239  137.4796 H   0  0  0  0  0  0  0  0  0  0  0  0
  142.8775  153.6813  138.5659 H   0  0  0  0  0  0  0  0  0  0  0  0
  142.6062  153.7363  132.4892 H   0  0  0  0  0  0  0  0  0  0  0  0
  144.3273  154.2279  132.2665 H   0  0  0  0  0  0  0  0  0  0  0  0
  142.2637  150.7431  131.5265 H   0  0  0  0  0  0  0  0  0  0  0  0
  142.6818  149.3163  132.5348 H   0  0  0  0  0  0  0  0  0  0  0  0
  140.3867  151.2862  132.8439 H   0  0  0  0  0  0  0  0  0  0  0  0
  140.3555  149.4837  132.8240 H   0  0  0  0  0  0  0  0  0  0  0  0
  141.6170  151.0730  134.8220 H   0  0  0  0  0  0  0  0  0  0  0  0
  141.5810  154.9530  136.1530 H   0  0  0  0  0  0  0  0  0  0  0  0
  142.0544  159.0511  133.5069 H   0  0  0  0  0  0  0  0  0  0  0  0
  144.2722  160.7327  132.8424 H   0  0  0  0  0  0  0  0  0  0  0  0
  146.7822  160.7733  132.6954 H   0  0  0  0  0  0  0  0  0  0  0  0
  148.6568  158.6768  134.3951 H   0  0  0  0  0  0  0  0  0  0  0  0
  150.0944  157.2600  132.3616 H   0  0  0  0  0  0  0  0  0  0  0  0
  148.8182  157.0424  131.4993 H   0  0  0  0  0  0  0  0  0  0  0  0
  150.1719  159.8821  132.2789 H   0  0  0  0  0  0  0  0  0  0  0  0
  148.9091  160.1198  131.4023 H   0  0  0  0  0  0  0  0  0  0  0  0
  146.9181  156.6252  134.0444 H   0  0  0  0  0  0  0  0  0  0  0  0
  1  2  1  0
  2  3  1  0
  3  4  1  0
  4  5  2  0
  4  6  1  0
  6  7  1  0
  7  8  1  0
  8  9  1  0
  9 10  1  0
 10 11  2  0
 10 12  1  0
 12 13  1  0
 13 14  1  0
 14 15  2  0
 14 16  1  0
 16 17  1  0
 17 18  1  0
 18 19  1  0
 12 20  1  0
 20 21  2  0
 20 22  1  0
 22 23  1  0
 23 24  1  0
 24 25  1  0
 24 26  2  0
 23 27  2  0
 27 28  1  0
 28 29  2  0
 29 30  1  0
 30 31  2  0
 31 32  1  0
 32 33  1  0
 33 34  1  0
 31 35  1  0
 35 36  2  0
  7  2  2  0
 36 22  1  0
 36 28  1  0
 34 32  1  0
  1 37  1  0
  1 38  1  0
  1 39  1  0
  8 40  1  0
  8 41  1  0
 13 42  1  0
 13 43  1  0
 17 44  1  0
 17 45  1  0
 18 46  1  0
 18 47  1  0
 19 48  1  0
 25 49  1  0
 27 50  1  0
 29 51  1  0
 30 52  1  0
 32 53  1  0
 33 54  1  0
 33 55  1  0
 34 56  1  0
 34 57  1  0
 35 58  1  0
M  CHG  2  16  -1  25  -1
M  END
>  <UniqueID>  (19) 
19

>  <SMILES>  (19) 
Cc1oc(=O)oc1COC(=O)N(CC(=O)[N-]CCO)C(=O)n1c(C([NH-])=O)cc2ccc(C3CC3)cc21

>  <Energy>  (19) 
390.7312475992068

>  <Genealogy>  (19) 
Cc1oc(=O)oc1COC(=O)N(CC(=O)[N-]CCO)C(=O)n1c(C([NH-])=O)cc2ccc(C3CC3)cc21 (protonated)
Cc1oc(=O)oc1COC(=O)N(CC(=O)[N-]CCO)C(=O)n1c(C([NH-])=O)cc2ccc(C3CC3)cc21 (3D coordinates assigned)
Cc1oc(=O)oc1COC(=O)N(CC(=O)[N-]CCO)C(=O)n1c(C([NH-])=O)cc2ccc(C3CC3)cc21 (nonaromatic ring conformer: 390.7312475992068 kcal/mol)

>  <smiles>  (19) 
Cc1oc(=O)oc1COC(=O)N(CC(=O)NCCO)C(=O)n1c(C(N)=O)cc2ccc(C3CC3)cc21

>  <score_type>  (19) 
oracle

>  <origin>  (19) 
adg

>  <m_score__min__energy>  (19) 
-8.5700000000000003

>  <m_primary>  (19) 
energy

$$$$
20:0
     RDKit          3D

 50 52  0  0  0  0  0  0  0  0999 V2000
  139.8270  148.9790  131.2030 C   0  0  0  0  0  0  0  0  0  0  0  0
  139.8490  149.5640  132.6130 C   0  0  0  0  0  0  0  0  0  0  0  0
  140.9900  150.5300  132.7690 C   0  0  0  0  0  0  0  0  0  0  0  0
  142.3310  150.0690  132.6870 C   0  0  0  0  0  0  0  0  0  0  0  0
  143.4060  150.9710  132.7650 C   0  0  0  0  0  0  0  0  0  0  0  0
  143.1120  152.3230  132.9200 C   0  0  0  0  0  0  0  0  0  0  0  0
  143.9490  153.4180  132.9890 C   0  0  0  0  0  0  0  0  0  0  0  0
  143.1000  154.5120  133.1230 C   0  0  0  0  0  0  0  0  0  0  0  0
  143.5420  155.9040  133.2290 C   0  0  0  0  0  0  0  0  0  0  0  0
  143.1350  156.8520  132.2460 N   0  0  0  0  0  0  0  0  0  0  0  0
  144.2840  156.2570  134.1830 O   0  0  0  0  0  0  0  0  0  0  0  0
  141.8020  154.1210  133.1150 N   0  0  0  0  0  0  0  0  0  0  0  0
  140.6460  154.9640  133.2220 C   0  0  0  0  0  0  0  0  0  0  0  0
  139.5930  154.6170  132.6230 O   0  0  0  0  0  0  0  0  0  0  0  0
  140.6480  156.1850  134.0100 N   0  0  1  0  0  0  0  0  0  0  0  0
  139.3470  156.8640  133.8840 C   0  0  0  0  0  0  0  0  0  0  0  0
  139.4600  158.3180  134.3640 C   0  0  0  0  0  0  0  0  0  0  0  0
  140.2130  158.4600  135.7120 C   0  0  2  0  0  0  0  0  0  0  0  0
  141.4010  159.4600  135.6740 C   0  0  0  0  0  0  0  0  0  0  0  0
  142.6800  158.9730  134.9800 C   0  0  0  0  0  0  0  0  0  0  0  0
  142.4330  158.6820  133.6330 O   0  0  0  0  0  0  0  0  0  0  0  0
  140.5600  157.1100  136.3880 C   0  0  0  0  0  0  0  0  0  0  0  0
  140.9970  155.9640  135.4390 C   0  0  0  0  0  0  0  0  0  0  0  0
  141.8190  152.7780  133.0030 C   0  0  0  0  0  0  0  0  0  0  0  0
  140.7300  151.9090  132.9230 C   0  0  0  0  0  0  0  0  0  0  0  0
  139.7857  147.8814  131.2620 H   0  0  0  0  0  0  0  0  0  0  0  0
  138.9422  149.3508  130.6655 H   0  0  0  0  0  0  0  0  0  0  0  0
  140.7372  149.2833  130.6655 H   0  0  0  0  0  0  0  0  0  0  0  0
  138.9016  150.0907  132.8004 H   0  0  0  0  0  0  0  0  0  0  0  0
  139.9785  148.7438  133.3345 H   0  0  0  0  0  0  0  0  0  0  0  0
  142.5303  148.9946  132.5611 H   0  0  0  0  0  0  0  0  0  0  0  0
  144.4468  150.6199  132.7055 H   0  0  0  0  0  0  0  0  0  0  0  0
  145.0482  153.4245  132.9472 H   0  0  0  0  0  0  0  0  0  0  0  0
  142.1320  157.1170  132.1360 H   0  0  0  0  0  0  0  0  0  0  0  0
  141.3870  156.7950  133.5900 H   0  0  0  0  0  0  0  0  0  0  0  0
  138.6007  156.3362  134.4959 H   0  0  0  0  0  0  0  0  0  0  0  0
  139.0389  156.8572  132.8280 H   0  0  0  0  0  0  0  0  0  0  0  0
  138.4456  158.7257  134.4856 H   0  0  0  0  0  0  0  0  0  0  0  0
  140.0386  158.8678  133.6071 H   0  0  0  0  0  0  0  0  0  0  0  0
  139.4762  158.9275  136.3818 H   0  0  0  0  0  0  0  0  0  0  0  0
  141.0600  160.3653  135.1504 H   0  0  0  0  0  0  0  0  0  0  0  0
  141.6818  159.6207  136.7253 H   0  0  0  0  0  0  0  0  0  0  0  0
  143.4473  159.7586  135.0447 H   0  0  0  0  0  0  0  0  0  0  0  0
  143.0272  158.0575  135.4813 H   0  0  0  0  0  0  0  0  0  0  0  0
  143.1250  158.0140  133.3680 H   0  0  0  0  0  0  0  0  0  0  0  0
  139.6694  156.7704  136.9371 H   0  0  0  0  0  0  0  0  0  0  0  0
  141.4328  157.3146  137.0255 H   0  0  0  0  0  0  0  0  0  0  0  0
  140.5101  155.0359  135.7728 H   0  0  0  0  0  0  0  0  0  0  0  0
  142.0946  155.9139  135.4907 H   0  0  0  0  0  0  0  0  0  0  0  0
  139.6987  152.2876  132.9784 H   0  0  0  0  0  0  0  0  0  0  0  0
  1  2  1  0
  2  3  1  0
  3  4  2  0
  4  5  1  0
  5  6  2  0
  6  7  1  0
  7  8  2  0
  8  9  1  0
  9 10  1  0
  9 11  2  0
  8 12  1  0
 12 13  1  0
 13 14  2  0
 13 15  1  0
 15 16  1  0
 16 17  1  0
 17 18  1  0
 18 19  1  0
 19 20  1  0
 20 21  1  0
 18 22  1  0
 22 23  1  0
 12 24  1  0
 24 25  2  0
 25  3  1  0
 24  6  1  0
 23 15  1  0
  1 26  1  0
  1 27  1  0
  1 28  1  0
  2 29  1  0
  2 30  1  0
  4 31  1  0
  5 32  1  0
  7 33  1  0
 10 34  1  0
 15 35  1  6
 16 36  1  0
 16 37  1  0
 17 38  1  0
 17 39  1  0
 18 40  1  1
 19 41  1  0
 19 42  1  0
 20 43  1  0
 20 44  1  0
 21 45  1  0
 22 46  1  0
 22 47  1  0
 23 48  1  0
 23 49  1  0
 25 50  1  0
M  CHG  2  10  -1  15   1
M  END
>  <UniqueID>  (20) 
20

>  <SMILES>  (20) 
CCc1ccc2cc(C([NH-])=O)n(C(=O)[NH+]3CCC(CCO)CC3)c2c1

>  <Energy>  (20) 
108.25429742135925

>  <Genealogy>  (20) 
CCc1ccc2cc(C([NH-])=O)n(C(=O)[NH+]3CCC(CCO)CC3)c2c1 (protonated)
CCc1ccc2cc(C([NH-])=O)n(C(=O)[NH+]3CCC(CCO)CC3)c2c1 (3D coordinates assigned)
CCc1ccc2cc(C([NH-])=O)n(C(=O)[NH+]3CCC(CCO)CC3)c2c1 (nonaromatic ring conformer: 108.25429742135925 kcal/mol)

>  <smiles>  (20) 
CCc1ccc2cc(C(N)=O)n(C(=O)N3CCC(CCO)CC3)c2c1

>  <score_type>  (20) 
oracle

>  <origin>  (20) 
adg

>  <m_score__min__energy>  (20) 
-7.0199999999999996

>  <m_primary>  (20) 
energy

$$$$
21:0
     RDKit          3D

 32 33  0  0  0  0  0  0  0  0999 V2000
  143.3100  161.6730  133.7080 N   0  0  0  0  0  0  0  0  0  0  0  0
  144.7210  161.7120  133.9110 C   0  0  0  0  0  0  0  0  0  0  0  0
  145.2610  162.7890  134.2770 O   0  0  0  0  0  0  0  0  0  0  0  0
  145.5240  160.4850  133.7330 C   0  0  0  0  0  0  0  0  0  0  0  0
  146.9070  160.4890  133.5590 C   0  0  0  0  0  0  0  0  0  0  0  0
  147.2520  159.1750  133.3490 C   0  0  0  0  0  0  0  0  0  0  0  0
  148.5020  158.6000  133.1470 C   0  0  0  0  0  0  0  0  0  0  0  0
  148.5710  157.2040  132.9980 C   0  0  0  0  0  0  0  0  0  0  0  0
  147.3940  156.4120  133.0450 C   0  0  0  0  0  0  0  0  0  0  0  0
  147.4880  154.9100  132.9490 C   0  0  0  0  0  0  0  0  0  0  0  0
  148.6080  154.5350  132.2260 F   0  0  0  0  0  0  0  0  0  0  0  0
  146.3720  154.3900  132.3160 F   0  0  0  0  0  0  0  0  0  0  0  0
  147.5730  154.3770  134.2210 F   0  0  0  0  0  0  0  0  0  0  0  0
  146.1450  157.0320  133.2780 C   0  0  0  0  0  0  0  0  0  0  0  0
  146.1060  158.4250  133.4030 C   0  0  0  0  0  0  0  0  0  0  0  0
  145.0350  159.2160  133.6400 N   0  0  0  0  0  0  0  0  0  0  0  0
  143.6820  158.7790  133.8390 C   0  0  0  0  0  0  0  0  0  0  0  0
  143.0950  159.0320  134.9270 O   0  0  0  0  0  0  0  0  0  0  0  0
  143.0160  158.0920  132.8180 O   0  0  0  0  0  0  0  0  0  0  0  0
  141.8000  157.3760  133.0150 C   0  0  0  0  0  0  0  0  0  0  0  0
  140.4030  158.5330  133.1600 P   0  0  1  0  0  0  0  0  0  0  0  0
  139.5250  158.4110  131.9360 O   0  0  0  0  0  0  0  0  0  0  0  0
  139.4920  158.1720  134.5390 O   0  0  0  0  0  0  0  0  0  0  0  0
  140.9960  160.1120  133.2750 O   0  0  0  0  0  0  0  0  0  0  0  0
  142.7310  160.9020  134.1100 H   0  0  0  0  0  0  0  0  0  0  0  0
  147.5796  161.3590  133.5844 H   0  0  0  0  0  0  0  0  0  0  0  0
  149.4100  159.2194  133.1051 H   0  0  0  0  0  0  0  0  0  0  0  0
  149.5469  156.7205  132.8434 H   0  0  0  0  0  0  0  0  0  0  0  0
  145.2257  156.4334  133.3591 H   0  0  0  0  0  0  0  0  0  0  0  0
  141.6298  156.7070  132.1585 H   0  0  0  0  0  0  0  0  0  0  0  0
  141.8764  156.7889  133.9421 H   0  0  0  0  0  0  0  0  0  0  0  0
  141.9790  160.0090  133.3430 H   0  0  0  0  0  0  0  0  0  0  0  0
  1  2  1  0
  2  3  2  0
  2  4  1  0
  4  5  2  0
  5  6  1  0
  6  7  2  0
  7  8  1  0
  8  9  2  0
  9 10  1  0
 10 11  1  0
 10 12  1  0
 10 13  1  0
  9 14  1  0
 14 15  2  0
 15 16  1  0
 16 17  1  0
 17 18  2  0
 17 19  1  0
 19 20  1  0
 20 21  1  0
 21 22  2  0
 21 23  1  1
 21 24  1  0
 16  4  1  0
 15  6  1  0
  1 25  1  0
  5 26  1  0
  7 27  1  0
  8 28  1  0
 14 29  1  0
 20 30  1  0
 20 31  1  0
 24 32  1  0
M  CHG  2   1  -1  23  -1
M  END
>  <UniqueID>  (21) 
21

>  <SMILES>  (21) 
[NH-]C(=O)c1cc2ccc(C(F)(F)F)cc2n1C(=O)OC[P@@](=O)([O-])O

>  <Energy>  (21) 
65.72531381094169

>  <Genealogy>  (21) 
[NH-]C(=O)c1cc2ccc(C(F)(F)F)cc2n1C(=O)OCP(=O)([O-])O (protonated)
[NH-]C(=O)c1cc2ccc(C(F)(F)F)cc2n1C(=O)OC[P@@](=O)([O-])O (chirality)
[NH-]C(=O)c1cc2ccc(C(F)(F)F)cc2n1C(=O)OC[P@@](=O)([O-])O (3D coordinates assigned)
[NH-]C(=O)c1cc2ccc(C(F)(F)F)cc2n1C(=O)OC[P@@](=O)([O-])O (optimized conformer: 65.72531381094169 kcal/mol)

>  <smiles>  (21) 
NC(=O)c1cc2ccc(C(F)(F)F)cc2n1C(=O)OCP(=O)(O)O

>  <score_type>  (21) 
oracle

>  <origin>  (21) 
adg

>  <m_score__min__energy>  (21) 
-5.2699999999999996

>  <m_primary>  (21) 
energy

$$$$
22:0
     RDKit          3D

 33 34  0  0  0  0  0  0  0  0999 V2000
  143.1480  156.0550  134.7090 N   0  0  0  0  0  0  0  0  0  0  0  0
  144.5250  155.7270  134.8760 C   0  0  0  0  0  0  0  0  0  0  0  0
  144.8510  154.8360  135.7040 O   0  0  0  0  0  0  0  0  0  0  0  0
  145.5740  156.4570  134.1340 C   0  0  0  0  0  0  0  0  0  0  0  0
  146.8800  155.9910  133.9960 C   0  0  0  0  0  0  0  0  0  0  0  0
  147.5520  156.9830  133.3180 C   0  0  0  0  0  0  0  0  0  0  0  0
  148.8720  157.0360  132.8880 C   0  0  0  0  0  0  0  0  0  0  0  0
  149.2860  158.1690  132.1670 C   0  0  0  0  0  0  0  0  0  0  0  0
  148.3820  159.2290  131.8980 C   0  0  0  0  0  0  0  0  0  0  0  0
  148.8200  160.4090  131.0680 C   0  0  0  0  0  0  0  0  0  0  0  0
  150.1920  160.3950  130.8870 F   0  0  0  0  0  0  0  0  0  0  0  0
  148.2190  160.3810  129.8230 F   0  0  0  0  0  0  0  0  0  0  0  0
  148.4630  161.5770  131.7150 F   0  0  0  0  0  0  0  0  0  0  0  0
  147.0390  159.1250  132.3320 C   0  0  0  0  0  0  0  0  0  0  0  0
  146.6610  157.9940  133.0640 C   0  0  0  0  0  0  0  0  0  0  0  0
  145.4410  157.6850  133.5580 N   0  0  0  0  0  0  0  0  0  0  0  0
  144.2380  158.4500  133.3950 C   0  0  0  0  0  0  0  0  0  0  0  0
  143.3410  158.0520  132.6020 O   0  0  0  0  0  0  0  0  0  0  0  0
  144.0530  159.6180  134.1410 O   0  0  0  0  0  0  0  0  0  0  0  0
  142.8030  159.9820  134.7220 C   0  0  0  0  0  0  0  0  0  0  0  0
  142.1790  158.8610  135.3090 O   0  0  0  0  0  0  0  0  0  0  0  0
  140.7060  158.5530  134.5030 P   0  0  2  0  0  0  0  0  0  0  0  0
  140.3830  159.6920  133.5600 O   0  0  0  0  0  0  0  0  0  0  0  0
  139.4450  158.3680  135.6160 O   0  0  0  0  0  0  0  0  0  0  0  0
  140.8590  157.1230  133.6110 O   0  0  0  0  0  0  0  0  0  0  0  0
  142.8530  157.0230  134.4540 H   0  0  0  0  0  0  0  0  0  0  0  0
  147.2875  155.0337  134.3530 H   0  0  0  0  0  0  0  0  0  0  0  0
  149.5720  156.2158  133.1053 H   0  0  0  0  0  0  0  0  0  0  0  0
  150.3233  158.2349  131.8069 H   0  0  0  0  0  0  0  0  0  0  0  0
  146.3095  159.9147  132.0994 H   0  0  0  0  0  0  0  0  0  0  0  0
  142.9732  160.7461  135.4948 H   0  0  0  0  0  0  0  0  0  0  0  0
  142.1480  160.3769  133.9315 H   0  0  0  0  0  0  0  0  0  0  0  0
  141.8280  156.9200  133.6230 H   0  0  0  0  0  0  0  0  0  0  0  0
  1  2  1  0
  2  3  2  0
  2  4  1  0
  4  5  2  0
  5  6  1  0
  6  7  2  0
  7  8  1  0
  8  9  2  0
  9 10  1  0
 10 11  1  0
 10 12  1  0
 10 13  1  0
  9 14  1  0
 14 15  2  0
 15 16  1  0
 16 17  1  0
 17 18  2  0
 17 19  1  0
 19 20  1  0
 20 21  1  0
 21 22  1  0
 22 23  2  0
 22 24  1  1
 22 25  1  0
 16  4  1  0
 15  6  1  0
  1 26  1  0
  5 27  1  0
  7 28  1  0
  8 29  1  0
 14 30  1  0
 20 31  1  0
 20 32  1  0
 25 33  1  0
M  CHG  2   1  -1  24  -1
M  END
>  <UniqueID>  (22) 
22

>  <SMILES>  (22) 
[NH-]C(=O)c1cc2ccc(C(F)(F)F)cc2n1C(=O)OCO[P@](=O)([O-])O

>  <Energy>  (22) 
70.21310564784575

>  <Genealogy>  (22) 
[NH-]C(=O)c1cc2ccc(C(F)(F)F)cc2n1C(=O)OCOP(=O)([O-])O (protonated)
[NH-]C(=O)c1cc2ccc(C(F)(F)F)cc2n1C(=O)OCO[P@](=O)([O-])O (chirality)
[NH-]C(=O)c1cc2ccc(C(F)(F)F)cc2n1C(=O)OCO[P@](=O)([O-])O (3D coordinates assigned)
[NH-]C(=O)c1cc2ccc(C(F)(F)F)cc2n1C(=O)OCO[P@](=O)([O-])O (optimized conformer: 70.21310564784575 kcal/mol)

>  <smiles>  (22) 
NC(=O)c1cc2ccc(C(F)(F)F)cc2n1C(=O)OCOP(=O)(O)O

>  <score_type>  (22) 
oracle

>  <origin>  (22) 
adg

>  <m_score__min__energy>  (22) 
-4.9400000000000004

>  <m_primary>  (22) 
energy

$$$$
23:0
     RDKit          3D

 34 35  0  0  0  0  0  0  0  0999 V2000
  143.2210  161.3720  133.7240 N   0  0  0  0  0  0  0  0  0  0  0  0
  144.6230  161.4770  133.9580 C   0  0  0  0  0  0  0  0  0  0  0  0
  145.0920  162.5500  134.4210 O   0  0  0  0  0  0  0  0  0  0  0  0
  145.5120  160.3450  133.6180 C   0  0  0  0  0  0  0  0  0  0  0  0
  146.8840  160.4820  133.4180 C   0  0  0  0  0  0  0  0  0  0  0  0
  147.3530  159.2050  133.2160 C   0  0  0  0  0  0  0  0  0  0  0  0
  148.6460  158.7550  132.9630 C   0  0  0  0  0  0  0  0  0  0  0  0
  148.8370  157.3760  132.7710 C   0  0  0  0  0  0  0  0  0  0  0  0
  147.7430  156.4800  132.8290 C   0  0  0  0  0  0  0  0  0  0  0  0
  147.9660  155.0110  132.6060 C   0  0  0  0  0  0  0  0  0  0  0  0
  149.3200  154.7620  132.4710 F   0  0  0  0  0  0  0  0  0  0  0  0
  147.4760  154.2960  133.6830 F   0  0  0  0  0  0  0  0  0  0  0  0
  146.4440  156.9740  133.0860 C   0  0  0  0  0  0  0  0  0  0  0  0
  146.2850  158.3490  133.2940 C   0  0  0  0  0  0  0  0  0  0  0  0
  145.1450  159.0340  133.5360 N   0  0  0  0  0  0  0  0  0  0  0  0
  143.8240  158.4760  133.6300 C   0  0  0  0  0  0  0  0  0  0  0  0
  143.3150  157.9020  132.6300 O   0  0  0  0  0  0  0  0  0  0  0  0
  143.1280  158.5580  134.8430 O   0  0  0  0  0  0  0  0  0  0  0  0
  141.7750  158.8970  134.9750 C   0  0  0  0  0  0  0  0  0  0  0  0
  141.4140  159.9040  135.6440 O   0  0  0  0  0  0  0  0  0  0  0  0
  140.7460  158.0710  134.2680 C   0  0  0  0  0  0  0  0  0  0  0  0
  140.4330  158.6470  132.8850 C   0  0  0  0  0  0  0  0  0  0  0  0
  141.2170  159.7790  132.6230 O   0  0  0  0  0  0  0  0  0  0  0  0
  142.6940  160.5120  133.9930 H   0  0  0  0  0  0  0  0  0  0  0  0
  147.4683  161.4140  133.4210 H   0  0  0  0  0  0  0  0  0  0  0  0
  149.4916  159.4569  132.9149 H   0  0  0  0  0  0  0  0  0  0  0  0
  149.8475  156.9889  132.5735 H   0  0  0  0  0  0  0  0  0  0  0  0
  147.4409  154.7015  131.6904 H   0  0  0  0  0  0  0  0  0  0  0  0
  145.5795  156.2948  133.1217 H   0  0  0  0  0  0  0  0  0  0  0  0
  141.1260  157.0452  134.1524 H   0  0  0  0  0  0  0  0  0  0  0  0
  139.8227  158.0759  134.8659 H   0  0  0  0  0  0  0  0  0  0  0  0
  140.6392  157.8822  132.1217 H   0  0  0  0  0  0  0  0  0  0  0  0
  139.3734  158.9411  132.8595 H   0  0  0  0  0  0  0  0  0  0  0  0
  142.0780  159.6460  133.1000 H   0  0  0  0  0  0  0  0  0  0  0  0
  1  2  1  0
  2  3  2  0
  2  4  1  0
  4  5  2  0
  5  6  1  0
  6  7  2  0
  7  8  1  0
  8  9  2  0
  9 10  1  0
 10 11  1  0
 10 12  1  0
  9 13  1  0
 13 14  2  0
 14 15  1  0
 15 16  1  0
 16 17  2  0
 16 18  1  0
 18 19  1  0
 19 20  2  0
 19 21  1  0
 21 22  1  0
 22 23  1  0
 15  4  1  0
 14  6  1  0
  1 24  1  0
  5 25  1  0
  7 26  1  0
  8 27  1  0
 10 28  1  0
 13 29  1  0
 21 30  1  0
 21 31  1  0
 22 32  1  0
 22 33  1  0
 23 34  1  0
M  CHG  1   1  -1
M  END
>  <UniqueID>  (23) 
23

>  <SMILES>  (23) 
[NH-]C(=O)c1cc2ccc(C(F)F)cc2n1C(=O)OC(=O)CCO

>  <Energy>  (23) 
69.52413880535823

>  <Genealogy>  (23) 
[NH-]C(=O)c1cc2ccc(C(F)F)cc2n1C(=O)OC(=O)CCO (protonated)
[NH-]C(=O)c1cc2ccc(C(F)F)cc2n1C(=O)OC(=O)CCO (3D coordinates assigned)
[NH-]C(=O)c1cc2ccc(C(F)F)cc2n1C(=O)OC(=O)CCO (optimized conformer: 69.52413880535823 kcal/mol)

>  <smiles>  (23) 
NC(=O)c1cc2ccc(C(F)F)cc2n1C(=O)OC(=O)CCO

>  <score_type>  (23) 
oracle

>  <origin>  (23) 
adg

>  <m_score__min__energy>  (23) 
-5.2800000000000002

>  <m_primary>  (23) 
energy

$$$$
24:0
     RDKit          3D

 39 40  0  0  0  0  0  0  0  0999 V2000
  142.6240  159.8980  133.3290 N   0  0  0  0  0  0  0  0  0  0  0  0
  143.9600  160.2410  133.6860 C   0  0  0  0  0  0  0  0  0  0  0  0
  144.2090  161.4070  134.0950 O   0  0  0  0  0  0  0  0  0  0  0  0
  145.0600  159.2650  133.5430 C   0  0  0  0  0  0  0  0  0  0  0  0
  146.3900  159.6250  133.3260 C   0  0  0  0  0  0  0  0  0  0  0  0
  147.0680  158.4370  133.1710 C   0  0  0  0  0  0  0  0  0  0  0  0
  148.4180  158.1970  132.9350 C   0  0  0  0  0  0  0  0  0  0  0  0
  148.8440  156.8620  132.8410 C   0  0  0  0  0  0  0  0  0  0  0  0
  147.9240  155.7930  133.0060 C   0  0  0  0  0  0  0  0  0  0  0  0
  148.3870  154.3650  132.8660 C   0  0  0  0  0  0  0  0  0  0  0  0
  149.5510  154.3000  132.1190 F   0  0  0  0  0  0  0  0  0  0  0  0
  148.6380  153.8070  134.1070 F   0  0  0  0  0  0  0  0  0  0  0  0
  147.4040  153.6290  132.2310 F   0  0  0  0  0  0  0  0  0  0  0  0
  146.5560  156.0790  133.2190 C   0  0  0  0  0  0  0  0  0  0  0  0
  146.1610  157.4180  133.2950 C   0  0  0  0  0  0  0  0  0  0  0  0
  144.9270  157.9100  133.5290 N   0  0  0  0  0  0  0  0  0  0  0  0
  143.7520  157.1310  133.7990 C   0  0  0  0  0  0  0  0  0  0  0  0
  142.7970  157.1350  132.9760 O   0  0  0  0  0  0  0  0  0  0  0  0
  143.6850  156.2340  135.0010 C   0  0  0  0  0  0  0  0  0  0  0  0
  144.2800  154.9180  134.6800 N   0  0  0  0  0  0  0  0  0  0  0  0
  143.3950  154.1460  133.7830 C   0  0  0  0  0  0  0  0  0  0  0  0
  142.2290  153.6030  134.5490 C   0  0  0  0  0  0  0  0  0  0  0  0
  141.3530  154.3810  135.0100 O   0  0  0  0  0  0  0  0  0  0  0  0
  142.1100  152.2340  134.7530 O   0  0  0  0  0  0  0  0  0  0  0  0
  144.5600  154.1560  135.9170 C   0  0  0  0  0  0  0  0  0  0  0  0
  146.0320  154.1300  136.1860 C   0  0  0  0  0  0  0  0  0  0  0  0
  146.7480  155.1200  135.8800 O   0  0  0  0  0  0  0  0  0  0  0  0
  146.6170  153.0100  136.7620 O   0  0  0  0  0  0  0  0  0  0  0  0
  142.4300  159.2290  132.5520 H   0  0  0  0  0  0  0  0  0  0  0  0
  146.8081  160.6417  133.2870 H   0  0  0  0  0  0  0  0  0  0  0  0
  149.1304  159.0280  132.8253 H   0  0  0  0  0  0  0  0  0  0  0  0
  149.9023  156.6420  132.6373 H   0  0  0  0  0  0  0  0  0  0  0  0
  145.8203  155.2678  133.3224 H   0  0  0  0  0  0  0  0  0  0  0  0
  144.2419  156.6936  135.8308 H   0  0  0  0  0  0  0  0  0  0  0  0
  142.6332  156.0951  135.2915 H   0  0  0  0  0  0  0  0  0  0  0  0
  143.0284  154.8031  132.9806 H   0  0  0  0  0  0  0  0  0  0  0  0
  143.9630  153.3082  133.3523 H   0  0  0  0  0  0  0  0  0  0  0  0
  144.0444  154.6342  136.7629 H   0  0  0  0  0  0  0  0  0  0  0  0
  144.1996  153.1242  135.7923 H   0  0  0  0  0  0  0  0  0  0  0  0
  1  2  1  0
  2  3  2  0
  2  4  1  0
  4  5  2  0
  5  6  1  0
  6  7  2  0
  7  8  1  0
  8  9  2  0
  9 10  1  0
 10 11  1  0
 10 12  1  0
 10 13  1  0
  9 14  1  0
 14 15  2  0
 15 16  1  0
 16 17  1  0
 17 18  2  0
 17 19  1  0
 19 20  1  0
 20 21  1  0
 21 22  1  0
 22 23  2  0
 22 24  1  0
 20 25  1  0
 25 26  1  0
 26 27  2  0
 26 28  1  0
 16  4  1  0
 15  6  1  0
  1 29  1  0
  5 30  1  0
  7 31  1  0
  8 32  1  0
 14 33  1  0
 19 34  1  0
 19 35  1  0
 21 36  1  0
 21 37  1  0
 25 38  1  0
 25 39  1  0
M  CHG  3   1  -1  24  -1  28  -1
M  END
>  <UniqueID>  (24) 
24

>  <SMILES>  (24) 
[NH-]C(=O)c1cc2ccc(C(F)(F)F)cc2n1C(=O)CN(CC(=O)[O-])CC(=O)[O-]

>  <Energy>  (24) 
78.85564181028633

>  <Genealogy>  (24) 
[NH-]C(=O)c1cc2ccc(C(F)(F)F)cc2n1C(=O)CN(CC(=O)[O-])CC(=O)[O-] (protonated)
[NH-]C(=O)c1cc2ccc(C(F)(F)F)cc2n1C(=O)CN(CC(=O)[O-])CC(=O)[O-] (3D coordinates assigned)
[NH-]C(=O)c1cc2ccc(C(F)(F)F)cc2n1C(=O)CN(CC(=O)[O-])CC(=O)[O-] (optimized conformer: 78.85564181028633 kcal/mol)

>  <smiles>  (24) 
NC(=O)c1cc2ccc(C(F)(F)F)cc2n1C(=O)CN(CC(=O)O)CC(=O)O

>  <score_type>  (24) 
oracle

>  <origin>  (24) 
adg

>  <m_score__min__energy>  (24) 
-6.21

>  <m_primary>  (24) 
energy

$$$$
25:0
     RDKit          3D

 59 61  0  0  0  0  0  0  0  0999 V2000
  144.7500  154.1510  135.9950 C   0  0  0  0  0  0  0  0  0  0  0  0
  144.2440  154.7030  134.7340 N   0  0  0  0  0  0  0  0  0  0  0  0
  142.8870  155.1890  134.6470 C   0  0  0  0  0  0  0  0  0  0  0  0
  142.5560  156.0210  133.7600 O   0  0  0  0  0  0  0  0  0  0  0  0
  141.8920  154.7000  135.5550 N   0  0  0  0  0  0  0  0  0  0  0  0
  141.9060  155.0590  136.9770 C   0  0  0  0  0  0  0  0  0  0  0  0
  141.7460  156.5620  137.1440 C   0  0  0  0  0  0  0  0  0  0  0  0
  140.3690  156.8980  137.1170 O   0  0  0  0  0  0  0  0  0  0  0  0
  140.2100  158.3060  137.2450 C   0  0  0  0  0  0  0  0  0  0  0  0
  140.5620  159.0290  135.9580 C   0  0  0  0  0  0  0  0  0  0  0  0
  141.1780  160.1320  136.0310 O   0  0  0  0  0  0  0  0  0  0  0  0
  140.1810  158.5050  134.6680 N   0  0  0  0  0  0  0  0  0  0  0  0
  139.1770  157.4180  134.5900 C   0  0  0  0  0  0  0  0  0  0  0  0
  139.1170  156.6970  133.2190 C   0  0  0  0  0  0  0  0  0  0  0  0
  140.0790  157.1980  132.2280 N   0  0  0  0  0  0  0  0  0  0  0  0
  140.0450  158.6590  132.2060 C   0  0  0  0  0  0  0  0  0  0  0  0
  140.6530  159.2260  133.4810 C   0  0  0  0  0  0  0  0  0  0  0  0
  145.1010  154.7380  133.5720 C   0  0  0  0  0  0  0  0  0  0  0  0
  144.8640  154.0160  132.5640 O   0  0  0  0  0  0  0  0  0  0  0  0
  146.2420  155.6090  133.5400 N   0  0  0  0  0  0  0  0  0  0  0  0
  147.5160  155.2640  133.1910 C   0  0  0  0  0  0  0  0  0  0  0  0
  147.9600  153.8790  132.8560 C   0  0  0  0  0  0  0  0  0  0  0  0
  147.2300  152.7420  133.3200 N   0  0  0  0  0  0  0  0  0  0  0  0
  149.0340  153.6820  132.2210 O   0  0  0  0  0  0  0  0  0  0  0  0
  148.2910  156.4080  132.9950 C   0  0  0  0  0  0  0  0  0  0  0  0
  147.4350  157.4670  133.1990 C   0  0  0  0  0  0  0  0  0  0  0  0
  147.6630  158.8350  133.0710 C   0  0  0  0  0  0  0  0  0  0  0  0
  146.5620  159.7000  133.2540 C   0  0  0  0  0  0  0  0  0  0  0  0
  145.2940  159.1890  133.6690 C   0  0  0  0  0  0  0  0  0  0  0  0
  144.1630  160.1380  134.0020 C   0  0  0  0  0  0  0  0  0  0  0  0
  143.5620  159.7410  135.1870 F   0  0  0  0  0  0  0  0  0  0  0  0
  144.6270  161.4350  134.1500 F   0  0  0  0  0  0  0  0  0  0  0  0
  143.2200  160.1290  132.9820 F   0  0  0  0  0  0  0  0  0  0  0  0
  145.1170  157.7920  133.7840 C   0  0  0  0  0  0  0  0  0  0  0  0
  146.2070  156.9570  133.5320 C   0  0  0  0  0  0  0  0  0  0  0  0
  144.2740  154.6703  136.8398 H   0  0  0  0  0  0  0  0  0  0  0  0
  144.5157  153.0774  136.0455 H   0  0  0  0  0  0  0  0  0  0  0  0
  145.8399  154.2912  136.0455 H   0  0  0  0  0  0  0  0  0  0  0  0
  141.0777  154.5469  137.4886 H   0  0  0  0  0  0  0  0  0  0  0  0
  142.8673  154.7510  137.4141 H   0  0  0  0  0  0  0  0  0  0  0  0
  142.1800  156.8720  138.1061 H   0  0  0  0  0  0  0  0  0  0  0  0
  142.2650  157.0787  136.3233 H   0  0  0  0  0  0  0  0  0  0  0  0
  139.1631  158.5248  137.5021 H   0  0  0  0  0  0  0  0  0  0  0  0
  140.8910  158.6581  138.0338 H   0  0  0  0  0  0  0  0  0  0  0  0
  139.4182  156.6713  135.3608 H   0  0  0  0  0  0  0  0  0  0  0  0
  138.1939  157.8881  134.7401 H   0  0  0  0  0  0  0  0  0  0  0  0
  139.3173  155.6280  133.3833 H   0  0  0  0  0  0  0  0  0  0  0  0
  138.1146  156.8868  132.8077 H   0  0  0  0  0  0  0  0  0  0  0  0
  141.0410  156.8660  132.4740 H   0  0  0  0  0  0  0  0  0  0  0  0
  140.6178  159.0213  131.3396 H   0  0  0  0  0  0  0  0  0  0  0  0
  138.9982  158.9893  132.1337 H   0  0  0  0  0  0  0  0  0  0  0  0
  141.7482  159.1412  133.4232 H   0  0  0  0  0  0  0  0  0  0  0  0
  140.3461  160.2784  133.5715 H   0  0  0  0  0  0  0  0  0  0  0  0
  147.7830  151.8770  133.5500 H   0  0  0  0  0  0  0  0  0  0  0  0
  146.2540  152.8050  133.6950 H   0  0  0  0  0  0  0  0  0  0  0  0
  149.3584  156.4539  132.7333 H   0  0  0  0  0  0  0  0  0  0  0  0
  148.6636  159.2270  132.8361 H   0  0  0  0  0  0  0  0  0  0  0  0
  146.6819  160.7787  133.0751 H   0  0  0  0  0  0  0  0  0  0  0  0
  144.1407  157.3711  134.0662 H   0  0  0  0  0  0  0  0  0  0  0  0
  1  2  1  0
  2  3  1  0
  3  4  2  0
  3  5  1  0
  5  6  1  0
  6  7  1  0
  7  8  1  0
  8  9  1  0
  9 10  1  0
 10 11  2  0
 10 12  1  0
 12 13  1  0
 13 14  1  0
 14 15  1  0
 15 16  1  0
 16 17  1  0
  2 18  1  0
 18 19  2  0
 18 20  1  0
 20 21  1  0
 21 22  1  0
 22 23  1  0
 22 24  2  0
 21 25  2  0
 25 26  1  0
 26 27  2  0
 27 28  1  0
 28 29  2  0
 29 30  1  0
 30 31  1  0
 30 32  1  0
 30 33  1  0
 29 34  1  0
 34 35  2  0
 17 12  1  0
 35 20  1  0
 35 26  1  0
  1 36  1  0
  1 37  1  0
  1 38  1  0
  6 39  1  0
  6 40  1  0
  7 41  1  0
  7 42  1  0
  9 43  1  0
  9 44  1  0
 13 45  1  0
 13 46  1  0
 14 47  1  0
 14 48  1  0
 15 49  1  0
 16 50  1  0
 16 51  1  0
 17 52  1  0
 17 53  1  0
 23 54  1  0
 23 55  1  0
 25 56  1  0
 27 57  1  0
 28 58  1  0
 34 59  1  0
M  CHG  1   5  -1
M  END
>  <UniqueID>  (25) 
25

>  <SMILES>  (25) 
CN(C(=O)[N-]CCOCC(=O)N1CCNCC1)C(=O)n1c(C(N)=O)cc2ccc(C(F)(F)F)cc21

>  <Energy>  (25) 
113.98295072944919

>  <Genealogy>  (25) 
CN(C(=O)[N-]CCOCC(=O)N1CCNCC1)C(=O)n1c(C(N)=O)cc2ccc(C(F)(F)F)cc21 (protonated)
CN(C(=O)[N-]CCOCC(=O)N1CCNCC1)C(=O)n1c(C(N)=O)cc2ccc(C(F)(F)F)cc21 (3D coordinates assigned)
CN(C(=O)[N-]CCOCC(=O)N1CCNCC1)C(=O)n1c(C(N)=O)cc2ccc(C(F)(F)F)cc21 (nonaromatic ring conformer: 113.98295072944919 kcal/mol)

>  <smiles>  (25) 
CN(C(=O)NCCOCC(=O)N1CCNCC1)C(=O)n1c(C(N)=O)cc2ccc(C(F)(F)F)cc21

>  <score_type>  (25) 
oracle

>  <origin>  (25) 
adg

>  <m_score__min__energy>  (25) 
-8.7100000000000009

>  <m_primary>  (25) 
energy

$$$$
26:0
     RDKit          3D

 43 44  0  0  0  0  0  0  0  0999 V2000
  144.5240  156.8540  134.8490 N   0  0  0  0  0  0  0  0  0  0  0  0
  143.1700  156.5860  135.2070 C   0  0  0  0  0  0  0  0  0  0  0  0
  142.9310  155.8420  136.1950 O   0  0  0  0  0  0  0  0  0  0  0  0
  142.0690  157.1480  134.3970 C   0  0  0  0  0  0  0  0  0  0  0  0
  140.8070  156.5630  134.3040 C   0  0  0  0  0  0  0  0  0  0  0  0
  140.0640  157.4190  133.5230 C   0  0  0  0  0  0  0  0  0  0  0  0
  138.7470  157.3150  133.0870 C   0  0  0  0  0  0  0  0  0  0  0  0
  138.2490  158.3270  132.2490 C   0  0  0  0  0  0  0  0  0  0  0  0
  139.0760  159.4090  131.8480 C   0  0  0  0  0  0  0  0  0  0  0  0
  138.5150  160.4850  130.9530 C   0  0  0  0  0  0  0  0  0  0  0  0
  137.1440  160.6070  131.1170 F   0  0  0  0  0  0  0  0  0  0  0  0
  139.0990  161.7050  131.2540 F   0  0  0  0  0  0  0  0  0  0  0  0
  138.7840  160.1670  129.6330 F   0  0  0  0  0  0  0  0  0  0  0  0
  140.4020  159.4900  132.3330 C   0  0  0  0  0  0  0  0  0  0  0  0
  140.8680  158.4720  133.1750 C   0  0  0  0  0  0  0  0  0  0  0  0
  142.1050  158.3190  133.7000 N   0  0  0  0  0  0  0  0  0  0  0  0
  143.2430  159.1600  133.4490 C   0  0  0  0  0  0  0  0  0  0  0  0
  143.2390  160.3570  133.8460 O   0  0  0  0  0  0  0  0  0  0  0  0
  144.3700  158.6350  132.8060 O   0  0  0  0  0  0  0  0  0  0  0  0
  145.6250  159.3110  132.7810 C   0  0  0  0  0  0  0  0  0  0  0  0
  146.5840  158.5730  133.5330 O   0  0  0  0  0  0  0  0  0  0  0  0
  147.6420  157.8790  132.9360 C   0  0  0  0  0  0  0  0  0  0  0  0
  148.7100  158.4740  132.6260 O   0  0  0  0  0  0  0  0  0  0  0  0
  147.4930  156.4200  132.6400 C   0  0  0  0  0  0  0  0  0  0  0  0
  146.1670  155.9430  133.0550 N   0  0  0  0  0  0  0  0  0  0  0  0
  145.7120  154.8300  132.2110 C   0  0  0  0  0  0  0  0  0  0  0  0
  144.1940  154.8680  132.0640 C   0  0  0  0  0  0  0  0  0  0  0  0
  143.7380  156.1780  132.2520 O   0  0  0  0  0  0  0  0  0  0  0  0
  144.7590  157.2940  133.9330 H   0  0  0  0  0  0  0  0  0  0  0  0
  140.4753  155.6178  134.7584 H   0  0  0  0  0  0  0  0  0  0  0  0
  138.1151  156.4668  133.3890 H   0  0  0  0  0  0  0  0  0  0  0  0
  137.2069  158.2804  131.8998 H   0  0  0  0  0  0  0  0  0  0  0  0
  141.0523  160.3327  132.0555 H   0  0  0  0  0  0  0  0  0  0  0  0
  145.9694  159.4039  131.7405 H   0  0  0  0  0  0  0  0  0  0  0  0
  145.5082  160.3117  133.2226 H   0  0  0  0  0  0  0  0  0  0  0  0
  147.6147  156.2558  131.5592 H   0  0  0  0  0  0  0  0  0  0  0  0
  148.2613  155.8639  133.1973 H   0  0  0  0  0  0  0  0  0  0  0  0
  145.4940  156.7360  132.9250 H   0  0  0  0  0  0  0  0  0  0  0  0
  146.1757  154.9143  131.2171 H   0  0  0  0  0  0  0  0  0  0  0  0
  146.0038  153.8795  132.6816 H   0  0  0  0  0  0  0  0  0  0  0  0
  143.9147  154.5238  131.0573 H   0  0  0  0  0  0  0  0  0  0  0  0
  143.7368  154.2097  132.8174 H   0  0  0  0  0  0  0  0  0  0  0  0
  144.1630  156.5000  133.0900 H   0  0  0  0  0  0  0  0  0  0  0  0
  1  2  1  0
  2  3  2  0
  2  4  1  0
  4  5  2  0
  5  6  1  0
  6  7  2  0
  7  8  1  0
  8  9  2  0
  9 10  1  0
 10 11  1  0
 10 12  1  0
 10 13  1  0
  9 14  1  0
 14 15  2  0
 15 16  1  0
 16 17  1  0
 17 18  2  0
 17 19  1  0
 19 20  1  0
 20 21  1  0
 21 22  1  0
 22 23  2  0
 22 24  1  0
 24 25  1  0
 25 26  1  0
 26 27  1  0
 27 28  1  0
 16  4  1  0
 15  6  1  0
  1 29  1  0
  5 30  1  0
  7 31  1  0
  8 32  1  0
 14 33  1  0
 20 34  1  0
 20 35  1  0
 24 36  1  0
 24 37  1  0
 25 38  1  0
 26 39  1  0
 26 40  1  0
 27 41  1  0
 27 42  1  0
 28 43  1  0
M  CHG  1   1  -1
M  END
>  <UniqueID>  (26) 
26

>  <SMILES>  (26) 
[NH-]C(=O)c1cc2ccc(C(F)(F)F)cc2n1C(=O)OCOC(=O)CNCCO

>  <Energy>  (26) 
70.07575249177506

>  <Genealogy>  (26) 
[NH-]C(=O)c1cc2ccc(C(F)(F)F)cc2n1C(=O)OCOC(=O)CNCCO (protonated)
[NH-]C(=O)c1cc2ccc(C(F)(F)F)cc2n1C(=O)OCOC(=O)CNCCO (3D coordinates assigned)
[NH-]C(=O)c1cc2ccc(C(F)(F)F)cc2n1C(=O)OCOC(=O)CNCCO (optimized conformer: 70.07575249177506 kcal/mol)

>  <smiles>  (26) 
NC(=O)c1cc2ccc(C(F)(F)F)cc2n1C(=O)OCOC(=O)CNCCO

>  <score_type>  (26) 
oracle

>  <origin>  (26) 
adg

>  <m_score__min__energy>  (26) 
-5.0700000000000003

>  <m_primary>  (26) 
energy

$$$$
27:0
     RDKit          3D

 42 43  0  0  0  0  0  0  0  0999 V2000
  139.4820  160.1170  131.9370 C   0  0  0  0  0  0  0  0  0  0  0  0
  139.9500  159.6630  133.2390 N   0  0  0  0  0  0  0  0  0  0  0  0
  139.5890  158.4150  133.8420 C   0  0  0  0  0  0  0  0  0  0  0  0
  138.6270  157.7640  133.3540 O   0  0  0  0  0  0  0  0  0  0  0  0
  140.3710  157.8280  134.9890 C   0  0  0  0  0  0  0  0  0  0  0  0
  141.7480  158.3650  135.0160 N   0  0  0  0  0  0  0  0  0  0  0  0
  142.0600  158.8670  136.3660 C   0  0  0  0  0  0  0  0  0  0  0  0
  142.7230  157.3280  134.6140 C   0  0  0  0  0  0  0  0  0  0  0  0
  143.4290  157.7390  133.3530 C   0  0  0  0  0  0  0  0  0  0  0  0
  142.9020  157.4800  132.2380 O   0  0  0  0  0  0  0  0  0  0  0  0
  144.6590  158.4800  133.4050 N   0  0  0  0  0  0  0  0  0  0  0  0
  144.8210  159.8310  133.4850 C   0  0  0  0  0  0  0  0  0  0  0  0
  143.7320  160.8110  133.6920 C   0  0  0  0  0  0  0  0  0  0  0  0
  142.3710  160.4590  133.4340 N   0  0  0  0  0  0  0  0  0  0  0  0
  143.9990  161.9800  134.0770 O   0  0  0  0  0  0  0  0  0  0  0  0
  146.1750  160.1600  133.4450 C   0  0  0  0  0  0  0  0  0  0  0  0
  146.8410  158.9590  133.3430 C   0  0  0  0  0  0  0  0  0  0  0  0
  148.2050  158.6910  133.2700 C   0  0  0  0  0  0  0  0  0  0  0  0
  148.6080  157.3490  133.1580 C   0  0  0  0  0  0  0  0  0  0  0  0
  147.6460  156.3100  133.1070 C   0  0  0  0  0  0  0  0  0  0  0  0
  148.0900  154.8790  133.0150 C   0  0  0  0  0  0  0  0  0  0  0  0
  149.4080  154.8310  132.6040 F   0  0  0  0  0  0  0  0  0  0  0  0
  146.2720  156.6170  133.2020 C   0  0  0  0  0  0  0  0  0  0  0  0
  145.9010  157.9610  133.3240 C   0  0  0  0  0  0  0  0  0  0  0  0
  138.6986  160.8770  132.0735 H   0  0  0  0  0  0  0  0  0  0  0  0
  140.3223  160.5531  131.3769 H   0  0  0  0  0  0  0  0  0  0  0  0
  139.0716  159.2638  131.3769 H   0  0  0  0  0  0  0  0  0  0  0  0
  139.8676  158.0790  135.9343 H   0  0  0  0  0  0  0  0  0  0  0  0
  140.4210  156.7368  134.8593 H   0  0  0  0  0  0  0  0  0  0  0  0
  141.6361  158.1850  137.1178 H   0  0  0  0  0  0  0  0  0  0  0  0
  143.1512  158.9212  136.4939 H   0  0  0  0  0  0  0  0  0  0  0  0
  141.6255  159.8694  136.4939 H   0  0  0  0  0  0  0  0  0  0  0  0
  143.4626  157.1941  135.4171 H   0  0  0  0  0  0  0  0  0  0  0  0
  142.1882  156.3838  134.4339 H   0  0  0  0  0  0  0  0  0  0  0  0
  142.1010  159.4840  133.1760 H   0  0  0  0  0  0  0  0  0  0  0  0
  141.6160  161.1700  133.5480 H   0  0  0  0  0  0  0  0  0  0  0  0
  146.6178  161.1661  133.4862 H   0  0  0  0  0  0  0  0  0  0  0  0
  148.9449  159.5045  133.2991 H   0  0  0  0  0  0  0  0  0  0  0  0
  149.6791  157.1034  133.1096 H   0  0  0  0  0  0  0  0  0  0  0  0
  147.9960  154.4018  134.0017 H   0  0  0  0  0  0  0  0  0  0  0  0
  147.4597  154.3457  132.2881 H   0  0  0  0  0  0  0  0  0  0  0  0
  145.5128  155.8213  133.1807 H   0  0  0  0  0  0  0  0  0  0  0  0
  1  2  1  0
  2  3  1  0
  3  4  2  0
  3  5  1  0
  5  6  1  0
  6  7  1  0
  6  8  1  0
  8  9  1  0
  9 10  2  0
  9 11  1  0
 11 12  1  0
 12 13  1  0
 13 14  1  0
 13 15  2  0
 12 16  2  0
 16 17  1  0
 17 18  2  0
 18 19  1  0
 19 20  2  0
 20 21  1  0
 21 22  1  0
 20 23  1  0
 23 24  2  0
 24 11  1  0
 24 17  1  0
  1 25  1  0
  1 26  1  0
  1 27  1  0
  5 28  1  0
  5 29  1  0
  7 30  1  0
  7 31  1  0
  7 32  1  0
  8 33  1  0
  8 34  1  0
 14 35  1  0
 14 36  1  0
 16 37  1  0
 18 38  1  0
 19 39  1  0
 21 40  1  0
 21 41  1  0
 23 42  1  0
M  CHG  1   2  -1
M  END
>  <UniqueID>  (27) 
27

>  <SMILES>  (27) 
C[N-]C(=O)CN(C)CC(=O)n1c(C(N)=O)cc2ccc(CF)cc21

>  <Energy>  (27) 
78.1675562824736

>  <Genealogy>  (27) 
C[N-]C(=O)CN(C)CC(=O)n1c(C(N)=O)cc2ccc(CF)cc21 (protonated)
C[N-]C(=O)CN(C)CC(=O)n1c(C(N)=O)cc2ccc(CF)cc21 (3D coordinates assigned)
C[N-]C(=O)CN(C)CC(=O)n1c(C(N)=O)cc2ccc(CF)cc21 (optimized conformer: 78.1675562824736 kcal/mol)

>  <smiles>  (27) 
CNC(=O)CN(C)CC(=O)n1c(C(N)=O)cc2ccc(CF)cc21

>  <score_type>  (27) 
oracle

>  <origin>  (27) 
adg

>  <m_score__min__energy>  (27) 
-6.0499999999999998

>  <m_primary>  (27) 
energy

$$$$
28:0
     RDKit          3D

 37 38  0  0  0  0  0  0  0  0999 V2000
  148.6500  157.4020  131.4920 H   0  0  0  0  0  0  0  0  0  0  0  0
  148.9900  158.3270  131.8380 N   0  0  0  0  0  0  0  0  0  0  0  0
  148.4610  158.9040  133.0300 C   0  0  0  0  0  0  0  0  0  0  0  0
  149.2510  159.2560  133.9460 O   0  0  0  0  0  0  0  0  0  0  0  0
  147.0040  159.0580  133.2200 C   0  0  0  0  0  0  0  0  0  0  0  0
  146.3710  160.2940  133.3500 C   0  0  0  0  0  0  0  0  0  0  0  0
  146.8345  161.2897  133.2896 H   0  0  0  0  0  0  0  0  0  0  0  0
  145.0430  160.0040  133.5700 C   0  0  0  0  0  0  0  0  0  0  0  0
  143.9610  160.8540  133.7660 C   0  0  0  0  0  0  0  0  0  0  0  0
  144.0934  161.9459  133.7775 H   0  0  0  0  0  0  0  0  0  0  0  0
  142.6930  160.2770  133.9490 C   0  0  0  0  0  0  0  0  0  0  0  0
  141.8213  160.9239  134.1267 H   0  0  0  0  0  0  0  0  0  0  0  0
  142.5250  158.8680  133.9070 C   0  0  0  0  0  0  0  0  0  0  0  0
  141.1620  158.2540  134.1420 C   0  0  0  0  0  0  0  0  0  0  0  0
  141.2860  156.9080  134.4500 F   0  0  0  0  0  0  0  0  0  0  0  0
  140.5340  158.8770  135.2070 F   0  0  0  0  0  0  0  0  0  0  0  0
  140.2940  158.4020  132.8950 C   0  0  0  0  0  0  0  0  0  0  0  0
  139.2504  158.5799  133.1937 H   0  0  0  0  0  0  0  0  0  0  0  0
  140.6540  159.2517  132.2964 H   0  0  0  0  0  0  0  0  0  0  0  0
  140.3521  157.4810  132.2964 H   0  0  0  0  0  0  0  0  0  0  0  0
  143.6550  158.0370  133.7230 C   0  0  0  0  0  0  0  0  0  0  0  0
  143.5517  156.9420  133.7046 H   0  0  0  0  0  0  0  0  0  0  0  0
  144.9070  158.6410  133.5650 C   0  0  0  0  0  0  0  0  0  0  0  0
  146.1020  158.0460  133.3550 N   0  0  0  0  0  0  0  0  0  0  0  0
  146.3390  156.6360  133.2240 C   0  0  0  0  0  0  0  0  0  0  0  0
  147.0010  156.2060  132.2400 O   0  0  0  0  0  0  0  0  0  0  0  0
  145.8130  155.7020  134.2380 C   0  0  0  0  0  0  0  0  0  0  0  0
  144.7238  155.6175  134.3665 H   0  0  0  0  0  0  0  0  0  0  0  0
  146.6130  154.9540  135.0070 C   0  0  0  0  0  0  0  0  0  0  0  0
  147.7023  155.0403  134.8804 H   0  0  0  0  0  0  0  0  0  0  0  0
  146.0880  154.0200  136.0160 C   0  0  0  0  0  0  0  0  0  0  0  0
  144.8450  153.9030  136.2020 O   0  0  0  0  0  0  0  0  0  0  0  0
  146.9900  153.2600  136.7660 O   0  0  0  0  0  0  0  0  0  0  0  0
  148.2710  153.7480  137.1470 C   0  0  0  0  0  0  0  0  0  0  0  0
  148.3416  153.7749  138.2444 H   0  0  0  0  0  0  0  0  0  0  0  0
  149.0506  153.0839  136.7456 H   0  0  0  0  0  0  0  0  0  0  0  0
  148.4111  154.7625  136.7456 H   0  0  0  0  0  0  0  0  0  0  0  0
  1  2  1  0
  2  3  1  0
  3  4  2  0
  3  5  1  0
  5  6  2  0
  6  7  1  0
  6  8  1  0
  8  9  2  0
  9 10  1  0
  9 11  1  0
 11 12  1  0
 11 13  2  0
 13 14  1  0
 14 15  1  0
 14 16  1  0
 14 17  1  0
 17 18  1  0
 17 19  1  0
 17 20  1  0
 13 21  1  0
 21 22  1  0
 21 23  2  0
 23 24  1  0
 24 25  1  0
 25 26  2  0
 25 27  1  0
 27 28  1  0
 27 29  2  0
 29 30  1  0
 29 31  1  0
 31 32  2  0
 31 33  1  0
 33 34  1  0
 34 35  1  0
 34 36  1  0
 34 37  1  0
 24  5  1  0
 23  8  1  0
M  CHG  1   2  -1
M  END
>  <UniqueID>  (28) 
28

>  <SMILES>  (28) 
COC(=O)/C=C/C(=O)n1c(C([NH-])=O)cc2ccc(C(C)(F)F)cc21

>  <Energy>  (28) 
71.11627262121047

>  <Genealogy>  (28) 
COC(=O)/C=C/C(=O)n1c(C([NH-])=O)cc2ccc(C(C)(F)F)cc21 (protonated)
COC(=O)/C=C/C(=O)n1c(C([NH-])=O)cc2ccc(C(C)(F)F)cc21 (cis-trans isomerization)
COC(=O)/C=C/C(=O)n1c(C([NH-])=O)cc2ccc(C(C)(F)F)cc21 (3D coordinates assigned)
COC(=O)/C=C/C(=O)n1c(C([NH-])=O)cc2ccc(C(C)(F)F)cc21 (optimized conformer: 71.11627262121047 kcal/mol)

>  <smiles>  (28) 
COC(=O)/C=C/C(=O)n1c(C(N)=O)cc2ccc(C(C)(F)F)cc21

>  <score_type>  (28) 
oracle

>  <origin>  (28) 
adg

>  <m_score__min__energy>  (28) 
-7.0099999999999998

>  <m_primary>  (28) 
energy

$$$$
29:0
     RDKit          3D

 47 48  0  0  0  0  0  0  0  0999 V2000
  139.1040  157.8520  134.4860 C   0  0  0  0  0  0  0  0  0  0  0  0
  139.9090  158.6070  133.4030 C   0  0  0  0  0  0  0  0  0  0  0  0
  140.8490  157.5940  132.7120 C   0  0  0  0  0  0  0  0  0  0  0  0
  138.9200  159.1700  132.3580 C   0  0  0  0  0  0  0  0  0  0  0  0
  140.7410  159.7470  134.0810 C   0  0  2  0  0  0  0  0  0  0  0  0
  141.9080  160.0830  133.2620 N   0  0  0  0  0  0  0  0  0  0  0  0
  143.0230  160.8480  133.7290 C   0  0  0  0  0  0  0  0  0  0  0  0
  143.0620  162.0960  133.5540 O   0  0  0  0  0  0  0  0  0  0  0  0
  144.1670  160.1540  134.3970 C   0  0  0  0  0  0  0  0  0  0  0  0
  145.0910  159.5530  133.3790 C   0  0  0  0  0  0  0  0  0  0  0  0
  145.2150  160.1030  132.2520 O   0  0  0  0  0  0  0  0  0  0  0  0
  145.8390  158.3640  133.6810 N   0  0  0  0  0  0  0  0  0  0  0  0
  147.1930  158.2000  133.6830 C   0  0  0  0  0  0  0  0  0  0  0  0
  148.2040  159.2450  133.4050 C   0  0  0  0  0  0  0  0  0  0  0  0
  148.0500  160.1570  132.3230 N   0  0  0  0  0  0  0  0  0  0  0  0
  149.2170  159.3410  134.1480 O   0  0  0  0  0  0  0  0  0  0  0  0
  147.5220  156.8870  134.0190 C   0  0  0  0  0  0  0  0  0  0  0  0
  146.3200  156.2460  134.2140 C   0  0  0  0  0  0  0  0  0  0  0  0
  146.0560  154.9230  134.5540 C   0  0  0  0  0  0  0  0  0  0  0  0
  144.7130  154.5260  134.6590 C   0  0  0  0  0  0  0  0  0  0  0  0
  143.6620  155.4430  134.3950 C   0  0  0  0  0  0  0  0  0  0  0  0
  142.2240  155.0160  134.5440 C   0  0  0  0  0  0  0  0  0  0  0  0
  141.5050  155.9570  135.2610 F   0  0  0  0  0  0  0  0  0  0  0  0
  141.6590  154.8760  133.2900 F   0  0  0  0  0  0  0  0  0  0  0  0
  142.1410  153.8060  135.2120 F   0  0  0  0  0  0  0  0  0  0  0  0
  143.9740  156.7850  134.0730 C   0  0  0  0  0  0  0  0  0  0  0  0
  145.3210  157.1570  133.9990 C   0  0  0  0  0  0  0  0  0  0  0  0
  141.1690  159.4090  135.4880 C   0  0  0  0  0  0  0  0  0  0  0  0
  142.0140  158.5000  135.7030 O   0  0  0  0  0  0  0  0  0  0  0  0
  140.6140  160.0940  136.5610 O   0  0  0  0  0  0  0  0  0  0  0  0
  139.4429  158.1699  135.4830 H   0  0  0  0  0  0  0  0  0  0  0  0
  138.0338  158.0796  134.3727 H   0  0  0  0  0  0  0  0  0  0  0  0
  139.2626  156.7694  134.3727 H   0  0  0  0  0  0  0  0  0  0  0  0
  141.3876  157.0136  133.4756 H   0  0  0  0  0  0  0  0  0  0  0  0
  140.2560  156.9127  132.0842 H   0  0  0  0  0  0  0  0  0  0  0  0
  141.5727  158.1345  132.0842 H   0  0  0  0  0  0  0  0  0  0  0  0
  138.0757  159.6506  132.8739 H   0  0  0  0  0  0  0  0  0  0  0  0
  139.4344  159.9106  131.7281 H   0  0  0  0  0  0  0  0  0  0  0  0
  138.5458  158.3496  131.7281 H   0  0  0  0  0  0  0  0  0  0  0  0
  140.0771  160.6210  134.1533 H   0  0  0  0  0  0  0  0  0  0  0  0
  144.7245  160.8811  135.0058 H   0  0  0  0  0  0  0  0  0  0  0  0
  143.7695  159.3488  135.0324 H   0  0  0  0  0  0  0  0  0  0  0  0
  147.2470  160.8240  132.2960 H   0  0  0  0  0  0  0  0  0  0  0  0
  148.5296  156.4550  134.1091 H   0  0  0  0  0  0  0  0  0  0  0  0
  146.8739  154.2100  134.7350 H   0  0  0  0  0  0  0  0  0  0  0  0
  144.4727  153.4925  134.9492 H   0  0  0  0  0  0  0  0  0  0  0  0
  143.1763  157.5188  133.8852 H   0  0  0  0  0  0  0  0  0  0  0  0
  1  2  1  0
  2  3  1  0
  2  4  1  0
  2  5  1  0
  5  6  1  0
  6  7  1  0
  7  8  2  0
  7  9  1  0
  9 10  1  0
 10 11  2  0
 10 12  1  0
 12 13  1  0
 13 14  1  0
 14 15  1  0
 14 16  2  0
 13 17  2  0
 17 18  1  0
 18 19  2  0
 19 20  1  0
 20 21  2  0
 21 22  1  0
 22 23  1  0
 22 24  1  0
 22 25  1  0
 21 26  1  0
 26 27  2  0
  5 28  1  0
 28 29  2  0
 28 30  1  0
 27 12  1  0
 27 18  1  0
  1 31  1  0
  1 32  1  0
  1 33  1  0
  3 34  1  0
  3 35  1  0
  3 36  1  0
  4 37  1  0
  4 38  1  0
  4 39  1  0
  5 40  1  1
  9 41  1  0
  9 42  1  0
 15 43  1  0
 17 44  1  0
 19 45  1  0
 20 46  1  0
 26 47  1  0
M  CHG  3   6  -1  15  -1  30  -1
M  END
>  <UniqueID>  (29) 
29

>  <SMILES>  (29) 
CC(C)(C)[C@H]([N-]C(=O)CC(=O)n1c(C([NH-])=O)cc2ccc(C(F)(F)F)cc21)C(=O)[O-]

>  <Energy>  (29) 
78.9808857370842

>  <Genealogy>  (29) 
CC(C)(C)C([N-]C(=O)CC(=O)n1c(C([NH-])=O)cc2ccc(C(F)(F)F)cc21)C(=O)[O-] (protonated)
CC(C)(C)[C@H]([N-]C(=O)CC(=O)n1c(C([NH-])=O)cc2ccc(C(F)(F)F)cc21)C(=O)[O-] (chirality)
CC(C)(C)[C@H]([N-]C(=O)CC(=O)n1c(C([NH-])=O)cc2ccc(C(F)(F)F)cc21)C(=O)[O-] (3D coordinates assigned)
CC(C)(C)[C@H]([N-]C(=O)CC(=O)n1c(C([NH-])=O)cc2ccc(C(F)(F)F)cc21)C(=O)[O-] (optimized conformer: 78.9808857370842 kcal/mol)

>  <smiles>  (29) 
CC(C)(C)C(NC(=O)CC(=O)n1c(C(N)=O)cc2ccc(C(F)(F)F)cc21)C(=O)O

>  <score_type>  (29) 
oracle

>  <origin>  (29) 
adg

>  <m_score__min__energy>  (29) 
-8.1300000000000008

>  <m_primary>  (29) 
energy

$$$$
30:0
     RDKit          3D

 43 45  0  0  0  0  0  0  0  0999 V2000
  148.1790  155.7410  132.9840 C   0  0  0  0  0  0  0  0  0  0  0  0
  148.7090  157.0370  132.5560 N   0  0  0  0  0  0  0  0  0  0  0  0
  147.7500  158.0770  132.8270 C   0  0  0  0  0  0  0  0  0  0  0  0
  148.1790  159.4210  132.9900 C   0  0  0  0  0  0  0  0  0  0  0  0
  147.2570  160.4370  133.2980 C   0  0  0  0  0  0  0  0  0  0  0  0
  145.9200  160.0810  133.4480 C   0  0  0  0  0  0  0  0  0  0  0  0
  144.8220  160.8520  133.7590 C   0  0  0  0  0  0  0  0  0  0  0  0
  143.7450  159.9670  133.7960 C   0  0  0  0  0  0  0  0  0  0  0  0
  142.3550  160.3680  134.1030 C   0  0  0  0  0  0  0  0  0  0  0  0
  141.6750  159.8480  135.2430 N   0  0  0  0  0  0  0  0  0  0  0  0
  141.7590  161.1820  133.3480 O   0  0  0  0  0  0  0  0  0  0  0  0
  144.1650  158.7020  133.5190 N   0  0  0  0  0  0  0  0  0  0  0  0
  143.3820  157.5040  133.4850 C   0  0  0  0  0  0  0  0  0  0  0  0
  143.3430  156.8130  132.4320 O   0  0  0  0  0  0  0  0  0  0  0  0
  142.6160  157.0720  134.6950 C   0  0  0  0  0  0  0  0  0  0  0  0
  141.4440  156.4020  134.2810 O   0  0  0  0  0  0  0  0  0  0  0  0
  140.3660  157.3100  134.1480 C   0  0  0  0  0  0  0  0  0  0  0  0
  139.5430  156.9990  132.8940 C   0  0  0  0  0  0  0  0  0  0  0  0
  139.2590  158.2440  132.1150 C   0  0  0  0  0  0  0  0  0  0  0  0
  139.5170  159.4880  132.5730 N   0  0  0  0  0  0  0  0  0  0  0  0
  139.0870  160.2800  131.5730 C   0  0  0  0  0  0  0  0  0  0  0  0
  138.5830  159.4970  130.5590 C   0  0  0  0  0  0  0  0  0  0  0  0
  138.7010  158.2460  130.9250 O   0  0  0  0  0  0  0  0  0  0  0  0
  145.4930  158.7860  133.3070 C   0  0  0  0  0  0  0  0  0  0  0  0
  146.3840  157.7560  132.9910 C   0  0  0  0  0  0  0  0  0  0  0  0
  148.1610  155.6970  134.0830 H   0  0  0  0  0  0  0  0  0  0  0  0
  147.1576  155.6161  132.5953 H   0  0  0  0  0  0  0  0  0  0  0  0
  148.8202  154.9362  132.5953 H   0  0  0  0  0  0  0  0  0  0  0  0
  148.9220  157.0010  131.5320 H   0  0  0  0  0  0  0  0  0  0  0  0
  149.6030  157.2290  133.0660 H   0  0  0  0  0  0  0  0  0  0  0  0
  149.2442  159.6699  132.8741 H   0  0  0  0  0  0  0  0  0  0  0  0
  147.5825  161.4810  133.4167 H   0  0  0  0  0  0  0  0  0  0  0  0
  144.7994  161.9368  133.9400 H   0  0  0  0  0  0  0  0  0  0  0  0
  141.4640  158.8290  135.3240 H   0  0  0  0  0  0  0  0  0  0  0  0
  143.2347  156.3933  135.3005 H   0  0  0  0  0  0  0  0  0  0  0  0
  142.3481  157.9513  135.2993 H   0  0  0  0  0  0  0  0  0  0  0  0
  139.7176  157.2319  135.0332 H   0  0  0  0  0  0  0  0  0  0  0  0
  140.7723  158.3283  134.0589 H   0  0  0  0  0  0  0  0  0  0  0  0
  140.1056  156.2984  132.2594 H   0  0  0  0  0  0  0  0  0  0  0  0
  138.5859  156.5549  133.2050 H   0  0  0  0  0  0  0  0  0  0  0  0
  139.1313  161.3791  131.5670 H   0  0  0  0  0  0  0  0  0  0  0  0
  138.1574  159.8581  129.6111 H   0  0  0  0  0  0  0  0  0  0  0  0
  146.0302  156.7212  132.8730 H   0  0  0  0  0  0  0  0  0  0  0  0
  1  2  1  0
  2  3  1  0
  3  4  2  0
  4  5  1  0
  5  6  2  0
  6  7  1  0
  7  8  2  0
  8  9  1  0
  9 10  1  0
  9 11  2  0
  8 12  1  0
 12 13  1  0
 13 14  2  0
 13 15  1  0
 15 16  1  0
 16 17  1  0
 17 18  1  0
 18 19  1  0
 19 20  2  0
 20 21  1  0
 21 22  2  0
 22 23  1  0
 12 24  1  0
 24 25  2  0
 25  3  1  0
 24  6  1  0
 23 19  1  0
  1 26  1  0
  1 27  1  0
  1 28  1  0
  2 29  1  0
  2 30  1  0
  4 31  1  0
  5 32  1  0
  7 33  1  0
 10 34  1  0
 15 35  1  0
 15 36  1  0
 17 37  1  0
 17 38  1  0
 18 39  1  0
 18 40  1  0
 21 41  1  0
 22 42  1  0
 25 43  1  0
M  CHG  2   2   1  10  -1
M  END
>  <UniqueID>  (30) 
30

>  <SMILES>  (30) 
C[NH2+]c1ccc2cc(C([NH-])=O)n(C(=O)COCCc3ncco3)c2c1

>  <Energy>  (30) 
110.2456766472671

>  <Genealogy>  (30) 
C[NH2+]c1ccc2cc(C([NH-])=O)n(C(=O)COCCc3ncco3)c2c1 (protonated)
C[NH2+]c1ccc2cc(C([NH-])=O)n(C(=O)COCCc3ncco3)c2c1 (3D coordinates assigned)
C[NH2+]c1ccc2cc(C([NH-])=O)n(C(=O)COCCc3ncco3)c2c1 (optimized conformer: 110.2456766472671 kcal/mol)

>  <smiles>  (30) 
CNc1ccc2cc(C(N)=O)n(C(=O)COCCc3ncco3)c2c1

>  <score_type>  (30) 
oracle

>  <origin>  (30) 
adg

>  <m_score__min__energy>  (30) 
-6.9500000000000002

>  <m_primary>  (30) 
energy

$$$$
31:0
     RDKit          3D

 30 31  0  0  0  0  0  0  0  0999 V2000
  149.8350  157.4960  132.0220 N   0  0  0  0  0  0  0  0  0  0  0  0
  149.2500  158.7560  132.3370 C   0  0  0  0  0  0  0  0  0  0  0  0
  149.9390  159.8040  132.2110 O   0  0  0  0  0  0  0  0  0  0  0  0
  147.8400  158.8560  132.7730 C   0  0  0  0  0  0  0  0  0  0  0  0
  147.1190  160.0490  132.7830 C   0  0  0  0  0  0  0  0  0  0  0  0
  145.8510  159.7060  133.1940 C   0  0  0  0  0  0  0  0  0  0  0  0
  144.7290  160.5030  133.3970 C   0  0  0  0  0  0  0  0  0  0  0  0
  143.5540  159.8840  133.8560 C   0  0  0  0  0  0  0  0  0  0  0  0
  143.5250  158.4890  134.1070 C   0  0  0  0  0  0  0  0  0  0  0  0
  142.2730  157.8310  134.6120 C   0  0  0  0  0  0  0  0  0  0  0  0
  141.4360  157.5460  133.5490 F   0  0  0  0  0  0  0  0  0  0  0  0
  141.6230  158.6780  135.4920 F   0  0  0  0  0  0  0  0  0  0  0  0
  144.6850  157.7130  133.8920 C   0  0  0  0  0  0  0  0  0  0  0  0
  145.8360  158.3540  133.4190 C   0  0  0  0  0  0  0  0  0  0  0  0
  147.0480  157.8170  133.1630 N   0  0  0  0  0  0  0  0  0  0  0  0
  147.4370  156.4480  133.3560 C   0  0  0  0  0  0  0  0  0  0  0  0
  147.5280  155.6830  132.3580 O   0  0  0  0  0  0  0  0  0  0  0  0
  147.6240  155.8990  134.7410 C   0  0  0  0  0  0  0  0  0  0  0  0
  146.4180  154.5840  135.1130 P   0  0  0  0  0  0  0  0  0  0  0  0
  146.1840  153.7430  133.8780 O   0  0  0  0  0  0  0  0  0  0  0  0
  144.9580  155.2890  135.5910 O   0  0  0  0  0  0  0  0  0  0  0  0
  146.9950  153.5970  136.3600 O   0  0  0  0  0  0  0  0  0  0  0  0
  149.2650  156.7270  131.6060 H   0  0  0  0  0  0  0  0  0  0  0  0
  147.4857  161.0518  132.5185 H   0  0  0  0  0  0  0  0  0  0  0  0
  144.7607  161.5855  133.2040 H   0  0  0  0  0  0  0  0  0  0  0  0
  142.6490  160.4869  134.0220 H   0  0  0  0  0  0  0  0  0  0  0  0
  142.5398  156.8982  135.1303 H   0  0  0  0  0  0  0  0  0  0  0  0
  144.6842  156.6312  134.0913 H   0  0  0  0  0  0  0  0  0  0  0  0
  148.6398  155.4858  134.8266 H   0  0  0  0  0  0  0  0  0  0  0  0
  147.4702  156.7185  135.4585 H   0  0  0  0  0  0  0  0  0  0  0  0
  1  2  1  0
  2  3  2  0
  2  4  1  0
  4  5  2  0
  5  6  1  0
  6  7  2  0
  7  8  1  0
  8  9  2  0
  9 10  1  0
 10 11  1  0
 10 12  1  0
  9 13  1  0
 13 14  2  0
 14 15  1  0
 15 16  1  0
 16 17  2  0
 16 18  1  0
 18 19  1  0
 19 20  2  0
 19 21  1  0
 19 22  1  0
 15  4  1  0
 14  6  1  0
  1 23  1  0
  5 24  1  0
  7 25  1  0
  8 26  1  0
 10 27  1  0
 13 28  1  0
 18 29  1  0
 18 30  1  0
M  CHG  3   1  -1  21  -1  22  -1
M  END
>  <UniqueID>  (31) 
31

>  <SMILES>  (31) 
[NH-]C(=O)c1cc2ccc(C(F)F)cc2n1C(=O)CP(=O)([O-])[O-]

>  <Energy>  (31) 
65.87220181499873

>  <Genealogy>  (31) 
[NH-]C(=O)c1cc2ccc(C(F)F)cc2n1C(=O)CP(=O)([O-])[O-] (protonated)
[NH-]C(=O)c1cc2ccc(C(F)F)cc2n1C(=O)CP(=O)([O-])[O-] (3D coordinates assigned)
[NH-]C(=O)c1cc2ccc(C(F)F)cc2n1C(=O)CP(=O)([O-])[O-] (optimized conformer: 65.87220181499873 kcal/mol)

>  <smiles>  (31) 
NC(=O)c1cc2ccc(C(F)F)cc2n1C(=O)CP(=O)(O)O

>  <score_type>  (31) 
oracle

>  <origin>  (31) 
adg

>  <m_score__min__energy>  (31) 
-5.4900000000000002

>  <m_primary>  (31) 
energy

$$$$
32:0
     RDKit          3D

 43 44  0  0  0  0  0  0  0  0999 V2000
  143.6840  155.5630  133.7180 C   0  0  0  0  0  0  0  0  0  0  0  0
  145.1410  155.5890  133.8680 N   0  0  0  0  0  0  0  0  0  0  0  0
  145.7530  155.0540  135.0900 C   0  0  0  0  0  0  0  0  0  0  0  0
  147.1700  154.6350  134.8390 C   0  0  0  0  0  0  0  0  0  0  0  0
  148.1040  155.2030  135.4670 O   0  0  0  0  0  0  0  0  0  0  0  0
  147.4450  153.5890  133.9530 O   0  0  0  0  0  0  0  0  0  0  0  0
  148.6860  152.8890  133.9460 C   0  0  0  0  0  0  0  0  0  0  0  0
  149.3160  152.9900  132.5600 C   0  0  0  0  0  0  0  0  0  0  0  0
  148.7560  154.0590  131.8480 O   0  0  0  0  0  0  0  0  0  0  0  0
  145.9470  156.2820  132.8940 C   0  0  0  0  0  0  0  0  0  0  0  0
  146.4410  155.6560  131.9170 O   0  0  0  0  0  0  0  0  0  0  0  0
  146.2220  157.6830  133.0360 N   0  0  0  0  0  0  0  0  0  0  0  0
  147.4250  158.3140  132.9290 C   0  0  0  0  0  0  0  0  0  0  0  0
  148.7220  157.6370  132.6750 C   0  0  0  0  0  0  0  0  0  0  0  0
  148.8800  156.2310  132.8930 N   0  0  0  0  0  0  0  0  0  0  0  0
  149.7090  158.3020  132.2580 O   0  0  0  0  0  0  0  0  0  0  0  0
  147.2690  159.6820  133.1640 C   0  0  0  0  0  0  0  0  0  0  0  0
  145.9280  159.8590  133.4250 C   0  0  0  0  0  0  0  0  0  0  0  0
  145.2220  161.0130  133.7530 C   0  0  0  0  0  0  0  0  0  0  0  0
  143.8420  160.8950  133.9900 C   0  0  0  0  0  0  0  0  0  0  0  0
  143.1890  159.6380  133.8760 C   0  0  0  0  0  0  0  0  0  0  0  0
  141.7170  159.5110  134.1800 C   0  0  0  0  0  0  0  0  0  0  0  0
  141.3000  158.2280  133.8760 F   0  0  0  0  0  0  0  0  0  0  0  0
  140.9890  160.4120  133.4230 F   0  0  0  0  0  0  0  0  0  0  0  0
  141.4650  159.7640  135.5170 F   0  0  0  0  0  0  0  0  0  0  0  0
  143.9490  158.4860  133.5690 C   0  0  0  0  0  0  0  0  0  0  0  0
  145.3220  158.6350  133.3460 C   0  0  0  0  0  0  0  0  0  0  0  0
  143.2132  155.5546  134.7121 H   0  0  0  0  0  0  0  0  0  0  0  0
  143.3564  156.4554  133.1646 H   0  0  0  0  0  0  0  0  0  0  0  0
  143.3884  154.6594  133.1646 H   0  0  0  0  0  0  0  0  0  0  0  0
  145.7396  155.8303  135.8692 H   0  0  0  0  0  0  0  0  0  0  0  0
  145.1784  154.1740  135.4147 H   0  0  0  0  0  0  0  0  0  0  0  0
  149.3628  153.3341  134.6902 H   0  0  0  0  0  0  0  0  0  0  0  0
  148.5133  151.8317  134.1953 H   0  0  0  0  0  0  0  0  0  0  0  0
  150.3991  153.1514  132.6646 H   0  0  0  0  0  0  0  0  0  0  0  0
  149.1254  152.0558  132.0114 H   0  0  0  0  0  0  0  0  0  0  0  0
  147.7720  153.9200  131.8500 H   0  0  0  0  0  0  0  0  0  0  0  0
  148.1180  155.6410  133.2990 H   0  0  0  0  0  0  0  0  0  0  0  0
  149.7930  155.7720  132.6810 H   0  0  0  0  0  0  0  0  0  0  0  0
  148.0516  160.4548  133.1447 H   0  0  0  0  0  0  0  0  0  0  0  0
  145.7286  161.9868  133.8244 H   0  0  0  0  0  0  0  0  0  0  0  0
  143.2601  161.7864  134.2671 H   0  0  0  0  0  0  0  0  0  0  0  0
  143.4723  157.4966  133.5070 H   0  0  0  0  0  0  0  0  0  0  0  0
  1  2  1  0
  2  3  1  0
  3  4  1  0
  4  5  2  0
  4  6  1  0
  6  7  1  0
  7  8  1  0
  8  9  1  0
  2 10  1  0
 10 11  2  0
 10 12  1  0
 12 13  1  0
 13 14  1  0
 14 15  1  0
 14 16  2  0
 13 17  2  0
 17 18  1  0
 18 19  2  0
 19 20  1  0
 20 21  2  0
 21 22  1  0
 22 23  1  0
 22 24  1  0
 22 25  1  0
 21 26  1  0
 26 27  2  0
 27 12  1  0
 27 18  1  0
  1 28  1  0
  1 29  1  0
  1 30  1  0
  3 31  1  0
  3 32  1  0
  7 33  1  0
  7 34  1  0
  8 35  1  0
  8 36  1  0
  9 37  1  0
 15 38  1  0
 15 39  1  0
 17 40  1  0
 19 41  1  0
 20 42  1  0
 26 43  1  0
M  END
>  <UniqueID>  (32) 
32

>  <SMILES>  (32) 
CN(CC(=O)OCCO)C(=O)n1c(C(N)=O)cc2ccc(C(F)(F)F)cc21

>  <Energy>  (32) 
74.11311546383084

>  <Genealogy>  (32) 
CN(CC(=O)OCCO)C(=O)n1c(C(N)=O)cc2ccc(C(F)(F)F)cc21 (3D coordinates assigned)
CN(CC(=O)OCCO)C(=O)n1c(C(N)=O)cc2ccc(C(F)(F)F)cc21 (optimized conformer: 74.11311546383084 kcal/mol)

>  <smiles>  (32) 
CN(CC(=O)OCCO)C(=O)n1c(C(N)=O)cc2ccc(C(F)(F)F)cc21

>  <score_type>  (32) 
oracle

>  <origin>  (32) 
adg

>  <m_score__min__energy>  (32) 
-5.4100000000000001

>  <m_primary>  (32) 
energy

$$$$
33:0
     RDKit          3D

 33 34  0  0  0  0  0  0  0  0999 V2000
  141.3500  160.2610  134.8410 N   0  0  0  0  0  0  0  0  0  0  0  0
  142.3560  159.6210  134.0600 C   0  0  0  0  0  0  0  0  0  0  0  0
  143.3230  160.2990  133.6230 O   0  0  0  0  0  0  0  0  0  0  0  0
  142.2970  158.1690  133.7900 C   0  0  0  0  0  0  0  0  0  0  0  0
  143.4230  157.3750  133.5780 C   0  0  0  0  0  0  0  0  0  0  0  0
  142.9420  156.0910  133.4380 C   0  0  0  0  0  0  0  0  0  0  0  0
  143.6170  154.9010  133.1850 C   0  0  0  0  0  0  0  0  0  0  0  0
  142.8550  153.7270  133.0520 C   0  0  0  0  0  0  0  0  0  0  0  0
  141.4430  153.7640  133.1810 C   0  0  0  0  0  0  0  0  0  0  0  0
  140.6340  152.5120  132.9910 C   0  0  0  0  0  0  0  0  0  0  0  0
  141.3550  151.1490  133.9550 P   0  0  0  0  0  0  0  0  0  0  0  0
  140.7300  149.8430  133.5200 O   0  0  0  0  0  0  0  0  0  0  0  0
  143.0240  151.0850  133.6930 O   0  0  0  0  0  0  0  0  0  0  0  0
  141.0530  151.3940  135.6000 O   0  0  0  0  0  0  0  0  0  0  0  0
  140.7940  154.9920  133.4320 C   0  0  0  0  0  0  0  0  0  0  0  0
  141.5790  156.1400  133.5650 C   0  0  0  0  0  0  0  0  0  0  0  0
  141.1690  157.4080  133.7740 N   0  0  0  0  0  0  0  0  0  0  0  0
  139.8050  157.8440  133.8490 C   0  0  0  0  0  0  0  0  0  0  0  0
  139.3280  158.2090  134.9570 O   0  0  0  0  0  0  0  0  0  0  0  0
  138.9110  157.7490  132.6510 C   0  0  0  0  0  0  0  0  0  0  0  0
  138.9260  159.3220  131.7420 P   0  0  0  0  0  0  0  0  0  0  0  0
  139.5280  160.4000  132.6150 O   0  0  0  0  0  0  0  0  0  0  0  0
  139.8550  159.1580  130.3380 O   0  0  0  0  0  0  0  0  0  0  0  0
  137.3450  159.7560  131.3250 O   0  0  0  0  0  0  0  0  0  0  0  0
  140.3360  160.1050  134.6430 H   0  0  0  0  0  0  0  0  0  0  0  0
  144.4719  157.7033  133.5322 H   0  0  0  0  0  0  0  0  0  0  0  0
  144.7128  154.8794  133.0919 H   0  0  0  0  0  0  0  0  0  0  0  0
  143.3585  152.7709  132.8460 H   0  0  0  0  0  0  0  0  0  0  0  0
  139.6025  152.6906  133.3289 H   0  0  0  0  0  0  0  0  0  0  0  0
  140.6372  152.2399  131.9252 H   0  0  0  0  0  0  0  0  0  0  0  0
  139.6988  155.0438  133.5206 H   0  0  0  0  0  0  0  0  0  0  0  0
  139.2682  156.9437  131.9923 H   0  0  0  0  0  0  0  0  0  0  0  0
  137.8846  157.5314  132.9814 H   0  0  0  0  0  0  0  0  0  0  0  0
  1  2  1  0
  2  3  2  0
  2  4  1  0
  4  5  2  0
  5  6  1  0
  6  7  2  0
  7  8  1  0
  8  9  2  0
  9 10  1  0
 10 11  1  0
 11 12  2  0
 11 13  1  0
 11 14  1  0
  9 15  1  0
 15 16  2  0
 16 17  1  0
 17 18  1  0
 18 19  2  0
 18 20  1  0
 20 21  1  0
 21 22  2  0
 21 23  1  0
 21 24  1  0
 17  4  1  0
 16  6  1  0
  1 25  1  0
  5 26  1  0
  7 27  1  0
  8 28  1  0
 10 29  1  0
 10 30  1  0
 15 31  1  0
 20 32  1  0
 20 33  1  0
M  CHG  5   1  -1  13  -1  14  -1  23  -1  24  -1
M  END
>  <UniqueID>  (33) 
33

>  <SMILES>  (33) 
[NH-]C(=O)c1cc2ccc(CP(=O)([O-])[O-])cc2n1C(=O)CP(=O)([O-])[O-]

>  <Energy>  (33) 
62.147554086899255

>  <Genealogy>  (33) 
[NH-]C(=O)c1cc2ccc(CP(=O)([O-])[O-])cc2n1C(=O)CP(=O)([O-])[O-] (protonated)
[NH-]C(=O)c1cc2ccc(CP(=O)([O-])[O-])cc2n1C(=O)CP(=O)([O-])[O-] (3D coordinates assigned)
[NH-]C(=O)c1cc2ccc(CP(=O)([O-])[O-])cc2n1C(=O)CP(=O)([O-])[O-] (optimized conformer: 62.147554086899255 kcal/mol)

>  <smiles>  (33) 
NC(=O)c1cc2ccc(CP(=O)(O)O)cc2n1C(=O)CP(=O)(O)O

>  <score_type>  (33) 
oracle

>  <origin>  (33) 
adg

>  <m_score__min__energy>  (33) 
-6.5800000000000001

>  <m_primary>  (33) 
energy

$$$$
34:0
     RDKit          3D

 47 48  0  0  0  0  0  0  0  0999 V2000
  144.2540  154.7240  133.4680 C   0  0  0  0  0  0  0  0  0  0  0  0
  145.4510  155.4800  133.8490 N   0  0  0  0  0  0  0  0  0  0  0  0
  145.9330  155.4600  135.2370 C   0  0  0  0  0  0  0  0  0  0  0  0
  147.0030  154.4260  135.3860 C   0  0  0  0  0  0  0  0  0  0  0  0
  146.9130  153.5590  136.2970 O   0  0  0  0  0  0  0  0  0  0  0  0
  148.1480  154.4640  134.5310 N   0  0  0  0  0  0  0  0  0  0  0  0
  148.4970  153.2250  133.3730 S   0  0  0  0  0  0  0  0  0  0  0  0
  146.9880  152.6120  132.6570 C   0  0  0  0  0  0  0  0  0  0  0  0
  149.2450  152.1070  134.0400 O   0  0  0  0  0  0  0  0  0  0  0  0
  149.3520  153.8060  132.2840 O   0  0  0  0  0  0  0  0  0  0  0  0
  146.1890  156.2000  132.8420 C   0  0  0  0  0  0  0  0  0  0  0  0
  146.6560  155.5890  131.8430 O   0  0  0  0  0  0  0  0  0  0  0  0
  146.4130  157.6130  132.9660 N   0  0  0  0  0  0  0  0  0  0  0  0
  147.5940  158.2790  132.8490 C   0  0  0  0  0  0  0  0  0  0  0  0
  148.8780  157.6670  132.4320 C   0  0  0  0  0  0  0  0  0  0  0  0
  149.1130  156.2670  132.5970 N   0  0  0  0  0  0  0  0  0  0  0  0
  149.7850  158.3860  131.9360 O   0  0  0  0  0  0  0  0  0  0  0  0
  147.4130  159.6340  133.1290 C   0  0  0  0  0  0  0  0  0  0  0  0
  146.0770  159.7690  133.4360 C   0  0  0  0  0  0  0  0  0  0  0  0
  145.3510  160.8930  133.8090 C   0  0  0  0  0  0  0  0  0  0  0  0
  143.9840  160.7320  134.0940 C   0  0  0  0  0  0  0  0  0  0  0  0
  143.3610  159.4540  134.0100 C   0  0  0  0  0  0  0  0  0  0  0  0
  141.9490  159.2980  134.3010 N   0  0  0  0  0  0  0  0  0  0  0  0
  140.9820  159.1010  133.2130 C   0  0  0  0  0  0  0  0  0  0  0  0
  141.4640  159.3370  135.6860 C   0  0  0  0  0  0  0  0  0  0  0  0
  144.1470  158.3360  133.6330 C   0  0  0  0  0  0  0  0  0  0  0  0
  145.4980  158.5340  133.3350 C   0  0  0  0  0  0  0  0  0  0  0  0
  143.7268  154.3910  134.3742 H   0  0  0  0  0  0  0  0  0  0  0  0
  143.5890  155.3663  132.8720 H   0  0  0  0  0  0  0  0  0  0  0  0
  144.5482  153.8475  132.8720 H   0  0  0  0  0  0  0  0  0  0  0  0
  146.3411  156.4480  135.4963 H   0  0  0  0  0  0  0  0  0  0  0  0
  145.0966  155.2170  135.9088 H   0  0  0  0  0  0  0  0  0  0  0  0
  146.2904  152.3286  133.4588 H   0  0  0  0  0  0  0  0  0  0  0  0
  146.5323  153.3963  132.0347 H   0  0  0  0  0  0  0  0  0  0  0  0
  147.2084  151.7321  132.0347 H   0  0  0  0  0  0  0  0  0  0  0  0
  150.0380  155.8590  132.3300 H   0  0  0  0  0  0  0  0  0  0  0  0
  148.3700  155.6240  132.9420 H   0  0  0  0  0  0  0  0  0  0  0  0
  148.1756  160.4264  133.1088 H   0  0  0  0  0  0  0  0  0  0  0  0
  145.8317  161.8799  133.8793 H   0  0  0  0  0  0  0  0  0  0  0  0
  143.3856  161.6074  134.3867 H   0  0  0  0  0  0  0  0  0  0  0  0
  139.9879  158.8985  133.6382 H   0  0  0  0  0  0  0  0  0  0  0  0
  140.9377  160.0086  132.5930 H   0  0  0  0  0  0  0  0  0  0  0  0
  141.2963  158.2484  132.5930 H   0  0  0  0  0  0  0  0  0  0  0  0
  142.3182  159.2683  136.3757 H   0  0  0  0  0  0  0  0  0  0  0  0
  140.9272  160.2812  135.8601 H   0  0  0  0  0  0  0  0  0  0  0  0
  140.7832  158.4907  135.8601 H   0  0  0  0  0  0  0  0  0  0  0  0
  143.7019  157.3317  133.5761 H   0  0  0  0  0  0  0  0  0  0  0  0
  1  2  1  0
  2  3  1  0
  3  4  1  0
  4  5  2  0
  4  6  1  0
  6  7  1  0
  7  8  1  0
  7  9  2  0
  7 10  2  0
  2 11  1  0
 11 12  2  0
 11 13  1  0
 13 14  1  0
 14 15  1  0
 15 16  1  0
 15 17  2  0
 14 18  2  0
 18 19  1  0
 19 20  2  0
 20 21  1  0
 21 22  2  0
 22 23  1  0
 23 24  1  0
 23 25  1  0
 22 26  1  0
 26 27  2  0
 27 13  1  0
 27 19  1  0
  1 28  1  0
  1 29  1  0
  1 30  1  0
  3 31  1  0
  3 32  1  0
  8 33  1  0
  8 34  1  0
  8 35  1  0
 16 36  1  0
 16 37  1  0
 18 38  1  0
 20 39  1  0
 21 40  1  0
 24 41  1  0
 24 42  1  0
 24 43  1  0
 25 44  1  0
 25 45  1  0
 25 46  1  0
 26 47  1  0
M  CHG  1   6  -1
M  END
>  <UniqueID>  (34) 
34

>  <SMILES>  (34) 
CN(CC(=O)[N-]S(C)(=O)=O)C(=O)n1c(C(N)=O)cc2ccc(N(C)C)cc21

>  <Energy>  (34) 
79.59374646206575

>  <Genealogy>  (34) 
CN(CC(=O)[N-]S(C)(=O)=O)C(=O)n1c(C(N)=O)cc2ccc(N(C)C)cc21 (protonated)
CN(CC(=O)[N-]S(C)(=O)=O)C(=O)n1c(C(N)=O)cc2ccc(N(C)C)cc21 (3D coordinates assigned)
CN(CC(=O)[N-]S(C)(=O)=O)C(=O)n1c(C(N)=O)cc2ccc(N(C)C)cc21 (optimized conformer: 79.59374646206575 kcal/mol)

>  <smiles>  (34) 
CN(CC(=O)NS(C)(=O)=O)C(=O)n1c(C(N)=O)cc2ccc(N(C)C)cc21

>  <score_type>  (34) 
oracle

>  <origin>  (34) 
adg

>  <m_score__min__energy>  (34) 
-7.4100000000000001

>  <m_primary>  (34) 
energy

$$$$
35:0
     RDKit          3D

 49 50  0  0  0  0  0  0  0  0999 V2000
  141.4600  149.1430  131.3260 C   0  0  0  0  0  0  0  0  0  0  0  0
  140.9510  150.1970  132.3290 C   0  0  0  0  0  0  0  0  0  0  0  0
  140.7760  149.5730  133.7270 C   0  0  0  0  0  0  0  0  0  0  0  0
  139.5920  150.7260  131.8460 C   0  0  0  0  0  0  0  0  0  0  0  0
  141.8500  151.3180  132.3800 O   0  0  0  0  0  0  0  0  0  0  0  0
  143.2340  151.2600  132.6080 C   0  0  0  0  0  0  0  0  0  0  0  0
  143.9120  150.2550  132.2590 O   0  0  0  0  0  0  0  0  0  0  0  0
  143.9290  152.4390  133.2310 C   0  0  0  0  0  0  0  0  0  0  0  0
  142.9710  153.4890  133.6450 N   0  0  1  0  0  0  0  0  0  0  0  0
  143.0170  153.6600  135.0850 C   0  0  0  0  0  0  0  0  0  0  0  0
  143.8570  154.4480  135.6040 O   0  0  0  0  0  0  0  0  0  0  0  0
  142.1410  152.8740  135.9790 C   0  0  0  0  0  0  0  0  0  0  0  0
  141.3650  152.0080  135.4960 O   0  0  0  0  0  0  0  0  0  0  0  0
  142.1500  153.0870  137.3530 O   0  0  0  0  0  0  0  0  0  0  0  0
  143.2520  154.7420  132.9670 C   0  0  0  0  0  0  0  0  0  0  0  0
  144.1540  154.8050  132.0850 O   0  0  0  0  0  0  0  0  0  0  0  0
  142.4660  155.9150  133.2470 N   0  0  0  0  0  0  0  0  0  0  0  0
  141.1070  156.0170  133.3060 C   0  0  0  0  0  0  0  0  0  0  0  0
  140.1360  154.9120  133.1340 C   0  0  0  0  0  0  0  0  0  0  0  0
  140.5630  153.5950  132.7970 N   0  0  0  0  0  0  0  0  0  0  0  0
  138.9080  155.1300  133.3090 O   0  0  0  0  0  0  0  0  0  0  0  0
  140.7280  157.3340  133.5640 C   0  0  0  0  0  0  0  0  0  0  0  0
  141.9040  158.0440  133.6450 C   0  0  0  0  0  0  0  0  0  0  0  0
  142.1140  159.4060  133.8310 C   0  0  0  0  0  0  0  0  0  0  0  0
  143.4370  159.8800  133.7950 C   0  0  0  0  0  0  0  0  0  0  0  0
  144.5200  158.9930  133.5710 C   0  0  0  0  0  0  0  0  0  0  0  0
  145.9230  159.5390  133.4710 C   0  0  0  0  0  0  0  0  0  0  0  0
  146.8350  158.6980  134.0840 F   0  0  0  0  0  0  0  0  0  0  0  0
  145.9930  160.7770  134.0830 F   0  0  0  0  0  0  0  0  0  0  0  0
  146.2640  159.6750  132.1380 F   0  0  0  0  0  0  0  0  0  0  0  0
  144.2610  157.6180  133.3610 C   0  0  0  0  0  0  0  0  0  0  0  0
  142.9380  157.1680  133.4390 C   0  0  0  0  0  0  0  0  0  0  0  0
  141.8745  148.2846  131.8749 H   0  0  0  0  0  0  0  0  0  0  0  0
  140.6256  148.8055  130.6937 H   0  0  0  0  0  0  0  0  0  0  0  0
  142.2431  149.5867  130.6937 H   0  0  0  0  0  0  0  0  0  0  0  0
  140.9884  150.3305  134.4958 H   0  0  0  0  0  0  0  0  0  0  0  0
  139.7425  149.2141  133.8416 H   0  0  0  0  0  0  0  0  0  0  0  0
  141.4721  148.7290  133.8416 H   0  0  0  0  0  0  0  0  0  0  0  0
  138.9638  150.9705  132.7152 H   0  0  0  0  0  0  0  0  0  0  0  0
  139.7453  151.6301  131.2385 H   0  0  0  0  0  0  0  0  0  0  0  0
  139.0938  149.9561  131.2385 H   0  0  0  0  0  0  0  0  0  0  0  0
  144.4859  152.0968  134.1158 H   0  0  0  0  0  0  0  0  0  0  0  0
  144.6057  152.8720  132.4796 H   0  0  0  0  0  0  0  0  0  0  0  0
  142.0080  153.1810  133.3760 H   0  0  0  0  0  0  0  0  0  0  0  0
  140.8070  152.8970  133.5350 H   0  0  0  0  0  0  0  0  0  0  0  0
  139.7055  157.7230  133.6785 H   0  0  0  0  0  0  0  0  0  0  0  0
  141.2707  160.0915  134.0011 H   0  0  0  0  0  0  0  0  0  0  0  0
  143.6343  160.9521  133.9424 H   0  0  0  0  0  0  0  0  0  0  0  0
  145.0810  156.9184  133.1414 H   0  0  0  0  0  0  0  0  0  0  0  0
  1  2  1  0
  2  3  1  0
  2  4  1  0
  2  5  1  0
  5  6  1  0
  6  7  2  0
  6  8  1  0
  8  9  1  0
  9 10  1  0
 10 11  2  0
 10 12  1  0
 12 13  2  0
 12 14  1  0
  9 15  1  0
 15 16  2  0
 15 17  1  0
 17 18  1  0
 18 19  1  0
 19 20  1  0
 19 21  2  0
 18 22  2  0
 22 23  1  0
 23 24  2  0
 24 25  1  0
 25 26  2  0
 26 27  1  0
 27 28  1  0
 27 29  1  0
 27 30  1  0
 26 31  1  0
 31 32  2  0
 32 17  1  0
 32 23  1  0
  1 33  1  0
  1 34  1  0
  1 35  1  0
  3 36  1  0
  3 37  1  0
  3 38  1  0
  4 39  1  0
  4 40  1  0
  4 41  1  0
  8 42  1  0
  8 43  1  0
  9 44  1  1
 20 45  1  0
 22 46  1  0
 24 47  1  0
 25 48  1  0
 31 49  1  0
M  CHG  3   9   1  14  -1  20  -1
M  END
>  <UniqueID>  (35) 
35

>  <SMILES>  (35) 
CC(C)(C)OC(=O)C[NH+](C(=O)C(=O)[O-])C(=O)n1c(C([NH-])=O)cc2ccc(C(F)(F)F)cc21

>  <Energy>  (35) 
85.87655229939806

>  <Genealogy>  (35) 
CC(C)(C)OC(=O)C[NH+](C(=O)C(=O)[O-])C(=O)n1c(C([NH-])=O)cc2ccc(C(F)(F)F)cc21 (protonated)
CC(C)(C)OC(=O)C[NH+](C(=O)C(=O)[O-])C(=O)n1c(C([NH-])=O)cc2ccc(C(F)(F)F)cc21 (3D coordinates assigned)
CC(C)(C)OC(=O)C[NH+](C(=O)C(=O)[O-])C(=O)n1c(C([NH-])=O)cc2ccc(C(F)(F)F)cc21 (optimized conformer: 85.87655229939806 kcal/mol)

>  <smiles>  (35) 
CC(C)(C)OC(=O)CN(C(=O)C(=O)O)C(=O)n1c(C(N)=O)cc2ccc(C(F)(F)F)cc21

>  <score_type>  (35) 
oracle

>  <origin>  (35) 
adg

>  <m_score__min__energy>  (35) 
-6.6200000000000001

>  <m_primary>  (35) 
energy

$$$$
36:0
     RDKit          3D

 42 44  0  0  0  0  0  0  0  0999 V2000
  141.4430  159.1720  135.3210 C   0  0  0  0  0  0  0  0  0  0  0  0
  141.1380  158.3770  134.1190 N   0  0  2  0  0  0  0  0  0  0  0  0
  140.7440  159.2190  133.0280 C   0  0  0  0  0  0  0  0  0  0  0  0
  141.4510  160.1230  132.6130 O   0  0  0  0  0  0  0  0  0  0  0  0
  139.4650  158.8590  132.3780 C   0  0  0  0  0  0  0  0  0  0  0  0
  139.1180  157.5410  133.0440 C   0  0  0  0  0  0  0  0  0  0  0  0
  139.9760  157.4800  134.3250 C   0  0  1  0  0  0  0  0  0  0  0  0
  140.4330  156.0440  134.6790 C   0  0  0  0  0  0  0  0  0  0  0  0
  140.6300  155.1780  133.4660 C   0  0  0  0  0  0  0  0  0  0  0  0
  139.7160  155.0930  132.6010 O   0  0  0  0  0  0  0  0  0  0  0  0
  141.8870  154.5210  133.2310 N   0  0  0  0  0  0  0  0  0  0  0  0
  143.1140  155.1020  133.1150 C   0  0  0  0  0  0  0  0  0  0  0  0
  143.4120  156.5380  133.3030 C   0  0  0  0  0  0  0  0  0  0  0  0
  143.2020  157.4530  132.2290 N   0  0  0  0  0  0  0  0  0  0  0  0
  143.8750  156.9640  134.3940 O   0  0  0  0  0  0  0  0  0  0  0  0
  144.0870  154.1380  132.8600 C   0  0  0  0  0  0  0  0  0  0  0  0
  143.4150  152.9400  132.8260 C   0  0  0  0  0  0  0  0  0  0  0  0
  143.8950  151.6510  132.6120 C   0  0  0  0  0  0  0  0  0  0  0  0
  142.9710  150.5950  132.6270 C   0  0  0  0  0  0  0  0  0  0  0  0
  141.5870  150.8430  132.8260 C   0  0  0  0  0  0  0  0  0  0  0  0
  140.5940  149.7090  132.8750 C   0  0  0  0  0  0  0  0  0  0  0  0
  141.1630  148.5830  132.3120 F   0  0  0  0  0  0  0  0  0  0  0  0
  139.4420  150.0260  132.1790 F   0  0  0  0  0  0  0  0  0  0  0  0
  140.2470  149.4320  134.1860 F   0  0  0  0  0  0  0  0  0  0  0  0
  141.1440  152.1650  133.0530 C   0  0  0  0  0  0  0  0  0  0  0  0
  142.0890  153.1960  133.0540 C   0  0  0  0  0  0  0  0  0  0  0  0
  141.2158  158.5798  136.2197 H   0  0  0  0  0  0  0  0  0  0  0  0
  142.5090  159.4432  135.3205 H   0  0  0  0  0  0  0  0  0  0  0  0
  140.8319  160.0866  135.3205 H   0  0  0  0  0  0  0  0  0  0  0  0
  141.9920  157.8430  133.8250 H   0  0  0  0  0  0  0  0  0  0  0  0
  138.6929  159.6180  132.5723 H   0  0  0  0  0  0  0  0  0  0  0  0
  139.5335  158.7920  131.2822 H   0  0  0  0  0  0  0  0  0  0  0  0
  138.0481  157.5097  133.2975 H   0  0  0  0  0  0  0  0  0  0  0  0
  139.3184  156.6866  132.3808 H   0  0  0  0  0  0  0  0  0  0  0  0
  139.3702  157.8078  135.1826 H   0  0  0  0  0  0  0  0  0  0  0  0
  141.3853  156.1035  135.2264 H   0  0  0  0  0  0  0  0  0  0  0  0
  139.6396  155.5852  135.2873 H   0  0  0  0  0  0  0  0  0  0  0  0
  142.6880  158.3500  132.3800 H   0  0  0  0  0  0  0  0  0  0  0  0
  145.1653  154.3014  132.7163 H   0  0  0  0  0  0  0  0  0  0  0  0
  144.9651  151.4660  132.4366 H   0  0  0  0  0  0  0  0  0  0  0  0
  143.3229  149.5628  132.4829 H   0  0  0  0  0  0  0  0  0  0  0  0
  140.0788  152.3789  133.2252 H   0  0  0  0  0  0  0  0  0  0  0  0
  1  2  1  0
  2  3  1  0
  3  4  2  0
  3  5  1  0
  5  6  1  0
  6  7  1  0
  7  8  1  0
  8  9  1  0
  9 10  2  0
  9 11  1  0
 11 12  1  0
 12 13  1  0
 13 14  1  0
 13 15  2  0
 12 16  2  0
 16 17  1  0
 17 18  2  0
 18 19  1  0
 19 20  2  0
 20 21  1  0
 21 22  1  0
 21 23  1  0
 21 24  1  0
 20 25  1  0
 25 26  2  0
  7  2  1  0
 26 11  1  0
 26 17  1  0
  1 27  1  0
  1 28  1  0
  1 29  1  0
  2 30  1  6
  5 31  1  0
  5 32  1  0
  6 33  1  0
  6 34  1  0
  7 35  1  1
  8 36  1  0
  8 37  1  0
 14 38  1  0
 16 39  1  0
 18 40  1  0
 19 41  1  0
 25 42  1  0
M  CHG  2   2   1  14  -1
M  END
>  <UniqueID>  (36) 
36

>  <SMILES>  (36) 
C[N@@H+]1C(=O)CC[C@H]1CC(=O)n1c(C([NH-])=O)cc2ccc(C(F)(F)F)cc21

>  <Energy>  (36) 
85.00962345868537

>  <Genealogy>  (36) 
C[NH+]1C(=O)CCC1CC(=O)n1c(C([NH-])=O)cc2ccc(C(F)(F)F)cc21 (protonated)
C[N@@H+]1C(=O)CC[C@H]1CC(=O)n1c(C([NH-])=O)cc2ccc(C(F)(F)F)cc21 (chirality)
C[N@@H+]1C(=O)CC[C@H]1CC(=O)n1c(C([NH-])=O)cc2ccc(C(F)(F)F)cc21 (3D coordinates assigned)
C[N@@H+]1C(=O)CC[C@H]1CC(=O)n1c(C([NH-])=O)cc2ccc(C(F)(F)F)cc21 (nonaromatic ring conformer: 85.00962345868537 kcal/mol)

>  <smiles>  (36) 
CN1C(=O)CCC1CC(=O)n1c(C(N)=O)cc2ccc(C(F)(F)F)cc21

>  <score_type>  (36) 
oracle

>  <origin>  (36) 
adg

>  <m_score__min__energy>  (36) 
-6.1200000000000001

>  <m_primary>  (36) 
energy

$$$$
37:0
     RDKit          3D

 46 47  0  0  0  0  0  0  0  0999 V2000
  149.5470  159.6370  130.8300 C   0  0  0  0  0  0  0  0  0  0  0  0
  148.7530  160.0320  132.0830 C   0  0  1  0  0  0  0  0  0  0  0  0
  148.1060  161.2580  131.8560 O   0  0  0  0  0  0  0  0  0  0  0  0
  147.7030  158.9850  132.5370 C   0  0  2  0  0  0  0  0  0  0  0  0
  146.3870  159.5850  132.7770 N   0  0  0  0  0  0  0  0  0  0  0  0
  145.3620  158.9020  133.5150 C   0  0  0  0  0  0  0  0  0  0  0  0
  145.6150  157.8080  134.0880 O   0  0  0  0  0  0  0  0  0  0  0  0
  144.0370  159.4520  133.5840 N   0  0  0  0  0  0  0  0  0  0  0  0
  143.6750  160.7590  133.7380 C   0  0  0  0  0  0  0  0  0  0  0  0
  144.5880  161.9220  133.7750 C   0  0  0  0  0  0  0  0  0  0  0  0
  145.9670  161.7710  134.1000 N   0  0  0  0  0  0  0  0  0  0  0  0
  144.1490  163.0670  133.4830 O   0  0  0  0  0  0  0  0  0  0  0  0
  142.2880  160.8720  133.8120 C   0  0  0  0  0  0  0  0  0  0  0  0
  141.8080  159.5880  133.7010 C   0  0  0  0  0  0  0  0  0  0  0  0
  140.5000  159.1150  133.7210 C   0  0  0  0  0  0  0  0  0  0  0  0
  140.2970  157.7290  133.6180 C   0  0  0  0  0  0  0  0  0  0  0  0
  141.4000  156.8390  133.5310 C   0  0  0  0  0  0  0  0  0  0  0  0
  141.1760  155.3550  133.3910 C   0  0  0  0  0  0  0  0  0  0  0  0
  140.9910  154.7740  134.6340 F   0  0  0  0  0  0  0  0  0  0  0  0
  140.0540  155.0970  132.6220 F   0  0  0  0  0  0  0  0  0  0  0  0
  142.2780  154.7830  132.7850 F   0  0  0  0  0  0  0  0  0  0  0  0
  142.7140  157.3620  133.4930 C   0  0  0  0  0  0  0  0  0  0  0  0
  142.8830  158.7490  133.5690 C   0  0  0  0  0  0  0  0  0  0  0  0
  148.1760  158.1330  133.7040 C   0  0  0  0  0  0  0  0  0  0  0  0
  148.6930  158.7320  134.6870 O   0  0  0  0  0  0  0  0  0  0  0  0
  147.9820  156.7020  133.7860 N   0  0  0  0  0  0  0  0  0  0  0  0
  147.8350  156.0980  135.1140 C   0  0  0  0  0  0  0  0  0  0  0  0
  148.0460  155.8380  132.6020 C   0  0  0  0  0  0  0  0  0  0  0  0
  150.4946  159.1656  131.1299 H   0  0  0  0  0  0  0  0  0  0  0  0
  148.9576  158.9270  130.2311 H   0  0  0  0  0  0  0  0  0  0  0  0
  149.7577  160.5353  130.2311 H   0  0  0  0  0  0  0  0  0  0  0  0
  149.4899  160.1029  132.8966 H   0  0  0  0  0  0  0  0  0  0  0  0
  147.4330  161.3700  132.5780 H   0  0  0  0  0  0  0  0  0  0  0  0
  147.5831  158.2913  131.6918 H   0  0  0  0  0  0  0  0  0  0  0  0
  146.1470  160.5060  132.3480 H   0  0  0  0  0  0  0  0  0  0  0  0
  146.7090  161.9300  133.3830 H   0  0  0  0  0  0  0  0  0  0  0  0
  141.7007  161.7941  133.9336 H   0  0  0  0  0  0  0  0  0  0  0  0
  139.6495  159.8063  133.8147 H   0  0  0  0  0  0  0  0  0  0  0  0
  139.2725  157.3287  133.6046 H   0  0  0  0  0  0  0  0  0  0  0  0
  143.5831  156.6934  133.4057 H   0  0  0  0  0  0  0  0  0  0  0  0
  148.0204  156.8596  135.8857 H   0  0  0  0  0  0  0  0  0  0  0  0
  146.8145  155.7030  135.2263 H   0  0  0  0  0  0  0  0  0  0  0  0
  148.5599  155.2783  135.2263 H   0  0  0  0  0  0  0  0  0  0  0  0
  148.1238  154.7874  132.9185 H   0  0  0  0  0  0  0  0  0  0  0  0
  147.1354  155.9730  131.9999 H   0  0  0  0  0  0  0  0  0  0  0  0
  148.9268  156.1058  131.9999 H   0  0  0  0  0  0  0  0  0  0  0  0
  1  2  1  0
  2  3  1  0
  2  4  1  0
  4  5  1  0
  5  6  1  0
  6  7  2  0
  6  8  1  0
  8  9  1  0
  9 10  1  0
 10 11  1  0
 10 12  2  0
  9 13  2  0
 13 14  1  0
 14 15  2  0
 15 16  1  0
 16 17  2  0
 17 18  1  0
 18 19  1  0
 18 20  1  0
 18 21  1  0
 17 22  1  0
 22 23  2  0
  4 24  1  0
 24 25  2  0
 24 26  1  0
 26 27  1  0
 26 28  1  0
 23  8  1  0
 23 14  1  0
  1 29  1  0
  1 30  1  0
  1 31  1  0
  2 32  1  1
  3 33  1  0
  4 34  1  6
  5 35  1  0
 11 36  1  0
 13 37  1  0
 15 38  1  0
 16 39  1  0
 22 40  1  0
 27 41  1  0
 27 42  1  0
 27 43  1  0
 28 44  1  0
 28 45  1  0
 28 46  1  0
M  CHG  1  11  -1
M  END
>  <UniqueID>  (37) 
37

>  <SMILES>  (37) 
C[C@@H](O)[C@H](NC(=O)n1c(C([NH-])=O)cc2ccc(C(F)(F)F)cc21)C(=O)N(C)C

>  <Energy>  (37) 
83.98141458076906

>  <Genealogy>  (37) 
C[C@@H](O)[C@H](NC(=O)n1c(C([NH-])=O)cc2ccc(C(F)(F)F)cc21)C(=O)N(C)C (protonated)
C[C@@H](O)[C@H](NC(=O)n1c(C([NH-])=O)cc2ccc(C(F)(F)F)cc21)C(=O)N(C)C (3D coordinates assigned)
C[C@@H](O)[C@H](NC(=O)n1c(C([NH-])=O)cc2ccc(C(F)(F)F)cc21)C(=O)N(C)C (optimized conformer: 83.98141458076906 kcal/mol)

>  <smiles>  (37) 
C[C@@H](O)[C@H](NC(=O)n1c(C(N)=O)cc2ccc(C(F)(F)F)cc21)C(=O)N(C)C

>  <score_type>  (37) 
oracle

>  <origin>  (37) 
adg

>  <m_score__min__energy>  (37) 
-7.5099999999999998

>  <m_primary>  (37) 
energy

$$$$
38:0
     RDKit          3D

 38 39  0  0  0  0  0  0  0  0999 V2000
  140.4770  160.3480  132.9040 C   0  0  0  0  0  0  0  0  0  0  0  0
  139.8940  159.1730  132.6400 C   0  0  0  0  0  0  0  0  0  0  0  0
  139.0330  159.0290  131.4410 C   0  0  0  0  0  0  0  0  0  0  0  0
  138.5970  157.8990  131.0980 O   0  0  0  0  0  0  0  0  0  0  0  0
  138.6820  160.1420  130.6830 O   0  0  0  0  0  0  0  0  0  0  0  0
  140.1280  158.0140  133.5420 C   0  0  0  0  0  0  0  0  0  0  0  0
  139.3110  157.7670  134.4690 O   0  0  0  0  0  0  0  0  0  0  0  0
  141.2630  157.1490  133.3620 N   0  0  0  0  0  0  0  0  0  0  0  0
  141.2580  155.7920  133.2540 C   0  0  0  0  0  0  0  0  0  0  0  0
  140.0560  154.9390  133.1510 C   0  0  0  0  0  0  0  0  0  0  0  0
  138.7550  155.5040  132.9900 N   0  0  0  0  0  0  0  0  0  0  0  0
  140.1860  153.6850  133.1620 O   0  0  0  0  0  0  0  0  0  0  0  0
  142.5600  155.2970  133.2390 C   0  0  0  0  0  0  0  0  0  0  0  0
  143.3700  156.4050  133.3400 C   0  0  0  0  0  0  0  0  0  0  0  0
  144.7560  156.4990  133.3940 C   0  0  0  0  0  0  0  0  0  0  0  0
  145.3250  157.7740  133.5460 C   0  0  0  0  0  0  0  0  0  0  0  0
  144.5100  158.9350  133.6540 C   0  0  0  0  0  0  0  0  0  0  0  0
  145.1120  160.2460  133.8180 N   0  0  0  0  0  0  0  0  0  0  0  0
  146.4770  160.4870  133.3340 C   0  0  0  0  0  0  0  0  0  0  0  0
  144.3810  161.3450  134.4710 C   0  0  0  0  0  0  0  0  0  0  0  0
  144.9790  162.6690  134.1040 C   0  0  0  0  0  0  0  0  0  0  0  0
  144.3470  163.4670  133.3630 O   0  0  0  0  0  0  0  0  0  0  0  0
  146.2290  163.0240  134.5920 O   0  0  0  0  0  0  0  0  0  0  0  0
  143.1000  158.7870  133.6000 C   0  0  0  0  0  0  0  0  0  0  0  0
  142.5650  157.5080  133.4200 C   0  0  0  0  0  0  0  0  0  0  0  0
  141.1161  160.4576  133.7926 H   0  0  0  0  0  0  0  0  0  0  0  0
  140.3172  161.2045  132.2325 H   0  0  0  0  0  0  0  0  0  0  0  0
  138.6250  156.5180  132.7820 H   0  0  0  0  0  0  0  0  0  0  0  0
  137.9140  154.8850  132.9770 H   0  0  0  0  0  0  0  0  0  0  0  0
  142.8736  154.2454  133.1627 H   0  0  0  0  0  0  0  0  0  0  0  0
  145.3880  155.6017  133.3199 H   0  0  0  0  0  0  0  0  0  0  0  0
  146.4196  157.8767  133.5822 H   0  0  0  0  0  0  0  0  0  0  0  0
  147.1546  160.6066  134.1922 H   0  0  0  0  0  0  0  0  0  0  0  0
  146.8057  159.6330  132.7236 H   0  0  0  0  0  0  0  0  0  0  0  0
  146.4934  161.4019  132.7236 H   0  0  0  0  0  0  0  0  0  0  0  0
  143.3296  161.3215  134.1483 H   0  0  0  0  0  0  0  0  0  0  0  0
  144.4480  161.2162  135.5614 H   0  0  0  0  0  0  0  0  0  0  0  0
  142.4404  159.6618  133.6979 H   0  0  0  0  0  0  0  0  0  0  0  0
  1  2  2  0
  2  3  1  0
  3  4  2  0
  3  5  1  0
  2  6  1  0
  6  7  2  0
  6  8  1  0
  8  9  1  0
  9 10  1  0
 10 11  1  0
 10 12  2  0
  9 13  2  0
 13 14  1  0
 14 15  2  0
 15 16  1  0
 16 17  2  0
 17 18  1  0
 18 19  1  0
 18 20  1  0
 20 21  1  0
 21 22  2  0
 21 23  1  0
 17 24  1  0
 24 25  2  0
 25  8  1  0
 25 14  1  0
  1 26  1  0
  1 27  1  0
 11 28  1  0
 11 29  1  0
 13 30  1  0
 15 31  1  0
 16 32  1  0
 19 33  1  0
 19 34  1  0
 19 35  1  0
 20 36  1  0
 20 37  1  0
 24 38  1  0
M  CHG  2   5  -1  23  -1
M  END
>  <UniqueID>  (38) 
38

>  <SMILES>  (38) 
C=C(C(=O)[O-])C(=O)n1c(C(N)=O)cc2ccc(N(C)CC(=O)[O-])cc21

>  <Energy>  (38) 
80.77322611689789

>  <Genealogy>  (38) 
C=C(C(=O)[O-])C(=O)n1c(C(N)=O)cc2ccc(N(C)CC(=O)[O-])cc21 (protonated)
C=C(C(=O)[O-])C(=O)n1c(C(N)=O)cc2ccc(N(C)CC(=O)[O-])cc21 (3D coordinates assigned)
C=C(C(=O)[O-])C(=O)n1c(C(N)=O)cc2ccc(N(C)CC(=O)[O-])cc21 (optimized conformer: 80.77322611689789 kcal/mol)

>  <smiles>  (38) 
C=C(C(=O)O)C(=O)n1c(C(N)=O)cc2ccc(N(C)CC(=O)O)cc21

>  <score_type>  (38) 
oracle

>  <origin>  (38) 
adg

>  <m_score__min__energy>  (38) 
-7.0099999999999998

>  <m_primary>  (38) 
energy

$$$$
39:0
     RDKit          3D

 41 43  0  0  0  0  0  0  0  0999 V2000
  142.9470  161.6910  133.3690 N   0  0  0  0  0  0  0  0  0  0  0  0
  144.3170  161.6850  133.7670 C   0  0  0  0  0  0  0  0  0  0  0  0
  144.8350  162.7430  134.2110 O   0  0  0  0  0  0  0  0  0  0  0  0
  145.1180  160.4520  133.6300 C   0  0  0  0  0  0  0  0  0  0  0  0
  146.5000  160.4370  133.4460 C   0  0  0  0  0  0  0  0  0  0  0  0
  146.8540  159.1060  133.4450 C   0  0  0  0  0  0  0  0  0  0  0  0
  148.1020  158.5080  133.3000 C   0  0  0  0  0  0  0  0  0  0  0  0
  148.1670  157.1050  133.3280 C   0  0  0  0  0  0  0  0  0  0  0  0
  146.9890  156.3300  133.4900 C   0  0  0  0  0  0  0  0  0  0  0  0
  147.0740  154.8270  133.5560 C   0  0  0  0  0  0  0  0  0  0  0  0
  146.1650  154.2620  134.6510 C   0  0  0  0  0  0  0  0  0  0  0  0
  146.9310  153.9490  135.8540 N   0  0  0  0  0  0  0  0  0  0  0  0
  148.0190  154.5950  136.3060 C   0  0  0  0  0  0  0  0  0  0  0  0
  148.3430  153.9950  137.5040 C   0  0  0  0  0  0  0  0  0  0  0  0
  149.4530  154.3460  138.3940 C   0  0  0  0  0  0  0  0  0  0  0  0
  149.5920  155.5290  138.8030 O   0  0  0  0  0  0  0  0  0  0  0  0
  150.3590  153.3720  138.7930 O   0  0  0  0  0  0  0  0  0  0  0  0
  147.4500  153.0160  137.7490 N   0  0  0  0  0  0  0  0  0  0  0  0
  146.5990  153.0140  136.7320 N   0  0  0  0  0  0  0  0  0  0  0  0
  145.7420  156.9730  133.6460 C   0  0  0  0  0  0  0  0  0  0  0  0
  145.7120  158.3710  133.6220 C   0  0  0  0  0  0  0  0  0  0  0  0
  144.6400  159.1810  133.7310 N   0  0  0  0  0  0  0  0  0  0  0  0
  143.2770  158.7570  133.8670 C   0  0  0  0  0  0  0  0  0  0  0  0
  142.4180  159.1360  133.0270 O   0  0  0  0  0  0  0  0  0  0  0  0
  142.8440  157.9650  135.0630 C   0  0  0  0  0  0  0  0  0  0  0  0
  141.4230  158.7750  135.8560 P   0  0  0  0  0  0  0  0  0  0  0  0
  141.1940  160.1240  135.2170 O   0  0  0  0  0  0  0  0  0  0  0  0
  141.7320  158.9810  137.5060 O   0  0  0  0  0  0  0  0  0  0  0  0
  140.0420  157.8200  135.6560 O   0  0  0  0  0  0  0  0  0  0  0  0
  142.2400  161.1090  133.8710 H   0  0  0  0  0  0  0  0  0  0  0  0
  147.1662  161.3042  133.3269 H   0  0  0  0  0  0  0  0  0  0  0  0
  149.0097  159.1151  133.1675 H   0  0  0  0  0  0  0  0  0  0  0  0
  149.1399  156.6024  133.2234 H   0  0  0  0  0  0  0  0  0  0  0  0
  146.7678  154.4086  132.5859 H   0  0  0  0  0  0  0  0  0  0  0  0
  148.1121  154.5496  133.7915 H   0  0  0  0  0  0  0  0  0  0  0  0
  145.3939  155.0064  134.8986 H   0  0  0  0  0  0  0  0  0  0  0  0
  145.7006  153.3367  134.2794 H   0  0  0  0  0  0  0  0  0  0  0  0
  148.5434  155.4309  135.8199 H   0  0  0  0  0  0  0  0  0  0  0  0
  144.8191  156.3903  133.7827 H   0  0  0  0  0  0  0  0  0  0  0  0
  142.5565  156.9518  134.7455 H   0  0  0  0  0  0  0  0  0  0  0  0
  143.6757  157.9064  135.7805 H   0  0  0  0  0  0  0  0  0  0  0  0
  1  2  1  0
  2  3  2  0
  2  4  1  0
  4  5  2  0
  5  6  1  0
  6  7  2  0
  7  8  1  0
  8  9  2  0
  9 10  1  0
 10 11  1  0
 11 12  1  0
 12 13  1  0
 13 14  2  0
 14 15  1  0
 15 16  2  0
 15 17  1  0
 14 18  1  0
 18 19  2  0
  9 20  1  0
 20 21  2  0
 21 22  1  0
 22 23  1  0
 23 24  2  0
 23 25  1  0
 25 26  1  0
 26 27  2  0
 26 28  1  0
 26 29  1  0
 22  4  1  0
 21  6  1  0
 19 12  1  0
  1 30  1  0
  5 31  1  0
  7 32  1  0
  8 33  1  0
 10 34  1  0
 10 35  1  0
 11 36  1  0
 11 37  1  0
 13 38  1  0
 20 39  1  0
 25 40  1  0
 25 41  1  0
M  CHG  4   1  -1  17  -1  28  -1  29  -1
M  END
>  <UniqueID>  (39) 
39

>  <SMILES>  (39) 
[NH-]C(=O)c1cc2ccc(CCn3cc(C(=O)[O-])nn3)cc2n1C(=O)CP(=O)([O-])[O-]

>  <Energy>  (39) 
106.8021938897216

>  <Genealogy>  (39) 
[NH-]C(=O)c1cc2ccc(CCn3cc(C(=O)[O-])nn3)cc2n1C(=O)CP(=O)([O-])[O-] (protonated)
[NH-]C(=O)c1cc2ccc(CCn3cc(C(=O)[O-])nn3)cc2n1C(=O)CP(=O)([O-])[O-] (3D coordinates assigned)
[NH-]C(=O)c1cc2ccc(CCn3cc(C(=O)[O-])nn3)cc2n1C(=O)CP(=O)([O-])[O-] (optimized conformer: 106.8021938897216 kcal/mol)

>  <smiles>  (39) 
NC(=O)c1cc2ccc(CCn3cc(C(=O)O)nn3)cc2n1C(=O)CP(=O)(O)O

>  <score_type>  (39) 
oracle

>  <origin>  (39) 
adg

>  <m_score__min__energy>  (39) 
-8.2799999999999994

>  <m_primary>  (39) 
energy

$$$$
40:0
     RDKit          3D

 48 49  0  0  0  0  0  0  0  0999 V2000
  141.9650  153.1400  139.6450 C   0  0  0  0  0  0  0  0  0  0  0  0
  141.7620  152.2560  138.4930 N   0  0  0  0  0  0  0  0  0  0  0  0
  141.3020  150.8760  138.7190 C   0  0  0  0  0  0  0  0  0  0  0  0
  139.9720  150.6230  138.0110 C   0  0  0  0  0  0  0  0  0  0  0  0
  140.2020  150.0150  136.7690 O   0  0  0  0  0  0  0  0  0  0  0  0
  141.9820  152.7810  137.1640 C   0  0  0  0  0  0  0  0  0  0  0  0
  141.5510  152.1380  136.1670 O   0  0  0  0  0  0  0  0  0  0  0  0
  142.6840  154.1020  136.9430 C   0  0  0  0  0  0  0  0  0  0  0  0
  143.7580  153.9920  135.9420 N   0  0  0  0  0  0  0  0  0  0  0  0
  145.1120  154.4460  136.2930 C   0  0  0  0  0  0  0  0  0  0  0  0
  145.8030  153.4300  137.1470 C   0  0  0  0  0  0  0  0  0  0  0  0
  145.2360  152.9830  138.1810 O   0  0  0  0  0  0  0  0  0  0  0  0
  147.0900  153.0040  136.8260 O   0  0  0  0  0  0  0  0  0  0  0  0
  143.4630  153.4560  134.6340 C   0  0  0  0  0  0  0  0  0  0  0  0
  144.3160  152.7440  134.0380 O   0  0  0  0  0  0  0  0  0  0  0  0
  142.1880  153.6830  134.0120 N   0  0  0  0  0  0  0  0  0  0  0  0
  141.3610  152.7620  133.4440 C   0  0  0  0  0  0  0  0  0  0  0  0
  141.6580  151.3230  133.2790 C   0  0  0  0  0  0  0  0  0  0  0  0
  141.0050  150.3640  134.1070 N   0  0  0  0  0  0  0  0  0  0  0  0
  142.4720  150.9300  132.4030 O   0  0  0  0  0  0  0  0  0  0  0  0
  140.1980  153.3730  132.9790 C   0  0  0  0  0  0  0  0  0  0  0  0
  140.3380  154.7090  133.2940 C   0  0  0  0  0  0  0  0  0  0  0  0
  139.4790  155.7820  133.0660 C   0  0  0  0  0  0  0  0  0  0  0  0
  139.8850  157.0550  133.5070 C   0  0  0  0  0  0  0  0  0  0  0  0
  141.1230  157.2260  134.1760 C   0  0  0  0  0  0  0  0  0  0  0  0
  141.5480  158.5830  134.6620 C   0  0  0  0  0  0  0  0  0  0  0  0
  140.8870  158.8820  135.8420 F   0  0  0  0  0  0  0  0  0  0  0  0
  141.2350  159.5370  133.7070 F   0  0  0  0  0  0  0  0  0  0  0  0
  141.9690  156.1150  134.3840 C   0  0  0  0  0  0  0  0  0  0  0  0
  141.5460  154.8660  133.9200 C   0  0  0  0  0  0  0  0  0  0  0  0
  141.8334  152.5669  140.5746 H   0  0  0  0  0  0  0  0  0  0  0  0
  142.9823  153.5571  139.6123 H   0  0  0  0  0  0  0  0  0  0  0  0
  141.2316  153.9592  139.6123 H   0  0  0  0  0  0  0  0  0  0  0  0
  142.0563  150.1764  138.3296 H   0  0  0  0  0  0  0  0  0  0  0  0
  141.1600  150.7249  139.7993 H   0  0  0  0  0  0  0  0  0  0  0  0
  139.3485  149.9621  138.6310 H   0  0  0  0  0  0  0  0  0  0  0  0
  139.4559  151.5818  137.8554 H   0  0  0  0  0  0  0  0  0  0  0  0
  140.5480  150.7280  136.1730 H   0  0  0  0  0  0  0  0  0  0  0  0
  141.9482  154.8420  136.5953 H   0  0  0  0  0  0  0  0  0  0  0  0
  143.1370  154.4112  137.8965 H   0  0  0  0  0  0  0  0  0  0  0  0
  145.6925  154.5985  135.3712 H   0  0  0  0  0  0  0  0  0  0  0  0
  145.0356  155.3887  136.8547 H   0  0  0  0  0  0  0  0  0  0  0  0
  141.2360  150.2830  135.1230 H   0  0  0  0  0  0  0  0  0  0  0  0
  139.3496  152.8927  132.4696 H   0  0  0  0  0  0  0  0  0  0  0  0
  138.5142  155.6385  132.5574 H   0  0  0  0  0  0  0  0  0  0  0  0
  139.2358  157.9254  133.3310 H   0  0  0  0  0  0  0  0  0  0  0  0
  142.6337  158.5815  134.8390 H   0  0  0  0  0  0  0  0  0  0  0  0
  142.9351  156.2292  134.8974 H   0  0  0  0  0  0  0  0  0  0  0  0
  1  2  1  0
  2  3  1  0
  3  4  1  0
  4  5  1  0
  2  6  1  0
  6  7  2  0
  6  8  1  0
  8  9  1  0
  9 10  1  0
 10 11  1  0
 11 12  2  0
 11 13  1  0
  9 14  1  0
 14 15  2  0
 14 16  1  0
 16 17  1  0
 17 18  1  0
 18 19  1  0
 18 20  2  0
 17 21  2  0
 21 22  1  0
 22 23  2  0
 23 24  1  0
 24 25  2  0
 25 26  1  0
 26 27  1  0
 26 28  1  0
 25 29  1  0
 29 30  2  0
 30 16  1  0
 30 22  1  0
  1 31  1  0
  1 32  1  0
  1 33  1  0
  3 34  1  0
  3 35  1  0
  4 36  1  0
  4 37  1  0
  5 38  1  0
  8 39  1  0
  8 40  1  0
 10 41  1  0
 10 42  1  0
 19 43  1  0
 21 44  1  0
 23 45  1  0
 24 46  1  0
 26 47  1  0
 29 48  1  0
M  CHG  2  13  -1  19  -1
M  END
>  <UniqueID>  (40) 
40

>  <SMILES>  (40) 
CN(CCO)C(=O)CN(CC(=O)[O-])C(=O)n1c(C([NH-])=O)cc2ccc(C(F)F)cc21

>  <Energy>  (40) 
81.02801270127843

>  <Genealogy>  (40) 
CN(CCO)C(=O)CN(CC(=O)[O-])C(=O)n1c(C([NH-])=O)cc2ccc(C(F)F)cc21 (protonated)
CN(CCO)C(=O)CN(CC(=O)[O-])C(=O)n1c(C([NH-])=O)cc2ccc(C(F)F)cc21 (3D coordinates assigned)
CN(CCO)C(=O)CN(CC(=O)[O-])C(=O)n1c(C([NH-])=O)cc2ccc(C(F)F)cc21 (optimized conformer: 81.02801270127843 kcal/mol)

>  <smiles>  (40) 
CN(CCO)C(=O)CN(CC(=O)O)C(=O)n1c(C(N)=O)cc2ccc(C(F)F)cc21

>  <score_type>  (40) 
oracle

>  <origin>  (40) 
adg

>  <m_score__min__energy>  (40) 
-5.79

>  <m_primary>  (40) 
energy

$$$$
41:0
     RDKit          3D

 52 53  0  0  0  0  0  0  0  0999 V2000
  139.4470  155.6860  132.9000 C   0  0  0  0  0  0  0  0  0  0  0  0
  140.1570  156.3900  133.9720 N   0  0  0  0  0  0  0  0  0  0  0  0
  141.0260  155.6330  134.8860 C   0  0  0  0  0  0  0  0  0  0  0  0
  142.0150  154.7400  134.1170 C   0  0  0  0  0  0  0  0  0  0  0  0
  143.4530  155.2850  134.0780 C   0  0  0  0  0  0  0  0  0  0  0  0
  143.5730  156.6860  134.7000 C   0  0  0  0  0  0  0  0  0  0  0  0
  143.7390  157.7430  133.6440 C   0  0  0  0  0  0  0  0  0  0  0  0
  142.7830  157.9990  132.8630 O   0  0  0  0  0  0  0  0  0  0  0  0
  144.9790  158.4630  133.5050 N   0  0  0  0  0  0  0  0  0  0  0  0
  145.1420  159.8150  133.4760 C   0  0  0  0  0  0  0  0  0  0  0  0
  144.0880  160.8170  133.7200 C   0  0  0  0  0  0  0  0  0  0  0  0
  142.7070  160.4830  133.5880 N   0  0  0  0  0  0  0  0  0  0  0  0
  144.4090  161.9740  134.1010 O   0  0  0  0  0  0  0  0  0  0  0  0
  146.4670  160.1470  133.2050 C   0  0  0  0  0  0  0  0  0  0  0  0
  147.1210  158.9450  133.0700 C   0  0  0  0  0  0  0  0  0  0  0  0
  148.4570  158.6840  132.7790 C   0  0  0  0  0  0  0  0  0  0  0  0
  148.8530  157.3420  132.6520 C   0  0  0  0  0  0  0  0  0  0  0  0
  147.9120  156.2940  132.8020 C   0  0  0  0  0  0  0  0  0  0  0  0
  148.3520  154.8680  132.6380 C   0  0  0  0  0  0  0  0  0  0  0  0
  148.1490  154.1780  133.8200 F   0  0  0  0  0  0  0  0  0  0  0  0
  149.6950  154.8300  132.3130 F   0  0  0  0  0  0  0  0  0  0  0  0
  146.5620  156.5980  133.0910 C   0  0  0  0  0  0  0  0  0  0  0  0
  146.2010  157.9420  133.2450 C   0  0  0  0  0  0  0  0  0  0  0  0
  140.0420  157.8220  134.0760 C   0  0  0  0  0  0  0  0  0  0  0  0
  140.9270  158.4820  134.6900 O   0  0  0  0  0  0  0  0  0  0  0  0
  138.9430  158.4800  133.5110 O   0  0  0  0  0  0  0  0  0  0  0  0
  138.7410  158.6220  132.1060 C   0  0  0  0  0  0  0  0  0  0  0  0
  139.4950  159.8390  131.5700 C   0  0  0  0  0  0  0  0  0  0  0  0
  140.6370  160.0810  132.3440 O   0  0  0  0  0  0  0  0  0  0  0  0
  138.7309  154.9759  133.3392 H   0  0  0  0  0  0  0  0  0  0  0  0
  138.9063  156.4147  132.2782 H   0  0  0  0  0  0  0  0  0  0  0  0
  140.1711  155.1391  132.2782 H   0  0  0  0  0  0  0  0  0  0  0  0
  141.5934  156.3412  135.5077 H   0  0  0  0  0  0  0  0  0  0  0  0
  140.3904  154.9860  135.5084 H   0  0  0  0  0  0  0  0  0  0  0  0
  142.0333  153.7509  134.5979 H   0  0  0  0  0  0  0  0  0  0  0  0
  141.6626  154.6995  133.0758 H   0  0  0  0  0  0  0  0  0  0  0  0
  144.1058  154.5959  134.6339 H   0  0  0  0  0  0  0  0  0  0  0  0
  143.7503  155.3635  133.0219 H   0  0  0  0  0  0  0  0  0  0  0  0
  142.6628  156.8993  135.2798 H   0  0  0  0  0  0  0  0  0  0  0  0
  144.4616  156.7019  135.3482 H   0  0  0  0  0  0  0  0  0  0  0  0
  142.4060  159.4910  133.4810 H   0  0  0  0  0  0  0  0  0  0  0  0
  141.9750  161.2180  133.7070 H   0  0  0  0  0  0  0  0  0  0  0  0
  146.8982  161.1552  133.1176 H   0  0  0  0  0  0  0  0  0  0  0  0
  149.1803  159.5031  132.6524 H   0  0  0  0  0  0  0  0  0  0  0  0
  149.9043  157.1028  132.4339 H   0  0  0  0  0  0  0  0  0  0  0  0
  147.7649  154.4003  131.8339 H   0  0  0  0  0  0  0  0  0  0  0  0
  145.8135  155.7983  133.1924 H   0  0  0  0  0  0  0  0  0  0  0  0
  139.1058  157.7182  131.5960 H   0  0  0  0  0  0  0  0  0  0  0  0
  137.6664  158.7610  131.9163 H   0  0  0  0  0  0  0  0  0  0  0  0
  139.7952  159.6506  130.5287 H   0  0  0  0  0  0  0  0  0  0  0  0
  138.8363  160.7187  131.6181 H   0  0  0  0  0  0  0  0  0  0  0  0
  140.9290  159.2020  132.7030 H   0  0  0  0  0  0  0  0  0  0  0  0
  1  2  1  0
  2  3  1  0
  3  4  1  0
  4  5  1  0
  5  6  1  0
  6  7  1  0
  7  8  2  0
  7  9  1  0
  9 10  1  0
 10 11  1  0
 11 12  1  0
 11 13  2  0
 10 14  2  0
 14 15  1  0
 15 16  2  0
 16 17  1  0
 17 18  2  0
 18 19  1  0
 19 20  1  0
 19 21  1  0
 18 22  1  0
 22 23  2  0
  2 24  1  0
 24 25  2  0
 24 26  1  0
 26 27  1  0
 27 28  1  0
 28 29  1  0
 23  9  1  0
 23 15  1  0
  1 30  1  0
  1 31  1  0
  1 32  1  0
  3 33  1  0
  3 34  1  0
  4 35  1  0
  4 36  1  0
  5 37  1  0
  5 38  1  0
  6 39  1  0
  6 40  1  0
 12 41  1  0
 12 42  1  0
 14 43  1  0
 16 44  1  0
 17 45  1  0
 19 46  1  0
 22 47  1  0
 27 48  1  0
 27 49  1  0
 28 50  1  0
 28 51  1  0
 29 52  1  0
M  END
>  <UniqueID>  (41) 
41

>  <SMILES>  (41) 
CN(CCCCC(=O)n1c(C(N)=O)cc2ccc(C(F)F)cc21)C(=O)OCCO

>  <Energy>  (41) 
76.0345414014515

>  <Genealogy>  (41) 
CN(CCCCC(=O)n1c(C(N)=O)cc2ccc(C(F)F)cc21)C(=O)OCCO (3D coordinates assigned)
CN(CCCCC(=O)n1c(C(N)=O)cc2ccc(C(F)F)cc21)C(=O)OCCO (optimized conformer: 76.0345414014515 kcal/mol)

>  <smiles>  (41) 
CN(CCCCC(=O)n1c(C(N)=O)cc2ccc(C(F)F)cc21)C(=O)OCCO

>  <score_type>  (41) 
oracle

>  <origin>  (41) 
adg

>  <m_score__min__energy>  (41) 
-6.2199999999999998

>  <m_primary>  (41) 
energy

$$$$
42:0
     RDKit          3D

 43 44  0  0  0  0  0  0  0  0999 V2000
  139.9210  154.3100  140.1010 C   0  0  0  0  0  0  0  0  0  0  0  0
  140.9520  155.4290  140.1770 C   0  0  0  0  0  0  0  0  0  0  0  0
  140.7990  156.3310  139.0830 O   0  0  0  0  0  0  0  0  0  0  0  0
  141.4670  156.1830  137.8620 C   0  0  0  0  0  0  0  0  0  0  0  0
  141.8870  155.0540  137.4890 O   0  0  0  0  0  0  0  0  0  0  0  0
  141.6290  157.3680  136.9660 C   0  0  0  0  0  0  0  0  0  0  0  0
  142.4360  157.0240  135.7960 N   0  0  0  0  0  0  0  0  0  0  0  0
  142.8360  158.0230  134.8470 C   0  0  0  0  0  0  0  0  0  0  0  0
  142.4840  159.2230  135.0100 O   0  0  0  0  0  0  0  0  0  0  0  0
  143.6480  157.6600  133.6710 C   0  0  0  0  0  0  0  0  0  0  0  0
  143.2170  157.8970  132.5110 O   0  0  0  0  0  0  0  0  0  0  0  0
  144.9340  157.0400  133.8330 N   0  0  0  0  0  0  0  0  0  0  0  0
  145.2150  155.8540  134.4400 C   0  0  0  0  0  0  0  0  0  0  0  0
  144.2180  154.9030  134.9770 C   0  0  0  0  0  0  0  0  0  0  0  0
  144.2720  154.5160  136.3490 N   0  0  0  0  0  0  0  0  0  0  0  0
  143.3290  154.4110  134.2320 O   0  0  0  0  0  0  0  0  0  0  0  0
  146.5900  155.6250  134.4500 C   0  0  0  0  0  0  0  0  0  0  0  0
  147.1470  156.7190  133.8270 C   0  0  0  0  0  0  0  0  0  0  0  0
  148.4810  157.0310  133.5840 C   0  0  0  0  0  0  0  0  0  0  0  0
  148.7670  158.2540  132.9520 C   0  0  0  0  0  0  0  0  0  0  0  0
  147.7220  159.1350  132.5770 C   0  0  0  0  0  0  0  0  0  0  0  0
  148.0430  160.4600  131.9420 C   0  0  0  0  0  0  0  0  0  0  0  0
  149.1390  160.3050  130.8920 C   0  0  0  0  0  0  0  0  0  0  0  0
  146.3800  158.7900  132.8530 C   0  0  0  0  0  0  0  0  0  0  0  0
  146.1250  157.5590  133.4670 C   0  0  0  0  0  0  0  0  0  0  0  0
  139.6378  154.0026  141.1185 H   0  0  0  0  0  0  0  0  0  0  0  0
  139.0299  154.6683  139.5648 H   0  0  0  0  0  0  0  0  0  0  0  0
  140.3509  153.4511  139.5648 H   0  0  0  0  0  0  0  0  0  0  0  0
  140.8186  155.9794  141.1200 H   0  0  0  0  0  0  0  0  0  0  0  0
  141.9580  154.9864  140.1322 H   0  0  0  0  0  0  0  0  0  0  0  0
  140.6370  157.7077  136.6334 H   0  0  0  0  0  0  0  0  0  0  0  0
  142.1382  158.1672  137.5246 H   0  0  0  0  0  0  0  0  0  0  0  0
  142.7360  156.0320  135.6480 H   0  0  0  0  0  0  0  0  0  0  0  0
  144.0060  155.1840  137.1060 H   0  0  0  0  0  0  0  0  0  0  0  0
  147.1179  154.7548  134.8672 H   0  0  0  0  0  0  0  0  0  0  0  0
  149.2869  156.3422  133.8773 H   0  0  0  0  0  0  0  0  0  0  0  0
  149.8119  158.5297  132.7466 H   0  0  0  0  0  0  0  0  0  0  0  0
  147.1372  160.8590  131.4620 H   0  0  0  0  0  0  0  0  0  0  0  0
  148.3971  161.1492  132.7228 H   0  0  0  0  0  0  0  0  0  0  0  0
  150.1091  160.1678  131.3921 H   0  0  0  0  0  0  0  0  0  0  0  0
  148.9233  159.4284  130.2634 H   0  0  0  0  0  0  0  0  0  0  0  0
  149.1748  161.2070  130.2634 H   0  0  0  0  0  0  0  0  0  0  0  0
  145.5570  159.4716  132.5919 H   0  0  0  0  0  0  0  0  0  0  0  0
  1  2  1  0
  2  3  1  0
  3  4  1  0
  4  5  2  0
  4  6  1  0
  6  7  1  0
  7  8  1  0
  8  9  2  0
  8 10  1  0
 10 11  2  0
 10 12  1  0
 12 13  1  0
 13 14  1  0
 14 15  1  0
 14 16  2  0
 13 17  2  0
 17 18  1  0
 18 19  2  0
 19 20  1  0
 20 21  2  0
 21 22  1  0
 22 23  1  0
 21 24  1  0
 24 25  2  0
 25 12  1  0
 25 18  1  0
  1 26  1  0
  1 27  1  0
  1 28  1  0
  2 29  1  0
  2 30  1  0
  6 31  1  0
  6 32  1  0
  7 33  1  0
 15 34  1  0
 17 35  1  0
 19 36  1  0
 20 37  1  0
 22 38  1  0
 22 39  1  0
 23 40  1  0
 23 41  1  0
 23 42  1  0
 24 43  1  0
M  CHG  1  15  -1
M  END
>  <UniqueID>  (42) 
42

>  <SMILES>  (42) 
CCOC(=O)CNC(=O)C(=O)n1c(C([NH-])=O)cc2ccc(CC)cc21

>  <Energy>  (42) 
71.45228144260078

>  <Genealogy>  (42) 
CCOC(=O)CNC(=O)C(=O)n1c(C([NH-])=O)cc2ccc(CC)cc21 (protonated)
CCOC(=O)CNC(=O)C(=O)n1c(C([NH-])=O)cc2ccc(CC)cc21 (3D coordinates assigned)
CCOC(=O)CNC(=O)C(=O)n1c(C([NH-])=O)cc2ccc(CC)cc21 (optimized conformer: 71.45228144260078 kcal/mol)

>  <smiles>  (42) 
CCOC(=O)CNC(=O)C(=O)n1c(C(N)=O)cc2ccc(CC)cc21

>  <score_type>  (42) 
oracle

>  <origin>  (42) 
adg

>  <m_score__min__energy>  (42) 
-7.0899999999999999

>  <m_primary>  (42) 
energy

$$$$
43:0
     RDKit          3D

 39 41  0  0  0  0  0  0  0  0999 V2000
  138.9260  157.8670  136.3400 N   0  0  0  0  0  0  0  0  0  0  0  0
  139.2960  157.9860  134.9680 C   0  0  0  0  0  0  0  0  0  0  0  0
  138.4200  157.8410  134.0760 O   0  0  0  0  0  0  0  0  0  0  0  0
  140.6900  158.3250  134.6110 C   0  0  0  0  0  0  0  0  0  0  0  0
  141.1470  159.6320  134.4570 C   0  0  0  0  0  0  0  0  0  0  0  0
  142.4520  159.5160  134.0390 C   0  0  0  0  0  0  0  0  0  0  0  0
  143.3900  160.5030  133.7520 C   0  0  0  0  0  0  0  0  0  0  0  0
  144.6780  160.0960  133.3720 C   0  0  0  0  0  0  0  0  0  0  0  0
  145.0090  158.7190  133.2760 C   0  0  0  0  0  0  0  0  0  0  0  0
  146.3490  158.3100  132.9160 N   0  0  0  0  0  0  0  0  0  0  0  0
  147.3120  159.4420  132.8990 C   0  0  2  0  0  0  0  0  0  0  0  0
  147.4150  160.0220  131.4620 C   0  0  0  0  0  0  0  0  0  0  0  0
  148.7040  160.5470  131.2130 O   0  0  0  0  0  0  0  0  0  0  0  0
  149.6420  159.4880  131.0920 C   0  0  0  0  0  0  0  0  0  0  0  0
  149.5890  158.4940  132.2750 C   0  0  0  0  0  0  0  0  0  0  0  0
  148.7320  159.0520  133.4150 C   0  0  2  0  0  0  0  0  0  0  0  0
  148.6850  158.1270  134.4670 O   0  0  0  0  0  0  0  0  0  0  0  0
  144.0310  157.7460  133.5990 C   0  0  0  0  0  0  0  0  0  0  0  0
  142.7500  158.1810  133.9580 C   0  0  0  0  0  0  0  0  0  0  0  0
  141.6790  157.4340  134.3090 N   0  0  0  0  0  0  0  0  0  0  0  0
  141.6310  156.0020  134.4110 C   0  0  0  0  0  0  0  0  0  0  0  0
  142.3750  155.3980  135.2300 O   0  0  0  0  0  0  0  0  0  0  0  0
  140.7470  155.2700  133.6290 O   0  0  0  0  0  0  0  0  0  0  0  0
  139.1220  158.6380  137.0170 H   0  0  0  0  0  0  0  0  0  0  0  0
  140.5834  160.5602  134.6326 H   0  0  0  0  0  0  0  0  0  0  0  0
  143.1298  161.5696  133.8209 H   0  0  0  0  0  0  0  0  0  0  0  0
  145.4417  160.8545  133.1454 H   0  0  0  0  0  0  0  0  0  0  0  0
  146.2850  157.8840  131.9610 H   0  0  0  0  0  0  0  0  0  0  0  0
  146.6930  157.5570  133.5570 H   0  0  0  0  0  0  0  0  0  0  0  0
  146.9213  160.2011  133.5927 H   0  0  0  0  0  0  0  0  0  0  0  0
  147.2074  159.2217  130.7365 H   0  0  0  0  0  0  0  0  0  0  0  0
  146.6823  160.8363  131.3620 H   0  0  0  0  0  0  0  0  0  0  0  0
  149.4315  158.9382  130.1628 H   0  0  0  0  0  0  0  0  0  0  0  0
  150.6459  159.9376  131.0856 H   0  0  0  0  0  0  0  0  0  0  0  0
  149.1552  157.5442  131.9290 H   0  0  0  0  0  0  0  0  0  0  0  0
  150.6115  158.3341  132.6477 H   0  0  0  0  0  0  0  0  0  0  0  0
  149.1895  159.9746  133.8016 H   0  0  0  0  0  0  0  0  0  0  0  0
  149.6050  157.7680  134.5710 H   0  0  0  0  0  0  0  0  0  0  0  0
  144.2729  156.6734  133.5683 H   0  0  0  0  0  0  0  0  0  0  0  0
  1  2  1  0
  2  3  2  0
  2  4  1  0
  4  5  2  0
  5  6  1  0
  6  7  2  0
  7  8  1  0
  8  9  2  0
  9 10  1  0
 10 11  1  0
 11 12  1  0
 12 13  1  0
 13 14  1  0
 14 15  1  0
 15 16  1  0
 16 17  1  0
  9 18  1  0
 18 19  2  0
 19 20  1  0
 20 21  1  0
 21 22  2  0
 21 23  1  0
 20  4  1  0
 19  6  1  0
 16 11  1  0
  1 24  1  0
  5 25  1  0
  7 26  1  0
  8 27  1  0
 10 28  1  0
 10 29  1  0
 11 30  1  1
 12 31  1  0
 12 32  1  0
 14 33  1  0
 14 34  1  0
 15 35  1  0
 15 36  1  0
 16 37  1  1
 17 38  1  0
 18 39  1  0
M  CHG  3   1  -1  10   1  23  -1
M  END
>  <UniqueID>  (43) 
43

>  <SMILES>  (43) 
[NH-]C(=O)c1cc2ccc([NH2+][C@@H]3COCC[C@@H]3O)cc2n1C(=O)[O-]

>  <Energy>  (43) 
92.34289132318655

>  <Genealogy>  (43) 
[NH-]C(=O)c1cc2ccc([NH2+][C@@H]3COCC[C@@H]3O)cc2n1C(=O)[O-] (protonated)
[NH-]C(=O)c1cc2ccc([NH2+][C@@H]3COCC[C@@H]3O)cc2n1C(=O)[O-] (3D coordinates assigned)
[NH-]C(=O)c1cc2ccc([NH2+][C@@H]3COCC[C@@H]3O)cc2n1C(=O)[O-] (nonaromatic ring conformer: 92.34289132318655 kcal/mol)

>  <smiles>  (43) 
NC(=O)c1cc2ccc(N[C@@H]3COCC[C@@H]3O)cc2n1C(=O)O

>  <score_type>  (43) 
oracle

>  <origin>  (43) 
adg

>  <m_score__min__energy>  (43) 
-7.4299999999999997

>  <m_primary>  (43) 
energy

$$$$
44:0
     RDKit          3D

 83 90  0  0  0  0  0  0  0  0999 V2000
  146.9000  158.3750  134.1140 C   0  0  0  0  0  0  0  0  0  0  0  0
  147.3010  157.2540  133.9270 C   0  0  0  0  0  0  0  0  0  0  0  0
  147.7780  155.9150  133.7010 C   0  0  0  0  0  0  0  0  0  0  0  0
  147.9770  155.4500  132.3810 C   0  0  0  0  0  0  0  0  0  0  0  0
  148.4350  154.1410  132.1470 C   0  0  0  0  0  0  0  0  0  0  0  0
  148.6770  153.3290  133.2520 C   0  0  0  0  0  0  0  0  0  0  0  0
  149.1170  152.0260  133.3200 C   0  0  0  0  0  0  0  0  0  0  0  0
  149.1640  151.7190  134.6770 C   0  0  0  0  0  0  0  0  0  0  0  0
  149.5190  150.3820  135.2010 C   0  0  0  0  0  0  0  0  0  0  0  0
  148.9760  149.1990  134.6240 N   0  0  0  0  0  0  0  0  0  0  0  0
  150.3360  150.2820  136.1540 O   0  0  0  0  0  0  0  0  0  0  0  0
  148.7880  152.7990  135.4210 N   0  0  0  0  0  0  0  0  0  0  0  0
  148.7580  152.9280  136.8520 C   0  0  0  0  0  0  0  0  0  0  0  0
  149.8250  153.2120  137.4630 O   0  0  0  0  0  0  0  0  0  0  0  0
  147.5010  152.7220  137.6140 C   0  0  0  0  0  0  0  0  0  0  0  0
  147.4630  151.8250  138.6960 C   0  0  0  0  0  0  0  0  0  0  0  0
  146.3010  151.6830  139.4600 C   0  0  0  0  0  0  0  0  0  0  0  0
  145.1540  152.4380  139.1620 C   0  0  0  0  0  0  0  0  0  0  0  0
  143.9980  152.3690  140.0230 N   0  0  0  0  0  0  0  0  0  0  0  0
  143.8730  153.2980  141.1530 C   0  0  0  0  0  0  0  0  0  0  0  0
  142.8710  154.4250  140.8160 C   0  0  0  0  0  0  0  0  0  0  0  0
  142.1880  154.2380  139.4350 C   0  0  0  0  0  0  0  0  0  0  0  0
  141.0820  155.2130  139.2720 N   0  0  0  0  0  0  0  0  0  0  0  0
  141.5710  156.5440  138.8370 C   0  0  0  0  0  0  0  0  0  0  0  0
  140.8640  156.4220  137.5130 C   0  0  0  0  0  0  0  0  0  0  0  0
  141.5750  156.6130  136.2240 C   0  0  0  0  0  0  0  0  0  0  0  0
  140.6690  157.6900  135.7450 N   0  0  0  0  0  0  0  0  0  0  0  0
  140.7350  158.7350  134.7680 C   0  0  0  0  0  0  0  0  0  0  0  0
  141.7950  159.6440  134.8150 C   0  0  0  0  0  0  0  0  0  0  0  0
  141.9280  160.6090  133.8100 C   0  0  0  0  0  0  0  0  0  0  0  0
  143.0610  161.5610  133.7960 C   0  0  0  0  0  0  0  0  0  0  0  0
  142.8380  162.8940  133.4100 C   0  0  0  0  0  0  0  0  0  0  0  0
  143.8900  163.8100  133.3890 C   0  0  0  0  0  0  0  0  0  0  0  0
  145.1800  163.4080  133.7410 C   0  0  0  0  0  0  0  0  0  0  0  0
  145.4200  162.0840  134.1100 C   0  0  0  0  0  0  0  0  0  0  0  0
  144.3720  161.1560  134.1310 C   0  0  0  0  0  0  0  0  0  0  0  0
  144.6520  159.8310  134.4550 O   0  0  0  0  0  0  0  0  0  0  0  0
  140.9860  160.6720  132.8330 N   0  0  0  0  0  0  0  0  0  0  0  0
  139.9580  159.8250  132.7950 N   0  0  0  0  0  0  0  0  0  0  0  0
  139.7940  158.8490  133.7280 C   0  0  0  0  0  0  0  0  0  0  0  0
  138.6370  158.0130  133.6550 N   0  0  0  0  0  0  0  0  0  0  0  0
  139.9470  157.4770  137.0260 C   0  0  0  0  0  0  0  0  0  0  0  0
  140.3840  155.0690  137.9700 C   0  0  0  0  0  0  0  0  0  0  0  0
  141.6520  152.7870  139.3290 C   0  0  0  0  0  0  0  0  0  0  0  0
  142.7510  151.7290  139.5870 C   0  0  0  0  0  0  0  0  0  0  0  0
  145.1790  153.3000  138.0520 C   0  0  0  0  0  0  0  0  0  0  0  0
  146.3360  153.4340  137.2830 C   0  0  0  0  0  0  0  0  0  0  0  0
  148.4820  153.7700  134.5350 C   0  0  0  0  0  0  0  0  0  0  0  0
  148.0390  155.0700  134.7970 C   0  0  0  0  0  0  0  0  0  0  0  0
  146.5340  159.3982  134.2847 H   0  0  0  0  0  0  0  0  0  0  0  0
  147.7721  156.1169  131.5305 H   0  0  0  0  0  0  0  0  0  0  0  0
  148.5968  153.7706  131.1240 H   0  0  0  0  0  0  0  0  0  0  0  0
  149.3768  151.3664  132.4789 H   0  0  0  0  0  0  0  0  0  0  0  0
  149.2350  148.2570  134.9910 H   0  0  0  0  0  0  0  0  0  0  0  0
  148.3547  151.2302  138.9433 H   0  0  0  0  0  0  0  0  0  0  0  0
  146.2844  150.9745  140.3013 H   0  0  0  0  0  0  0  0  0  0  0  0
  143.5163  152.7482  142.0364 H   0  0  0  0  0  0  0  0  0  0  0  0
  144.8570  153.7451  141.3577 H   0  0  0  0  0  0  0  0  0  0  0  0
  142.0919  154.4447  141.5923 H   0  0  0  0  0  0  0  0  0  0  0  0
  143.4372  155.3673  140.7775 H   0  0  0  0  0  0  0  0  0  0  0  0
  142.9209  154.4159  138.6342 H   0  0  0  0  0  0  0  0  0  0  0  0
  141.2052  157.3744  139.4588 H   0  0  0  0  0  0  0  0  0  0  0  0
  142.6500  156.7571  138.8567 H   0  0  0  0  0  0  0  0  0  0  0  0
  142.6144  156.9498  136.3515 H   0  0  0  0  0  0  0  0  0  0  0  0
  141.7149  155.7334  135.5784 H   0  0  0  0  0  0  0  0  0  0  0  0
  142.5225  159.6014  135.6390 H   0  0  0  0  0  0  0  0  0  0  0  0
  141.8267  163.2173  133.1224 H   0  0  0  0  0  0  0  0  0  0  0  0
  143.7025  164.8530  133.0940 H   0  0  0  0  0  0  0  0  0  0  0  0
  146.0061  164.1343  133.7274 H   0  0  0  0  0  0  0  0  0  0  0  0
  146.4370  161.7680  134.3856 H   0  0  0  0  0  0  0  0  0  0  0  0
  138.4720  157.4350  132.8030 H   0  0  0  0  0  0  0  0  0  0  0  0
  137.8860  158.0430  134.3740 H   0  0  0  0  0  0  0  0  0  0  0  0
  139.9395  158.3698  137.6685 H   0  0  0  0  0  0  0  0  0  0  0  0
  138.8739  157.2404  136.9762 H   0  0  0  0  0  0  0  0  0  0  0  0
  139.2902  154.9948  138.0601 H   0  0  0  0  0  0  0  0  0  0  0  0
  140.5798  154.1852  137.3451 H   0  0  0  0  0  0  0  0  0  0  0  0
  140.8511  152.6518  140.0708 H   0  0  0  0  0  0  0  0  0  0  0  0
  141.2822  152.6414  138.3033 H   0  0  0  0  0  0  0  0  0  0  0  0
  142.4082  151.0363  140.3698 H   0  0  0  0  0  0  0  0  0  0  0  0
  142.9427  151.1840  138.6509 H   0  0  0  0  0  0  0  0  0  0  0  0
  144.2788  153.8740  137.7871 H   0  0  0  0  0  0  0  0  0  0  0  0
  146.3357  154.1031  136.4099 H   0  0  0  0  0  0  0  0  0  0  0  0
  147.8984  155.4226  135.8294 H   0  0  0  0  0  0  0  0  0  0  0  0
  1  2  3  0
  2  3  1  0
  3  4  2  0
  4  5  1  0
  5  6  2  0
  6  7  1  0
  7  8  2  0
  8  9  1  0
  9 10  1  0
  9 11  2  0
  8 12  1  0
 12 13  1  0
 13 14  2  0
 13 15  1  0
 15 16  2  0
 16 17  1  0
 17 18  2  0
 18 19  1  0
 19 20  1  0
 20 21  1  0
 21 22  1  0
 22 23  1  0
 23 24  1  0
 24 25  1  0
 25 26  1  0
 26 27  1  0
 27 28  1  0
 28 29  2  0
 29 30  1  0
 30 31  1  0
 31 32  2  0
 32 33  1  0
 33 34  2  0
 34 35  1  0
 35 36  2  0
 36 37  1  0
 30 38  2  0
 38 39  1  0
 39 40  2  0
 40 41  1  0
 27 42  1  0
 25 43  1  0
 22 44  1  0
 44 45  1  0
 18 46  1  0
 46 47  2  0
 12 48  1  0
 48 49  2  0
 49  3  1  0
 48  6  1  0
 47 15  1  0
 45 19  1  0
 43 23  1  0
 42 25  1  0
 40 28  1  0
 36 31  1  0
  1 50  1  0
  4 51  1  0
  5 52  1  0
  7 53  1  0
 10 54  1  0
 16 55  1  0
 17 56  1  0
 20 57  1  0
 20 58  1  0
 21 59  1  0
 21 60  1  0
 22 61  1  0
 24 62  1  0
 24 63  1  0
 26 64  1  0
 26 65  1  0
 29 66  1  0
 32 67  1  0
 33 68  1  0
 34 69  1  0
 35 70  1  0
 41 71  1  0
 41 72  1  0
 42 73  1  0
 42 74  1  0
 43 75  1  0
 43 76  1  0
 44 77  1  0
 44 78  1  0
 45 79  1  0
 45 80  1  0
 46 81  1  0
 47 82  1  0
 49 83  1  0
M  CHG  2  10  -1  37  -1
M  END
>  <UniqueID>  (44) 
44

>  <SMILES>  (44) 
C#Cc1ccc2cc(C([NH-])=O)n(C(=O)c3ccc(N4CCC(N5CC6(CN(c7cc(-c8ccccc8[O-])nnc7N)C6)C5)CC4)cc3)c2c1

>  <Energy>  (44) 
285.2523322737521

>  <Genealogy>  (44) 
C#Cc1ccc2cc(C([NH-])=O)n(C(=O)c3ccc(N4CCC(N5CC6(CN(c7cc(-c8ccccc8[O-])nnc7N)C6)C5)CC4)cc3)c2c1 (protonated)
C#Cc1ccc2cc(C([NH-])=O)n(C(=O)c3ccc(N4CCC(N5CC6(CN(c7cc(-c8ccccc8[O-])nnc7N)C6)C5)CC4)cc3)c2c1 (3D coordinates assigned)
C#Cc1ccc2cc(C([NH-])=O)n(C(=O)c3ccc(N4CCC(N5CC6(CN(c7cc(-c8ccccc8[O-])nnc7N)C6)C5)CC4)cc3)c2c1 (nonaromatic ring conformer: 285.2523322737521 kcal/mol)

>  <smiles>  (44) 
C#Cc1ccc2cc(C(N)=O)n(C(=O)c3ccc(N4CCC(N5CC6(CN(c7cc(-c8ccccc8O)nnc7N)C6)C5)CC4)cc3)c2c1

>  <score_type>  (44) 
oracle

>  <origin>  (44) 
adg

>  <m_score__min__energy>  (44) 
-10.34

>  <m_primary>  (44) 
energy

$$$$
45:0
     RDKit          3D

 44 45  0  0  0  0  0  0  0  0999 V2000
  140.2600  157.7130  134.2490 C   0  0  0  0  0  0  0  0  0  0  0  0
  140.8460  156.4370  134.6700 N   0  0  0  0  0  0  0  0  0  0  0  0
  141.3520  156.3000  136.0440 C   0  0  0  0  0  0  0  0  0  0  0  0
  142.0490  154.9840  136.2420 C   0  0  0  0  0  0  0  0  0  0  0  0
  141.3800  153.9900  136.6340 O   0  0  0  0  0  0  0  0  0  0  0  0
  143.4710  154.8720  136.0670 N   0  0  0  0  0  0  0  0  0  0  0  0
  144.2340  153.7390  136.5790 C   0  0  0  0  0  0  0  0  0  0  0  0
  145.6880  153.9390  136.2960 C   0  0  0  0  0  0  0  0  0  0  0  0
  146.0690  154.9180  135.6010 O   0  0  0  0  0  0  0  0  0  0  0  0
  146.6180  153.0100  136.7470 O   0  0  0  0  0  0  0  0  0  0  0  0
  140.8210  155.3160  133.7590 C   0  0  0  0  0  0  0  0  0  0  0  0
  139.7190  154.8670  133.3430 O   0  0  0  0  0  0  0  0  0  0  0  0
  142.0340  154.6750  133.3400 N   0  0  0  0  0  0  0  0  0  0  0  0
  143.2600  155.2400  133.1550 C   0  0  0  0  0  0  0  0  0  0  0  0
  143.5680  156.6820  133.2570 C   0  0  0  0  0  0  0  0  0  0  0  0
  144.2300  157.2130  134.4020 N   0  0  0  0  0  0  0  0  0  0  0  0
  143.2190  157.4630  132.3310 O   0  0  0  0  0  0  0  0  0  0  0  0
  144.2040  154.2620  132.8420 C   0  0  0  0  0  0  0  0  0  0  0  0
  143.5070  153.0730  132.8380 C   0  0  0  0  0  0  0  0  0  0  0  0
  143.9490  151.7730  132.6100 C   0  0  0  0  0  0  0  0  0  0  0  0
  143.0090  150.7310  132.7010 C   0  0  0  0  0  0  0  0  0  0  0  0
  141.6550  151.0070  133.0150 C   0  0  0  0  0  0  0  0  0  0  0  0
  140.6510  149.8860  133.0890 C   0  0  0  0  0  0  0  0  0  0  0  0
  139.6100  149.9880  131.9720 C   0  0  0  0  0  0  0  0  0  0  0  0
  138.7310  151.0260  132.2310 F   0  0  0  0  0  0  0  0  0  0  0  0
  138.8980  148.8050  131.9000 F   0  0  0  0  0  0  0  0  0  0  0  0
  140.2340  150.2100  130.7570 F   0  0  0  0  0  0  0  0  0  0  0  0
  141.2400  152.3400  133.2260 C   0  0  0  0  0  0  0  0  0  0  0  0
  142.1990  153.3530  133.1350 C   0  0  0  0  0  0  0  0  0  0  0  0
  139.9891  158.3028  135.1371 H   0  0  0  0  0  0  0  0  0  0  0  0
  140.9918  158.2717  133.6470 H   0  0  0  0  0  0  0  0  0  0  0  0
  139.3594  157.5220  133.6470 H   0  0  0  0  0  0  0  0  0  0  0  0
  142.0620  157.1153  136.2470 H   0  0  0  0  0  0  0  0  0  0  0  0
  140.4969  156.3466  136.7344 H   0  0  0  0  0  0  0  0  0  0  0  0
  144.0040  155.6760  135.6650 H   0  0  0  0  0  0  0  0  0  0  0  0
  144.0812  153.6567  137.6652 H   0  0  0  0  0  0  0  0  0  0  0  0
  143.8912  152.8174  136.0858 H   0  0  0  0  0  0  0  0  0  0  0  0
  144.8770  156.6240  134.9710 H   0  0  0  0  0  0  0  0  0  0  0  0
  145.2756  154.4084  132.6413 H   0  0  0  0  0  0  0  0  0  0  0  0
  145.0016  151.5669  132.3660 H   0  0  0  0  0  0  0  0  0  0  0  0
  143.3276  149.6926  132.5269 H   0  0  0  0  0  0  0  0  0  0  0  0
  141.1802  148.9261  132.9973 H   0  0  0  0  0  0  0  0  0  0  0  0
  140.1281  149.9554  134.0543 H   0  0  0  0  0  0  0  0  0  0  0  0
  140.1903  152.5750  133.4558 H   0  0  0  0  0  0  0  0  0  0  0  0
  1  2  1  0
  2  3  1  0
  3  4  1  0
  4  5  2  0
  4  6  1  0
  6  7  1  0
  7  8  1  0
  8  9  2  0
  8 10  1  0
  2 11  1  0
 11 12  2  0
 11 13  1  0
 13 14  1  0
 14 15  1  0
 15 16  1  0
 15 17  2  0
 14 18  2  0
 18 19  1  0
 19 20  2  0
 20 21  1  0
 21 22  2  0
 22 23  1  0
 23 24  1  0
 24 25  1  0
 24 26  1  0
 24 27  1  0
 22 28  1  0
 28 29  2  0
 29 13  1  0
 29 19  1  0
  1 30  1  0
  1 31  1  0
  1 32  1  0
  3 33  1  0
  3 34  1  0
  6 35  1  0
  7 36  1  0
  7 37  1  0
 16 38  1  0
 18 39  1  0
 20 40  1  0
 21 41  1  0
 23 42  1  0
 23 43  1  0
 28 44  1  0
M  CHG  2  10  -1  16  -1
M  END
>  <UniqueID>  (45) 
45

>  <SMILES>  (45) 
CN(CC(=O)NCC(=O)[O-])C(=O)n1c(C([NH-])=O)cc2ccc(CC(F)(F)F)cc21

>  <Energy>  (45) 
74.29919825787499

>  <Genealogy>  (45) 
CN(CC(=O)NCC(=O)[O-])C(=O)n1c(C([NH-])=O)cc2ccc(CC(F)(F)F)cc21 (protonated)
CN(CC(=O)NCC(=O)[O-])C(=O)n1c(C([NH-])=O)cc2ccc(CC(F)(F)F)cc21 (3D coordinates assigned)
CN(CC(=O)NCC(=O)[O-])C(=O)n1c(C([NH-])=O)cc2ccc(CC(F)(F)F)cc21 (optimized conformer: 74.29919825787499 kcal/mol)

>  <smiles>  (45) 
CN(CC(=O)NCC(=O)O)C(=O)n1c(C(N)=O)cc2ccc(CC(F)(F)F)cc21

>  <score_type>  (45) 
oracle

>  <origin>  (45) 
adg

>  <m_score__min__energy>  (45) 
-6.7000000000000002

>  <m_primary>  (45) 
energy

$$$$
46:0
     RDKit          3D

 32 33  0  0  0  0  0  0  0  0999 V2000
  149.8250  157.7600  131.8550 N   0  0  0  0  0  0  0  0  0  0  0  0
  149.1930  158.9910  132.2030 C   0  0  0  0  0  0  0  0  0  0  0  0
  149.8380  160.0660  132.1010 O   0  0  0  0  0  0  0  0  0  0  0  0
  147.8070  158.9840  132.7170 C   0  0  0  0  0  0  0  0  0  0  0  0
  146.9680  160.0940  132.6760 C   0  0  0  0  0  0  0  0  0  0  0  0
  145.7570  159.6550  133.1600 C   0  0  0  0  0  0  0  0  0  0  0  0
  144.5640  160.3480  133.3500 C   0  0  0  0  0  0  0  0  0  0  0  0
  143.4750  159.6480  133.8960 C   0  0  0  0  0  0  0  0  0  0  0  0
  143.5990  158.2800  134.2450 C   0  0  0  0  0  0  0  0  0  0  0  0
  142.4370  157.5400  134.8450 C   0  0  0  0  0  0  0  0  0  0  0  0
  141.7660  158.3640  135.7290 F   0  0  0  0  0  0  0  0  0  0  0  0
  142.8930  156.4220  135.5190 F   0  0  0  0  0  0  0  0  0  0  0  0
  144.8260  157.6100  134.0400 C   0  0  0  0  0  0  0  0  0  0  0  0
  145.8890  158.3280  133.4780 C   0  0  0  0  0  0  0  0  0  0  0  0
  147.1430  157.9010  133.2140 N   0  0  0  0  0  0  0  0  0  0  0  0
  147.6750  156.5940  133.4850 C   0  0  0  0  0  0  0  0  0  0  0  0
  147.7090  155.7270  132.5700 O   0  0  0  0  0  0  0  0  0  0  0  0
  148.1330  156.2830  134.7690 O   0  0  0  0  0  0  0  0  0  0  0  0
  147.7320  155.1080  135.4660 C   0  0  0  0  0  0  0  0  0  0  0  0
  148.3500  155.1040  136.7290 O   0  0  0  0  0  0  0  0  0  0  0  0
  147.8740  153.6880  137.5500 P   0  0  0  0  0  0  0  0  0  0  0  0
  149.0180  152.7000  137.5320 O   0  0  0  0  0  0  0  0  0  0  0  0
  147.4840  154.0500  139.1570 O   0  0  0  0  0  0  0  0  0  0  0  0
  146.5330  152.9930  136.7860 O   0  0  0  0  0  0  0  0  0  0  0  0
  149.2590  156.9140  131.6230 H   0  0  0  0  0  0  0  0  0  0  0  0
  147.2197  161.1074  132.3300 H   0  0  0  0  0  0  0  0  0  0  0  0
  144.4770  161.4110  133.0808 H   0  0  0  0  0  0  0  0  0  0  0  0
  142.5177  160.1663  134.0540 H   0  0  0  0  0  0  0  0  0  0  0  0
  141.7539  157.2302  134.0403 H   0  0  0  0  0  0  0  0  0  0  0  0
  144.9433  156.5514  134.3148 H   0  0  0  0  0  0  0  0  0  0  0  0
  146.6388  155.1042  135.5881 H   0  0  0  0  0  0  0  0  0  0  0  0
  148.0297  154.2139  134.8986 H   0  0  0  0  0  0  0  0  0  0  0  0
  1  2  1  0
  2  3  2  0
  2  4  1  0
  4  5  2  0
  5  6  1  0
  6  7  2  0
  7  8  1  0
  8  9  2  0
  9 10  1  0
 10 11  1  0
 10 12  1  0
  9 13  1  0
 13 14  2  0
 14 15  1  0
 15 16  1  0
 16 17  2  0
 16 18  1  0
 18 19  1  0
 19 20  1  0
 20 21  1  0
 21 22  2  0
 21 23  1  0
 21 24  1  0
 15  4  1  0
 14  6  1  0
  1 25  1  0
  5 26  1  0
  7 27  1  0
  8 28  1  0
 10 29  1  0
 13 30  1  0
 19 31  1  0
 19 32  1  0
M  CHG  3   1  -1  23  -1  24  -1
M  END
>  <UniqueID>  (46) 
46

>  <SMILES>  (46) 
[NH-]C(=O)c1cc2ccc(C(F)F)cc2n1C(=O)OCOP(=O)([O-])[O-]

>  <Energy>  (46) 
67.67190159750471

>  <Genealogy>  (46) 
[NH-]C(=O)c1cc2ccc(C(F)F)cc2n1C(=O)OCOP(=O)([O-])[O-] (protonated)
[NH-]C(=O)c1cc2ccc(C(F)F)cc2n1C(=O)OCOP(=O)([O-])[O-] (3D coordinates assigned)
[NH-]C(=O)c1cc2ccc(C(F)F)cc2n1C(=O)OCOP(=O)([O-])[O-] (optimized conformer: 67.67190159750471 kcal/mol)

>  <smiles>  (46) 
NC(=O)c1cc2ccc(C(F)F)cc2n1C(=O)OCOP(=O)(O)O

>  <score_type>  (46) 
oracle

>  <origin>  (46) 
adg

>  <m_score__min__energy>  (46) 
-6.1399999999999997

>  <m_primary>  (46) 
energy

$$$$
47:0
     RDKit          3D

 42 43  0  0  0  0  0  0  0  0999 V2000
  149.9130  151.0960  131.1060 C   0  0  0  0  0  0  0  0  0  0  0  0
  149.4770  152.3190  131.6880 O   0  0  0  0  0  0  0  0  0  0  0  0
  149.2530  152.4620  133.0600 C   0  0  0  0  0  0  0  0  0  0  0  0
  149.6870  151.6040  133.8760 O   0  0  0  0  0  0  0  0  0  0  0  0
  148.4430  153.6170  133.5570 C   0  0  0  0  0  0  0  0  0  0  0  0
  148.1570  154.5520  132.4670 N   0  0  0  0  0  0  0  0  0  0  0  0
  147.8460  155.9420  132.6820 C   0  0  0  0  0  0  0  0  0  0  0  0
  148.8450  156.9490  132.6010 C   0  0  0  0  0  0  0  0  0  0  0  0
  148.5230  158.2980  132.8230 C   0  0  0  0  0  0  0  0  0  0  0  0
  147.2000  158.6160  133.1090 C   0  0  0  0  0  0  0  0  0  0  0  0
  146.6250  159.8330  133.3980 C   0  0  0  0  0  0  0  0  0  0  0  0
  145.2780  159.5600  133.6170 C   0  0  0  0  0  0  0  0  0  0  0  0
  144.2770  160.6000  133.9310 C   0  0  0  0  0  0  0  0  0  0  0  0
  142.9740  160.2560  134.4080 N   0  0  0  0  0  0  0  0  0  0  0  0
  144.5600  161.8110  133.7300 O   0  0  0  0  0  0  0  0  0  0  0  0
  145.0270  158.2280  133.4780 N   0  0  0  0  0  0  0  0  0  0  0  0
  143.7820  157.5540  133.7350 C   0  0  0  0  0  0  0  0  0  0  0  0
  143.5160  157.1670  134.9050 O   0  0  0  0  0  0  0  0  0  0  0  0
  142.7860  157.2980  132.6430 C   0  0  0  0  0  0  0  0  0  0  0  0
  141.8300  158.3380  132.6150 O   0  0  0  0  0  0  0  0  0  0  0  0
  140.5840  157.8470  133.0520 C   0  0  0  0  0  0  0  0  0  0  0  0
  140.3080  158.3840  134.4160 C   0  0  0  0  0  0  0  0  0  0  0  0
  139.7960  157.6410  135.2950 O   0  0  0  0  0  0  0  0  0  0  0  0
  140.5690  159.7170  134.7070 O   0  0  0  0  0  0  0  0  0  0  0  0
  146.2170  157.6620  133.1710 C   0  0  0  0  0  0  0  0  0  0  0  0
  146.5160  156.3070  132.9840 C   0  0  0  0  0  0  0  0  0  0  0  0
  150.1678  150.3813  131.9024 H   0  0  0  0  0  0  0  0  0  0  0  0
  149.1081  150.6790  130.4828 H   0  0  0  0  0  0  0  0  0  0  0  0
  150.8001  151.2822  130.4828 H   0  0  0  0  0  0  0  0  0  0  0  0
  147.4949  153.2425  133.9704 H   0  0  0  0  0  0  0  0  0  0  0  0
  149.0154  154.1433  134.3351 H   0  0  0  0  0  0  0  0  0  0  0  0
  148.1850  154.2010  131.4820 H   0  0  0  0  0  0  0  0  0  0  0  0
  149.8816  156.6692  132.3619 H   0  0  0  0  0  0  0  0  0  0  0  0
  149.2949  159.0800  132.7721 H   0  0  0  0  0  0  0  0  0  0  0  0
  147.1238  160.8122  133.4456 H   0  0  0  0  0  0  0  0  0  0  0  0
  142.3010  161.0080  134.6760 H   0  0  0  0  0  0  0  0  0  0  0  0
  142.6400  159.2680  134.4040 H   0  0  0  0  0  0  0  0  0  0  0  0
  143.3076  157.2550  131.6755 H   0  0  0  0  0  0  0  0  0  0  0  0
  142.2771  156.3413  132.8320 H   0  0  0  0  0  0  0  0  0  0  0  0
  139.7943  158.1734  132.3593 H   0  0  0  0  0  0  0  0  0  0  0  0
  140.6042  156.7475  133.0799 H   0  0  0  0  0  0  0  0  0  0  0  0
  145.7303  155.5421  133.0706 H   0  0  0  0  0  0  0  0  0  0  0  0
  1  2  1  0
  2  3  1  0
  3  4  2  0
  3  5  1  0
  5  6  1  0
  6  7  1  0
  7  8  2  0
  8  9  1  0
  9 10  2  0
 10 11  1  0
 11 12  2  0
 12 13  1  0
 13 14  1  0
 13 15  2  0
 12 16  1  0
 16 17  1  0
 17 18  2  0
 17 19  1  0
 19 20  1  0
 20 21  1  0
 21 22  1  0
 22 23  2  0
 22 24  1  0
 16 25  1  0
 25 26  2  0
 26  7  1  0
 25 10  1  0
  1 27  1  0
  1 28  1  0
  1 29  1  0
  5 30  1  0
  5 31  1  0
  6 32  1  0
  8 33  1  0
  9 34  1  0
 11 35  1  0
 14 36  1  0
 14 37  1  0
 19 38  1  0
 19 39  1  0
 21 40  1  0
 21 41  1  0
 26 42  1  0
M  CHG  1  24  -1
M  END
>  <UniqueID>  (47) 
47

>  <SMILES>  (47) 
COC(=O)CNc1ccc2cc(C(N)=O)n(C(=O)COCC(=O)[O-])c2c1

>  <Energy>  (47) 
77.46887985916302

>  <Genealogy>  (47) 
COC(=O)CNc1ccc2cc(C(N)=O)n(C(=O)COCC(=O)[O-])c2c1 (protonated)
COC(=O)CNc1ccc2cc(C(N)=O)n(C(=O)COCC(=O)[O-])c2c1 (3D coordinates assigned)
COC(=O)CNc1ccc2cc(C(N)=O)n(C(=O)COCC(=O)[O-])c2c1 (optimized conformer: 77.46887985916302 kcal/mol)

>  <smiles>  (47) 
COC(=O)CNc1ccc2cc(C(N)=O)n(C(=O)COCC(=O)O)c2c1

>  <score_type>  (47) 
oracle

>  <origin>  (47) 
adg

>  <m_score__min__energy>  (47) 
-6.9500000000000002

>  <m_primary>  (47) 
energy

$$$$
48:0
     RDKit          3D

 50 51  0  0  0  0  0  0  0  0999 V2000
  144.7370  154.7930  133.8690 C   0  0  0  0  0  0  0  0  0  0  0  0
  144.3370  155.7240  134.8670 O   0  0  0  0  0  0  0  0  0  0  0  0
  143.3080  156.6480  134.6660 C   0  0  0  0  0  0  0  0  0  0  0  0
  142.3580  156.7380  135.4920 O   0  0  0  0  0  0  0  0  0  0  0  0
  143.3440  157.5280  133.4900 C   0  0  0  0  0  0  0  0  0  0  0  0
  142.6590  157.2350  132.4730 O   0  0  0  0  0  0  0  0  0  0  0  0
  144.1500  158.7160  133.4850 N   0  0  0  0  0  0  0  0  0  0  0  0
  143.7570  159.9900  133.7710 C   0  0  0  0  0  0  0  0  0  0  0  0
  142.3690  160.4320  134.0240 C   0  0  0  0  0  0  0  0  0  0  0  0
  141.4110  159.5520  134.6060 N   0  0  0  0  0  0  0  0  0  0  0  0
  142.0150  161.5970  133.6970 O   0  0  0  0  0  0  0  0  0  0  0  0
  144.8520  160.8530  133.7470 C   0  0  0  0  0  0  0  0  0  0  0  0
  145.9350  160.0620  133.4410 C   0  0  0  0  0  0  0  0  0  0  0  0
  147.2810  160.3930  133.3120 C   0  0  0  0  0  0  0  0  0  0  0  0
  148.1890  159.3600  133.0280 C   0  0  0  0  0  0  0  0  0  0  0  0
  147.7410  158.0230  132.8810 C   0  0  0  0  0  0  0  0  0  0  0  0
  148.7350  156.9210  132.6170 C   0  0  0  0  0  0  0  0  0  0  0  0
  148.3770  155.6430  133.3850 C   0  0  0  0  0  0  0  0  0  0  0  0
  148.3300  154.4760  132.5010 N   0  0  0  0  0  0  0  0  0  0  0  0
  148.3830  153.1430  133.0160 C   0  0  0  0  0  0  0  0  0  0  0  0
  148.4800  152.9490  134.2580 O   0  0  0  0  0  0  0  0  0  0  0  0
  148.3260  152.0670  132.1170 O   0  0  0  0  0  0  0  0  0  0  0  0
  149.1670  150.9030  132.1290 C   0  0  0  0  0  0  0  0  0  0  0  0
  148.3470  149.6460  132.4740 C   0  0  0  0  0  0  0  0  0  0  0  0
  150.3290  151.0830  133.1240 C   0  0  0  0  0  0  0  0  0  0  0  0
  149.7450  150.7450  130.7150 C   0  0  0  0  0  0  0  0  0  0  0  0
  146.3670  157.7250  133.0230 C   0  0  0  0  0  0  0  0  0  0  0  0
  145.4850  158.7760  133.2900 C   0  0  0  0  0  0  0  0  0  0  0  0
  145.1274  153.8843  134.3506 H   0  0  0  0  0  0  0  0  0  0  0  0
  143.8713  154.5328  133.2423 H   0  0  0  0  0  0  0  0  0  0  0  0
  145.5217  155.2418  133.2423 H   0  0  0  0  0  0  0  0  0  0  0  0
  141.5310  158.5160  134.5520 H   0  0  0  0  0  0  0  0  0  0  0  0
  144.8502  161.9371  133.9334 H   0  0  0  0  0  0  0  0  0  0  0  0
  147.6229  161.4320  133.4289 H   0  0  0  0  0  0  0  0  0  0  0  0
  149.2589  159.5907  132.9185 H   0  0  0  0  0  0  0  0  0  0  0  0
  148.7446  156.6993  131.5396 H   0  0  0  0  0  0  0  0  0  0  0  0
  149.7244  157.2611  132.9566 H   0  0  0  0  0  0  0  0  0  0  0  0
  149.1349  155.4705  134.1634 H   0  0  0  0  0  0  0  0  0  0  0  0
  147.3798  155.7775  133.8293 H   0  0  0  0  0  0  0  0  0  0  0  0
  148.2640  154.5990  131.4660 H   0  0  0  0  0  0  0  0  0  0  0  0
  148.2787  149.5413  133.5669 H   0  0  0  0  0  0  0  0  0  0  0  0
  147.3360  149.7401  132.0508 H   0  0  0  0  0  0  0  0  0  0  0  0
  148.8405  148.7587  132.0508 H   0  0  0  0  0  0  0  0  0  0  0  0
  149.9436  151.0233  134.1525 H   0  0  0  0  0  0  0  0  0  0  0  0
  151.0741  150.2896  132.9650 H   0  0  0  0  0  0  0  0  0  0  0  0
  150.7991  152.0647  132.9650 H   0  0  0  0  0  0  0  0  0  0  0  0
  150.8041  150.4555  130.7820 H   0  0  0  0  0  0  0  0  0  0  0  0
  149.1856  149.9668  130.1751 H   0  0  0  0  0  0  0  0  0  0  0  0
  149.6593  151.6995  130.1751 H   0  0  0  0  0  0  0  0  0  0  0  0
  146.0009  156.6923  132.9259 H   0  0  0  0  0  0  0  0  0  0  0  0
  1  2  1  0
  2  3  1  0
  3  4  2  0
  3  5  1  0
  5  6  2  0
  5  7  1  0
  7  8  1  0
  8  9  1  0
  9 10  1  0
  9 11  2  0
  8 12  2  0
 12 13  1  0
 13 14  2  0
 14 15  1  0
 15 16  2  0
 16 17  1  0
 17 18  1  0
 18 19  1  0
 19 20  1  0
 20 21  2  0
 20 22  1  0
 22 23  1  0
 23 24  1  0
 23 25  1  0
 23 26  1  0
 16 27  1  0
 27 28  2  0
 28  7  1  0
 28 13  1  0
  1 29  1  0
  1 30  1  0
  1 31  1  0
 10 32  1  0
 12 33  1  0
 14 34  1  0
 15 35  1  0
 17 36  1  0
 17 37  1  0
 18 38  1  0
 18 39  1  0
 19 40  1  0
 24 41  1  0
 24 42  1  0
 24 43  1  0
 25 44  1  0
 25 45  1  0
 25 46  1  0
 26 47  1  0
 26 48  1  0
 26 49  1  0
 27 50  1  0
M  CHG  1  10  -1
M  END
>  <UniqueID>  (48) 
48

>  <SMILES>  (48) 
COC(=O)C(=O)n1c(C([NH-])=O)cc2ccc(CCNC(=O)OC(C)(C)C)cc21

>  <Energy>  (48) 
77.00840370368024

>  <Genealogy>  (48) 
COC(=O)C(=O)n1c(C([NH-])=O)cc2ccc(CCNC(=O)OC(C)(C)C)cc21 (protonated)
COC(=O)C(=O)n1c(C([NH-])=O)cc2ccc(CCNC(=O)OC(C)(C)C)cc21 (3D coordinates assigned)
COC(=O)C(=O)n1c(C([NH-])=O)cc2ccc(CCNC(=O)OC(C)(C)C)cc21 (optimized conformer: 77.00840370368024 kcal/mol)

>  <smiles>  (48) 
COC(=O)C(=O)n1c(C(N)=O)cc2ccc(CCNC(=O)OC(C)(C)C)cc21

>  <score_type>  (48) 
oracle

>  <origin>  (48) 
adg

>  <m_score__min__energy>  (48) 
-7.5300000000000002

>  <m_primary>  (48) 
energy

$$$$
49:0
     RDKit          3D

 31 32  0  0  0  0  0  0  0  0999 V2000
  149.6690  156.9790  132.2590 N   0  0  0  0  0  0  0  0  0  0  0  0
  148.6230  156.1400  132.7390 C   0  0  0  0  0  0  0  0  0  0  0  0
  148.8600  154.9250  132.9700 O   0  0  0  0  0  0  0  0  0  0  0  0
  147.2670  156.6930  132.9360 C   0  0  0  0  0  0  0  0  0  0  0  0
  146.1280  155.9110  133.1310 C   0  0  0  0  0  0  0  0  0  0  0  0
  145.1040  156.8070  133.3460 C   0  0  0  0  0  0  0  0  0  0  0  0
  143.7540  156.5850  133.5970 C   0  0  0  0  0  0  0  0  0  0  0  0
  142.9220  157.7060  133.7680 C   0  0  0  0  0  0  0  0  0  0  0  0
  143.4460  159.0220  133.6650 C   0  0  0  0  0  0  0  0  0  0  0  0
  142.5530  160.2150  133.8870 C   0  0  0  0  0  0  0  0  0  0  0  0
  142.0250  160.1570  135.1640 F   0  0  0  0  0  0  0  0  0  0  0  0
  143.2690  161.3920  133.7490 F   0  0  0  0  0  0  0  0  0  0  0  0
  141.5170  160.2290  132.9710 F   0  0  0  0  0  0  0  0  0  0  0  0
  144.8300  159.2040  133.4350 C   0  0  0  0  0  0  0  0  0  0  0  0
  145.6310  158.0690  133.2770 C   0  0  0  0  0  0  0  0  0  0  0  0
  146.9540  158.0160  133.0230 N   0  0  0  0  0  0  0  0  0  0  0  0
  147.8190  159.1410  132.8250 C   0  0  0  0  0  0  0  0  0  0  0  0
  148.7390  159.3770  133.6540 O   0  0  0  0  0  0  0  0  0  0  0  0
  147.5630  160.1070  131.7090 C   0  0  0  0  0  0  0  0  0  0  0  0
  149.0650  160.3040  130.7050 P   0  0  1  0  0  0  0  0  0  0  0  0
  148.8230  159.7690  129.3120 O   0  0  0  0  0  0  0  0  0  0  0  0
  149.4630  161.9450  130.6120 O   0  0  0  0  0  0  0  0  0  0  0  0
  150.3410  159.4570  131.4250 O   0  0  0  0  0  0  0  0  0  0  0  0
  149.9860  157.8090  132.8080 H   0  0  0  0  0  0  0  0  0  0  0  0
  146.0619  154.8131  133.1162 H   0  0  0  0  0  0  0  0  0  0  0  0
  143.3495  155.5640  133.6598 H   0  0  0  0  0  0  0  0  0  0  0  0
  141.8531  157.5618  133.9840 H   0  0  0  0  0  0  0  0  0  0  0  0
  145.2649  160.2130  133.3818 H   0  0  0  0  0  0  0  0  0  0  0  0
  146.7485  159.7253  131.0758 H   0  0  0  0  0  0  0  0  0  0  0  0
  147.2795  161.0821  132.1318 H   0  0  0  0  0  0  0  0  0  0  0  0
  149.9040  158.7430  131.9530 H   0  0  0  0  0  0  0  0  0  0  0  0
  1  2  1  0
  2  3  2  0
  2  4  1  0
  4  5  2  0
  5  6  1  0
  6  7  2  0
  7  8  1  0
  8  9  2  0
  9 10  1  0
 10 11  1  0
 10 12  1  0
 10 13  1  0
  9 14  1  0
 14 15  2  0
 15 16  1  0
 16 17  1  0
 17 18  2  0
 17 19  1  0
 19 20  1  0
 20 21  2  0
 20 22  1  6
 20 23  1  0
 16  4  1  0
 15  6  1  0
  1 24  1  0
  5 25  1  0
  7 26  1  0
  8 27  1  0
 14 28  1  0
 19 29  1  0
 19 30  1  0
 23 31  1  0
M  CHG  2   1  -1  22  -1
M  END
>  <UniqueID>  (49) 
49

>  <SMILES>  (49) 
[NH-]C(=O)c1cc2ccc(C(F)(F)F)cc2n1C(=O)C[P@@](=O)([O-])O

>  <Energy>  (49) 
64.72796861026211

>  <Genealogy>  (49) 
[NH-]C(=O)c1cc2ccc(C(F)(F)F)cc2n1C(=O)CP(=O)([O-])O (protonated)
[NH-]C(=O)c1cc2ccc(C(F)(F)F)cc2n1C(=O)C[P@@](=O)([O-])O (chirality)
[NH-]C(=O)c1cc2ccc(C(F)(F)F)cc2n1C(=O)C[P@@](=O)([O-])O (3D coordinates assigned)
[NH-]C(=O)c1cc2ccc(C(F)(F)F)cc2n1C(=O)C[P@@](=O)([O-])O (optimized conformer: 64.72796861026211 kcal/mol)

>  <smiles>  (49) 
NC(=O)c1cc2ccc(C(F)(F)F)cc2n1C(=O)CP(=O)(O)O

>  <score_type>  (49) 
oracle

>  <origin>  (49) 
adg

>  <m_score__min__energy>  (49) 
-5.6200000000000001

>  <m_primary>  (49) 
energy

$$$$
50:0
     RDKit          3D

 40 41  0  0  0  0  0  0  0  0999 V2000
  149.6290  160.4790  129.8020 C   0  0  0  0  0  0  0  0  0  0  0  0
  149.5610  160.0320  131.0590 C   0  0  0  0  0  0  0  0  0  0  0  0
  148.4170  160.4010  131.9600 C   0  0  0  0  0  0  0  0  0  0  0  0
  147.4460  159.3580  131.9940 O   0  0  0  0  0  0  0  0  0  0  0  0
  147.2480  158.5280  133.1030 C   0  0  0  0  0  0  0  0  0  0  0  0
  148.1600  158.3850  133.9630 O   0  0  0  0  0  0  0  0  0  0  0  0
  145.9900  157.8550  133.2730 N   0  0  0  0  0  0  0  0  0  0  0  0
  144.7590  158.4120  133.4600 C   0  0  0  0  0  0  0  0  0  0  0  0
  144.4770  159.8480  133.6670 C   0  0  0  0  0  0  0  0  0  0  0  0
  145.5540  160.7790  133.7400 N   0  0  0  0  0  0  0  0  0  0  0  0
  143.2920  160.2670  133.7460 O   0  0  0  0  0  0  0  0  0  0  0  0
  143.7800  157.4220  133.5140 C   0  0  0  0  0  0  0  0  0  0  0  0
  144.4540  156.2320  133.3620 C   0  0  0  0  0  0  0  0  0  0  0  0
  143.9690  154.9280  133.3230 C   0  0  0  0  0  0  0  0  0  0  0  0
  144.8920  153.8880  133.1220 C   0  0  0  0  0  0  0  0  0  0  0  0
  146.2740  154.1660  132.9660 C   0  0  0  0  0  0  0  0  0  0  0  0
  147.2070  153.0950  132.7170 N   0  0  0  0  0  0  0  0  0  0  0  0
  148.5840  153.5790  132.8870 C   0  0  0  0  0  0  0  0  0  0  0  0
  149.5930  152.4890  132.5070 C   0  0  0  0  0  0  0  0  0  0  0  0
  149.0160  151.1310  132.7520 C   0  0  0  0  0  0  0  0  0  0  0  0
  149.6090  150.3170  133.5080 O   0  0  0  0  0  0  0  0  0  0  0  0
  147.8480  150.7460  132.1080 O   0  0  0  0  0  0  0  0  0  0  0  0
  146.7260  155.5060  133.0010 C   0  0  0  0  0  0  0  0  0  0  0  0
  145.7860  156.5210  133.2200 C   0  0  0  0  0  0  0  0  0  0  0  0
  150.4773  160.1944  129.1622 H   0  0  0  0  0  0  0  0  0  0  0  0
  148.8367  161.1317  129.4068 H   0  0  0  0  0  0  0  0  0  0  0  0
  150.3596  159.3799  131.4424 H   0  0  0  0  0  0  0  0  0  0  0  0
  148.7991  160.5720  132.9772 H   0  0  0  0  0  0  0  0  0  0  0  0
  147.9418  161.3142  131.5724 H   0  0  0  0  0  0  0  0  0  0  0  0
  146.2300  160.8810  132.9510 H   0  0  0  0  0  0  0  0  0  0  0  0
  142.6974  157.5621  133.6495 H   0  0  0  0  0  0  0  0  0  0  0  0
  142.8962  154.7181  133.4458 H   0  0  0  0  0  0  0  0  0  0  0  0
  144.5390  152.8468  133.0852 H   0  0  0  0  0  0  0  0  0  0  0  0
  147.0220  152.3070  133.3810 H   0  0  0  0  0  0  0  0  0  0  0  0
  147.0760  152.7340  131.7420 H   0  0  0  0  0  0  0  0  0  0  0  0
  148.7404  154.4563  132.2422 H   0  0  0  0  0  0  0  0  0  0  0  0
  148.7360  153.8488  133.9425 H   0  0  0  0  0  0  0  0  0  0  0  0
  149.8474  152.5871  131.4413 H   0  0  0  0  0  0  0  0  0  0  0  0
  150.4949  152.6086  133.1253 H   0  0  0  0  0  0  0  0  0  0  0  0
  147.7903  155.7451  132.8596 H   0  0  0  0  0  0  0  0  0  0  0  0
  1  2  2  0
  2  3  1  0
  3  4  1  0
  4  5  1  0
  5  6  2  0
  5  7  1  0
  7  8  1  0
  8  9  1  0
  9 10  1  0
  9 11  2  0
  8 12  2  0
 12 13  1  0
 13 14  2  0
 14 15  1  0
 15 16  2  0
 16 17  1  0
 17 18  1  0
 18 19  1  0
 19 20  1  0
 20 21  2  0
 20 22  1  0
 16 23  1  0
 23 24  2  0
 24  7  1  0
 24 13  1  0
  1 25  1  0
  1 26  1  0
  2 27  1  0
  3 28  1  0
  3 29  1  0
 10 30  1  0
 12 31  1  0
 14 32  1  0
 15 33  1  0
 17 34  1  0
 17 35  1  0
 18 36  1  0
 18 37  1  0
 19 38  1  0
 19 39  1  0
 23 40  1  0
M  CHG  3  10  -1  17   1  22  -1
M  END
>  <UniqueID>  (50) 
50

>  <SMILES>  (50) 
C=CCOC(=O)n1c(C([NH-])=O)cc2ccc([NH2+]CCC(=O)[O-])cc21

>  <Energy>  (50) 
71.56315761089361

>  <Genealogy>  (50) 
C=CCOC(=O)n1c(C([NH-])=O)cc2ccc([NH2+]CCC(=O)[O-])cc21 (protonated)
C=CCOC(=O)n1c(C([NH-])=O)cc2ccc([NH2+]CCC(=O)[O-])cc21 (3D coordinates assigned)
C=CCOC(=O)n1c(C([NH-])=O)cc2ccc([NH2+]CCC(=O)[O-])cc21 (optimized conformer: 71.56315761089361 kcal/mol)

>  <smiles>  (50) 
C=CCOC(=O)n1c(C(N)=O)cc2ccc(NCCC(=O)O)cc21

>  <score_type>  (50) 
oracle

>  <origin>  (50) 
adg

>  <m_score__min__energy>  (50) 
-6.29

>  <m_primary>  (50) 
energy

$$$$
51:0
     RDKit          3D

 39 40  0  0  0  0  0  0  0  0999 V2000
  142.4220  160.3460  133.3700 N   0  0  0  0  0  0  0  0  0  0  0  0
  143.7790  160.7260  133.6040 C   0  0  0  0  0  0  0  0  0  0  0  0
  144.0360  161.9070  133.9580 O   0  0  0  0  0  0  0  0  0  0  0  0
  144.8780  159.7450  133.4970 C   0  0  0  0  0  0  0  0  0  0  0  0
  146.2240  160.0970  133.5170 C   0  0  0  0  0  0  0  0  0  0  0  0
  146.9120  158.9070  133.4410 C   0  0  0  0  0  0  0  0  0  0  0  0
  148.2810  158.6680  133.3880 C   0  0  0  0  0  0  0  0  0  0  0  0
  148.7140  157.3380  133.2510 C   0  0  0  0  0  0  0  0  0  0  0  0
  147.7780  156.2750  133.1780 C   0  0  0  0  0  0  0  0  0  0  0  0
  148.2520  154.8600  132.9630 C   0  0  0  0  0  0  0  0  0  0  0  0
  148.4550  154.2560  134.1890 F   0  0  0  0  0  0  0  0  0  0  0  0
  149.4400  154.8460  132.2520 F   0  0  0  0  0  0  0  0  0  0  0  0
  147.3140  154.1330  132.2510 F   0  0  0  0  0  0  0  0  0  0  0  0
  146.3930  156.5620  133.2090 C   0  0  0  0  0  0  0  0  0  0  0  0
  145.9910  157.8940  133.3700 C   0  0  0  0  0  0  0  0  0  0  0  0
  144.7350  158.3940  133.4030 N   0  0  0  0  0  0  0  0  0  0  0  0
  143.5160  157.6570  133.2200 C   0  0  0  0  0  0  0  0  0  0  0  0
  143.2520  157.1460  132.0990 O   0  0  0  0  0  0  0  0  0  0  0  0
  142.6250  157.5160  134.2910 O   0  0  0  0  0  0  0  0  0  0  0  0
  142.2290  156.2580  134.8350 C   0  0  0  0  0  0  0  0  0  0  0  0
  140.7000  156.1170  134.8230 C   0  0  0  0  0  0  0  0  0  0  0  0
  139.9930  157.0860  133.8490 C   0  0  2  0  0  0  0  0  0  0  0  0
  140.7690  157.1930  132.6120 N   0  0  0  0  0  0  0  0  0  0  0  0
  139.8340  158.4550  134.4510 C   0  0  0  0  0  0  0  0  0  0  0  0
  139.5240  158.5880  135.6650 O   0  0  0  0  0  0  0  0  0  0  0  0
  140.0790  159.5850  133.6800 O   0  0  0  0  0  0  0  0  0  0  0  0
  142.1550  159.3450  133.2430 H   0  0  0  0  0  0  0  0  0  0  0  0
  141.6640  161.0630  133.4060 H   0  0  0  0  0  0  0  0  0  0  0  0
  146.6479  161.1101  133.5801 H   0  0  0  0  0  0  0  0  0  0  0  0
  149.0033  159.4952  133.4514 H   0  0  0  0  0  0  0  0  0  0  0  0
  149.7908  157.1191  133.1998 H   0  0  0  0  0  0  0  0  0  0  0  0
  145.6492  155.7578  133.1090 H   0  0  0  0  0  0  0  0  0  0  0  0
  142.6706  155.4497  134.2336 H   0  0  0  0  0  0  0  0  0  0  0  0
  142.5811  156.1967  135.8753 H   0  0  0  0  0  0  0  0  0  0  0  0
  140.4488  155.0867  134.5308 H   0  0  0  0  0  0  0  0  0  0  0  0
  140.3470  156.3650  135.8349 H   0  0  0  0  0  0  0  0  0  0  0  0
  138.9920  156.6816  133.6381 H   0  0  0  0  0  0  0  0  0  0  0  0
  141.3140  158.0850  132.6390 H   0  0  0  0  0  0  0  0  0  0  0  0
  141.4810  156.4250  132.6020 H   0  0  0  0  0  0  0  0  0  0  0  0
  1  2  1  0
  2  3  2  0
  2  4  1  0
  4  5  2  0
  5  6  1  0
  6  7  2  0
  7  8  1  0
  8  9  2  0
  9 10  1  0
 10 11  1  0
 10 12  1  0
 10 13  1  0
  9 14  1  0
 14 15  2  0
 15 16  1  0
 16 17  1  0
 17 18  2  0
 17 19  1  0
 19 20  1  0
 20 21  1  0
 21 22  1  0
 22 23  1  0
 22 24  1  0
 24 25  2  0
 24 26  1  0
 16  4  1  0
 15  6  1  0
  1 27  1  0
  1 28  1  0
  5 29  1  0
  7 30  1  0
  8 31  1  0
 14 32  1  0
 20 33  1  0
 20 34  1  0
 21 35  1  0
 21 36  1  0
 22 37  1  6
 23 38  1  0
 23 39  1  0
M  CHG  1  26  -1
M  END
>  <UniqueID>  (51) 
51

>  <SMILES>  (51) 
NC(=O)c1cc2ccc(C(F)(F)F)cc2n1C(=O)OCC[C@H](N)C(=O)[O-]

>  <Energy>  (51) 
74.59763912778345

>  <Genealogy>  (51) 
NC(=O)c1cc2ccc(C(F)(F)F)cc2n1C(=O)OCC[C@H](N)C(=O)[O-] (protonated)
NC(=O)c1cc2ccc(C(F)(F)F)cc2n1C(=O)OCC[C@H](N)C(=O)[O-] (3D coordinates assigned)
NC(=O)c1cc2ccc(C(F)(F)F)cc2n1C(=O)OCC[C@H](N)C(=O)[O-] (optimized conformer: 74.59763912778345 kcal/mol)

>  <smiles>  (51) 
NC(=O)c1cc2ccc(C(F)(F)F)cc2n1C(=O)OCC[C@H](N)C(=O)O

>  <score_type>  (51) 
oracle

>  <origin>  (51) 
adg

>  <m_score__min__energy>  (51) 
-6.3200000000000003

>  <m_primary>  (51) 
energy

$$$$
52:0
     RDKit          3D

 45 47  0  0  0  0  0  0  0  0999 V2000
  143.8290  160.5720  134.0520 C   0  0  0  0  0  0  0  0  0  0  0  0
  142.8520  159.4890  133.8840 N   0  0  0  0  0  0  0  0  0  0  0  0
  143.3510  158.1480  133.7240 C   0  0  0  0  0  0  0  0  0  0  0  0
  143.5040  157.6460  132.5810 O   0  0  0  0  0  0  0  0  0  0  0  0
  143.6840  157.3860  134.8410 O   0  0  0  0  0  0  0  0  0  0  0  0
  141.4380  159.7740  133.9810 C   0  0  0  0  0  0  0  0  0  0  0  0
  140.9890  160.4060  134.9730 O   0  0  0  0  0  0  0  0  0  0  0  0
  140.5090  159.2570  133.0180 N   0  0  0  0  0  0  0  0  0  0  0  0
  140.2530  157.8140  132.9890 C   0  0  0  0  0  0  0  0  0  0  0  0
  139.8350  157.3250  134.3430 C   0  0  0  0  0  0  0  0  0  0  0  0
  138.7230  157.6840  134.8150 O   0  0  0  0  0  0  0  0  0  0  0  0
  140.7110  156.5100  135.1290 N   0  0  0  0  0  0  0  0  0  0  0  0
  141.1220  156.7160  136.4110 C   0  0  0  0  0  0  0  0  0  0  0  0
  140.9300  157.9550  137.1930 C   0  0  0  0  0  0  0  0  0  0  0  0
  140.0260  158.9690  136.7610 N   0  0  0  0  0  0  0  0  0  0  0  0
  141.6150  158.1460  138.2300 O   0  0  0  0  0  0  0  0  0  0  0  0
  141.8420  155.6180  136.8770 C   0  0  0  0  0  0  0  0  0  0  0  0
  141.8790  154.7330  135.8230 C   0  0  0  0  0  0  0  0  0  0  0  0
  142.4800  153.4810  135.7210 C   0  0  0  0  0  0  0  0  0  0  0  0
  142.3590  152.7900  134.5040 C   0  0  0  0  0  0  0  0  0  0  0  0
  141.6430  153.3530  133.4260 C   0  0  0  0  0  0  0  0  0  0  0  0
  141.5300  152.6430  132.1900 N   0  0  0  0  0  0  0  0  0  0  0  0
  141.0430  154.6250  133.5630 C   0  0  0  0  0  0  0  0  0  0  0  0
  141.1910  155.2970  134.7800 C   0  0  0  0  0  0  0  0  0  0  0  0
  139.7450  160.1480  132.1310 C   0  0  0  0  0  0  0  0  0  0  0  0
  138.3350  159.7080  131.7580 C   0  0  0  0  0  0  0  0  0  0  0  0
  139.4730  159.5200  130.7720 C   0  0  0  0  0  0  0  0  0  0  0  0
  143.9935  160.7544  135.1242 H   0  0  0  0  0  0  0  0  0  0  0  0
  144.7796  160.2849  133.5788 H   0  0  0  0  0  0  0  0  0  0  0  0
  143.4458  161.4881  133.5788 H   0  0  0  0  0  0  0  0  0  0  0  0
  139.4517  157.6035  132.2654 H   0  0  0  0  0  0  0  0  0  0  0  0
  141.1775  157.2957  132.6946 H   0  0  0  0  0  0  0  0  0  0  0  0
  139.5840  158.9340  135.8180 H   0  0  0  0  0  0  0  0  0  0  0  0
  139.8720  159.8160  137.3450 H   0  0  0  0  0  0  0  0  0  0  0  0
  142.2863  155.4862  137.8746 H   0  0  0  0  0  0  0  0  0  0  0  0
  143.0324  153.0466  136.5672 H   0  0  0  0  0  0  0  0  0  0  0  0
  142.8266  151.8009  134.3902 H   0  0  0  0  0  0  0  0  0  0  0  0
  142.3740  152.4680  131.5980 H   0  0  0  0  0  0  0  0  0  0  0  0
  140.6030  152.3040  131.8520 H   0  0  0  0  0  0  0  0  0  0  0  0
  140.4751  155.0741  132.7349 H   0  0  0  0  0  0  0  0  0  0  0  0
  140.1659  161.0885  132.5160 H   0  0  0  0  0  0  0  0  0  0  0  0
  137.8836  158.8338  132.2499 H   0  0  0  0  0  0  0  0  0  0  0  0
  137.3507  160.1980  131.7251 H   0  0  0  0  0  0  0  0  0  0  0  0
  139.8457  158.5093  130.5492 H   0  0  0  0  0  0  0  0  0  0  0  0
  139.6539  159.8175  129.7286 H   0  0  0  0  0  0  0  0  0  0  0  0
  1  2  1  0
  2  3  1  0
  3  4  2  0
  3  5  1  0
  2  6  1  0
  6  7  2  0
  6  8  1  0
  8  9  1  0
  9 10  1  0
 10 11  2  0
 10 12  1  0
 12 13  1  0
 13 14  1  0
 14 15  1  0
 14 16  2  0
 13 17  2  0
 17 18  1  0
 18 19  2  0
 19 20  1  0
 20 21  2  0
 21 22  1  0
 21 23  1  0
 23 24  2  0
  8 25  1  0
 25 26  1  0
 26 27  1  0
 24 12  1  0
 27 25  1  0
 24 18  1  0
  1 28  1  0
  1 29  1  0
  1 30  1  0
  9 31  1  0
  9 32  1  0
 15 33  1  0
 15 34  1  0
 17 35  1  0
 19 36  1  0
 20 37  1  0
 22 38  1  0
 22 39  1  0
 23 40  1  0
 25 41  1  0
 26 42  1  0
 26 43  1  0
 27 44  1  0
 27 45  1  0
M  CHG  1   5  -1
M  END
>  <UniqueID>  (52) 
52

>  <SMILES>  (52) 
CN(C(=O)[O-])C(=O)N(CC(=O)n1c(C(N)=O)cc2ccc(N)cc21)C1CC1

>  <Energy>  (52) 
358.0114270803327

>  <Genealogy>  (52) 
CN(C(=O)[O-])C(=O)N(CC(=O)n1c(C(N)=O)cc2ccc(N)cc21)C1CC1 (protonated)
CN(C(=O)[O-])C(=O)N(CC(=O)n1c(C(N)=O)cc2ccc(N)cc21)C1CC1 (3D coordinates assigned)
CN(C(=O)[O-])C(=O)N(CC(=O)n1c(C(N)=O)cc2ccc(N)cc21)C1CC1 (nonaromatic ring conformer: 358.0114270803327 kcal/mol)

>  <smiles>  (52) 
CN(C(=O)O)C(=O)N(CC(=O)n1c(C(N)=O)cc2ccc(N)cc21)C1CC1

>  <score_type>  (52) 
oracle

>  <origin>  (52) 
adg

>  <m_score__min__energy>  (52) 
-7.2400000000000002

>  <m_primary>  (52) 
energy

$$$$
53:0
     RDKit          3D

 55 56  0  0  0  0  0  0  0  0999 V2000
  139.0200  160.9790  130.2480 C   0  0  0  0  0  0  0  0  0  0  0  0
  139.1060  159.9150  131.2990 C   0  0  0  0  0  0  0  0  0  0  0  0
  137.9470  159.1830  131.6500 C   0  0  0  0  0  0  0  0  0  0  0  0
  137.9860  158.2380  132.6770 C   0  0  0  0  0  0  0  0  0  0  0  0
  139.1910  158.0490  133.3410 C   0  0  0  0  0  0  0  0  0  0  0  0
  139.4600  157.2570  134.4180 C   0  0  0  0  0  0  0  0  0  0  0  0
  140.7830  157.5070  134.7440 C   0  0  0  0  0  0  0  0  0  0  0  0
  141.3330  157.0080  136.0140 C   0  0  0  0  0  0  0  0  0  0  0  0
  142.5210  156.2170  135.9900 N   0  0  0  0  0  0  0  0  0  0  0  0
  140.6940  157.1410  137.0890 O   0  0  0  0  0  0  0  0  0  0  0  0
  141.3620  158.3800  133.8590 N   0  0  0  0  0  0  0  0  0  0  0  0
  142.7710  158.7020  133.6600 C   0  0  0  0  0  0  0  0  0  0  0  0
  143.2390  159.7480  134.1870 O   0  0  0  0  0  0  0  0  0  0  0  0
  143.7180  157.8930  132.7730 C   0  0  2  0  0  0  0  0  0  0  0  0
  143.5080  156.4500  132.9600 N   0  0  0  0  0  0  0  0  0  0  0  0
  145.1760  158.2190  133.0250 C   0  0  0  0  0  0  0  0  0  0  0  0
  145.6990  159.1660  132.4590 O   0  0  0  0  0  0  0  0  0  0  0  0
  145.8990  157.4960  134.1370 C   0  0  0  0  0  0  0  0  0  0  0  0
  146.5310  156.2540  133.6610 N   0  0  0  0  0  0  0  0  0  0  0  0
  147.7930  156.3320  132.9270 C   0  0  0  0  0  0  0  0  0  0  0  0
  146.0250  154.9630  134.0590 C   0  0  0  0  0  0  0  0  0  0  0  0
  146.7790  153.9460  133.9870 O   0  0  0  0  0  0  0  0  0  0  0  0
  144.7430  154.8440  134.6090 O   0  0  0  0  0  0  0  0  0  0  0  0
  144.3540  153.7060  135.3770 C   0  0  0  0  0  0  0  0  0  0  0  0
  142.8590  153.4250  135.2190 C   0  0  0  0  0  0  0  0  0  0  0  0
  142.2700  153.8220  133.5790 S   0  0  0  0  0  0  0  0  0  0  0  0
  141.2730  152.4790  132.9670 C   0  0  0  0  0  0  0  0  0  0  0  0
  141.4270  155.0680  133.6230 O   0  0  0  0  0  0  0  0  0  0  0  0
  143.4360  154.0290  132.6520 O   0  0  0  0  0  0  0  0  0  0  0  0
  140.3380  158.7340  133.0230 C   0  0  0  0  0  0  0  0  0  0  0  0
  140.3110  159.7080  132.0090 C   0  0  0  0  0  0  0  0  0  0  0  0
  138.9403  161.9647  130.7298 H   0  0  0  0  0  0  0  0  0  0  0  0
  139.9235  160.9492  129.6212 H   0  0  0  0  0  0  0  0  0  0  0  0
  138.1330  160.8045  129.6212 H   0  0  0  0  0  0  0  0  0  0  0  0
  137.0061  159.3602  131.1084 H   0  0  0  0  0  0  0  0  0  0  0  0
  137.0904  157.6613  132.9516 H   0  0  0  0  0  0  0  0  0  0  0  0
  138.7704  156.5642  134.9226 H   0  0  0  0  0  0  0  0  0  0  0  0
  142.8450  155.7130  135.1290 H   0  0  0  0  0  0  0  0  0  0  0  0
  143.4806  158.1746  131.7365 H   0  0  0  0  0  0  0  0  0  0  0  0
  143.1950  156.2510  133.9390 H   0  0  0  0  0  0  0  0  0  0  0  0
  142.7830  156.0940  132.2920 H   0  0  0  0  0  0  0  0  0  0  0  0
  144.4030  155.9300  132.8110 H   0  0  0  0  0  0  0  0  0  0  0  0
  146.6771  158.1578  134.5451 H   0  0  0  0  0  0  0  0  0  0  0  0
  145.1614  157.2305  134.9087 H   0  0  0  0  0  0  0  0  0  0  0  0
  148.6292  156.3837  133.6398 H   0  0  0  0  0  0  0  0  0  0  0  0
  147.9051  155.4391  132.2945 H   0  0  0  0  0  0  0  0  0  0  0  0
  147.7943  157.2319  132.2945 H   0  0  0  0  0  0  0  0  0  0  0  0
  144.9232  152.8291  135.0349 H   0  0  0  0  0  0  0  0  0  0  0  0
  144.5627  153.9102  136.4375 H   0  0  0  0  0  0  0  0  0  0  0  0
  142.6763  152.3577  135.4128 H   0  0  0  0  0  0  0  0  0  0  0  0
  142.3174  154.0593  135.9362 H   0  0  0  0  0  0  0  0  0  0  0  0
  140.8553  151.9164  133.8149 H   0  0  0  0  0  0  0  0  0  0  0  0
  140.4528  152.8809  132.3540 H   0  0  0  0  0  0  0  0  0  0  0  0
  141.8951  151.8102  132.3540 H   0  0  0  0  0  0  0  0  0  0  0  0
  141.2095  160.2971  131.7729 H   0  0  0  0  0  0  0  0  0  0  0  0
  1  2  1  0
  2  3  2  0
  3  4  1  0
  4  5  2  0
  5  6  1  0
  6  7  2  0
  7  8  1  0
  8  9  1  0
  8 10  2  0
  7 11  1  0
 11 12  1  0
 12 13  2  0
 12 14  1  0
 14 15  1  0
 14 16  1  0
 16 17  2  0
 16 18  1  0
 18 19  1  0
 19 20  1  0
 19 21  1  0
 21 22  2  0
 21 23  1  0
 23 24  1  0
 24 25  1  0
 25 26  1  0
 26 27  1  0
 26 28  2  0
 26 29  2  0
 11 30  1  0
 30 31  2  0
 31  2  1  0
 30  5  1  0
  1 32  1  0
  1 33  1  0
  1 34  1  0
  3 35  1  0
  4 36  1  0
  6 37  1  0
  9 38  1  0
 14 39  1  6
 15 40  1  0
 15 41  1  0
 15 42  1  0
 18 43  1  0
 18 44  1  0
 20 45  1  0
 20 46  1  0
 20 47  1  0
 24 48  1  0
 24 49  1  0
 25 50  1  0
 25 51  1  0
 27 52  1  0
 27 53  1  0
 27 54  1  0
 31 55  1  0
M  CHG  2   9  -1  15   1
M  END
>  <UniqueID>  (53) 
53

>  <SMILES>  (53) 
Cc1ccc2cc(C([NH-])=O)n(C(=O)[C@H]([NH3+])C(=O)CN(C)C(=O)OCCS(C)(=O)=O)c2c1

>  <Energy>  (53) 
91.31259101917782

>  <Genealogy>  (53) 
Cc1ccc2cc(C([NH-])=O)n(C(=O)C([NH3+])C(=O)CN(C)C(=O)OCCS(C)(=O)=O)c2c1 (protonated)
Cc1ccc2cc(C([NH-])=O)n(C(=O)[C@H]([NH3+])C(=O)CN(C)C(=O)OCCS(C)(=O)=O)c2c1 (chirality)
Cc1ccc2cc(C([NH-])=O)n(C(=O)[C@H]([NH3+])C(=O)CN(C)C(=O)OCCS(C)(=O)=O)c2c1 (3D coordinates assigned)
Cc1ccc2cc(C([NH-])=O)n(C(=O)[C@H]([NH3+])C(=O)CN(C)C(=O)OCCS(C)(=O)=O)c2c1 (optimized conformer: 91.31259101917782 kcal/mol)

>  <smiles>  (53) 
Cc1ccc2cc(C(N)=O)n(C(=O)C(N)C(=O)CN(C)C(=O)OCCS(C)(=O)=O)c2c1

>  <score_type>  (53) 
oracle

>  <origin>  (53) 
adg

>  <m_score__min__energy>  (53) 
-8.0999999999999996

>  <m_primary>  (53) 
energy

$$$$
54:0
     RDKit          3D

 39 40  0  0  0  0  0  0  0  0999 V2000
  139.9560  158.3840  132.5840 C   0  0  0  0  0  0  0  0  0  0  0  0
  140.6100  157.6820  133.5200 C   0  0  0  0  0  0  0  0  0  0  0  0
  140.3030  156.2440  133.7160 C   0  0  0  0  0  0  0  0  0  0  0  0
  140.5990  155.6650  134.7960 O   0  0  0  0  0  0  0  0  0  0  0  0
  139.6970  155.5080  132.7050 O   0  0  0  0  0  0  0  0  0  0  0  0
  141.6340  158.3530  134.3620 C   0  0  0  0  0  0  0  0  0  0  0  0
  141.2840  158.9740  135.4020 O   0  0  0  0  0  0  0  0  0  0  0  0
  143.0240  158.3310  133.9980 N   0  0  0  0  0  0  0  0  0  0  0  0
  143.8280  159.3930  133.7110 C   0  0  0  0  0  0  0  0  0  0  0  0
  143.4620  160.8190  133.8500 C   0  0  0  0  0  0  0  0  0  0  0  0
  142.1090  161.2460  133.7240 N   0  0  0  0  0  0  0  0  0  0  0  0
  144.3540  161.6690  134.1150 O   0  0  0  0  0  0  0  0  0  0  0  0
  145.0920  158.9550  133.3200 C   0  0  0  0  0  0  0  0  0  0  0  0
  145.0360  157.5810  133.3760 C   0  0  0  0  0  0  0  0  0  0  0  0
  146.0090  156.6310  133.0860 C   0  0  0  0  0  0  0  0  0  0  0  0
  145.6660  155.2750  133.2180 C   0  0  0  0  0  0  0  0  0  0  0  0
  144.3620  154.8890  133.6290 C   0  0  0  0  0  0  0  0  0  0  0  0
  144.0280  153.4920  133.7750 N   0  0  0  0  0  0  0  0  0  0  0  0
  144.6260  152.5110  132.8630 C   0  0  0  0  0  0  0  0  0  0  0  0
  143.1030  153.0430  134.8280 C   0  0  0  0  0  0  0  0  0  0  0  0
  141.7700  152.0240  134.1170 P   0  0  1  0  0  0  0  0  0  0  0  0
  142.3550  151.0600  133.1090 O   0  0  0  0  0  0  0  0  0  0  0  0
  140.9900  151.1520  135.3380 O   0  0  0  0  0  0  0  0  0  0  0  0
  140.6440  153.0270  133.3500 O   0  0  0  0  0  0  0  0  0  0  0  0
  143.3990  155.8900  133.9000 C   0  0  0  0  0  0  0  0  0  0  0  0
  143.7770  157.2310  133.7820 C   0  0  0  0  0  0  0  0  0  0  0  0
  140.1828  159.4504  132.4377 H   0  0  0  0  0  0  0  0  0  0  0  0
  139.1925  157.8937  131.9621 H   0  0  0  0  0  0  0  0  0  0  0  0
  141.3610  160.8470  134.3340 H   0  0  0  0  0  0  0  0  0  0  0  0
  145.9520  159.5758  133.0285 H   0  0  0  0  0  0  0  0  0  0  0  0
  147.0165  156.9319  132.7631 H   0  0  0  0  0  0  0  0  0  0  0  0
  146.4173  154.5016  133.0002 H   0  0  0  0  0  0  0  0  0  0  0  0
  145.1111  151.7152  133.4473 H   0  0  0  0  0  0  0  0  0  0  0  0
  143.8408  152.0736  132.2289 H   0  0  0  0  0  0  0  0  0  0  0  0
  145.3746  153.0085  132.2289 H   0  0  0  0  0  0  0  0  0  0  0  0
  143.6584  152.4474  135.5675 H   0  0  0  0  0  0  0  0  0  0  0  0
  142.6569  153.9260  135.3090 H   0  0  0  0  0  0  0  0  0  0  0  0
  140.8920  153.9450  133.6260 H   0  0  0  0  0  0  0  0  0  0  0  0
  142.3752  155.6189  134.1971 H   0  0  0  0  0  0  0  0  0  0  0  0
  1  2  2  0
  2  3  1  0
  3  4  2  0
  3  5  1  0
  2  6  1  0
  6  7  2  0
  6  8  1  0
  8  9  1  0
  9 10  1  0
 10 11  1  0
 10 12  2  0
  9 13  2  0
 13 14  1  0
 14 15  2  0
 15 16  1  0
 16 17  2  0
 17 18  1  0
 18 19  1  0
 18 20  1  0
 20 21  1  0
 21 22  2  0
 21 23  1  1
 21 24  1  0
 17 25  1  0
 25 26  2  0
 26  8  1  0
 26 14  1  0
  1 27  1  0
  1 28  1  0
 11 29  1  0
 13 30  1  0
 15 31  1  0
 16 32  1  0
 19 33  1  0
 19 34  1  0
 19 35  1  0
 20 36  1  0
 20 37  1  0
 24 38  1  0
 25 39  1  0
M  CHG  3   5  -1  11  -1  23  -1
M  END
>  <UniqueID>  (54) 
54

>  <SMILES>  (54) 
C=C(C(=O)[O-])C(=O)n1c(C([NH-])=O)cc2ccc(N(C)C[P@@](=O)([O-])O)cc21

>  <Energy>  (54) 
76.86096970797239

>  <Genealogy>  (54) 
C=C(C(=O)[O-])C(=O)n1c(C([NH-])=O)cc2ccc(N(C)CP(=O)([O-])O)cc21 (protonated)
C=C(C(=O)[O-])C(=O)n1c(C([NH-])=O)cc2ccc(N(C)C[P@@](=O)([O-])O)cc21 (chirality)
C=C(C(=O)[O-])C(=O)n1c(C([NH-])=O)cc2ccc(N(C)C[P@@](=O)([O-])O)cc21 (3D coordinates assigned)
C=C(C(=O)[O-])C(=O)n1c(C([NH-])=O)cc2ccc(N(C)C[P@@](=O)([O-])O)cc21 (optimized conformer: 76.86096970797239 kcal/mol)

>  <smiles>  (54) 
C=C(C(=O)O)C(=O)n1c(C(N)=O)cc2ccc(N(C)CP(=O)(O)O)cc21

>  <score_type>  (54) 
oracle

>  <origin>  (54) 
adg

>  <m_score__min__energy>  (54) 
-6.7800000000000002

>  <m_primary>  (54) 
energy

$$$$
55:0
     RDKit          3D

 44 46  0  0  0  0  0  0  0  0999 V2000
  138.6660  158.3190  131.9160 C   0  0  0  0  0  0  0  0  0  0  0  0
  139.4730  157.8150  133.0740 C   0  0  0  0  0  0  0  0  0  0  0  0
  139.5410  158.5650  134.2730 C   0  0  0  0  0  0  0  0  0  0  0  0
  140.2470  158.0740  135.3840 C   0  0  0  0  0  0  0  0  0  0  0  0
  140.8670  156.8330  135.2690 C   0  0  0  0  0  0  0  0  0  0  0  0
  141.5770  156.1070  136.1980 C   0  0  0  0  0  0  0  0  0  0  0  0
  141.9380  154.9270  135.5490 C   0  0  0  0  0  0  0  0  0  0  0  0
  142.7940  153.8810  136.1510 C   0  0  0  0  0  0  0  0  0  0  0  0
  143.9610  154.2320  136.8960 N   0  0  0  0  0  0  0  0  0  0  0  0
  142.5180  152.6630  135.9820 O   0  0  0  0  0  0  0  0  0  0  0  0
  141.4680  154.9250  134.2680 N   0  0  0  0  0  0  0  0  0  0  0  0
  141.5600  153.8670  133.3010 C   0  0  0  0  0  0  0  0  0  0  0  0
  140.5470  153.5480  132.6200 O   0  0  0  0  0  0  0  0  0  0  0  0
  142.7780  153.2050  133.1080 O   0  0  0  0  0  0  0  0  0  0  0  0
  143.8570  153.7600  132.3610 C   0  0  0  0  0  0  0  0  0  0  0  0
  144.7890  154.4470  133.2590 N   0  0  0  0  0  0  0  0  0  0  0  0
  145.7920  153.8430  133.9300 C   0  0  0  0  0  0  0  0  0  0  0  0
  146.4480  154.8110  134.6740 C   0  0  0  0  0  0  0  0  0  0  0  0
  147.5600  154.6570  135.5710 N   0  0  0  0  0  0  0  0  0  0  0  0
  147.6000  153.7820  136.7080 C   0  0  0  0  0  0  0  0  0  0  0  0
  146.6460  153.0050  136.9720 O   0  0  0  0  0  0  0  0  0  0  0  0
  148.7230  153.7790  137.5260 O   0  0  0  0  0  0  0  0  0  0  0  0
  145.7980  156.0000  134.4080 C   0  0  0  0  0  0  0  0  0  0  0  0
  144.7980  155.7460  133.5410 N   0  0  0  0  0  0  0  0  0  0  0  0
  143.8770  156.7450  133.0020 C   0  0  0  0  0  0  0  0  0  0  0  0
  140.8150  156.0970  134.1130 C   0  0  0  0  0  0  0  0  0  0  0  0
  140.1040  156.5550  132.9970 C   0  0  0  0  0  0  0  0  0  0  0  0
  137.7889  158.8668  132.2911 H   0  0  0  0  0  0  0  0  0  0  0  0
  139.2841  158.9919  131.3035 H   0  0  0  0  0  0  0  0  0  0  0  0
  138.3326  157.4683  131.3035 H   0  0  0  0  0  0  0  0  0  0  0  0
  139.0367  159.5406  134.3352 H   0  0  0  0  0  0  0  0  0  0  0  0
  140.3080  158.6531  136.3172 H   0  0  0  0  0  0  0  0  0  0  0  0
  141.8102  156.3964  137.2333 H   0  0  0  0  0  0  0  0  0  0  0  0
  144.1950  155.2270  137.1050 H   0  0  0  0  0  0  0  0  0  0  0  0
  144.5830  153.4840  137.2780 H   0  0  0  0  0  0  0  0  0  0  0  0
  144.3874  152.9535  131.8336 H   0  0  0  0  0  0  0  0  0  0  0  0
  143.4580  154.4827  131.6341 H   0  0  0  0  0  0  0  0  0  0  0  0
  146.0441  152.7729  133.8930 H   0  0  0  0  0  0  0  0  0  0  0  0
  148.4110  155.2330  135.3840 H   0  0  0  0  0  0  0  0  0  0  0  0
  146.0522  156.9834  134.8303 H   0  0  0  0  0  0  0  0  0  0  0  0
  143.3868  157.2767  133.8308 H   0  0  0  0  0  0  0  0  0  0  0  0
  144.4359  157.4638  132.3848 H   0  0  0  0  0  0  0  0  0  0  0  0
  143.1152  156.2462  132.3848 H   0  0  0  0  0  0  0  0  0  0  0  0
  140.0389  155.9474  132.0824 H   0  0  0  0  0  0  0  0  0  0  0  0
  1  2  1  0
  2  3  2  0
  3  4  1  0
  4  5  2  0
  5  6  1  0
  6  7  2  0
  7  8  1  0
  8  9  1  0
  8 10  2  0
  7 11  1  0
 11 12  1  0
 12 13  2  0
 12 14  1  0
 14 15  1  0
 15 16  1  0
 16 17  2  0
 17 18  1  0
 18 19  1  0
 19 20  1  0
 20 21  2  0
 20 22  1  0
 18 23  2  0
 23 24  1  0
 24 25  1  0
 11 26  1  0
 26 27  2  0
 27  2  1  0
 26  5  1  0
 24 16  1  0
  1 28  1  0
  1 29  1  0
  1 30  1  0
  3 31  1  0
  4 32  1  0
  6 33  1  0
  9 34  1  0
  9 35  1  0
 15 36  1  0
 15 37  1  0
 17 38  1  0
 19 39  1  0
 23 40  1  0
 25 41  1  0
 25 42  1  0
 25 43  1  0
 27 44  1  0
M  CHG  2  16   1  22  -1
M  END
>  <UniqueID>  (55) 
55

>  <SMILES>  (55) 
Cc1ccc2cc(C(N)=O)n(C(=O)OC[n+]3cc(NC(=O)[O-])cn3C)c2c1

>  <Energy>  (55) 
114.11661746765203

>  <Genealogy>  (55) 
Cc1ccc2cc(C(N)=O)n(C(=O)OC[n+]3cc(NC(=O)[O-])cn3C)c2c1 (protonated)
Cc1ccc2cc(C(N)=O)n(C(=O)OC[n+]3cc(NC(=O)[O-])cn3C)c2c1 (3D coordinates assigned)
Cc1ccc2cc(C(N)=O)n(C(=O)OC[n+]3cc(NC(=O)[O-])cn3C)c2c1 (optimized conformer: 114.11661746765203 kcal/mol)

>  <smiles>  (55) 
Cc1ccc2cc(C(N)=O)n(C(=O)OC[n+]3cc(NC(=O)O)cn3C)c2c1

>  <score_type>  (55) 
oracle

>  <origin>  (55) 
adg

>  <m_score__min__energy>  (55) 
-7.5999999999999996

>  <m_primary>  (55) 
energy

$$$$
56:0
     RDKit          3D

 45 46  0  0  0  0  0  0  0  0999 V2000
  140.3520  160.7560  133.4320 H   0  0  0  0  0  0  0  0  0  0  0  0
  139.8540  160.4350  132.5730 N   0  0  0  0  0  0  0  0  0  0  0  0
  139.1790  159.1800  132.5420 C   0  0  0  0  0  0  0  0  0  0  0  0
  138.0470  159.1020  131.9950 O   0  0  0  0  0  0  0  0  0  0  0  0
  139.8100  157.9630  133.0940 C   0  0  0  0  0  0  0  0  0  0  0  0
  139.4900  156.6720  132.6740 C   0  0  0  0  0  0  0  0  0  0  0  0
  138.7127  156.3789  131.9530 H   0  0  0  0  0  0  0  0  0  0  0  0
  140.3530  155.8430  133.3530 C   0  0  0  0  0  0  0  0  0  0  0  0
  140.4810  154.4580  133.3170 C   0  0  0  0  0  0  0  0  0  0  0  0
  139.8399  153.8460  132.6655 H   0  0  0  0  0  0  0  0  0  0  0  0
  141.4550  153.8650  134.1390 C   0  0  0  0  0  0  0  0  0  0  0  0
  141.5903  152.7735  134.1229 H   0  0  0  0  0  0  0  0  0  0  0  0
  142.2640  154.6600  134.9880 C   0  0  0  0  0  0  0  0  0  0  0  0
  143.3200  154.0180  135.8370 C   0  0  0  0  0  0  0  0  0  0  0  0
  143.0765  154.1661  136.8994 H   0  0  0  0  0  0  0  0  0  0  0  0
  143.3626  152.9410  135.6172 H   0  0  0  0  0  0  0  0  0  0  0  0
  144.2957  154.4759  135.6172 H   0  0  0  0  0  0  0  0  0  0  0  0
  142.1160  156.0640  134.9880 C   0  0  0  0  0  0  0  0  0  0  0  0
  142.7447  156.6982  135.6303 H   0  0  0  0  0  0  0  0  0  0  0  0
  141.1480  156.6270  134.1490 C   0  0  0  0  0  0  0  0  0  0  0  0
  140.8230  157.9300  134.0050 N   0  0  0  0  0  0  0  0  0  0  0  0
  141.3950  159.0260  134.7350 C   0  0  0  0  0  0  0  0  0  0  0  0
  140.6380  159.8180  135.3610 O   0  0  0  0  0  0  0  0  0  0  0  0
  142.8540  159.2510  134.7080 C   0  0  0  0  0  0  0  0  0  0  0  0
  143.3417  159.6741  135.5986 H   0  0  0  0  0  0  0  0  0  0  0  0
  143.6040  158.9590  133.6400 C   0  0  0  0  0  0  0  0  0  0  0  0
  143.1196  158.5223  132.7542 H   0  0  0  0  0  0  0  0  0  0  0  0
  145.0620  159.2030  133.6090 C   0  0  0  0  0  0  0  0  0  0  0  0
  145.5040  160.3840  133.6720 O   0  0  0  0  0  0  0  0  0  0  0  0
  145.9860  158.1080  133.4560 N   0  0  0  0  0  0  0  0  0  0  0  0
  145.6630  156.7860  133.9290 C   0  0  0  0  0  0  0  0  0  0  0  0
  144.8660  156.0540  133.2800 O   0  0  0  0  0  0  0  0  0  0  0  0
  146.2100  156.3260  135.1310 O   0  0  0  0  0  0  0  0  0  0  0  0
  146.8060  155.0390  135.2660 C   0  0  0  0  0  0  0  0  0  0  0  0
  146.0214  154.2949  135.4678 H   0  0  0  0  0  0  0  0  0  0  0  0
  147.3316  154.7878  134.3329 H   0  0  0  0  0  0  0  0  0  0  0  0
  147.7310  155.0390  136.3280 O   0  0  0  0  0  0  0  0  0  0  0  0
  147.4520  153.6700  137.3120 P   0  0  0  0  0  0  0  0  0  0  0  0
  146.1670  152.9860  136.9010 O   0  0  0  0  0  0  0  0  0  0  0  0
  147.3590  154.1170  138.9410 O   0  0  0  0  0  0  0  0  0  0  0  0
  148.7370  152.5880  137.1150 O   0  0  0  0  0  0  0  0  0  0  0  0
  147.3530  158.3860  133.0060 C   0  0  0  0  0  0  0  0  0  0  0  0
  148.0070  158.5190  133.8804 H   0  0  0  0  0  0  0  0  0  0  0  0
  147.7179  157.5437  132.3999 H   0  0  0  0  0  0  0  0  0  0  0  0
  147.3600  159.3039  132.3999 H   0  0  0  0  0  0  0  0  0  0  0  0
  1  2  1  0
  2  3  1  0
  3  4  2  0
  3  5  1  0
  5  6  2  0
  6  7  1  0
  6  8  1  0
  8  9  2  0
  9 10  1  0
  9 11  1  0
 11 12  1  0
 11 13  2  0
 13 14  1  0
 14 15  1  0
 14 16  1  0
 14 17  1  0
 13 18  1  0
 18 19  1  0
 18 20  2  0
 20 21  1  0
 21 22  1  0
 22 23  2  0
 22 24  1  0
 24 25  1  0
 24 26  2  0
 26 27  1  0
 26 28  1  0
 28 29  2  0
 28 30  1  0
 30 31  1  0
 31 32  2  0
 31 33  1  0
 33 34  1  0
 34 35  1  0
 34 36  1  0
 34 37  1  0
 37 38  1  0
 38 39  2  0
 38 40  1  0
 38 41  1  0
 30 42  1  0
 42 43  1  0
 42 44  1  0
 42 45  1  0
 21  5  1  0
 20  8  1  0
M  CHG  3   2  -1  40  -1  41  -1
M  END
>  <UniqueID>  (56) 
56

>  <SMILES>  (56) 
Cc1ccc2cc(C([NH-])=O)n(C(=O)/C=C/C(=O)N(C)C(=O)OCOP(=O)([O-])[O-])c2c1

>  <Energy>  (56) 
83.88947650824716

>  <Genealogy>  (56) 
Cc1ccc2cc(C([NH-])=O)n(C(=O)/C=C/C(=O)N(C)C(=O)OCOP(=O)([O-])[O-])c2c1 (protonated)
Cc1ccc2cc(C([NH-])=O)n(C(=O)/C=C/C(=O)N(C)C(=O)OCOP(=O)([O-])[O-])c2c1 (cis-trans isomerization)
Cc1ccc2cc(C([NH-])=O)n(C(=O)/C=C/C(=O)N(C)C(=O)OCOP(=O)([O-])[O-])c2c1 (3D coordinates assigned)
Cc1ccc2cc(C([NH-])=O)n(C(=O)/C=C/C(=O)N(C)C(=O)OCOP(=O)([O-])[O-])c2c1 (optimized conformer: 83.88947650824716 kcal/mol)

>  <smiles>  (56) 
Cc1ccc2cc(C(N)=O)n(C(=O)/C=C/C(=O)N(C)C(=O)OCOP(=O)(O)O)c2c1

>  <score_type>  (56) 
oracle

>  <origin>  (56) 
adg

>  <m_score__min__energy>  (56) 
-8

>  <m_primary>  (56) 
energy

$$$$
57:0
     RDKit          3D

 48 50  0  0  0  0  0  0  0  0999 V2000
  140.6160  159.8080  133.6860 C   0  0  0  0  0  0  0  0  0  0  0  0
  139.8740  159.4650  132.3870 C   0  0  2  0  0  0  0  0  0  0  0  0
  140.7250  158.6870  131.5710 O   0  0  0  0  0  0  0  0  0  0  0  0
  139.4660  160.7450  131.6520 C   0  0  0  0  0  0  0  0  0  0  0  0
  138.1730  160.3890  130.9480 C   0  0  0  0  0  0  0  0  0  0  0  0
  137.6420  159.1460  131.6580 C   0  0  0  0  0  0  0  0  0  0  0  0
  138.6130  158.7620  132.6970 N   0  0  0  0  0  0  0  0  0  0  0  0
  138.7540  157.2970  132.8480 C   0  0  0  0  0  0  0  0  0  0  0  0
  139.5890  156.9640  134.0870 C   0  0  0  0  0  0  0  0  0  0  0  0
  140.7730  156.2630  133.7130 O   0  0  0  0  0  0  0  0  0  0  0  0
  140.7680  154.9650  133.1880 C   0  0  0  0  0  0  0  0  0  0  0  0
  139.6800  154.4020  132.8880 O   0  0  0  0  0  0  0  0  0  0  0  0
  142.0110  154.2680  133.0070 N   0  0  0  0  0  0  0  0  0  0  0  0
  143.2430  154.8030  132.7720 C   0  0  0  0  0  0  0  0  0  0  0  0
  143.5710  156.2460  132.8000 C   0  0  0  0  0  0  0  0  0  0  0  0
  142.6780  157.2080  132.2360 N   0  0  0  0  0  0  0  0  0  0  0  0
  144.6590  156.6380  133.2970 O   0  0  0  0  0  0  0  0  0  0  0  0
  144.1850  153.7930  132.5870 C   0  0  0  0  0  0  0  0  0  0  0  0
  143.4870  152.6140  132.7170 C   0  0  0  0  0  0  0  0  0  0  0  0
  143.9240  151.2980  132.6030 C   0  0  0  0  0  0  0  0  0  0  0  0
  142.9750  150.2730  132.7480 C   0  0  0  0  0  0  0  0  0  0  0  0
  141.6130  150.5760  133.0140 C   0  0  0  0  0  0  0  0  0  0  0  0
  140.5920  149.4700  133.1010 C   0  0  0  0  0  0  0  0  0  0  0  0
  141.1300  148.3110  132.5740 F   0  0  0  0  0  0  0  0  0  0  0  0
  140.2320  149.2430  134.4180 F   0  0  0  0  0  0  0  0  0  0  0  0
  139.4520  149.8020  132.3910 F   0  0  0  0  0  0  0  0  0  0  0  0
  141.2060  151.9270  133.0980 C   0  0  0  0  0  0  0  0  0  0  0  0
  142.1770  152.9270  132.9700 C   0  0  0  0  0  0  0  0  0  0  0  0
  139.9965  159.5216  134.5487 H   0  0  0  0  0  0  0  0  0  0  0  0
  141.5685  159.2588  133.7202 H   0  0  0  0  0  0  0  0  0  0  0  0
  140.8148  160.8894  133.7202 H   0  0  0  0  0  0  0  0  0  0  0  0
  141.6290  159.0990  131.5850 H   0  0  0  0  0  0  0  0  0  0  0  0
  139.3058  161.5673  132.3648 H   0  0  0  0  0  0  0  0  0  0  0  0
  140.2412  161.0870  130.9505 H   0  0  0  0  0  0  0  0  0  0  0  0
  137.4515  161.2152  131.0310 H   0  0  0  0  0  0  0  0  0  0  0  0
  138.3331  160.2055  129.8753 H   0  0  0  0  0  0  0  0  0  0  0  0
  136.6691  159.3681  132.1208 H   0  0  0  0  0  0  0  0  0  0  0  0
  137.5087  158.3243  130.9389 H   0  0  0  0  0  0  0  0  0  0  0  0
  137.7561  156.8460  132.9520 H   0  0  0  0  0  0  0  0  0  0  0  0
  139.2609  156.8947  131.9585 H   0  0  0  0  0  0  0  0  0  0  0  0
  139.8664  157.8972  134.5990 H   0  0  0  0  0  0  0  0  0  0  0  0
  138.9940  156.3278  134.7587 H   0  0  0  0  0  0  0  0  0  0  0  0
  141.7420  156.9310  131.8670 H   0  0  0  0  0  0  0  0  0  0  0  0
  142.9380  158.2200  132.2240 H   0  0  0  0  0  0  0  0  0  0  0  0
  145.2588  153.9127  132.3808 H   0  0  0  0  0  0  0  0  0  0  0  0
  144.9812  151.0673  132.4052 H   0  0  0  0  0  0  0  0  0  0  0  0
  143.2901  149.2233  132.6545 H   0  0  0  0  0  0  0  0  0  0  0  0
  140.1495  152.1868  133.2604 H   0  0  0  0  0  0  0  0  0  0  0  0
  1  2  1  0
  2  3  1  6
  2  4  1  0
  4  5  1  0
  5  6  1  0
  6  7  1  0
  7  8  1  0
  8  9  1  0
  9 10  1  0
 10 11  1  0
 11 12  2  0
 11 13  1  0
 13 14  1  0
 14 15  1  0
 15 16  1  0
 15 17  2  0
 14 18  2  0
 18 19  1  0
 19 20  2  0
 20 21  1  0
 21 22  2  0
 22 23  1  0
 23 24  1  0
 23 25  1  0
 23 26  1  0
 22 27  1  0
 27 28  2  0
  7  2  1  0
 28 13  1  0
 28 19  1  0
  1 29  1  0
  1 30  1  0
  1 31  1  0
  3 32  1  0
  4 33  1  0
  4 34  1  0
  5 35  1  0
  5 36  1  0
  6 37  1  0
  6 38  1  0
  8 39  1  0
  8 40  1  0
  9 41  1  0
  9 42  1  0
 16 43  1  0
 16 44  1  0
 18 45  1  0
 20 46  1  0
 21 47  1  0
 27 48  1  0
M  END
>  <UniqueID>  (57) 
57

>  <SMILES>  (57) 
C[C@]1(O)CCCN1CCOC(=O)n1c(C(N)=O)cc2ccc(C(F)(F)F)cc21

>  <Energy>  (57) 
89.60163757015681

>  <Genealogy>  (57) 
C[C@]1(O)CCCN1CCOC(=O)n1c(C(N)=O)cc2ccc(C(F)(F)F)cc21 (chirality)
C[C@]1(O)CCCN1CCOC(=O)n1c(C(N)=O)cc2ccc(C(F)(F)F)cc21 (3D coordinates assigned)
C[C@]1(O)CCCN1CCOC(=O)n1c(C(N)=O)cc2ccc(C(F)(F)F)cc21 (nonaromatic ring conformer: 89.60163757015681 kcal/mol)

>  <smiles>  (57) 
CC1(O)CCCN1CCOC(=O)n1c(C(N)=O)cc2ccc(C(F)(F)F)cc21

>  <score_type>  (57) 
oracle

>  <origin>  (57) 
adg

>  <m_score__min__energy>  (57) 
-7.9699999999999998

>  <m_primary>  (57) 
energy

$$$$
58:0
     RDKit          3D

 40 41  0  0  0  0  0  0  0  0999 V2000
  147.2510  152.7900  132.6110 C   0  0  0  0  0  0  0  0  0  0  0  0
  148.5630  153.2010  133.1430 N   0  0  1  0  0  0  0  0  0  0  0  0
  149.6720  152.3390  132.6700 C   0  0  0  0  0  0  0  0  0  0  0  0
  149.4140  150.8240  132.8320 C   0  0  0  0  0  0  0  0  0  0  0  0
  149.5990  150.3730  134.2840 C   0  0  0  0  0  0  0  0  0  0  0  0
  149.6210  151.4740  135.1530 O   0  0  0  0  0  0  0  0  0  0  0  0
  148.8440  154.6000  132.8920 C   0  0  0  0  0  0  0  0  0  0  0  0
  149.8870  154.9500  132.2730 O   0  0  0  0  0  0  0  0  0  0  0  0
  147.9930  155.6110  133.4510 N   0  0  0  0  0  0  0  0  0  0  0  0
  147.1320  155.4930  134.5000 C   0  0  0  0  0  0  0  0  0  0  0  0
  146.7970  154.2380  135.2010 C   0  0  0  0  0  0  0  0  0  0  0  0
  147.8380  153.4050  135.7060 N   0  0  0  0  0  0  0  0  0  0  0  0
  145.5960  153.9030  135.3800 O   0  0  0  0  0  0  0  0  0  0  0  0
  146.5590  156.7300  134.7970 C   0  0  0  0  0  0  0  0  0  0  0  0
  147.1000  157.6110  133.8880 C   0  0  0  0  0  0  0  0  0  0  0  0
  146.9090  158.9810  133.7400 C   0  0  0  0  0  0  0  0  0  0  0  0
  147.6320  159.6430  132.7330 C   0  0  0  0  0  0  0  0  0  0  0  0
  148.5160  158.9260  131.8830 C   0  0  0  0  0  0  0  0  0  0  0  0
  149.3340  159.6550  130.8470 C   0  0  0  0  0  0  0  0  0  0  0  0
  149.1130  161.0150  130.9680 F   0  0  0  0  0  0  0  0  0  0  0  0
  148.9800  159.2520  129.5710 F   0  0  0  0  0  0  0  0  0  0  0  0
  150.6820  159.4000  131.0230 F   0  0  0  0  0  0  0  0  0  0  0  0
  148.6960  157.5380  132.0780 C   0  0  0  0  0  0  0  0  0  0  0  0
  147.9590  156.9080  133.0850 C   0  0  0  0  0  0  0  0  0  0  0  0
  146.5675  152.5759  133.4459 H   0  0  0  0  0  0  0  0  0  0  0  0
  146.8348  153.6008  131.9951 H   0  0  0  0  0  0  0  0  0  0  0  0
  147.3718  151.8866  131.9951 H   0  0  0  0  0  0  0  0  0  0  0  0
  148.5140  153.0750  134.1810 H   0  0  0  0  0  0  0  0  0  0  0  0
  149.8394  152.5477  131.6030 H   0  0  0  0  0  0  0  0  0  0  0  0
  150.5451  152.5782  133.2948 H   0  0  0  0  0  0  0  0  0  0  0  0
  148.3836  150.6017  132.5176 H   0  0  0  0  0  0  0  0  0  0  0  0
  150.1404  150.2825  132.2082 H   0  0  0  0  0  0  0  0  0  0  0  0
  148.7667  149.7104  134.5638 H   0  0  0  0  0  0  0  0  0  0  0  0
  150.5587  149.8418  134.3666 H   0  0  0  0  0  0  0  0  0  0  0  0
  148.7600  151.4600  135.6490 H   0  0  0  0  0  0  0  0  0  0  0  0
  148.0920  152.5130  135.2250 H   0  0  0  0  0  0  0  0  0  0  0  0
  145.8296  156.9538  135.5894 H   0  0  0  0  0  0  0  0  0  0  0  0
  146.2130  159.5296  134.3916 H   0  0  0  0  0  0  0  0  0  0  0  0
  147.5121  160.7285  132.6015 H   0  0  0  0  0  0  0  0  0  0  0  0
  149.3986  156.9674  131.4529 H   0  0  0  0  0  0  0  0  0  0  0  0
  1  2  1  0
  2  3  1  0
  3  4  1  0
  4  5  1  0
  5  6  1  0
  2  7  1  0
  7  8  2  0
  7  9  1  0
  9 10  1  0
 10 11  1  0
 11 12  1  0
 11 13  2  0
 10 14  2  0
 14 15  1  0
 15 16  2  0
 16 17  1  0
 17 18  2  0
 18 19  1  0
 19 20  1  0
 19 21  1  0
 19 22  1  0
 18 23  1  0
 23 24  2  0
 24  9  1  0
 24 15  1  0
  1 25  1  0
  1 26  1  0
  1 27  1  0
  2 28  1  1
  3 29  1  0
  3 30  1  0
  4 31  1  0
  4 32  1  0
  5 33  1  0
  5 34  1  0
  6 35  1  0
 12 36  1  0
 14 37  1  0
 16 38  1  0
 17 39  1  0
 23 40  1  0
M  CHG  2   2   1  12  -1
M  END
>  <UniqueID>  (58) 
58

>  <SMILES>  (58) 
C[N@@H+](CCCO)C(=O)n1c(C([NH-])=O)cc2ccc(C(F)(F)F)cc21

>  <Energy>  (58) 
80.50224054923508

>  <Genealogy>  (58) 
C[NH+](CCCO)C(=O)n1c(C([NH-])=O)cc2ccc(C(F)(F)F)cc21 (protonated)
C[N@@H+](CCCO)C(=O)n1c(C([NH-])=O)cc2ccc(C(F)(F)F)cc21 (chirality)
C[N@@H+](CCCO)C(=O)n1c(C([NH-])=O)cc2ccc(C(F)(F)F)cc21 (3D coordinates assigned)
C[N@@H+](CCCO)C(=O)n1c(C([NH-])=O)cc2ccc(C(F)(F)F)cc21 (optimized conformer: 80.50224054923508 kcal/mol)

>  <smiles>  (58) 
CN(CCCO)C(=O)n1c(C(N)=O)cc2ccc(C(F)(F)F)cc21

>  <score_type>  (58) 
oracle

>  <origin>  (58) 
adg

>  <m_score__min__energy>  (58) 
-5.4400000000000004

>  <m_primary>  (58) 
energy

$$$$
59:0
     RDKit          3D

 34 35  0  0  0  0  0  0  0  0999 V2000
  140.8110  158.0400  134.9180 C   0  0  0  0  0  0  0  0  0  0  0  0
  141.0710  157.8730  133.4200 C   0  0  2  0  0  0  0  0  0  0  0  0
  142.4250  158.3250  133.0890 N   0  0  0  0  0  0  0  0  0  0  0  0
  143.5720  157.9370  133.8590 C   0  0  0  0  0  0  0  0  0  0  0  0
  143.4700  157.0500  134.7490 O   0  0  0  0  0  0  0  0  0  0  0  0
  144.8380  158.5690  133.6260 N   0  0  0  0  0  0  0  0  0  0  0  0
  145.1000  159.9010  133.5050 C   0  0  0  0  0  0  0  0  0  0  0  0
  144.1350  160.9990  133.7250 C   0  0  0  0  0  0  0  0  0  0  0  0
  142.7610  160.8520  133.3720 N   0  0  0  0  0  0  0  0  0  0  0  0
  144.5200  162.0700  134.2650 O   0  0  0  0  0  0  0  0  0  0  0  0
  146.4460  160.1080  133.2030 C   0  0  0  0  0  0  0  0  0  0  0  0
  147.0030  158.8510  133.1420 C   0  0  0  0  0  0  0  0  0  0  0  0
  148.3110  158.4620  132.8710 C   0  0  0  0  0  0  0  0  0  0  0  0
  148.5990  157.0870  132.8500 C   0  0  0  0  0  0  0  0  0  0  0  0
  147.5760  156.1270  133.0700 C   0  0  0  0  0  0  0  0  0  0  0  0
  147.9040  154.6560  133.0790 C   0  0  0  0  0  0  0  0  0  0  0  0
  146.8170  153.9450  132.6080 F   0  0  0  0  0  0  0  0  0  0  0  0
  148.2010  154.2290  134.3630 F   0  0  0  0  0  0  0  0  0  0  0  0
  148.9980  154.3940  132.2730 F   0  0  0  0  0  0  0  0  0  0  0  0
  146.2640  156.5640  133.3630 C   0  0  0  0  0  0  0  0  0  0  0  0
  146.0120  157.9410  133.3990 C   0  0  0  0  0  0  0  0  0  0  0  0
  140.0540  158.6380  132.6200 C   0  0  0  0  0  0  0  0  0  0  0  0
  138.8330  158.3290  132.6730 O   0  0  0  0  0  0  0  0  0  0  0  0
  140.4570  159.6990  131.8180 O   0  0  0  0  0  0  0  0  0  0  0  0
  141.6033  157.5311  135.4866 H   0  0  0  0  0  0  0  0  0  0  0  0
  140.8067  159.1102  135.1723 H   0  0  0  0  0  0  0  0  0  0  0  0
  139.8360  157.5988  135.1723 H   0  0  0  0  0  0  0  0  0  0  0  0
  140.9818  156.8066  133.1653 H   0  0  0  0  0  0  0  0  0  0  0  0
  142.5690  158.9880  132.2930 H   0  0  0  0  0  0  0  0  0  0  0  0
  142.4830  160.4020  132.4730 H   0  0  0  0  0  0  0  0  0  0  0  0
  146.9541  161.0710  133.0468 H   0  0  0  0  0  0  0  0  0  0  0  0
  149.0959  159.2084  132.6790 H   0  0  0  0  0  0  0  0  0  0  0  0
  149.6290  156.7502  132.6609 H   0  0  0  0  0  0  0  0  0  0  0  0
  145.4598  155.8393  133.5582 H   0  0  0  0  0  0  0  0  0  0  0  0
  1  2  1  0
  2  3  1  0
  3  4  1  0
  4  5  2  0
  4  6  1  0
  6  7  1  0
  7  8  1  0
  8  9  1  0
  8 10  2  0
  7 11  2  0
 11 12  1  0
 12 13  2  0
 13 14  1  0
 14 15  2  0
 15 16  1  0
 16 17  1  0
 16 18  1  0
 16 19  1  0
 15 20  1  0
 20 21  2  0
  2 22  1  0
 22 23  2  0
 22 24  1  0
 21  6  1  0
 21 12  1  0
  1 25  1  0
  1 26  1  0
  1 27  1  0
  2 28  1  6
  3 29  1  0
  9 30  1  0
 11 31  1  0
 13 32  1  0
 14 33  1  0
 20 34  1  0
M  CHG  2   9  -1  24  -1
M  END
>  <UniqueID>  (59) 
59

>  <SMILES>  (59) 
C[C@H](NC(=O)n1c(C([NH-])=O)cc2ccc(C(F)(F)F)cc21)C(=O)[O-]

>  <Energy>  (59) 
70.18637434234203

>  <Genealogy>  (59) 
C[C@H](NC(=O)n1c(C([NH-])=O)cc2ccc(C(F)(F)F)cc21)C(=O)[O-] (protonated)
C[C@H](NC(=O)n1c(C([NH-])=O)cc2ccc(C(F)(F)F)cc21)C(=O)[O-] (3D coordinates assigned)
C[C@H](NC(=O)n1c(C([NH-])=O)cc2ccc(C(F)(F)F)cc21)C(=O)[O-] (optimized conformer: 70.18637434234203 kcal/mol)

>  <smiles>  (59) 
C[C@H](NC(=O)n1c(C(N)=O)cc2ccc(C(F)(F)F)cc21)C(=O)O

>  <score_type>  (59) 
oracle

>  <origin>  (59) 
adg

>  <m_score__min__energy>  (59) 
-6.4100000000000001

>  <m_primary>  (59) 
energy

$$$$
60:0
     RDKit          3D

 41 42  0  0  0  0  0  0  0  0999 V2000
  149.0830  152.2230  132.9610 C   0  0  0  0  0  0  0  0  0  0  0  0
  149.5130  153.4320  132.3460 O   0  0  0  0  0  0  0  0  0  0  0  0
  148.9080  154.6660  132.6110 C   0  0  0  0  0  0  0  0  0  0  0  0
  149.5890  155.7290  132.5880 O   0  0  0  0  0  0  0  0  0  0  0  0
  147.4320  154.7490  132.8650 C   0  0  0  0  0  0  0  0  0  0  0  0
  147.1300  155.4250  134.1440 N   0  0  0  0  0  0  0  0  0  0  0  0
  146.3340  154.7200  135.1650 C   0  0  0  0  0  0  0  0  0  0  0  0
  147.1960  153.8120  135.9880 C   0  0  0  0  0  0  0  0  0  0  0  0
  148.4270  153.7180  135.7400 O   0  0  0  0  0  0  0  0  0  0  0  0
  146.6400  153.0620  137.0190 O   0  0  0  0  0  0  0  0  0  0  0  0
  147.3960  156.8440  134.3030 C   0  0  0  0  0  0  0  0  0  0  0  0
  148.4190  157.2440  134.9280 O   0  0  0  0  0  0  0  0  0  0  0  0
  146.5400  157.8150  133.6900 N   0  0  0  0  0  0  0  0  0  0  0  0
  146.9050  158.9520  133.0270 C   0  0  0  0  0  0  0  0  0  0  0  0
  148.2910  159.4110  132.7370 C   0  0  0  0  0  0  0  0  0  0  0  0
  149.4510  158.6100  132.9870 N   0  0  0  0  0  0  0  0  0  0  0  0
  148.4500  160.5390  132.1980 O   0  0  0  0  0  0  0  0  0  0  0  0
  145.7750  159.7170  132.7310 C   0  0  0  0  0  0  0  0  0  0  0  0
  144.7090  159.0230  133.2560 C   0  0  0  0  0  0  0  0  0  0  0  0
  143.3600  159.3640  133.3210 C   0  0  0  0  0  0  0  0  0  0  0  0
  142.4980  158.5030  134.0230 C   0  0  0  0  0  0  0  0  0  0  0  0
  142.9920  157.3250  134.6370 C   0  0  0  0  0  0  0  0  0  0  0  0
  142.0590  156.4450  135.4170 C   0  0  0  0  0  0  0  0  0  0  0  0
  144.3700  157.0180  134.5620 C   0  0  0  0  0  0  0  0  0  0  0  0
  145.1990  157.8840  133.8400 C   0  0  0  0  0  0  0  0  0  0  0  0
  149.1224  152.3338  134.0547 H   0  0  0  0  0  0  0  0  0  0  0  0
  148.0509  152.0013  132.6519 H   0  0  0  0  0  0  0  0  0  0  0  0
  149.7433  151.3993  132.6519 H   0  0  0  0  0  0  0  0  0  0  0  0
  146.9612  155.3118  132.0455 H   0  0  0  0  0  0  0  0  0  0  0  0
  147.0374  153.7237  132.9199 H   0  0  0  0  0  0  0  0  0  0  0  0
  145.8593  155.4608  135.8252 H   0  0  0  0  0  0  0  0  0  0  0  0
  145.5719  154.1118  134.6557 H   0  0  0  0  0  0  0  0  0  0  0  0
  150.4020  159.0120  132.8250 H   0  0  0  0  0  0  0  0  0  0  0  0
  149.4000  157.6100  133.2730 H   0  0  0  0  0  0  0  0  0  0  0  0
  145.7435  160.6747  132.1908 H   0  0  0  0  0  0  0  0  0  0  0  0
  142.9813  160.2773  132.8388 H   0  0  0  0  0  0  0  0  0  0  0  0
  141.4278  158.7466  134.0965 H   0  0  0  0  0  0  0  0  0  0  0  0
  142.2231  156.5998  136.4936 H   0  0  0  0  0  0  0  0  0  0  0  0
  141.0188  156.6985  135.1645 H   0  0  0  0  0  0  0  0  0  0  0  0
  142.2513  155.3918  135.1645 H   0  0  0  0  0  0  0  0  0  0  0  0
  144.7786  156.1245  135.0567 H   0  0  0  0  0  0  0  0  0  0  0  0
  1  2  1  0
  2  3  1  0
  3  4  2  0
  3  5  1  0
  5  6  1  0
  6  7  1  0
  7  8  1  0
  8  9  2  0
  8 10  1  0
  6 11  1  0
 11 12  2  0
 11 13  1  0
 13 14  1  0
 14 15  1  0
 15 16  1  0
 15 17  2  0
 14 18  2  0
 18 19  1  0
 19 20  2  0
 20 21  1  0
 21 22  2  0
 22 23  1  0
 22 24  1  0
 24 25  2  0
 25 13  1  0
 25 19  1  0
  1 26  1  0
  1 27  1  0
  1 28  1  0
  5 29  1  0
  5 30  1  0
  7 31  1  0
  7 32  1  0
 16 33  1  0
 16 34  1  0
 18 35  1  0
 20 36  1  0
 21 37  1  0
 23 38  1  0
 23 39  1  0
 23 40  1  0
 24 41  1  0
M  CHG  1  10  -1
M  END
>  <UniqueID>  (60) 
60

>  <SMILES>  (60) 
COC(=O)CN(CC(=O)[O-])C(=O)n1c(C(N)=O)cc2ccc(C)cc21

>  <Energy>  (60) 
78.25531966615995

>  <Genealogy>  (60) 
COC(=O)CN(CC(=O)[O-])C(=O)n1c(C(N)=O)cc2ccc(C)cc21 (protonated)
COC(=O)CN(CC(=O)[O-])C(=O)n1c(C(N)=O)cc2ccc(C)cc21 (3D coordinates assigned)
COC(=O)CN(CC(=O)[O-])C(=O)n1c(C(N)=O)cc2ccc(C)cc21 (optimized conformer: 78.25531966615995 kcal/mol)

>  <smiles>  (60) 
COC(=O)CN(CC(=O)O)C(=O)n1c(C(N)=O)cc2ccc(C)cc21

>  <score_type>  (60) 
oracle

>  <origin>  (60) 
adg

>  <m_score__min__energy>  (60) 
-6.6100000000000003

>  <m_primary>  (60) 
energy

$$$$
61:0
     RDKit          3D

 36 38  0  0  0  0  0  0  0  0999 V2000
  148.1020  149.7680  132.3940 C   0  0  0  0  0  0  0  0  0  0  0  0
  149.4520  150.8610  132.7740 S   0  0  0  0  0  0  0  0  0  0  0  0
  150.7100  150.6990  131.6730 O   0  0  0  0  0  0  0  0  0  0  0  0
  148.9240  152.5260  132.8800 C   0  0  0  0  0  0  0  0  0  0  0  0
  149.7690  153.5280  132.5290 N   0  0  0  0  0  0  0  0  0  0  0  0
  149.3810  154.8270  132.6020 C   0  0  0  0  0  0  0  0  0  0  0  0
  148.0920  155.1550  133.0500 C   0  0  0  0  0  0  0  0  0  0  0  0
  147.6450  156.5680  133.1420 C   0  0  0  0  0  0  0  0  0  0  0  0
  148.5900  157.6260  133.0600 C   0  0  0  0  0  0  0  0  0  0  0  0
  148.1780  158.9670  133.1350 C   0  0  0  0  0  0  0  0  0  0  0  0
  146.8220  159.2240  133.3000 C   0  0  0  0  0  0  0  0  0  0  0  0
  146.1510  160.4240  133.3740 C   0  0  0  0  0  0  0  0  0  0  0  0
  144.8100  160.0850  133.5290 C   0  0  0  0  0  0  0  0  0  0  0  0
  143.7380  161.0820  133.7290 C   0  0  0  0  0  0  0  0  0  0  0  0
  142.3970  160.6790  134.0080 N   0  0  0  0  0  0  0  0  0  0  0  0
  144.0230  162.3090  133.7070 O   0  0  0  0  0  0  0  0  0  0  0  0
  144.6530  158.7320  133.5340 N   0  0  0  0  0  0  0  0  0  0  0  0
  143.4250  157.9860  133.5470 C   0  0  0  0  0  0  0  0  0  0  0  0
  142.5460  158.2010  132.6710 O   0  0  0  0  0  0  0  0  0  0  0  0
  143.0950  156.7760  134.8430 S   0  0  0  0  0  0  0  0  0  0  0  0
  145.8960  158.2190  133.3970 C   0  0  0  0  0  0  0  0  0  0  0  0
  146.2730  156.8750  133.3080 C   0  0  0  0  0  0  0  0  0  0  0  0
  147.2410  154.0980  133.4080 C   0  0  0  0  0  0  0  0  0  0  0  0
  147.6710  152.8130  133.3150 N   0  0  0  0  0  0  0  0  0  0  0  0
  147.6514  149.4031  133.3288 H   0  0  0  0  0  0  0  0  0  0  0  0
  147.3446  150.3104  131.8091 H   0  0  0  0  0  0  0  0  0  0  0  0
  148.4749  148.9143  131.8091 H   0  0  0  0  0  0  0  0  0  0  0  0
  151.0680  151.6160  131.5590 H   0  0  0  0  0  0  0  0  0  0  0  0
  150.0792  155.6250  132.3091 H   0  0  0  0  0  0  0  0  0  0  0  0
  149.6577  157.3921  132.9362 H   0  0  0  0  0  0  0  0  0  0  0  0
  148.9062  159.7885  133.0653 H   0  0  0  0  0  0  0  0  0  0  0  0
  146.5825  161.4345  133.3218 H   0  0  0  0  0  0  0  0  0  0  0  0
  141.6450  161.3960  134.1080 H   0  0  0  0  0  0  0  0  0  0  0  0
  142.1600  159.6790  134.1910 H   0  0  0  0  0  0  0  0  0  0  0  0
  145.5205  156.0747  133.3657 H   0  0  0  0  0  0  0  0  0  0  0  0
  146.2226  154.3109  133.7650 H   0  0  0  0  0  0  0  0  0  0  0  0
  1  2  1  0
  2  3  1  6
  2  4  1  0
  4  5  2  0
  5  6  1  0
  6  7  2  0
  7  8  1  0
  8  9  2  0
  9 10  1  0
 10 11  2  0
 11 12  1  0
 12 13  2  0
 13 14  1  0
 14 15  1  0
 14 16  2  0
 13 17  1  0
 17 18  1  0
 18 19  2  0
 18 20  1  0
 17 21  1  0
 21 22  2  0
  7 23  1  0
 23 24  2  0
 24  4  1  0
 22  8  1  0
 21 11  1  0
  1 25  1  0
  1 26  1  0
  1 27  1  0
  3 28  1  0
  6 29  1  0
  9 30  1  0
 10 31  1  0
 12 32  1  0
 15 33  1  0
 15 34  1  0
 22 35  1  0
 23 36  1  0
M  CHG  2   2   1  20  -1
M  END
>  <UniqueID>  (61) 
61

>  <SMILES>  (61) 
C[S@@+](O)c1ncc(-c2ccc3cc(C(N)=O)n(C(=O)[S-])c3c2)cn1

>  <Energy>  (61) 
81.35264192713726

>  <Genealogy>  (61) 
C[S+](O)c1ncc(-c2ccc3cc(C(N)=O)n(C(=O)[S-])c3c2)cn1 (protonated)
C[S@@+](O)c1ncc(-c2ccc3cc(C(N)=O)n(C(=O)[S-])c3c2)cn1 (chirality)
C[S@@+](O)c1ncc(-c2ccc3cc(C(N)=O)n(C(=O)[S-])c3c2)cn1 (3D coordinates assigned)
C[S@@+](O)c1ncc(-c2ccc3cc(C(N)=O)n(C(=O)[S-])c3c2)cn1 (optimized conformer: 81.35264192713726 kcal/mol)

>  <smiles>  (61) 
C[S+]([O-])c1ncc(-c2ccc3cc(C(N)=O)n(C(=O)S)c3c2)cn1

>  <score_type>  (61) 
oracle

>  <origin>  (61) 
adg

>  <m_score__min__energy>  (61) 
-7.4100000000000001

>  <m_primary>  (61) 
energy

$$$$
62:0
     RDKit          3D

 59 60  0  0  0  0  0  0  0  0999 V2000
  145.0580  152.2020  132.9800 C   0  0  0  0  0  0  0  0  0  0  0  0
  144.1770  153.3700  133.1690 N   0  0  2  0  0  0  0  0  0  0  0  0
  142.9230  153.2310  132.3880 C   0  0  0  0  0  0  0  0  0  0  0  0
  141.8460  152.4860  133.1290 C   0  0  0  0  0  0  0  0  0  0  0  0
  140.6810  152.4560  132.6460 O   0  0  0  0  0  0  0  0  0  0  0  0
  142.1150  151.8700  134.3580 O   0  0  0  0  0  0  0  0  0  0  0  0
  141.7620  152.4590  135.6060 C   0  0  0  0  0  0  0  0  0  0  0  0
  142.6750  153.5050  135.9220 O   0  0  0  0  0  0  0  0  0  0  0  0
  142.4620  154.8350  135.5430 C   0  0  0  0  0  0  0  0  0  0  0  0
  142.6390  155.1870  134.3440 O   0  0  0  0  0  0  0  0  0  0  0  0
  142.0370  155.8000  136.5210 N   0  0  0  0  0  0  0  0  0  0  0  0
  141.8380  155.5930  137.8530 C   0  0  0  0  0  0  0  0  0  0  0  0
  142.1890  154.3710  138.6020 C   0  0  0  0  0  0  0  0  0  0  0  0
  143.4440  153.7290  138.3950 N   0  0  0  0  0  0  0  0  0  0  0  0
  141.4070  153.9340  139.4870 O   0  0  0  0  0  0  0  0  0  0  0  0
  141.3470  156.7460  138.4620 C   0  0  0  0  0  0  0  0  0  0  0  0
  141.2660  157.6820  137.4560 C   0  0  0  0  0  0  0  0  0  0  0  0
  140.8540  159.0100  137.5040 C   0  0  0  0  0  0  0  0  0  0  0  0
  140.8610  159.7480  136.3090 C   0  0  0  0  0  0  0  0  0  0  0  0
  141.2860  159.1520  135.0940 C   0  0  0  0  0  0  0  0  0  0  0  0
  141.2470  159.9430  133.8100 C   0  0  0  0  0  0  0  0  0  0  0  0
  142.2610  159.5110  132.9760 F   0  0  0  0  0  0  0  0  0  0  0  0
  140.0340  159.7710  133.1680 F   0  0  0  0  0  0  0  0  0  0  0  0
  141.4120  161.2950  134.0630 F   0  0  0  0  0  0  0  0  0  0  0  0
  141.6690  157.7900  135.0810 C   0  0  0  0  0  0  0  0  0  0  0  0
  141.6810  157.0860  136.2930 C   0  0  0  0  0  0  0  0  0  0  0  0
  144.8880  154.5690  132.7590 C   0  0  0  0  0  0  0  0  0  0  0  0
  144.3230  155.4080  132.0670 O   0  0  0  0  0  0  0  0  0  0  0  0
  146.3630  154.7570  133.0870 C   0  0  0  0  0  0  0  0  0  0  0  0
  146.6470  155.7710  134.1500 N   0  0  0  0  0  0  0  0  0  0  0  0
  145.3810  156.4800  134.4690 C   0  0  0  0  0  0  0  0  0  0  0  0
  147.6030  156.7860  133.6390 C   0  0  0  0  0  0  0  0  0  0  0  0
  147.2200  155.1620  135.3910 C   0  0  0  0  0  0  0  0  0  0  0  0
  146.4140  154.0110  135.9400 C   0  0  0  0  0  0  0  0  0  0  0  0
  145.1860  153.9160  135.6820 O   0  0  0  0  0  0  0  0  0  0  0  0
  147.0220  153.0520  136.7430 O   0  0  0  0  0  0  0  0  0  0  0  0
  145.3570  151.8056  133.9616 H   0  0  0  0  0  0  0  0  0  0  0  0
  144.5199  151.4239  132.4187 H   0  0  0  0  0  0  0  0  0  0  0  0
  145.9540  152.5056  132.4187 H   0  0  0  0  0  0  0  0  0  0  0  0
  143.9500  153.4500  134.1880 H   0  0  0  0  0  0  0  0  0  0  0  0
  142.5490  154.2364  132.1443 H   0  0  0  0  0  0  0  0  0  0  0  0
  143.1617  152.6503  131.4847 H   0  0  0  0  0  0  0  0  0  0  0  0
  140.7440  152.8705  135.5405 H   0  0  0  0  0  0  0  0  0  0  0  0
  141.8022  151.6920  136.3935 H   0  0  0  0  0  0  0  0  0  0  0  0
  144.0370  153.9670  137.5670 H   0  0  0  0  0  0  0  0  0  0  0  0
  141.0809  156.8797  139.5209 H   0  0  0  0  0  0  0  0  0  0  0  0
  140.5321  159.4687  138.4505 H   0  0  0  0  0  0  0  0  0  0  0  0
  140.5338  160.7982  136.3154 H   0  0  0  0  0  0  0  0  0  0  0  0
  141.9512  157.2944  134.1404 H   0  0  0  0  0  0  0  0  0  0  0  0
  146.7648  153.7892  133.4216 H   0  0  0  0  0  0  0  0  0  0  0  0
  146.8384  155.1312  132.1683 H   0  0  0  0  0  0  0  0  0  0  0  0
  145.2628  156.5462  135.5606 H   0  0  0  0  0  0  0  0  0  0  0  0
  145.4103  157.4930  134.0413 H   0  0  0  0  0  0  0  0  0  0  0  0
  144.5325  155.9258  134.0413 H   0  0  0  0  0  0  0  0  0  0  0  0
  148.0837  157.2964  134.4866 H   0  0  0  0  0  0  0  0  0  0  0  0
  148.3705  156.2909  133.0260 H   0  0  0  0  0  0  0  0  0  0  0  0
  147.0629  157.5225  133.0260 H   0  0  0  0  0  0  0  0  0  0  0  0
  148.2319  154.7969  135.1613 H   0  0  0  0  0  0  0  0  0  0  0  0
  147.2169  155.9476  136.1609 H   0  0  0  0  0  0  0  0  0  0  0  0
  1  2  1  0
  2  3  1  0
  3  4  1  0
  4  5  2  0
  4  6  1  0
  6  7  1  0
  7  8  1  0
  8  9  1  0
  9 10  2  0
  9 11  1  0
 11 12  1  0
 12 13  1  0
 13 14  1  0
 13 15  2  0
 12 16  2  0
 16 17  1  0
 17 18  2  0
 18 19  1  0
 19 20  2  0
 20 21  1  0
 21 22  1  0
 21 23  1  0
 21 24  1  0
 20 25  1  0
 25 26  2  0
  2 27  1  0
 27 28  2  0
 27 29  1  0
 29 30  1  0
 30 31  1  0
 30 32  1  0
 30 33  1  0
 33 34  1  0
 34 35  2  0
 34 36  1  0
 26 11  1  0
 26 17  1  0
  1 37  1  0
  1 38  1  0
  1 39  1  0
  2 40  1  1
  3 41  1  0
  3 42  1  0
  7 43  1  0
  7 44  1  0
 14 45  1  0
 16 46  1  0
 18 47  1  0
 19 48  1  0
 25 49  1  0
 29 50  1  0
 29 51  1  0
 31 52  1  0
 31 53  1  0
 31 54  1  0
 32 55  1  0
 32 56  1  0
 32 57  1  0
 33 58  1  0
 33 59  1  0
M  CHG  4   2   1  14  -1  30   1  36  -1
M  END
>  <UniqueID>  (62) 
62

>  <SMILES>  (62) 
C[N@H+](CC(=O)OCOC(=O)n1c(C([NH-])=O)cc2ccc(C(F)(F)F)cc21)C(=O)C[N+](C)(C)CC(=O)[O-]

>  <Energy>  (62) 
103.63949274955563

>  <Genealogy>  (62) 
C[NH+](CC(=O)OCOC(=O)n1c(C([NH-])=O)cc2ccc(C(F)(F)F)cc21)C(=O)C[N+](C)(C)CC(=O)[O-] (protonated)
C[N@H+](CC(=O)OCOC(=O)n1c(C([NH-])=O)cc2ccc(C(F)(F)F)cc21)C(=O)C[N+](C)(C)CC(=O)[O-] (chirality)
C[N@H+](CC(=O)OCOC(=O)n1c(C([NH-])=O)cc2ccc(C(F)(F)F)cc21)C(=O)C[N+](C)(C)CC(=O)[O-] (3D coordinates assigned)
C[N@H+](CC(=O)OCOC(=O)n1c(C([NH-])=O)cc2ccc(C(F)(F)F)cc21)C(=O)C[N+](C)(C)CC(=O)[O-] (optimized conformer: 103.63949274955563 kcal/mol)

>  <smiles>  (62) 
CN(CC(=O)OCOC(=O)n1c(C(N)=O)cc2ccc(C(F)(F)F)cc21)C(=O)C[N+](C)(C)CC(=O)O

>  <score_type>  (62) 
oracle

>  <origin>  (62) 
adg

>  <m_score__min__energy>  (62) 
-4.7599999999999998

>  <m_primary>  (62) 
energy

$$$$
63:0
     RDKit          3D

 41 42  0  0  0  0  0  0  0  0999 V2000
  142.1740  155.3510  139.1520 C   0  0  0  0  0  0  0  0  0  0  0  0
  141.7200  156.4630  138.2540 C   0  0  0  0  0  0  0  0  0  0  0  0
  141.7130  157.8010  138.7220 C   0  0  0  0  0  0  0  0  0  0  0  0
  141.3290  158.8550  137.8720 C   0  0  0  0  0  0  0  0  0  0  0  0
  140.9570  158.5380  136.5690 C   0  0  0  0  0  0  0  0  0  0  0  0
  140.6070  159.3600  135.5200 C   0  0  0  0  0  0  0  0  0  0  0  0
  140.4010  158.5070  134.4360 C   0  0  0  0  0  0  0  0  0  0  0  0
  140.0720  158.9810  133.0730 C   0  0  0  0  0  0  0  0  0  0  0  0
  141.0620  159.0580  132.0460 N   0  0  0  0  0  0  0  0  0  0  0  0
  138.8820  159.2940  132.8010 O   0  0  0  0  0  0  0  0  0  0  0  0
  140.6020  157.2130  134.8040 N   0  0  0  0  0  0  0  0  0  0  0  0
  140.6680  156.0610  133.9550 C   0  0  0  0  0  0  0  0  0  0  0  0
  139.5980  155.4820  133.6220 O   0  0  0  0  0  0  0  0  0  0  0  0
  141.9360  155.5570  133.4910 N   0  0  0  0  0  0  0  0  0  0  0  0
  142.1590  154.1170  133.3040 C   0  0  0  0  0  0  0  0  0  0  0  0
  142.1220  153.3990  134.6150 C   0  0  0  0  0  0  0  0  0  0  0  0
  141.3810  152.3930  134.7640 O   0  0  0  0  0  0  0  0  0  0  0  0
  142.9180  153.8300  135.6710 O   0  0  0  0  0  0  0  0  0  0  0  0
  142.9960  156.4850  133.2200 C   0  0  0  0  0  0  0  0  0  0  0  0
  143.0010  157.1200  132.1330 O   0  0  0  0  0  0  0  0  0  0  0  0
  144.1600  156.6160  134.1520 C   0  0  0  0  0  0  0  0  0  0  0  0
  145.0660  157.6330  133.6390 N   0  0  0  0  0  0  0  0  0  0  0  0
  144.7990  159.0340  133.7360 C   0  0  0  0  0  0  0  0  0  0  0  0
  143.4960  159.5220  133.4350 N   0  0  0  0  0  0  0  0  0  0  0  0
  145.7040  159.8370  134.0910 O   0  0  0  0  0  0  0  0  0  0  0  0
  140.9590  157.2490  136.1040 C   0  0  0  0  0  0  0  0  0  0  0  0
  141.3630  156.1850  136.9160 C   0  0  0  0  0  0  0  0  0  0  0  0
  142.0503  155.6541  140.2022 H   0  0  0  0  0  0  0  0  0  0  0  0
  141.5708  154.4522  138.9562 H   0  0  0  0  0  0  0  0  0  0  0  0
  143.2339  155.1311  138.9562 H   0  0  0  0  0  0  0  0  0  0  0  0
  142.0103  158.0175  139.7587 H   0  0  0  0  0  0  0  0  0  0  0  0
  141.3231  159.8963  138.2264 H   0  0  0  0  0  0  0  0  0  0  0  0
  140.5106  160.4557  135.5345 H   0  0  0  0  0  0  0  0  0  0  0  0
  140.8150  159.4580  131.1150 H   0  0  0  0  0  0  0  0  0  0  0  0
  142.0050  158.6290  132.1590 H   0  0  0  0  0  0  0  0  0  0  0  0
  141.3732  153.7125  132.6491 H   0  0  0  0  0  0  0  0  0  0  0  0
  143.1498  153.9699  132.8495 H   0  0  0  0  0  0  0  0  0  0  0  0
  143.8022  156.9103  135.1497 H   0  0  0  0  0  0  0  0  0  0  0  0
  144.6864  155.6530  134.2266 H   0  0  0  0  0  0  0  0  0  0  0  0
  143.0150  159.2580  132.5450 H   0  0  0  0  0  0  0  0  0  0  0  0
  141.4018  155.1583  136.5231 H   0  0  0  0  0  0  0  0  0  0  0  0
  1  2  1  0
  2  3  2  0
  3  4  1  0
  4  5  2  0
  5  6  1  0
  6  7  2  0
  7  8  1  0
  8  9  1  0
  8 10  2  0
  7 11  1  0
 11 12  1  0
 12 13  2  0
 12 14  1  0
 14 15  1  0
 15 16  1  0
 16 17  2  0
 16 18  1  0
 14 19  1  0
 19 20  2  0
 19 21  1  0
 21 22  1  0
 22 23  1  0
 23 24  1  0
 23 25  2  0
 11 26  1  0
 26 27  2  0
 27  2  1  0
 26  5  1  0
  1 28  1  0
  1 29  1  0
  1 30  1  0
  3 31  1  0
  4 32  1  0
  6 33  1  0
  9 34  1  0
  9 35  1  0
 15 36  1  0
 15 37  1  0
 21 38  1  0
 21 39  1  0
 24 40  1  0
 27 41  1  0
M  CHG  3  18  -1  22  -1  24  -1
M  END
>  <UniqueID>  (63) 
63

>  <SMILES>  (63) 
Cc1ccc2cc(C(N)=O)n(C(=O)N(CC(=O)[O-])C(=O)C[N-]C([NH-])=O)c2c1

>  <Energy>  (63) 
81.54633792425457

>  <Genealogy>  (63) 
Cc1ccc2cc(C(N)=O)n(C(=O)N(CC(=O)[O-])C(=O)C[N-]C([NH-])=O)c2c1 (protonated)
Cc1ccc2cc(C(N)=O)n(C(=O)N(CC(=O)[O-])C(=O)C[N-]C([NH-])=O)c2c1 (3D coordinates assigned)
Cc1ccc2cc(C(N)=O)n(C(=O)N(CC(=O)[O-])C(=O)C[N-]C([NH-])=O)c2c1 (optimized conformer: 81.54633792425457 kcal/mol)

>  <smiles>  (63) 
Cc1ccc2cc(C(N)=O)n(C(=O)N(CC(=O)O)C(=O)CNC(N)=O)c2c1

>  <score_type>  (63) 
oracle

>  <origin>  (63) 
adg

>  <m_score__min__energy>  (63) 
-6.3600000000000003

>  <m_primary>  (63) 
energy

$$$$
64:0
     RDKit          3D

 37 38  0  0  0  0  0  0  0  0999 V2000
  142.0820  160.5420  134.0430 N   0  0  0  0  0  0  0  0  0  0  0  0
  143.3960  161.0100  133.7350 C   0  0  0  0  0  0  0  0  0  0  0  0
  143.5730  162.2310  133.4820 O   0  0  0  0  0  0  0  0  0  0  0  0
  144.5380  160.0780  133.6430 C   0  0  0  0  0  0  0  0  0  0  0  0
  145.8670  160.4910  133.6660 C   0  0  0  0  0  0  0  0  0  0  0  0
  146.6060  159.3420  133.5040 C   0  0  0  0  0  0  0  0  0  0  0  0
  147.9870  159.1660  133.4720 C   0  0  0  0  0  0  0  0  0  0  0  0
  148.4810  157.8580  133.3360 C   0  0  0  0  0  0  0  0  0  0  0  0
  147.5940  156.7580  133.2450 C   0  0  0  0  0  0  0  0  0  0  0  0
  148.1450  155.3650  133.1230 C   0  0  0  0  0  0  0  0  0  0  0  0
  149.4030  155.4110  132.5500 F   0  0  0  0  0  0  0  0  0  0  0  0
  147.3090  154.6000  132.3290 F   0  0  0  0  0  0  0  0  0  0  0  0
  146.1980  156.9730  133.2860 C   0  0  0  0  0  0  0  0  0  0  0  0
  145.7320  158.2900  133.3990 C   0  0  0  0  0  0  0  0  0  0  0  0
  144.4550  158.7270  133.4850 N   0  0  0  0  0  0  0  0  0  0  0  0
  143.2690  157.9160  133.5450 C   0  0  0  0  0  0  0  0  0  0  0  0
  142.3950  158.0070  132.6410 O   0  0  0  0  0  0  0  0  0  0  0  0
  143.0950  157.0250  134.6100 O   0  0  0  0  0  0  0  0  0  0  0  0
  141.8730  156.8950  135.3330 C   0  0  0  0  0  0  0  0  0  0  0  0
  141.2660  158.2450  135.5910 C   0  0  0  0  0  0  0  0  0  0  0  0
  141.8720  159.0620  136.3330 O   0  0  0  0  0  0  0  0  0  0  0  0
  140.0170  158.6330  135.0070 N   0  0  0  0  0  0  0  0  0  0  0  0
  139.4450  158.0250  133.8140 C   0  0  0  0  0  0  0  0  0  0  0  0
  139.3390  159.0540  132.7380 C   0  0  0  0  0  0  0  0  0  0  0  0
  140.1080  160.0500  132.7380 O   0  0  0  0  0  0  0  0  0  0  0  0
  138.4270  158.8870  131.7040 O   0  0  0  0  0  0  0  0  0  0  0  0
  141.8710  159.5210  134.0930 H   0  0  0  0  0  0  0  0  0  0  0  0
  141.2940  161.2200  134.1420 H   0  0  0  0  0  0  0  0  0  0  0  0
  146.2454  161.5167  133.7877 H   0  0  0  0  0  0  0  0  0  0  0  0
  148.6700  160.0247  133.5508 H   0  0  0  0  0  0  0  0  0  0  0  0
  149.5670  157.6867  133.2999 H   0  0  0  0  0  0  0  0  0  0  0  0
  148.2127  154.9153  134.1246 H   0  0  0  0  0  0  0  0  0  0  0  0
  145.4952  156.1286  133.2307 H   0  0  0  0  0  0  0  0  0  0  0  0
  141.1683  156.2878  134.7459 H   0  0  0  0  0  0  0  0  0  0  0  0
  142.0812  156.4092  136.2977 H   0  0  0  0  0  0  0  0  0  0  0  0
  140.0924  157.2032  133.4740 H   0  0  0  0  0  0  0  0  0  0  0  0
  138.4449  157.6296  134.0454 H   0  0  0  0  0  0  0  0  0  0  0  0
  1  2  1  0
  2  3  2  0
  2  4  1  0
  4  5  2  0
  5  6  1  0
  6  7  2  0
  7  8  1  0
  8  9  2  0
  9 10  1  0
 10 11  1  0
 10 12  1  0
  9 13  1  0
 13 14  2  0
 14 15  1  0
 15 16  1  0
 16 17  2  0
 16 18  1  0
 18 19  1  0
 19 20  1  0
 20 21  2  0
 20 22  1  0
 22 23  1  0
 23 24  1  0
 24 25  2  0
 24 26  1  0
 15  4  1  0
 14  6  1  0
  1 27  1  0
  1 28  1  0
  5 29  1  0
  7 30  1  0
  8 31  1  0
 10 32  1  0
 13 33  1  0
 19 34  1  0
 19 35  1  0
 23 36  1  0
 23 37  1  0
M  CHG  2  22  -1  26  -1
M  END
>  <UniqueID>  (64) 
64

>  <SMILES>  (64) 
NC(=O)c1cc2ccc(C(F)F)cc2n1C(=O)OCC(=O)[N-]CC(=O)[O-]

>  <Energy>  (64) 
70.14659616554391

>  <Genealogy>  (64) 
NC(=O)c1cc2ccc(C(F)F)cc2n1C(=O)OCC(=O)[N-]CC(=O)[O-] (protonated)
NC(=O)c1cc2ccc(C(F)F)cc2n1C(=O)OCC(=O)[N-]CC(=O)[O-] (3D coordinates assigned)
NC(=O)c1cc2ccc(C(F)F)cc2n1C(=O)OCC(=O)[N-]CC(=O)[O-] (optimized conformer: 70.14659616554391 kcal/mol)

>  <smiles>  (64) 
NC(=O)c1cc2ccc(C(F)F)cc2n1C(=O)OCC(=O)NCC(=O)O

>  <score_type>  (64) 
oracle

>  <origin>  (64) 
adg

>  <m_score__min__energy>  (64) 
-6.9500000000000002

>  <m_primary>  (64) 
energy

$$$$
65:0
     RDKit          3D

 49 50  0  0  0  0  0  0  0  0999 V2000
  142.0700  155.7240  138.9830 C   0  0  0  0  0  0  0  0  0  0  0  0
  141.6110  156.6710  137.9170 C   0  0  0  0  0  0  0  0  0  0  0  0
  141.3650  158.0330  138.2300 C   0  0  0  0  0  0  0  0  0  0  0  0
  140.9090  158.9230  137.2430 C   0  0  0  0  0  0  0  0  0  0  0  0
  140.6990  158.4240  135.9610 C   0  0  0  0  0  0  0  0  0  0  0  0
  140.2510  159.0540  134.8190 C   0  0  0  0  0  0  0  0  0  0  0  0
  140.2170  158.0630  133.8390 C   0  0  0  0  0  0  0  0  0  0  0  0
  139.7840  158.2830  132.4450 C   0  0  0  0  0  0  0  0  0  0  0  0
  140.5410  159.1390  131.5910 N   0  0  0  0  0  0  0  0  0  0  0  0
  138.7500  157.7200  131.9970 O   0  0  0  0  0  0  0  0  0  0  0  0
  140.6270  156.8740  134.3580 N   0  0  0  0  0  0  0  0  0  0  0  0
  140.7090  155.6080  133.6900 C   0  0  0  0  0  0  0  0  0  0  0  0
  139.7200  155.2020  133.0220 O   0  0  0  0  0  0  0  0  0  0  0  0
  141.9120  154.8200  133.7660 N   0  0  0  0  0  0  0  0  0  0  0  0
  141.9600  153.6520  134.6520 C   0  0  0  0  0  0  0  0  0  0  0  0
  143.1000  155.2120  132.9960 C   0  0  0  0  0  0  0  0  0  0  0  0
  143.3260  156.6890  133.1000 C   0  0  0  0  0  0  0  0  0  0  0  0
  142.8170  157.4630  132.2450 O   0  0  0  0  0  0  0  0  0  0  0  0
  144.1580  157.2110  134.1400 N   0  0  0  0  0  0  0  0  0  0  0  0
  145.5940  157.3980  133.9860 C   0  0  0  0  0  0  0  0  0  0  0  0
  145.8630  158.5420  133.0180 C   0  0  0  0  0  0  0  0  0  0  0  0
  144.6660  159.2600  132.8050 O   0  0  0  0  0  0  0  0  0  0  0  0
  144.5420  160.3120  133.7460 C   0  0  0  0  0  0  0  0  0  0  0  0
  143.0780  160.4860  134.1350 C   0  0  0  0  0  0  0  0  0  0  0  0
  142.2780  160.4310  132.9870 O   0  0  0  0  0  0  0  0  0  0  0  0
  140.9170  157.1070  135.6510 C   0  0  0  0  0  0  0  0  0  0  0  0
  141.3680  156.1960  136.6110 C   0  0  0  0  0  0  0  0  0  0  0  0
  141.8605  156.1563  139.9725 H   0  0  0  0  0  0  0  0  0  0  0  0
  141.5351  154.7684  138.8796 H   0  0  0  0  0  0  0  0  0  0  0  0
  143.1515  155.5519  138.8796 H   0  0  0  0  0  0  0  0  0  0  0  0
  141.5329  158.3955  139.2549 H   0  0  0  0  0  0  0  0  0  0  0  0
  140.7236  159.9818  137.4765 H   0  0  0  0  0  0  0  0  0  0  0  0
  139.9784  160.1136  134.7054 H   0  0  0  0  0  0  0  0  0  0  0  0
  141.5830  159.0770  131.5560 H   0  0  0  0  0  0  0  0  0  0  0  0
  141.9463  153.9859  135.7000 H   0  0  0  0  0  0  0  0  0  0  0  0
  141.0875  153.0102  134.4602 H   0  0  0  0  0  0  0  0  0  0  0  0
  142.8823  153.0839  134.4602 H   0  0  0  0  0  0  0  0  0  0  0  0
  143.9792  154.6821  133.3913 H   0  0  0  0  0  0  0  0  0  0  0  0
  142.9432  154.9487  131.9396 H   0  0  0  0  0  0  0  0  0  0  0  0
  146.0386  157.6346  134.9639 H   0  0  0  0  0  0  0  0  0  0  0  0
  146.0407  156.4740  133.5902 H   0  0  0  0  0  0  0  0  0  0  0  0
  146.6239  159.2129  133.4434 H   0  0  0  0  0  0  0  0  0  0  0  0
  146.2281  158.1393  132.0617 H   0  0  0  0  0  0  0  0  0  0  0  0
  145.1322  160.0716  134.6426 H   0  0  0  0  0  0  0  0  0  0  0  0
  144.9127  161.2459  133.2982 H   0  0  0  0  0  0  0  0  0  0  0  0
  142.7843  159.6812  134.8250 H   0  0  0  0  0  0  0  0  0  0  0  0
  142.9439  161.4602  134.6278 H   0  0  0  0  0  0  0  0  0  0  0  0
  142.5010  159.5740  132.5380 H   0  0  0  0  0  0  0  0  0  0  0  0
  141.5289  155.1383  136.3551 H   0  0  0  0  0  0  0  0  0  0  0  0
  1  2  1  0
  2  3  2  0
  3  4  1  0
  4  5  2  0
  5  6  1  0
  6  7  2  0
  7  8  1  0
  8  9  1  0
  8 10  2  0
  7 11  1  0
 11 12  1  0
 12 13  2  0
 12 14  1  0
 14 15  1  0
 14 16  1  0
 16 17  1  0
 17 18  2  0
 17 19  1  0
 19 20  1  0
 20 21  1  0
 21 22  1  0
 22 23  1  0
 23 24  1  0
 24 25  1  0
 11 26  1  0
 26 27  2  0
 27  2  1  0
 26  5  1  0
  1 28  1  0
  1 29  1  0
  1 30  1  0
  3 31  1  0
  4 32  1  0
  6 33  1  0
  9 34  1  0
 15 35  1  0
 15 36  1  0
 15 37  1  0
 16 38  1  0
 16 39  1  0
 20 40  1  0
 20 41  1  0
 21 42  1  0
 21 43  1  0
 23 44  1  0
 23 45  1  0
 24 46  1  0
 24 47  1  0
 25 48  1  0
 27 49  1  0
M  CHG  2   9  -1  19  -1
M  END
>  <UniqueID>  (65) 
65

>  <SMILES>  (65) 
Cc1ccc2cc(C([NH-])=O)n(C(=O)N(C)CC(=O)[N-]CCOCCO)c2c1

>  <Energy>  (65) 
76.47340589981377

>  <Genealogy>  (65) 
Cc1ccc2cc(C([NH-])=O)n(C(=O)N(C)CC(=O)[N-]CCOCCO)c2c1 (protonated)
Cc1ccc2cc(C([NH-])=O)n(C(=O)N(C)CC(=O)[N-]CCOCCO)c2c1 (3D coordinates assigned)
Cc1ccc2cc(C([NH-])=O)n(C(=O)N(C)CC(=O)[N-]CCOCCO)c2c1 (optimized conformer: 76.47340589981377 kcal/mol)

>  <smiles>  (65) 
Cc1ccc2cc(C(N)=O)n(C(=O)N(C)CC(=O)NCCOCCO)c2c1

>  <score_type>  (65) 
oracle

>  <origin>  (65) 
adg

>  <m_score__min__energy>  (65) 
-5.7800000000000002

>  <m_primary>  (65) 
energy

$$$$
66:0
     RDKit          3D

 47 48  0  0  0  0  0  0  0  0999 V2000
  140.0070  150.0430  132.1140 C   0  0  0  0  0  0  0  0  0  0  0  0
  140.7210  149.7500  133.3190 O   0  0  0  0  0  0  0  0  0  0  0  0
  141.3540  150.7410  134.0960 C   0  0  0  0  0  0  0  0  0  0  0  0
  141.0090  150.9380  135.2950 O   0  0  0  0  0  0  0  0  0  0  0  0
  142.4440  151.5690  133.4840 C   0  0  0  0  0  0  0  0  0  0  0  0
  142.4720  153.0040  134.0610 C   0  0  2  0  0  0  0  0  0  0  0  0
  141.3310  153.8190  133.5130 C   0  0  0  0  0  0  0  0  0  0  0  0
  140.5680  153.3450  132.6240 O   0  0  0  0  0  0  0  0  0  0  0  0
  141.1290  155.1170  134.0050 O   0  0  0  0  0  0  0  0  0  0  0  0
  140.2510  156.0510  133.3800 C   0  0  0  0  0  0  0  0  0  0  0  0
  143.7730  153.6740  133.8410 N   0  0  0  0  0  0  0  0  0  0  0  0
  144.4340  153.6810  132.5240 C   0  0  0  0  0  0  0  0  0  0  0  0
  144.3740  154.4300  134.9080 C   0  0  0  0  0  0  0  0  0  0  0  0
  144.0550  154.2030  136.1050 O   0  0  0  0  0  0  0  0  0  0  0  0
  145.3770  155.4110  134.6270 N   0  0  0  0  0  0  0  0  0  0  0  0
  146.7250  155.2460  134.7010 C   0  0  0  0  0  0  0  0  0  0  0  0
  147.4150  154.0240  135.1790 C   0  0  0  0  0  0  0  0  0  0  0  0
  146.9830  153.3760  136.3790 N   0  0  0  0  0  0  0  0  0  0  0  0
  148.3870  153.5450  134.5350 O   0  0  0  0  0  0  0  0  0  0  0  0
  147.3800  156.4070  134.2940 C   0  0  0  0  0  0  0  0  0  0  0  0
  146.3770  157.3050  133.9890 C   0  0  0  0  0  0  0  0  0  0  0  0
  146.4510  158.6270  133.5520 C   0  0  0  0  0  0  0  0  0  0  0  0
  145.2430  159.3250  133.3500 C   0  0  0  0  0  0  0  0  0  0  0  0
  143.9940  158.6850  133.5630 C   0  0  0  0  0  0  0  0  0  0  0  0
  142.7160  159.4520  133.3630 C   0  0  0  0  0  0  0  0  0  0  0  0
  143.9590  157.3430  134.0110 C   0  0  0  0  0  0  0  0  0  0  0  0
  145.1760  156.6800  134.2080 C   0  0  0  0  0  0  0  0  0  0  0  0
  139.0161  150.4496  132.3646 H   0  0  0  0  0  0  0  0  0  0  0  0
  140.5690  150.7832  131.5256 H   0  0  0  0  0  0  0  0  0  0  0  0
  139.8870  149.1214  131.5256 H   0  0  0  0  0  0  0  0  0  0  0  0
  143.4120  151.0864  133.6841 H   0  0  0  0  0  0  0  0  0  0  0  0
  142.2519  151.6400  132.4032 H   0  0  0  0  0  0  0  0  0  0  0  0
  142.3451  152.9222  135.1506 H   0  0  0  0  0  0  0  0  0  0  0  0
  139.7140  156.6223  134.1515 H   0  0  0  0  0  0  0  0  0  0  0  0
  140.8353  156.7407  132.7532 H   0  0  0  0  0  0  0  0  0  0  0  0
  139.5265  155.5104  132.7532 H   0  0  0  0  0  0  0  0  0  0  0  0
  145.5253  153.6926  132.6615 H   0  0  0  0  0  0  0  0  0  0  0  0
  144.1446  152.7797  131.9637 H   0  0  0  0  0  0  0  0  0  0  0  0
  144.1256  154.5759  131.9637 H   0  0  0  0  0  0  0  0  0  0  0  0
  146.0000  153.4750  136.7130 H   0  0  0  0  0  0  0  0  0  0  0  0
  148.4656  156.5725  134.2295 H   0  0  0  0  0  0  0  0  0  0  0  0
  147.4222  159.1105  133.3704 H   0  0  0  0  0  0  0  0  0  0  0  0
  145.2685  160.3754  133.0243 H   0  0  0  0  0  0  0  0  0  0  0  0
  142.2861  159.7100  134.3421 H   0  0  0  0  0  0  0  0  0  0  0  0
  142.9257  160.3736  132.8003 H   0  0  0  0  0  0  0  0  0  0  0  0
  142.0014  158.8334  132.8003 H   0  0  0  0  0  0  0  0  0  0  0  0
  143.0017  156.8349  134.1992 H   0  0  0  0  0  0  0  0  0  0  0  0
  1  2  1  0
  2  3  1  0
  3  4  2  0
  3  5  1  0
  5  6  1  0
  6  7  1  0
  7  8  2  0
  7  9  1  0
  9 10  1  0
  6 11  1  0
 11 12  1  0
 11 13  1  0
 13 14  2  0
 13 15  1  0
 15 16  1  0
 16 17  1  0
 17 18  1  0
 17 19  2  0
 16 20  2  0
 20 21  1  0
 21 22  2  0
 22 23  1  0
 23 24  2  0
 24 25  1  0
 24 26  1  0
 26 27  2  0
 27 15  1  0
 27 21  1  0
  1 28  1  0
  1 29  1  0
  1 30  1  0
  5 31  1  0
  5 32  1  0
  6 33  1  1
 10 34  1  0
 10 35  1  0
 10 36  1  0
 12 37  1  0
 12 38  1  0
 12 39  1  0
 18 40  1  0
 20 41  1  0
 22 42  1  0
 23 43  1  0
 25 44  1  0
 25 45  1  0
 25 46  1  0
 26 47  1  0
M  CHG  1  18  -1
M  END
>  <UniqueID>  (66) 
66

>  <SMILES>  (66) 
COC(=O)C[C@H](C(=O)OC)N(C)C(=O)n1c(C([NH-])=O)cc2ccc(C)cc21

>  <Energy>  (66) 
81.93081798911838

>  <Genealogy>  (66) 
COC(=O)CC(C(=O)OC)N(C)C(=O)n1c(C([NH-])=O)cc2ccc(C)cc21 (protonated)
COC(=O)C[C@H](C(=O)OC)N(C)C(=O)n1c(C([NH-])=O)cc2ccc(C)cc21 (chirality)
COC(=O)C[C@H](C(=O)OC)N(C)C(=O)n1c(C([NH-])=O)cc2ccc(C)cc21 (3D coordinates assigned)
COC(=O)C[C@H](C(=O)OC)N(C)C(=O)n1c(C([NH-])=O)cc2ccc(C)cc21 (optimized conformer: 81.93081798911838 kcal/mol)

>  <smiles>  (66) 
COC(=O)CC(C(=O)OC)N(C)C(=O)n1c(C(N)=O)cc2ccc(C)cc21

>  <score_type>  (66) 
oracle

>  <origin>  (66) 
adg

>  <m_score__min__energy>  (66) 
-6.0999999999999996

>  <m_primary>  (66) 
energy

$$$$
67:0
     RDKit          3D

 45 46  0  0  0  0  0  0  0  0999 V2000
  147.2160  153.5090  134.1550 H   0  0  0  0  0  0  0  0  0  0  0  0
  148.1870  153.4970  133.7700 N   0  0  0  0  0  0  0  0  0  0  0  0
  148.6120  154.4750  132.8220 C   0  0  0  0  0  0  0  0  0  0  0  0
  149.3530  154.1280  131.8660 O   0  0  0  0  0  0  0  0  0  0  0  0
  148.1790  155.8800  132.9670 C   0  0  0  0  0  0  0  0  0  0  0  0
  148.9600  156.9810  132.6180 C   0  0  0  0  0  0  0  0  0  0  0  0
  149.9837  156.9725  132.2156 H   0  0  0  0  0  0  0  0  0  0  0  0
  148.1750  158.0830  132.8850 C   0  0  0  0  0  0  0  0  0  0  0  0
  148.4240  159.4330  132.6770 C   0  0  0  0  0  0  0  0  0  0  0  0
  149.3912  159.7755  132.2804 H   0  0  0  0  0  0  0  0  0  0  0  0
  147.4040  160.3500  132.9880 C   0  0  0  0  0  0  0  0  0  0  0  0
  147.5785  161.4250  132.8335 H   0  0  0  0  0  0  0  0  0  0  0  0
  146.1480  159.9110  133.5000 C   0  0  0  0  0  0  0  0  0  0  0  0
  145.0970  160.8660  133.8120 N   0  0  0  0  0  0  0  0  0  0  0  0
  143.6830  160.4840  133.7020 C   0  0  0  0  0  0  0  0  0  0  0  0
  143.2550  160.3684  134.7087 H   0  0  0  0  0  0  0  0  0  0  0  0
  143.1333  161.2658  133.1574 H   0  0  0  0  0  0  0  0  0  0  0  0
  143.6017  159.5317  133.1574 H   0  0  0  0  0  0  0  0  0  0  0  0
  145.4300  162.2280  134.2500 C   0  0  0  0  0  0  0  0  0  0  0  0
  145.4397  162.2676  135.3492 H   0  0  0  0  0  0  0  0  0  0  0  0
  146.4223  162.5049  133.8644 H   0  0  0  0  0  0  0  0  0  0  0  0
  144.6774  162.9315  133.8644 H   0  0  0  0  0  0  0  0  0  0  0  0
  145.9420  158.5180  133.6930 C   0  0  0  0  0  0  0  0  0  0  0  0
  144.9848  158.1410  134.0824 H   0  0  0  0  0  0  0  0  0  0  0  0
  146.9800  157.6370  133.3780 C   0  0  0  0  0  0  0  0  0  0  0  0
  146.9670  156.2890  133.4330 N   0  0  0  0  0  0  0  0  0  0  0  0
  145.8590  155.4660  133.8230 C   0  0  0  0  0  0  0  0  0  0  0  0
  145.8420  154.9670  134.9790 O   0  0  0  0  0  0  0  0  0  0  0  0
  144.7470  155.1650  132.8950 C   0  0  0  0  0  0  0  0  0  0  0  0
  144.8349  154.2707  132.2605 H   0  0  0  0  0  0  0  0  0  0  0  0
  143.6430  155.9080  132.7770 C   0  0  0  0  0  0  0  0  0  0  0  0
  142.8773  155.6216  132.0410 H   0  0  0  0  0  0  0  0  0  0  0  0
  143.4410  157.0400  133.5680 O   0  0  0  0  0  0  0  0  0  0  0  0
  142.1810  157.5510  133.8880 C   0  0  0  0  0  0  0  0  0  0  0  0
  141.7290  157.4650  135.0620 O   0  0  0  0  0  0  0  0  0  0  0  0
  141.4140  158.1880  132.8600 N   0  0  0  0  0  0  0  0  0  0  0  0
  141.8590  158.2870  131.9200 H   0  0  0  0  0  0  0  0  0  0  0  0
  140.1710  158.9110  133.1400 C   0  0  0  0  0  0  0  0  0  0  0  0
  140.3916  159.7260  133.8451 H   0  0  0  0  0  0  0  0  0  0  0  0
  139.6160  159.5030  131.8770 C   0  0  0  0  0  0  0  0  0  0  0  0
  138.6130  160.2680  131.9140 O   0  0  0  0  0  0  0  0  0  0  0  0
  140.2390  159.2500  130.6610 O   0  0  0  0  0  0  0  0  0  0  0  0
  139.1630  157.9910  133.7650 C   0  0  0  0  0  0  0  0  0  0  0  0
  138.7290  156.9910  133.1330 O   0  0  0  0  0  0  0  0  0  0  0  0
  138.7060  158.2370  135.0550 O   0  0  0  0  0  0  0  0  0  0  0  0
  1  2  1  0
  2  3  1  0
  3  4  2  0
  3  5  1  0
  5  6  2  0
  6  7  1  0
  6  8  1  0
  8  9  2  0
  9 10  1  0
  9 11  1  0
 11 12  1  0
 11 13  2  0
 13 14  1  0
 14 15  1  0
 15 16  1  0
 15 17  1  0
 15 18  1  0
 14 19  1  0
 19 20  1  0
 19 21  1  0
 19 22  1  0
 13 23  1  0
 23 24  1  0
 23 25  2  0
 25 26  1  0
 26 27  1  0
 27 28  2  0
 27 29  1  0
 29 30  1  0
 29 31  2  0
 31 32  1  0
 31 33  1  0
 33 34  1  0
 34 35  2  0
 34 36  1  0
 36 37  1  0
 36 38  1  0
 38 39  1  0
 38 40  1  0
 40 41  2  0
 40 42  1  0
 38 43  1  0
 43 44  2  0
 43 45  1  0
 26  5  1  0
 25  8  1  0
M  CHG  3   2  -1  42  -1  45  -1
M  END
>  <UniqueID>  (67) 
67

>  <SMILES>  (67) 
CN(C)c1ccc2cc(C([NH-])=O)n(C(=O)/C=C\OC(=O)NC(C(=O)[O-])C(=O)[O-])c2c1

>  <Energy>  (67) 
81.19033164000791

>  <Genealogy>  (67) 
CN(C)c1ccc2cc(C([NH-])=O)n(C(=O)/C=C\OC(=O)NC(C(=O)[O-])C(=O)[O-])c2c1 (protonated)
CN(C)c1ccc2cc(C([NH-])=O)n(C(=O)/C=C\OC(=O)NC(C(=O)[O-])C(=O)[O-])c2c1 (cis-trans isomerization)
CN(C)c1ccc2cc(C([NH-])=O)n(C(=O)/C=C\OC(=O)NC(C(=O)[O-])C(=O)[O-])c2c1 (3D coordinates assigned)
CN(C)c1ccc2cc(C([NH-])=O)n(C(=O)/C=C\OC(=O)NC(C(=O)[O-])C(=O)[O-])c2c1 (optimized conformer: 81.19033164000791 kcal/mol)

>  <smiles>  (67) 
CN(C)c1ccc2cc(C(N)=O)n(C(=O)/C=C\OC(=O)NC(C(=O)O)C(=O)O)c2c1

>  <score_type>  (67) 
oracle

>  <origin>  (67) 
adg

>  <m_score__min__energy>  (67) 
-7.8600000000000003

>  <m_primary>  (67) 
energy

$$$$
68:0
     RDKit          3D

 43 45  0  0  0  0  0  0  0  0999 V2000
  148.8080  157.6840  132.8220 C   0  0  0  0  0  0  0  0  0  0  0  0
  147.6550  158.5990  133.1080 C   0  0  0  0  0  0  0  0  0  0  0  0
  147.8900  159.9750  133.3470 C   0  0  0  0  0  0  0  0  0  0  0  0
  146.8200  160.8530  133.5900 C   0  0  0  0  0  0  0  0  0  0  0  0
  145.5310  160.3290  133.5760 C   0  0  0  0  0  0  0  0  0  0  0  0
  144.3190  160.9470  133.7830 C   0  0  0  0  0  0  0  0  0  0  0  0
  143.3620  159.9440  133.6400 C   0  0  0  0  0  0  0  0  0  0  0  0
  141.9070  160.1890  133.6890 C   0  0  0  0  0  0  0  0  0  0  0  0
  141.0790  159.7670  132.6090 N   0  0  0  0  0  0  0  0  0  0  0  0
  141.3800  160.7500  134.6870 O   0  0  0  0  0  0  0  0  0  0  0  0
  143.9620  158.7490  133.3710 N   0  0  0  0  0  0  0  0  0  0  0  0
  143.3440  157.4650  133.1960 C   0  0  0  0  0  0  0  0  0  0  0  0
  142.5830  157.2680  132.2100 O   0  0  0  0  0  0  0  0  0  0  0  0
  143.6170  156.3650  134.1320 C   0  0  0  0  0  0  0  0  0  0  0  0
  144.7190  155.5880  134.0640 N   0  0  0  0  0  0  0  0  0  0  0  0
  144.5360  154.7340  135.0880 C   0  0  0  0  0  0  0  0  0  0  0  0
  145.4390  153.6850  135.4470 N   0  0  0  0  0  0  0  0  0  0  0  0
  146.7250  153.8830  136.0450 C   0  0  0  0  0  0  0  0  0  0  0  0
  147.0390  153.2910  137.1130 O   0  0  0  0  0  0  0  0  0  0  0  0
  147.7120  154.8090  135.3920 C   0  0  0  0  0  0  0  0  0  0  0  0
  147.4550  154.9680  133.9510 N   0  0  0  0  0  0  0  0  0  0  0  0
  148.5300  154.4060  133.1200 C   0  0  0  0  0  0  0  0  0  0  0  0
  148.1870  153.0140  132.6870 C   0  0  0  0  0  0  0  0  0  0  0  0
  149.0980  152.2200  132.3350 O   0  0  0  0  0  0  0  0  0  0  0  0
  146.8650  152.5920  132.6810 O   0  0  0  0  0  0  0  0  0  0  0  0
  143.3570  155.0110  135.7350 C   0  0  0  0  0  0  0  0  0  0  0  0
  142.8120  156.0290  135.1180 O   0  0  0  0  0  0  0  0  0  0  0  0
  145.2870  159.0030  133.3260 C   0  0  0  0  0  0  0  0  0  0  0  0
  146.3320  158.1050  133.0890 C   0  0  0  0  0  0  0  0  0  0  0  0
  149.2449  157.3373  133.7701 H   0  0  0  0  0  0  0  0  0  0  0  0
  148.4542  156.8182  132.2430 H   0  0  0  0  0  0  0  0  0  0  0  0
  149.5708  158.2253  132.2430 H   0  0  0  0  0  0  0  0  0  0  0  0
  148.9203  160.3603  133.3424 H   0  0  0  0  0  0  0  0  0  0  0  0
  146.9959  161.9212  133.7852 H   0  0  0  0  0  0  0  0  0  0  0  0
  144.1428  162.0082  134.0127 H   0  0  0  0  0  0  0  0  0  0  0  0
  141.4410  159.1170  131.8760 H   0  0  0  0  0  0  0  0  0  0  0  0
  147.6457  155.7952  135.8747 H   0  0  0  0  0  0  0  0  0  0  0  0
  148.7147  154.3724  135.5104 H   0  0  0  0  0  0  0  0  0  0  0  0
  146.5550  154.4910  133.7060 H   0  0  0  0  0  0  0  0  0  0  0  0
  148.6674  155.0381  132.2303 H   0  0  0  0  0  0  0  0  0  0  0  0
  149.4570  154.3757  133.7114 H   0  0  0  0  0  0  0  0  0  0  0  0
  142.9480  154.4786  136.6064 H   0  0  0  0  0  0  0  0  0  0  0  0
  146.1292  157.0418  132.8929 H   0  0  0  0  0  0  0  0  0  0  0  0
  1  2  1  0
  2  3  2  0
  3  4  1  0
  4  5  2  0
  5  6  1  0
  6  7  2  0
  7  8  1  0
  8  9  1  0
  8 10  2  0
  7 11  1  0
 11 12  1  0
 12 13  2  0
 12 14  1  0
 14 15  2  0
 15 16  1  0
 16 17  1  0
 17 18  1  0
 18 19  2  0
 18 20  1  0
 20 21  1  0
 21 22  1  0
 22 23  1  0
 23 24  2  0
 23 25  1  0
 16 26  2  0
 26 27  1  0
 11 28  1  0
 28 29  2  0
 29  2  1  0
 28  5  1  0
 27 14  1  0
  1 30  1  0
  1 31  1  0
  1 32  1  0
  3 33  1  0
  4 34  1  0
  6 35  1  0
  9 36  1  0
 20 37  1  0
 20 38  1  0
 21 39  1  0
 22 40  1  0
 22 41  1  0
 26 42  1  0
 29 43  1  0
M  CHG  3   9  -1  17  -1  25  -1
M  END
>  <UniqueID>  (68) 
68

>  <SMILES>  (68) 
Cc1ccc2cc(C([NH-])=O)n(C(=O)c3nc([N-]C(=O)CNCC(=O)[O-])co3)c2c1

>  <Energy>  (68) 
112.17679482800862

>  <Genealogy>  (68) 
Cc1ccc2cc(C([NH-])=O)n(C(=O)c3nc([N-]C(=O)CNCC(=O)[O-])co3)c2c1 (protonated)
Cc1ccc2cc(C([NH-])=O)n(C(=O)c3nc([N-]C(=O)CNCC(=O)[O-])co3)c2c1 (3D coordinates assigned)
Cc1ccc2cc(C([NH-])=O)n(C(=O)c3nc([N-]C(=O)CNCC(=O)[O-])co3)c2c1 (optimized conformer: 112.17679482800862 kcal/mol)

>  <smiles>  (68) 
Cc1ccc2cc(C(N)=O)n(C(=O)c3nc(NC(=O)CNCC(=O)O)co3)c2c1

>  <score_type>  (68) 
oracle

>  <origin>  (68) 
adg

>  <m_score__min__energy>  (68) 
-7.7300000000000004

>  <m_primary>  (68) 
energy

$$$$
69:0
     RDKit          3D

 37 38  0  0  0  0  0  0  0  0999 V2000
  138.9290  158.6220  132.2370 N   0  0  0  0  0  0  0  0  0  0  0  0
  139.6320  158.4490  133.1400 C   0  0  0  0  0  0  0  0  0  0  0  0
  140.5240  158.2330  134.2840 C   0  0  0  0  0  0  0  0  0  0  0  0
  141.8580  158.8680  134.0190 C   0  0  0  0  0  0  0  0  0  0  0  0
  141.9720  160.2790  133.9210 C   0  0  0  0  0  0  0  0  0  0  0  0
  143.2270  160.8840  133.7330 C   0  0  0  0  0  0  0  0  0  0  0  0
  144.3440  160.0590  133.6490 C   0  0  0  0  0  0  0  0  0  0  0  0
  145.6790  160.3780  133.5420 C   0  0  0  0  0  0  0  0  0  0  0  0
  146.3530  159.1590  133.5640 C   0  0  0  0  0  0  0  0  0  0  0  0
  147.8230  159.0330  133.4720 C   0  0  0  0  0  0  0  0  0  0  0  0
  148.4760  157.7760  133.6560 N   0  0  0  0  0  0  0  0  0  0  0  0
  148.5130  160.0470  133.1860 O   0  0  0  0  0  0  0  0  0  0  0  0
  145.4710  158.1280  133.6830 N   0  0  0  0  0  0  0  0  0  0  0  0
  145.7560  156.7410  133.9070 C   0  0  0  0  0  0  0  0  0  0  0  0
  146.1710  156.3630  135.0350 O   0  0  0  0  0  0  0  0  0  0  0  0
  145.6820  155.7560  132.7780 C   0  0  0  0  0  0  0  0  0  0  0  0
  146.9660  155.5860  132.2100 O   0  0  0  0  0  0  0  0  0  0  0  0
  147.5280  154.3540  132.6160 C   0  0  0  0  0  0  0  0  0  0  0  0
  149.0470  154.4690  132.6280 C   0  0  0  0  0  0  0  0  0  0  0  0
  149.4230  155.8130  132.5230 O   0  0  0  0  0  0  0  0  0  0  0  0
  144.2470  158.6940  133.7310 C   0  0  0  0  0  0  0  0  0  0  0  0
  143.0160  158.0630  133.9330 C   0  0  0  0  0  0  0  0  0  0  0  0
  140.0785  158.6824  135.1838 H   0  0  0  0  0  0  0  0  0  0  0  0
  140.6614  157.1524  134.4370 H   0  0  0  0  0  0  0  0  0  0  0  0
  141.0704  160.9050  133.9928 H   0  0  0  0  0  0  0  0  0  0  0  0
  143.3229  161.9770  133.6547 H   0  0  0  0  0  0  0  0  0  0  0  0
  146.1199  161.3822  133.4572 H   0  0  0  0  0  0  0  0  0  0  0  0
  147.9350  156.8850  133.7040 H   0  0  0  0  0  0  0  0  0  0  0  0
  149.5180  157.7230  133.6470 H   0  0  0  0  0  0  0  0  0  0  0  0
  145.3196  154.7897  133.1587 H   0  0  0  0  0  0  0  0  0  0  0  0
  144.9905  156.1328  132.0100 H   0  0  0  0  0  0  0  0  0  0  0  0
  147.1712  154.1031  133.6258 H   0  0  0  0  0  0  0  0  0  0  0  0
  147.2254  153.5634  131.9136 H   0  0  0  0  0  0  0  0  0  0  0  0
  149.4370  154.0534  133.5689 H   0  0  0  0  0  0  0  0  0  0  0  0
  149.4597  153.9094  131.7756 H   0  0  0  0  0  0  0  0  0  0  0  0
  148.8350  156.2090  131.8300 H   0  0  0  0  0  0  0  0  0  0  0  0
  142.9506  156.9686  134.0226 H   0  0  0  0  0  0  0  0  0  0  0  0
  1  2  3  0
  2  3  1  0
  3  4  1  0
  4  5  2  0
  5  6  1  0
  6  7  2  0
  7  8  1  0
  8  9  2  0
  9 10  1  0
 10 11  1  0
 10 12  2  0
  9 13  1  0
 13 14  1  0
 14 15  2  0
 14 16  1  0
 16 17  1  0
 17 18  1  0
 18 19  1  0
 19 20  1  0
 13 21  1  0
 21 22  2  0
 22  4  1  0
 21  7  1  0
  3 23  1  0
  3 24  1  0
  5 25  1  0
  6 26  1  0
  8 27  1  0
 11 28  1  0
 11 29  1  0
 16 30  1  0
 16 31  1  0
 18 32  1  0
 18 33  1  0
 19 34  1  0
 19 35  1  0
 20 36  1  0
 22 37  1  0
M  END
>  <UniqueID>  (69) 
69

>  <SMILES>  (69) 
N#CCc1ccc2cc(C(N)=O)n(C(=O)COCCO)c2c1

>  <Energy>  (69) 
72.7585258892536

>  <Genealogy>  (69) 
N#CCc1ccc2cc(C(N)=O)n(C(=O)COCCO)c2c1 (3D coordinates assigned)
N#CCc1ccc2cc(C(N)=O)n(C(=O)COCCO)c2c1 (optimized conformer: 72.7585258892536 kcal/mol)

>  <smiles>  (69) 
N#CCc1ccc2cc(C(N)=O)n(C(=O)COCCO)c2c1

>  <score_type>  (69) 
oracle

>  <origin>  (69) 
adg

>  <m_score__min__energy>  (69) 
-5.9800000000000004

>  <m_primary>  (69) 
energy

$$$$
70:0
     RDKit          3D

 49 50  0  0  0  0  0  0  0  0999 V2000
  143.1420  152.3270  138.5550 C   0  0  0  0  0  0  0  0  0  0  0  0
  141.9010  152.6870  137.8570 N   0  0  0  0  0  0  0  0  0  0  0  0
  140.6140  152.2100  138.3840 C   0  0  0  0  0  0  0  0  0  0  0  0
  140.1930  150.9650  137.6690 C   0  0  0  0  0  0  0  0  0  0  0  0
  139.4430  150.1320  138.2410 O   0  0  0  0  0  0  0  0  0  0  0  0
  140.6080  150.7370  136.3620 O   0  0  0  0  0  0  0  0  0  0  0  0
  141.9240  153.4870  136.6510 C   0  0  0  0  0  0  0  0  0  0  0  0
  141.3370  154.6040  136.6340 O   0  0  0  0  0  0  0  0  0  0  0  0
  142.5890  153.0180  135.3800 C   0  0  0  0  0  0  0  0  0  0  0  0
  141.7110  153.2610  134.2230 N   0  0  0  0  0  0  0  0  0  0  0  0
  141.0200  152.1330  133.5900 C   0  0  0  0  0  0  0  0  0  0  0  0
  141.4870  154.5960  133.7110 C   0  0  0  0  0  0  0  0  0  0  0  0
  140.3030  155.0210  133.5880 O   0  0  0  0  0  0  0  0  0  0  0  0
  142.6400  155.4670  133.2690 C   0  0  0  0  0  0  0  0  0  0  0  0
  143.1910  156.3350  134.3680 C   0  0  0  0  0  0  0  0  0  0  0  0
  143.5960  155.8060  135.4400 O   0  0  0  0  0  0  0  0  0  0  0  0
  143.2170  157.7640  134.2240 N   0  0  0  0  0  0  0  0  0  0  0  0
  142.1690  158.6320  134.3070 C   0  0  0  0  0  0  0  0  0  0  0  0
  140.7730  158.2830  134.6460 C   0  0  0  0  0  0  0  0  0  0  0  0
  140.4750  157.1630  135.4750 N   0  0  0  0  0  0  0  0  0  0  0  0
  139.8290  159.0010  134.2210 O   0  0  0  0  0  0  0  0  0  0  0  0
  142.6000  159.9370  134.0760 C   0  0  0  0  0  0  0  0  0  0  0  0
  143.9540  159.8410  133.8490 C   0  0  0  0  0  0  0  0  0  0  0  0
  144.8850  160.8320  133.5540 C   0  0  0  0  0  0  0  0  0  0  0  0
  146.2180  160.4390  133.3410 C   0  0  0  0  0  0  0  0  0  0  0  0
  146.5960  159.0760  133.4240 C   0  0  0  0  0  0  0  0  0  0  0  0
  148.0230  158.6810  133.1410 C   0  0  0  0  0  0  0  0  0  0  0  0
  148.8580  159.1880  134.1210 F   0  0  0  0  0  0  0  0  0  0  0  0
  148.4040  159.1930  131.9150 F   0  0  0  0  0  0  0  0  0  0  0  0
  148.1710  157.3050  133.1160 F   0  0  0  0  0  0  0  0  0  0  0  0
  145.6140  158.0970  133.7020 C   0  0  0  0  0  0  0  0  0  0  0  0
  144.3000  158.5190  133.9390 C   0  0  0  0  0  0  0  0  0  0  0  0
  142.9784  152.3744  139.6417 H   0  0  0  0  0  0  0  0  0  0  0  0
  143.4383  151.3059  138.2730 H   0  0  0  0  0  0  0  0  0  0  0  0
  143.9388  153.0310  138.2730 H   0  0  0  0  0  0  0  0  0  0  0  0
  140.7182  151.9949  139.4577 H   0  0  0  0  0  0  0  0  0  0  0  0
  139.8520  152.9881  138.2293 H   0  0  0  0  0  0  0  0  0  0  0  0
  143.5325  153.5661  135.2408 H   0  0  0  0  0  0  0  0  0  0  0  0
  142.7875  151.9388  135.4577 H   0  0  0  0  0  0  0  0  0  0  0  0
  140.6134  151.4692  134.3672 H   0  0  0  0  0  0  0  0  0  0  0  0
  140.1983  152.5110  132.9640 H   0  0  0  0  0  0  0  0  0  0  0  0
  141.7300  151.5727  132.9640 H   0  0  0  0  0  0  0  0  0  0  0  0
  143.4471  154.8163  132.9012 H   0  0  0  0  0  0  0  0  0  0  0  0
  142.2572  156.1388  132.4866 H   0  0  0  0  0  0  0  0  0  0  0  0
  140.9170  156.2340  135.3040 H   0  0  0  0  0  0  0  0  0  0  0  0
  141.9875  160.8507  134.0753 H   0  0  0  0  0  0  0  0  0  0  0  0
  144.5876  161.8891  133.4895 H   0  0  0  0  0  0  0  0  0  0  0  0
  146.9774  161.1996  133.1069 H   0  0  0  0  0  0  0  0  0  0  0  0
  145.8762  157.0291  133.7314 H   0  0  0  0  0  0  0  0  0  0  0  0
  1  2  1  0
  2  3  1  0
  3  4  1  0
  4  5  2  0
  4  6  1  0
  2  7  1  0
  7  8  2  0
  7  9  1  0
  9 10  1  0
 10 11  1  0
 10 12  1  0
 12 13  2  0
 12 14  1  0
 14 15  1  0
 15 16  2  0
 15 17  1  0
 17 18  1  0
 18 19  1  0
 19 20  1  0
 19 21  2  0
 18 22  2  0
 22 23  1  0
 23 24  2  0
 24 25  1  0
 25 26  2  0
 26 27  1  0
 27 28  1  0
 27 29  1  0
 27 30  1  0
 26 31  1  0
 31 32  2  0
 32 17  1  0
 32 23  1  0
  1 33  1  0
  1 34  1  0
  1 35  1  0
  3 36  1  0
  3 37  1  0
  9 38  1  0
  9 39  1  0
 11 40  1  0
 11 41  1  0
 11 42  1  0
 14 43  1  0
 14 44  1  0
 20 45  1  0
 22 46  1  0
 24 47  1  0
 25 48  1  0
 31 49  1  0
M  CHG  2   6  -1  20  -1
M  END
>  <UniqueID>  (70) 
70

>  <SMILES>  (70) 
CN(CC(=O)[O-])C(=O)CN(C)C(=O)CC(=O)n1c(C([NH-])=O)cc2ccc(C(F)(F)F)cc21

>  <Energy>  (70) 
81.56739068608847

>  <Genealogy>  (70) 
CN(CC(=O)[O-])C(=O)CN(C)C(=O)CC(=O)n1c(C([NH-])=O)cc2ccc(C(F)(F)F)cc21 (protonated)
CN(CC(=O)[O-])C(=O)CN(C)C(=O)CC(=O)n1c(C([NH-])=O)cc2ccc(C(F)(F)F)cc21 (3D coordinates assigned)
CN(CC(=O)[O-])C(=O)CN(C)C(=O)CC(=O)n1c(C([NH-])=O)cc2ccc(C(F)(F)F)cc21 (optimized conformer: 81.56739068608847 kcal/mol)

>  <smiles>  (70) 
CN(CC(=O)O)C(=O)CN(C)C(=O)CC(=O)n1c(C(N)=O)cc2ccc(C(F)(F)F)cc21

>  <score_type>  (70) 
oracle

>  <origin>  (70) 
adg

>  <m_score__min__energy>  (70) 
-7.2800000000000002

>  <m_primary>  (70) 
energy

$$$$
71:0
     RDKit          3D

 33 34  0  0  0  0  0  0  0  0999 V2000
  138.5230  158.2670  131.8710 N   0  0  0  0  0  0  0  0  0  0  0  0
  139.8190  158.6390  132.3340 C   0  0  0  0  0  0  0  0  0  0  0  0
  140.5910  159.2720  131.5650 O   0  0  0  0  0  0  0  0  0  0  0  0
  140.2460  158.3420  133.7170 C   0  0  0  0  0  0  0  0  0  0  0  0
  140.6020  159.3270  134.6370 C   0  0  0  0  0  0  0  0  0  0  0  0
  140.8410  158.6570  135.8140 C   0  0  0  0  0  0  0  0  0  0  0  0
  141.2270  159.1450  137.0590 C   0  0  0  0  0  0  0  0  0  0  0  0
  141.4240  158.2190  138.0960 C   0  0  0  0  0  0  0  0  0  0  0  0
  141.2590  156.8280  137.8700 C   0  0  0  0  0  0  0  0  0  0  0  0
  141.4350  155.8480  139.0020 C   0  0  0  0  0  0  0  0  0  0  0  0
  140.2140  155.2780  139.3060 F   0  0  0  0  0  0  0  0  0  0  0  0
  141.9280  156.4870  140.1280 F   0  0  0  0  0  0  0  0  0  0  0  0
  142.3250  154.8480  138.6490 F   0  0  0  0  0  0  0  0  0  0  0  0
  140.8420  156.3750  136.5960 C   0  0  0  0  0  0  0  0  0  0  0  0
  140.6370  157.3210  135.5860 C   0  0  0  0  0  0  0  0  0  0  0  0
  140.2720  157.1100  134.3010 N   0  0  0  0  0  0  0  0  0  0  0  0
  140.0670  155.8360  133.6730 C   0  0  0  0  0  0  0  0  0  0  0  0
  139.0270  155.6300  132.9900 O   0  0  0  0  0  0  0  0  0  0  0  0
  141.0270  154.7910  133.8490 N   0  0  0  0  0  0  0  0  0  0  0  0
  140.8260  153.4370  133.3460 C   0  0  0  0  0  0  0  0  0  0  0  0
  141.9270  152.5130  133.8650 C   0  0  0  0  0  0  0  0  0  0  0  0
  141.3570  151.2270  134.3780 C   0  0  0  0  0  0  0  0  0  0  0  0
  140.9880  151.1310  135.5780 O   0  0  0  0  0  0  0  0  0  0  0  0
  141.1910  150.1480  133.5190 O   0  0  0  0  0  0  0  0  0  0  0  0
  138.0440  157.4170  132.2410 H   0  0  0  0  0  0  0  0  0  0  0  0
  140.6760  160.4100  134.4593 H   0  0  0  0  0  0  0  0  0  0  0  0
  141.3732  160.2225  137.2254 H   0  0  0  0  0  0  0  0  0  0  0  0
  141.7099  158.5765  139.0962 H   0  0  0  0  0  0  0  0  0  0  0  0
  140.6827  155.3036  136.4042 H   0  0  0  0  0  0  0  0  0  0  0  0
  139.8485  153.0643  133.6860 H   0  0  0  0  0  0  0  0  0  0  0  0
  140.8596  153.4536  132.2466 H   0  0  0  0  0  0  0  0  0  0  0  0
  142.6272  152.2936  133.0455 H   0  0  0  0  0  0  0  0  0  0  0  0
  142.4453  153.0192  134.6927 H   0  0  0  0  0  0  0  0  0  0  0  0
  1  2  1  0
  2  3  2  0
  2  4  1  0
  4  5  2  0
  5  6  1  0
  6  7  2  0
  7  8  1  0
  8  9  2  0
  9 10  1  0
 10 11  1  0
 10 12  1  0
 10 13  1  0
  9 14  1  0
 14 15  2  0
 15 16  1  0
 16 17  1  0
 17 18  2  0
 17 19  1  0
 19 20  1  0
 20 21  1  0
 21 22  1  0
 22 23  2  0
 22 24  1  0
 16  4  1  0
 15  6  1  0
  1 25  1  0
  5 26  1  0
  7 27  1  0
  8 28  1  0
 14 29  1  0
 20 30  1  0
 20 31  1  0
 21 32  1  0
 21 33  1  0
M  CHG  3   1  -1  19  -1  24  -1
M  END
>  <UniqueID>  (71) 
71

>  <SMILES>  (71) 
[NH-]C(=O)c1cc2ccc(C(F)(F)F)cc2n1C(=O)[N-]CCC(=O)[O-]

>  <Energy>  (71) 
68.0470006369184

>  <Genealogy>  (71) 
[NH-]C(=O)c1cc2ccc(C(F)(F)F)cc2n1C(=O)[N-]CCC(=O)[O-] (protonated)
[NH-]C(=O)c1cc2ccc(C(F)(F)F)cc2n1C(=O)[N-]CCC(=O)[O-] (3D coordinates assigned)
[NH-]C(=O)c1cc2ccc(C(F)(F)F)cc2n1C(=O)[N-]CCC(=O)[O-] (optimized conformer: 68.0470006369184 kcal/mol)

>  <smiles>  (71) 
NC(=O)c1cc2ccc(C(F)(F)F)cc2n1C(=O)NCCC(=O)O

>  <score_type>  (71) 
oracle

>  <origin>  (71) 
adg

>  <m_score__min__energy>  (71) 
-6.1500000000000004

>  <m_primary>  (71) 
energy

$$$$
72:0
     RDKit          3D

 63 64  0  0  0  0  0  0  0  0999 V2000
  138.6970  158.2240  131.7180 C   0  0  0  0  0  0  0  0  0  0  0  0
  139.3600  157.7450  132.9740 C   0  0  0  0  0  0  0  0  0  0  0  0
  139.3550  158.5530  134.1360 C   0  0  0  0  0  0  0  0  0  0  0  0
  140.0200  158.1350  135.3000 C   0  0  0  0  0  0  0  0  0  0  0  0
  140.6710  156.9050  135.2710 C   0  0  0  0  0  0  0  0  0  0  0  0
  141.4190  156.2850  136.2430 C   0  0  0  0  0  0  0  0  0  0  0  0
  141.8370  155.0840  135.6780 C   0  0  0  0  0  0  0  0  0  0  0  0
  142.6040  154.0630  136.4240 C   0  0  0  0  0  0  0  0  0  0  0  0
  143.9220  153.6960  136.0300 N   0  0  0  0  0  0  0  0  0  0  0  0
  142.0680  153.4730  137.4000 O   0  0  0  0  0  0  0  0  0  0  0  0
  141.3780  154.9690  134.3980 N   0  0  0  0  0  0  0  0  0  0  0  0
  141.7070  153.9310  133.4540 C   0  0  0  0  0  0  0  0  0  0  0  0
  140.8330  153.5720  132.6180 O   0  0  0  0  0  0  0  0  0  0  0  0
  143.0410  153.3610  133.4030 N   0  0  2  0  0  0  0  0  0  0  0  0
  143.7520  153.7530  132.1550 C   0  0  0  0  0  0  0  0  0  0  0  0
  145.2750  153.6230  132.2790 C   0  0  0  0  0  0  0  0  0  0  0  0
  145.6430  153.4930  133.6330 O   0  0  0  0  0  0  0  0  0  0  0  0
  147.1120  154.3620  133.9850 Si  0  0  0  0  0  4  0  0  0  0  0  0
  148.5370  153.6290  133.0120 C   0  0  0  0  0  0  0  0  0  0  0  0
  147.4980  154.0480  135.7870 C   0  0  0  0  0  0  0  0  0  0  0  0
  146.9780  156.2530  133.7190 C   0  0  0  0  0  0  0  0  0  0  0  0
  145.5280  156.7030  133.9880 C   0  0  0  0  0  0  0  0  0  0  0  0
  147.9090  157.0140  134.6810 C   0  0  0  0  0  0  0  0  0  0  0  0
  147.3460  156.5920  132.2640 C   0  0  0  0  0  0  0  0  0  0  0  0
  143.0190  151.8880  133.6110 C   0  0  0  0  0  0  0  0  0  0  0  0
  141.8540  151.1390  132.9090 C   0  0  0  0  0  0  0  0  0  0  0  0
  141.0170  150.3660  133.8850 C   0  0  0  0  0  0  0  0  0  0  0  0
  140.3440  149.3730  133.5000 O   0  0  0  0  0  0  0  0  0  0  0  0
  140.9840  150.7410  135.2230 O   0  0  0  0  0  0  0  0  0  0  0  0
  140.6710  156.0990  134.1610 C   0  0  0  0  0  0  0  0  0  0  0  0
  140.0460  156.5110  132.9780 C   0  0  0  0  0  0  0  0  0  0  0  0
  137.8304  158.8501  131.9767 H   0  0  0  0  0  0  0  0  0  0  0  0
  139.4130  158.8147  131.1278 H   0  0  0  0  0  0  0  0  0  0  0  0
  138.3611  157.3587  131.1278 H   0  0  0  0  0  0  0  0  0  0  0  0
  138.8254  159.5171  134.1272 H   0  0  0  0  0  0  0  0  0  0  0  0
  140.0263  158.7594  136.2056 H   0  0  0  0  0  0  0  0  0  0  0  0
  141.6404  156.6589  137.2535 H   0  0  0  0  0  0  0  0  0  0  0  0
  144.3850  154.1440  135.2090 H   0  0  0  0  0  0  0  0  0  0  0  0
  143.5780  153.7450  134.2150 H   0  0  0  0  0  0  0  0  0  0  0  0
  143.4086  153.1048  131.3353 H   0  0  0  0  0  0  0  0  0  0  0  0
  143.5225  154.8108  131.9587 H   0  0  0  0  0  0  0  0  0  0  0  0
  145.6103  152.7343  131.7243 H   0  0  0  0  0  0  0  0  0  0  0  0
  145.7476  154.5252  131.8633 H   0  0  0  0  0  0  0  0  0  0  0  0
  149.2944  153.2394  133.7082 H   0  0  0  0  0  0  0  0  0  0  0  0
  148.1656  152.8101  132.3785 H   0  0  0  0  0  0  0  0  0  0  0  0
  148.9872  154.4074  132.3785 H   0  0  0  0  0  0  0  0  0  0  0  0
  146.7982  154.6173  136.4165 H   0  0  0  0  0  0  0  0  0  0  0  0
  147.3947  152.9743  136.0024 H   0  0  0  0  0  0  0  0  0  0  0  0
  148.5282  154.3677  136.0024 H   0  0  0  0  0  0  0  0  0  0  0  0
  145.3560  156.7564  135.0732 H   0  0  0  0  0  0  0  0  0  0  0  0
  145.3630  157.6946  133.5414 H   0  0  0  0  0  0  0  0  0  0  0  0
  144.8306  155.9790  133.5414 H   0  0  0  0  0  0  0  0  0  0  0  0
  147.6290  156.7852  135.7199 H   0  0  0  0  0  0  0  0  0  0  0  0
  148.9499  156.7048  134.5052 H   0  0  0  0  0  0  0  0  0  0  0  0
  147.8131  158.0956  134.5052 H   0  0  0  0  0  0  0  0  0  0  0  0
  148.1550  157.3372  132.2545 H   0  0  0  0  0  0  0  0  0  0  0  0
  147.6815  155.6800  131.7486 H   0  0  0  0  0  0  0  0  0  0  0  0
  146.4645  157.0011  131.7486 H   0  0  0  0  0  0  0  0  0  0  0  0
  143.9659  151.4765  133.2315 H   0  0  0  0  0  0  0  0  0  0  0  0
  142.8746  151.7341  134.6906 H   0  0  0  0  0  0  0  0  0  0  0  0
  141.2156  151.8743  132.3973 H   0  0  0  0  0  0  0  0  0  0  0  0
  142.2894  150.4258  132.1936 H   0  0  0  0  0  0  0  0  0  0  0  0
  140.0884  155.8878  132.0726 H   0  0  0  0  0  0  0  0  0  0  0  0
  1  2  1  0
  2  3  2  0
  3  4  1  0
  4  5  2  0
  5  6  1  0
  6  7  2  0
  7  8  1  0
  8  9  1  0
  8 10  2  0
  7 11  1  0
 11 12  1  0
 12 13  2  0
 12 14  1  0
 14 15  1  0
 15 16  1  0
 16 17  1  0
 17 18  1  0
 18 19  1  0
 18 20  1  0
 18 21  1  0
 21 22  1  0
 21 23  1  0
 21 24  1  0
 14 25  1  0
 25 26  1  0
 26 27  1  0
 27 28  2  0
 27 29  1  0
 11 30  1  0
 30 31  2  0
 31  2  1  0
 30  5  1  0
  1 32  1  0
  1 33  1  0
  1 34  1  0
  3 35  1  0
  4 36  1  0
  6 37  1  0
  9 38  1  0
 14 39  1  1
 15 40  1  0
 15 41  1  0
 16 42  1  0
 16 43  1  0
 19 44  1  0
 19 45  1  0
 19 46  1  0
 20 47  1  0
 20 48  1  0
 20 49  1  0
 22 50  1  0
 22 51  1  0
 22 52  1  0
 23 53  1  0
 23 54  1  0
 23 55  1  0
 24 56  1  0
 24 57  1  0
 24 58  1  0
 25 59  1  0
 25 60  1  0
 26 61  1  0
 26 62  1  0
 31 63  1  0
M  CHG  3   9  -1  14   1  29  -1
M  END
>  <UniqueID>  (72) 
72

>  <SMILES>  (72) 
Cc1ccc2cc(C([NH-])=O)n(C(=O)[N@H+](CCO[Si](C)(C)C(C)(C)C)CCC(=O)[O-])c2c1

>  <Energy>  (72) 
89.91336781768486

>  <Genealogy>  (72) 
Cc1ccc2cc(C([NH-])=O)n(C(=O)[NH+](CCO[Si](C)(C)C(C)(C)C)CCC(=O)[O-])c2c1 (protonated)
Cc1ccc2cc(C([NH-])=O)n(C(=O)[N@H+](CCO[Si](C)(C)C(C)(C)C)CCC(=O)[O-])c2c1 (chirality)
Cc1ccc2cc(C([NH-])=O)n(C(=O)[N@H+](CCO[Si](C)(C)C(C)(C)C)CCC(=O)[O-])c2c1 (3D coordinates assigned)
Cc1ccc2cc(C([NH-])=O)n(C(=O)[N@H+](CCO[Si](C)(C)C(C)(C)C)CCC(=O)[O-])c2c1 (optimized conformer: 89.91336781768486 kcal/mol)

>  <smiles>  (72) 
Cc1ccc2cc(C(N)=O)n(C(=O)N(CCO[Si](C)(C)C(C)(C)C)CCC(=O)O)c2c1

>  <score_type>  (72) 
oracle

>  <origin>  (72) 
adg

>  <m_score__min__energy>  (72) 
-7.6399999999999997

>  <m_primary>  (72) 
energy

$$$$
73:0
     RDKit          3D

 40 41  0  0  0  0  0  0  0  0999 V2000
  139.0510  160.8410  131.4780 C   0  0  0  0  0  0  0  0  0  0  0  0
  138.9350  159.0660  131.4030 S   0  0  0  0  0  0  0  0  0  0  0  0
  139.0710  158.6160  129.9750 O   0  0  0  0  0  0  0  0  0  0  0  0
  137.5940  158.6400  131.9290 O   0  0  0  0  0  0  0  0  0  0  0  0
  140.2120  158.3160  132.3990 C   0  0  0  0  0  0  0  0  0  0  0  0
  139.6210  157.4660  133.5210 C   0  0  0  0  0  0  0  0  0  0  0  0
  140.4670  155.8480  133.6400 S   0  0  0  0  0  0  0  0  0  0  0  0
  142.1640  156.4240  133.2440 C   0  0  0  0  0  0  0  0  0  0  0  0
  142.7510  157.2700  134.3420 C   0  0  0  0  0  0  0  0  0  0  0  0
  142.5040  156.9690  135.5410 O   0  0  0  0  0  0  0  0  0  0  0  0
  143.5960  158.4000  134.0610 N   0  0  0  0  0  0  0  0  0  0  0  0
  143.2480  159.7140  133.9680 C   0  0  0  0  0  0  0  0  0  0  0  0
  141.9430  160.2890  134.3460 C   0  0  0  0  0  0  0  0  0  0  0  0
  141.2130  159.7360  135.4380 N   0  0  0  0  0  0  0  0  0  0  0  0
  141.4450  161.2370  133.6850 O   0  0  0  0  0  0  0  0  0  0  0  0
  144.3320  160.4780  133.5410 C   0  0  0  0  0  0  0  0  0  0  0  0
  145.3700  159.5870  133.3920 C   0  0  0  0  0  0  0  0  0  0  0  0
  146.6820  159.7980  132.9780 C   0  0  0  0  0  0  0  0  0  0  0  0
  147.5340  158.6830  132.8950 C   0  0  0  0  0  0  0  0  0  0  0  0
  147.0650  157.3890  133.2330 C   0  0  0  0  0  0  0  0  0  0  0  0
  147.9840  156.2070  133.1180 C   0  0  0  0  0  0  0  0  0  0  0  0
  149.2220  156.6240  132.6650 F   0  0  0  0  0  0  0  0  0  0  0  0
  148.1300  155.6050  134.3540 F   0  0  0  0  0  0  0  0  0  0  0  0
  145.7300  157.2160  133.6570 C   0  0  0  0  0  0  0  0  0  0  0  0
  144.9030  158.3420  133.7230 C   0  0  0  0  0  0  0  0  0  0  0  0
  139.0720  161.1630  132.5296 H   0  0  0  0  0  0  0  0  0  0  0  0
  139.9725  161.1698  130.9754 H   0  0  0  0  0  0  0  0  0  0  0  0
  138.1801  161.2869  130.9754 H   0  0  0  0  0  0  0  0  0  0  0  0
  140.8362  157.6767  131.7574 H   0  0  0  0  0  0  0  0  0  0  0  0
  140.8107  159.1190  132.8537 H   0  0  0  0  0  0  0  0  0  0  0  0
  139.7348  158.0016  134.4751 H   0  0  0  0  0  0  0  0  0  0  0  0
  138.5580  157.2883  133.3008 H   0  0  0  0  0  0  0  0  0  0  0  0
  142.8088  155.5461  133.0908 H   0  0  0  0  0  0  0  0  0  0  0  0
  142.1060  157.0431  132.3367 H   0  0  0  0  0  0  0  0  0  0  0  0
  141.2240  158.7080  135.6260 H   0  0  0  0  0  0  0  0  0  0  0  0
  144.3535  161.5630  133.3612 H   0  0  0  0  0  0  0  0  0  0  0  0
  147.0411  160.8061  132.7236 H   0  0  0  0  0  0  0  0  0  0  0  0
  148.5747  158.8161  132.5645 H   0  0  0  0  0  0  0  0  0  0  0  0
  147.5543  155.4853  132.4077 H   0  0  0  0  0  0  0  0  0  0  0  0
  145.3494  156.2204  133.9288 H   0  0  0  0  0  0  0  0  0  0  0  0
  1  2  1  0
  2  3  2  0
  2  4  2  0
  2  5  1  0
  5  6  1  0
  6  7  1  0
  7  8  1  0
  8  9  1  0
  9 10  2  0
  9 11  1  0
 11 12  1  0
 12 13  1  0
 13 14  1  0
 13 15  2  0
 12 16  2  0
 16 17  1  0
 17 18  2  0
 18 19  1  0
 19 20  2  0
 20 21  1  0
 21 22  1  0
 21 23  1  0
 20 24  1  0
 24 25  2  0
 25 11  1  0
 25 17  1  0
  1 26  1  0
  1 27  1  0
  1 28  1  0
  5 29  1  0
  5 30  1  0
  6 31  1  0
  6 32  1  0
  8 33  1  0
  8 34  1  0
 14 35  1  0
 16 36  1  0
 18 37  1  0
 19 38  1  0
 21 39  1  0
 24 40  1  0
M  CHG  1  14  -1
M  END
>  <UniqueID>  (73) 
73

>  <SMILES>  (73) 
CS(=O)(=O)CCSCC(=O)n1c(C([NH-])=O)cc2ccc(C(F)F)cc21

>  <Energy>  (73) 
66.07799580291746

>  <Genealogy>  (73) 
CS(=O)(=O)CCSCC(=O)n1c(C([NH-])=O)cc2ccc(C(F)F)cc21 (protonated)
CS(=O)(=O)CCSCC(=O)n1c(C([NH-])=O)cc2ccc(C(F)F)cc21 (3D coordinates assigned)
CS(=O)(=O)CCSCC(=O)n1c(C([NH-])=O)cc2ccc(C(F)F)cc21 (optimized conformer: 66.07799580291746 kcal/mol)

>  <smiles>  (73) 
CS(=O)(=O)CCSCC(=O)n1c(C(N)=O)cc2ccc(C(F)F)cc21

>  <score_type>  (73) 
oracle

>  <origin>  (73) 
adg

>  <m_score__min__energy>  (73) 
-7.1900000000000004

>  <m_primary>  (73) 
energy

$$$$
74:0
     RDKit          3D

 39 40  0  0  0  0  0  0  0  0999 V2000
  142.7790  150.3440  132.5850 C   0  0  0  0  0  0  0  0  0  0  0  0
  141.5720  151.1700  132.6930 N   0  0  0  0  0  0  0  0  0  0  0  0
  140.2640  150.5740  132.3960 C   0  0  0  0  0  0  0  0  0  0  0  0
  141.7020  152.5310  133.1690 C   0  0  0  0  0  0  0  0  0  0  0  0
  142.7810  152.8860  133.7160 O   0  0  0  0  0  0  0  0  0  0  0  0
  140.6210  153.5410  133.0360 C   0  0  0  0  0  0  0  0  0  0  0  0
  139.4840  153.2010  132.6110 O   0  0  0  0  0  0  0  0  0  0  0  0
  140.8760  154.9160  133.3750 N   0  0  0  0  0  0  0  0  0  0  0  0
  139.9100  155.9690  133.2340 C   0  0  0  0  0  0  0  0  0  0  0  0
  138.8140  155.7600  132.6460 O   0  0  0  0  0  0  0  0  0  0  0  0
  140.1990  157.2830  133.7380 N   0  0  0  0  0  0  0  0  0  0  0  0
  139.9770  158.4740  133.1160 C   0  0  0  0  0  0  0  0  0  0  0  0
  139.5410  158.6500  131.7160 C   0  0  0  0  0  0  0  0  0  0  0  0
  138.2940  158.1240  131.2570 N   0  0  0  0  0  0  0  0  0  0  0  0
  140.3030  159.2310  130.8980 O   0  0  0  0  0  0  0  0  0  0  0  0
  140.2460  159.5350  133.9780 C   0  0  0  0  0  0  0  0  0  0  0  0
  140.6490  158.9520  135.1580 C   0  0  0  0  0  0  0  0  0  0  0  0
  141.0020  159.5370  136.3700 C   0  0  0  0  0  0  0  0  0  0  0  0
  141.3200  158.6890  137.4430 C   0  0  0  0  0  0  0  0  0  0  0  0
  141.2900  157.2780  137.2870 C   0  0  0  0  0  0  0  0  0  0  0  0
  141.5780  156.3760  138.4610 C   0  0  0  0  0  0  0  0  0  0  0  0
  140.4110  155.7840  138.9200 F   0  0  0  0  0  0  0  0  0  0  0  0
  142.1360  157.0970  139.5030 F   0  0  0  0  0  0  0  0  0  0  0  0
  142.4630  155.3860  138.0710 F   0  0  0  0  0  0  0  0  0  0  0  0
  140.8960  156.7220  136.0480 C   0  0  0  0  0  0  0  0  0  0  0  0
  140.6090  157.5910  134.9890 C   0  0  0  0  0  0  0  0  0  0  0  0
  143.1438  150.0944  133.5923 H   0  0  0  0  0  0  0  0  0  0  0  0
  142.5420  149.4178  132.0409 H   0  0  0  0  0  0  0  0  0  0  0  0
  143.5565  150.9002  132.0409 H   0  0  0  0  0  0  0  0  0  0  0  0
  139.7463  150.3381  133.3374 H   0  0  0  0  0  0  0  0  0  0  0  0
  139.6603  151.2859  131.8140 H   0  0  0  0  0  0  0  0  0  0  0  0
  140.4051  149.6513  131.8140 H   0  0  0  0  0  0  0  0  0  0  0  0
  141.8190  155.1760  133.7420 H   0  0  0  0  0  0  0  0  0  0  0  0
  137.7210  157.4910  131.8560 H   0  0  0  0  0  0  0  0  0  0  0  0
  137.9930  158.2800  130.2700 H   0  0  0  0  0  0  0  0  0  0  0  0
  140.1556  160.6097  133.7617 H   0  0  0  0  0  0  0  0  0  0  0  0
  141.0311  160.6307  136.4842 H   0  0  0  0  0  0  0  0  0  0  0  0
  141.5956  159.1227  138.4156 H   0  0  0  0  0  0  0  0  0  0  0  0
  140.8169  155.6324  135.9195 H   0  0  0  0  0  0  0  0  0  0  0  0
  1  2  1  0
  2  3  1  0
  2  4  1  0
  4  5  2  0
  4  6  1  0
  6  7  2  0
  6  8  1  0
  8  9  1  0
  9 10  2  0
  9 11  1  0
 11 12  1  0
 12 13  1  0
 13 14  1  0
 13 15  2  0
 12 16  2  0
 16 17  1  0
 17 18  2  0
 18 19  1  0
 19 20  2  0
 20 21  1  0
 21 22  1  0
 21 23  1  0
 21 24  1  0
 20 25  1  0
 25 26  2  0
 26 11  1  0
 26 17  1  0
  1 27  1  0
  1 28  1  0
  1 29  1  0
  3 30  1  0
  3 31  1  0
  3 32  1  0
  8 33  1  0
 14 34  1  0
 14 35  1  0
 16 36  1  0
 18 37  1  0
 19 38  1  0
 25 39  1  0
M  END
>  <UniqueID>  (74) 
74

>  <SMILES>  (74) 
CN(C)C(=O)C(=O)NC(=O)n1c(C(N)=O)cc2ccc(C(F)(F)F)cc21

>  <Energy>  (74) 
79.85693612084344

>  <Genealogy>  (74) 
CN(C)C(=O)C(=O)NC(=O)n1c(C(N)=O)cc2ccc(C(F)(F)F)cc21 (3D coordinates assigned)
CN(C)C(=O)C(=O)NC(=O)n1c(C(N)=O)cc2ccc(C(F)(F)F)cc21 (optimized conformer: 79.85693612084344 kcal/mol)

>  <smiles>  (74) 
CN(C)C(=O)C(=O)NC(=O)n1c(C(N)=O)cc2ccc(C(F)(F)F)cc21

>  <score_type>  (74) 
oracle

>  <origin>  (74) 
adg

>  <m_score__min__energy>  (74) 
-7.4800000000000004

>  <m_primary>  (74) 
energy

$$$$
75:0
     RDKit          3D

 62 63  0  0  0  0  0  0  0  0999 V2000
  144.4640  161.5890  134.0910 C   0  0  0  0  0  0  0  0  0  0  0  0
  144.1020  160.1510  133.8620 C   0  0  0  0  0  0  0  0  0  0  0  0
  145.0970  159.2280  133.4570 C   0  0  0  0  0  0  0  0  0  0  0  0
  144.7650  157.8890  133.1900 C   0  0  0  0  0  0  0  0  0  0  0  0
  143.4340  157.5060  133.3330 C   0  0  0  0  0  0  0  0  0  0  0  0
  142.8370  156.2870  133.1070 C   0  0  0  0  0  0  0  0  0  0  0  0
  141.4850  156.4790  133.3860 C   0  0  0  0  0  0  0  0  0  0  0  0
  140.4880  155.3900  133.3390 C   0  0  0  0  0  0  0  0  0  0  0  0
  139.1000  155.7050  133.2530 N   0  0  0  0  0  0  0  0  0  0  0  0
  140.8440  154.1830  133.3410 O   0  0  0  0  0  0  0  0  0  0  0  0
  141.2530  157.7710  133.7640 N   0  0  0  0  0  0  0  0  0  0  0  0
  139.9950  158.3890  134.0830 C   0  0  0  0  0  0  0  0  0  0  0  0
  139.0830  158.4450  133.2140 O   0  0  0  0  0  0  0  0  0  0  0  0
  139.8060  158.9650  135.3450 O   0  0  0  0  0  0  0  0  0  0  0  0
  139.7440  158.2150  136.5590 C   0  0  0  0  0  0  0  0  0  0  0  0
  140.7190  157.0360  136.5200 C   0  0  0  0  0  0  0  0  0  0  0  0
  141.3780  156.8060  137.8560 C   0  0  0  0  0  0  0  0  0  0  0  0
  141.4430  157.7290  138.6540 O   0  0  0  0  0  0  0  0  0  0  0  0
  141.9410  155.4540  138.2240 C   0  0  0  0  0  0  0  0  0  0  0  0
  141.8860  154.5340  137.0620 N   0  0  0  0  0  0  0  0  0  0  0  0
  143.1000  154.6560  136.2350 C   0  0  0  0  0  0  0  0  0  0  0  0
  141.6640  153.1220  137.4640 C   0  0  0  0  0  0  0  0  0  0  0  0
  140.8610  153.0610  138.7660 C   0  0  0  0  0  0  0  0  0  0  0  0
  141.2570  151.9120  139.5910 N   0  0  0  0  0  0  0  0  0  0  0  0
  140.2310  151.1180  140.2700 C   0  0  0  0  0  0  0  0  0  0  0  0
  142.6400  151.5360  139.7290 C   0  0  0  0  0  0  0  0  0  0  0  0
  142.9720  150.3180  139.7310 O   0  0  0  0  0  0  0  0  0  0  0  0
  143.6190  152.5270  139.8670 O   0  0  0  0  0  0  0  0  0  0  0  0
  144.6040  152.7810  138.8730 C   0  0  0  0  0  0  0  0  0  0  0  0
  145.6910  151.9140  139.0890 O   0  0  0  0  0  0  0  0  0  0  0  0
  147.1140  152.6950  138.5620 P   0  0  0  0  0  0  0  0  0  0  0  0
  148.2930  151.7770  138.7920 O   0  0  0  0  0  0  0  0  0  0  0  0
  147.3520  154.1320  139.4230 O   0  0  0  0  0  0  0  0  0  0  0  0
  147.0000  153.0390  136.9090 O   0  0  0  0  0  0  0  0  0  0  0  0
  142.4580  158.3840  133.7280 C   0  0  0  0  0  0  0  0  0  0  0  0
  142.7590  159.7300  133.9800 C   0  0  0  0  0  0  0  0  0  0  0  0
  144.5138  161.7869  135.1719 H   0  0  0  0  0  0  0  0  0  0  0  0
  145.4428  161.7979  133.6345 H   0  0  0  0  0  0  0  0  0  0  0  0
  143.7008  162.2364  133.6345 H   0  0  0  0  0  0  0  0  0  0  0  0
  146.1395  159.5625  133.3505 H   0  0  0  0  0  0  0  0  0  0  0  0
  145.5328  157.1658  132.8777 H   0  0  0  0  0  0  0  0  0  0  0  0
  143.3238  155.3577  132.7762 H   0  0  0  0  0  0  0  0  0  0  0  0
  138.7510  156.4050  132.5610 H   0  0  0  0  0  0  0  0  0  0  0  0
  140.0054  158.8714  137.4021 H   0  0  0  0  0  0  0  0  0  0  0  0
  138.7229  157.8242  136.6802 H   0  0  0  0  0  0  0  0  0  0  0  0
  140.1675  156.1280  136.2347 H   0  0  0  0  0  0  0  0  0  0  0  0
  141.5060  157.2691  135.7877 H   0  0  0  0  0  0  0  0  0  0  0  0
  142.9871  155.5722  138.5428 H   0  0  0  0  0  0  0  0  0  0  0  0
  141.3406  155.0296  139.0422 H   0  0  0  0  0  0  0  0  0  0  0  0
  143.9810  154.7445  136.8878 H   0  0  0  0  0  0  0  0  0  0  0  0
  143.2023  153.7636  135.6000 H   0  0  0  0  0  0  0  0  0  0  0  0
  143.0227  155.5509  135.6000 H   0  0  0  0  0  0  0  0  0  0  0  0
  141.1083  152.6016  136.6701 H   0  0  0  0  0  0  0  0  0  0  0  0
  142.6387  152.6369  137.6213 H   0  0  0  0  0  0  0  0  0  0  0  0
  141.0334  153.9861  139.3357 H   0  0  0  0  0  0  0  0  0  0  0  0
  139.7970  152.9507  138.5097 H   0  0  0  0  0  0  0  0  0  0  0  0
  140.3544  151.2135  141.3589 H   0  0  0  0  0  0  0  0  0  0  0  0
  139.2342  151.4823  139.9806 H   0  0  0  0  0  0  0  0  0  0  0  0
  140.3336  150.0617  139.9806 H   0  0  0  0  0  0  0  0  0  0  0  0
  144.1786  152.6010  137.8747 H   0  0  0  0  0  0  0  0  0  0  0  0
  144.9388  153.8271  138.9332 H   0  0  0  0  0  0  0  0  0  0  0  0
  141.9685  160.4408  134.2627 H   0  0  0  0  0  0  0  0  0  0  0  0
  1  2  1  0
  2  3  2  0
  3  4  1  0
  4  5  2  0
  5  6  1  0
  6  7  2  0
  7  8  1  0
  8  9  1  0
  8 10  2  0
  7 11  1  0
 11 12  1  0
 12 13  2  0
 12 14  1  0
 14 15  1  0
 15 16  1  0
 16 17  1  0
 17 18  2  0
 17 19  1  0
 19 20  1  0
 20 21  1  0
 20 22  1  0
 22 23  1  0
 23 24  1  0
 24 25  1  0
 24 26  1  0
 26 27  2  0
 26 28  1  0
 28 29  1  0
 29 30  1  0
 30 31  1  0
 31 32  2  0
 31 33  1  0
 31 34  1  0
 11 35  1  0
 35 36  2  0
 36  2  1  0
 35  5  1  0
  1 37  1  0
  1 38  1  0
  1 39  1  0
  3 40  1  0
  4 41  1  0
  6 42  1  0
  9 43  1  0
 15 44  1  0
 15 45  1  0
 16 46  1  0
 16 47  1  0
 19 48  1  0
 19 49  1  0
 21 50  1  0
 21 51  1  0
 21 52  1  0
 22 53  1  0
 22 54  1  0
 23 55  1  0
 23 56  1  0
 25 57  1  0
 25 58  1  0
 25 59  1  0
 29 60  1  0
 29 61  1  0
 36 62  1  0
M  CHG  3   9  -1  33  -1  34  -1
M  END
>  <UniqueID>  (75) 
75

>  <SMILES>  (75) 
Cc1ccc2cc(C([NH-])=O)n(C(=O)OCCC(=O)CN(C)CCN(C)C(=O)OCOP(=O)([O-])[O-])c2c1

>  <Energy>  (75) 
88.15140064061096

>  <Genealogy>  (75) 
Cc1ccc2cc(C([NH-])=O)n(C(=O)OCCC(=O)CN(C)CCN(C)C(=O)OCOP(=O)([O-])[O-])c2c1 (protonated)
Cc1ccc2cc(C([NH-])=O)n(C(=O)OCCC(=O)CN(C)CCN(C)C(=O)OCOP(=O)([O-])[O-])c2c1 (3D coordinates assigned)
Cc1ccc2cc(C([NH-])=O)n(C(=O)OCCC(=O)CN(C)CCN(C)C(=O)OCOP(=O)([O-])[O-])c2c1 (optimized conformer: 88.15140064061096 kcal/mol)

>  <smiles>  (75) 
Cc1ccc2cc(C(N)=O)n(C(=O)OCCC(=O)CN(C)CCN(C)C(=O)OCOP(=O)(O)O)c2c1

>  <score_type>  (75) 
oracle

>  <origin>  (75) 
adg

>  <m_score__min__energy>  (75) 
-7.3600000000000003

>  <m_primary>  (75) 
energy

$$$$
76:0
     RDKit          3D

 46 47  0  0  0  0  0  0  0  0999 V2000
  147.7250  155.6180  135.4420 C   0  0  0  0  0  0  0  0  0  0  0  0
  147.2060  154.3160  134.9820 N   0  0  1  0  0  0  0  0  0  0  0  0
  148.2810  153.3640  134.6160 C   0  0  0  0  0  0  0  0  0  0  0  0
  148.0930  152.6720  133.2520 C   0  0  0  0  0  0  0  0  0  0  0  0
  146.8560  153.0340  132.7020 O   0  0  0  0  0  0  0  0  0  0  0  0
  146.2720  153.7390  135.9360 C   0  0  0  0  0  0  0  0  0  0  0  0
  146.6760  153.2190  136.9700 O   0  0  0  0  0  0  0  0  0  0  0  0
  144.7870  153.7600  135.6660 C   0  0  0  0  0  0  0  0  0  0  0  0
  144.5100  154.0600  134.3100 O   0  0  0  0  0  0  0  0  0  0  0  0
  144.3150  155.4520  134.1230 C   0  0  0  0  0  0  0  0  0  0  0  0
  145.2170  155.9840  133.0420 C   0  0  0  0  0  0  0  0  0  0  0  0
  145.5920  155.2160  132.1150 O   0  0  0  0  0  0  0  0  0  0  0  0
  145.7030  157.3360  133.0930 N   0  0  0  0  0  0  0  0  0  0  0  0
  146.9850  157.7610  132.9080 C   0  0  0  0  0  0  0  0  0  0  0  0
  148.1530  156.8970  132.6280 C   0  0  0  0  0  0  0  0  0  0  0  0
  148.0050  155.4780  132.6440 N   0  0  0  0  0  0  0  0  0  0  0  0
  149.2760  157.3950  132.3490 O   0  0  0  0  0  0  0  0  0  0  0  0
  147.0700  159.1400  133.0950 C   0  0  0  0  0  0  0  0  0  0  0  0
  145.7930  159.5480  133.4060 C   0  0  0  0  0  0  0  0  0  0  0  0
  145.3070  160.8150  133.7150 C   0  0  0  0  0  0  0  0  0  0  0  0
  143.9380  160.9430  134.0070 C   0  0  0  0  0  0  0  0  0  0  0  0
  143.0760  159.8170  133.9450 C   0  0  0  0  0  0  0  0  0  0  0  0
  141.6190  159.9590  134.3080 C   0  0  0  0  0  0  0  0  0  0  0  0
  141.4700  160.0580  135.6810 F   0  0  0  0  0  0  0  0  0  0  0  0
  140.9290  158.8490  133.8590 F   0  0  0  0  0  0  0  0  0  0  0  0
  141.0760  161.0940  133.7290 F   0  0  0  0  0  0  0  0  0  0  0  0
  143.6110  158.5460  133.6360 C   0  0  0  0  0  0  0  0  0  0  0  0
  144.9850  158.4420  133.3880 C   0  0  0  0  0  0  0  0  0  0  0  0
  147.7343  155.6412  136.5417 H   0  0  0  0  0  0  0  0  0  0  0  0
  148.7482  155.7592  135.0636 H   0  0  0  0  0  0  0  0  0  0  0  0
  147.0796  156.4244  135.0636 H   0  0  0  0  0  0  0  0  0  0  0  0
  146.6830  154.5170  134.0970 H   0  0  0  0  0  0  0  0  0  0  0  0
  149.2328  153.9149  134.5922 H   0  0  0  0  0  0  0  0  0  0  0  0
  148.2606  152.5668  135.3737 H   0  0  0  0  0  0  0  0  0  0  0  0
  148.8998  152.9815  132.5713 H   0  0  0  0  0  0  0  0  0  0  0  0
  148.1231  151.5813  133.3912 H   0  0  0  0  0  0  0  0  0  0  0  0
  147.0450  153.6870  131.9780 H   0  0  0  0  0  0  0  0  0  0  0  0
  144.3660  152.7727  135.9068 H   0  0  0  0  0  0  0  0  0  0  0  0
  144.3335  154.5425  136.2921 H   0  0  0  0  0  0  0  0  0  0  0  0
  143.2679  155.6333  133.8390 H   0  0  0  0  0  0  0  0  0  0  0  0
  144.5547  155.9684  135.0642 H   0  0  0  0  0  0  0  0  0  0  0  0
  147.4790  154.9830  131.8880 H   0  0  0  0  0  0  0  0  0  0  0  0
  147.9684  159.7692  133.0115 H   0  0  0  0  0  0  0  0  0  0  0  0
  145.9739  161.6896  133.7302 H   0  0  0  0  0  0  0  0  0  0  0  0
  143.5305  161.9258  134.2864 H   0  0  0  0  0  0  0  0  0  0  0  0
  142.9626  157.6585  133.5913 H   0  0  0  0  0  0  0  0  0  0  0  0
  1  2  1  0
  2  3  1  0
  3  4  1  0
  4  5  1  0
  2  6  1  0
  6  7  2  0
  6  8  1  0
  8  9  1  0
  9 10  1  0
 10 11  1  0
 11 12  2  0
 11 13  1  0
 13 14  1  0
 14 15  1  0
 15 16  1  0
 15 17  2  0
 14 18  2  0
 18 19  1  0
 19 20  2  0
 20 21  1  0
 21 22  2  0
 22 23  1  0
 23 24  1  0
 23 25  1  0
 23 26  1  0
 22 27  1  0
 27 28  2  0
 28 13  1  0
 28 19  1  0
  1 29  1  0
  1 30  1  0
  1 31  1  0
  2 32  1  6
  3 33  1  0
  3 34  1  0
  4 35  1  0
  4 36  1  0
  5 37  1  0
  8 38  1  0
  8 39  1  0
 10 40  1  0
 10 41  1  0
 16 42  1  0
 18 43  1  0
 20 44  1  0
 21 45  1  0
 27 46  1  0
M  CHG  2   2   1  16  -1
M  END
>  <UniqueID>  (76) 
76

>  <SMILES>  (76) 
C[N@@H+](CCO)C(=O)COCC(=O)n1c(C([NH-])=O)cc2ccc(C(F)(F)F)cc21

>  <Energy>  (76) 
87.31940675106722

>  <Genealogy>  (76) 
C[NH+](CCO)C(=O)COCC(=O)n1c(C([NH-])=O)cc2ccc(C(F)(F)F)cc21 (protonated)
C[N@@H+](CCO)C(=O)COCC(=O)n1c(C([NH-])=O)cc2ccc(C(F)(F)F)cc21 (chirality)
C[N@@H+](CCO)C(=O)COCC(=O)n1c(C([NH-])=O)cc2ccc(C(F)(F)F)cc21 (3D coordinates assigned)
C[N@@H+](CCO)C(=O)COCC(=O)n1c(C([NH-])=O)cc2ccc(C(F)(F)F)cc21 (optimized conformer: 87.31940675106722 kcal/mol)

>  <smiles>  (76) 
CN(CCO)C(=O)COCC(=O)n1c(C(N)=O)cc2ccc(C(F)(F)F)cc21

>  <score_type>  (76) 
oracle

>  <origin>  (76) 
adg

>  <m_score__min__energy>  (76) 
-4.71

>  <m_primary>  (76) 
energy

$$$$
77:0
     RDKit          3D

 56 59  0  0  0  0  0  0  0  0999 V2000
  138.8330  147.8100  129.2300 C   0  0  0  0  0  0  0  0  0  0  0  0
  138.7400  148.1540  130.6580 N   0  0  0  0  0  0  0  0  0  0  0  0
  138.5340  149.6170  130.8710 C   0  0  0  0  0  0  0  0  0  0  0  0
  139.8570  150.0940  131.4210 C   0  0  1  0  0  0  0  0  0  0  0  0
  140.1080  151.2740  132.3320 C   0  0  0  0  0  0  0  0  0  0  0  0
  141.3230  150.8910  133.1090 N   0  0  0  0  0  0  0  0  0  0  0  0
  142.4860  151.7340  132.7620 C   0  0  0  0  0  0  0  0  0  0  0  0
  142.0780  153.2020  132.5450 C   0  0  0  0  0  0  0  0  0  0  0  0
  141.1430  153.6180  133.5370 O   0  0  0  0  0  0  0  0  0  0  0  0
  140.4130  154.8080  133.4550 C   0  0  0  0  0  0  0  0  0  0  0  0
  139.2460  154.8020  132.9780 O   0  0  0  0  0  0  0  0  0  0  0  0
  141.0010  156.0420  133.9090 N   0  0  0  0  0  0  0  0  0  0  0  0
  141.9860  156.2060  134.8400 C   0  0  0  0  0  0  0  0  0  0  0  0
  142.5680  155.1480  135.6910 C   0  0  0  0  0  0  0  0  0  0  0  0
  141.7460  154.1410  136.2740 N   0  0  0  0  0  0  0  0  0  0  0  0
  143.8010  155.1670  135.9540 O   0  0  0  0  0  0  0  0  0  0  0  0
  142.3230  157.5530  134.9650 C   0  0  0  0  0  0  0  0  0  0  0  0
  141.4900  158.2180  134.0970 C   0  0  0  0  0  0  0  0  0  0  0  0
  141.3960  159.5780  133.8170 C   0  0  0  0  0  0  0  0  0  0  0  0
  140.4580  159.9920  132.8590 C   0  0  0  0  0  0  0  0  0  0  0  0
  139.6260  159.0470  132.2030 C   0  0  0  0  0  0  0  0  0  0  0  0
  138.6530  159.4930  131.1330 C   0  0  0  0  0  0  0  0  0  0  0  0
  137.2390  159.0300  131.4760 C   0  0  0  0  0  0  0  0  0  0  0  0
  138.6640  160.8740  131.0280 F   0  0  0  0  0  0  0  0  0  0  0  0
  139.0130  158.9710  129.9030 F   0  0  0  0  0  0  0  0  0  0  0  0
  139.7690  157.6700  132.4990 C   0  0  0  0  0  0  0  0  0  0  0  0
  140.7000  157.2870  133.4730 C   0  0  0  0  0  0  0  0  0  0  0  0
  141.5560  149.4480  132.8240 C   0  0  0  0  0  0  0  0  0  0  0  0
  140.2300  148.9670  132.3000 C   0  0  2  0  0  0  0  0  0  0  0  0
  139.9900  147.7900  131.3870 C   0  0  0  0  0  0  0  0  0  0  0  0
  139.1187  146.7529  129.1253 H   0  0  0  0  0  0  0  0  0  0  0  0
  137.8578  147.9756  128.7487 H   0  0  0  0  0  0  0  0  0  0  0  0
  139.5919  148.4443  128.7487 H   0  0  0  0  0  0  0  0  0  0  0  0
  137.9330  147.6280  131.0730 H   0  0  0  0  0  0  0  0  0  0  0  0
  138.3000  150.1215  129.9219 H   0  0  0  0  0  0  0  0  0  0  0  0
  137.6918  149.8331  131.5449 H   0  0  0  0  0  0  0  0  0  0  0  0
  140.3621  150.4232  130.5010 H   0  0  0  0  0  0  0  0  0  0  0  0
  140.2925  152.1862  131.7456 H   0  0  0  0  0  0  0  0  0  0  0  0
  139.2472  151.4934  132.9808 H   0  0  0  0  0  0  0  0  0  0  0  0
  143.2193  151.6847  133.5804 H   0  0  0  0  0  0  0  0  0  0  0  0
  142.9176  151.3549  131.8239 H   0  0  0  0  0  0  0  0  0  0  0  0
  142.9736  153.8380  132.6039 H   0  0  0  0  0  0  0  0  0  0  0  0
  141.6075  153.2952  131.5551 H   0  0  0  0  0  0  0  0  0  0  0  0
  141.3020  153.4010  135.6810 H   0  0  0  0  0  0  0  0  0  0  0  0
  143.0918  157.9905  135.6189 H   0  0  0  0  0  0  0  0  0  0  0  0
  142.0385  160.3074  134.3319 H   0  0  0  0  0  0  0  0  0  0  0  0
  140.3663  161.0604  132.6136 H   0  0  0  0  0  0  0  0  0  0  0  0
  137.1209  158.9913  132.5690 H   0  0  0  0  0  0  0  0  0  0  0  0
  136.5093  159.7361  131.0531 H   0  0  0  0  0  0  0  0  0  0  0  0
  137.0682  158.0290  131.0531 H   0  0  0  0  0  0  0  0  0  0  0  0
  139.1619  156.9169  131.9753 H   0  0  0  0  0  0  0  0  0  0  0  0
  142.3455  149.3202  132.0688 H   0  0  0  0  0  0  0  0  0  0  0  0
  141.8919  148.8883  133.7094 H   0  0  0  0  0  0  0  0  0  0  0  0
  139.7229  148.6403  133.2199 H   0  0  0  0  0  0  0  0  0  0  0  0
  140.8283  147.6599  130.6867 H   0  0  0  0  0  0  0  0  0  0  0  0
  139.9025  146.8391  131.9329 H   0  0  0  0  0  0  0  0  0  0  0  0
  1  2  1  0
  2  3  1  0
  3  4  1  0
  4  5  1  0
  5  6  1  0
  6  7  1  0
  7  8  1  0
  8  9  1  0
  9 10  1  0
 10 11  2  0
 10 12  1  0
 12 13  1  0
 13 14  1  0
 14 15  1  0
 14 16  2  0
 13 17  2  0
 17 18  1  0
 18 19  2  0
 19 20  1  0
 20 21  2  0
 21 22  1  0
 22 23  1  0
 22 24  1  0
 22 25  1  0
 21 26  1  0
 26 27  2  0
  6 28  1  0
 28 29  1  0
 29 30  1  0
 30  2  1  0
 29  4  1  0
 27 12  1  0
 27 18  1  0
  1 31  1  0
  1 32  1  0
  1 33  1  0
  2 34  1  0
  3 35  1  0
  3 36  1  0
  4 37  1  6
  5 38  1  0
  5 39  1  0
  7 40  1  0
  7 41  1  0
  8 42  1  0
  8 43  1  0
 15 44  1  0
 17 45  1  0
 19 46  1  0
 20 47  1  0
 23 48  1  0
 23 49  1  0
 23 50  1  0
 26 51  1  0
 28 52  1  0
 28 53  1  0
 29 54  1  1
 30 55  1  0
 30 56  1  0
M  CHG  2   2   1  15  -1
M  END
>  <UniqueID>  (77) 
77

>  <SMILES>  (77) 
C[NH+]1C[C@H]2CN(CCOC(=O)n3c(C([NH-])=O)cc4ccc(C(C)(F)F)cc43)C[C@@H]2C1

>  <Energy>  (77) 
128.45057246373895

>  <Genealogy>  (77) 
C[NH+]1CC2CN(CCOC(=O)n3c(C([NH-])=O)cc4ccc(C(C)(F)F)cc43)CC2C1 (protonated)
C[NH+]1C[C@H]2CN(CCOC(=O)n3c(C([NH-])=O)cc4ccc(C(C)(F)F)cc43)C[C@@H]2C1 (chirality)
C[NH+]1C[C@H]2CN(CCOC(=O)n3c(C([NH-])=O)cc4ccc(C(C)(F)F)cc43)C[C@@H]2C1 (3D coordinates assigned)
C[NH+]1C[C@H]2CN(CCOC(=O)n3c(C([NH-])=O)cc4ccc(C(C)(F)F)cc43)C[C@@H]2C1 (nonaromatic ring conformer: 128.45057246373895 kcal/mol)

>  <smiles>  (77) 
CN1CC2CN(CCOC(=O)n3c(C(N)=O)cc4ccc(C(C)(F)F)cc43)CC2C1

>  <score_type>  (77) 
oracle

>  <origin>  (77) 
adg

>  <m_score__min__energy>  (77) 
-8.5600000000000005

>  <m_primary>  (77) 
energy

$$$$
78:0
     RDKit          3D

 31 32  0  0  0  0  0  0  0  0999 V2000
  141.6690  159.2240  134.6560 C   0  0  0  0  0  0  0  0  0  0  0  0
  143.0950  159.3930  134.2220 C   0  0  0  0  0  0  0  0  0  0  0  0
  143.6430  160.6920  134.0770 C   0  0  0  0  0  0  0  0  0  0  0  0
  144.9850  160.8640  133.6970 C   0  0  0  0  0  0  0  0  0  0  0  0
  145.7540  159.7230  133.4860 C   0  0  0  0  0  0  0  0  0  0  0  0
  147.0700  159.5950  133.0990 C   0  0  0  0  0  0  0  0  0  0  0  0
  147.3060  158.2220  133.0430 C   0  0  0  0  0  0  0  0  0  0  0  0
  148.6220  157.6240  132.7340 C   0  0  0  0  0  0  0  0  0  0  0  0
  148.8450  156.2370  132.9760 N   0  0  0  0  0  0  0  0  0  0  0  0
  149.5440  158.3220  132.2370 O   0  0  0  0  0  0  0  0  0  0  0  0
  146.1800  157.5330  133.3750 N   0  0  0  0  0  0  0  0  0  0  0  0
  145.9820  156.1120  133.3780 C   0  0  0  0  0  0  0  0  0  0  0  0
  146.1900  155.4520  132.3250 O   0  0  0  0  0  0  0  0  0  0  0  0
  145.6520  155.3960  134.6500 C   0  0  0  0  0  0  0  0  0  0  0  0
  147.1050  154.4740  135.2320 P   0  0  1  0  0  0  0  0  0  0  0  0
  148.1070  155.4380  135.8240 O   0  0  0  0  0  0  0  0  0  0  0  0
  146.6350  153.3570  136.4130 O   0  0  0  0  0  0  0  0  0  0  0  0
  147.8130  153.6570  133.9300 O   0  0  0  0  0  0  0  0  0  0  0  0
  145.2420  158.4620  133.6470 C   0  0  0  0  0  0  0  0  0  0  0  0
  143.9090  158.2590  134.0170 C   0  0  0  0  0  0  0  0  0  0  0  0
  141.6184  159.2180  135.7548 H   0  0  0  0  0  0  0  0  0  0  0  0
  141.0658  160.0569  134.2657 H   0  0  0  0  0  0  0  0  0  0  0  0
  141.2772  158.2731  134.2657 H   0  0  0  0  0  0  0  0  0  0  0  0
  143.0121  161.5736  134.2636 H   0  0  0  0  0  0  0  0  0  0  0  0
  145.4143  161.8688  133.5703 H   0  0  0  0  0  0  0  0  0  0  0  0
  147.7828  160.4038  132.8807 H   0  0  0  0  0  0  0  0  0  0  0  0
  148.1550  155.6690  133.5170 H   0  0  0  0  0  0  0  0  0  0  0  0
  145.3540  156.1285  135.4146 H   0  0  0  0  0  0  0  0  0  0  0  0
  144.8254  154.6936  134.4674 H   0  0  0  0  0  0  0  0  0  0  0  0
  147.8380  154.3220  133.1970 H   0  0  0  0  0  0  0  0  0  0  0  0
  143.5061  157.2434  134.1447 H   0  0  0  0  0  0  0  0  0  0  0  0
  1  2  1  0
  2  3  2  0
  3  4  1  0
  4  5  2  0
  5  6  1  0
  6  7  2  0
  7  8  1  0
  8  9  1  0
  8 10  2  0
  7 11  1  0
 11 12  1  0
 12 13  2  0
 12 14  1  0
 14 15  1  0
 15 16  2  0
 15 17  1  1
 15 18  1  0
 11 19  1  0
 19 20  2  0
 20  2  1  0
 19  5  1  0
  1 21  1  0
  1 22  1  0
  1 23  1  0
  3 24  1  0
  4 25  1  0
  6 26  1  0
  9 27  1  0
 14 28  1  0
 14 29  1  0
 18 30  1  0
 20 31  1  0
M  CHG  2   9  -1  17  -1
M  END
>  <UniqueID>  (78) 
78

>  <SMILES>  (78) 
Cc1ccc2cc(C([NH-])=O)n(C(=O)C[P@@](=O)([O-])O)c2c1

>  <Energy>  (78) 
63.245640569845705

>  <Genealogy>  (78) 
Cc1ccc2cc(C([NH-])=O)n(C(=O)CP(=O)([O-])O)c2c1 (protonated)
Cc1ccc2cc(C([NH-])=O)n(C(=O)C[P@@](=O)([O-])O)c2c1 (chirality)
Cc1ccc2cc(C([NH-])=O)n(C(=O)C[P@@](=O)([O-])O)c2c1 (3D coordinates assigned)
Cc1ccc2cc(C([NH-])=O)n(C(=O)C[P@@](=O)([O-])O)c2c1 (optimized conformer: 63.245640569845705 kcal/mol)

>  <smiles>  (78) 
Cc1ccc2cc(C(N)=O)n(C(=O)CP(=O)(O)O)c2c1

>  <score_type>  (78) 
oracle

>  <origin>  (78) 
adg

>  <m_score__min__energy>  (78) 
-5.8300000000000001

>  <m_primary>  (78) 
energy

$$$$
79:0
     RDKit          3D

 41 42  0  0  0  0  0  0  0  0999 V2000
  136.5030  160.0730  130.4610 C   0  0  0  0  0  0  0  0  0  0  0  0
  137.5030  159.8420  131.0940 C   0  0  0  0  0  0  0  0  0  0  0  0
  138.6950  159.5610  131.8490 C   0  0  0  0  0  0  0  0  0  0  0  0
  139.5410  160.6200  132.2560 C   0  0  0  0  0  0  0  0  0  0  0  0
  140.7140  160.3530  132.9840 C   0  0  0  0  0  0  0  0  0  0  0  0
  141.0030  159.0260  133.2910 C   0  0  0  0  0  0  0  0  0  0  0  0
  142.0770  158.4840  133.9600 C   0  0  0  0  0  0  0  0  0  0  0  0
  141.8530  157.1090  133.9680 C   0  0  0  0  0  0  0  0  0  0  0  0
  142.7300  156.1460  134.6670 C   0  0  0  0  0  0  0  0  0  0  0  0
  142.1600  155.0210  135.3320 N   0  0  0  0  0  0  0  0  0  0  0  0
  143.9810  156.2840  134.6530 O   0  0  0  0  0  0  0  0  0  0  0  0
  140.6890  156.8100  133.3220 N   0  0  0  0  0  0  0  0  0  0  0  0
  140.1300  155.5120  133.0620 C   0  0  0  0  0  0  0  0  0  0  0  0
  138.8790  155.3690  132.9850 O   0  0  0  0  0  0  0  0  0  0  0  0
  140.9750  154.4070  132.9130 O   0  0  0  0  0  0  0  0  0  0  0  0
  140.5110  153.0650  133.0260 C   0  0  0  0  0  0  0  0  0  0  0  0
  141.6600  152.1300  133.4120 C   0  0  0  0  0  0  0  0  0  0  0  0
  143.0320  152.4610  132.7680 C   0  0  0  0  0  0  0  0  0  0  0  0
  143.6960  153.7260  133.1940 N   0  0  1  0  0  0  0  0  0  0  0  0
  144.8390  153.5050  134.0970 C   0  0  0  0  0  0  0  0  0  0  0  0
  144.0400  154.6100  132.1010 C   0  0  0  0  0  0  0  0  0  0  0  0
  144.3460  154.1710  131.0020 O   0  0  0  0  0  0  0  0  0  0  0  0
  140.1800  157.9950  132.9170 C   0  0  0  0  0  0  0  0  0  0  0  0
  139.0180  158.2310  132.1770 C   0  0  0  0  0  0  0  0  0  0  0  0
  135.5908  160.2837  129.8836 H   0  0  0  0  0  0  0  0  0  0  0  0
  139.2795  161.6577  132.0014 H   0  0  0  0  0  0  0  0  0  0  0  0
  141.3824  161.1670  133.3010 H   0  0  0  0  0  0  0  0  0  0  0  0
  142.9313  159.0226  134.3960 H   0  0  0  0  0  0  0  0  0  0  0  0
  141.9630  154.1350  134.8160 H   0  0  0  0  0  0  0  0  0  0  0  0
  139.7297  153.0162  133.7987 H   0  0  0  0  0  0  0  0  0  0  0  0
  140.1048  152.7465  132.0546 H   0  0  0  0  0  0  0  0  0  0  0  0
  141.7791  152.1718  134.5047 H   0  0  0  0  0  0  0  0  0  0  0  0
  141.3806  151.1349  133.0356 H   0  0  0  0  0  0  0  0  0  0  0  0
  143.7164  151.6325  133.0027 H   0  0  0  0  0  0  0  0  0  0  0  0
  142.8176  152.5992  131.6980 H   0  0  0  0  0  0  0  0  0  0  0  0
  142.9890  154.2460  133.7660 H   0  0  0  0  0  0  0  0  0  0  0  0
  144.4994  153.5707  135.1412 H   0  0  0  0  0  0  0  0  0  0  0  0
  145.2650  152.5079  133.9120 H   0  0  0  0  0  0  0  0  0  0  0  0
  145.6060  154.2715  133.9120 H   0  0  0  0  0  0  0  0  0  0  0  0
  144.0258  155.6980  132.2623 H   0  0  0  0  0  0  0  0  0  0  0  0
  138.3727  157.3988  131.8592 H   0  0  0  0  0  0  0  0  0  0  0  0
  1  2  3  0
  2  3  1  0
  3  4  2  0
  4  5  1  0
  5  6  2  0
  6  7  1  0
  7  8  2  0
  8  9  1  0
  9 10  1  0
  9 11  2  0
  8 12  1  0
 12 13  1  0
 13 14  2  0
 13 15  1  0
 15 16  1  0
 16 17  1  0
 17 18  1  0
 18 19  1  0
 19 20  1  0
 19 21  1  0
 21 22  2  0
 12 23  1  0
 23 24  2  0
 24  3  1  0
 23  6  1  0
  1 25  1  0
  4 26  1  0
  5 27  1  0
  7 28  1  0
 10 29  1  0
 16 30  1  0
 16 31  1  0
 17 32  1  0
 17 33  1  0
 18 34  1  0
 18 35  1  0
 19 36  1  1
 20 37  1  0
 20 38  1  0
 20 39  1  0
 21 40  1  0
 24 41  1  0
M  CHG  2  10  -1  19   1
M  END
>  <UniqueID>  (79) 
79

>  <SMILES>  (79) 
C#Cc1ccc2cc(C([NH-])=O)n(C(=O)OCCC[N@@H+](C)C=O)c2c1

>  <Energy>  (79) 
80.94755144638553

>  <Genealogy>  (79) 
C#Cc1ccc2cc(C([NH-])=O)n(C(=O)OCCC[NH+](C)C=O)c2c1 (protonated)
C#Cc1ccc2cc(C([NH-])=O)n(C(=O)OCCC[N@@H+](C)C=O)c2c1 (chirality)
C#Cc1ccc2cc(C([NH-])=O)n(C(=O)OCCC[N@@H+](C)C=O)c2c1 (3D coordinates assigned)
C#Cc1ccc2cc(C([NH-])=O)n(C(=O)OCCC[N@@H+](C)C=O)c2c1 (optimized conformer: 80.94755144638553 kcal/mol)

>  <smiles>  (79) 
C#Cc1ccc2cc(C(N)=O)n(C(=O)OCCCN(C)C=O)c2c1

>  <score_type>  (79) 
oracle

>  <origin>  (79) 
adg

>  <m_score__min__energy>  (79) 
-5.2599999999999998

>  <m_primary>  (79) 
energy

$$$$
80:0
     RDKit          3D

 35 36  0  0  0  0  0  0  0  0999 V2000
  148.0190  156.3310  134.9480 C   0  0  0  0  0  0  0  0  0  0  0  0
  147.9810  155.9020  133.5400 N   0  0  1  0  0  0  0  0  0  0  0  0
  147.9010  154.4280  133.3840 C   0  0  0  0  0  0  0  0  0  0  0  0
  149.1240  153.8020  132.7650 C   0  0  0  0  0  0  0  0  0  0  0  0
  150.0250  154.5250  132.2670 O   0  0  0  0  0  0  0  0  0  0  0  0
  149.2730  152.4200  132.7580 O   0  0  0  0  0  0  0  0  0  0  0  0
  146.9270  156.6080  132.8410 C   0  0  0  0  0  0  0  0  0  0  0  0
  145.9830  155.9760  132.2920 O   0  0  0  0  0  0  0  0  0  0  0  0
  146.8510  158.0400  132.9170 N   0  0  0  0  0  0  0  0  0  0  0  0
  147.8360  158.9510  132.6800 C   0  0  0  0  0  0  0  0  0  0  0  0
  149.1820  158.6480  132.1560 C   0  0  0  0  0  0  0  0  0  0  0  0
  149.7000  157.3230  132.2510 N   0  0  0  0  0  0  0  0  0  0  0  0
  149.8920  159.5540  131.6480 O   0  0  0  0  0  0  0  0  0  0  0  0
  147.3770  160.2410  132.9440 C   0  0  0  0  0  0  0  0  0  0  0  0
  146.0700  160.0880  133.3480 C   0  0  0  0  0  0  0  0  0  0  0  0
  145.1400  161.0390  133.7560 C   0  0  0  0  0  0  0  0  0  0  0  0
  143.8670  160.5880  134.1500 C   0  0  0  0  0  0  0  0  0  0  0  0
  143.5430  159.2060  134.1170 C   0  0  0  0  0  0  0  0  0  0  0  0
  142.1960  158.7320  134.5990 C   0  0  0  0  0  0  0  0  0  0  0  0
  141.3420  159.8120  134.6980 F   0  0  0  0  0  0  0  0  0  0  0  0
  141.6600  157.8110  133.7170 F   0  0  0  0  0  0  0  0  0  0  0  0
  142.3080  158.1280  135.8400 F   0  0  0  0  0  0  0  0  0  0  0  0
  144.5260  158.2710  133.7180 C   0  0  0  0  0  0  0  0  0  0  0  0
  145.7780  158.7510  133.3200 C   0  0  0  0  0  0  0  0  0  0  0  0
  147.9410  155.4500  135.6020 H   0  0  0  0  0  0  0  0  0  0  0  0
  148.9668  156.8525  135.1470 H   0  0  0  0  0  0  0  0  0  0  0  0
  147.1776  157.0110  135.1470 H   0  0  0  0  0  0  0  0  0  0  0  0
  148.8920  156.1950  133.1150 H   0  0  0  0  0  0  0  0  0  0  0  0
  147.7532  153.9839  134.3794 H   0  0  0  0  0  0  0  0  0  0  0  0
  147.0643  154.2291  132.6982 H   0  0  0  0  0  0  0  0  0  0  0  0
  149.1870  156.5150  131.8360 H   0  0  0  0  0  0  0  0  0  0  0  0
  147.9399  161.1813  132.8495 H   0  0  0  0  0  0  0  0  0  0  0  0
  145.3921  162.1096  133.7700 H   0  0  0  0  0  0  0  0  0  0  0  0
  143.1136  161.3148  134.4877 H   0  0  0  0  0  0  0  0  0  0  0  0
  144.3112  157.1922  133.7206 H   0  0  0  0  0  0  0  0  0  0  0  0
  1  2  1  0
  2  3  1  0
  3  4  1  0
  4  5  2  0
  4  6  1  0
  2  7  1  0
  7  8  2  0
  7  9  1  0
  9 10  1  0
 10 11  1  0
 11 12  1  0
 11 13  2  0
 10 14  2  0
 14 15  1  0
 15 16  2  0
 16 17  1  0
 17 18  2  0
 18 19  1  0
 19 20  1  0
 19 21  1  0
 19 22  1  0
 18 23  1  0
 23 24  2  0
 24  9  1  0
 24 15  1  0
  1 25  1  0
  1 26  1  0
  1 27  1  0
  2 28  1  6
  3 29  1  0
  3 30  1  0
 12 31  1  0
 14 32  1  0
 16 33  1  0
 17 34  1  0
 23 35  1  0
M  CHG  3   2   1   6  -1  12  -1
M  END
>  <UniqueID>  (80) 
80

>  <SMILES>  (80) 
C[N@@H+](CC(=O)[O-])C(=O)n1c(C([NH-])=O)cc2ccc(C(F)(F)F)cc21

>  <Energy>  (80) 
80.39198105065465

>  <Genealogy>  (80) 
C[NH+](CC(=O)[O-])C(=O)n1c(C([NH-])=O)cc2ccc(C(F)(F)F)cc21 (protonated)
C[N@@H+](CC(=O)[O-])C(=O)n1c(C([NH-])=O)cc2ccc(C(F)(F)F)cc21 (chirality)
C[N@@H+](CC(=O)[O-])C(=O)n1c(C([NH-])=O)cc2ccc(C(F)(F)F)cc21 (3D coordinates assigned)
C[N@@H+](CC(=O)[O-])C(=O)n1c(C([NH-])=O)cc2ccc(C(F)(F)F)cc21 (optimized conformer: 80.39198105065465 kcal/mol)

>  <smiles>  (80) 
CN(CC(=O)O)C(=O)n1c(C(N)=O)cc2ccc(C(F)(F)F)cc21

>  <score_type>  (80) 
oracle

>  <origin>  (80) 
adg

>  <m_score__min__energy>  (80) 
-5.6200000000000001

>  <m_primary>  (80) 
energy

$$$$
81:0
     RDKit          3D

 48 50  0  0  0  0  0  0  0  0999 V2000
  148.2030  155.0140  132.6300 C   0  0  0  0  0  0  0  0  0  0  0  0
  147.8540  156.4530  132.8700 C   0  0  0  0  0  0  0  0  0  0  0  0
  148.8660  157.4420  132.8190 C   0  0  0  0  0  0  0  0  0  0  0  0
  148.5480  158.7980  132.9910 C   0  0  0  0  0  0  0  0  0  0  0  0
  147.2150  159.1330  133.2040 C   0  0  0  0  0  0  0  0  0  0  0  0
  146.6300  160.3690  133.3630 C   0  0  0  0  0  0  0  0  0  0  0  0
  145.2680  160.1170  133.5110 C   0  0  0  0  0  0  0  0  0  0  0  0
  144.2600  161.1660  133.7860 C   0  0  0  0  0  0  0  0  0  0  0  0
  142.8640  160.8610  133.7600 N   0  0  0  0  0  0  0  0  0  0  0  0
  144.6250  162.3500  134.0120 O   0  0  0  0  0  0  0  0  0  0  0  0
  145.0190  158.7780  133.4480 N   0  0  0  0  0  0  0  0  0  0  0  0
  143.7380  158.1290  133.4650 C   0  0  0  0  0  0  0  0  0  0  0  0
  143.2430  157.6860  132.3930 O   0  0  0  0  0  0  0  0  0  0  0  0
  143.0470  158.0020  134.6780 O   0  0  0  0  0  0  0  0  0  0  0  0
  141.9760  157.1290  134.9110 C   0  0  0  0  0  0  0  0  0  0  0  0
  142.1620  155.8830  134.9790 O   0  0  0  0  0  0  0  0  0  0  0  0
  140.6430  157.6700  135.0080 N   0  0  0  0  0  0  0  0  0  0  0  0
  140.2700  158.0530  136.4000 C   0  0  0  0  0  0  0  0  0  0  0  0
  140.7850  157.1650  137.5260 C   0  0  0  0  0  0  0  0  0  0  0  0
  141.6610  158.5140  138.3890 S   0  0  0  0  0  0  0  0  0  0  0  0
  140.9420  159.3160  136.9180 C   0  0  0  0  0  0  0  0  0  0  0  0
  139.8910  157.9840  133.7470 C   0  0  0  0  0  0  0  0  0  0  0  0
  138.3550  157.8700  133.8900 C   0  0  0  0  0  0  0  0  0  0  0  0
  140.2820  157.0060  132.6080 C   0  0  0  0  0  0  0  0  0  0  0  0
  140.2300  159.3510  133.3090 C   0  0  0  0  0  0  0  0  0  0  0  0
  140.5000  160.4230  132.9660 N   0  0  0  0  0  0  0  0  0  0  0  0
  146.2220  158.1890  133.2590 C   0  0  0  0  0  0  0  0  0  0  0  0
  146.5100  156.8310  133.0740 C   0  0  0  0  0  0  0  0  0  0  0  0
  148.3274  154.5010  133.5951 H   0  0  0  0  0  0  0  0  0  0  0  0
  147.3959  154.5312  132.0595 H   0  0  0  0  0  0  0  0  0  0  0  0
  149.1416  154.9546  132.0595 H   0  0  0  0  0  0  0  0  0  0  0  0
  149.9104  157.1449  132.6431 H   0  0  0  0  0  0  0  0  0  0  0  0
  149.3289  159.5720  132.9584 H   0  0  0  0  0  0  0  0  0  0  0  0
  147.1317  161.3479  133.3714 H   0  0  0  0  0  0  0  0  0  0  0  0
  142.5250  159.8830  133.6260 H   0  0  0  0  0  0  0  0  0  0  0  0
  142.1590  161.6170  133.9110 H   0  0  0  0  0  0  0  0  0  0  0  0
  139.1809  158.0631  136.2457 H   0  0  0  0  0  0  0  0  0  0  0  0
  139.9781  156.7214  138.1278 H   0  0  0  0  0  0  0  0  0  0  0  0
  141.3619  156.2693  137.2521 H   0  0  0  0  0  0  0  0  0  0  0  0
  140.2256  160.1120  137.1693 H   0  0  0  0  0  0  0  0  0  0  0  0
  141.6241  159.8494  136.2396 H   0  0  0  0  0  0  0  0  0  0  0  0
  138.0865  157.8501  134.9565 H   0  0  0  0  0  0  0  0  0  0  0  0
  137.8766  158.7351  133.4076 H   0  0  0  0  0  0  0  0  0  0  0  0
  138.0096  156.9437  133.4076 H   0  0  0  0  0  0  0  0  0  0  0  0
  140.6571  156.0678  133.0429 H   0  0  0  0  0  0  0  0  0  0  0  0
  139.3991  156.7949  131.9867 H   0  0  0  0  0  0  0  0  0  0  0  0
  141.0670  157.4618  131.9867 H   0  0  0  0  0  0  0  0  0  0  0  0
  145.7084  156.0778  133.0874 H   0  0  0  0  0  0  0  0  0  0  0  0
  1  2  1  0
  2  3  2  0
  3  4  1  0
  4  5  2  0
  5  6  1  0
  6  7  2  0
  7  8  1  0
  8  9  1  0
  8 10  2  0
  7 11  1  0
 11 12  1  0
 12 13  2  0
 12 14  1  0
 14 15  1  0
 15 16  2  0
 15 17  1  0
 17 18  1  0
 18 19  1  0
 19 20  1  0
 20 21  1  0
 17 22  1  0
 22 23  1  0
 22 24  1  0
 22 25  1  0
 25 26  3  0
 11 27  1  0
 27 28  2  0
 28  2  1  0
 27  5  1  0
 21 18  1  0
  1 29  1  0
  1 30  1  0
  1 31  1  0
  3 32  1  0
  4 33  1  0
  6 34  1  0
  9 35  1  0
  9 36  1  0
 18 37  1  0
 19 38  1  0
 19 39  1  0
 21 40  1  0
 21 41  1  0
 23 42  1  0
 23 43  1  0
 23 44  1  0
 24 45  1  0
 24 46  1  0
 24 47  1  0
 28 48  1  0
M  END
>  <UniqueID>  (81) 
81

>  <SMILES>  (81) 
Cc1ccc2cc(C(N)=O)n(C(=O)OC(=O)N(C3CSC3)C(C)(C)C#N)c2c1

>  <Energy>  (81) 
136.7719475771641

>  <Genealogy>  (81) 
Cc1ccc2cc(C(N)=O)n(C(=O)OC(=O)N(C3CSC3)C(C)(C)C#N)c2c1 (3D coordinates assigned)
Cc1ccc2cc(C(N)=O)n(C(=O)OC(=O)N(C3CSC3)C(C)(C)C#N)c2c1 (nonaromatic ring conformer: 136.7719475771641 kcal/mol)

>  <smiles>  (81) 
Cc1ccc2cc(C(N)=O)n(C(=O)OC(=O)N(C3CSC3)C(C)(C)C#N)c2c1

>  <score_type>  (81) 
oracle

>  <origin>  (81) 
adg

>  <m_score__min__energy>  (81) 
-8.7799999999999994

>  <m_primary>  (81) 
energy

$$$$
82:0
     RDKit          3D

 41 42  0  0  0  0  0  0  0  0999 V2000
  141.3010  156.7880  136.5430 C   0  0  0  0  0  0  0  0  0  0  0  0
  140.3170  157.8140  136.4900 O   0  0  0  0  0  0  0  0  0  0  0  0
  140.6050  159.1150  136.0640 C   0  0  0  0  0  0  0  0  0  0  0  0
  140.6510  160.0660  136.8910 O   0  0  0  0  0  0  0  0  0  0  0  0
  140.8460  159.3800  134.6800 N   0  0  0  0  0  0  0  0  0  0  0  0
  141.8290  160.3510  134.2140 C   0  0  0  0  0  0  0  0  0  0  0  0
  143.0980  159.6800  133.9110 C   0  0  0  0  0  0  0  0  0  0  0  0
  144.1410  159.1250  133.6720 C   0  0  0  0  0  0  0  0  0  0  0  0
  145.3880  158.4680  133.3840 C   0  0  0  0  0  0  0  0  0  0  0  0
  146.5410  159.2390  133.1100 C   0  0  0  0  0  0  0  0  0  0  0  0
  147.7680  158.6100  132.8350 C   0  0  0  0  0  0  0  0  0  0  0  0
  147.8020  157.2180  132.8350 C   0  0  0  0  0  0  0  0  0  0  0  0
  148.8560  156.3600  132.6290 C   0  0  0  0  0  0  0  0  0  0  0  0
  148.3210  155.0800  132.7570 C   0  0  0  0  0  0  0  0  0  0  0  0
  149.1010  153.8460  132.5250 C   0  0  0  0  0  0  0  0  0  0  0  0
  148.4740  152.5660  132.5560 N   0  0  0  0  0  0  0  0  0  0  0  0
  150.3270  153.9270  132.2430 O   0  0  0  0  0  0  0  0  0  0  0  0
  146.9890  155.1430  133.0400 N   0  0  0  0  0  0  0  0  0  0  0  0
  146.1060  154.0520  133.3440 C   0  0  0  0  0  0  0  0  0  0  0  0
  145.8150  153.2080  132.4520 O   0  0  0  0  0  0  0  0  0  0  0  0
  145.5550  153.9420  134.6240 O   0  0  0  0  0  0  0  0  0  0  0  0
  146.0600  154.6620  135.7430 C   0  0  0  0  0  0  0  0  0  0  0  0
  147.4990  153.7870  136.4150 P   0  0  1  0  0  0  0  0  0  0  0  0
  148.4420  154.7820  137.0520 O   0  0  0  0  0  0  0  0  0  0  0  0
  146.9880  152.6710  137.5780 O   0  0  0  0  0  0  0  0  0  0  0  0
  148.2960  152.9750  135.1620 O   0  0  0  0  0  0  0  0  0  0  0  0
  146.6850  156.4600  133.0820 C   0  0  0  0  0  0  0  0  0  0  0  0
  145.4550  157.0600  133.3780 C   0  0  0  0  0  0  0  0  0  0  0  0
  141.5279  156.5514  137.5930 H   0  0  0  0  0  0  0  0  0  0  0  0
  140.9198  155.8879  136.0385 H   0  0  0  0  0  0  0  0  0  0  0  0
  142.2162  157.1313  136.0385 H   0  0  0  0  0  0  0  0  0  0  0  0
  141.4517  160.8428  133.3053 H   0  0  0  0  0  0  0  0  0  0  0  0
  141.9973  161.0990  135.0028 H   0  0  0  0  0  0  0  0  0  0  0  0
  146.4777  160.3372  133.1120 H   0  0  0  0  0  0  0  0  0  0  0  0
  148.6731  159.1993  132.6263 H   0  0  0  0  0  0  0  0  0  0  0  0
  149.9002  156.6273  132.4096 H   0  0  0  0  0  0  0  0  0  0  0  0
  147.6780  152.3740  133.2040 H   0  0  0  0  0  0  0  0  0  0  0  0
  146.3586  155.6722  135.4262 H   0  0  0  0  0  0  0  0  0  0  0  0
  145.2805  154.7389  136.5153 H   0  0  0  0  0  0  0  0  0  0  0  0
  147.6020  152.8370  134.4690 H   0  0  0  0  0  0  0  0  0  0  0  0
  144.5667  156.4502  133.5995 H   0  0  0  0  0  0  0  0  0  0  0  0
  1  2  1  0
  2  3  1  0
  3  4  2  0
  3  5  1  0
  5  6  1  0
  6  7  1  0
  7  8  3  0
  8  9  1  0
  9 10  2  0
 10 11  1  0
 11 12  2  0
 12 13  1  0
 13 14  2  0
 14 15  1  0
 15 16  1  0
 15 17  2  0
 14 18  1  0
 18 19  1  0
 19 20  2  0
 19 21  1  0
 21 22  1  0
 22 23  1  0
 23 24  2  0
 23 25  1  1
 23 26  1  0
 18 27  1  0
 27 28  2  0
 28  9  1  0
 27 12  1  0
  1 29  1  0
  1 30  1  0
  1 31  1  0
  6 32  1  0
  6 33  1  0
 10 34  1  0
 11 35  1  0
 13 36  1  0
 16 37  1  0
 22 38  1  0
 22 39  1  0
 26 40  1  0
 28 41  1  0
M  CHG  3   5  -1  16  -1  25  -1
M  END
>  <UniqueID>  (82) 
82

>  <SMILES>  (82) 
COC(=O)[N-]CC#Cc1ccc2cc(C([NH-])=O)n(C(=O)OC[P@@](=O)([O-])O)c2c1

>  <Energy>  (82) 
63.54791774281762

>  <Genealogy>  (82) 
COC(=O)[N-]CC#Cc1ccc2cc(C([NH-])=O)n(C(=O)OCP(=O)([O-])O)c2c1 (protonated)
COC(=O)[N-]CC#Cc1ccc2cc(C([NH-])=O)n(C(=O)OC[P@@](=O)([O-])O)c2c1 (chirality)
COC(=O)[N-]CC#Cc1ccc2cc(C([NH-])=O)n(C(=O)OC[P@@](=O)([O-])O)c2c1 (3D coordinates assigned)
COC(=O)[N-]CC#Cc1ccc2cc(C([NH-])=O)n(C(=O)OC[P@@](=O)([O-])O)c2c1 (optimized conformer: 63.54791774281762 kcal/mol)

>  <smiles>  (82) 
COC(=O)NCC#Cc1ccc2cc(C(N)=O)n(C(=O)OCP(=O)(O)O)c2c1

>  <score_type>  (82) 
oracle

>  <origin>  (82) 
adg

>  <m_score__min__energy>  (82) 
-6.75

>  <m_primary>  (82) 
energy

$$$$
83:0
     RDKit          3D

 49 51  0  0  0  0  0  0  0  0999 V2000
  148.6640  157.8220  133.5870 N   0  0  0  0  0  0  0  0  0  0  0  0
  147.8570  158.9700  133.3440 C   0  0  0  0  0  0  0  0  0  0  0  0
  148.3950  160.0220  132.9060 O   0  0  0  0  0  0  0  0  0  0  0  0
  146.4130  158.9700  133.6450 C   0  0  0  0  0  0  0  0  0  0  0  0
  145.5940  160.0830  133.4690 C   0  0  0  0  0  0  0  0  0  0  0  0
  144.3130  159.6280  133.6800 C   0  0  0  0  0  0  0  0  0  0  0  0
  143.0970  160.2950  133.5660 C   0  0  0  0  0  0  0  0  0  0  0  0
  141.9190  159.5510  133.7480 C   0  0  0  0  0  0  0  0  0  0  0  0
  141.9730  158.1630  134.0420 C   0  0  0  0  0  0  0  0  0  0  0  0
  140.7020  157.3630  134.1600 C   0  0  0  0  0  0  0  0  0  0  0  0
  140.3140  157.2490  135.4840 F   0  0  0  0  0  0  0  0  0  0  0  0
  139.6990  157.9940  133.4490 F   0  0  0  0  0  0  0  0  0  0  0  0
  140.8820  156.0890  133.6520 F   0  0  0  0  0  0  0  0  0  0  0  0
  143.2290  157.5170  134.1210 C   0  0  0  0  0  0  0  0  0  0  0  0
  144.3860  158.2880  133.9580 C   0  0  0  0  0  0  0  0  0  0  0  0
  145.6700  157.8730  133.9620 N   0  0  0  0  0  0  0  0  0  0  0  0
  146.1090  156.5090  134.0050 C   0  0  0  0  0  0  0  0  0  0  0  0
  146.5990  156.0490  135.0710 O   0  0  0  0  0  0  0  0  0  0  0  0
  145.9830  155.6230  132.7970 C   0  0  0  0  0  0  0  0  0  0  0  0
  146.6280  154.2440  133.0070 C   0  0  0  0  0  0  0  0  0  0  0  0
  148.1420  154.2710  133.0010 C   0  0  0  0  0  0  0  0  0  0  0  0
  148.7310  155.3800  132.8840 O   0  0  0  0  0  0  0  0  0  0  0  0
  148.9140  153.0480  133.0300 N   0  0  0  0  0  0  0  0  0  0  0  0
  149.6040  152.5670  131.8220 C   0  0  0  0  0  0  0  0  0  0  0  0
  149.2320  151.1050  131.5340 C   0  0  0  0  0  0  0  0  0  0  0  0
  149.1550  150.2260  132.8030 C   0  0  0  0  0  0  0  0  0  0  0  0
  149.7370  150.9190  134.0460 C   0  0  2  0  0  0  0  0  0  0  0  0
  149.5610  150.1060  135.1770 O   0  0  0  0  0  0  0  0  0  0  0  0
  149.0270  152.2640  134.2740 C   0  0  0  0  0  0  0  0  0  0  0  0
  149.6630  157.8090  133.2810 H   0  0  0  0  0  0  0  0  0  0  0  0
  148.3240  157.0500  134.1990 H   0  0  0  0  0  0  0  0  0  0  0  0
  145.9052  161.1071  133.2154 H   0  0  0  0  0  0  0  0  0  0  0  0
  143.0592  161.3710  133.3405 H   0  0  0  0  0  0  0  0  0  0  0  0
  140.9426  160.0502  133.6616 H   0  0  0  0  0  0  0  0  0  0  0  0
  143.2950  156.4347  134.3061 H   0  0  0  0  0  0  0  0  0  0  0  0
  144.9153  155.4823  132.5728 H   0  0  0  0  0  0  0  0  0  0  0  0
  146.5100  156.1148  131.9661 H   0  0  0  0  0  0  0  0  0  0  0  0
  146.2919  153.8478  133.9766 H   0  0  0  0  0  0  0  0  0  0  0  0
  146.3152  153.6117  132.1630 H   0  0  0  0  0  0  0  0  0  0  0  0
  149.3098  153.1906  130.9650 H   0  0  0  0  0  0  0  0  0  0  0  0
  150.6901  152.6316  131.9841 H   0  0  0  0  0  0  0  0  0  0  0  0
  148.2503  151.0869  131.0380 H   0  0  0  0  0  0  0  0  0  0  0  0
  150.0281  150.6879  130.8998 H   0  0  0  0  0  0  0  0  0  0  0  0
  148.1001  149.9827  132.9982 H   0  0  0  0  0  0  0  0  0  0  0  0
  149.7551  149.3232  132.6166 H   0  0  0  0  0  0  0  0  0  0  0  0
  150.8112  151.0917  133.8842 H   0  0  0  0  0  0  0  0  0  0  0  0
  150.4620  149.7800  135.4370 H   0  0  0  0  0  0  0  0  0  0  0  0
  148.0170  152.0705  134.6646 H   0  0  0  0  0  0  0  0  0  0  0  0
  149.6259  152.8469  134.9893 H   0  0  0  0  0  0  0  0  0  0  0  0
  1  2  1  0
  2  3  2  0
  2  4  1  0
  4  5  2  0
  5  6  1  0
  6  7  2  0
  7  8  1  0
  8  9  2  0
  9 10  1  0
 10 11  1  0
 10 12  1  0
 10 13  1  0
  9 14  1  0
 14 15  2  0
 15 16  1  0
 16 17  1  0
 17 18  2  0
 17 19  1  0
 19 20  1  0
 20 21  1  0
 21 22  2  0
 21 23  1  0
 23 24  1  0
 24 25  1  0
 25 26  1  0
 26 27  1  0
 27 28  1  0
 27 29  1  0
 16  4  1  0
 29 23  1  0
 15  6  1  0
  1 30  1  0
  1 31  1  0
  5 32  1  0
  7 33  1  0
  8 34  1  0
 14 35  1  0
 19 36  1  0
 19 37  1  0
 20 38  1  0
 20 39  1  0
 24 40  1  0
 24 41  1  0
 25 42  1  0
 25 43  1  0
 26 44  1  0
 26 45  1  0
 27 46  1  6
 28 47  1  0
 29 48  1  0
 29 49  1  0
M  END
>  <UniqueID>  (83) 
83

>  <SMILES>  (83) 
NC(=O)c1cc2ccc(C(F)(F)F)cc2n1C(=O)CCC(=O)N1CCC[C@H](O)C1

>  <Energy>  (83) 
94.32055827393839

>  <Genealogy>  (83) 
NC(=O)c1cc2ccc(C(F)(F)F)cc2n1C(=O)CCC(=O)N1CCC[C@H](O)C1 (chirality)
NC(=O)c1cc2ccc(C(F)(F)F)cc2n1C(=O)CCC(=O)N1CCC[C@H](O)C1 (3D coordinates assigned)
NC(=O)c1cc2ccc(C(F)(F)F)cc2n1C(=O)CCC(=O)N1CCC[C@H](O)C1 (nonaromatic ring conformer: 94.32055827393839 kcal/mol)

>  <smiles>  (83) 
NC(=O)c1cc2ccc(C(F)(F)F)cc2n1C(=O)CCC(=O)N1CCCC(O)C1

>  <score_type>  (83) 
oracle

>  <origin>  (83) 
adg

>  <m_score__min__energy>  (83) 
-8.9000000000000004

>  <m_primary>  (83) 
energy

$$$$
84:0
     RDKit          3D

 41 42  0  0  0  0  0  0  0  0999 V2000
  149.6000  161.0570  129.9230 C   0  0  0  0  0  0  0  0  0  0  0  0
  148.5620  161.2650  131.0200 C   0  0  0  0  0  0  0  0  0  0  0  0
  148.2600  159.9700  131.7230 C   0  0  0  0  0  0  0  0  0  0  0  0
  149.2820  159.0050  131.9110 C   0  0  0  0  0  0  0  0  0  0  0  0
  149.0120  157.8000  132.5780 C   0  0  0  0  0  0  0  0  0  0  0  0
  147.7220  157.5950  133.0600 C   0  0  0  0  0  0  0  0  0  0  0  0
  147.1860  156.5160  133.7250 C   0  0  0  0  0  0  0  0  0  0  0  0
  145.8580  156.8550  133.9720 C   0  0  0  0  0  0  0  0  0  0  0  0
  144.9370  156.0080  134.7580 C   0  0  0  0  0  0  0  0  0  0  0  0
  143.5250  156.1830  134.6740 N   0  0  0  0  0  0  0  0  0  0  0  0
  145.4060  155.1540  135.5580 O   0  0  0  0  0  0  0  0  0  0  0  0
  145.5800  158.0920  133.4700 N   0  0  0  0  0  0  0  0  0  0  0  0
  144.3220  158.7830  133.4660 C   0  0  0  0  0  0  0  0  0  0  0  0
  144.1770  159.8270  134.1580 O   0  0  0  0  0  0  0  0  0  0  0  0
  143.2590  158.2680  132.7140 O   0  0  0  0  0  0  0  0  0  0  0  0
  141.9010  158.3790  133.0440 C   0  0  0  0  0  0  0  0  0  0  0  0
  141.1200  159.0820  132.3430 O   0  0  0  0  0  0  0  0  0  0  0  0
  141.3950  157.6370  134.1760 N   0  0  1  0  0  0  0  0  0  0  0  0
  141.3090  158.5090  135.3590 C   0  0  0  0  0  0  0  0  0  0  0  0
  140.0760  157.0430  133.8680 C   0  0  0  0  0  0  0  0  0  0  0  0
  140.2050  155.6120  133.4280 C   0  0  0  0  0  0  0  0  0  0  0  0
  141.3300  155.0460  133.4330 O   0  0  0  0  0  0  0  0  0  0  0  0
  139.0880  154.9230  132.9730 O   0  0  0  0  0  0  0  0  0  0  0  0
  146.7320  158.5320  132.9170 C   0  0  0  0  0  0  0  0  0  0  0  0
  146.9670  159.7330  132.2380 C   0  0  0  0  0  0  0  0  0  0  0  0
  150.5814  160.8604  130.3793 H   0  0  0  0  0  0  0  0  0  0  0  0
  149.3073  160.1997  129.2991 H   0  0  0  0  0  0  0  0  0  0  0  0
  149.6603  161.9609  129.2991 H   0  0  0  0  0  0  0  0  0  0  0  0
  148.9500  161.9899  131.7507 H   0  0  0  0  0  0  0  0  0  0  0  0
  147.6356  161.6414  130.5616 H   0  0  0  0  0  0  0  0  0  0  0  0
  150.2951  159.2026  131.5308 H   0  0  0  0  0  0  0  0  0  0  0  0
  149.7958  157.0406  132.7158 H   0  0  0  0  0  0  0  0  0  0  0  0
  147.6982  155.5830  134.0028 H   0  0  0  0  0  0  0  0  0  0  0  0
  143.0590  156.3510  133.7560 H   0  0  0  0  0  0  0  0  0  0  0  0
  142.0700  156.8680  134.4030 H   0  0  0  0  0  0  0  0  0  0  0  0
  141.3694  157.8968  136.2709 H   0  0  0  0  0  0  0  0  0  0  0  0
  142.1405  159.2290  135.3450 H   0  0  0  0  0  0  0  0  0  0  0  0
  140.3529  159.0527  135.3450 H   0  0  0  0  0  0  0  0  0  0  0  0
  139.4463  157.0844  134.7690 H   0  0  0  0  0  0  0  0  0  0  0  0
  139.6227  157.6169  133.0463 H   0  0  0  0  0  0  0  0  0  0  0  0
  146.1642  160.4739  132.1088 H   0  0  0  0  0  0  0  0  0  0  0  0
  1  2  1  0
  2  3  1  0
  3  4  2  0
  4  5  1  0
  5  6  2  0
  6  7  1  0
  7  8  2  0
  8  9  1  0
  9 10  1  0
  9 11  2  0
  8 12  1  0
 12 13  1  0
 13 14  2  0
 13 15  1  0
 15 16  1  0
 16 17  2  0
 16 18  1  0
 18 19  1  0
 18 20  1  0
 20 21  1  0
 21 22  2  0
 21 23  1  0
 12 24  1  0
 24 25  2  0
 25  3  1  0
 24  6  1  0
  1 26  1  0
  1 27  1  0
  1 28  1  0
  2 29  1  0
  2 30  1  0
  4 31  1  0
  5 32  1  0
  7 33  1  0
 10 34  1  0
 18 35  1  1
 19 36  1  0
 19 37  1  0
 19 38  1  0
 20 39  1  0
 20 40  1  0
 25 41  1  0
M  CHG  3  10  -1  18   1  23  -1
M  END
>  <UniqueID>  (84) 
84

>  <SMILES>  (84) 
CCc1ccc2cc(C([NH-])=O)n(C(=O)OC(=O)[N@@H+](C)CC(=O)[O-])c2c1

>  <Energy>  (84) 
78.72847641580715

>  <Genealogy>  (84) 
CCc1ccc2cc(C([NH-])=O)n(C(=O)OC(=O)[NH+](C)CC(=O)[O-])c2c1 (protonated)
CCc1ccc2cc(C([NH-])=O)n(C(=O)OC(=O)[N@@H+](C)CC(=O)[O-])c2c1 (chirality)
CCc1ccc2cc(C([NH-])=O)n(C(=O)OC(=O)[N@@H+](C)CC(=O)[O-])c2c1 (3D coordinates assigned)
CCc1ccc2cc(C([NH-])=O)n(C(=O)OC(=O)[N@@H+](C)CC(=O)[O-])c2c1 (optimized conformer: 78.72847641580715 kcal/mol)

>  <smiles>  (84) 
CCc1ccc2cc(C(N)=O)n(C(=O)OC(=O)N(C)CC(=O)O)c2c1

>  <score_type>  (84) 
oracle

>  <origin>  (84) 
adg

>  <m_score__min__energy>  (84) 
-6.3700000000000001

>  <m_primary>  (84) 
energy

$$$$
85:0
     RDKit          3D

 42 44  0  0  0  0  0  0  0  0999 V2000
  142.1440  154.0820  133.5860 C   0  0  0  0  0  0  0  0  0  0  0  0
  143.1270  155.0150  132.9920 N   0  0  1  0  0  0  0  0  0  0  0  0
  143.7250  155.8520  134.0100 C   0  0  0  0  0  0  0  0  0  0  0  0
  144.3510  155.3450  134.9810 O   0  0  0  0  0  0  0  0  0  0  0  0
  143.6350  157.2780  133.9100 N   0  0  0  0  0  0  0  0  0  0  0  0
  142.5140  158.0460  133.8120 C   0  0  0  0  0  0  0  0  0  0  0  0
  141.1260  157.5430  133.8230 C   0  0  0  0  0  0  0  0  0  0  0  0
  140.7020  156.5150  132.9290 N   0  0  0  0  0  0  0  0  0  0  0  0
  140.2610  158.1030  134.5440 O   0  0  0  0  0  0  0  0  0  0  0  0
  142.8540  159.3860  133.6530 C   0  0  0  0  0  0  0  0  0  0  0  0
  144.2310  159.4060  133.6030 C   0  0  0  0  0  0  0  0  0  0  0  0
  145.1140  160.4590  133.3710 C   0  0  0  0  0  0  0  0  0  0  0  0
  146.4920  160.1750  133.3280 C   0  0  0  0  0  0  0  0  0  0  0  0
  146.9590  158.8450  133.4790 C   0  0  0  0  0  0  0  0  0  0  0  0
  148.4380  158.5710  133.4730 C   0  0  0  0  0  0  0  0  0  0  0  0
  148.7070  157.2780  133.0530 F   0  0  0  0  0  0  0  0  0  0  0  0
  149.0900  159.4490  132.6240 F   0  0  0  0  0  0  0  0  0  0  0  0
  148.9300  158.7380  134.7560 F   0  0  0  0  0  0  0  0  0  0  0  0
  146.0290  157.7980  133.6950 C   0  0  0  0  0  0  0  0  0  0  0  0
  144.6720  158.1170  133.7600 C   0  0  0  0  0  0  0  0  0  0  0  0
  144.1890  154.3550  132.1700 C   0  0  1  0  0  0  0  0  0  0  0  0
  145.5590  155.0450  132.2310 C   0  0  0  0  0  0  0  0  0  0  0  0
  146.4400  154.1410  133.0870 C   0  0  0  0  0  0  0  0  0  0  0  0
  145.6400  152.9980  133.5260 N   0  0  0  0  0  0  0  0  0  0  0  0
  144.4930  152.9270  132.6250 C   0  0  0  0  0  0  0  0  0  0  0  0
  142.2024  154.1374  134.6831 H   0  0  0  0  0  0  0  0  0  0  0  0
  141.1311  154.3589  133.2583 H   0  0  0  0  0  0  0  0  0  0  0  0
  142.3677  153.0561  133.2583 H   0  0  0  0  0  0  0  0  0  0  0  0
  142.5940  155.6570  132.3510 H   0  0  0  0  0  0  0  0  0  0  0  0
  141.3450  156.0730  132.2340 H   0  0  0  0  0  0  0  0  0  0  0  0
  142.1704  160.2449  133.5824 H   0  0  0  0  0  0  0  0  0  0  0  0
  144.7440  161.4846  133.2254 H   0  0  0  0  0  0  0  0  0  0  0  0
  147.2127  160.9920  133.1759 H   0  0  0  0  0  0  0  0  0  0  0  0
  146.3688  156.7580  133.8088 H   0  0  0  0  0  0  0  0  0  0  0  0
  143.7547  154.4042  131.1606 H   0  0  0  0  0  0  0  0  0  0  0  0
  145.9820  155.1473  131.2207 H   0  0  0  0  0  0  0  0  0  0  0  0
  145.4846  156.0575  132.6544 H   0  0  0  0  0  0  0  0  0  0  0  0
  147.2973  153.7888  132.4946 H   0  0  0  0  0  0  0  0  0  0  0  0
  146.8165  154.6960  133.9590 H   0  0  0  0  0  0  0  0  0  0  0  0
  146.2020  152.1180  133.4290 H   0  0  0  0  0  0  0  0  0  0  0  0
  144.7344  152.2975  131.7559 H   0  0  0  0  0  0  0  0  0  0  0  0
  143.6233  152.4846  133.1328 H   0  0  0  0  0  0  0  0  0  0  0  0
  1  2  1  0
  2  3  1  0
  3  4  2  0
  3  5  1  0
  5  6  1  0
  6  7  1  0
  7  8  1  0
  7  9  2  0
  6 10  2  0
 10 11  1  0
 11 12  2  0
 12 13  1  0
 13 14  2  0
 14 15  1  0
 15 16  1  0
 15 17  1  0
 15 18  1  0
 14 19  1  0
 19 20  2  0
  2 21  1  0
 21 22  1  0
 22 23  1  0
 23 24  1  0
 24 25  1  0
 20  5  1  0
 25 21  1  0
 20 11  1  0
  1 26  1  0
  1 27  1  0
  1 28  1  0
  2 29  1  6
  8 30  1  0
 10 31  1  0
 12 32  1  0
 13 33  1  0
 19 34  1  0
 21 35  1  6
 22 36  1  0
 22 37  1  0
 23 38  1  0
 23 39  1  0
 24 40  1  0
 25 41  1  0
 25 42  1  0
M  CHG  2   2   1   8  -1
M  END
>  <UniqueID>  (85) 
85

>  <SMILES>  (85) 
C[N@@H+](C(=O)n1c(C([NH-])=O)cc2ccc(C(F)(F)F)cc21)[C@H]1CCNC1

>  <Energy>  (85) 
97.46478324510583

>  <Genealogy>  (85) 
C[NH+](C(=O)n1c(C([NH-])=O)cc2ccc(C(F)(F)F)cc21)[C@H]1CCNC1 (protonated)
C[N@@H+](C(=O)n1c(C([NH-])=O)cc2ccc(C(F)(F)F)cc21)[C@H]1CCNC1 (chirality)
C[N@@H+](C(=O)n1c(C([NH-])=O)cc2ccc(C(F)(F)F)cc21)[C@H]1CCNC1 (3D coordinates assigned)
C[N@@H+](C(=O)n1c(C([NH-])=O)cc2ccc(C(F)(F)F)cc21)[C@H]1CCNC1 (nonaromatic ring conformer: 97.46478324510583 kcal/mol)

>  <smiles>  (85) 
CN(C(=O)n1c(C(N)=O)cc2ccc(C(F)(F)F)cc21)[C@H]1CCNC1

>  <score_type>  (85) 
oracle

>  <origin>  (85) 
adg

>  <m_score__min__energy>  (85) 
-6.21

>  <m_primary>  (85) 
energy

$$$$
86:0
     RDKit          3D

 37 38  0  0  0  0  0  0  0  0999 V2000
  148.9600  157.2590  132.6110 C   0  0  0  0  0  0  0  0  0  0  0  0
  147.8620  158.2160  132.9640 C   0  0  0  0  0  0  0  0  0  0  0  0
  148.1400  159.6020  133.0740 C   0  0  0  0  0  0  0  0  0  0  0  0
  147.1100  160.5180  133.3510 C   0  0  0  0  0  0  0  0  0  0  0  0
  145.8190  160.0200  133.5070 C   0  0  0  0  0  0  0  0  0  0  0  0
  144.6330  160.6840  133.7250 C   0  0  0  0  0  0  0  0  0  0  0  0
  143.6530  159.6910  133.7510 C   0  0  0  0  0  0  0  0  0  0  0  0
  142.2230  159.9590  134.0090 C   0  0  0  0  0  0  0  0  0  0  0  0
  141.3450  160.3420  132.9530 N   0  0  0  0  0  0  0  0  0  0  0  0
  141.7600  159.8160  135.1720 O   0  0  0  0  0  0  0  0  0  0  0  0
  144.2130  158.4660  133.5580 N   0  0  0  0  0  0  0  0  0  0  0  0
  143.5460  157.2070  133.4050 C   0  0  0  0  0  0  0  0  0  0  0  0
  144.1620  156.1360  133.6590 O   0  0  0  0  0  0  0  0  0  0  0  0
  142.2360  157.1740  132.9150 O   0  0  0  0  0  0  0  0  0  0  0  0
  141.1810  156.4610  133.5570 C   0  0  0  0  0  0  0  0  0  0  0  0
  139.8440  157.0370  133.1850 C   0  0  0  0  0  0  0  0  0  0  0  0
  138.7970  156.5360  133.6770 O   0  0  0  0  0  0  0  0  0  0  0  0
  139.7600  158.1600  132.2970 N   0  0  0  0  0  0  0  0  0  0  0  0
  138.4770  158.6170  131.7680 C   0  0  0  0  0  0  0  0  0  0  0  0
  138.6750  159.7490  130.8110 C   0  0  0  0  0  0  0  0  0  0  0  0
  139.8390  160.1060  130.4880 O   0  0  0  0  0  0  0  0  0  0  0  0
  137.5790  160.4450  130.3180 O   0  0  0  0  0  0  0  0  0  0  0  0
  145.5380  158.6830  133.4070 C   0  0  0  0  0  0  0  0  0  0  0  0
  146.5390  157.7500  133.1150 C   0  0  0  0  0  0  0  0  0  0  0  0
  149.4128  156.8644  133.5325 H   0  0  0  0  0  0  0  0  0  0  0  0
  148.5464  156.4280  132.0207 H   0  0  0  0  0  0  0  0  0  0  0  0
  149.7267  157.7822  132.0207 H   0  0  0  0  0  0  0  0  0  0  0  0
  149.1703  159.9637  132.9415 H   0  0  0  0  0  0  0  0  0  0  0  0
  147.3175  161.5944  133.4416 H   0  0  0  0  0  0  0  0  0  0  0  0
  144.4885  161.7671  133.8518 H   0  0  0  0  0  0  0  0  0  0  0  0
  141.4450  159.9350  131.9970 H   0  0  0  0  0  0  0  0  0  0  0  0
  141.2180  155.4061  133.2473 H   0  0  0  0  0  0  0  0  0  0  0  0
  141.3104  156.5451  134.6461 H   0  0  0  0  0  0  0  0  0  0  0  0
  140.6450  158.6270  131.9910 H   0  0  0  0  0  0  0  0  0  0  0  0
  137.9841  157.7839  131.2455 H   0  0  0  0  0  0  0  0  0  0  0  0
  137.8525  158.9648  132.6041 H   0  0  0  0  0  0  0  0  0  0  0  0
  146.3007  156.6816  133.0061 H   0  0  0  0  0  0  0  0  0  0  0  0
  1  2  1  0
  2  3  2  0
  3  4  1  0
  4  5  2  0
  5  6  1  0
  6  7  2  0
  7  8  1  0
  8  9  1  0
  8 10  2  0
  7 11  1  0
 11 12  1  0
 12 13  2  0
 12 14  1  0
 14 15  1  0
 15 16  1  0
 16 17  2  0
 16 18  1  0
 18 19  1  0
 19 20  1  0
 20 21  2  0
 20 22  1  0
 11 23  1  0
 23 24  2  0
 24  2  1  0
 23  5  1  0
  1 25  1  0
  1 26  1  0
  1 27  1  0
  3 28  1  0
  4 29  1  0
  6 30  1  0
  9 31  1  0
 15 32  1  0
 15 33  1  0
 18 34  1  0
 19 35  1  0
 19 36  1  0
 24 37  1  0
M  CHG  2   9  -1  22  -1
M  END
>  <UniqueID>  (86) 
86

>  <SMILES>  (86) 
Cc1ccc2cc(C([NH-])=O)n(C(=O)OCC(=O)NCC(=O)[O-])c2c1

>  <Energy>  (86) 
69.59087461635409

>  <Genealogy>  (86) 
Cc1ccc2cc(C([NH-])=O)n(C(=O)OCC(=O)NCC(=O)[O-])c2c1 (protonated)
Cc1ccc2cc(C([NH-])=O)n(C(=O)OCC(=O)NCC(=O)[O-])c2c1 (3D coordinates assigned)
Cc1ccc2cc(C([NH-])=O)n(C(=O)OCC(=O)NCC(=O)[O-])c2c1 (optimized conformer: 69.59087461635409 kcal/mol)

>  <smiles>  (86) 
Cc1ccc2cc(C(N)=O)n(C(=O)OCC(=O)NCC(=O)O)c2c1

>  <score_type>  (86) 
oracle

>  <origin>  (86) 
adg

>  <m_score__min__energy>  (86) 
-6.4400000000000004

>  <m_primary>  (86) 
energy

$$$$
87:0
     RDKit          3D

 32 33  0  0  0  0  0  0  0  0999 V2000
  149.2360  161.9740  130.3400 C   0  0  0  0  0  0  0  0  0  0  0  0
  149.0480  160.7000  131.1080 C   0  0  0  0  0  0  0  0  0  0  0  0
  150.0500  159.7000  131.0820 C   0  0  0  0  0  0  0  0  0  0  0  0
  149.8760  158.4930  131.7770 C   0  0  0  0  0  0  0  0  0  0  0  0
  148.6830  158.3070  132.4710 C   0  0  0  0  0  0  0  0  0  0  0  0
  148.2630  157.2450  133.2390 C   0  0  0  0  0  0  0  0  0  0  0  0
  146.9920  157.5950  133.6910 C   0  0  0  0  0  0  0  0  0  0  0  0
  146.1340  156.6910  134.4860 C   0  0  0  0  0  0  0  0  0  0  0  0
  144.7200  156.7110  134.2990 N   0  0  0  0  0  0  0  0  0  0  0  0
  146.6310  155.9280  135.3550 O   0  0  0  0  0  0  0  0  0  0  0  0
  146.6430  158.8300  133.2270 N   0  0  0  0  0  0  0  0  0  0  0  0
  145.4470  159.5750  133.5100 C   0  0  0  0  0  0  0  0  0  0  0  0
  145.5210  160.6600  134.1480 O   0  0  0  0  0  0  0  0  0  0  0  0
  144.2140  159.0960  133.0490 O   0  0  0  0  0  0  0  0  0  0  0  0
  143.0140  159.1320  133.7720 C   0  0  0  0  0  0  0  0  0  0  0  0
  143.0060  159.3330  135.0170 O   0  0  0  0  0  0  0  0  0  0  0  0
  141.7280  158.8790  133.0560 C   0  0  0  0  0  0  0  0  0  0  0  0
  140.9010  160.1240  133.0410 C   0  0  0  0  0  0  0  0  0  0  0  0
  139.7640  160.1220  132.5020 O   0  0  0  0  0  0  0  0  0  0  0  0
  141.3670  161.2750  133.6640 O   0  0  0  0  0  0  0  0  0  0  0  0
  147.6890  159.2510  132.4800 C   0  0  0  0  0  0  0  0  0  0  0  0
  147.8430  160.4710  131.8100 C   0  0  0  0  0  0  0  0  0  0  0  0
  149.3595  162.8110  131.0429 H   0  0  0  0  0  0  0  0  0  0  0  0
  150.1317  161.8917  129.7068 H   0  0  0  0  0  0  0  0  0  0  0  0
  148.3547  162.1539  129.7068 H   0  0  0  0  0  0  0  0  0  0  0  0
  150.9746  159.8708  130.5111 H   0  0  0  0  0  0  0  0  0  0  0  0
  150.6572  157.7186  131.7736 H   0  0  0  0  0  0  0  0  0  0  0  0
  148.8137  156.3167  133.4511 H   0  0  0  0  0  0  0  0  0  0  0  0
  144.1560  157.5470  134.5680 H   0  0  0  0  0  0  0  0  0  0  0  0
  141.9409  158.5700  132.0220 H   0  0  0  0  0  0  0  0  0  0  0  0
  141.1747  158.0828  133.5755 H   0  0  0  0  0  0  0  0  0  0  0  0
  147.0476  161.2305  131.8296 H   0  0  0  0  0  0  0  0  0  0  0  0
  1  2  1  0
  2  3  2  0
  3  4  1  0
  4  5  2  0
  5  6  1  0
  6  7  2  0
  7  8  1  0
  8  9  1  0
  8 10  2  0
  7 11  1  0
 11 12  1  0
 12 13  2  0
 12 14  1  0
 14 15  1  0
 15 16  2  0
 15 17  1  0
 17 18  1  0
 18 19  2  0
 18 20  1  0
 11 21  1  0
 21 22  2  0
 22  2  1  0
 21  5  1  0
  1 23  1  0
  1 24  1  0
  1 25  1  0
  3 26  1  0
  4 27  1  0
  6 28  1  0
  9 29  1  0
 17 30  1  0
 17 31  1  0
 22 32  1  0
M  CHG  2   9  -1  20  -1
M  END
>  <UniqueID>  (87) 
87

>  <SMILES>  (87) 
Cc1ccc2cc(C([NH-])=O)n(C(=O)OC(=O)CC(=O)[O-])c2c1

>  <Energy>  (87) 
68.8614170098396

>  <Genealogy>  (87) 
Cc1ccc2cc(C([NH-])=O)n(C(=O)OC(=O)CC(=O)[O-])c2c1 (protonated)
Cc1ccc2cc(C([NH-])=O)n(C(=O)OC(=O)CC(=O)[O-])c2c1 (3D coordinates assigned)
Cc1ccc2cc(C([NH-])=O)n(C(=O)OC(=O)CC(=O)[O-])c2c1 (optimized conformer: 68.8614170098396 kcal/mol)

>  <smiles>  (87) 
Cc1ccc2cc(C(N)=O)n(C(=O)OC(=O)CC(=O)O)c2c1

>  <score_type>  (87) 
oracle

>  <origin>  (87) 
adg

>  <m_score__min__energy>  (87) 
-6.2699999999999996

>  <m_primary>  (87) 
energy

$$$$
88:0
     RDKit          3D

 50 52  0  0  0  0  0  0  0  0999 V2000
  149.1690  157.4780  130.8790 H   0  0  0  0  0  0  0  0  0  0  0  0
  149.1830  158.5230  130.8890 N   0  0  0  0  0  0  0  0  0  0  0  0
  148.7400  159.2510  132.0320 C   0  0  0  0  0  0  0  0  0  0  0  0
  149.5220  160.0680  132.5830 O   0  0  0  0  0  0  0  0  0  0  0  0
  147.3570  159.0720  132.5240 C   0  0  0  0  0  0  0  0  0  0  0  0
  146.5320  160.1370  132.8780 C   0  0  0  0  0  0  0  0  0  0  0  0
  146.7455  161.2107  132.7708 H   0  0  0  0  0  0  0  0  0  0  0  0
  145.3940  159.5600  133.3900 C   0  0  0  0  0  0  0  0  0  0  0  0
  144.2480  160.1540  133.9020 C   0  0  0  0  0  0  0  0  0  0  0  0
  144.1528  161.2487  133.9536 H   0  0  0  0  0  0  0  0  0  0  0  0
  143.2140  159.3170  134.3520 C   0  0  0  0  0  0  0  0  0  0  0  0
  142.2993  159.7652  134.7673 H   0  0  0  0  0  0  0  0  0  0  0  0
  143.3270  157.8980  134.2810 C   0  0  0  0  0  0  0  0  0  0  0  0
  142.2420  157.0390  134.7310 N   0  0  0  0  0  0  0  0  0  0  0  0
  141.1810  157.5670  135.6000 C   0  0  0  0  0  0  0  0  0  0  0  0
  141.4653  157.4255  136.6532 H   0  0  0  0  0  0  0  0  0  0  0  0
  141.0419  158.6394  135.3987 H   0  0  0  0  0  0  0  0  0  0  0  0
  140.2416  157.0313  135.3987 H   0  0  0  0  0  0  0  0  0  0  0  0
  142.1810  155.6290  134.3190 C   0  0  0  0  0  0  0  0  0  0  0  0
  142.1532  154.9870  135.2118 H   0  0  0  0  0  0  0  0  0  0  0  0
  141.2748  155.4613  133.7185 H   0  0  0  0  0  0  0  0  0  0  0  0
  143.0694  155.3837  133.7185 H   0  0  0  0  0  0  0  0  0  0  0  0
  144.5240  157.3410  133.7510 C   0  0  0  0  0  0  0  0  0  0  0  0
  144.6464  156.2505  133.6747 H   0  0  0  0  0  0  0  0  0  0  0  0
  145.5440  158.2020  133.3280 C   0  0  0  0  0  0  0  0  0  0  0  0
  146.7450  157.8830  132.7920 N   0  0  0  0  0  0  0  0  0  0  0  0
  147.2530  156.5570  132.5650 C   0  0  0  0  0  0  0  0  0  0  0  0
  148.4970  156.3450  132.5900 O   0  0  0  0  0  0  0  0  0  0  0  0
  146.3600  155.5180  132.2850 O   0  0  0  0  0  0  0  0  0  0  0  0
  146.5560  154.1720  132.6160 C   0  0  0  0  0  0  0  0  0  0  0  0
  145.6740  153.3120  132.3420 O   0  0  0  0  0  0  0  0  0  0  0  0
  147.7870  153.7490  133.3280 C   0  0  0  0  0  0  0  0  0  0  0  0
  147.9340  153.7910  134.6710 C   0  0  0  0  0  0  0  0  0  0  0  0
  148.8517  153.3456  135.0826 H   0  0  0  0  0  0  0  0  0  0  0  0
  146.9860  154.3750  135.6410 C   0  0  0  0  0  0  0  0  0  0  0  0
  145.7610  154.4810  135.3690 O   0  0  0  0  0  0  0  0  0  0  0  0
  147.4890  154.8300  136.8650 O   0  0  0  0  0  0  0  0  0  0  0  0
  148.2050  154.0420  137.7500 N   0  0  0  0  0  0  0  0  0  0  0  0
  147.9890  152.7600  138.1160 C   0  0  0  0  0  0  0  0  0  0  0  0
  146.9590  151.9610  137.6370 O   0  0  0  0  0  0  0  0  0  0  0  0
  148.8860  152.3760  139.0940 C   0  0  0  0  0  0  0  0  0  0  0  0
  148.9672  151.3845  139.5633 H   0  0  0  0  0  0  0  0  0  0  0  0
  149.6630  153.4910  139.3650 C   0  0  0  0  0  0  0  0  0  0  0  0
  150.4843  153.5641  140.0930 H   0  0  0  0  0  0  0  0  0  0  0  0
  149.1970  154.4910  138.5360 C   0  0  0  0  0  0  0  0  0  0  0  0
  149.6630  155.8000  138.5250 O   0  0  0  0  0  0  0  0  0  0  0  0
  148.9460  153.2550  132.5010 C   0  0  0  0  0  0  0  0  0  0  0  0
  149.7515  152.9117  133.1668 H   0  0  0  0  0  0  0  0  0  0  0  0
  148.6141  152.4202  131.8663 H   0  0  0  0  0  0  0  0  0  0  0  0
  149.3184  154.0726  131.8663 H   0  0  0  0  0  0  0  0  0  0  0  0
  1  2  1  0
  2  3  1  0
  3  4  2  0
  3  5  1  0
  5  6  2  0
  6  7  1  0
  6  8  1  0
  8  9  2  0
  9 10  1  0
  9 11  1  0
 11 12  1  0
 11 13  2  0
 13 14  1  0
 14 15  1  0
 15 16  1  0
 15 17  1  0
 15 18  1  0
 14 19  1  0
 19 20  1  0
 19 21  1  0
 19 22  1  0
 13 23  1  0
 23 24  1  0
 23 25  2  0
 25 26  1  0
 26 27  1  0
 27 28  2  0
 27 29  1  0
 29 30  1  0
 30 31  2  0
 30 32  1  0
 32 33  2  0
 33 34  1  0
 33 35  1  0
 35 36  2  0
 35 37  1  0
 37 38  1  0
 38 39  1  0
 39 40  1  0
 39 41  2  0
 41 42  1  0
 41 43  1  0
 43 44  1  0
 43 45  2  0
 45 46  1  0
 32 47  1  0
 47 48  1  0
 47 49  1  0
 47 50  1  0
 26  5  1  0
 45 38  1  0
 25  8  1  0
M  CHG  3   2  -1  40  -1  46  -1
M  END
>  <UniqueID>  (88) 
88

>  <SMILES>  (88) 
C/C(=C/C(=O)On1c([O-])ccc1[O-])C(=O)OC(=O)n1c(C([NH-])=O)cc2ccc(N(C)C)cc21

>  <Energy>  (88) 
129.1664913073528

>  <Genealogy>  (88) 
C/C(=C/C(=O)On1c([O-])ccc1[O-])C(=O)OC(=O)n1c(C([NH-])=O)cc2ccc(N(C)C)cc21 (protonated)
C/C(=C/C(=O)On1c([O-])ccc1[O-])C(=O)OC(=O)n1c(C([NH-])=O)cc2ccc(N(C)C)cc21 (cis-trans isomerization)
C/C(=C/C(=O)On1c([O-])ccc1[O-])C(=O)OC(=O)n1c(C([NH-])=O)cc2ccc(N(C)C)cc21 (3D coordinates assigned)
C/C(=C/C(=O)On1c([O-])ccc1[O-])C(=O)OC(=O)n1c(C([NH-])=O)cc2ccc(N(C)C)cc21 (optimized conformer: 129.1664913073528 kcal/mol)

>  <smiles>  (88) 
C/C(=C/C(=O)On1c(O)ccc1O)C(=O)OC(=O)n1c(C(N)=O)cc2ccc(N(C)C)cc21

>  <score_type>  (88) 
oracle

>  <origin>  (88) 
adg

>  <m_score__min__energy>  (88) 
-8.7599999999999998

>  <m_primary>  (88) 
energy

$$$$
89:0
     RDKit          3D

 38 39  0  0  0  0  0  0  0  0999 V2000
  139.7460  148.0210  131.0960 C   0  0  0  0  0  0  0  0  0  0  0  0
  140.5420  148.9450  131.9110 N   0  0  0  0  0  0  0  0  0  0  0  0
  141.7440  148.4660  132.6000 C   0  0  0  0  0  0  0  0  0  0  0  0
  140.1110  150.3180  132.0370 C   0  0  0  0  0  0  0  0  0  0  0  0
  139.0990  150.7180  131.3990 O   0  0  0  0  0  0  0  0  0  0  0  0
  140.8250  151.2970  132.9310 C   0  0  0  0  0  0  0  0  0  0  0  0
  140.3930  152.6670  132.6490 N   0  0  0  0  0  0  0  0  0  0  0  0
  141.0850  153.8290  133.1430 C   0  0  0  0  0  0  0  0  0  0  0  0
  142.5060  153.9150  133.1170 C   0  0  0  0  0  0  0  0  0  0  0  0
  143.1630  155.0650  133.5840 C   0  0  0  0  0  0  0  0  0  0  0  0
  142.3850  156.1100  134.0740 C   0  0  0  0  0  0  0  0  0  0  0  0
  142.7580  157.3570  134.5270 C   0  0  0  0  0  0  0  0  0  0  0  0
  141.5670  158.0130  134.8310 C   0  0  0  0  0  0  0  0  0  0  0  0
  141.5040  159.3830  135.3850 C   0  0  0  0  0  0  0  0  0  0  0  0
  140.8820  159.6410  136.6420 N   0  0  0  0  0  0  0  0  0  0  0  0
  142.0360  160.3350  134.7530 O   0  0  0  0  0  0  0  0  0  0  0  0
  140.5000  157.2030  134.5790 N   0  0  0  0  0  0  0  0  0  0  0  0
  139.1060  157.5380  134.6500 C   0  0  0  0  0  0  0  0  0  0  0  0
  138.5880  158.2390  135.7820 N   0  0  0  0  0  0  0  0  0  0  0  0
  138.3280  157.2010  133.7180 O   0  0  0  0  0  0  0  0  0  0  0  0
  141.0180  156.0420  134.1170 C   0  0  0  0  0  0  0  0  0  0  0  0
  140.3340  154.9150  133.6480 C   0  0  0  0  0  0  0  0  0  0  0  0
  139.1709  147.3535  131.7545 H   0  0  0  0  0  0  0  0  0  0  0  0
  139.0546  148.5945  130.4611 H   0  0  0  0  0  0  0  0  0  0  0  0
  140.4155  147.4221  130.4611 H   0  0  0  0  0  0  0  0  0  0  0  0
  141.5918  148.5266  133.6877 H   0  0  0  0  0  0  0  0  0  0  0  0
  141.9386  147.4216  132.3146 H   0  0  0  0  0  0  0  0  0  0  0  0
  142.6035  149.0903  132.3146 H   0  0  0  0  0  0  0  0  0  0  0  0
  140.6010  151.0568  133.9808 H   0  0  0  0  0  0  0  0  0  0  0  0
  141.9064  151.2221  132.7442 H   0  0  0  0  0  0  0  0  0  0  0  0
  139.5810  152.8160  132.0040 H   0  0  0  0  0  0  0  0  0  0  0  0
  143.0953  153.0720  132.7271 H   0  0  0  0  0  0  0  0  0  0  0  0
  144.2604  155.1378  133.5631 H   0  0  0  0  0  0  0  0  0  0  0  0
  143.7801  157.7511  134.6273 H   0  0  0  0  0  0  0  0  0  0  0  0
  139.8560  159.8200  136.7050 H   0  0  0  0  0  0  0  0  0  0  0  0
  137.5660  158.4420  135.8530 H   0  0  0  0  0  0  0  0  0  0  0  0
  139.2270  158.5900  136.5290 H   0  0  0  0  0  0  0  0  0  0  0  0
  139.2350  154.8749  133.6717 H   0  0  0  0  0  0  0  0  0  0  0  0
  1  2  1  0
  2  3  1  0
  2  4  1  0
  4  5  2  0
  4  6  1  0
  6  7  1  0
  7  8  1  0
  8  9  2  0
  9 10  1  0
 10 11  2  0
 11 12  1  0
 12 13  2  0
 13 14  1  0
 14 15  1  0
 14 16  2  0
 13 17  1  0
 17 18  1  0
 18 19  1  0
 18 20  2  0
 17 21  1  0
 21 22  2  0
 22  8  1  0
 21 11  1  0
  1 23  1  0
  1 24  1  0
  1 25  1  0
  3 26  1  0
  3 27  1  0
  3 28  1  0
  6 29  1  0
  6 30  1  0
  7 31  1  0
  9 32  1  0
 10 33  1  0
 12 34  1  0
 15 35  1  0
 19 36  1  0
 19 37  1  0
 22 38  1  0
M  CHG  1  15  -1
M  END
>  <UniqueID>  (89) 
89

>  <SMILES>  (89) 
CN(C)C(=O)CNc1ccc2cc(C([NH-])=O)n(C(N)=O)c2c1

>  <Energy>  (89) 
73.31393506141245

>  <Genealogy>  (89) 
CN(C)C(=O)CNc1ccc2cc(C([NH-])=O)n(C(N)=O)c2c1 (protonated)
CN(C)C(=O)CNc1ccc2cc(C([NH-])=O)n(C(N)=O)c2c1 (3D coordinates assigned)
CN(C)C(=O)CNc1ccc2cc(C([NH-])=O)n(C(N)=O)c2c1 (optimized conformer: 73.31393506141245 kcal/mol)

>  <smiles>  (89) 
CN(C)C(=O)CNc1ccc2cc(C(N)=O)n(C(N)=O)c2c1

>  <score_type>  (89) 
oracle

>  <origin>  (89) 
adg

>  <m_score__min__energy>  (89) 
-6.7699999999999996

>  <m_primary>  (89) 
energy

$$$$
90:0
     RDKit          3D

 43 44  0  0  0  0  0  0  0  0999 V2000
  140.7890  159.3310  135.0600 C   0  0  0  0  0  0  0  0  0  0  0  0
  139.6720  158.2790  135.1610 C   0  0  0  0  0  0  0  0  0  0  0  0
  139.8380  157.4530  136.4460 C   0  0  0  0  0  0  0  0  0  0  0  0
  139.6050  157.3520  133.9230 C   0  0  2  0  0  0  0  0  0  0  0  0
  140.7210  156.4050  133.9240 N   0  0  0  0  0  0  0  0  0  0  0  0
  140.7320  155.1710  133.1990 C   0  0  0  0  0  0  0  0  0  0  0  0
  139.6540  154.7270  132.7230 O   0  0  0  0  0  0  0  0  0  0  0  0
  141.9500  154.4390  133.0000 N   0  0  0  0  0  0  0  0  0  0  0  0
  143.2160  154.9340  132.9370 C   0  0  0  0  0  0  0  0  0  0  0  0
  143.5690  156.3740  132.9710 C   0  0  0  0  0  0  0  0  0  0  0  0
  142.6620  157.3690  132.4920 N   0  0  0  0  0  0  0  0  0  0  0  0
  144.6810  156.7390  133.4360 O   0  0  0  0  0  0  0  0  0  0  0  0
  144.1330  153.8910  132.7930 C   0  0  0  0  0  0  0  0  0  0  0  0
  143.3790  152.7390  132.7850 C   0  0  0  0  0  0  0  0  0  0  0  0
  143.7720  151.4080  132.6910 C   0  0  0  0  0  0  0  0  0  0  0  0
  142.7730  150.4200  132.7350 C   0  0  0  0  0  0  0  0  0  0  0  0
  141.4040  150.7760  132.8640 C   0  0  0  0  0  0  0  0  0  0  0  0
  140.3410  149.7050  132.9580 C   0  0  0  0  0  0  0  0  0  0  0  0
  140.7000  148.5240  132.0610 C   0  0  0  0  0  0  0  0  0  0  0  0
  139.1120  150.2130  132.5690 F   0  0  0  0  0  0  0  0  0  0  0  0
  140.2230  149.2620  134.2660 F   0  0  0  0  0  0  0  0  0  0  0  0
  141.0500  152.1400  132.9830 C   0  0  0  0  0  0  0  0  0  0  0  0
  142.0660  153.0990  132.9180 C   0  0  0  0  0  0  0  0  0  0  0  0
  139.5850  158.1420  132.6420 C   0  0  0  0  0  0  0  0  0  0  0  0
  140.6240  158.7190  132.2250 O   0  0  0  0  0  0  0  0  0  0  0  0
  138.3990  158.2730  131.9310 O   0  0  0  0  0  0  0  0  0  0  0  0
  141.1049  159.6285  136.0708 H   0  0  0  0  0  0  0  0  0  0  0  0
  141.6463  158.9047  134.5185 H   0  0  0  0  0  0  0  0  0  0  0  0
  140.4148  160.2123  134.5185 H   0  0  0  0  0  0  0  0  0  0  0  0
  138.7175  158.8246  135.1961 H   0  0  0  0  0  0  0  0  0  0  0  0
  139.7067  158.1062  137.3213 H   0  0  0  0  0  0  0  0  0  0  0  0
  139.0825  156.6538  136.4683 H   0  0  0  0  0  0  0  0  0  0  0  0
  140.8436  157.0077  136.4683 H   0  0  0  0  0  0  0  0  0  0  0  0
  138.6638  156.7859  133.9832 H   0  0  0  0  0  0  0  0  0  0  0  0
  142.9170  158.3800  132.5540 H   0  0  0  0  0  0  0  0  0  0  0  0
  141.7570  157.1150  132.0390 H   0  0  0  0  0  0  0  0  0  0  0  0
  145.2264  153.9724  132.7046 H   0  0  0  0  0  0  0  0  0  0  0  0
  144.8328  151.1367  132.5854 H   0  0  0  0  0  0  0  0  0  0  0  0
  143.0548  149.3588  132.6688 H   0  0  0  0  0  0  0  0  0  0  0  0
  140.9636  147.6569  132.6844 H   0  0  0  0  0  0  0  0  0  0  0  0
  139.8383  148.2706  131.4260 H   0  0  0  0  0  0  0  0  0  0  0  0
  141.5569  148.7931  131.4260 H   0  0  0  0  0  0  0  0  0  0  0  0
  140.0009  152.4395  133.1233 H   0  0  0  0  0  0  0  0  0  0  0  0
  1  2  1  0
  2  3  1  0
  2  4  1  0
  4  5  1  0
  5  6  1  0
  6  7  2  0
  6  8  1  0
  8  9  1  0
  9 10  1  0
 10 11  1  0
 10 12  2  0
  9 13  2  0
 13 14  1  0
 14 15  2  0
 15 16  1  0
 16 17  2  0
 17 18  1  0
 18 19  1  0
 18 20  1  0
 18 21  1  0
 17 22  1  0
 22 23  2  0
  4 24  1  0
 24 25  2  0
 24 26  1  0
 23  8  1  0
 23 14  1  0
  1 27  1  0
  1 28  1  0
  1 29  1  0
  2 30  1  0
  3 31  1  0
  3 32  1  0
  3 33  1  0
  4 34  1  1
 11 35  1  0
 11 36  1  0
 13 37  1  0
 15 38  1  0
 16 39  1  0
 19 40  1  0
 19 41  1  0
 19 42  1  0
 22 43  1  0
M  CHG  2   5  -1  26  -1
M  END
>  <UniqueID>  (90) 
90

>  <SMILES>  (90) 
CC(C)[C@H]([N-]C(=O)n1c(C(N)=O)cc2ccc(C(C)(F)F)cc21)C(=O)[O-]

>  <Energy>  (90) 
73.47912577513354

>  <Genealogy>  (90) 
CC(C)[C@H]([N-]C(=O)n1c(C(N)=O)cc2ccc(C(C)(F)F)cc21)C(=O)[O-] (protonated)
CC(C)[C@H]([N-]C(=O)n1c(C(N)=O)cc2ccc(C(C)(F)F)cc21)C(=O)[O-] (3D coordinates assigned)
CC(C)[C@H]([N-]C(=O)n1c(C(N)=O)cc2ccc(C(C)(F)F)cc21)C(=O)[O-] (optimized conformer: 73.47912577513354 kcal/mol)

>  <smiles>  (90) 
CC(C)[C@H](NC(=O)n1c(C(N)=O)cc2ccc(C(C)(F)F)cc21)C(=O)O

>  <score_type>  (90) 
oracle

>  <origin>  (90) 
adg

>  <m_score__min__energy>  (90) 
-7.5999999999999996

>  <m_primary>  (90) 
energy

$$$$
91:0
     RDKit          3D

 46 47  0  0  0  0  0  0  0  0999 V2000
  150.3640  151.2600  132.6430 C   0  0  0  0  0  0  0  0  0  0  0  0
  148.9860  151.8520  132.6200 C   0  0  0  0  0  0  0  0  0  0  0  0
  147.8860  151.0680  132.1920 C   0  0  0  0  0  0  0  0  0  0  0  0
  146.5820  151.5880  132.2270 C   0  0  0  0  0  0  0  0  0  0  0  0
  146.4070  152.8800  132.7080 C   0  0  0  0  0  0  0  0  0  0  0  0
  145.2590  153.6280  132.8460 C   0  0  0  0  0  0  0  0  0  0  0  0
  145.6750  154.8430  133.3830 C   0  0  0  0  0  0  0  0  0  0  0  0
  144.7430  155.9280  133.7580 C   0  0  0  0  0  0  0  0  0  0  0  0
  144.7950  157.2060  133.1230 N   0  0  0  0  0  0  0  0  0  0  0  0
  143.9140  155.7350  134.6880 O   0  0  0  0  0  0  0  0  0  0  0  0
  147.0280  154.8560  133.5520 N   0  0  0  0  0  0  0  0  0  0  0  0
  147.8620  155.9620  133.9360 C   0  0  0  0  0  0  0  0  0  0  0  0
  148.1190  156.1570  135.1550 O   0  0  0  0  0  0  0  0  0  0  0  0
  148.5240  156.8200  132.9040 C   0  0  0  0  0  0  0  0  0  0  0  0
  147.5380  157.5960  132.2570 O   0  0  0  0  0  0  0  0  0  0  0  0
  147.8540  158.9730  132.3470 C   0  0  0  0  0  0  0  0  0  0  0  0
  146.9580  159.6690  133.3760 C   0  0  0  0  0  0  0  0  0  0  0  0
  145.5600  159.6200  132.9640 N   0  0  0  0  0  0  0  0  0  0  0  0
  144.4790  160.1860  133.7070 C   0  0  0  0  0  0  0  0  0  0  0  0
  144.2900  161.4330  133.7120 O   0  0  0  0  0  0  0  0  0  0  0  0
  143.6350  159.3340  134.4220 O   0  0  0  0  0  0  0  0  0  0  0  0
  142.2600  159.6190  134.6580 C   0  0  0  0  0  0  0  0  0  0  0  0
  141.6090  158.4170  134.9860 O   0  0  0  0  0  0  0  0  0  0  0  0
  140.6480  158.6780  136.3690 P   0  0  0  0  0  0  0  0  0  0  0  0
  140.6620  160.1460  136.7370 O   0  0  0  0  0  0  0  0  0  0  0  0
  141.2160  157.7620  137.6730 O   0  0  0  0  0  0  0  0  0  0  0  0
  139.0580  158.2100  136.0260 O   0  0  0  0  0  0  0  0  0  0  0  0
  147.4590  153.6430  133.1440 C   0  0  0  0  0  0  0  0  0  0  0  0
  148.7720  153.1600  133.1040 C   0  0  0  0  0  0  0  0  0  0  0  0
  150.6862  151.1216  133.6856 H   0  0  0  0  0  0  0  0  0  0  0  0
  150.3536  150.2869  132.1301 H   0  0  0  0  0  0  0  0  0  0  0  0
  151.0627  151.9374  132.1301 H   0  0  0  0  0  0  0  0  0  0  0  0
  148.0549  150.0434  131.8293 H   0  0  0  0  0  0  0  0  0  0  0  0
  145.7246  150.9904  131.8839 H   0  0  0  0  0  0  0  0  0  0  0  0
  144.2325  153.3292  132.5871 H   0  0  0  0  0  0  0  0  0  0  0  0
  145.5900  157.4670  132.4990 H   0  0  0  0  0  0  0  0  0  0  0  0
  144.0960  157.9420  133.3650 H   0  0  0  0  0  0  0  0  0  0  0  0
  149.2566  157.4823  133.3885 H   0  0  0  0  0  0  0  0  0  0  0  0
  149.0434  156.1873  132.1692 H   0  0  0  0  0  0  0  0  0  0  0  0
  148.9054  159.0829  132.6510 H   0  0  0  0  0  0  0  0  0  0  0  0
  147.6899  159.4381  131.3638 H   0  0  0  0  0  0  0  0  0  0  0  0
  147.0654  159.1643  134.3475 H   0  0  0  0  0  0  0  0  0  0  0  0
  147.2651  160.7223  133.4552 H   0  0  0  0  0  0  0  0  0  0  0  0
  142.1657  160.3320  135.4903 H   0  0  0  0  0  0  0  0  0  0  0  0
  141.8058  160.0626  133.7597 H   0  0  0  0  0  0  0  0  0  0  0  0
  149.6139  153.7829  133.4406 H   0  0  0  0  0  0  0  0  0  0  0  0
  1  2  1  0
  2  3  2  0
  3  4  1  0
  4  5  2  0
  5  6  1  0
  6  7  2  0
  7  8  1  0
  8  9  1  0
  8 10  2  0
  7 11  1  0
 11 12  1  0
 12 13  2  0
 12 14  1  0
 14 15  1  0
 15 16  1  0
 16 17  1  0
 17 18  1  0
 18 19  1  0
 19 20  2  0
 19 21  1  0
 21 22  1  0
 22 23  1  0
 23 24  1  0
 24 25  2  0
 24 26  1  0
 24 27  1  0
 11 28  1  0
 28 29  2  0
 29  2  1  0
 28  5  1  0
  1 30  1  0
  1 31  1  0
  1 32  1  0
  3 33  1  0
  4 34  1  0
  6 35  1  0
  9 36  1  0
  9 37  1  0
 14 38  1  0
 14 39  1  0
 16 40  1  0
 16 41  1  0
 17 42  1  0
 17 43  1  0
 22 44  1  0
 22 45  1  0
 29 46  1  0
M  CHG  3  18  -1  26  -1  27  -1
M  END
>  <UniqueID>  (91) 
91

>  <SMILES>  (91) 
Cc1ccc2cc(C(N)=O)n(C(=O)COCC[N-]C(=O)OCOP(=O)([O-])[O-])c2c1

>  <Energy>  (91) 
77.83389534844437

>  <Genealogy>  (91) 
Cc1ccc2cc(C(N)=O)n(C(=O)COCC[N-]C(=O)OCOP(=O)([O-])[O-])c2c1 (protonated)
Cc1ccc2cc(C(N)=O)n(C(=O)COCC[N-]C(=O)OCOP(=O)([O-])[O-])c2c1 (3D coordinates assigned)
Cc1ccc2cc(C(N)=O)n(C(=O)COCC[N-]C(=O)OCOP(=O)([O-])[O-])c2c1 (optimized conformer: 77.83389534844437 kcal/mol)

>  <smiles>  (91) 
Cc1ccc2cc(C(N)=O)n(C(=O)COCCNC(=O)OCOP(=O)(O)O)c2c1

>  <score_type>  (91) 
oracle

>  <origin>  (91) 
adg

>  <m_score__min__energy>  (91) 
-6.1200000000000001

>  <m_primary>  (91) 
energy

$$$$
92:0
     RDKit          3D

 36 37  0  0  0  0  0  0  0  0999 V2000
  147.6030  156.9540  133.5580 C   0  0  0  0  0  0  0  0  0  0  0  0
  146.4930  157.4220  133.5940 C   0  0  0  0  0  0  0  0  0  0  0  0
  145.1660  157.9810  133.6350 C   0  0  0  0  0  0  0  0  0  0  0  0
  144.9700  159.3540  133.3570 C   0  0  0  0  0  0  0  0  0  0  0  0
  143.6800  159.9120  133.4050 C   0  0  0  0  0  0  0  0  0  0  0  0
  142.6170  159.0720  133.7220 C   0  0  0  0  0  0  0  0  0  0  0  0
  141.2750  159.3500  133.8660 C   0  0  0  0  0  0  0  0  0  0  0  0
  140.6810  158.1370  134.2130 C   0  0  0  0  0  0  0  0  0  0  0  0
  139.2310  157.9640  134.4380 C   0  0  0  0  0  0  0  0  0  0  0  0
  138.3830  157.5900  133.3550 N   0  0  0  0  0  0  0  0  0  0  0  0
  138.7340  158.1270  135.5840 O   0  0  0  0  0  0  0  0  0  0  0  0
  141.6170  157.1500  134.2740 N   0  0  0  0  0  0  0  0  0  0  0  0
  141.4170  155.7790  134.6480 C   0  0  0  0  0  0  0  0  0  0  0  0
  141.6760  155.4220  135.8280 O   0  0  0  0  0  0  0  0  0  0  0  0
  140.9330  154.7960  133.6560 C   0  0  0  0  0  0  0  0  0  0  0  0
  139.8590  155.0340  133.0390 O   0  0  0  0  0  0  0  0  0  0  0  0
  141.6550  153.5810  133.3680 N   0  0  0  0  0  0  0  0  0  0  0  0
  143.0990  153.6580  133.3200 C   0  0  0  0  0  0  0  0  0  0  0  0
  143.7830  154.0550  132.2450 C   0  0  0  0  0  0  0  0  0  0  0  0
  140.9210  152.3580  132.9950 C   0  0  0  0  0  0  0  0  0  0  0  0
  141.3490  151.1870  133.8280 C   0  0  0  0  0  0  0  0  0  0  0  0
  142.0440  150.2610  133.3300 O   0  0  0  0  0  0  0  0  0  0  0  0
  141.0210  151.1440  135.1770 O   0  0  0  0  0  0  0  0  0  0  0  0
  142.7970  157.7360  133.9790 C   0  0  0  0  0  0  0  0  0  0  0  0
  144.0690  157.1560  133.9560 C   0  0  0  0  0  0  0  0  0  0  0  0
  148.6161  156.5268  133.5251 H   0  0  0  0  0  0  0  0  0  0  0  0
  145.8314  159.9888  133.1018 H   0  0  0  0  0  0  0  0  0  0  0  0
  143.5163  160.9799  133.1982 H   0  0  0  0  0  0  0  0  0  0  0  0
  140.7778  160.3224  133.7350 H   0  0  0  0  0  0  0  0  0  0  0  0
  138.3560  156.6060  133.0080 H   0  0  0  0  0  0  0  0  0  0  0  0
  143.6645  153.3735  134.2196 H   0  0  0  0  0  0  0  0  0  0  0  0
  144.8820  154.0909  132.2747 H   0  0  0  0  0  0  0  0  0  0  0  0
  143.2478  154.3463  131.3292 H   0  0  0  0  0  0  0  0  0  0  0  0
  139.8443  152.5278  133.1428 H   0  0  0  0  0  0  0  0  0  0  0  0
  141.1396  152.1312  131.9411 H   0  0  0  0  0  0  0  0  0  0  0  0
  144.2094  156.0886  134.1815 H   0  0  0  0  0  0  0  0  0  0  0  0
  1  2  3  0
  2  3  1  0
  3  4  2  0
  4  5  1  0
  5  6  2  0
  6  7  1  0
  7  8  2  0
  8  9  1  0
  9 10  1  0
  9 11  2  0
  8 12  1  0
 12 13  1  0
 13 14  2  0
 13 15  1  0
 15 16  2  0
 15 17  1  0
 17 18  1  0
 18 19  2  0
 17 20  1  0
 20 21  1  0
 21 22  2  0
 21 23  1  0
 12 24  1  0
 24 25  2  0
 25  3  1  0
 24  6  1  0
  1 26  1  0
  4 27  1  0
  5 28  1  0
  7 29  1  0
 10 30  1  0
 18 31  1  0
 19 32  1  0
 19 33  1  0
 20 34  1  0
 20 35  1  0
 25 36  1  0
M  CHG  2  10  -1  23  -1
M  END
>  <UniqueID>  (92) 
92

>  <SMILES>  (92) 
C#Cc1ccc2cc(C([NH-])=O)n(C(=O)C(=O)N(C=C)CC(=O)[O-])c2c1

>  <Energy>  (92) 
78.1317093275096

>  <Genealogy>  (92) 
C#Cc1ccc2cc(C([NH-])=O)n(C(=O)C(=O)N(C=C)CC(=O)[O-])c2c1 (protonated)
C#Cc1ccc2cc(C([NH-])=O)n(C(=O)C(=O)N(C=C)CC(=O)[O-])c2c1 (3D coordinates assigned)
C#Cc1ccc2cc(C([NH-])=O)n(C(=O)C(=O)N(C=C)CC(=O)[O-])c2c1 (optimized conformer: 78.1317093275096 kcal/mol)

>  <smiles>  (92) 
C#Cc1ccc2cc(C(N)=O)n(C(=O)C(=O)N(C=C)CC(=O)O)c2c1

>  <score_type>  (92) 
oracle

>  <origin>  (92) 
adg

>  <m_score__min__energy>  (92) 
-7.1399999999999997

>  <m_primary>  (92) 
energy

$$$$
93:0
     RDKit          3D

 36 37  0  0  0  0  0  0  0  0999 V2000
  142.2300  160.2390  133.3070 N   0  0  0  0  0  0  0  0  0  0  0  0
  143.5720  160.6850  133.4890 C   0  0  0  0  0  0  0  0  0  0  0  0
  143.7910  161.9020  133.7240 O   0  0  0  0  0  0  0  0  0  0  0  0
  144.6820  159.7110  133.4450 C   0  0  0  0  0  0  0  0  0  0  0  0
  146.0150  160.0730  133.2640 C   0  0  0  0  0  0  0  0  0  0  0  0
  146.7100  158.8870  133.1920 C   0  0  0  0  0  0  0  0  0  0  0  0
  148.0700  158.6570  133.0160 C   0  0  0  0  0  0  0  0  0  0  0  0
  148.5160  157.3240  132.9990 C   0  0  0  0  0  0  0  0  0  0  0  0
  147.6050  156.2520  133.1830 C   0  0  0  0  0  0  0  0  0  0  0  0
  148.0900  154.8250  133.1250 C   0  0  0  0  0  0  0  0  0  0  0  0
  147.1100  153.9970  132.6050 F   0  0  0  0  0  0  0  0  0  0  0  0
  148.4080  154.4010  134.4010 F   0  0  0  0  0  0  0  0  0  0  0  0
  149.2140  154.7230  132.3220 F   0  0  0  0  0  0  0  0  0  0  0  0
  146.2260  156.5280  133.3350 C   0  0  0  0  0  0  0  0  0  0  0  0
  145.8080  157.8640  133.3300 C   0  0  0  0  0  0  0  0  0  0  0  0
  144.5580  158.3530  133.4870 N   0  0  0  0  0  0  0  0  0  0  0  0
  143.3660  157.5890  133.7300 C   0  0  0  0  0  0  0  0  0  0  0  0
  143.1830  157.0520  134.8570 O   0  0  0  0  0  0  0  0  0  0  0  0
  142.4030  157.4630  132.7230 O   0  0  0  0  0  0  0  0  0  0  0  0
  141.0410  157.1540  132.9940 C   0  0  0  0  0  0  0  0  0  0  0  0
  140.4540  158.2190  133.7110 O   0  0  0  0  0  0  0  0  0  0  0  0
  139.1100  158.4060  133.3150 C   0  0  0  0  0  0  0  0  0  0  0  0
  139.0500  158.9690  131.5860 P   0  0  1  0  0  0  0  0  0  0  0  0
  138.4530  157.8810  130.7240 O   0  0  0  0  0  0  0  0  0  0  0  0
  138.0870  160.3560  131.4840 O   0  0  0  0  0  0  0  0  0  0  0  0
  140.6100  159.3270  131.0370 O   0  0  0  0  0  0  0  0  0  0  0  0
  142.0150  159.4210  132.6930 H   0  0  0  0  0  0  0  0  0  0  0  0
  146.4253  161.0912  133.1935 H   0  0  0  0  0  0  0  0  0  0  0  0
  148.7751  159.4924  132.8939 H   0  0  0  0  0  0  0  0  0  0  0  0
  149.5833  157.1096  132.8412 H   0  0  0  0  0  0  0  0  0  0  0  0
  145.4987  155.7114  133.4544 H   0  0  0  0  0  0  0  0  0  0  0  0
  140.5019  157.0080  132.0463 H   0  0  0  0  0  0  0  0  0  0  0  0
  140.9845  156.2324  133.5918 H   0  0  0  0  0  0  0  0  0  0  0  0
  138.5660  157.4545  133.4084 H   0  0  0  0  0  0  0  0  0  0  0  0
  138.6432  159.1646  133.9605 H   0  0  0  0  0  0  0  0  0  0  0  0
  141.2070  159.0590  131.7810 H   0  0  0  0  0  0  0  0  0  0  0  0
  1  2  1  0
  2  3  2  0
  2  4  1  0
  4  5  2  0
  5  6  1  0
  6  7  2  0
  7  8  1  0
  8  9  2  0
  9 10  1  0
 10 11  1  0
 10 12  1  0
 10 13  1  0
  9 14  1  0
 14 15  2  0
 15 16  1  0
 16 17  1  0
 17 18  2  0
 17 19  1  0
 19 20  1  0
 20 21  1  0
 21 22  1  0
 22 23  1  0
 23 24  2  0
 23 25  1  1
 23 26  1  0
 16  4  1  0
 15  6  1  0
  1 27  1  0
  5 28  1  0
  7 29  1  0
  8 30  1  0
 14 31  1  0
 20 32  1  0
 20 33  1  0
 22 34  1  0
 22 35  1  0
 26 36  1  0
M  CHG  2   1  -1  25  -1
M  END
>  <UniqueID>  (93) 
93

>  <SMILES>  (93) 
[NH-]C(=O)c1cc2ccc(C(F)(F)F)cc2n1C(=O)OCOC[P@@](=O)([O-])O

>  <Energy>  (93) 
71.20381454611137

>  <Genealogy>  (93) 
[NH-]C(=O)c1cc2ccc(C(F)(F)F)cc2n1C(=O)OCOCP(=O)([O-])O (protonated)
[NH-]C(=O)c1cc2ccc(C(F)(F)F)cc2n1C(=O)OCOC[P@@](=O)([O-])O (chirality)
[NH-]C(=O)c1cc2ccc(C(F)(F)F)cc2n1C(=O)OCOC[P@@](=O)([O-])O (3D coordinates assigned)
[NH-]C(=O)c1cc2ccc(C(F)(F)F)cc2n1C(=O)OCOC[P@@](=O)([O-])O (optimized conformer: 71.20381454611137 kcal/mol)

>  <smiles>  (93) 
NC(=O)c1cc2ccc(C(F)(F)F)cc2n1C(=O)OCOCP(=O)(O)O

>  <score_type>  (93) 
oracle

>  <origin>  (93) 
adg

>  <m_score__min__energy>  (93) 
-5.1799999999999997

>  <m_primary>  (93) 
energy

$$$$
94:0
     RDKit          3D

 49 51  0  0  0  0  0  0  0  0999 V2000
  139.1980  150.5900  131.8880 C   0  0  0  0  0  0  0  0  0  0  0  0
  140.4350  150.1030  132.6470 C   0  0  1  0  0  0  0  0  0  0  0  0
  141.0660  148.9130  131.9790 C   0  0  0  0  0  0  0  0  0  0  0  0
  141.7420  148.0980  132.6600 O   0  0  0  0  0  0  0  0  0  0  0  0
  140.9590  148.7280  130.6050 O   0  0  0  0  0  0  0  0  0  0  0  0
  141.4440  151.2190  132.8200 C   0  0  0  0  0  0  0  0  0  0  0  0
  142.8390  150.9490  132.8290 C   0  0  0  0  0  0  0  0  0  0  0  0
  143.7710  151.9870  132.9920 C   0  0  0  0  0  0  0  0  0  0  0  0
  143.2860  153.2800  133.1520 C   0  0  0  0  0  0  0  0  0  0  0  0
  143.9650  154.4660  133.3140 C   0  0  0  0  0  0  0  0  0  0  0  0
  142.9790  155.4460  133.4080 C   0  0  0  0  0  0  0  0  0  0  0  0
  143.2710  156.8730  133.6610 C   0  0  0  0  0  0  0  0  0  0  0  0
  143.2800  157.8200  132.5960 N   0  0  0  0  0  0  0  0  0  0  0  0
  143.4790  157.2680  134.8390 O   0  0  0  0  0  0  0  0  0  0  0  0
  141.7390  154.8900  133.3060 N   0  0  0  0  0  0  0  0  0  0  0  0
  140.4760  155.5720  133.2430 C   0  0  0  0  0  0  0  0  0  0  0  0
  139.4480  155.0170  133.7200 O   0  0  0  0  0  0  0  0  0  0  0  0
  140.3780  156.8710  132.6360 N   0  0  0  0  0  0  0  0  0  0  0  0
  139.1070  157.5890  132.4910 C   0  0  1  0  0  0  0  0  0  0  0  0
  138.4940  157.9050  133.8690 C   0  0  0  0  0  0  0  0  0  0  0  0
  139.5520  158.2100  134.9030 C   0  0  0  0  0  0  0  0  0  0  0  0
  140.5380  159.1800  134.6480 C   0  0  0  0  0  0  0  0  0  0  0  0
  141.5230  159.4520  135.6030 C   0  0  0  0  0  0  0  0  0  0  0  0
  141.5270  158.7640  136.8180 C   0  0  0  0  0  0  0  0  0  0  0  0
  140.5430  157.8090  137.0860 C   0  0  0  0  0  0  0  0  0  0  0  0
  139.5560  157.5360  136.1360 C   0  0  0  0  0  0  0  0  0  0  0  0
  139.3330  158.8540  131.7180 C   0  0  0  0  0  0  0  0  0  0  0  0
  138.3600  159.5740  131.3740 O   0  0  0  0  0  0  0  0  0  0  0  0
  140.6230  159.2400  131.3810 O   0  0  0  0  0  0  0  0  0  0  0  0
  141.9450  153.5630  133.1510 C   0  0  0  0  0  0  0  0  0  0  0  0
  140.9960  152.5520  132.9630 C   0  0  0  0  0  0  0  0  0  0  0  0
  138.4233  150.8950  132.6068 H   0  0  0  0  0  0  0  0  0  0  0  0
  139.4700  151.4482  131.2559 H   0  0  0  0  0  0  0  0  0  0  0  0
  138.8119  149.7767  131.2559 H   0  0  0  0  0  0  0  0  0  0  0  0
  140.0992  149.7845  133.6449 H   0  0  0  0  0  0  0  0  0  0  0  0
  143.1932  149.9148  132.7068 H   0  0  0  0  0  0  0  0  0  0  0  0
  144.8519  151.7831  132.9931 H   0  0  0  0  0  0  0  0  0  0  0  0
  145.0546  154.6098  133.3596 H   0  0  0  0  0  0  0  0  0  0  0  0
  142.3910  158.2330  132.2380 H   0  0  0  0  0  0  0  0  0  0  0  0
  141.2330  157.2800  132.1940 H   0  0  0  0  0  0  0  0  0  0  0  0
  138.3984  156.9492  131.9445 H   0  0  0  0  0  0  0  0  0  0  0  0
  137.8312  158.7775  133.7711 H   0  0  0  0  0  0  0  0  0  0  0  0
  137.9372  157.0176  134.2045 H   0  0  0  0  0  0  0  0  0  0  0  0
  140.5345  159.7269  133.6936 H   0  0  0  0  0  0  0  0  0  0  0  0
  142.2948  160.2082  135.3968 H   0  0  0  0  0  0  0  0  0  0  0  0
  142.3062  158.9742  137.5655 H   0  0  0  0  0  0  0  0  0  0  0  0
  140.5455  157.2717  138.0458 H   0  0  0  0  0  0  0  0  0  0  0  0
  138.7780  156.7896  136.3542 H   0  0  0  0  0  0  0  0  0  0  0  0
  139.9226  152.7899  132.9272 H   0  0  0  0  0  0  0  0  0  0  0  0
  1  2  1  0
  2  3  1  0
  3  4  2  0
  3  5  1  0
  2  6  1  0
  6  7  2  0
  7  8  1  0
  8  9  2  0
  9 10  1  0
 10 11  2  0
 11 12  1  0
 12 13  1  0
 12 14  2  0
 11 15  1  0
 15 16  1  0
 16 17  2  0
 16 18  1  0
 18 19  1  0
 19 20  1  0
 20 21  1  0
 21 22  2  0
 22 23  1  0
 23 24  2  0
 24 25  1  0
 25 26  2  0
 19 27  1  0
 27 28  2  0
 27 29  1  0
 15 30  1  0
 30 31  2  0
 31  6  1  0
 30  9  1  0
 26 21  1  0
  1 32  1  0
  1 33  1  0
  1 34  1  0
  2 35  1  1
  7 36  1  0
  8 37  1  0
 10 38  1  0
 13 39  1  0
 18 40  1  0
 19 41  1  6
 20 42  1  0
 20 43  1  0
 22 44  1  0
 23 45  1  0
 24 46  1  0
 25 47  1  0
 26 48  1  0
 31 49  1  0
M  CHG  3   5  -1  13  -1  29  -1
M  END
>  <UniqueID>  (94) 
94

>  <SMILES>  (94) 
C[C@@H](C(=O)[O-])c1ccc2cc(C([NH-])=O)n(C(=O)N[C@@H](Cc3ccccc3)C(=O)[O-])c2c1

>  <Energy>  (94) 
83.39856078061007

>  <Genealogy>  (94) 
CC(C(=O)[O-])c1ccc2cc(C([NH-])=O)n(C(=O)N[C@@H](Cc3ccccc3)C(=O)[O-])c2c1 (protonated)
C[C@@H](C(=O)[O-])c1ccc2cc(C([NH-])=O)n(C(=O)N[C@@H](Cc3ccccc3)C(=O)[O-])c2c1 (chirality)
C[C@@H](C(=O)[O-])c1ccc2cc(C([NH-])=O)n(C(=O)N[C@@H](Cc3ccccc3)C(=O)[O-])c2c1 (3D coordinates assigned)
C[C@@H](C(=O)[O-])c1ccc2cc(C([NH-])=O)n(C(=O)N[C@@H](Cc3ccccc3)C(=O)[O-])c2c1 (optimized conformer: 83.39856078061007 kcal/mol)

>  <smiles>  (94) 
CC(C(=O)O)c1ccc2cc(C(N)=O)n(C(=O)N[C@@H](Cc3ccccc3)C(=O)O)c2c1

>  <score_type>  (94) 
oracle

>  <origin>  (94) 
adg

>  <m_score__min__energy>  (94) 
-9.1300000000000008

>  <m_primary>  (94) 
energy

$$$$
95:0
     RDKit          3D

 36 37  0  0  0  0  0  0  0  0999 V2000
  150.9720  151.1890  132.5960 C   0  0  0  0  0  0  0  0  0  0  0  0
  149.4900  151.3640  132.4400 C   0  0  0  0  0  0  0  0  0  0  0  0
  148.6810  150.2600  132.0790 C   0  0  0  0  0  0  0  0  0  0  0  0
  147.2860  150.3980  131.9790 C   0  0  0  0  0  0  0  0  0  0  0  0
  146.7340  151.6470  132.2490 C   0  0  0  0  0  0  0  0  0  0  0  0
  145.4170  152.0490  132.2620 C   0  0  0  0  0  0  0  0  0  0  0  0
  145.4450  153.3950  132.6260 C   0  0  0  0  0  0  0  0  0  0  0  0
  144.2460  154.2630  132.7030 C   0  0  0  0  0  0  0  0  0  0  0  0
  144.0280  155.2980  131.7410 N   0  0  0  0  0  0  0  0  0  0  0  0
  143.4150  154.1090  133.6360 O   0  0  0  0  0  0  0  0  0  0  0  0
  146.7280  153.8070  132.8240 N   0  0  0  0  0  0  0  0  0  0  0  0
  147.1750  155.1010  133.2600 C   0  0  0  0  0  0  0  0  0  0  0  0
  147.0890  155.4100  134.4790 O   0  0  0  0  0  0  0  0  0  0  0  0
  147.7030  156.0360  132.3050 N   0  0  0  0  0  0  0  0  0  0  0  0
  148.3050  157.2900  132.6560 C   0  0  0  0  0  0  0  0  0  0  0  0
  148.4400  157.6200  133.8670 O   0  0  0  0  0  0  0  0  0  0  0  0
  148.7650  158.1700  131.6200 N   0  0  0  0  0  0  0  0  0  0  0  0
  149.3770  159.4650  131.9030 C   0  0  0  0  0  0  0  0  0  0  0  0
  149.5680  160.2350  130.6360 C   0  0  0  0  0  0  0  0  0  0  0  0
  149.4570  159.6610  129.5220 O   0  0  0  0  0  0  0  0  0  0  0  0
  149.9020  161.5820  130.6870 O   0  0  0  0  0  0  0  0  0  0  0  0
  147.5040  152.7260  132.5950 C   0  0  0  0  0  0  0  0  0  0  0  0
  148.8940  152.6120  132.7230 C   0  0  0  0  0  0  0  0  0  0  0  0
  151.2271  151.1589  133.6656 H   0  0  0  0  0  0  0  0  0  0  0  0
  151.2824  150.2480  132.1184 H   0  0  0  0  0  0  0  0  0  0  0  0
  151.4930  152.0319  132.1184 H   0  0  0  0  0  0  0  0  0  0  0  0
  149.1484  149.2854  131.8749 H   0  0  0  0  0  0  0  0  0  0  0  0
  146.6504  149.5459  131.6963 H   0  0  0  0  0  0  0  0  0  0  0  0
  144.5311  151.4382  132.0338 H   0  0  0  0  0  0  0  0  0  0  0  0
  143.2000  155.9260  131.8300 H   0  0  0  0  0  0  0  0  0  0  0  0
  144.6580  155.4180  130.9180 H   0  0  0  0  0  0  0  0  0  0  0  0
  147.6340  155.7910  131.2920 H   0  0  0  0  0  0  0  0  0  0  0  0
  148.6770  157.8670  130.6240 H   0  0  0  0  0  0  0  0  0  0  0  0
  148.7236  160.0353  132.5796 H   0  0  0  0  0  0  0  0  0  0  0  0
  150.3572  159.3027  132.3750 H   0  0  0  0  0  0  0  0  0  0  0  0
  149.5048  153.4717  133.0356 H   0  0  0  0  0  0  0  0  0  0  0  0
  1  2  1  0
  2  3  2  0
  3  4  1  0
  4  5  2  0
  5  6  1  0
  6  7  2  0
  7  8  1  0
  8  9  1  0
  8 10  2  0
  7 11  1  0
 11 12  1  0
 12 13  2  0
 12 14  1  0
 14 15  1  0
 15 16  2  0
 15 17  1  0
 17 18  1  0
 18 19  1  0
 19 20  2  0
 19 21  1  0
 11 22  1  0
 22 23  2  0
 23  2  1  0
 22  5  1  0
  1 24  1  0
  1 25  1  0
  1 26  1  0
  3 27  1  0
  4 28  1  0
  6 29  1  0
  9 30  1  0
  9 31  1  0
 14 32  1  0
 17 33  1  0
 18 34  1  0
 18 35  1  0
 23 36  1  0
M  CHG  1  21  -1
M  END
>  <UniqueID>  (95) 
95

>  <SMILES>  (95) 
Cc1ccc2cc(C(N)=O)n(C(=O)NC(=O)NCC(=O)[O-])c2c1

>  <Energy>  (95) 
71.0730440600139

>  <Genealogy>  (95) 
Cc1ccc2cc(C(N)=O)n(C(=O)NC(=O)NCC(=O)[O-])c2c1 (protonated)
Cc1ccc2cc(C(N)=O)n(C(=O)NC(=O)NCC(=O)[O-])c2c1 (3D coordinates assigned)
Cc1ccc2cc(C(N)=O)n(C(=O)NC(=O)NCC(=O)[O-])c2c1 (optimized conformer: 71.0730440600139 kcal/mol)

>  <smiles>  (95) 
Cc1ccc2cc(C(N)=O)n(C(=O)NC(=O)NCC(=O)O)c2c1

>  <score_type>  (95) 
oracle

>  <origin>  (95) 
adg

>  <m_score__min__energy>  (95) 
-7.9400000000000004

>  <m_primary>  (95) 
energy

$$$$
96:0
     RDKit          3D

 35 36  0  0  0  0  0  0  0  0999 V2000
  149.3110  160.3220  129.6070 C   0  0  0  0  0  0  0  0  0  0  0  0
  149.6130  160.6460  130.8610 C   0  0  0  0  0  0  0  0  0  0  0  0
  149.7750  159.6330  131.8630 N   0  0  0  0  0  0  0  0  0  0  0  0
  148.6940  158.8160  132.3450 C   0  0  0  0  0  0  0  0  0  0  0  0
  147.4320  159.3750  132.6780 C   0  0  0  0  0  0  0  0  0  0  0  0
  146.3790  158.5570  133.1230 C   0  0  0  0  0  0  0  0  0  0  0  0
  146.6140  157.1910  133.2280 C   0  0  0  0  0  0  0  0  0  0  0  0
  145.7620  156.1740  133.5970 C   0  0  0  0  0  0  0  0  0  0  0  0
  146.5190  155.0100  133.5040 C   0  0  0  0  0  0  0  0  0  0  0  0
  146.0060  153.6760  133.8750 C   0  0  0  0  0  0  0  0  0  0  0  0
  146.1280  152.5640  132.9870 N   0  0  0  0  0  0  0  0  0  0  0  0
  145.5010  153.5030  135.0160 O   0  0  0  0  0  0  0  0  0  0  0  0
  147.7850  155.2890  133.0800 N   0  0  0  0  0  0  0  0  0  0  0  0
  148.8260  154.3530  132.7580 C   0  0  0  0  0  0  0  0  0  0  0  0
  149.9030  154.7650  132.2450 O   0  0  0  0  0  0  0  0  0  0  0  0
  148.6350  152.9890  133.0170 O   0  0  0  0  0  0  0  0  0  0  0  0
  149.4130  151.9510  132.4870 C   0  0  0  0  0  0  0  0  0  0  0  0
  150.6680  151.9470  132.6030 O   0  0  0  0  0  0  0  0  0  0  0  0
  148.7310  150.8080  131.8150 C   0  0  0  0  0  0  0  0  0  0  0  0
  147.4790  150.6030  132.4100 O   0  0  0  0  0  0  0  0  0  0  0  0
  147.8270  156.6310  132.9180 C   0  0  0  0  0  0  0  0  0  0  0  0
  148.8840  157.4200  132.4480 C   0  0  0  0  0  0  0  0  0  0  0  0
  149.1899  161.1101  128.8492 H   0  0  0  0  0  0  0  0  0  0  0  0
  149.1823  159.2659  129.3275 H   0  0  0  0  0  0  0  0  0  0  0  0
  149.7401  161.7042  131.1330 H   0  0  0  0  0  0  0  0  0  0  0  0
  150.7080  159.5380  132.3260 H   0  0  0  0  0  0  0  0  0  0  0  0
  147.2766  160.4601  132.5867 H   0  0  0  0  0  0  0  0  0  0  0  0
  145.3988  158.9849  133.3803 H   0  0  0  0  0  0  0  0  0  0  0  0
  144.7084  156.2627  133.9004 H   0  0  0  0  0  0  0  0  0  0  0  0
  145.7240  151.6370  133.2500 H   0  0  0  0  0  0  0  0  0  0  0  0
  146.6880  152.6330  132.1090 H   0  0  0  0  0  0  0  0  0  0  0  0
  148.5978  151.0356  130.7471 H   0  0  0  0  0  0  0  0  0  0  0  0
  149.3427  149.8998  131.9199 H   0  0  0  0  0  0  0  0  0  0  0  0
  147.4840  151.1350  133.2490 H   0  0  0  0  0  0  0  0  0  0  0  0
  149.8431  156.9619  132.1647 H   0  0  0  0  0  0  0  0  0  0  0  0
  1  2  2  0
  2  3  1  0
  3  4  1  0
  4  5  2  0
  5  6  1  0
  6  7  2  0
  7  8  1  0
  8  9  2  0
  9 10  1  0
 10 11  1  0
 10 12  2  0
  9 13  1  0
 13 14  1  0
 14 15  2  0
 14 16  1  0
 16 17  1  0
 17 18  2  0
 17 19  1  0
 19 20  1  0
 13 21  1  0
 21 22  2  0
 22  4  1  0
 21  7  1  0
  1 23  1  0
  1 24  1  0
  2 25  1  0
  3 26  1  0
  5 27  1  0
  6 28  1  0
  8 29  1  0
 11 30  1  0
 11 31  1  0
 19 32  1  0
 19 33  1  0
 20 34  1  0
 22 35  1  0
M  END
>  <UniqueID>  (96) 
96

>  <SMILES>  (96) 
C=CNc1ccc2cc(C(N)=O)n(C(=O)OC(=O)CO)c2c1

>  <Energy>  (96) 
73.73213079063727

>  <Genealogy>  (96) 
C=CNc1ccc2cc(C(N)=O)n(C(=O)OC(=O)CO)c2c1 (3D coordinates assigned)
C=CNc1ccc2cc(C(N)=O)n(C(=O)OC(=O)CO)c2c1 (optimized conformer: 73.73213079063727 kcal/mol)

>  <smiles>  (96) 
C=CNc1ccc2cc(C(N)=O)n(C(=O)OC(=O)CO)c2c1

>  <score_type>  (96) 
oracle

>  <origin>  (96) 
adg

>  <m_score__min__energy>  (96) 
-6.9400000000000004

>  <m_primary>  (96) 
energy

$$$$
97:0
     RDKit          3D

 43 45  0  0  0  0  0  0  0  0999 V2000
  140.6050  159.7420  133.4830 N   0  0  0  0  0  0  0  0  0  0  0  0
  141.7990  160.5110  133.6090 C   0  0  0  0  0  0  0  0  0  0  0  0
  141.7200  161.7620  133.7250 O   0  0  0  0  0  0  0  0  0  0  0  0
  143.1110  159.8330  133.6310 C   0  0  0  0  0  0  0  0  0  0  0  0
  144.3340  160.4970  133.5430 C   0  0  0  0  0  0  0  0  0  0  0  0
  145.2890  159.5030  133.5650 C   0  0  0  0  0  0  0  0  0  0  0  0
  146.6770  159.5930  133.5060 C   0  0  0  0  0  0  0  0  0  0  0  0
  147.4150  158.3960  133.5470 C   0  0  0  0  0  0  0  0  0  0  0  0
  146.7610  157.1460  133.6880 C   0  0  0  0  0  0  0  0  0  0  0  0
  147.5690  155.8730  133.6470 C   0  0  0  0  0  0  0  0  0  0  0  0
  147.9080  155.4790  134.9310 F   0  0  0  0  0  0  0  0  0  0  0  0
  146.8530  154.8460  133.0510 F   0  0  0  0  0  0  0  0  0  0  0  0
  148.7280  156.0990  132.9220 F   0  0  0  0  0  0  0  0  0  0  0  0
  145.3490  157.1000  133.7570 C   0  0  0  0  0  0  0  0  0  0  0  0
  144.6410  158.3010  133.6680 C   0  0  0  0  0  0  0  0  0  0  0  0
  143.3050  158.4860  133.6920 N   0  0  0  0  0  0  0  0  0  0  0  0
  142.3080  157.4680  133.8690 C   0  0  0  0  0  0  0  0  0  0  0  0
  141.4860  157.2600  132.9330 O   0  0  0  0  0  0  0  0  0  0  0  0
  142.2240  156.6980  135.0930 N   0  0  0  0  0  0  0  0  0  0  0  0
  142.7470  155.3160  135.0780 C   0  0  0  0  0  0  0  0  0  0  0  0
  143.9450  155.1700  136.0330 C   0  0  0  0  0  0  0  0  0  0  0  0
  144.8390  154.0520  135.5840 C   0  0  0  0  0  0  0  0  0  0  0  0
  144.5480  153.3890  134.5500 O   0  0  0  0  0  0  0  0  0  0  0  0
  145.9580  153.7070  136.3350 O   0  0  0  0  0  0  0  0  0  0  0  0
  141.4940  157.2600  136.2550 C   0  0  0  0  0  0  0  0  0  0  0  0
  140.0310  157.6010  136.0180 C   0  0  0  0  0  0  0  0  0  0  0  0
  140.2580  159.0370  136.1950 N   0  0  0  0  0  0  0  0  0  0  0  0
  141.6750  158.7600  136.4240 C   0  0  0  0  0  0  0  0  0  0  0  0
  140.4750  158.8610  134.0270 H   0  0  0  0  0  0  0  0  0  0  0  0
  144.5010  161.5819  133.4713 H   0  0  0  0  0  0  0  0  0  0  0  0
  147.1802  160.5682  133.4298 H   0  0  0  0  0  0  0  0  0  0  0  0
  148.5117  158.4303  133.4688 H   0  0  0  0  0  0  0  0  0  0  0  0
  144.8215  156.1423  133.8778 H   0  0  0  0  0  0  0  0  0  0  0  0
  141.9500  154.6262  135.3925 H   0  0  0  0  0  0  0  0  0  0  0  0
  143.0812  155.0785  134.0573 H   0  0  0  0  0  0  0  0  0  0  0  0
  144.5170  156.1096  136.0431 H   0  0  0  0  0  0  0  0  0  0  0  0
  143.5709  154.9441  137.0425 H   0  0  0  0  0  0  0  0  0  0  0  0
  141.8088  156.5131  136.9987 H   0  0  0  0  0  0  0  0  0  0  0  0
  139.6776  157.3350  135.0108 H   0  0  0  0  0  0  0  0  0  0  0  0
  139.2651  157.1058  136.6330 H   0  0  0  0  0  0  0  0  0  0  0  0
  139.8260  159.3340  137.1040 H   0  0  0  0  0  0  0  0  0  0  0  0
  142.3355  159.2082  135.6671 H   0  0  0  0  0  0  0  0  0  0  0  0
  142.1451  159.1354  137.3449 H   0  0  0  0  0  0  0  0  0  0  0  0
  1  2  1  0
  2  3  2  0
  2  4  1  0
  4  5  2  0
  5  6  1  0
  6  7  2  0
  7  8  1  0
  8  9  2  0
  9 10  1  0
 10 11  1  0
 10 12  1  0
 10 13  1  0
  9 14  1  0
 14 15  2  0
 15 16  1  0
 16 17  1  0
 17 18  2  0
 17 19  1  0
 19 20  1  0
 20 21  1  0
 21 22  1  0
 22 23  2  0
 22 24  1  0
 19 25  1  0
 25 26  1  0
 26 27  1  0
 27 28  1  0
 16  4  1  0
 28 25  1  0
 15  6  1  0
  1 29  1  0
  5 30  1  0
  7 31  1  0
  8 32  1  0
 14 33  1  0
 20 34  1  0
 20 35  1  0
 21 36  1  0
 21 37  1  0
 25 38  1  0
 26 39  1  0
 26 40  1  0
 27 41  1  0
 28 42  1  0
 28 43  1  0
M  CHG  2   1  -1  24  -1
M  END
>  <UniqueID>  (97) 
97

>  <SMILES>  (97) 
[NH-]C(=O)c1cc2ccc(C(F)(F)F)cc2n1C(=O)N(CCC(=O)[O-])C1CNC1

>  <Energy>  (97) 
151.07688371459506

>  <Genealogy>  (97) 
[NH-]C(=O)c1cc2ccc(C(F)(F)F)cc2n1C(=O)N(CCC(=O)[O-])C1CNC1 (protonated)
[NH-]C(=O)c1cc2ccc(C(F)(F)F)cc2n1C(=O)N(CCC(=O)[O-])C1CNC1 (3D coordinates assigned)
[NH-]C(=O)c1cc2ccc(C(F)(F)F)cc2n1C(=O)N(CCC(=O)[O-])C1CNC1 (nonaromatic ring conformer: 151.07688371459506 kcal/mol)

>  <smiles>  (97) 
NC(=O)c1cc2ccc(C(F)(F)F)cc2n1C(=O)N(CCC(=O)O)C1CNC1

>  <score_type>  (97) 
oracle

>  <origin>  (97) 
adg

>  <m_score__min__energy>  (97) 
-6.9100000000000001

>  <m_primary>  (97) 
energy

$$$$
98:0
     RDKit          3D

 48 49  0  0  0  0  0  0  0  0999 V2000
  138.5490  158.1780  132.8320 C   0  0  0  0  0  0  0  0  0  0  0  0
  139.3060  157.0540  133.3950 N   0  0  0  0  0  0  0  0  0  0  0  0
  139.4820  155.8230  132.6180 C   0  0  0  0  0  0  0  0  0  0  0  0
  139.8710  157.1350  134.7210 C   0  0  0  0  0  0  0  0  0  0  0  0
  140.4390  156.1230  135.2200 O   0  0  0  0  0  0  0  0  0  0  0  0
  139.8320  158.4160  135.5130 C   0  0  0  0  0  0  0  0  0  0  0  0
  141.0510  158.5950  136.2170 O   0  0  0  0  0  0  0  0  0  0  0  0
  141.7820  159.7190  135.7540 C   0  0  0  0  0  0  0  0  0  0  0  0
  141.6970  159.8220  134.2290 C   0  0  0  0  0  0  0  0  0  0  0  0
  142.7040  159.0290  133.6060 O   0  0  0  0  0  0  0  0  0  0  0  0
  144.0480  159.4080  133.5290 C   0  0  0  0  0  0  0  0  0  0  0  0
  144.3610  160.6270  133.4430 O   0  0  0  0  0  0  0  0  0  0  0  0
  145.0670  158.3970  133.4930 N   0  0  0  0  0  0  0  0  0  0  0  0
  144.9180  157.0670  133.7520 C   0  0  0  0  0  0  0  0  0  0  0  0
  143.7090  156.4370  134.3240 C   0  0  0  0  0  0  0  0  0  0  0  0
  142.8740  157.1550  135.2350 N   0  0  0  0  0  0  0  0  0  0  0  0
  143.3900  155.2650  133.9910 O   0  0  0  0  0  0  0  0  0  0  0  0
  146.0880  156.3750  133.4470 C   0  0  0  0  0  0  0  0  0  0  0  0
  146.9620  157.3280  132.9770 C   0  0  0  0  0  0  0  0  0  0  0  0
  148.2500  157.1840  132.4690 C   0  0  0  0  0  0  0  0  0  0  0  0
  148.8980  158.3310  131.9830 C   0  0  0  0  0  0  0  0  0  0  0  0
  148.2520  159.5920  132.0150 C   0  0  0  0  0  0  0  0  0  0  0  0
  148.9290  160.8010  131.4340 C   0  0  0  0  0  0  0  0  0  0  0  0
  149.8560  160.3910  130.3340 C   0  0  0  0  0  0  0  0  0  0  0  0
  150.8880  159.7190  130.5930 O   0  0  0  0  0  0  0  0  0  0  0  0
  149.6030  160.7890  129.0280 O   0  0  0  0  0  0  0  0  0  0  0  0
  146.9410  159.6980  132.5290 C   0  0  0  0  0  0  0  0  0  0  0  0
  146.3240  158.5410  133.0190 C   0  0  0  0  0  0  0  0  0  0  0  0
  138.1376  158.7889  133.6491 H   0  0  0  0  0  0  0  0  0  0  0  0
  139.2159  158.7956  132.2125 H   0  0  0  0  0  0  0  0  0  0  0  0
  137.7260  157.7921  132.2125 H   0  0  0  0  0  0  0  0  0  0  0  0
  139.6038  154.9711  133.3032 H   0  0  0  0  0  0  0  0  0  0  0  0
  138.5980  155.6601  131.9839 H   0  0  0  0  0  0  0  0  0  0  0  0
  140.3762  155.9143  131.9839 H   0  0  0  0  0  0  0  0  0  0  0  0
  139.6810  159.2626  134.8271 H   0  0  0  0  0  0  0  0  0  0  0  0
  139.0044  158.3656  136.2359 H   0  0  0  0  0  0  0  0  0  0  0  0
  141.3642  160.6324  136.2025 H   0  0  0  0  0  0  0  0  0  0  0  0
  142.8364  159.6022  136.0447 H   0  0  0  0  0  0  0  0  0  0  0  0
  140.7079  159.4711  133.8995 H   0  0  0  0  0  0  0  0  0  0  0  0
  141.8497  160.8723  133.9399 H   0  0  0  0  0  0  0  0  0  0  0  0
  142.0040  156.7120  135.6070 H   0  0  0  0  0  0  0  0  0  0  0  0
  143.1360  158.1040  135.5790 H   0  0  0  0  0  0  0  0  0  0  0  0
  146.2735  155.2965  133.5582 H   0  0  0  0  0  0  0  0  0  0  0  0
  148.7450  156.2019  132.4489 H   0  0  0  0  0  0  0  0  0  0  0  0
  149.9159  158.2501  131.5739 H   0  0  0  0  0  0  0  0  0  0  0  0
  148.1681  161.4864  131.0323 H   0  0  0  0  0  0  0  0  0  0  0  0
  149.5066  161.3047  132.2231 H   0  0  0  0  0  0  0  0  0  0  0  0
  146.4178  160.6655  132.5440 H   0  0  0  0  0  0  0  0  0  0  0  0
  1  2  1  0
  2  3  1  0
  2  4  1  0
  4  5  2  0
  4  6  1  0
  6  7  1  0
  7  8  1  0
  8  9  1  0
  9 10  1  0
 10 11  1  0
 11 12  2  0
 11 13  1  0
 13 14  1  0
 14 15  1  0
 15 16  1  0
 15 17  2  0
 14 18  2  0
 18 19  1  0
 19 20  2  0
 20 21  1  0
 21 22  2  0
 22 23  1  0
 23 24  1  0
 24 25  2  0
 24 26  1  0
 22 27  1  0
 27 28  2  0
 28 13  1  0
 28 19  1  0
  1 29  1  0
  1 30  1  0
  1 31  1  0
  3 32  1  0
  3 33  1  0
  3 34  1  0
  6 35  1  0
  6 36  1  0
  8 37  1  0
  8 38  1  0
  9 39  1  0
  9 40  1  0
 16 41  1  0
 16 42  1  0
 18 43  1  0
 20 44  1  0
 21 45  1  0
 23 46  1  0
 23 47  1  0
 27 48  1  0
M  CHG  1  26  -1
M  END
>  <UniqueID>  (98) 
98

>  <SMILES>  (98) 
CN(C)C(=O)COCCOC(=O)n1c(C(N)=O)cc2ccc(CC(=O)[O-])cc21

>  <Energy>  (98) 
76.98314787263959

>  <Genealogy>  (98) 
CN(C)C(=O)COCCOC(=O)n1c(C(N)=O)cc2ccc(CC(=O)[O-])cc21 (protonated)
CN(C)C(=O)COCCOC(=O)n1c(C(N)=O)cc2ccc(CC(=O)[O-])cc21 (3D coordinates assigned)
CN(C)C(=O)COCCOC(=O)n1c(C(N)=O)cc2ccc(CC(=O)[O-])cc21 (optimized conformer: 76.98314787263959 kcal/mol)

>  <smiles>  (98) 
CN(C)C(=O)COCCOC(=O)n1c(C(N)=O)cc2ccc(CC(=O)O)cc21

>  <score_type>  (98) 
oracle

>  <origin>  (98) 
adg

>  <m_score__min__energy>  (98) 
-7.3899999999999997

>  <m_primary>  (98) 
energy

$$$$
