0:0
     RDKit          3D

 24 25  0  0  0  0  0  0  0  0999 V2000
  141.5150  160.9650  133.6780 N   0  0  0  0  0  0  0  0  0  0  0  0
  142.3260  160.1080  134.4770 C   0  0  0  0  0  0  0  0  0  0  0  0
  141.8410  159.6040  135.5250 O   0  0  0  0  0  0  0  0  0  0  0  0
  143.7000  159.7580  134.0630 C   0  0  0  0  0  0  0  0  0  0  0  0
  144.1110  158.4520  133.8030 C   0  0  0  0  0  0  0  0  0  0  0  0
  145.4100  158.5600  133.3630 C   0  0  0  0  0  0  0  0  0  0  0  0
  146.3090  157.5690  132.9810 C   0  0  0  0  0  0  0  0  0  0  0  0
  147.6040  157.9650  132.6030 C   0  0  0  0  0  0  0  0  0  0  0  0
  147.9710  159.3330  132.6120 C   0  0  0  0  0  0  0  0  0  0  0  0
  149.3710  159.7380  132.2540 C   0  0  0  0  0  0  0  0  0  0  0  0
  149.4560  160.2060  130.3770 Br  0  0  0  0  0  0  0  0  0  0  0  0
  147.0350  160.3100  133.0190 C   0  0  0  0  0  0  0  0  0  0  0  0
  145.7480  159.8890  133.3730 C   0  0  0  0  0  0  0  0  0  0  0  0
  144.7090  160.6380  133.8040 N   0  0  0  0  0  0  0  0  0  0  0  0
  144.7170  162.0560  134.0370 C   0  0  0  0  0  0  0  0  0  0  0  0
  145.5300  162.5610  134.8550 O   0  0  0  0  0  0  0  0  0  0  0  0
  143.8080  162.8800  133.3860 O   0  0  0  0  0  0  0  0  0  0  0  0
  141.8780  161.8810  133.3340 H   0  0  0  0  0  0  0  0  0  0  0  0
  143.5221  157.5308  133.9238 H   0  0  0  0  0  0  0  0  0  0  0  0
  146.0157  156.5089  132.9750 H   0  0  0  0  0  0  0  0  0  0  0  0
  148.3388  157.2056  132.2975 H   0  0  0  0  0  0  0  0  0  0  0  0
  149.6669  160.6064  132.8610 H   0  0  0  0  0  0  0  0  0  0  0  0
  150.0544  158.8990  132.4513 H   0  0  0  0  0  0  0  0  0  0  0  0
  147.3107  161.3742  133.0567 H   0  0  0  0  0  0  0  0  0  0  0  0
  1  2  1  0
  2  3  2  0
  2  4  1  0
  4  5  2  0
  5  6  1  0
  6  7  2  0
  7  8  1  0
  8  9  2  0
  9 10  1  0
 10 11  1  0
  9 12  1  0
 12 13  2  0
 13 14  1  0
 14 15  1  0
 15 16  2  0
 15 17  1  0
 14  4  1  0
 13  6  1  0
  1 18  1  0
  5 19  1  0
  7 20  1  0
  8 21  1  0
 10 22  1  0
 10 23  1  0
 12 24  1  0
M  CHG  2   1  -1  17  -1
M  END
>  <UniqueID>  (1) 
1

>  <SMILES>  (1) 
[NH-]C(=O)c1cc2ccc(CBr)cc2n1C(=O)[O-]

>  <Energy>  (1) 
63.40746806292215

>  <Genealogy>  (1) 
[NH-]C(=O)c1cc2ccc(CBr)cc2n1C(=O)[O-] (protonated)
[NH-]C(=O)c1cc2ccc(CBr)cc2n1C(=O)[O-] (3D coordinates assigned)
[NH-]C(=O)c1cc2ccc(CBr)cc2n1C(=O)[O-] (optimized conformer: 63.40746806292215 kcal/mol)

>  <smiles>  (1) 
NC(=O)c1cc2ccc(CBr)cc2n1C(=O)O

>  <score_type>  (1) 
oracle

>  <origin>  (1) 
adg

>  <m_score__min__energy>  (1) 
-6.6900000000000004

>  <m_primary>  (1) 
energy

$$$$
1:0
     RDKit          3D

 44 45  0  0  0  0  0  0  0  0999 V2000
  138.7350  158.4060  130.7360 C   0  0  0  0  0  0  0  0  0  0  0  0
  138.4910  159.8570  130.7040 N   0  0  0  0  0  0  0  0  0  0  0  0
  137.0370  160.1070  130.7210 C   0  0  0  0  0  0  0  0  0  0  0  0
  139.1610  160.5050  131.8530 C   0  0  0  0  0  0  0  0  0  0  0  0
  140.4210  159.7360  132.2820 C   0  0  0  0  0  0  0  0  0  0  0  0
  140.1520  158.8620  133.4200 N   0  0  0  0  0  0  0  0  0  0  0  0
  140.8470  157.6480  133.7400 C   0  0  0  0  0  0  0  0  0  0  0  0
  140.4700  156.5800  133.1880 O   0  0  0  0  0  0  0  0  0  0  0  0
  141.9420  157.5940  134.7760 C   0  0  0  0  0  0  0  0  0  0  0  0
  143.1520  158.3700  134.3280 C   0  0  0  0  0  0  0  0  0  0  0  0
  143.1040  159.7860  134.2610 C   0  0  0  0  0  0  0  0  0  0  0  0
  144.2170  160.5200  133.8170 C   0  0  0  0  0  0  0  0  0  0  0  0
  145.3560  159.8130  133.4390 C   0  0  0  0  0  0  0  0  0  0  0  0
  146.5710  160.2660  132.9760 C   0  0  0  0  0  0  0  0  0  0  0  0
  147.3320  159.1190  132.7480 C   0  0  0  0  0  0  0  0  0  0  0  0
  148.6980  159.1370  132.1880 C   0  0  0  0  0  0  0  0  0  0  0  0
  149.3800  157.9240  131.8770 N   0  0  0  0  0  0  0  0  0  0  0  0
  149.2640  160.2380  131.9560 O   0  0  0  0  0  0  0  0  0  0  0  0
  146.6140  158.0060  133.0680 N   0  0  0  0  0  0  0  0  0  0  0  0
  147.0340  156.6360  133.0200 C   0  0  0  0  0  0  0  0  0  0  0  0
  147.0370  156.0250  131.9170 O   0  0  0  0  0  0  0  0  0  0  0  0
  147.3670  155.8880  134.2750 C   0  0  0  0  0  0  0  0  0  0  0  0
  146.1960  155.5210  134.9100 F   0  0  0  0  0  0  0  0  0  0  0  0
  148.1130  156.6780  135.1320 F   0  0  0  0  0  0  0  0  0  0  0  0
  148.0910  154.7520  133.9650 F   0  0  0  0  0  0  0  0  0  0  0  0
  145.4090  158.4460  133.4820 C   0  0  0  0  0  0  0  0  0  0  0  0
  144.3210  157.6870  133.9250 C   0  0  0  0  0  0  0  0  0  0  0  0
  138.7921  158.0667  131.7808 H   0  0  0  0  0  0  0  0  0  0  0  0
  137.9120  157.8844  130.2255 H   0  0  0  0  0  0  0  0  0  0  0  0
  139.6834  158.1823  130.2255 H   0  0  0  0  0  0  0  0  0  0  0  0
  136.6874  160.1671  131.7622 H   0  0  0  0  0  0  0  0  0  0  0  0
  136.8220  161.0553  130.2067 H   0  0  0  0  0  0  0  0  0  0  0  0
  136.5176  159.2850  130.2067 H   0  0  0  0  0  0  0  0  0  0  0  0
  139.4472  161.5283  131.5684 H   0  0  0  0  0  0  0  0  0  0  0  0
  138.4589  160.5139  132.6998 H   0  0  0  0  0  0  0  0  0  0  0  0
  140.7721  159.1252  131.4372 H   0  0  0  0  0  0  0  0  0  0  0  0
  141.1867  160.4669  132.5812 H   0  0  0  0  0  0  0  0  0  0  0  0
  141.5678  158.0239  135.7168 H   0  0  0  0  0  0  0  0  0  0  0  0
  142.2347  156.5435  134.9200 H   0  0  0  0  0  0  0  0  0  0  0  0
  142.1867  160.3147  134.5595 H   0  0  0  0  0  0  0  0  0  0  0  0
  144.1896  161.6186  133.7695 H   0  0  0  0  0  0  0  0  0  0  0  0
  146.8769  161.3109  132.8191 H   0  0  0  0  0  0  0  0  0  0  0  0
  148.8710  157.1130  131.4640 H   0  0  0  0  0  0  0  0  0  0  0  0
  144.3741  156.5888  133.9587 H   0  0  0  0  0  0  0  0  0  0  0  0
  1  2  1  0
  2  3  1  0
  2  4  1  0
  4  5  1  0
  5  6  1  0
  6  7  1  0
  7  8  2  0
  7  9  1  0
  9 10  1  0
 10 11  2  0
 11 12  1  0
 12 13  2  0
 13 14  1  0
 14 15  2  0
 15 16  1  0
 16 17  1  0
 16 18  2  0
 15 19  1  0
 19 20  1  0
 20 21  2  0
 20 22  1  0
 22 23  1  0
 22 24  1  0
 22 25  1  0
 19 26  1  0
 26 27  2  0
 27 10  1  0
 26 13  1  0
  1 28  1  0
  1 29  1  0
  1 30  1  0
  3 31  1  0
  3 32  1  0
  3 33  1  0
  4 34  1  0
  4 35  1  0
  5 36  1  0
  5 37  1  0
  9 38  1  0
  9 39  1  0
 11 40  1  0
 12 41  1  0
 14 42  1  0
 17 43  1  0
 27 44  1  0
M  CHG  2   6  -1  17  -1
M  END
>  <UniqueID>  (2) 
2

>  <SMILES>  (2) 
CN(C)CC[N-]C(=O)Cc1ccc2cc(C([NH-])=O)n(C(=O)C(F)(F)F)c2c1

>  <Energy>  (2) 
82.08270280568193

>  <Genealogy>  (2) 
CN(C)CC[N-]C(=O)Cc1ccc2cc(C([NH-])=O)n(C(=O)C(F)(F)F)c2c1 (protonated)
CN(C)CC[N-]C(=O)Cc1ccc2cc(C([NH-])=O)n(C(=O)C(F)(F)F)c2c1 (3D coordinates assigned)
CN(C)CC[N-]C(=O)Cc1ccc2cc(C([NH-])=O)n(C(=O)C(F)(F)F)c2c1 (optimized conformer: 82.08270280568193 kcal/mol)

>  <smiles>  (2) 
CN(C)CCNC(=O)Cc1ccc2cc(C(N)=O)n(C(=O)C(F)(F)F)c2c1

>  <score_type>  (2) 
oracle

>  <origin>  (2) 
adg

>  <m_score__min__energy>  (2) 
-6.8700000000000001

>  <m_primary>  (2) 
energy

$$$$
2:0
     RDKit          3D

 35 37  0  0  0  0  0  0  0  0999 V2000
  146.1900  163.1190  135.0210 N   0  0  0  0  0  0  0  0  0  0  0  0
  145.3410  162.5880  134.4400 C   0  0  0  0  0  0  0  0  0  0  0  0
  144.2660  161.9160  133.7030 C   0  0  0  0  0  0  0  0  0  0  0  0
  144.4660  160.4280  133.7490 C   0  0  0  0  0  0  0  0  0  0  0  0
  143.3460  159.5570  133.7470 C   0  0  0  0  0  0  0  0  0  0  0  0
  143.5240  158.1630  133.7410 C   0  0  0  0  0  0  0  0  0  0  0  0
  144.8260  157.6710  133.7310 C   0  0  0  0  0  0  0  0  0  0  0  0
  145.2890  156.3740  133.6710 C   0  0  0  0  0  0  0  0  0  0  0  0
  146.6790  156.4800  133.6320 C   0  0  0  0  0  0  0  0  0  0  0  0
  147.5940  155.3200  133.5740 C   0  0  0  0  0  0  0  0  0  0  0  0
  148.2820  154.9900  132.3710 N   0  0  0  0  0  0  0  0  0  0  0  0
  147.7870  154.6240  134.6060 O   0  0  0  0  0  0  0  0  0  0  0  0
  147.0560  157.7870  133.6720 N   0  0  0  0  0  0  0  0  0  0  0  0
  148.3720  158.3290  133.5180 C   0  0  0  0  0  0  0  0  0  0  0  0
  148.8650  159.0400  134.4340 O   0  0  0  0  0  0  0  0  0  0  0  0
  149.1130  158.1470  132.2280 C   0  0  0  0  0  0  0  0  0  0  0  0
  149.1910  159.4530  131.5040 C   0  0  0  0  0  0  0  0  0  0  0  0
  148.3330  160.5320  131.6800 C   0  0  0  0  0  0  0  0  0  0  0  0
  148.5680  161.5730  130.7740 C   0  0  0  0  0  0  0  0  0  0  0  0
  149.5980  161.3130  129.8800 C   0  0  0  0  0  0  0  0  0  0  0  0
  150.2130  159.7830  130.2110 S   0  0  0  0  0  0  0  0  0  0  0  0
  145.9140  158.5020  133.7330 C   0  0  0  0  0  0  0  0  0  0  0  0
  145.7720  159.8920  133.7340 C   0  0  0  0  0  0  0  0  0  0  0  0
  143.2978  162.1680  134.1602 H   0  0  0  0  0  0  0  0  0  0  0  0
  144.2815  162.2509  132.6553 H   0  0  0  0  0  0  0  0  0  0  0  0
  142.3292  159.9766  133.7502 H   0  0  0  0  0  0  0  0  0  0  0  0
  142.6606  157.4814  133.7441 H   0  0  0  0  0  0  0  0  0  0  0  0
  144.6897  155.4517  133.6569 H   0  0  0  0  0  0  0  0  0  0  0  0
  147.7580  154.8000  131.4870 H   0  0  0  0  0  0  0  0  0  0  0  0
  150.1299  157.7841  132.4383 H   0  0  0  0  0  0  0  0  0  0  0  0
  148.5818  157.4145  131.6025 H   0  0  0  0  0  0  0  0  0  0  0  0
  147.5498  160.5647  132.4517 H   0  0  0  0  0  0  0  0  0  0  0  0
  147.9907  162.5093  130.7707 H   0  0  0  0  0  0  0  0  0  0  0  0
  149.9515  161.9919  129.0900 H   0  0  0  0  0  0  0  0  0  0  0  0
  146.6532  160.5503  133.7234 H   0  0  0  0  0  0  0  0  0  0  0  0
  1  2  3  0
  2  3  1  0
  3  4  1  0
  4  5  2  0
  5  6  1  0
  6  7  2  0
  7  8  1  0
  8  9  2  0
  9 10  1  0
 10 11  1  0
 10 12  2  0
  9 13  1  0
 13 14  1  0
 14 15  2  0
 14 16  1  0
 16 17  1  0
 17 18  2  0
 18 19  1  0
 19 20  2  0
 20 21  1  0
 13 22  1  0
 22 23  2  0
 23  4  1  0
 22  7  1  0
 21 17  1  0
  3 24  1  0
  3 25  1  0
  5 26  1  0
  6 27  1  0
  8 28  1  0
 11 29  1  0
 16 30  1  0
 16 31  1  0
 18 32  1  0
 19 33  1  0
 20 34  1  0
 23 35  1  0
M  CHG  1  11  -1
M  END
>  <UniqueID>  (3) 
3

>  <SMILES>  (3) 
N#CCc1ccc2cc(C([NH-])=O)n(C(=O)Cc3cccs3)c2c1

>  <Energy>  (3) 
96.84354916166932

>  <Genealogy>  (3) 
N#CCc1ccc2cc(C([NH-])=O)n(C(=O)Cc3cccs3)c2c1 (protonated)
N#CCc1ccc2cc(C([NH-])=O)n(C(=O)Cc3cccs3)c2c1 (3D coordinates assigned)
N#CCc1ccc2cc(C([NH-])=O)n(C(=O)Cc3cccs3)c2c1 (optimized conformer: 96.84354916166932 kcal/mol)

>  <smiles>  (3) 
N#CCc1ccc2cc(C(N)=O)n(C(=O)Cc3cccs3)c2c1

>  <score_type>  (3) 
oracle

>  <origin>  (3) 
adg

>  <m_score__min__energy>  (3) 
-8.0299999999999994

>  <m_primary>  (3) 
energy

$$$$
3:0
     RDKit          3D

 31 32  0  0  0  0  0  0  0  0999 V2000
  149.1910  159.3730  130.3850 C   0  0  0  0  0  0  0  0  0  0  0  0
  149.1450  160.4740  131.4370 C   0  0  0  0  0  0  0  0  0  0  0  0
  147.9890  160.3340  132.2610 O   0  0  0  0  0  0  0  0  0  0  0  0
  147.8940  159.4050  133.3040 C   0  0  0  0  0  0  0  0  0  0  0  0
  148.8180  159.3020  134.1560 O   0  0  0  0  0  0  0  0  0  0  0  0
  146.7420  158.5510  133.3920 N   0  0  0  0  0  0  0  0  0  0  0  0
  145.4350  158.9250  133.4880 C   0  0  0  0  0  0  0  0  0  0  0  0
  144.9380  160.3000  133.7020 C   0  0  0  0  0  0  0  0  0  0  0  0
  145.8370  161.3650  134.0010 N   0  0  0  0  0  0  0  0  0  0  0  0
  143.7000  160.5280  133.6680 O   0  0  0  0  0  0  0  0  0  0  0  0
  144.6030  157.8080  133.4410 C   0  0  0  0  0  0  0  0  0  0  0  0
  145.4480  156.7290  133.3180 C   0  0  0  0  0  0  0  0  0  0  0  0
  145.1570  155.3720  133.2260 C   0  0  0  0  0  0  0  0  0  0  0  0
  146.2310  154.4770  133.0830 C   0  0  0  0  0  0  0  0  0  0  0  0
  147.5660  154.9510  133.0080 C   0  0  0  0  0  0  0  0  0  0  0  0
  148.7120  153.9770  132.8910 C   0  0  0  0  0  0  0  0  0  0  0  0
  149.8890  154.6410  132.5920 F   0  0  0  0  0  0  0  0  0  0  0  0
  148.4700  153.0550  131.8880 F   0  0  0  0  0  0  0  0  0  0  0  0
  148.8640  153.3080  134.0900 F   0  0  0  0  0  0  0  0  0  0  0  0
  147.8210  156.3370  133.1290 C   0  0  0  0  0  0  0  0  0  0  0  0
  146.7340  157.2040  133.2890 C   0  0  0  0  0  0  0  0  0  0  0  0
  149.2320  158.3925  130.8819 H   0  0  0  0  0  0  0  0  0  0  0  0
  148.2898  159.4283  129.7567 H   0  0  0  0  0  0  0  0  0  0  0  0
  150.0845  159.5033  129.7567 H   0  0  0  0  0  0  0  0  0  0  0  0
  150.0461  160.4118  132.0649 H   0  0  0  0  0  0  0  0  0  0  0  0
  149.1018  161.4484  130.9284 H   0  0  0  0  0  0  0  0  0  0  0  0
  146.6160  161.6090  133.3500 H   0  0  0  0  0  0  0  0  0  0  0  0
  143.5043  157.7922  133.4915 H   0  0  0  0  0  0  0  0  0  0  0  0
  144.1187  155.0107  133.2640 H   0  0  0  0  0  0  0  0  0  0  0  0
  146.0342  153.3961  133.0286 H   0  0  0  0  0  0  0  0  0  0  0  0
  148.8500  156.7246  133.0981 H   0  0  0  0  0  0  0  0  0  0  0  0
  1  2  1  0
  2  3  1  0
  3  4  1  0
  4  5  2  0
  4  6  1  0
  6  7  1  0
  7  8  1  0
  8  9  1  0
  8 10  2  0
  7 11  2  0
 11 12  1  0
 12 13  2  0
 13 14  1  0
 14 15  2  0
 15 16  1  0
 16 17  1  0
 16 18  1  0
 16 19  1  0
 15 20  1  0
 20 21  2  0
 21  6  1  0
 21 12  1  0
  1 22  1  0
  1 23  1  0
  1 24  1  0
  2 25  1  0
  2 26  1  0
  9 27  1  0
 11 28  1  0
 13 29  1  0
 14 30  1  0
 20 31  1  0
M  CHG  1   9  -1
M  END
>  <UniqueID>  (4) 
4

>  <SMILES>  (4) 
CCOC(=O)n1c(C([NH-])=O)cc2ccc(C(F)(F)F)cc21

>  <Energy>  (4) 
67.21653176524558

>  <Genealogy>  (4) 
CCOC(=O)n1c(C([NH-])=O)cc2ccc(C(F)(F)F)cc21 (protonated)
CCOC(=O)n1c(C([NH-])=O)cc2ccc(C(F)(F)F)cc21 (3D coordinates assigned)
CCOC(=O)n1c(C([NH-])=O)cc2ccc(C(F)(F)F)cc21 (optimized conformer: 67.21653176524558 kcal/mol)

>  <smiles>  (4) 
CCOC(=O)n1c(C(N)=O)cc2ccc(C(F)(F)F)cc21

>  <score_type>  (4) 
oracle

>  <origin>  (4) 
adg

>  <m_score__min__energy>  (4) 
-5.4699999999999998

>  <m_primary>  (4) 
energy

$$$$
4:0
     RDKit          3D

 37 38  0  0  0  0  0  0  0  0999 V2000
  149.3090  161.4430  130.3580 C   0  0  0  0  0  0  0  0  0  0  0  0
  149.1100  160.0290  130.8920 C   0  0  0  0  0  0  0  0  0  0  0  0
  147.7930  159.8700  131.4150 O   0  0  0  0  0  0  0  0  0  0  0  0
  147.5290  159.4590  132.7280 C   0  0  0  0  0  0  0  0  0  0  0  0
  148.0300  160.0780  133.7060 O   0  0  0  0  0  0  0  0  0  0  0  0
  146.6880  158.2380  132.9800 C   0  0  1  0  0  0  0  0  0  0  0  0
  147.2600  157.3850  134.1190 C   0  0  0  0  0  0  0  0  0  0  0  0
  145.2500  158.6280  133.2560 C   0  0  0  0  0  0  0  0  0  0  0  0
  144.8920  159.9870  133.4600 C   0  0  0  0  0  0  0  0  0  0  0  0
  143.5630  160.3470  133.7340 C   0  0  0  0  0  0  0  0  0  0  0  0
  142.6110  159.3350  133.7900 C   0  0  0  0  0  0  0  0  0  0  0  0
  141.2660  159.4030  134.0720 C   0  0  0  0  0  0  0  0  0  0  0  0
  140.8110  158.0890  134.0090 C   0  0  0  0  0  0  0  0  0  0  0  0
  139.3950  157.7120  134.1920 C   0  0  0  0  0  0  0  0  0  0  0  0
  138.7510  156.8000  133.3010 N   0  0  0  0  0  0  0  0  0  0  0  0
  138.7270  158.2470  135.1160 O   0  0  0  0  0  0  0  0  0  0  0  0
  141.8340  157.2370  133.7140 N   0  0  0  0  0  0  0  0  0  0  0  0
  141.7900  155.8000  133.6730 C   0  0  0  0  0  0  0  0  0  0  0  0
  140.8880  155.2110  133.0220 O   0  0  0  0  0  0  0  0  0  0  0  0
  142.7390  155.0460  134.3520 O   0  0  0  0  0  0  0  0  0  0  0  0
  142.9300  158.0170  133.5800 C   0  0  0  0  0  0  0  0  0  0  0  0
  144.2520  157.6280  133.3280 C   0  0  0  0  0  0  0  0  0  0  0  0
  149.4075  162.1428  131.2010 H   0  0  0  0  0  0  0  0  0  0  0  0
  150.2209  161.4780  129.7439 H   0  0  0  0  0  0  0  0  0  0  0  0
  148.4422  161.7284  129.7439 H   0  0  0  0  0  0  0  0  0  0  0  0
  149.2636  159.3091  130.0746 H   0  0  0  0  0  0  0  0  0  0  0  0
  149.8357  159.8496  131.6989 H   0  0  0  0  0  0  0  0  0  0  0  0
  146.7082  157.6211  132.0695 H   0  0  0  0  0  0  0  0  0  0  0  0
  146.9678  157.8208  135.0858 H   0  0  0  0  0  0  0  0  0  0  0  0
  146.8653  156.3610  134.0441 H   0  0  0  0  0  0  0  0  0  0  0  0
  148.3572  157.3614  134.0441 H   0  0  0  0  0  0  0  0  0  0  0  0
  145.6654  160.7671  133.4027 H   0  0  0  0  0  0  0  0  0  0  0  0
  143.2832  161.3979  133.8994 H   0  0  0  0  0  0  0  0  0  0  0  0
  140.6763  160.3034  134.2988 H   0  0  0  0  0  0  0  0  0  0  0  0
  139.2250  156.4730  132.4290 H   0  0  0  0  0  0  0  0  0  0  0  0
  137.7610  156.5150  133.4680 H   0  0  0  0  0  0  0  0  0  0  0  0
  144.5086  156.5674  133.1891 H   0  0  0  0  0  0  0  0  0  0  0  0
  1  2  1  0
  2  3  1  0
  3  4  1  0
  4  5  2  0
  4  6  1  0
  6  7  1  0
  6  8  1  0
  8  9  2  0
  9 10  1  0
 10 11  2  0
 11 12  1  0
 12 13  2  0
 13 14  1  0
 14 15  1  0
 14 16  2  0
 13 17  1  0
 17 18  1  0
 18 19  2  0
 18 20  1  0
 17 21  1  0
 21 22  2  0
 22  8  1  0
 21 11  1  0
  1 23  1  0
  1 24  1  0
  1 25  1  0
  2 26  1  0
  2 27  1  0
  6 28  1  6
  7 29  1  0
  7 30  1  0
  7 31  1  0
  9 32  1  0
 10 33  1  0
 12 34  1  0
 15 35  1  0
 15 36  1  0
 22 37  1  0
M  CHG  1  20  -1
M  END
>  <UniqueID>  (5) 
5

>  <SMILES>  (5) 
CCOC(=O)[C@@H](C)c1ccc2cc(C(N)=O)n(C(=O)[O-])c2c1

>  <Energy>  (5) 
71.09023030578828

>  <Genealogy>  (5) 
CCOC(=O)C(C)c1ccc2cc(C(N)=O)n(C(=O)[O-])c2c1 (protonated)
CCOC(=O)[C@@H](C)c1ccc2cc(C(N)=O)n(C(=O)[O-])c2c1 (chirality)
CCOC(=O)[C@@H](C)c1ccc2cc(C(N)=O)n(C(=O)[O-])c2c1 (3D coordinates assigned)
CCOC(=O)[C@@H](C)c1ccc2cc(C(N)=O)n(C(=O)[O-])c2c1 (optimized conformer: 71.09023030578828 kcal/mol)

>  <smiles>  (5) 
CCOC(=O)C(C)c1ccc2cc(C(N)=O)n(C(=O)O)c2c1

>  <score_type>  (5) 
oracle

>  <origin>  (5) 
adg

>  <m_score__min__energy>  (5) 
-6.7000000000000002

>  <m_primary>  (5) 
energy

$$$$
5:0
     RDKit          3D

 37 38  0  0  0  0  0  0  0  0999 V2000
  149.5700  161.4760  130.3200 C   0  0  0  0  0  0  0  0  0  0  0  0
  149.0170  160.2790  130.4690 C   0  0  0  0  0  0  0  0  0  0  0  0
  147.8350  160.1460  131.1980 O   0  0  0  0  0  0  0  0  0  0  0  0
  147.7880  159.5970  132.4830 C   0  0  0  0  0  0  0  0  0  0  0  0
  148.4550  160.1080  133.4260 O   0  0  0  0  0  0  0  0  0  0  0  0
  146.8860  158.4280  132.7430 C   0  0  1  0  0  0  0  0  0  0  0  0
  147.7200  157.1430  133.9450 Br  0  0  0  0  0  0  0  0  0  0  0  0
  145.5590  158.8960  133.2870 C   0  0  0  0  0  0  0  0  0  0  0  0
  145.3300  160.2720  133.5510 C   0  0  0  0  0  0  0  0  0  0  0  0
  144.0890  160.7140  134.0440 C   0  0  0  0  0  0  0  0  0  0  0  0
  143.0960  159.7620  134.2540 C   0  0  0  0  0  0  0  0  0  0  0  0
  141.8100  159.9080  134.7260 C   0  0  0  0  0  0  0  0  0  0  0  0
  141.2690  158.6220  134.7250 C   0  0  0  0  0  0  0  0  0  0  0  0
  139.8710  158.3150  135.0910 C   0  0  0  0  0  0  0  0  0  0  0  0
  139.5110  158.1710  136.4630 N   0  0  0  0  0  0  0  0  0  0  0  0
  138.9840  158.2020  134.2040 O   0  0  0  0  0  0  0  0  0  0  0  0
  142.1880  157.7220  134.2770 N   0  0  0  0  0  0  0  0  0  0  0  0
  142.0480  156.3000  134.1650 C   0  0  0  0  0  0  0  0  0  0  0  0
  142.8170  155.5440  134.8160 O   0  0  0  0  0  0  0  0  0  0  0  0
  140.9180  155.7080  133.3770 C   0  0  0  0  0  0  0  0  0  0  0  0
  141.0180  154.1870  133.3630 C   0  0  0  0  0  0  0  0  0  0  0  0
  143.2960  158.4340  133.9890 C   0  0  0  0  0  0  0  0  0  0  0  0
  144.5210  157.9620  133.5090 C   0  0  0  0  0  0  0  0  0  0  0  0
  150.5020  161.5837  129.7457 H   0  0  0  0  0  0  0  0  0  0  0  0
  149.0965  162.3606  130.7708 H   0  0  0  0  0  0  0  0  0  0  0  0
  149.4895  159.3936  130.0187 H   0  0  0  0  0  0  0  0  0  0  0  0
  146.7072  157.9163  131.7858 H   0  0  0  0  0  0  0  0  0  0  0  0
  146.1328  161.0013  133.3678 H   0  0  0  0  0  0  0  0  0  0  0  0
  143.9092  161.7782  134.2568 H   0  0  0  0  0  0  0  0  0  0  0  0
  141.3152  160.8398  135.0373 H   0  0  0  0  0  0  0  0  0  0  0  0
  139.4700  158.9990  137.0960 H   0  0  0  0  0  0  0  0  0  0  0  0
  139.9628  156.0040  133.8351 H   0  0  0  0  0  0  0  0  0  0  0  0
  140.9725  156.0782  132.3426 H   0  0  0  0  0  0  0  0  0  0  0  0
  141.0427  153.8116  134.3967 H   0  0  0  0  0  0  0  0  0  0  0  0
  140.1455  153.7670  132.8411 H   0  0  0  0  0  0  0  0  0  0  0  0
  141.9380  153.8848  132.8411 H   0  0  0  0  0  0  0  0  0  0  0  0
  144.6736  156.8911  133.3091 H   0  0  0  0  0  0  0  0  0  0  0  0
  1  2  2  0
  2  3  1  0
  3  4  1  0
  4  5  2  0
  4  6  1  0
  6  7  1  0
  6  8  1  0
  8  9  2  0
  9 10  1  0
 10 11  2  0
 11 12  1  0
 12 13  2  0
 13 14  1  0
 14 15  1  0
 14 16  2  0
 13 17  1  0
 17 18  1  0
 18 19  2  0
 18 20  1  0
 20 21  1  0
 17 22  1  0
 22 23  2  0
 23  8  1  0
 22 11  1  0
  1 24  1  0
  1 25  1  0
  2 26  1  0
  6 27  1  6
  9 28  1  0
 10 29  1  0
 12 30  1  0
 15 31  1  0
 20 32  1  0
 20 33  1  0
 21 34  1  0
 21 35  1  0
 21 36  1  0
 23 37  1  0
M  CHG  1  15  -1
M  END
>  <UniqueID>  (6) 
6

>  <SMILES>  (6) 
C=COC(=O)[C@@H](Br)c1ccc2cc(C([NH-])=O)n(C(=O)CC)c2c1

>  <Energy>  (6) 
69.86803595365011

>  <Genealogy>  (6) 
C=COC(=O)C(Br)c1ccc2cc(C([NH-])=O)n(C(=O)CC)c2c1 (protonated)
C=COC(=O)[C@@H](Br)c1ccc2cc(C([NH-])=O)n(C(=O)CC)c2c1 (chirality)
C=COC(=O)[C@@H](Br)c1ccc2cc(C([NH-])=O)n(C(=O)CC)c2c1 (3D coordinates assigned)
C=COC(=O)[C@@H](Br)c1ccc2cc(C([NH-])=O)n(C(=O)CC)c2c1 (optimized conformer: 69.86803595365011 kcal/mol)

>  <smiles>  (6) 
C=COC(=O)C(Br)c1ccc2cc(C(N)=O)n(C(=O)CC)c2c1

>  <score_type>  (6) 
oracle

>  <origin>  (6) 
adg

>  <m_score__min__energy>  (6) 
-7.2300000000000004

>  <m_primary>  (6) 
energy

$$$$
6:0
     RDKit          3D

 28 30  0  0  0  0  0  0  0  0999 V2000
  141.6570  159.6180  135.7050 N   0  0  0  0  0  0  0  0  0  0  0  0
  142.2070  160.1040  134.4830 C   0  0  0  0  0  0  0  0  0  0  0  0
  141.5290  160.8950  133.7730 O   0  0  0  0  0  0  0  0  0  0  0  0
  143.5780  159.7410  134.0670 C   0  0  0  0  0  0  0  0  0  0  0  0
  143.9770  158.4300  133.8160 C   0  0  0  0  0  0  0  0  0  0  0  0
  145.2770  158.5240  133.3730 C   0  0  0  0  0  0  0  0  0  0  0  0
  146.1650  157.5250  132.9920 C   0  0  0  0  0  0  0  0  0  0  0  0
  147.4610  157.9050  132.6050 C   0  0  0  0  0  0  0  0  0  0  0  0
  147.8520  159.2750  132.6130 C   0  0  0  0  0  0  0  0  0  0  0  0
  149.2400  159.7540  132.2210 C   0  0  0  0  0  0  0  0  0  0  0  0
  149.3300  160.8060  131.1240 C   0  0  0  0  0  0  0  0  0  0  0  0
  149.7460  159.3690  130.8370 C   0  0  0  0  0  0  0  0  0  0  0  0
  146.9140  160.2550  133.0100 C   0  0  0  0  0  0  0  0  0  0  0  0
  145.6250  159.8480  133.3710 C   0  0  0  0  0  0  0  0  0  0  0  0
  144.5920  160.6100  133.7970 N   0  0  0  0  0  0  0  0  0  0  0  0
  144.6150  162.0320  134.0030 C   0  0  0  0  0  0  0  0  0  0  0  0
  145.4820  162.5530  134.7540 O   0  0  0  0  0  0  0  0  0  0  0  0
  143.6960  162.8490  133.3570 O   0  0  0  0  0  0  0  0  0  0  0  0
  140.6540  159.7780  135.9430 H   0  0  0  0  0  0  0  0  0  0  0  0
  143.3804  157.5148  133.9444 H   0  0  0  0  0  0  0  0  0  0  0  0
  145.8619  156.4676  132.9934 H   0  0  0  0  0  0  0  0  0  0  0  0
  148.1823  157.1357  132.2921 H   0  0  0  0  0  0  0  0  0  0  0  0
  149.6300  159.6621  133.2454 H   0  0  0  0  0  0  0  0  0  0  0  0
  148.4117  161.2128  130.6754 H   0  0  0  0  0  0  0  0  0  0  0  0
  149.8129  161.7896  131.0273 H   0  0  0  0  0  0  0  0  0  0  0  0
  149.1281  158.7380  130.1813 H   0  0  0  0  0  0  0  0  0  0  0  0
  150.6537  158.8849  130.4474 H   0  0  0  0  0  0  0  0  0  0  0  0
  147.1925  161.3189  133.0347 H   0  0  0  0  0  0  0  0  0  0  0  0
  1  2  1  0
  2  3  2  0
  2  4  1  0
  4  5  2  0
  5  6  1  0
  6  7  2  0
  7  8  1  0
  8  9  2  0
  9 10  1  0
 10 11  1  0
 11 12  1  0
  9 13  1  0
 13 14  2  0
 14 15  1  0
 15 16  1  0
 16 17  2  0
 16 18  1  0
 15  4  1  0
 14  6  1  0
 12 10  1  0
  1 19  1  0
  5 20  1  0
  7 21  1  0
  8 22  1  0
 10 23  1  0
 11 24  1  0
 11 25  1  0
 12 26  1  0
 12 27  1  0
 13 28  1  0
M  CHG  2   1  -1  18  -1
M  END
>  <UniqueID>  (7) 
7

>  <SMILES>  (7) 
[NH-]C(=O)c1cc2ccc(C3CC3)cc2n1C(=O)[O-]

>  <Energy>  (7) 
337.24941005876525

>  <Genealogy>  (7) 
[NH-]C(=O)c1cc2ccc(C3CC3)cc2n1C(=O)[O-] (protonated)
[NH-]C(=O)c1cc2ccc(C3CC3)cc2n1C(=O)[O-] (3D coordinates assigned)
[NH-]C(=O)c1cc2ccc(C3CC3)cc2n1C(=O)[O-] (nonaromatic ring conformer: 337.24941005876525 kcal/mol)

>  <smiles>  (7) 
NC(=O)c1cc2ccc(C3CC3)cc2n1C(=O)O

>  <score_type>  (7) 
oracle

>  <origin>  (7) 
adg

>  <m_score__min__energy>  (7) 
-6.7400000000000002

>  <m_primary>  (7) 
energy

$$$$
7:0
     RDKit          3D

 43 45  0  0  0  0  0  0  0  0999 V2000
  146.0700  155.7250  134.4950 C   0  0  0  0  0  0  0  0  0  0  0  0
  146.3060  156.5870  133.2950 C   0  0  0  0  0  0  0  0  0  0  0  0
  146.6640  156.0510  132.2130 O   0  0  0  0  0  0  0  0  0  0  0  0
  146.1170  158.0110  133.3600 N   0  0  0  0  0  0  0  0  0  0  0  0
  147.0520  158.9820  133.1570 C   0  0  0  0  0  0  0  0  0  0  0  0
  148.4940  158.7590  132.9240 C   0  0  0  0  0  0  0  0  0  0  0  0
  148.9200  157.9870  131.8020 N   0  0  0  0  0  0  0  0  0  0  0  0
  149.3580  159.2600  133.6900 O   0  0  0  0  0  0  0  0  0  0  0  0
  146.4730  160.2450  133.2630 C   0  0  0  0  0  0  0  0  0  0  0  0
  145.1440  160.0150  133.5390 C   0  0  0  0  0  0  0  0  0  0  0  0
  144.1020  160.9150  133.7360 C   0  0  0  0  0  0  0  0  0  0  0  0
  142.8210  160.3950  133.9850 C   0  0  0  0  0  0  0  0  0  0  0  0
  142.5960  158.9920  134.0120 C   0  0  0  0  0  0  0  0  0  0  0  0
  141.2020  158.4600  134.3160 C   0  0  1  0  0  0  0  0  0  0  0  0
  140.3420  158.2630  133.0390 C   0  0  0  0  0  0  0  0  0  0  0  0
  139.6890  156.8760  132.9820 C   0  0  0  0  0  0  0  0  0  0  0  0
  140.7080  155.8140  133.1270 N   0  0  2  0  0  0  0  0  0  0  0  0
  140.0760  154.4920  132.9780 C   0  0  0  0  0  0  0  0  0  0  0  0
  141.4770  155.8930  134.4040 C   0  0  0  0  0  0  0  0  0  0  0  0
  141.2640  157.1980  135.2010 C   0  0  0  0  0  0  0  0  0  0  0  0
  143.6870  158.1140  133.8070 C   0  0  0  0  0  0  0  0  0  0  0  0
  144.9550  158.6610  133.5880 C   0  0  0  0  0  0  0  0  0  0  0  0
  146.2318  156.3160  135.4085 H   0  0  0  0  0  0  0  0  0  0  0  0
  145.0361  155.3498  134.4793 H   0  0  0  0  0  0  0  0  0  0  0  0
  146.7686  154.8755  134.4793 H   0  0  0  0  0  0  0  0  0  0  0  0
  148.3720  157.1570  131.4830 H   0  0  0  0  0  0  0  0  0  0  0  0
  146.9718  161.2189  133.1501 H   0  0  0  0  0  0  0  0  0  0  0  0
  144.2757  162.0005  133.6980 H   0  0  0  0  0  0  0  0  0  0  0  0
  141.9809  161.0829  134.1614 H   0  0  0  0  0  0  0  0  0  0  0  0
  140.6804  159.2336  134.8987 H   0  0  0  0  0  0  0  0  0  0  0  0
  140.9867  158.3865  132.1564 H   0  0  0  0  0  0  0  0  0  0  0  0
  139.5369  159.0123  133.0580 H   0  0  0  0  0  0  0  0  0  0  0  0
  139.1777  156.7567  132.0154 H   0  0  0  0  0  0  0  0  0  0  0  0
  138.9673  156.7898  133.8077 H   0  0  0  0  0  0  0  0  0  0  0  0
  141.3810  155.9110  132.3300 H   0  0  0  0  0  0  0  0  0  0  0  0
  139.8734  154.0682  133.9727 H   0  0  0  0  0  0  0  0  0  0  0  0
  139.1310  154.5976  132.4250 H   0  0  0  0  0  0  0  0  0  0  0  0
  140.7516  153.8228  132.4250 H   0  0  0  0  0  0  0  0  0  0  0  0
  142.5475  155.8068  134.1661 H   0  0  0  0  0  0  0  0  0  0  0  0
  141.1101  155.0746  135.0408 H   0  0  0  0  0  0  0  0  0  0  0  0
  142.0967  157.3117  135.9107 H   0  0  0  0  0  0  0  0  0  0  0  0
  140.2912  157.1113  135.7072 H   0  0  0  0  0  0  0  0  0  0  0  0
  143.5404  157.0239  133.8197 H   0  0  0  0  0  0  0  0  0  0  0  0
  1  2  1  0
  2  3  2  0
  2  4  1  0
  4  5  1  0
  5  6  1  0
  6  7  1  0
  6  8  2  0
  5  9  2  0
  9 10  1  0
 10 11  2  0
 11 12  1  0
 12 13  2  0
 13 14  1  0
 14 15  1  0
 15 16  1  0
 16 17  1  0
 17 18  1  0
 17 19  1  0
 19 20  1  0
 13 21  1  0
 21 22  2  0
 22  4  1  0
 22 10  1  0
 20 14  1  0
  1 23  1  0
  1 24  1  0
  1 25  1  0
  7 26  1  0
  9 27  1  0
 11 28  1  0
 12 29  1  0
 14 30  1  1
 15 31  1  0
 15 32  1  0
 16 33  1  0
 16 34  1  0
 17 35  1  6
 18 36  1  0
 18 37  1  0
 18 38  1  0
 19 39  1  0
 19 40  1  0
 20 41  1  0
 20 42  1  0
 21 43  1  0
M  CHG  2   7  -1  17   1
M  END
>  <UniqueID>  (8) 
8

>  <SMILES>  (8) 
CC(=O)n1c(C([NH-])=O)cc2ccc(C3CC[NH+](C)CC3)cc21

>  <Energy>  (8) 
91.98902976897219

>  <Genealogy>  (8) 
CC(=O)n1c(C([NH-])=O)cc2ccc(C3CC[NH+](C)CC3)cc21 (protonated)
CC(=O)n1c(C([NH-])=O)cc2ccc(C3CC[NH+](C)CC3)cc21 (3D coordinates assigned)
CC(=O)n1c(C([NH-])=O)cc2ccc(C3CC[NH+](C)CC3)cc21 (nonaromatic ring conformer: 91.98902976897219 kcal/mol)

>  <smiles>  (8) 
CC(=O)n1c(C(N)=O)cc2ccc(C3CCN(C)CC3)cc21

>  <score_type>  (8) 
oracle

>  <origin>  (8) 
adg

>  <m_score__min__energy>  (8) 
-6.8300000000000001

>  <m_primary>  (8) 
energy

$$$$
8:0
     RDKit          3D

 46 48  0  0  0  0  0  0  0  0999 V2000
  148.4120  155.2880  132.9410 C   0  0  0  0  0  0  0  0  0  0  0  0
  147.5370  155.0410  134.1610 C   0  0  0  0  0  0  0  0  0  0  0  0
  146.7780  156.2110  134.4450 O   0  0  0  0  0  0  0  0  0  0  0  0
  145.8370  156.7420  133.5570 C   0  0  0  0  0  0  0  0  0  0  0  0
  145.3360  155.9930  132.6720 O   0  0  0  0  0  0  0  0  0  0  0  0
  145.4750  158.1410  133.6290 N   0  0  0  0  0  0  0  0  0  0  0  0
  146.2990  159.2100  133.4230 C   0  0  0  0  0  0  0  0  0  0  0  0
  147.7620  159.1660  133.2640 C   0  0  0  0  0  0  0  0  0  0  0  0
  148.5660  158.3460  134.1130 N   0  0  0  0  0  0  0  0  0  0  0  0
  148.3170  159.9180  132.4160 O   0  0  0  0  0  0  0  0  0  0  0  0
  145.5830  160.4000  133.4030 C   0  0  0  0  0  0  0  0  0  0  0  0
  144.2800  160.0400  133.6340 C   0  0  0  0  0  0  0  0  0  0  0  0
  143.1490  160.8380  133.7390 C   0  0  0  0  0  0  0  0  0  0  0  0
  141.9210  160.2150  134.0010 C   0  0  0  0  0  0  0  0  0  0  0  0
  141.8320  158.8030  134.1710 C   0  0  0  0  0  0  0  0  0  0  0  0
  140.4780  158.1390  134.4710 C   0  0  0  0  0  0  0  0  0  0  0  0
  139.4860  158.1380  133.3290 C   0  0  0  0  0  0  0  0  0  0  0  0
  139.0950  157.0430  132.8380 O   0  0  0  0  0  0  0  0  0  0  0  0
  139.0900  159.3520  132.7600 O   0  0  0  0  0  0  0  0  0  0  0  0
  139.0870  159.5730  131.3540 C   0  0  0  0  0  0  0  0  0  0  0  0
  137.7050  160.0330  130.9160 C   0  0  0  0  0  0  0  0  0  0  0  0
  139.8530  158.5770  135.7900 C   0  0  0  0  0  0  0  0  0  0  0  0
  140.0180  157.3050  136.3720 O   0  0  0  0  0  0  0  0  0  0  0  0
  140.5730  156.7950  135.1820 C   0  0  0  0  0  0  0  0  0  0  0  0
  143.0190  158.0300  134.0570 C   0  0  0  0  0  0  0  0  0  0  0  0
  144.2330  158.6760  133.7740 C   0  0  0  0  0  0  0  0  0  0  0  0
  149.4232  155.5734  133.2667 H   0  0  0  0  0  0  0  0  0  0  0  0
  148.4667  154.3702  132.3371 H   0  0  0  0  0  0  0  0  0  0  0  0
  147.9787  156.0989  132.3371 H   0  0  0  0  0  0  0  0  0  0  0  0
  146.8553  154.2016  133.9594 H   0  0  0  0  0  0  0  0  0  0  0  0
  148.1727  154.7976  135.0250 H   0  0  0  0  0  0  0  0  0  0  0  0
  148.1300  157.7910  134.8800 H   0  0  0  0  0  0  0  0  0  0  0  0
  149.6030  158.3050  133.9820 H   0  0  0  0  0  0  0  0  0  0  0  0
  145.9766  161.4137  133.2374 H   0  0  0  0  0  0  0  0  0  0  0  0
  143.2147  161.9295  133.6198 H   0  0  0  0  0  0  0  0  0  0  0  0
  141.0100  160.8268  134.0767 H   0  0  0  0  0  0  0  0  0  0  0  0
  139.8276  160.3466  131.1029 H   0  0  0  0  0  0  0  0  0  0  0  0
  139.3436  158.6375  130.8353 H   0  0  0  0  0  0  0  0  0  0  0  0
  137.0885  160.2382  131.8036 H   0  0  0  0  0  0  0  0  0  0  0  0
  137.7972  160.9489  130.3138 H   0  0  0  0  0  0  0  0  0  0  0  0
  137.2299  159.2446  130.3138 H   0  0  0  0  0  0  0  0  0  0  0  0
  140.4198  159.3691  136.3012 H   0  0  0  0  0  0  0  0  0  0  0  0
  138.8504  159.0294  135.7781 H   0  0  0  0  0  0  0  0  0  0  0  0
  141.6055  156.4344  135.3001 H   0  0  0  0  0  0  0  0  0  0  0  0
  140.1092  155.9136  134.7151 H   0  0  0  0  0  0  0  0  0  0  0  0
  142.9870  156.9384  134.1889 H   0  0  0  0  0  0  0  0  0  0  0  0
  1  2  1  0
  2  3  1  0
  3  4  1  0
  4  5  2  0
  4  6  1  0
  6  7  1  0
  7  8  1  0
  8  9  1  0
  8 10  2  0
  7 11  2  0
 11 12  1  0
 12 13  2  0
 13 14  1  0
 14 15  2  0
 15 16  1  0
 16 17  1  0
 17 18  2  0
 17 19  1  0
 19 20  1  0
 20 21  1  0
 16 22  1  0
 22 23  1  0
 23 24  1  0
 15 25  1  0
 25 26  2  0
 26  6  1  0
 26 12  1  0
 24 16  1  0
  1 27  1  0
  1 28  1  0
  1 29  1  0
  2 30  1  0
  2 31  1  0
  9 32  1  0
  9 33  1  0
 11 34  1  0
 13 35  1  0
 14 36  1  0
 20 37  1  0
 20 38  1  0
 21 39  1  0
 21 40  1  0
 21 41  1  0
 22 42  1  0
 22 43  1  0
 24 44  1  0
 24 45  1  0
 25 46  1  0
M  END
>  <UniqueID>  (9) 
9

>  <SMILES>  (9) 
CCOC(=O)n1c(C(N)=O)cc2ccc(C3(C(=O)OCC)COC3)cc21

>  <Energy>  (9) 
148.2444786500639

>  <Genealogy>  (9) 
CCOC(=O)n1c(C(N)=O)cc2ccc(C3(C(=O)OCC)COC3)cc21 (3D coordinates assigned)
CCOC(=O)n1c(C(N)=O)cc2ccc(C3(C(=O)OCC)COC3)cc21 (nonaromatic ring conformer: 148.2444786500639 kcal/mol)

>  <smiles>  (9) 
CCOC(=O)n1c(C(N)=O)cc2ccc(C3(C(=O)OCC)COC3)cc21

>  <score_type>  (9) 
oracle

>  <origin>  (9) 
adg

>  <m_score__min__energy>  (9) 
-7.2599999999999998

>  <m_primary>  (9) 
energy

$$$$
9:0
     RDKit          3D

 43 45  0  0  0  0  0  0  0  0999 V2000
  150.3240  151.5400  132.4480 C   0  0  0  0  0  0  0  0  0  0  0  0
  149.2450  152.5030  132.6240 N   0  0  0  0  0  0  0  0  0  0  0  0
  149.3770  153.8410  132.6050 C   0  0  0  0  0  0  0  0  0  0  0  0
  148.1390  154.3990  132.8780 C   0  0  0  0  0  0  0  0  0  0  0  0
  147.7920  155.8400  132.9640 C   0  0  0  0  0  0  0  0  0  0  0  0
  148.7980  156.8340  132.8140 C   0  0  0  0  0  0  0  0  0  0  0  0
  148.4820  158.2000  132.9110 C   0  0  0  0  0  0  0  0  0  0  0  0
  147.1570  158.5490  133.1490 C   0  0  0  0  0  0  0  0  0  0  0  0
  146.5850  159.7890  133.3230 C   0  0  0  0  0  0  0  0  0  0  0  0
  145.2330  159.5420  133.5520 C   0  0  0  0  0  0  0  0  0  0  0  0
  144.2260  160.6100  133.7250 C   0  0  0  0  0  0  0  0  0  0  0  0
  142.8650  160.4030  133.3540 N   0  0  0  0  0  0  0  0  0  0  0  0
  144.5800  161.7360  134.1640 O   0  0  0  0  0  0  0  0  0  0  0  0
  144.9810  158.2030  133.5220 N   0  0  0  0  0  0  0  0  0  0  0  0
  143.7450  157.5340  133.8090 C   0  0  0  0  0  0  0  0  0  0  0  0
  143.6230  156.8760  134.8780 O   0  0  0  0  0  0  0  0  0  0  0  0
  142.6750  157.6450  132.9140 O   0  0  0  0  0  0  0  0  0  0  0  0
  141.4360  156.9530  133.0660 C   0  0  0  0  0  0  0  0  0  0  0  0
  140.3630  157.8720  133.6620 C   0  0  0  0  0  0  0  0  0  0  0  0
  139.7140  158.8300  132.6450 C   0  0  0  0  0  0  0  0  0  0  0  0
  140.6870  159.7280  132.0240 N   0  0  0  0  0  0  0  0  0  0  0  0
  146.1700  157.6100  133.2760 C   0  0  0  0  0  0  0  0  0  0  0  0
  146.4560  156.2420  133.2040 C   0  0  0  0  0  0  0  0  0  0  0  0
  147.2980  153.3110  133.0660 C   0  0  0  0  0  0  0  0  0  0  0  0
  147.9990  152.1700  132.9150 N   0  0  0  0  0  0  0  0  0  0  0  0
  150.6890  151.2142  133.4332 H   0  0  0  0  0  0  0  0  0  0  0  0
  149.9508  150.6693  131.8890 H   0  0  0  0  0  0  0  0  0  0  0  0
  151.1469  152.0094  131.8890 H   0  0  0  0  0  0  0  0  0  0  0  0
  150.3061  154.3957  132.4072 H   0  0  0  0  0  0  0  0  0  0  0  0
  149.8370  156.5297  132.6195 H   0  0  0  0  0  0  0  0  0  0  0  0
  149.2597  158.9703  132.8019 H   0  0  0  0  0  0  0  0  0  0  0  0
  147.0881  160.7666  133.2886 H   0  0  0  0  0  0  0  0  0  0  0  0
  142.6140  159.7700  132.5630 H   0  0  0  0  0  0  0  0  0  0  0  0
  141.0990  156.5981  132.0809 H   0  0  0  0  0  0  0  0  0  0  0  0
  141.5898  156.1047  133.7492 H   0  0  0  0  0  0  0  0  0  0  0  0
  139.5721  157.2424  134.0957 H   0  0  0  0  0  0  0  0  0  0  0  0
  140.8668  158.5009  134.4107 H   0  0  0  0  0  0  0  0  0  0  0  0
  139.2307  158.2338  131.8570 H   0  0  0  0  0  0  0  0  0  0  0  0
  138.9845  159.4498  133.1870 H   0  0  0  0  0  0  0  0  0  0  0  0
  141.6040  159.2370  131.9280 H   0  0  0  0  0  0  0  0  0  0  0  0
  140.8290  160.5630  132.6390 H   0  0  0  0  0  0  0  0  0  0  0  0
  145.6591  155.4945  133.3312 H   0  0  0  0  0  0  0  0  0  0  0  0
  146.2252  153.3708  133.3018 H   0  0  0  0  0  0  0  0  0  0  0  0
  1  2  1  0
  2  3  1  0
  3  4  2  0
  4  5  1  0
  5  6  2  0
  6  7  1  0
  7  8  2  0
  8  9  1  0
  9 10  2  0
 10 11  1  0
 11 12  1  0
 11 13  2  0
 10 14  1  0
 14 15  1  0
 15 16  2  0
 15 17  1  0
 17 18  1  0
 18 19  1  0
 19 20  1  0
 20 21  1  0
 14 22  1  0
 22 23  2  0
  4 24  1  0
 24 25  2  0
 25  2  1  0
 23  5  1  0
 22  8  1  0
  1 26  1  0
  1 27  1  0
  1 28  1  0
  3 29  1  0
  6 30  1  0
  7 31  1  0
  9 32  1  0
 12 33  1  0
 18 34  1  0
 18 35  1  0
 19 36  1  0
 19 37  1  0
 20 38  1  0
 20 39  1  0
 21 40  1  0
 21 41  1  0
 23 42  1  0
 24 43  1  0
M  CHG  1  12  -1
M  END
>  <UniqueID>  (10) 
10

>  <SMILES>  (10) 
Cn1cc(-c2ccc3cc(C([NH-])=O)n(C(=O)OCCCN)c3c2)cn1

>  <Energy>  (10) 
111.22405345015346

>  <Genealogy>  (10) 
Cn1cc(-c2ccc3cc(C([NH-])=O)n(C(=O)OCCCN)c3c2)cn1 (protonated)
Cn1cc(-c2ccc3cc(C([NH-])=O)n(C(=O)OCCCN)c3c2)cn1 (3D coordinates assigned)
Cn1cc(-c2ccc3cc(C([NH-])=O)n(C(=O)OCCCN)c3c2)cn1 (optimized conformer: 111.22405345015346 kcal/mol)

>  <smiles>  (10) 
Cn1cc(-c2ccc3cc(C(N)=O)n(C(=O)OCCCN)c3c2)cn1

>  <score_type>  (10) 
oracle

>  <origin>  (10) 
adg

>  <m_score__min__energy>  (10) 
-6.9299999999999997

>  <m_primary>  (10) 
energy

$$$$
10:0
     RDKit          3D

 33 34  0  0  0  0  0  0  0  0999 V2000
  148.8790  161.6200  130.7210 C   0  0  0  0  0  0  0  0  0  0  0  0
  149.8420  160.5290  130.2630 C   0  0  0  0  0  0  0  0  0  0  0  0
  149.5870  159.2140  131.0150 C   0  0  0  0  0  0  0  0  0  0  0  0
  149.3050  159.4420  132.5070 C   0  0  0  0  0  0  0  0  0  0  0  0
  147.8840  159.0960  132.8710 C   0  0  0  0  0  0  0  0  0  0  0  0
  147.4520  157.7470  132.8340 C   0  0  0  0  0  0  0  0  0  0  0  0
  146.1270  157.4120  133.1570 C   0  0  0  0  0  0  0  0  0  0  0  0
  145.2560  158.4430  133.4970 C   0  0  0  0  0  0  0  0  0  0  0  0
  143.9330  158.3970  133.8690 C   0  0  0  0  0  0  0  0  0  0  0  0
  143.5670  159.7220  134.0970 C   0  0  0  0  0  0  0  0  0  0  0  0
  142.1890  160.1350  134.4370 C   0  0  0  0  0  0  0  0  0  0  0  0
  141.4480  160.9970  133.5780 N   0  0  0  0  0  0  0  0  0  0  0  0
  141.6410  159.6810  135.4770 O   0  0  0  0  0  0  0  0  0  0  0  0
  144.6250  160.5550  133.8820 N   0  0  0  0  0  0  0  0  0  0  0  0
  144.6850  161.9760  134.0850 C   0  0  0  0  0  0  0  0  0  0  0  0
  145.5430  162.4710  134.8630 O   0  0  0  0  0  0  0  0  0  0  0  0
  143.8150  162.8200  133.4050 O   0  0  0  0  0  0  0  0  0  0  0  0
  145.6510  159.7570  133.5130 C   0  0  0  0  0  0  0  0  0  0  0  0
  146.9710  160.1170  133.2170 C   0  0  0  0  0  0  0  0  0  0  0  0
  148.8536  161.6488  131.8203 H   0  0  0  0  0  0  0  0  0  0  0  0
  149.2179  162.5933  130.3364 H   0  0  0  0  0  0  0  0  0  0  0  0
  147.8712  161.4046  130.3364 H   0  0  0  0  0  0  0  0  0  0  0  0
  149.7051  160.3586  129.1849 H   0  0  0  0  0  0  0  0  0  0  0  0
  150.8697  160.8589  130.4752 H   0  0  0  0  0  0  0  0  0  0  0  0
  148.7192  158.7108  130.5637 H   0  0  0  0  0  0  0  0  0  0  0  0
  150.4949  158.5982  130.9341 H   0  0  0  0  0  0  0  0  0  0  0  0
  149.9866  158.8123  133.0978 H   0  0  0  0  0  0  0  0  0  0  0  0
  149.4617  160.5090  132.7238 H   0  0  0  0  0  0  0  0  0  0  0  0
  148.1607  156.9552  132.5498 H   0  0  0  0  0  0  0  0  0  0  0  0
  145.7876  156.3658  133.1417 H   0  0  0  0  0  0  0  0  0  0  0  0
  143.2983  157.5038  133.9660 H   0  0  0  0  0  0  0  0  0  0  0  0
  141.8320  161.9220  133.2840 H   0  0  0  0  0  0  0  0  0  0  0  0
  147.2896  161.1693  133.2529 H   0  0  0  0  0  0  0  0  0  0  0  0
  1  2  1  0
  2  3  1  0
  3  4  1  0
  4  5  1  0
  5  6  2  0
  6  7  1  0
  7  8  2  0
  8  9  1  0
  9 10  2  0
 10 11  1  0
 11 12  1  0
 11 13  2  0
 10 14  1  0
 14 15  1  0
 15 16  2  0
 15 17  1  0
 14 18  1  0
 18 19  2  0
 19  5  1  0
 18  8  1  0
  1 20  1  0
  1 21  1  0
  1 22  1  0
  2 23  1  0
  2 24  1  0
  3 25  1  0
  3 26  1  0
  4 27  1  0
  4 28  1  0
  6 29  1  0
  7 30  1  0
  9 31  1  0
 12 32  1  0
 19 33  1  0
M  CHG  2  12  -1  17  -1
M  END
>  <UniqueID>  (11) 
11

>  <SMILES>  (11) 
CCCCc1ccc2cc(C([NH-])=O)n(C(=O)[O-])c2c1

>  <Energy>  (11) 
65.76163314771244

>  <Genealogy>  (11) 
CCCCc1ccc2cc(C([NH-])=O)n(C(=O)[O-])c2c1 (protonated)
CCCCc1ccc2cc(C([NH-])=O)n(C(=O)[O-])c2c1 (3D coordinates assigned)
CCCCc1ccc2cc(C([NH-])=O)n(C(=O)[O-])c2c1 (optimized conformer: 65.76163314771244 kcal/mol)

>  <smiles>  (11) 
CCCCc1ccc2cc(C(N)=O)n(C(=O)O)c2c1

>  <score_type>  (11) 
oracle

>  <origin>  (11) 
adg

>  <m_score__min__energy>  (11) 
-7.1500000000000004

>  <m_primary>  (11) 
energy

$$$$
11:0
     RDKit          3D

 41 43  0  0  0  0  0  0  0  0999 V2000
  139.3980  146.7860  129.9660 C   0  0  0  0  0  0  0  0  0  0  0  0
  139.9630  148.4370  130.3500 S   0  0  0  0  0  0  0  0  0  0  0  0
  141.4010  148.5440  129.9200 O   0  0  0  0  0  0  0  0  0  0  0  0
  139.1560  149.4100  129.5380 O   0  0  0  0  0  0  0  0  0  0  0  0
  139.8710  148.8580  132.0530 N   0  0  0  0  0  0  0  0  0  0  0  0
  139.0470  150.0480  132.3400 C   0  0  0  0  0  0  0  0  0  0  0  0
  139.8020  151.3880  132.2260 C   0  0  0  0  0  0  0  0  0  0  0  0
  141.1750  151.3040  132.7320 N   0  0  0  0  0  0  0  0  0  0  0  0
  141.8470  152.5260  133.0910 C   0  0  0  0  0  0  0  0  0  0  0  0
  143.2040  152.4960  133.4900 C   0  0  0  0  0  0  0  0  0  0  0  0
  143.8720  153.6790  133.8430 C   0  0  0  0  0  0  0  0  0  0  0  0
  143.1600  154.8690  133.8060 C   0  0  0  0  0  0  0  0  0  0  0  0
  143.5690  156.1580  134.0640 C   0  0  0  0  0  0  0  0  0  0  0  0
  142.4460  156.9530  133.8530 C   0  0  0  0  0  0  0  0  0  0  0  0
  142.4280  158.4130  134.0780 C   0  0  0  0  0  0  0  0  0  0  0  0
  142.2030  159.3200  132.9990 N   0  0  0  0  0  0  0  0  0  0  0  0
  142.5750  158.8640  135.2450 O   0  0  0  0  0  0  0  0  0  0  0  0
  141.3810  156.1870  133.4750 N   0  0  0  0  0  0  0  0  0  0  0  0
  140.0780  156.6320  133.0570 C   0  0  0  0  0  0  0  0  0  0  0  0
  139.0530  155.9640  133.3540 O   0  0  0  0  0  0  0  0  0  0  0  0
  139.9390  157.8070  132.3310 O   0  0  0  0  0  0  0  0  0  0  0  0
  141.8380  154.9140  133.4510 C   0  0  0  0  0  0  0  0  0  0  0  0
  141.1520  153.7560  133.0690 C   0  0  0  0  0  0  0  0  0  0  0  0
  141.9750  150.1120  132.4440 C   0  0  0  0  0  0  0  0  0  0  0  0
  141.1670  148.8580  132.7480 C   0  0  0  0  0  0  0  0  0  0  0  0
  139.2099  146.2363  130.9001 H   0  0  0  0  0  0  0  0  0  0  0  0
  138.4684  146.8434  129.3808 H   0  0  0  0  0  0  0  0  0  0  0  0
  140.1679  146.2618  129.3808 H   0  0  0  0  0  0  0  0  0  0  0  0
  138.2074  150.0646  131.6295 H   0  0  0  0  0  0  0  0  0  0  0  0
  138.7211  149.9593  133.3868 H   0  0  0  0  0  0  0  0  0  0  0  0
  139.8338  151.6859  131.1676 H   0  0  0  0  0  0  0  0  0  0  0  0
  139.2649  152.1272  132.8385 H   0  0  0  0  0  0  0  0  0  0  0  0
  143.7407  151.5364  133.5239 H   0  0  0  0  0  0  0  0  0  0  0  0
  144.9308  153.6629  134.1407 H   0  0  0  0  0  0  0  0  0  0  0  0
  144.5716  156.4897  134.3719 H   0  0  0  0  0  0  0  0  0  0  0  0
  141.7630  158.9940  132.1100 H   0  0  0  0  0  0  0  0  0  0  0  0
  140.0975  153.8020  132.7592 H   0  0  0  0  0  0  0  0  0  0  0  0
  142.2609  150.1128  131.3818 H   0  0  0  0  0  0  0  0  0  0  0  0
  142.8776  150.1218  133.0727 H   0  0  0  0  0  0  0  0  0  0  0  0
  141.7427  147.9775  132.4266 H   0  0  0  0  0  0  0  0  0  0  0  0
  140.9730  148.8319  133.8304 H   0  0  0  0  0  0  0  0  0  0  0  0
  1  2  1  0
  2  3  2  0
  2  4  2  0
  2  5  1  0
  5  6  1  0
  6  7  1  0
  7  8  1  0
  8  9  1  0
  9 10  2  0
 10 11  1  0
 11 12  2  0
 12 13  1  0
 13 14  2  0
 14 15  1  0
 15 16  1  0
 15 17  2  0
 14 18  1  0
 18 19  1  0
 19 20  2  0
 19 21  1  0
 18 22  1  0
 22 23  2  0
  8 24  1  0
 24 25  1  0
 25  5  1  0
 23  9  1  0
 22 12  1  0
  1 26  1  0
  1 27  1  0
  1 28  1  0
  6 29  1  0
  6 30  1  0
  7 31  1  0
  7 32  1  0
 10 33  1  0
 11 34  1  0
 13 35  1  0
 16 36  1  0
 23 37  1  0
 24 38  1  0
 24 39  1  0
 25 40  1  0
 25 41  1  0
M  CHG  2  16  -1  21  -1
M  END
>  <UniqueID>  (12) 
12

>  <SMILES>  (12) 
CS(=O)(=O)N1CCN(c2ccc3cc(C([NH-])=O)n(C(=O)[O-])c3c2)CC1

>  <Energy>  (12) 
88.23056660697314

>  <Genealogy>  (12) 
CS(=O)(=O)N1CCN(c2ccc3cc(C([NH-])=O)n(C(=O)[O-])c3c2)CC1 (protonated)
CS(=O)(=O)N1CCN(c2ccc3cc(C([NH-])=O)n(C(=O)[O-])c3c2)CC1 (3D coordinates assigned)
CS(=O)(=O)N1CCN(c2ccc3cc(C([NH-])=O)n(C(=O)[O-])c3c2)CC1 (nonaromatic ring conformer: 88.23056660697314 kcal/mol)

>  <smiles>  (12) 
CS(=O)(=O)N1CCN(c2ccc3cc(C(N)=O)n(C(=O)O)c3c2)CC1

>  <score_type>  (12) 
oracle

>  <origin>  (12) 
adg

>  <m_score__min__energy>  (12) 
-8.2100000000000009

>  <m_primary>  (12) 
energy

$$$$
12:0
     RDKit          3D

 36 37  0  0  0  0  0  0  0  0999 V2000
  138.4020  160.1680  130.4210 C   0  0  0  0  0  0  0  0  0  0  0  0
  138.6130  158.9660  131.3330 C   0  0  0  0  0  0  0  0  0  0  0  0
  139.3070  159.3490  132.5190 O   0  0  0  0  0  0  0  0  0  0  0  0
  139.6410  158.4530  133.5410 C   0  0  0  0  0  0  0  0  0  0  0  0
  138.8290  158.2270  134.4800 O   0  0  0  0  0  0  0  0  0  0  0  0
  140.9140  157.7860  133.5160 N   0  0  0  0  0  0  0  0  0  0  0  0
  141.1470  156.4610  133.2970 C   0  0  0  0  0  0  0  0  0  0  0  0
  140.1200  155.4050  133.2120 C   0  0  0  0  0  0  0  0  0  0  0  0
  138.7460  155.7260  132.9810 N   0  0  0  0  0  0  0  0  0  0  0  0
  140.4480  154.2040  133.4010 O   0  0  0  0  0  0  0  0  0  0  0  0
  142.5140  156.2090  133.2110 C   0  0  0  0  0  0  0  0  0  0  0  0
  143.1200  157.4290  133.3980 C   0  0  0  0  0  0  0  0  0  0  0  0
  144.4710  157.7640  133.4000 C   0  0  0  0  0  0  0  0  0  0  0  0
  144.8160  159.1130  133.5820 C   0  0  0  0  0  0  0  0  0  0  0  0
  143.8100  160.0990  133.7400 C   0  0  0  0  0  0  0  0  0  0  0  0
  144.1910  161.5410  133.9520 C   0  0  0  0  0  0  0  0  0  0  0  0
  145.7030  161.7020  134.1210 C   0  0  0  0  0  0  0  0  0  0  0  0
  146.0080  162.9340  134.7170 O   0  0  0  0  0  0  0  0  0  0  0  0
  142.4490  159.7220  133.7390 C   0  0  0  0  0  0  0  0  0  0  0  0
  142.1350  158.3660  133.5770 C   0  0  0  0  0  0  0  0  0  0  0  0
  138.2439  161.0688  131.0323 H   0  0  0  0  0  0  0  0  0  0  0  0
  139.2895  160.3069  129.7861 H   0  0  0  0  0  0  0  0  0  0  0  0
  137.5203  159.9963  129.7861 H   0  0  0  0  0  0  0  0  0  0  0  0
  137.6346  158.5446  131.6072 H   0  0  0  0  0  0  0  0  0  0  0  0
  139.2145  158.2168  130.7974 H   0  0  0  0  0  0  0  0  0  0  0  0
  138.4150  156.7160  132.9860 H   0  0  0  0  0  0  0  0  0  0  0  0
  138.0400  154.9640  132.8830 H   0  0  0  0  0  0  0  0  0  0  0  0
  143.0042  155.2407  133.0318 H   0  0  0  0  0  0  0  0  0  0  0  0
  145.2454  156.9949  133.2631 H   0  0  0  0  0  0  0  0  0  0  0  0
  145.8758  159.4070  133.6021 H   0  0  0  0  0  0  0  0  0  0  0  0
  143.8639  162.1289  133.0817 H   0  0  0  0  0  0  0  0  0  0  0  0
  143.7011  161.8961  134.8706 H   0  0  0  0  0  0  0  0  0  0  0  0
  146.0835  160.8893  134.7572 H   0  0  0  0  0  0  0  0  0  0  0  0
  146.1753  161.6635  133.1283 H   0  0  0  0  0  0  0  0  0  0  0  0
  146.9970  163.0220  134.7060 H   0  0  0  0  0  0  0  0  0  0  0  0
  141.6555  160.4738  133.8623 H   0  0  0  0  0  0  0  0  0  0  0  0
  1  2  1  0
  2  3  1  0
  3  4  1  0
  4  5  2  0
  4  6  1  0
  6  7  1  0
  7  8  1  0
  8  9  1  0
  8 10  2  0
  7 11  2  0
 11 12  1  0
 12 13  2  0
 13 14  1  0
 14 15  2  0
 15 16  1  0
 16 17  1  0
 17 18  1  0
 15 19  1  0
 19 20  2  0
 20  6  1  0
 20 12  1  0
  1 21  1  0
  1 22  1  0
  1 23  1  0
  2 24  1  0
  2 25  1  0
  9 26  1  0
  9 27  1  0
 11 28  1  0
 13 29  1  0
 14 30  1  0
 16 31  1  0
 16 32  1  0
 17 33  1  0
 17 34  1  0
 18 35  1  0
 19 36  1  0
M  END
>  <UniqueID>  (13) 
13

>  <SMILES>  (13) 
CCOC(=O)n1c(C(N)=O)cc2ccc(CCO)cc21

>  <Energy>  (13) 
68.58872002618

>  <Genealogy>  (13) 
CCOC(=O)n1c(C(N)=O)cc2ccc(CCO)cc21 (3D coordinates assigned)
CCOC(=O)n1c(C(N)=O)cc2ccc(CCO)cc21 (optimized conformer: 68.58872002618 kcal/mol)

>  <smiles>  (13) 
CCOC(=O)n1c(C(N)=O)cc2ccc(CCO)cc21

>  <score_type>  (13) 
oracle

>  <origin>  (13) 
adg

>  <m_score__min__energy>  (13) 
-6.7300000000000004

>  <m_primary>  (13) 
energy

$$$$
13:0
     RDKit          3D

 40 41  0  0  0  0  0  0  0  0999 V2000
  144.3700  155.2500  134.5130 C   0  0  0  0  0  0  0  0  0  0  0  0
  143.7070  156.0810  133.4610 C   0  0  0  0  0  0  0  0  0  0  0  0
  143.4900  155.5800  132.3260 O   0  0  0  0  0  0  0  0  0  0  0  0
  143.3810  157.4580  133.7060 N   0  0  0  0  0  0  0  0  0  0  0  0
  142.1820  157.9870  134.0820 C   0  0  0  0  0  0  0  0  0  0  0  0
  140.9070  157.2480  134.1860 C   0  0  0  0  0  0  0  0  0  0  0  0
  140.6300  156.1800  133.2860 N   0  0  0  0  0  0  0  0  0  0  0  0
  140.0710  157.5320  135.0840 O   0  0  0  0  0  0  0  0  0  0  0  0
  142.2970  159.3620  134.2790 C   0  0  0  0  0  0  0  0  0  0  0  0
  143.6120  159.6620  134.0010 C   0  0  0  0  0  0  0  0  0  0  0  0
  144.2810  160.8810  134.0410 C   0  0  0  0  0  0  0  0  0  0  0  0
  145.6490  160.8920  133.7210 C   0  0  0  0  0  0  0  0  0  0  0  0
  146.3230  159.6930  133.3690 C   0  0  0  0  0  0  0  0  0  0  0  0
  147.8050  159.7250  133.0430 C   0  0  2  0  0  0  0  0  0  0  0  0
  148.0180  159.6800  131.5150 C   0  0  0  0  0  0  0  0  0  0  0  0
  149.4660  160.8410  130.9420 Br  0  0  0  0  0  0  0  0  0  0  0  0
  148.5320  158.5770  133.7700 C   0  0  0  0  0  0  0  0  0  0  0  0
  148.9580  157.6110  132.8390 O   0  0  0  0  0  0  0  0  0  0  0  0
  148.1040  156.1700  133.1070 S   0  0  0  0  0  0  0  0  0  0  0  0
  149.0710  154.7460  132.6490 C   0  0  0  0  0  0  0  0  0  0  0  0
  146.8630  156.1910  132.2590 O   0  0  0  0  0  0  0  0  0  0  0  0
  147.6990  156.0670  134.5510 O   0  0  0  0  0  0  0  0  0  0  0  0
  145.6040  158.4730  133.3430 C   0  0  0  0  0  0  0  0  0  0  0  0
  144.2420  158.4970  133.6550 C   0  0  0  0  0  0  0  0  0  0  0  0
  144.0776  155.6165  135.5081 H   0  0  0  0  0  0  0  0  0  0  0  0
  144.0579  154.2010  134.4023 H   0  0  0  0  0  0  0  0  0  0  0  0
  145.4621  155.3213  134.4023 H   0  0  0  0  0  0  0  0  0  0  0  0
  141.3470  155.8550  132.5990 H   0  0  0  0  0  0  0  0  0  0  0  0
  141.5054  160.0595  134.5904 H   0  0  0  0  0  0  0  0  0  0  0  0
  143.7552  161.8076  134.3147 H   0  0  0  0  0  0  0  0  0  0  0  0
  146.2046  161.8411  133.7434 H   0  0  0  0  0  0  0  0  0  0  0  0
  148.2402  160.6688  133.4032 H   0  0  0  0  0  0  0  0  0  0  0  0
  148.2545  158.6469  131.2205 H   0  0  0  0  0  0  0  0  0  0  0  0
  147.0930  160.0313  131.0344 H   0  0  0  0  0  0  0  0  0  0  0  0
  149.4059  158.9792  134.3034 H   0  0  0  0  0  0  0  0  0  0  0  0
  147.8411  158.1083  134.4862 H   0  0  0  0  0  0  0  0  0  0  0  0
  149.4199  154.2323  133.5569 H   0  0  0  0  0  0  0  0  0  0  0  0
  148.4521  154.0586  132.0536 H   0  0  0  0  0  0  0  0  0  0  0  0
  149.9382  155.0677  132.0536 H   0  0  0  0  0  0  0  0  0  0  0  0
  146.1057  157.5291  133.0834 H   0  0  0  0  0  0  0  0  0  0  0  0
  1  2  1  0
  2  3  2  0
  2  4  1  0
  4  5  1  0
  5  6  1  0
  6  7  1  0
  6  8  2  0
  5  9  2  0
  9 10  1  0
 10 11  2  0
 11 12  1  0
 12 13  2  0
 13 14  1  0
 14 15  1  0
 15 16  1  0
 14 17  1  0
 17 18  1  0
 18 19  1  0
 19 20  1  0
 19 21  2  0
 19 22  2  0
 13 23  1  0
 23 24  2  0
 24  4  1  0
 24 10  1  0
  1 25  1  0
  1 26  1  0
  1 27  1  0
  7 28  1  0
  9 29  1  0
 11 30  1  0
 12 31  1  0
 14 32  1  1
 15 33  1  0
 15 34  1  0
 17 35  1  0
 17 36  1  0
 20 37  1  0
 20 38  1  0
 20 39  1  0
 23 40  1  0
M  CHG  1   7  -1
M  END
>  <UniqueID>  (14) 
14

>  <SMILES>  (14) 
CC(=O)n1c(C([NH-])=O)cc2ccc([C@H](CBr)COS(C)(=O)=O)cc21

>  <Energy>  (14) 
74.23143710816846

>  <Genealogy>  (14) 
CC(=O)n1c(C([NH-])=O)cc2ccc(C(CBr)COS(C)(=O)=O)cc21 (protonated)
CC(=O)n1c(C([NH-])=O)cc2ccc([C@H](CBr)COS(C)(=O)=O)cc21 (chirality)
CC(=O)n1c(C([NH-])=O)cc2ccc([C@H](CBr)COS(C)(=O)=O)cc21 (3D coordinates assigned)
CC(=O)n1c(C([NH-])=O)cc2ccc([C@H](CBr)COS(C)(=O)=O)cc21 (optimized conformer: 74.23143710816846 kcal/mol)

>  <smiles>  (14) 
CC(=O)n1c(C(N)=O)cc2ccc(C(CBr)COS(C)(=O)=O)cc21

>  <score_type>  (14) 
oracle

>  <origin>  (14) 
adg

>  <m_score__min__energy>  (14) 
-8.0800000000000001

>  <m_primary>  (14) 
energy

$$$$
14:0
     RDKit          3D

 47 48  0  0  0  0  0  0  0  0999 V2000
  141.1000  157.6320  134.9260 C   0  0  0  0  0  0  0  0  0  0  0  0
  142.1630  156.5240  135.0510 C   0  0  0  0  0  0  0  0  0  0  0  0
  141.8020  155.3780  134.0950 C   0  0  0  0  0  0  0  0  0  0  0  0
  142.2130  155.9750  136.4900 C   0  0  0  0  0  0  0  0  0  0  0  0
  143.4520  157.0140  134.6550 O   0  0  0  0  0  0  0  0  0  0  0  0
  143.7550  157.6940  133.4660 C   0  0  0  0  0  0  0  0  0  0  0  0
  142.9580  157.6790  132.4900 O   0  0  0  0  0  0  0  0  0  0  0  0
  144.9760  158.4430  133.3760 N   0  0  0  0  0  0  0  0  0  0  0  0
  145.1560  159.7810  133.5650 C   0  0  0  0  0  0  0  0  0  0  0  0
  144.0860  160.7860  133.7350 C   0  0  0  0  0  0  0  0  0  0  0  0
  142.7310  160.4750  133.4250 N   0  0  0  0  0  0  0  0  0  0  0  0
  144.3800  161.9510  134.1160 O   0  0  0  0  0  0  0  0  0  0  0  0
  146.5090  160.1060  133.4940 C   0  0  0  0  0  0  0  0  0  0  0  0
  147.1570  158.9180  133.2460 C   0  0  0  0  0  0  0  0  0  0  0  0
  148.5160  158.6510  133.1000 C   0  0  0  0  0  0  0  0  0  0  0  0
  148.9070  157.3190  132.8910 C   0  0  0  0  0  0  0  0  0  0  0  0
  147.9420  156.2820  132.8450 C   0  0  0  0  0  0  0  0  0  0  0  0
  148.3770  154.8490  132.6610 C   0  0  0  0  0  0  0  0  0  0  0  0
  148.1080  153.9780  133.9010 C   0  0  0  0  0  0  0  0  0  0  0  0
  146.6120  153.7340  134.1740 C   0  0  0  0  0  0  0  0  0  0  0  0
  146.2340  154.0220  135.6000 C   0  0  0  0  0  0  0  0  0  0  0  0
  145.2310  154.9900  135.9060 N   0  0  0  0  0  0  0  0  0  0  0  0
  146.8210  153.4180  136.5380 O   0  0  0  0  0  0  0  0  0  0  0  0
  146.5710  156.5920  132.9860 C   0  0  0  0  0  0  0  0  0  0  0  0
  146.2100  157.9300  133.1790 C   0  0  0  0  0  0  0  0  0  0  0  0
  140.7887  157.9564  135.9299 H   0  0  0  0  0  0  0  0  0  0  0  0
  141.5242  158.4871  134.3794 H   0  0  0  0  0  0  0  0  0  0  0  0
  140.2280  157.2436  134.3794 H   0  0  0  0  0  0  0  0  0  0  0  0
  141.5218  154.4885  134.6783 H   0  0  0  0  0  0  0  0  0  0  0  0
  140.9561  155.6821  133.4609 H   0  0  0  0  0  0  0  0  0  0  0  0
  142.6694  155.1424  133.4609 H   0  0  0  0  0  0  0  0  0  0  0  0
  142.1371  156.8088  137.2034 H   0  0  0  0  0  0  0  0  0  0  0  0
  141.3744  155.2807  136.6469 H   0  0  0  0  0  0  0  0  0  0  0  0
  143.1633  155.4436  136.6469 H   0  0  0  0  0  0  0  0  0  0  0  0
  142.4940  159.7970  132.6660 H   0  0  0  0  0  0  0  0  0  0  0  0
  146.9627  161.1012  133.6113 H   0  0  0  0  0  0  0  0  0  0  0  0
  149.2605  159.4594  133.1470 H   0  0  0  0  0  0  0  0  0  0  0  0
  149.9724  157.0779  132.7617 H   0  0  0  0  0  0  0  0  0  0  0  0
  147.8298  154.4229  131.8072 H   0  0  0  0  0  0  0  0  0  0  0  0
  149.4636  154.8531  132.4896 H   0  0  0  0  0  0  0  0  0  0  0  0
  148.5975  153.0039  133.7539 H   0  0  0  0  0  0  0  0  0  0  0  0
  148.5084  154.5223  134.7690 H   0  0  0  0  0  0  0  0  0  0  0  0
  146.0217  154.3863  133.5137 H   0  0  0  0  0  0  0  0  0  0  0  0
  146.4055  152.6709  133.9810 H   0  0  0  0  0  0  0  0  0  0  0  0
  144.7420  155.5140  135.1460 H   0  0  0  0  0  0  0  0  0  0  0  0
  144.9650  155.1750  136.8980 H   0  0  0  0  0  0  0  0  0  0  0  0
  145.8069  155.8018  132.9451 H   0  0  0  0  0  0  0  0  0  0  0  0
  1  2  1  0
  2  3  1  0
  2  4  1  0
  2  5  1  0
  5  6  1  0
  6  7  2  0
  6  8  1  0
  8  9  1  0
  9 10  1  0
 10 11  1  0
 10 12  2  0
  9 13  2  0
 13 14  1  0
 14 15  2  0
 15 16  1  0
 16 17  2  0
 17 18  1  0
 18 19  1  0
 19 20  1  0
 20 21  1  0
 21 22  1  0
 21 23  2  0
 17 24  1  0
 24 25  2  0
 25  8  1  0
 25 14  1  0
  1 26  1  0
  1 27  1  0
  1 28  1  0
  3 29  1  0
  3 30  1  0
  3 31  1  0
  4 32  1  0
  4 33  1  0
  4 34  1  0
 11 35  1  0
 13 36  1  0
 15 37  1  0
 16 38  1  0
 18 39  1  0
 18 40  1  0
 19 41  1  0
 19 42  1  0
 20 43  1  0
 20 44  1  0
 22 45  1  0
 22 46  1  0
 24 47  1  0
M  CHG  1  11  -1
M  END
>  <UniqueID>  (15) 
15

>  <SMILES>  (15) 
CC(C)(C)OC(=O)n1c(C([NH-])=O)cc2ccc(CCCC(N)=O)cc21

>  <Energy>  (15) 
74.32525482396828

>  <Genealogy>  (15) 
CC(C)(C)OC(=O)n1c(C([NH-])=O)cc2ccc(CCCC(N)=O)cc21 (protonated)
CC(C)(C)OC(=O)n1c(C([NH-])=O)cc2ccc(CCCC(N)=O)cc21 (3D coordinates assigned)
CC(C)(C)OC(=O)n1c(C([NH-])=O)cc2ccc(CCCC(N)=O)cc21 (optimized conformer: 74.32525482396828 kcal/mol)

>  <smiles>  (15) 
CC(C)(C)OC(=O)n1c(C(N)=O)cc2ccc(CCCC(N)=O)cc21

>  <score_type>  (15) 
oracle

>  <origin>  (15) 
adg

>  <m_score__min__energy>  (15) 
-8.3699999999999992

>  <m_primary>  (15) 
energy

$$$$
15:0
     RDKit          3D

 37 39  0  0  0  0  0  0  0  0999 V2000
  143.2490  157.6260  132.9710 C   0  0  0  0  0  0  0  0  0  0  0  0
  143.0270  156.1730  132.9240 N   0  0  1  0  0  0  0  0  0  0  0  0
  144.2510  155.4010  132.6710 C   0  0  0  0  0  0  0  0  0  0  0  0
  144.1940  154.7270  134.0390 C   0  0  1  0  0  0  0  0  0  0  0  0
  145.3670  155.1000  134.9600 C   0  0  0  0  0  0  0  0  0  0  0  0
  146.4670  155.7650  134.1760 C   0  0  0  0  0  0  0  0  0  0  0  0
  147.5710  155.0080  133.7110 C   0  0  0  0  0  0  0  0  0  0  0  0
  148.5940  155.6180  132.9650 C   0  0  0  0  0  0  0  0  0  0  0  0
  148.4780  156.9770  132.6890 C   0  0  0  0  0  0  0  0  0  0  0  0
  149.3300  157.8180  132.0110 C   0  0  0  0  0  0  0  0  0  0  0  0
  148.7190  159.0690  132.0440 C   0  0  0  0  0  0  0  0  0  0  0  0
  149.2600  160.2550  131.3490 C   0  0  0  0  0  0  0  0  0  0  0  0
  148.4700  161.4290  131.1770 N   0  0  0  0  0  0  0  0  0  0  0  0
  150.4190  160.2130  130.8550 O   0  0  0  0  0  0  0  0  0  0  0  0
  147.5390  159.0080  132.7250 N   0  0  0  0  0  0  0  0  0  0  0  0
  146.6610  160.0960  133.0600 C   0  0  0  0  0  0  0  0  0  0  0  0
  147.0910  161.0820  133.7160 O   0  0  0  0  0  0  0  0  0  0  0  0
  145.3380  160.0830  132.6390 O   0  0  0  0  0  0  0  0  0  0  0  0
  147.4050  157.7190  133.1110 C   0  0  0  0  0  0  0  0  0  0  0  0
  146.3820  157.1410  133.8730 C   0  0  0  0  0  0  0  0  0  0  0  0
  142.9290  155.5540  134.2530 C   0  0  0  0  0  0  0  0  0  0  0  0
  143.2993  157.9555  134.0193 H   0  0  0  0  0  0  0  0  0  0  0  0
  144.1947  157.8690  132.4644 H   0  0  0  0  0  0  0  0  0  0  0  0
  142.4190  158.1403  132.4644 H   0  0  0  0  0  0  0  0  0  0  0  0
  142.2370  155.8960  132.2920 H   0  0  0  0  0  0  0  0  0  0  0  0
  145.1433  156.0282  132.5280 H   0  0  0  0  0  0  0  0  0  0  0  0
  144.3080  154.7730  131.7697 H   0  0  0  0  0  0  0  0  0  0  0  0
  144.2192  153.6362  134.1788 H   0  0  0  0  0  0  0  0  0  0  0  0
  145.0099  155.7904  135.7384 H   0  0  0  0  0  0  0  0  0  0  0  0
  145.7636  154.1818  135.4179 H   0  0  0  0  0  0  0  0  0  0  0  0
  147.6278  153.9328  133.9361 H   0  0  0  0  0  0  0  0  0  0  0  0
  149.4595  155.0392  132.6103 H   0  0  0  0  0  0  0  0  0  0  0  0
  150.2904  157.5575  131.5422 H   0  0  0  0  0  0  0  0  0  0  0  0
  148.0990  161.9520  132.0000 H   0  0  0  0  0  0  0  0  0  0  0  0
  145.5331  157.7445  134.2267 H   0  0  0  0  0  0  0  0  0  0  0  0
  143.0110  156.2750  135.0797 H   0  0  0  0  0  0  0  0  0  0  0  0
  141.9978  155.0405  134.5344 H   0  0  0  0  0  0  0  0  0  0  0  0
  1  2  1  0
  2  3  1  0
  3  4  1  0
  4  5  1  0
  5  6  1  0
  6  7  2  0
  7  8  1  0
  8  9  2  0
  9 10  1  0
 10 11  2  0
 11 12  1  0
 12 13  1  0
 12 14  2  0
 11 15  1  0
 15 16  1  0
 16 17  2  0
 16 18  1  0
 15 19  1  0
 19 20  2  0
  4 21  1  0
 21  2  1  0
 20  6  1  0
 19  9  1  0
  1 22  1  0
  1 23  1  0
  1 24  1  0
  2 25  1  6
  3 26  1  0
  3 27  1  0
  4 28  1  6
  5 29  1  0
  5 30  1  0
  7 31  1  0
  8 32  1  0
 10 33  1  0
 13 34  1  0
 20 35  1  0
 21 36  1  0
 21 37  1  0
M  CHG  3   2   1  13  -1  18  -1
M  END
>  <UniqueID>  (16) 
16

>  <SMILES>  (16) 
C[NH+]1CC(Cc2ccc3cc(C([NH-])=O)n(C(=O)[O-])c3c2)C1

>  <Energy>  (16) 
147.54471222414918

>  <Genealogy>  (16) 
C[NH+]1CC(Cc2ccc3cc(C([NH-])=O)n(C(=O)[O-])c3c2)C1 (protonated)
C[NH+]1CC(Cc2ccc3cc(C([NH-])=O)n(C(=O)[O-])c3c2)C1 (3D coordinates assigned)
C[NH+]1CC(Cc2ccc3cc(C([NH-])=O)n(C(=O)[O-])c3c2)C1 (nonaromatic ring conformer: 147.54471222414918 kcal/mol)

>  <smiles>  (16) 
CN1CC(Cc2ccc3cc(C(N)=O)n(C(=O)O)c3c2)C1

>  <score_type>  (16) 
oracle

>  <origin>  (16) 
adg

>  <m_score__min__energy>  (16) 
-6.5099999999999998

>  <m_primary>  (16) 
energy

$$$$
16:0
     RDKit          3D

 34 36  0  0  0  0  0  0  0  0999 V2000
  143.0980  157.8380  132.6100 N   0  0  0  0  0  0  0  0  0  0  0  0
  142.9780  156.8900  133.6670 C   0  0  0  0  0  0  0  0  0  0  0  0
  143.0450  157.2870  134.8610 O   0  0  0  0  0  0  0  0  0  0  0  0
  142.7240  155.4630  133.3830 C   0  0  0  0  0  0  0  0  0  0  0  0
  143.7370  154.5290  133.1750 C   0  0  0  0  0  0  0  0  0  0  0  0
  143.0950  153.3200  133.0290 C   0  0  0  0  0  0  0  0  0  0  0  0
  143.6170  152.0520  132.7980 C   0  0  0  0  0  0  0  0  0  0  0  0
  142.7150  150.9830  132.6630 C   0  0  0  0  0  0  0  0  0  0  0  0
  141.3160  151.2010  132.7330 C   0  0  0  0  0  0  0  0  0  0  0  0
  140.3610  150.0390  132.6230 C   0  0  0  0  0  0  0  0  0  0  0  0
  139.1160  150.4690  132.1940 F   0  0  0  0  0  0  0  0  0  0  0  0
  140.2280  149.4400  133.8610 F   0  0  0  0  0  0  0  0  0  0  0  0
  140.8320  149.1050  131.7160 F   0  0  0  0  0  0  0  0  0  0  0  0
  140.8250  152.5020  132.9940 C   0  0  0  0  0  0  0  0  0  0  0  0
  141.7480  153.5450  133.1430 C   0  0  0  0  0  0  0  0  0  0  0  0
  141.5040  154.8560  133.3590 N   0  0  0  0  0  0  0  0  0  0  0  0
  140.2130  155.4800  133.4330 C   0  0  0  0  0  0  0  0  0  0  0  0
  139.3390  155.2220  132.5610 O   0  0  0  0  0  0  0  0  0  0  0  0
  139.9400  156.3910  134.4610 O   0  0  0  0  0  0  0  0  0  0  0  0
  139.1650  157.5710  134.2740 C   0  0  0  0  0  0  0  0  0  0  0  0
  140.0140  158.6610  133.6950 C   0  0  0  0  0  0  0  0  0  0  0  0
  141.0450  159.1980  134.3030 O   0  0  0  0  0  0  0  0  0  0  0  0
  141.5250  160.0940  133.4720 C   0  0  0  0  0  0  0  0  0  0  0  0
  142.5270  160.8130  133.7220 O   0  0  0  0  0  0  0  0  0  0  0  0
  140.8450  160.1570  132.3500 O   0  0  0  0  0  0  0  0  0  0  0  0
  139.8870  159.2660  132.4580 C   0  0  0  0  0  0  0  0  0  0  0  0
  138.5800  158.9130  131.1120 Br  0  0  0  0  0  0  0  0  0  0  0  0
  142.4860  158.6830  132.5740 H   0  0  0  0  0  0  0  0  0  0  0  0
  144.8200  154.7177  133.1358 H   0  0  0  0  0  0  0  0  0  0  0  0
  144.7026  151.8907  132.7233 H   0  0  0  0  0  0  0  0  0  0  0  0
  143.0990  149.9650  132.5011 H   0  0  0  0  0  0  0  0  0  0  0  0
  139.7444  152.6899  133.0779 H   0  0  0  0  0  0  0  0  0  0  0  0
  138.3334  157.3545  133.5873 H   0  0  0  0  0  0  0  0  0  0  0  0
  138.7722  157.9005  135.2472 H   0  0  0  0  0  0  0  0  0  0  0  0
  1  2  1  0
  2  3  2  0
  2  4  1  0
  4  5  2  0
  5  6  1  0
  6  7  2  0
  7  8  1  0
  8  9  2  0
  9 10  1  0
 10 11  1  0
 10 12  1  0
 10 13  1  0
  9 14  1  0
 14 15  2  0
 15 16  1  0
 16 17  1  0
 17 18  2  0
 17 19  1  0
 19 20  1  0
 20 21  1  0
 21 22  1  0
 22 23  1  0
 23 24  2  0
 23 25  1  0
 25 26  1  0
 26 27  1  0
 16  4  1  0
 26 21  2  0
 15  6  1  0
  1 28  1  0
  5 29  1  0
  7 30  1  0
  8 31  1  0
 14 32  1  0
 20 33  1  0
 20 34  1  0
M  CHG  1   1  -1
M  END
>  <UniqueID>  (17) 
17

>  <SMILES>  (17) 
[NH-]C(=O)c1cc2ccc(C(F)(F)F)cc2n1C(=O)OCc1oc(=O)oc1Br

>  <Energy>  (17) 
107.3841264544112

>  <Genealogy>  (17) 
[NH-]C(=O)c1cc2ccc(C(F)(F)F)cc2n1C(=O)OCc1oc(=O)oc1Br (protonated)
[NH-]C(=O)c1cc2ccc(C(F)(F)F)cc2n1C(=O)OCc1oc(=O)oc1Br (3D coordinates assigned)
[NH-]C(=O)c1cc2ccc(C(F)(F)F)cc2n1C(=O)OCc1oc(=O)oc1Br (optimized conformer: 107.3841264544112 kcal/mol)

>  <smiles>  (17) 
NC(=O)c1cc2ccc(C(F)(F)F)cc2n1C(=O)OCc1oc(=O)oc1Br

>  <score_type>  (17) 
oracle

>  <origin>  (17) 
adg

>  <m_score__min__energy>  (17) 
-6.7199999999999998

>  <m_primary>  (17) 
energy

$$$$
17:0
     RDKit          3D

 43 45  0  0  0  0  0  0  0  0999 V2000
  141.6620  156.6210  136.5120 C   0  0  0  0  0  0  0  0  0  0  0  0
  141.8080  157.6280  135.3620 C   0  0  0  0  0  0  0  0  0  0  0  0
  141.8990  159.0480  135.9520 C   0  0  0  0  0  0  0  0  0  0  0  0
  140.5860  157.5020  134.4320 C   0  0  0  0  0  0  0  0  0  0  0  0
  143.0130  157.2960  134.6590 O   0  0  0  0  0  0  0  0  0  0  0  0
  143.4570  157.8600  133.4540 C   0  0  0  0  0  0  0  0  0  0  0  0
  142.7340  157.8370  132.4220 O   0  0  0  0  0  0  0  0  0  0  0  0
  144.7440  158.4960  133.4060 N   0  0  0  0  0  0  0  0  0  0  0  0
  145.0340  159.8190  133.5730 C   0  0  0  0  0  0  0  0  0  0  0  0
  144.0490  160.9130  133.7120 C   0  0  0  0  0  0  0  0  0  0  0  0
  142.6860  160.6880  133.3600 N   0  0  0  0  0  0  0  0  0  0  0  0
  144.3910  162.0340  134.1730 O   0  0  0  0  0  0  0  0  0  0  0  0
  146.4100  160.0260  133.5130 C   0  0  0  0  0  0  0  0  0  0  0  0
  146.9580  158.7830  133.2940 C   0  0  0  0  0  0  0  0  0  0  0  0
  148.2880  158.4030  133.1590 C   0  0  0  0  0  0  0  0  0  0  0  0
  148.5700  157.0400  132.9640 C   0  0  0  0  0  0  0  0  0  0  0  0
  147.5200  156.0820  132.9130 C   0  0  0  0  0  0  0  0  0  0  0  0
  147.7840  154.6770  132.7250 N   0  0  0  0  0  0  0  0  0  0  0  0
  148.4700  153.8270  133.6970 C   0  0  0  0  0  0  0  0  0  0  0  0
  147.6550  153.6930  134.9430 C   0  0  0  0  0  0  0  0  0  0  0  0
  146.3430  153.9790  135.0270 N   0  0  0  0  0  0  0  0  0  0  0  0
  146.0320  153.7500  136.2920 N   0  0  0  0  0  0  0  0  0  0  0  0
  147.1070  153.3470  136.9520 N   0  0  0  0  0  0  0  0  0  0  0  0
  148.1450  153.3040  136.1340 N   0  0  0  0  0  0  0  0  0  0  0  0
  146.1830  156.5110  133.0600 C   0  0  0  0  0  0  0  0  0  0  0  0
  145.9320  157.8780  133.2340 C   0  0  0  0  0  0  0  0  0  0  0  0
  141.7386  157.1492  137.4738 H   0  0  0  0  0  0  0  0  0  0  0  0
  140.6826  156.1251  136.4430 H   0  0  0  0  0  0  0  0  0  0  0  0
  142.4603  155.8673  136.4430 H   0  0  0  0  0  0  0  0  0  0  0  0
  141.8953  158.9896  137.0504 H   0  0  0  0  0  0  0  0  0  0  0  0
  142.8297  159.5268  135.6134 H   0  0  0  0  0  0  0  0  0  0  0  0
  141.0371  159.6417  135.6134 H   0  0  0  0  0  0  0  0  0  0  0  0
  139.6725  157.4078  135.0376 H   0  0  0  0  0  0  0  0  0  0  0  0
  140.5144  158.3975  133.7973 H   0  0  0  0  0  0  0  0  0  0  0  0
  140.6987  156.6107  133.7973 H   0  0  0  0  0  0  0  0  0  0  0  0
  142.4290  159.9860  132.6300 H   0  0  0  0  0  0  0  0  0  0  0  0
  146.9454  160.9811  133.6184 H   0  0  0  0  0  0  0  0  0  0  0  0
  149.0966  159.1475  133.2035 H   0  0  0  0  0  0  0  0  0  0  0  0
  149.6134  156.7108  132.8497 H   0  0  0  0  0  0  0  0  0  0  0  0
  147.4790  154.2280  131.8320 H   0  0  0  0  0  0  0  0  0  0  0  0
  148.6277  152.8305  133.2587 H   0  0  0  0  0  0  0  0  0  0  0  0
  149.4364  154.2866  133.9518 H   0  0  0  0  0  0  0  0  0  0  0  0
  145.3555  155.7866  133.0383 H   0  0  0  0  0  0  0  0  0  0  0  0
  1  2  1  0
  2  3  1  0
  2  4  1  0
  2  5  1  0
  5  6  1  0
  6  7  2  0
  6  8  1  0
  8  9  1  0
  9 10  1  0
 10 11  1  0
 10 12  2  0
  9 13  2  0
 13 14  1  0
 14 15  2  0
 15 16  1  0
 16 17  2  0
 17 18  1  0
 18 19  1  0
 19 20  1  0
 20 21  1  0
 21 22  2  0
 22 23  1  0
 23 24  1  0
 17 25  1  0
 25 26  2  0
 26  8  1  0
 26 14  1  0
 24 20  2  0
  1 27  1  0
  1 28  1  0
  1 29  1  0
  3 30  1  0
  3 31  1  0
  3 32  1  0
  4 33  1  0
  4 34  1  0
  4 35  1  0
 11 36  1  0
 13 37  1  0
 15 38  1  0
 16 39  1  0
 18 40  1  0
 19 41  1  0
 19 42  1  0
 25 43  1  0
M  CHG  2  11  -1  23  -1
M  END
>  <UniqueID>  (18) 
18

>  <SMILES>  (18) 
CC(C)(C)OC(=O)n1c(C([NH-])=O)cc2ccc(NCc3nn[n-]n3)cc21

>  <Energy>  (18) 
115.57906252072966

>  <Genealogy>  (18) 
CC(C)(C)OC(=O)n1c(C([NH-])=O)cc2ccc(NCc3nn[n-]n3)cc21 (protonated)
CC(C)(C)OC(=O)n1c(C([NH-])=O)cc2ccc(NCc3nn[n-]n3)cc21 (3D coordinates assigned)
CC(C)(C)OC(=O)n1c(C([NH-])=O)cc2ccc(NCc3nn[n-]n3)cc21 (optimized conformer: 115.57906252072966 kcal/mol)

>  <smiles>  (18) 
CC(C)(C)OC(=O)n1c(C(N)=O)cc2ccc(NCc3nn[nH]n3)cc21

>  <score_type>  (18) 
oracle

>  <origin>  (18) 
adg

>  <m_score__min__energy>  (18) 
-8.0099999999999998

>  <m_primary>  (18) 
energy

$$$$
18:0
     RDKit          3D

 44 45  0  0  0  0  0  0  0  0999 V2000
  139.7210  149.1880  131.4360 C   0  0  0  0  0  0  0  0  0  0  0  0
  140.6200  149.8540  132.4720 C   0  0  0  0  0  0  0  0  0  0  0  0
  140.2100  151.2010  132.6960 O   0  0  0  0  0  0  0  0  0  0  0  0
  141.0970  152.2350  133.0190 C   0  0  0  0  0  0  0  0  0  0  0  0
  141.3880  153.1170  132.1690 O   0  0  0  0  0  0  0  0  0  0  0  0
  141.7210  152.2680  134.3500 C   0  0  0  0  0  0  0  0  0  0  0  0
  141.3310  151.4630  135.2400 O   0  0  0  0  0  0  0  0  0  0  0  0
  142.7410  153.2330  134.6450 N   0  0  0  0  0  0  0  0  0  0  0  0
  142.9260  153.7830  135.9880 C   0  0  0  0  0  0  0  0  0  0  0  0
  143.6760  155.1180  135.9180 C   0  0  0  0  0  0  0  0  0  0  0  0
  144.3210  155.2870  134.6550 O   0  0  0  0  0  0  0  0  0  0  0  0
  143.7080  155.8700  133.5410 C   0  0  0  0  0  0  0  0  0  0  0  0
  143.6080  155.2310  132.4570 O   0  0  0  0  0  0  0  0  0  0  0  0
  143.2220  157.2190  133.6250 N   0  0  0  0  0  0  0  0  0  0  0  0
  141.9530  157.6330  133.9000 C   0  0  0  0  0  0  0  0  0  0  0  0
  140.7610  156.7640  133.9910 C   0  0  0  0  0  0  0  0  0  0  0  0
  140.7150  155.5090  133.3190 N   0  0  0  0  0  0  0  0  0  0  0  0
  139.7520  157.1560  134.6370 O   0  0  0  0  0  0  0  0  0  0  0  0
  141.9090  159.0190  134.0330 C   0  0  0  0  0  0  0  0  0  0  0  0
  143.2020  159.4450  133.8350 C   0  0  0  0  0  0  0  0  0  0  0  0
  143.7420  160.7260  133.9030 C   0  0  0  0  0  0  0  0  0  0  0  0
  145.1290  160.8670  133.7190 C   0  0  0  0  0  0  0  0  0  0  0  0
  145.9420  159.7360  133.4700 C   0  0  0  0  0  0  0  0  0  0  0  0
  147.4270  159.8910  133.3370 C   0  0  0  0  0  0  0  0  0  0  0  0
  148.0620  158.9360  134.1060 F   0  0  0  0  0  0  0  0  0  0  0  0
  145.3600  158.4500  133.4180 C   0  0  0  0  0  0  0  0  0  0  0  0
  143.9750  158.3400  133.5910 C   0  0  0  0  0  0  0  0  0  0  0  0
  138.9386  148.6084  131.9478 H   0  0  0  0  0  0  0  0  0  0  0  0
  139.2533  149.9593  130.8064 H   0  0  0  0  0  0  0  0  0  0  0  0
  140.3225  148.5159  130.8064 H   0  0  0  0  0  0  0  0  0  0  0  0
  140.5589  149.2949  133.4174 H   0  0  0  0  0  0  0  0  0  0  0  0
  141.6545  149.8543  132.0981 H   0  0  0  0  0  0  0  0  0  0  0  0
  143.2350  153.7040  133.8540 H   0  0  0  0  0  0  0  0  0  0  0  0
  141.9421  153.9436  136.4530 H   0  0  0  0  0  0  0  0  0  0  0  0
  143.5149  153.0730  136.5872 H   0  0  0  0  0  0  0  0  0  0  0  0
  142.9596  155.9393  136.0669 H   0  0  0  0  0  0  0  0  0  0  0  0
  144.4457  155.1246  136.7038 H   0  0  0  0  0  0  0  0  0  0  0  0
  141.4400  155.2540  132.6110 H   0  0  0  0  0  0  0  0  0  0  0  0
  141.0278  159.6406  134.2502 H   0  0  0  0  0  0  0  0  0  0  0  0
  143.1036  161.6010  134.0947 H   0  0  0  0  0  0  0  0  0  0  0  0
  145.5863  161.8662  133.7691 H   0  0  0  0  0  0  0  0  0  0  0  0
  147.7156  159.7640  132.2832 H   0  0  0  0  0  0  0  0  0  0  0  0
  147.7224  160.8932  133.6808 H   0  0  0  0  0  0  0  0  0  0  0  0
  145.9794  157.5574  133.2459 H   0  0  0  0  0  0  0  0  0  0  0  0
  1  2  1  0
  2  3  1  0
  3  4  1  0
  4  5  2  0
  4  6  1  0
  6  7  2  0
  6  8  1  0
  8  9  1  0
  9 10  1  0
 10 11  1  0
 11 12  1  0
 12 13  2  0
 12 14  1  0
 14 15  1  0
 15 16  1  0
 16 17  1  0
 16 18  2  0
 15 19  2  0
 19 20  1  0
 20 21  2  0
 21 22  1  0
 22 23  2  0
 23 24  1  0
 24 25  1  0
 23 26  1  0
 26 27  2  0
 27 14  1  0
 27 20  1  0
  1 28  1  0
  1 29  1  0
  1 30  1  0
  2 31  1  0
  2 32  1  0
  8 33  1  0
  9 34  1  0
  9 35  1  0
 10 36  1  0
 10 37  1  0
 17 38  1  0
 19 39  1  0
 21 40  1  0
 22 41  1  0
 24 42  1  0
 24 43  1  0
 26 44  1  0
M  CHG  1  17  -1
M  END
>  <UniqueID>  (19) 
19

>  <SMILES>  (19) 
CCOC(=O)C(=O)NCCOC(=O)n1c(C([NH-])=O)cc2ccc(CF)cc21

>  <Energy>  (19) 
69.07839839090694

>  <Genealogy>  (19) 
CCOC(=O)C(=O)NCCOC(=O)n1c(C([NH-])=O)cc2ccc(CF)cc21 (protonated)
CCOC(=O)C(=O)NCCOC(=O)n1c(C([NH-])=O)cc2ccc(CF)cc21 (3D coordinates assigned)
CCOC(=O)C(=O)NCCOC(=O)n1c(C([NH-])=O)cc2ccc(CF)cc21 (optimized conformer: 69.07839839090694 kcal/mol)

>  <smiles>  (19) 
CCOC(=O)C(=O)NCCOC(=O)n1c(C(N)=O)cc2ccc(CF)cc21

>  <score_type>  (19) 
oracle

>  <origin>  (19) 
adg

>  <m_score__min__energy>  (19) 
-6.4000000000000004

>  <m_primary>  (19) 
energy

$$$$
19:0
     RDKit          3D

 53 55  0  0  0  0  0  0  0  0999 V2000
  139.9010  158.1720  136.8420 C   0  0  0  0  0  0  0  0  0  0  0  0
  139.5230  157.1860  135.8980 O   0  0  0  0  0  0  0  0  0  0  0  0
  139.9880  157.4520  134.5770 C   0  0  2  0  0  0  0  0  0  0  0  0
  139.7890  158.9440  134.1430 C   0  0  0  0  0  0  0  0  0  0  0  0
  140.1940  159.2290  132.7220 C   0  0  0  0  0  0  0  0  0  0  0  0
  139.4510  159.9190  131.9750 O   0  0  0  0  0  0  0  0  0  0  0  0
  141.3870  158.7250  132.2220 O   0  0  0  0  0  0  0  0  0  0  0  0
  139.3880  156.4430  133.5660 C   0  0  0  0  0  0  0  0  0  0  0  0
  140.4240  155.3330  133.3640 C   0  0  0  0  0  0  0  0  0  0  0  0
  141.7880  155.9310  133.7130 C   0  0  2  0  0  0  0  0  0  0  0  0
  142.7090  154.9360  134.4460 C   0  0  0  0  0  0  0  0  0  0  0  0
  144.1570  155.3290  134.3060 C   0  0  0  0  0  0  0  0  0  0  0  0
  145.1850  154.3860  134.5620 C   0  0  0  0  0  0  0  0  0  0  0  0
  146.5360  154.7370  134.4020 C   0  0  0  0  0  0  0  0  0  0  0  0
  146.8260  156.0290  133.9730 C   0  0  0  0  0  0  0  0  0  0  0  0
  148.0410  156.6370  133.7370 C   0  0  0  0  0  0  0  0  0  0  0  0
  147.7310  157.9330  133.3250 C   0  0  0  0  0  0  0  0  0  0  0  0
  148.7460  158.9380  132.9400 C   0  0  0  0  0  0  0  0  0  0  0  0
  149.8490  158.5880  132.1090 N   0  0  0  0  0  0  0  0  0  0  0  0
  148.6420  160.1220  133.3600 O   0  0  0  0  0  0  0  0  0  0  0  0
  146.3820  158.1120  133.3020 N   0  0  0  0  0  0  0  0  0  0  0  0
  145.6630  159.3110  132.9740 C   0  0  0  0  0  0  0  0  0  0  0  0
  145.8970  159.8790  131.8730 O   0  0  0  0  0  0  0  0  0  0  0  0
  144.6880  159.9320  133.9530 C   0  0  1  0  0  0  0  0  0  0  0  0
  145.1150  161.3650  134.3000 C   0  0  0  0  0  0  0  0  0  0  0  0
  143.3320  159.9470  133.3950 N   0  0  0  0  0  0  0  0  0  0  0  0
  145.8430  156.9450  133.7090 C   0  0  0  0  0  0  0  0  0  0  0  0
  144.4930  156.6310  133.8760 C   0  0  0  0  0  0  0  0  0  0  0  0
  141.4420  157.1020  134.5640 C   0  0  0  0  0  0  0  0  0  0  0  0
  142.2790  157.7330  135.1950 O   0  0  0  0  0  0  0  0  0  0  0  0
  139.7514  157.7818  137.8595 H   0  0  0  0  0  0  0  0  0  0  0  0
  140.9612  158.4284  136.6998 H   0  0  0  0  0  0  0  0  0  0  0  0
  139.2839  159.0714  136.6998 H   0  0  0  0  0  0  0  0  0  0  0  0
  138.7248  159.1979  134.2566 H   0  0  0  0  0  0  0  0  0  0  0  0
  140.4415  159.5518  134.7871 H   0  0  0  0  0  0  0  0  0  0  0  0
  138.4548  156.0192  133.9654 H   0  0  0  0  0  0  0  0  0  0  0  0
  139.1556  156.9382  132.6117 H   0  0  0  0  0  0  0  0  0  0  0  0
  140.2025  154.4834  134.0267 H   0  0  0  0  0  0  0  0  0  0  0  0
  140.4090  154.9635  132.3280 H   0  0  0  0  0  0  0  0  0  0  0  0
  142.3642  156.2042  132.8167 H   0  0  0  0  0  0  0  0  0  0  0  0
  142.4431  154.9203  135.5133 H   0  0  0  0  0  0  0  0  0  0  0  0
  142.5733  153.9407  133.9978 H   0  0  0  0  0  0  0  0  0  0  0  0
  144.9218  153.3693  134.8892 H   0  0  0  0  0  0  0  0  0  0  0  0
  147.3387  154.0140  134.6091 H   0  0  0  0  0  0  0  0  0  0  0  0
  149.0416  156.1942  133.8497 H   0  0  0  0  0  0  0  0  0  0  0  0
  150.7590  158.2880  132.5230 H   0  0  0  0  0  0  0  0  0  0  0  0
  144.6913  159.3218  134.8683 H   0  0  0  0  0  0  0  0  0  0  0  0
  145.1501  161.4826  135.3931 H   0  0  0  0  0  0  0  0  0  0  0  0
  146.1112  161.5632  133.8778 H   0  0  0  0  0  0  0  0  0  0  0  0
  144.3897  162.0761  133.8778 H   0  0  0  0  0  0  0  0  0  0  0  0
  143.3800  159.6520  132.3920 H   0  0  0  0  0  0  0  0  0  0  0  0
  142.7660  159.2050  133.8690 H   0  0  0  0  0  0  0  0  0  0  0  0
  143.7111  157.3789  133.6776 H   0  0  0  0  0  0  0  0  0  0  0  0
  1  2  1  0
  3  2  1  1
  3  4  1  0
  4  5  1  0
  5  6  2  0
  5  7  1  0
  3  8  1  0
  8  9  1  0
  9 10  1  0
 10 11  1  0
 11 12  1  0
 12 13  2  0
 13 14  1  0
 14 15  2  0
 15 16  1  0
 16 17  2  0
 17 18  1  0
 18 19  1  0
 18 20  2  0
 17 21  1  0
 21 22  1  0
 22 23  2  0
 22 24  1  0
 24 25  1  0
 24 26  1  0
 21 27  1  0
 27 28  2  0
 10 29  1  0
 29 30  2  0
 29  3  1  0
 28 12  1  0
 27 15  1  0
  1 31  1  0
  1 32  1  0
  1 33  1  0
  4 34  1  0
  4 35  1  0
  8 36  1  0
  8 37  1  0
  9 38  1  0
  9 39  1  0
 10 40  1  6
 11 41  1  0
 11 42  1  0
 13 43  1  0
 14 44  1  0
 16 45  1  0
 19 46  1  0
 24 47  1  1
 25 48  1  0
 25 49  1  0
 25 50  1  0
 26 51  1  0
 26 52  1  0
 28 53  1  0
M  CHG  2   7  -1  19  -1
M  END
>  <UniqueID>  (20) 
20

>  <SMILES>  (20) 
CO[C@]1(CC(=O)[O-])CC[C@H](Cc2ccc3cc(C([NH-])=O)n(C(=O)C(C)N)c3c2)C1=O

>  <Energy>  (20) 
98.92586602728309

>  <Genealogy>  (20) 
COC1(CC(=O)[O-])CCC(Cc2ccc3cc(C([NH-])=O)n(C(=O)C(C)N)c3c2)C1=O (protonated)
CO[C@]1(CC(=O)[O-])CC[C@H](Cc2ccc3cc(C([NH-])=O)n(C(=O)C(C)N)c3c2)C1=O (chirality)
CO[C@]1(CC(=O)[O-])CC[C@H](Cc2ccc3cc(C([NH-])=O)n(C(=O)C(C)N)c3c2)C1=O (3D coordinates assigned)
CO[C@]1(CC(=O)[O-])CC[C@H](Cc2ccc3cc(C([NH-])=O)n(C(=O)C(C)N)c3c2)C1=O (nonaromatic ring conformer: 98.92586602728309 kcal/mol)

>  <smiles>  (20) 
COC1(CC(=O)O)CCC(Cc2ccc3cc(C(N)=O)n(C(=O)C(C)N)c3c2)C1=O

>  <score_type>  (20) 
oracle

>  <origin>  (20) 
adg

>  <m_score__min__energy>  (20) 
-8.8200000000000003

>  <m_primary>  (20) 
energy

$$$$
20:0
     RDKit          3D

 37 38  0  0  0  0  0  0  0  0999 V2000
  148.4880  158.3260  134.4100 C   0  0  0  0  0  0  0  0  0  0  0  0
  148.1590  158.1450  132.9160 C   0  0  0  0  0  0  0  0  0  0  0  0
  149.3780  158.5710  132.0840 C   0  0  0  0  0  0  0  0  0  0  0  0
  147.8300  156.6720  132.6050 C   0  0  0  0  0  0  0  0  0  0  0  0
  147.0690  158.9970  132.5340 O   0  0  0  0  0  0  0  0  0  0  0  0
  146.5690  160.0870  133.2620 C   0  0  0  0  0  0  0  0  0  0  0  0
  147.3200  161.0430  133.5950 O   0  0  0  0  0  0  0  0  0  0  0  0
  145.1770  160.1230  133.6080 N   0  0  0  0  0  0  0  0  0  0  0  0
  144.4150  161.2110  133.9140 C   0  0  0  0  0  0  0  0  0  0  0  0
  144.9080  162.5910  134.1070 C   0  0  0  0  0  0  0  0  0  0  0  0
  145.9620  162.8730  135.0230 N   0  0  0  0  0  0  0  0  0  0  0  0
  144.3590  163.5410  133.4890 O   0  0  0  0  0  0  0  0  0  0  0  0
  143.0870  160.8370  134.1070 C   0  0  0  0  0  0  0  0  0  0  0  0
  143.0600  159.4740  133.9200 C   0  0  0  0  0  0  0  0  0  0  0  0
  141.9920  158.5850  133.9710 C   0  0  0  0  0  0  0  0  0  0  0  0
  142.2480  157.2300  133.7010 C   0  0  0  0  0  0  0  0  0  0  0  0
  143.5610  156.7870  133.3940 C   0  0  0  0  0  0  0  0  0  0  0  0
  143.8130  155.3420  133.0440 C   0  0  0  0  0  0  0  0  0  0  0  0
  144.6670  154.7590  133.9640 F   0  0  0  0  0  0  0  0  0  0  0  0
  144.3900  155.2360  131.7910 F   0  0  0  0  0  0  0  0  0  0  0  0
  142.6110  154.6590  133.0470 F   0  0  0  0  0  0  0  0  0  0  0  0
  144.6160  157.7280  133.3270 C   0  0  0  0  0  0  0  0  0  0  0  0
  144.3340  159.0670  133.6210 C   0  0  0  0  0  0  0  0  0  0  0  0
  147.6851  157.8843  135.0184 H   0  0  0  0  0  0  0  0  0  0  0  0
  149.4399  157.8246  134.6392 H   0  0  0  0  0  0  0  0  0  0  0  0
  148.5740  159.3984  134.6392 H   0  0  0  0  0  0  0  0  0  0  0  0
  150.1992  158.8580  132.7572 H   0  0  0  0  0  0  0  0  0  0  0  0
  149.7001  157.7322  131.4495 H   0  0  0  0  0  0  0  0  0  0  0  0
  149.1076  159.4279  131.4495 H   0  0  0  0  0  0  0  0  0  0  0  0
  147.7061  156.1172  133.5467 H   0  0  0  0  0  0  0  0  0  0  0  0
  146.8980  156.6194  132.0231 H   0  0  0  0  0  0  0  0  0  0  0  0
  148.6511  156.2279  132.0231 H   0  0  0  0  0  0  0  0  0  0  0  0
  146.9610  162.8430  134.7210 H   0  0  0  0  0  0  0  0  0  0  0  0
  142.2395  161.4925  134.3561 H   0  0  0  0  0  0  0  0  0  0  0  0
  140.9772  158.9321  134.2154 H   0  0  0  0  0  0  0  0  0  0  0  0
  141.4216  156.5045  133.7279 H   0  0  0  0  0  0  0  0  0  0  0  0
  145.6334  157.4145  133.0504 H   0  0  0  0  0  0  0  0  0  0  0  0
  1  2  1  0
  2  3  1  0
  2  4  1  0
  2  5  1  0
  5  6  1  0
  6  7  2  0
  6  8  1  0
  8  9  1  0
  9 10  1  0
 10 11  1  0
 10 12  2  0
  9 13  2  0
 13 14  1  0
 14 15  2  0
 15 16  1  0
 16 17  2  0
 17 18  1  0
 18 19  1  0
 18 20  1  0
 18 21  1  0
 17 22  1  0
 22 23  2  0
 23  8  1  0
 23 14  1  0
  1 24  1  0
  1 25  1  0
  1 26  1  0
  3 27  1  0
  3 28  1  0
  3 29  1  0
  4 30  1  0
  4 31  1  0
  4 32  1  0
 11 33  1  0
 13 34  1  0
 15 35  1  0
 16 36  1  0
 22 37  1  0
M  CHG  1  11  -1
M  END
>  <UniqueID>  (21) 
21

>  <SMILES>  (21) 
CC(C)(C)OC(=O)n1c(C([NH-])=O)cc2ccc(C(F)(F)F)cc21

>  <Energy>  (21) 
71.83183254880598

>  <Genealogy>  (21) 
CC(C)(C)OC(=O)n1c(C([NH-])=O)cc2ccc(C(F)(F)F)cc21 (protonated)
CC(C)(C)OC(=O)n1c(C([NH-])=O)cc2ccc(C(F)(F)F)cc21 (3D coordinates assigned)
CC(C)(C)OC(=O)n1c(C([NH-])=O)cc2ccc(C(F)(F)F)cc21 (optimized conformer: 71.83183254880598 kcal/mol)

>  <smiles>  (21) 
CC(C)(C)OC(=O)n1c(C(N)=O)cc2ccc(C(F)(F)F)cc21

>  <score_type>  (21) 
oracle

>  <origin>  (21) 
adg

>  <m_score__min__energy>  (21) 
-6.2199999999999998

>  <m_primary>  (21) 
energy

$$$$
21:0
     RDKit          3D

 53 56  0  0  0  0  0  0  0  0999 V2000
  139.4800  158.9870  131.3390 C   0  0  0  0  0  0  0  0  0  0  0  0
  139.9130  158.2180  132.5770 C   0  0  0  0  0  0  0  0  0  0  0  0
  139.7390  159.0330  133.7320 O   0  0  0  0  0  0  0  0  0  0  0  0
  140.4330  158.8010  134.9240 C   0  0  0  0  0  0  0  0  0  0  0  0
  140.1460  157.8150  135.6570 O   0  0  0  0  0  0  0  0  0  0  0  0
  141.5020  159.7560  135.3510 C   0  0  0  0  0  0  0  0  0  0  0  0
  142.2520  160.2560  134.1530 C   0  0  0  0  0  0  0  0  0  0  0  0
  141.6920  161.0530  133.3540 O   0  0  0  0  0  0  0  0  0  0  0  0
  143.6140  159.8610  133.9260 N   0  0  0  0  0  0  0  0  0  0  0  0
  144.7110  160.6650  133.8590 C   0  0  0  0  0  0  0  0  0  0  0  0
  144.7280  162.1230  134.0980 C   0  0  0  0  0  0  0  0  0  0  0  0
  143.8250  162.9680  133.3880 N   0  0  0  0  0  0  0  0  0  0  0  0
  145.5450  162.6340  134.9080 O   0  0  0  0  0  0  0  0  0  0  0  0
  145.8490  159.9120  133.5690 C   0  0  0  0  0  0  0  0  0  0  0  0
  145.4060  158.6130  133.4540 C   0  0  0  0  0  0  0  0  0  0  0  0
  146.1070  157.4500  133.1490 C   0  0  0  0  0  0  0  0  0  0  0  0
  145.3830  156.2490  133.0550 C   0  0  0  0  0  0  0  0  0  0  0  0
  143.9760  156.2300  133.2540 C   0  0  0  0  0  0  0  0  0  0  0  0
  143.2160  154.9600  133.1310 C   0  0  0  0  0  0  0  0  0  0  0  0
  143.8650  153.7700  132.7620 C   0  0  0  0  0  0  0  0  0  0  0  0
  143.1530  152.5720  132.6590 C   0  0  0  0  0  0  0  0  0  0  0  0
  141.7720  152.5380  132.9130 C   0  0  0  0  0  0  0  0  0  0  0  0
  141.0140  151.2660  132.8060 C   0  0  0  0  0  0  0  0  0  0  0  0
  141.0710  150.1890  133.6730 C   0  0  0  0  0  0  0  0  0  0  0  0
  140.2460  149.2680  133.2300 O   0  0  0  0  0  0  0  0  0  0  0  0
  139.6920  149.7350  132.1340 C   0  0  0  0  0  0  0  0  0  0  0  0
  138.6850  148.9880  131.3270 C   0  0  0  0  0  0  0  0  0  0  0  0
  140.1320  150.9700  131.8300 N   0  0  0  0  0  0  0  0  0  0  0  0
  141.1200  153.7290  133.2760 C   0  0  0  0  0  0  0  0  0  0  0  0
  141.8340  154.9250  133.3860 C   0  0  0  0  0  0  0  0  0  0  0  0
  143.3030  157.4370  133.5610 C   0  0  0  0  0  0  0  0  0  0  0  0
  144.0540  158.6100  133.6710 C   0  0  0  0  0  0  0  0  0  0  0  0
  138.9612  159.9083  131.6424 H   0  0  0  0  0  0  0  0  0  0  0  0
  140.3653  159.2452  130.7394 H   0  0  0  0  0  0  0  0  0  0  0  0
  138.8001  158.3639  130.7394 H   0  0  0  0  0  0  0  0  0  0  0  0
  139.3018  157.3087  132.6753 H   0  0  0  0  0  0  0  0  0  0  0  0
  140.9733  157.9411  132.4822 H   0  0  0  0  0  0  0  0  0  0  0  0
  141.0420  160.6073  135.8741 H   0  0  0  0  0  0  0  0  0  0  0  0
  142.2010  159.2378  136.0239 H   0  0  0  0  0  0  0  0  0  0  0  0
  142.9730  162.5760  132.9290 H   0  0  0  0  0  0  0  0  0  0  0  0
  146.8803  160.2778  133.4562 H   0  0  0  0  0  0  0  0  0  0  0  0
  147.1947  157.4701  132.9864 H   0  0  0  0  0  0  0  0  0  0  0  0
  145.9118  155.3124  132.8246 H   0  0  0  0  0  0  0  0  0  0  0  0
  144.9447  153.7813  132.5520 H   0  0  0  0  0  0  0  0  0  0  0  0
  143.6785  151.6478  132.3766 H   0  0  0  0  0  0  0  0  0  0  0  0
  141.6971  150.1169  134.5746 H   0  0  0  0  0  0  0  0  0  0  0  0
  137.9866  148.4699  132.0006 H   0  0  0  0  0  0  0  0  0  0  0  0
  138.1277  149.6929  130.6925 H   0  0  0  0  0  0  0  0  0  0  0  0
  139.1979  148.2502  130.6925 H   0  0  0  0  0  0  0  0  0  0  0  0
  139.8600  151.5460  131.0040 H   0  0  0  0  0  0  0  0  0  0  0  0
  140.0382  153.7195  133.4752 H   0  0  0  0  0  0  0  0  0  0  0  0
  141.3098  155.8479  133.6749 H   0  0  0  0  0  0  0  0  0  0  0  0
  142.2132  157.4510  133.7096 H   0  0  0  0  0  0  0  0  0  0  0  0
  1  2  1  0
  2  3  1  0
  3  4  1  0
  4  5  2  0
  4  6  1  0
  6  7  1  0
  7  8  2  0
  7  9  1  0
  9 10  1  0
 10 11  1  0
 11 12  1  0
 11 13  2  0
 10 14  2  0
 14 15  1  0
 15 16  2  0
 16 17  1  0
 17 18  2  0
 18 19  1  0
 19 20  2  0
 20 21  1  0
 21 22  2  0
 22 23  1  0
 23 24  2  0
 24 25  1  0
 25 26  1  0
 26 27  1  0
 26 28  2  0
 22 29  1  0
 29 30  2  0
 18 31  1  0
 31 32  2  0
 32  9  1  0
 32 15  1  0
 30 19  1  0
 28 23  1  0
  1 33  1  0
  1 34  1  0
  1 35  1  0
  2 36  1  0
  2 37  1  0
  6 38  1  0
  6 39  1  0
 12 40  1  0
 14 41  1  0
 16 42  1  0
 17 43  1  0
 20 44  1  0
 21 45  1  0
 24 46  1  0
 27 47  1  0
 27 48  1  0
 27 49  1  0
 28 50  1  0
 29 51  1  0
 30 52  1  0
 31 53  1  0
M  CHG  2  12  -1  28   1
M  END
>  <UniqueID>  (22) 
22

>  <SMILES>  (22) 
CCOC(=O)CC(=O)n1c(C([NH-])=O)cc2ccc(-c3ccc(-c4coc(C)[nH+]4)cc3)cc21

>  <Energy>  (22) 
125.99400900625884

>  <Genealogy>  (22) 
CCOC(=O)CC(=O)n1c(C([NH-])=O)cc2ccc(-c3ccc(-c4coc(C)[nH+]4)cc3)cc21 (protonated)
CCOC(=O)CC(=O)n1c(C([NH-])=O)cc2ccc(-c3ccc(-c4coc(C)[nH+]4)cc3)cc21 (3D coordinates assigned)
CCOC(=O)CC(=O)n1c(C([NH-])=O)cc2ccc(-c3ccc(-c4coc(C)[nH+]4)cc3)cc21 (optimized conformer: 125.99400900625884 kcal/mol)

>  <smiles>  (22) 
CCOC(=O)CC(=O)n1c(C(N)=O)cc2ccc(-c3ccc(-c4coc(C)n4)cc3)cc21

>  <score_type>  (22) 
oracle

>  <origin>  (22) 
adg

>  <m_score__min__energy>  (22) 
-9.1400000000000006

>  <m_primary>  (22) 
energy

$$$$
22:0
     RDKit          3D

 31 33  0  0  0  0  0  0  0  0999 V2000
  140.3870  159.1040  136.4280 N   0  0  0  0  0  0  0  0  0  0  0  0
  140.7220  158.8810  135.0600 C   0  0  0  0  0  0  0  0  0  0  0  0
  139.8170  158.9400  134.1860 O   0  0  0  0  0  0  0  0  0  0  0  0
  142.1210  158.6380  134.6490 C   0  0  0  0  0  0  0  0  0  0  0  0
  142.7600  157.4090  134.8010 C   0  0  0  0  0  0  0  0  0  0  0  0
  143.9980  157.5680  134.2230 C   0  0  0  0  0  0  0  0  0  0  0  0
  145.0490  156.6660  134.1010 C   0  0  0  0  0  0  0  0  0  0  0  0
  146.2300  157.1100  133.4840 C   0  0  0  0  0  0  0  0  0  0  0  0
  146.3450  158.4420  133.0060 C   0  0  0  0  0  0  0  0  0  0  0  0
  147.6030  158.9040  132.3660 C   0  0  0  0  0  0  0  0  0  0  0  0
  148.7660  158.1130  132.4220 C   0  0  0  0  0  0  0  0  0  0  0  0
  149.9500  158.5490  131.8180 C   0  0  0  0  0  0  0  0  0  0  0  0
  149.9870  159.7770  131.1540 C   0  0  0  0  0  0  0  0  0  0  0  0
  148.8390  160.5720  131.0910 C   0  0  0  0  0  0  0  0  0  0  0  0
  148.8740  161.7620  130.4420 F   0  0  0  0  0  0  0  0  0  0  0  0
  147.6530  160.1400  131.6940 C   0  0  0  0  0  0  0  0  0  0  0  0
  145.2520  159.3280  133.1510 C   0  0  0  0  0  0  0  0  0  0  0  0
  144.0800  158.8520  133.7530 C   0  0  0  0  0  0  0  0  0  0  0  0
  142.9360  159.5250  134.0110 N   0  0  0  0  0  0  0  0  0  0  0  0
  142.6870  160.9140  133.7380 C   0  0  0  0  0  0  0  0  0  0  0  0
  143.6360  161.7420  133.7320 O   0  0  0  0  0  0  0  0  0  0  0  0
  141.4000  161.3530  133.4510 O   0  0  0  0  0  0  0  0  0  0  0  0
  139.3990  159.0320  136.7570 H   0  0  0  0  0  0  0  0  0  0  0  0
  142.3595  156.5040  135.2812 H   0  0  0  0  0  0  0  0  0  0  0  0
  144.9583  155.6360  134.4763 H   0  0  0  0  0  0  0  0  0  0  0  0
  147.0766  156.4170  133.3696 H   0  0  0  0  0  0  0  0  0  0  0  0
  148.7436  157.1452  132.9444 H   0  0  0  0  0  0  0  0  0  0  0  0
  150.8535  157.9234  131.8661 H   0  0  0  0  0  0  0  0  0  0  0  0
  150.9194  160.1186  130.6807 H   0  0  0  0  0  0  0  0  0  0  0  0
  146.7531  160.7705  131.6427 H   0  0  0  0  0  0  0  0  0  0  0  0
  145.3207  160.3678  132.7988 H   0  0  0  0  0  0  0  0  0  0  0  0
  1  2  1  0
  2  3  2  0
  2  4  1  0
  4  5  2  0
  5  6  1  0
  6  7  2  0
  7  8  1  0
  8  9  2  0
  9 10  1  0
 10 11  2  0
 11 12  1  0
 12 13  2  0
 13 14  1  0
 14 15  1  0
 14 16  2  0
  9 17  1  0
 17 18  2  0
 18 19  1  0
 19 20  1  0
 20 21  2  0
 20 22  1  0
 19  4  1  0
 18  6  1  0
 16 10  1  0
  1 23  1  0
  5 24  1  0
  7 25  1  0
  8 26  1  0
 11 27  1  0
 12 28  1  0
 13 29  1  0
 16 30  1  0
 17 31  1  0
M  CHG  2   1  -1  22  -1
M  END
>  <UniqueID>  (23) 
23

>  <SMILES>  (23) 
[NH-]C(=O)c1cc2ccc(-c3cccc(F)c3)cc2n1C(=O)[O-]

>  <Energy>  (23) 
79.21979925214863

>  <Genealogy>  (23) 
[NH-]C(=O)c1cc2ccc(-c3cccc(F)c3)cc2n1C(=O)[O-] (protonated)
[NH-]C(=O)c1cc2ccc(-c3cccc(F)c3)cc2n1C(=O)[O-] (3D coordinates assigned)
[NH-]C(=O)c1cc2ccc(-c3cccc(F)c3)cc2n1C(=O)[O-] (optimized conformer: 79.21979925214863 kcal/mol)

>  <smiles>  (23) 
NC(=O)c1cc2ccc(-c3cccc(F)c3)cc2n1C(=O)O

>  <score_type>  (23) 
oracle

>  <origin>  (23) 
adg

>  <m_score__min__energy>  (23) 
-7.54

>  <m_primary>  (23) 
energy

$$$$
23:0
     RDKit          3D

 38 39  0  0  0  0  0  0  0  0999 V2000
  139.4330  159.4140  132.6140 C   0  0  0  0  0  0  0  0  0  0  0  0
  140.0520  158.4830  133.5680 N   0  0  0  0  0  0  0  0  0  0  0  0
  139.1900  157.8580  134.5830 C   0  0  0  0  0  0  0  0  0  0  0  0
  139.8890  158.1010  136.3120 Si  0  0  0  0  0  4  0  0  0  0  0  0
  141.0240  156.6780  136.7240 C   0  0  0  0  0  0  0  0  0  0  0  0
  140.8280  159.7090  136.4720 C   0  0  0  0  0  0  0  0  0  0  0  0
  141.4780  158.2080  133.4980 C   0  0  0  0  0  0  0  0  0  0  0  0
  141.9480  156.8750  133.3210 C   0  0  0  0  0  0  0  0  0  0  0  0
  143.3220  156.5930  133.2520 C   0  0  0  0  0  0  0  0  0  0  0  0
  144.2130  157.6550  133.3510 C   0  0  0  0  0  0  0  0  0  0  0  0
  145.5880  157.6590  133.3380 C   0  0  0  0  0  0  0  0  0  0  0  0
  145.9540  158.9950  133.4790 C   0  0  0  0  0  0  0  0  0  0  0  0
  147.3550  159.4630  133.4260 C   0  0  0  0  0  0  0  0  0  0  0  0
  147.7480  160.5000  132.5300 N   0  0  0  0  0  0  0  0  0  0  0  0
  148.2270  158.9060  134.1460 O   0  0  0  0  0  0  0  0  0  0  0  0
  144.8490  159.7850  133.5830 N   0  0  0  0  0  0  0  0  0  0  0  0
  144.8010  161.2000  133.8320 C   0  0  0  0  0  0  0  0  0  0  0  0
  145.8440  161.8240  134.1580 O   0  0  0  0  0  0  0  0  0  0  0  0
  143.6070  161.8970  133.6880 O   0  0  0  0  0  0  0  0  0  0  0  0
  143.7900  158.9470  133.5010 C   0  0  0  0  0  0  0  0  0  0  0  0
  142.4290  159.2570  133.5960 C   0  0  0  0  0  0  0  0  0  0  0  0
  138.9058  160.2069  133.1649 H   0  0  0  0  0  0  0  0  0  0  0  0
  140.2128  159.8633  131.9815 H   0  0  0  0  0  0  0  0  0  0  0  0
  138.7170  158.8687  131.9815 H   0  0  0  0  0  0  0  0  0  0  0  0
  138.1896  158.3126  134.5333 H   0  0  0  0  0  0  0  0  0  0  0  0
  139.1363  156.7787  134.3775 H   0  0  0  0  0  0  0  0  0  0  0  0
  138.9144  158.1423  137.1205 H   0  0  0  0  0  0  0  0  0  0  0  0
  141.1042  156.5774  137.8164 H   0  0  0  0  0  0  0  0  0  0  0  0
  140.6162  155.7489  136.2992 H   0  0  0  0  0  0  0  0  0  0  0  0
  142.0205  156.8690  136.2992 H   0  0  0  0  0  0  0  0  0  0  0  0
  140.9674  159.9478  137.5367 H   0  0  0  0  0  0  0  0  0  0  0  0
  141.8102  159.6099  135.9867 H   0  0  0  0  0  0  0  0  0  0  0  0
  140.2590  160.5157  135.9867 H   0  0  0  0  0  0  0  0  0  0  0  0
  141.2224  156.0526  133.2369 H   0  0  0  0  0  0  0  0  0  0  0  0
  143.6825  155.5617  133.1234 H   0  0  0  0  0  0  0  0  0  0  0  0
  146.2566  156.7913  133.2376 H   0  0  0  0  0  0  0  0  0  0  0  0
  147.3450  161.4600  132.6110 H   0  0  0  0  0  0  0  0  0  0  0  0
  142.1014  160.2966  133.7442 H   0  0  0  0  0  0  0  0  0  0  0  0
  1  2  1  0
  2  3  1  0
  3  4  1  0
  4  5  1  0
  4  6  1  0
  2  7  1  0
  7  8  2  0
  8  9  1  0
  9 10  2  0
 10 11  1  0
 11 12  2  0
 12 13  1  0
 13 14  1  0
 13 15  2  0
 12 16  1  0
 16 17  1  0
 17 18  2  0
 17 19  1  0
 16 20  1  0
 20 21  2  0
 21  7  1  0
 20 10  1  0
  1 22  1  0
  1 23  1  0
  1 24  1  0
  3 25  1  0
  3 26  1  0
  4 27  1  0
  5 28  1  0
  5 29  1  0
  5 30  1  0
  6 31  1  0
  6 32  1  0
  6 33  1  0
  8 34  1  0
  9 35  1  0
 11 36  1  0
 14 37  1  0
 21 38  1  0
M  CHG  2  14  -1  19  -1
M  END
>  <UniqueID>  (24) 
24

>  <SMILES>  (24) 
CN(C[SiH](C)C)c1ccc2cc(C([NH-])=O)n(C(=O)[O-])c2c1

>  <Energy>  (24) 
68.69779766261884

>  <Genealogy>  (24) 
CN(C[SiH](C)C)c1ccc2cc(C([NH-])=O)n(C(=O)[O-])c2c1 (protonated)
CN(C[SiH](C)C)c1ccc2cc(C([NH-])=O)n(C(=O)[O-])c2c1 (3D coordinates assigned)
CN(C[SiH](C)C)c1ccc2cc(C([NH-])=O)n(C(=O)[O-])c2c1 (optimized conformer: 68.69779766261884 kcal/mol)

>  <smiles>  (24) 
CN(C[SiH](C)C)c1ccc2cc(C(N)=O)n(C(=O)O)c2c1

>  <score_type>  (24) 
oracle

>  <origin>  (24) 
adg

>  <m_score__min__energy>  (24) 
-6.9000000000000004

>  <m_primary>  (24) 
energy

$$$$
24:0
     RDKit          3D

 53 56  0  0  0  0  0  0  0  0999 V2000
  148.4340  154.0720  133.2870 C   0  0  0  0  0  0  0  0  0  0  0  0
  147.3160  154.5480  134.2330 C   0  0  0  0  0  0  0  0  0  0  0  0
  147.6240  154.1420  135.6870 C   0  0  0  0  0  0  0  0  0  0  0  0
  145.9930  153.8940  133.8050 C   0  0  0  0  0  0  0  0  0  0  0  0
  147.1380  155.9680  134.1310 O   0  0  0  0  0  0  0  0  0  0  0  0
  146.9000  156.6950  132.9540 C   0  0  0  0  0  0  0  0  0  0  0  0
  146.9850  156.1420  131.8240 O   0  0  0  0  0  0  0  0  0  0  0  0
  146.5320  158.0800  133.0420 N   0  0  0  0  0  0  0  0  0  0  0  0
  147.2940  159.1650  132.7250 C   0  0  0  0  0  0  0  0  0  0  0  0
  148.6190  159.1340  132.0730 C   0  0  0  0  0  0  0  0  0  0  0  0
  149.3170  157.8980  131.9450 N   0  0  0  0  0  0  0  0  0  0  0  0
  149.1610  160.1930  131.6610 O   0  0  0  0  0  0  0  0  0  0  0  0
  146.6130  160.3440  133.0240 C   0  0  0  0  0  0  0  0  0  0  0  0
  145.3980  159.9450  133.5330 C   0  0  0  0  0  0  0  0  0  0  0  0
  144.3280  160.7050  133.9970 C   0  0  0  0  0  0  0  0  0  0  0  0
  143.2020  160.0250  134.4900 C   0  0  0  0  0  0  0  0  0  0  0  0
  143.1730  158.6080  134.5260 C   0  0  0  0  0  0  0  0  0  0  0  0
  141.9490  157.8910  135.0260 C   0  0  0  0  0  0  0  0  0  0  0  0
  140.7990  158.1130  134.0830 C   0  0  0  0  0  0  0  0  0  0  0  0
  139.8800  157.0860  133.8260 C   0  0  0  0  0  0  0  0  0  0  0  0
  138.8620  157.2730  132.9430 N   0  0  0  0  0  0  0  0  0  0  0  0
  138.7050  158.4520  132.2740 C   0  0  0  0  0  0  0  0  0  0  0  0
  137.6490  158.6240  131.3650 C   0  0  0  0  0  0  0  0  0  0  0  0
  137.5010  159.8340  130.6820 C   0  0  0  0  0  0  0  0  0  0  0  0
  138.4030  160.8790  130.8980 C   0  0  0  0  0  0  0  0  0  0  0  0
  139.4600  160.7220  131.8000 C   0  0  0  0  0  0  0  0  0  0  0  0
  139.6160  159.5110  132.4930 C   0  0  0  0  0  0  0  0  0  0  0  0
  140.6660  159.3290  133.4000 C   0  0  0  0  0  0  0  0  0  0  0  0
  144.2750  157.8700  134.0390 C   0  0  0  0  0  0  0  0  0  0  0  0
  145.3750  158.5740  133.5360 C   0  0  0  0  0  0  0  0  0  0  0  0
  149.2864  153.7091  133.8801 H   0  0  0  0  0  0  0  0  0  0  0  0
  148.0553  153.2571  132.6526 H   0  0  0  0  0  0  0  0  0  0  0  0
  148.7590  154.9098  132.6526 H   0  0  0  0  0  0  0  0  0  0  0  0
  147.1058  154.8251  136.3761 H   0  0  0  0  0  0  0  0  0  0  0  0
  147.2775  153.1127  135.8615 H   0  0  0  0  0  0  0  0  0  0  0  0
  148.7086  154.1983  135.8615 H   0  0  0  0  0  0  0  0  0  0  0  0
  145.4184  153.6099  134.6989 H   0  0  0  0  0  0  0  0  0  0  0  0
  145.4088  154.6071  133.2048 H   0  0  0  0  0  0  0  0  0  0  0  0
  146.2048  152.9968  133.2048 H   0  0  0  0  0  0  0  0  0  0  0  0
  148.8780  157.0790  131.4680 H   0  0  0  0  0  0  0  0  0  0  0  0
  146.9708  161.3746  132.8831 H   0  0  0  0  0  0  0  0  0  0  0  0
  144.3631  161.8043  133.9782 H   0  0  0  0  0  0  0  0  0  0  0  0
  142.3348  160.5972  134.8514 H   0  0  0  0  0  0  0  0  0  0  0  0
  142.1608  156.8138  135.0943 H   0  0  0  0  0  0  0  0  0  0  0  0
  141.6819  158.2835  136.0183 H   0  0  0  0  0  0  0  0  0  0  0  0
  139.9829  156.1204  134.3428 H   0  0  0  0  0  0  0  0  0  0  0  0
  138.1940  156.4850  132.7790 H   0  0  0  0  0  0  0  0  0  0  0  0
  136.9365  157.8044  131.1901 H   0  0  0  0  0  0  0  0  0  0  0  0
  136.6713  159.9643  129.9717 H   0  0  0  0  0  0  0  0  0  0  0  0
  138.2812  161.8287  130.3565 H   0  0  0  0  0  0  0  0  0  0  0  0
  140.1687  161.5467  131.9664 H   0  0  0  0  0  0  0  0  0  0  0  0
  141.3870  160.1407  133.5767 H   0  0  0  0  0  0  0  0  0  0  0  0
  144.2685  156.7701  134.0548 H   0  0  0  0  0  0  0  0  0  0  0  0
  1  2  1  0
  2  3  1  0
  2  4  1  0
  2  5  1  0
  5  6  1  0
  6  7  2  0
  6  8  1  0
  8  9  1  0
  9 10  1  0
 10 11  1  0
 10 12  2  0
  9 13  2  0
 13 14  1  0
 14 15  2  0
 15 16  1  0
 16 17  2  0
 17 18  1  0
 18 19  1  0
 19 20  2  0
 20 21  1  0
 21 22  2  0
 22 23  1  0
 23 24  2  0
 24 25  1  0
 25 26  2  0
 26 27  1  0
 27 28  2  0
 17 29  1  0
 29 30  2  0
 30  8  1  0
 30 14  1  0
 28 19  1  0
 27 22  1  0
  1 31  1  0
  1 32  1  0
  1 33  1  0
  3 34  1  0
  3 35  1  0
  3 36  1  0
  4 37  1  0
  4 38  1  0
  4 39  1  0
 11 40  1  0
 13 41  1  0
 15 42  1  0
 16 43  1  0
 18 44  1  0
 18 45  1  0
 20 46  1  0
 21 47  1  0
 23 48  1  0
 24 49  1  0
 25 50  1  0
 26 51  1  0
 28 52  1  0
 29 53  1  0
M  CHG  2  11  -1  21   1
M  END
>  <UniqueID>  (25) 
25

>  <SMILES>  (25) 
CC(C)(C)OC(=O)n1c(C([NH-])=O)cc2ccc(Cc3c[nH+]c4ccccc4c3)cc21

>  <Energy>  (25) 
92.33066009744883

>  <Genealogy>  (25) 
CC(C)(C)OC(=O)n1c(C([NH-])=O)cc2ccc(Cc3c[nH+]c4ccccc4c3)cc21 (protonated)
CC(C)(C)OC(=O)n1c(C([NH-])=O)cc2ccc(Cc3c[nH+]c4ccccc4c3)cc21 (3D coordinates assigned)
CC(C)(C)OC(=O)n1c(C([NH-])=O)cc2ccc(Cc3c[nH+]c4ccccc4c3)cc21 (optimized conformer: 92.33066009744883 kcal/mol)

>  <smiles>  (25) 
CC(C)(C)OC(=O)n1c(C(N)=O)cc2ccc(Cc3cnc4ccccc4c3)cc21

>  <score_type>  (25) 
oracle

>  <origin>  (25) 
adg

>  <m_score__min__energy>  (25) 
-9.3399999999999999

>  <m_primary>  (25) 
energy

$$$$
25:0
     RDKit          3D

 33 36  0  0  0  0  0  0  0  0999 V2000
  139.9950  158.6680  136.7110 N   0  0  0  0  0  0  0  0  0  0  0  0
  140.2420  158.3660  135.3390 C   0  0  0  0  0  0  0  0  0  0  0  0
  139.2690  158.2640  134.5460 O   0  0  0  0  0  0  0  0  0  0  0  0
  141.6130  158.1140  134.8520 C   0  0  0  0  0  0  0  0  0  0  0  0
  142.2990  156.9230  135.0770 C   0  0  0  0  0  0  0  0  0  0  0  0
  143.5560  157.1210  134.5540 C   0  0  0  0  0  0  0  0  0  0  0  0
  144.6450  156.2590  134.4960 C   0  0  0  0  0  0  0  0  0  0  0  0
  145.8160  156.7160  133.8700 C   0  0  0  0  0  0  0  0  0  0  0  0
  145.8770  158.0170  133.3050 C   0  0  0  0  0  0  0  0  0  0  0  0
  147.1160  158.4860  132.6350 C   0  0  0  0  0  0  0  0  0  0  0  0
  148.2760  157.6620  132.6050 C   0  0  0  0  0  0  0  0  0  0  0  0
  149.4550  158.0970  131.9710 C   0  0  0  0  0  0  0  0  0  0  0  0
  149.4460  159.3550  131.3790 C   0  0  0  0  0  0  0  0  0  0  0  0
  150.4450  159.9680  130.7240 N   0  0  0  0  0  0  0  0  0  0  0  0
  149.9860  161.1520  130.3280 N   0  0  0  0  0  0  0  0  0  0  0  0
  148.7000  161.2920  130.7300 C   0  0  0  0  0  0  0  0  0  0  0  0
  148.3410  160.1510  131.4040 C   0  0  0  0  0  0  0  0  0  0  0  0
  147.1550  159.7610  132.0180 C   0  0  0  0  0  0  0  0  0  0  0  0
  144.7460  158.8630  133.3850 C   0  0  0  0  0  0  0  0  0  0  0  0
  143.5990  158.3870  134.0310 C   0  0  0  0  0  0  0  0  0  0  0  0
  142.4110  159.0110  134.2040 N   0  0  0  0  0  0  0  0  0  0  0  0
  142.0500  160.3100  133.7090 C   0  0  0  0  0  0  0  0  0  0  0  0
  140.8830  160.5300  133.2890 O   0  0  0  0  0  0  0  0  0  0  0  0
  142.9760  161.3450  133.7140 O   0  0  0  0  0  0  0  0  0  0  0  0
  139.0260  158.6570  137.0960 H   0  0  0  0  0  0  0  0  0  0  0  0
  141.9168  156.0162  135.5686 H   0  0  0  0  0  0  0  0  0  0  0  0
  144.5911  155.2487  134.9277 H   0  0  0  0  0  0  0  0  0  0  0  0
  146.6962  156.0584  133.8168 H   0  0  0  0  0  0  0  0  0  0  0  0
  148.2509  156.6719  133.0837 H   0  0  0  0  0  0  0  0  0  0  0  0
  150.3534  157.4629  131.9448 H   0  0  0  0  0  0  0  0  0  0  0  0
  148.0568  162.1657  130.5485 H   0  0  0  0  0  0  0  0  0  0  0  0
  146.2754  160.4215  132.0243 H   0  0  0  0  0  0  0  0  0  0  0  0
  144.7674  159.8727  132.9491 H   0  0  0  0  0  0  0  0  0  0  0  0
  1  2  1  0
  2  3  2  0
  2  4  1  0
  4  5  2  0
  5  6  1  0
  6  7  2  0
  7  8  1  0
  8  9  2  0
  9 10  1  0
 10 11  2  0
 11 12  1  0
 12 13  2  0
 13 14  1  0
 14 15  1  0
 15 16  2  0
 16 17  1  0
 17 18  2  0
  9 19  1  0
 19 20  2  0
 20 21  1  0
 21 22  1  0
 22 23  2  0
 22 24  1  0
 21  4  1  0
 20  6  1  0
 18 10  1  0
 17 13  1  0
  1 25  1  0
  5 26  1  0
  7 27  1  0
  8 28  1  0
 11 29  1  0
 12 30  1  0
 16 31  1  0
 18 32  1  0
 19 33  1  0
M  CHG  3   1  -1  14  -1  24  -1
M  END
>  <UniqueID>  (26) 
26

>  <SMILES>  (26) 
[NH-]C(=O)c1cc2ccc(-c3ccc4[n-]ncc4c3)cc2n1C(=O)[O-]

>  <Energy>  (26) 
120.91455720406296

>  <Genealogy>  (26) 
[NH-]C(=O)c1cc2ccc(-c3ccc4[n-]ncc4c3)cc2n1C(=O)[O-] (protonated)
[NH-]C(=O)c1cc2ccc(-c3ccc4[n-]ncc4c3)cc2n1C(=O)[O-] (3D coordinates assigned)
[NH-]C(=O)c1cc2ccc(-c3ccc4[n-]ncc4c3)cc2n1C(=O)[O-] (optimized conformer: 120.91455720406296 kcal/mol)

>  <smiles>  (26) 
NC(=O)c1cc2ccc(-c3ccc4[nH]ncc4c3)cc2n1C(=O)O

>  <score_type>  (26) 
oracle

>  <origin>  (26) 
adg

>  <m_score__min__energy>  (26) 
-7.9900000000000002

>  <m_primary>  (26) 
energy

$$$$
26:0
     RDKit          3D

 44 46  0  0  0  0  0  0  0  0999 V2000
  145.3100  153.4050  133.7020 C   0  0  0  0  0  0  0  0  0  0  0  0
  144.5310  154.6910  133.3840 C   0  0  0  0  0  0  0  0  0  0  0  0
  144.4710  154.8700  131.8560 C   0  0  0  0  0  0  0  0  0  0  0  0
  143.1130  154.5750  133.9760 C   0  0  0  0  0  0  0  0  0  0  0  0
  145.2450  155.7770  133.9900 O   0  0  0  0  0  0  0  0  0  0  0  0
  146.1770  156.6170  133.3620 C   0  0  0  0  0  0  0  0  0  0  0  0
  147.2040  156.1460  132.8040 O   0  0  0  0  0  0  0  0  0  0  0  0
  145.9660  158.0360  133.3850 N   0  0  0  0  0  0  0  0  0  0  0  0
  146.8780  159.0290  133.1850 C   0  0  0  0  0  0  0  0  0  0  0  0
  148.2860  158.8470  132.7750 C   0  0  0  0  0  0  0  0  0  0  0  0
  148.6170  158.2160  131.5410 N   0  0  0  0  0  0  0  0  0  0  0  0
  149.2110  159.2960  133.5050 O   0  0  0  0  0  0  0  0  0  0  0  0
  146.2770  160.2790  133.3310 C   0  0  0  0  0  0  0  0  0  0  0  0
  144.9560  160.0180  133.6180 C   0  0  0  0  0  0  0  0  0  0  0  0
  143.8970  160.8920  133.8480 C   0  0  0  0  0  0  0  0  0  0  0  0
  142.6360  160.3400  134.1280 C   0  0  0  0  0  0  0  0  0  0  0  0
  142.4620  158.9340  134.1950 C   0  0  0  0  0  0  0  0  0  0  0  0
  141.1070  158.3460  134.4810 C   0  0  0  0  0  0  0  0  0  0  0  0
  140.1850  158.5930  133.3280 C   0  0  0  0  0  0  0  0  0  0  0  0
  139.4850  157.6170  132.6260 C   0  0  0  0  0  0  0  0  0  0  0  0
  138.7750  158.1280  131.5340 C   0  0  0  0  0  0  0  0  0  0  0  0
  138.9290  159.4960  131.3770 C   0  0  0  0  0  0  0  0  0  0  0  0
  138.2030  160.4670  130.1140 Cl  0  0  0  0  0  0  0  0  0  0  0  0
  139.9460  160.0820  132.5800 S   0  0  0  0  0  0  0  0  0  0  0  0
  143.5600  158.0790  133.9550 C   0  0  0  0  0  0  0  0  0  0  0  0
  144.7960  158.6570  133.6490 C   0  0  0  0  0  0  0  0  0  0  0  0
  145.3847  153.2817  134.7925 H   0  0  0  0  0  0  0  0  0  0  0  0
  144.7833  152.5411  133.2705 H   0  0  0  0  0  0  0  0  0  0  0  0
  146.3196  153.4717  133.2705 H   0  0  0  0  0  0  0  0  0  0  0  0
  144.1295  155.8885  131.6193 H   0  0  0  0  0  0  0  0  0  0  0  0
  145.4719  154.7102  131.4285 H   0  0  0  0  0  0  0  0  0  0  0  0
  143.7687  154.1392  131.4285 H   0  0  0  0  0  0  0  0  0  0  0  0
  143.1727  154.5799  135.0744 H   0  0  0  0  0  0  0  0  0  0  0  0
  142.5038  155.4263  133.6381 H   0  0  0  0  0  0  0  0  0  0  0  0
  142.6503  153.6360  133.6381 H   0  0  0  0  0  0  0  0  0  0  0  0
  148.4930  157.1870  131.4140 H   0  0  0  0  0  0  0  0  0  0  0  0
  146.7566  161.2644  133.2368 H   0  0  0  0  0  0  0  0  0  0  0  0
  144.0433  161.9816  133.8116 H   0  0  0  0  0  0  0  0  0  0  0  0
  141.7756  161.0043  134.2968 H   0  0  0  0  0  0  0  0  0  0  0  0
  141.2071  157.2623  134.6410 H   0  0  0  0  0  0  0  0  0  0  0  0
  140.6916  158.8207  135.3821 H   0  0  0  0  0  0  0  0  0  0  0  0
  139.4893  156.5520  132.9014 H   0  0  0  0  0  0  0  0  0  0  0  0
  138.1576  157.5071  130.8682 H   0  0  0  0  0  0  0  0  0  0  0  0
  143.4459  156.9862  134.0074 H   0  0  0  0  0  0  0  0  0  0  0  0
  1  2  1  0
  2  3  1  0
  2  4  1  0
  2  5  1  0
  5  6  1  0
  6  7  2  0
  6  8  1  0
  8  9  1  0
  9 10  1  0
 10 11  1  0
 10 12  2  0
  9 13  2  0
 13 14  1  0
 14 15  2  0
 15 16  1  0
 16 17  2  0
 17 18  1  0
 18 19  1  0
 19 20  2  0
 20 21  1  0
 21 22  2  0
 22 23  1  0
 22 24  1  0
 17 25  1  0
 25 26  2  0
 26  8  1  0
 26 14  1  0
 24 19  1  0
  1 27  1  0
  1 28  1  0
  1 29  1  0
  3 30  1  0
  3 31  1  0
  3 32  1  0
  4 33  1  0
  4 34  1  0
  4 35  1  0
 11 36  1  0
 13 37  1  0
 15 38  1  0
 16 39  1  0
 18 40  1  0
 18 41  1  0
 20 42  1  0
 21 43  1  0
 25 44  1  0
M  CHG  1  11  -1
M  END
>  <UniqueID>  (27) 
27

>  <SMILES>  (27) 
CC(C)(C)OC(=O)n1c(C([NH-])=O)cc2ccc(Cc3ccc(Cl)s3)cc21

>  <Energy>  (27) 
103.61499690293611

>  <Genealogy>  (27) 
CC(C)(C)OC(=O)n1c(C([NH-])=O)cc2ccc(Cc3ccc(Cl)s3)cc21 (protonated)
CC(C)(C)OC(=O)n1c(C([NH-])=O)cc2ccc(Cc3ccc(Cl)s3)cc21 (3D coordinates assigned)
CC(C)(C)OC(=O)n1c(C([NH-])=O)cc2ccc(Cc3ccc(Cl)s3)cc21 (optimized conformer: 103.61499690293611 kcal/mol)

>  <smiles>  (27) 
CC(C)(C)OC(=O)n1c(C(N)=O)cc2ccc(Cc3ccc(Cl)s3)cc21

>  <score_type>  (27) 
oracle

>  <origin>  (27) 
adg

>  <m_score__min__energy>  (27) 
-8.5700000000000003

>  <m_primary>  (27) 
energy

$$$$
27:0
     RDKit          3D

 47 50  0  0  0  0  0  0  0  0999 V2000
  147.8880  160.7060  132.6000 N   0  0  0  0  0  0  0  0  0  0  0  0
  148.0310  159.5580  133.4320 C   0  0  0  0  0  0  0  0  0  0  0  0
  148.9350  159.5430  134.3100 O   0  0  0  0  0  0  0  0  0  0  0  0
  147.1010  158.4170  133.3190 C   0  0  0  0  0  0  0  0  0  0  0  0
  147.5230  157.0950  133.1880 C   0  0  0  0  0  0  0  0  0  0  0  0
  146.3730  156.3400  133.2100 C   0  0  0  0  0  0  0  0  0  0  0  0
  146.2060  154.9620  133.1120 C   0  0  0  0  0  0  0  0  0  0  0  0
  144.8970  154.4540  133.1400 C   0  0  0  0  0  0  0  0  0  0  0  0
  143.7870  155.3270  133.2470 C   0  0  0  0  0  0  0  0  0  0  0  0
  142.3910  154.7680  133.2980 C   0  0  0  0  0  0  0  0  0  0  0  0
  141.6600  155.2630  134.5500 C   0  0  0  0  0  0  0  0  0  0  0  0
  140.2390  155.4380  134.2730 N   0  0  0  0  0  0  0  0  0  0  0  0
  139.7310  156.2980  133.2440 C   0  0  0  0  0  0  0  0  0  0  0  0
  139.1460  155.8000  132.2430 O   0  0  0  0  0  0  0  0  0  0  0  0
  139.8890  157.8010  133.3690 C   0  0  0  0  0  0  0  0  0  0  0  0
  140.2470  158.2410  134.7750 C   0  0  0  0  0  0  0  0  0  0  0  0
  139.5830  157.8670  135.9390 C   0  0  0  0  0  0  0  0  0  0  0  0
  140.2210  158.2990  137.1090 C   0  0  0  0  0  0  0  0  0  0  0  0
  141.4050  158.9860  136.8790 C   0  0  0  0  0  0  0  0  0  0  0  0
  141.6590  159.0490  135.2190 S   0  0  0  0  0  0  0  0  0  0  0  0
  138.7030  158.5800  132.7730 C   0  0  0  0  0  0  0  0  0  0  0  0
  139.6120  159.1370  131.6860 C   0  0  0  0  0  0  0  0  0  0  0  0
  140.8010  158.3990  132.2860 C   0  0  0  0  0  0  0  0  0  0  0  0
  143.9950  156.7200  133.3550 C   0  0  0  0  0  0  0  0  0  0  0  0
  145.3110  157.1980  133.3440 C   0  0  0  0  0  0  0  0  0  0  0  0
  145.7410  158.4780  133.4090 N   0  0  0  0  0  0  0  0  0  0  0  0
  144.9170  159.6530  133.4590 C   0  0  0  0  0  0  0  0  0  0  0  0
  145.3630  160.7240  133.9480 O   0  0  0  0  0  0  0  0  0  0  0  0
  143.6080  159.6110  132.9930 O   0  0  0  0  0  0  0  0  0  0  0  0
  147.0180  161.2820  132.6250 H   0  0  0  0  0  0  0  0  0  0  0  0
  148.5566  156.7322  133.0882 H   0  0  0  0  0  0  0  0  0  0  0  0
  147.0725  154.2913  133.0156 H   0  0  0  0  0  0  0  0  0  0  0  0
  144.7324  153.3681  133.0783 H   0  0  0  0  0  0  0  0  0  0  0  0
  141.8383  155.0926  132.4041 H   0  0  0  0  0  0  0  0  0  0  0  0
  142.4485  153.6700  133.3305 H   0  0  0  0  0  0  0  0  0  0  0  0
  141.7839  154.5261  135.3572 H   0  0  0  0  0  0  0  0  0  0  0  0
  142.0863  156.2307  134.8530 H   0  0  0  0  0  0  0  0  0  0  0  0
  138.6476  157.2882  135.9405 H   0  0  0  0  0  0  0  0  0  0  0  0
  139.8209  158.1112  138.1163 H   0  0  0  0  0  0  0  0  0  0  0  0
  142.0627  159.4147  137.6494 H   0  0  0  0  0  0  0  0  0  0  0  0
  137.8910  157.9413  132.3952 H   0  0  0  0  0  0  0  0  0  0  0  0
  138.1104  159.2588  133.4039 H   0  0  0  0  0  0  0  0  0  0  0  0
  139.3478  158.8083  130.6700 H   0  0  0  0  0  0  0  0  0  0  0  0
  139.6652  160.2218  131.5120 H   0  0  0  0  0  0  0  0  0  0  0  0
  141.2500  157.6518  131.6151 H   0  0  0  0  0  0  0  0  0  0  0  0
  141.7110  158.9488  132.5679 H   0  0  0  0  0  0  0  0  0  0  0  0
  143.1445  157.4118  133.4455 H   0  0  0  0  0  0  0  0  0  0  0  0
  1  2  1  0
  2  3  2  0
  2  4  1  0
  4  5  2  0
  5  6  1  0
  6  7  2  0
  7  8  1  0
  8  9  2  0
  9 10  1  0
 10 11  1  0
 11 12  1  0
 12 13  1  0
 13 14  2  0
 13 15  1  0
 15 16  1  0
 16 17  2  0
 17 18  1  0
 18 19  2  0
 19 20  1  0
 15 21  1  0
 21 22  1  0
 22 23  1  0
  9 24  1  0
 24 25  2  0
 25 26  1  0
 26 27  1  0
 27 28  2  0
 27 29  1  0
 26  4  1  0
 25  6  1  0
 23 15  1  0
 20 16  1  0
  1 30  1  0
  5 31  1  0
  7 32  1  0
  8 33  1  0
 10 34  1  0
 10 35  1  0
 11 36  1  0
 11 37  1  0
 17 38  1  0
 18 39  1  0
 19 40  1  0
 21 41  1  0
 21 42  1  0
 22 43  1  0
 22 44  1  0
 23 45  1  0
 23 46  1  0
 24 47  1  0
M  CHG  3   1  -1  12  -1  29  -1
M  END
>  <UniqueID>  (28) 
28

>  <SMILES>  (28) 
[NH-]C(=O)c1cc2ccc(CC[N-]C(=O)C3(c4cccs4)CCC3)cc2n1C(=O)[O-]

>  <Energy>  (28) 
174.07683575909343

>  <Genealogy>  (28) 
[NH-]C(=O)c1cc2ccc(CC[N-]C(=O)C3(c4cccs4)CCC3)cc2n1C(=O)[O-] (protonated)
[NH-]C(=O)c1cc2ccc(CC[N-]C(=O)C3(c4cccs4)CCC3)cc2n1C(=O)[O-] (3D coordinates assigned)
[NH-]C(=O)c1cc2ccc(CC[N-]C(=O)C3(c4cccs4)CCC3)cc2n1C(=O)[O-] (nonaromatic ring conformer: 174.07683575909343 kcal/mol)

>  <smiles>  (28) 
NC(=O)c1cc2ccc(CCNC(=O)C3(c4cccs4)CCC3)cc2n1C(=O)O

>  <score_type>  (28) 
oracle

>  <origin>  (28) 
adg

>  <m_score__min__energy>  (28) 
-9.2699999999999996

>  <m_primary>  (28) 
energy

$$$$
28:0
     RDKit          3D

104110  0  0  0  0  0  0  0  0999 V2000
  143.6810  149.2940  131.9040 C   0  0  0  0  0  0  0  0  0  0  0  0
  142.9400  150.4790  132.4910 C   0  0  0  0  0  0  0  0  0  0  0  0
  143.6880  151.2750  133.3710 C   0  0  0  0  0  0  0  0  0  0  0  0
  143.1100  152.3640  134.0110 C   0  0  0  0  0  0  0  0  0  0  0  0
  143.8620  153.1440  134.9010 C   0  0  0  0  0  0  0  0  0  0  0  0
  143.2750  154.2310  135.5520 C   0  0  0  0  0  0  0  0  0  0  0  0
  141.9280  154.5530  135.3250 C   0  0  0  0  0  0  0  0  0  0  0  0
  141.3110  155.6590  136.0150 N   0  0  0  0  0  0  0  0  0  0  0  0
  140.0720  156.2410  135.4840 C   0  0  0  0  0  0  0  0  0  0  0  0
  140.0230  157.7420  135.7740 C   0  0  0  0  0  0  0  0  0  0  0  0
  140.1920  158.0290  137.2850 C   0  0  0  0  0  0  0  0  0  0  0  0
  140.0470  159.5030  137.5230 N   0  0  0  0  0  0  0  0  0  0  0  0
  141.0030  159.9370  138.5680 C   0  0  0  0  0  0  0  0  0  0  0  0
  140.1890  160.3440  136.3000 C   0  0  0  0  0  0  0  0  0  0  0  0
  141.2850  159.8360  135.3100 C   0  0  1  0  0  0  0  0  0  0  0  0
  141.7480  160.9530  134.3230 C   0  0  0  0  0  0  0  0  0  0  0  0
  143.2170  160.8300  133.8810 C   0  0  0  0  0  0  0  0  0  0  0  0
  143.6460  159.3550  133.7770 C   0  0  1  0  0  0  0  0  0  0  0  0
  145.0260  159.2040  133.1640 C   0  0  0  0  0  0  0  0  0  0  0  0
  145.5110  160.1900  132.2680 C   0  0  0  0  0  0  0  0  0  0  0  0
  146.7780  160.0620  131.6720 C   0  0  0  0  0  0  0  0  0  0  0  0
  147.5400  158.9440  131.9950 C   0  0  0  0  0  0  0  0  0  0  0  0
  148.7950  158.5710  131.5670 C   0  0  0  0  0  0  0  0  0  0  0  0
  149.0730  157.3750  132.2260 C   0  0  0  0  0  0  0  0  0  0  0  0
  150.3770  156.6850  132.1310 C   0  0  0  0  0  0  0  0  0  0  0  0
  151.5710  157.4490  131.9870 N   0  0  0  0  0  0  0  0  0  0  0  0
  150.4560  155.4330  132.2090 O   0  0  0  0  0  0  0  0  0  0  0  0
  148.0210  157.0090  133.0140 N   0  0  0  0  0  0  0  0  0  0  0  0
  147.8980  155.8540  133.8610 C   0  0  0  0  0  0  0  0  0  0  0  0
  147.0130  155.8160  134.7550 O   0  0  0  0  0  0  0  0  0  0  0  0
  148.7950  154.7900  133.6960 O   0  0  0  0  0  0  0  0  0  0  0  0
  148.4720  153.4380  133.3430 C   0  0  0  0  0  0  0  0  0  0  0  0
  149.1130  153.0510  131.9950 C   0  0  0  0  0  0  0  0  0  0  0  0
  148.9240  152.4760  134.4540 C   0  0  0  0  0  0  0  0  0  0  0  0
  146.9450  153.3660  133.2020 C   0  0  0  0  0  0  0  0  0  0  0  0
  147.0930  157.9830  132.8620 C   0  0  0  0  0  0  0  0  0  0  0  0
  145.8200  158.0660  133.4360 C   0  0  0  0  0  0  0  0  0  0  0  0
  143.5670  158.6540  135.1530 C   0  0  0  0  0  0  0  0  0  0  0  0
  142.4960  159.2600  136.0860 C   0  0  0  0  0  0  0  0  0  0  0  0
  141.5560  157.4270  137.7260 C   0  0  0  0  0  0  0  0  0  0  0  0
  141.6400  155.9270  137.4200 C   0  0  0  0  0  0  0  0  0  0  0  0
  141.1820  153.7720  134.4280 C   0  0  0  0  0  0  0  0  0  0  0  0
  141.7630  152.6690  133.7680 C   0  0  0  0  0  0  0  0  0  0  0  0
  141.0200  151.8550  132.8880 C   0  0  0  0  0  0  0  0  0  0  0  0
  139.8040  152.1360  132.6930 O   0  0  0  0  0  0  0  0  0  0  0  0
  141.5980  150.7650  132.2570 N   0  0  0  0  0  0  0  0  0  0  0  0
  140.7420  149.9320  131.3590 C   0  0  2  0  0  0  0  0  0  0  0  0
  140.0100  150.7930  130.3040 C   0  0  0  0  0  0  0  0  0  0  0  0
  139.0510  149.9520  129.4520 C   0  0  0  0  0  0  0  0  0  0  0  0
  138.0920  149.1980  130.3260 C   0  0  0  0  0  0  0  0  0  0  0  0
  136.9260  148.9520  129.9190 O   0  0  0  0  0  0  0  0  0  0  0  0
  138.5160  148.7080  131.6000 N   0  0  0  0  0  0  0  0  0  0  0  0
  139.8090  149.0230  132.1260 C   0  0  0  0  0  0  0  0  0  0  0  0
  140.1880  148.4890  133.1980 O   0  0  0  0  0  0  0  0  0  0  0  0
  144.0732  148.6669  132.7182 H   0  0  0  0  0  0  0  0  0  0  0  0
  142.9923  148.7014  131.2839 H   0  0  0  0  0  0  0  0  0  0  0  0
  144.5153  149.6538  131.2839 H   0  0  0  0  0  0  0  0  0  0  0  0
  144.7451  151.0339  133.5566 H   0  0  0  0  0  0  0  0  0  0  0  0
  144.9181  152.8988  135.0871 H   0  0  0  0  0  0  0  0  0  0  0  0
  143.8723  154.8390  136.2474 H   0  0  0  0  0  0  0  0  0  0  0  0
  140.0326  156.0802  134.3965 H   0  0  0  0  0  0  0  0  0  0  0  0
  139.2123  155.7550  135.9685 H   0  0  0  0  0  0  0  0  0  0  0  0
  140.8335  158.2402  135.2219 H   0  0  0  0  0  0  0  0  0  0  0  0
  139.0422  158.1251  135.4556 H   0  0  0  0  0  0  0  0  0  0  0  0
  139.4153  157.5548  137.9030 H   0  0  0  0  0  0  0  0  0  0  0  0
  140.5735  159.7420  139.5617 H   0  0  0  0  0  0  0  0  0  0  0  0
  141.9440  159.3778  138.4591 H   0  0  0  0  0  0  0  0  0  0  0  0
  141.2015  161.0135  138.4591 H   0  0  0  0  0  0  0  0  0  0  0  0
  139.2236  160.3553  135.7728 H   0  0  0  0  0  0  0  0  0  0  0  0
  140.4979  161.3456  136.6338 H   0  0  0  0  0  0  0  0  0  0  0  0
  140.8336  159.0338  134.7077 H   0  0  0  0  0  0  0  0  0  0  0  0
  141.1123  160.9073  133.4265 H   0  0  0  0  0  0  0  0  0  0  0  0
  141.6567  161.9089  134.8596 H   0  0  0  0  0  0  0  0  0  0  0  0
  143.3371  161.3087  132.8979 H   0  0  0  0  0  0  0  0  0  0  0  0
  143.8494  161.3243  134.6332 H   0  0  0  0  0  0  0  0  0  0  0  0
  142.9360  158.8587  133.0990 H   0  0  0  0  0  0  0  0  0  0  0  0
  144.8880  161.0664  132.0362 H   0  0  0  0  0  0  0  0  0  0  0  0
  147.1549  160.8223  130.9721 H   0  0  0  0  0  0  0  0  0  0  0  0
  149.4416  159.1048  130.8550 H   0  0  0  0  0  0  0  0  0  0  0  0
  152.5080  156.9890  131.9790 H   0  0  0  0  0  0  0  0  0  0  0  0
  150.0416  152.4904  132.1781 H   0  0  0  0  0  0  0  0  0  0  0  0
  148.4132  152.4244  131.4227 H   0  0  0  0  0  0  0  0  0  0  0  0
  149.3416  153.9621  131.4227 H   0  0  0  0  0  0  0  0  0  0  0  0
  148.7131  152.9248  135.4359 H   0  0  0  0  0  0  0  0  0  0  0  0
  148.3782  151.5255  134.3605 H   0  0  0  0  0  0  0  0  0  0  0  0
  150.0040  152.2894  134.3605 H   0  0  0  0  0  0  0  0  0  0  0  0
  146.4851  153.3443  134.2010 H   0  0  0  0  0  0  0  0  0  0  0  0
  146.5856  154.2482  132.6520 H   0  0  0  0  0  0  0  0  0  0  0  0
  146.6702  152.4539  132.6520 H   0  0  0  0  0  0  0  0  0  0  0  0
  145.4442  157.2621  134.0860 H   0  0  0  0  0  0  0  0  0  0  0  0
  143.3288  157.5924  134.9910 H   0  0  0  0  0  0  0  0  0  0  0  0
  144.5418  158.7894  135.6444 H   0  0  0  0  0  0  0  0  0  0  0  0
  142.1365  158.4741  136.7665 H   0  0  0  0  0  0  0  0  0  0  0  0
  142.9645  160.0900  136.6352 H   0  0  0  0  0  0  0  0  0  0  0  0
  142.3645  157.9459  137.1901 H   0  0  0  0  0  0  0  0  0  0  0  0
  141.6541  157.5609  138.8134 H   0  0  0  0  0  0  0  0  0  0  0  0
  142.6619  155.5747  137.6240 H   0  0  0  0  0  0  0  0  0  0  0  0
  140.9163  155.3977  138.0572 H   0  0  0  0  0  0  0  0  0  0  0  0
  140.1285  154.0241  134.2370 H   0  0  0  0  0  0  0  0  0  0  0  0
  141.4167  149.2636  130.8040 H   0  0  0  0  0  0  0  0  0  0  0  0
  139.4351  151.5763  130.8197 H   0  0  0  0  0  0  0  0  0  0  0  0
  140.7654  151.2333  129.6366 H   0  0  0  0  0  0  0  0  0  0  0  0
  138.4846  150.6163  128.7827 H   0  0  0  0  0  0  0  0  0  0  0  0
  139.6379  149.2307  128.8643 H   0  0  0  0  0  0  0  0  0  0  0  0
  1  2  1  0
  2  3  2  0
  3  4  1  0
  4  5  2  0
  5  6  1  0
  6  7  2  0
  7  8  1  0
  8  9  1  0
  9 10  1  0
 10 11  1  0
 11 12  1  0
 12 13  1  0
 12 14  1  0
 14 15  1  0
 15 16  1  0
 16 17  1  0
 17 18  1  0
 18 19  1  0
 19 20  2  0
 20 21  1  0
 21 22  2  0
 22 23  1  0
 23 24  2  0
 24 25  1  0
 25 26  1  0
 25 27  2  0
 24 28  1  0
 28 29  1  0
 29 30  2  0
 29 31  1  0
 31 32  1  0
 32 33  1  0
 32 34  1  0
 32 35  1  0
 28 36  1  0
 36 37  2  0
 18 38  1  0
 38 39  1  0
 11 40  1  0
 40 41  1  0
  7 42  1  0
 42 43  2  0
 43 44  1  0
 44 45  2  0
 44 46  1  0
 46 47  1  0
 47 48  1  0
 48 49  1  0
 49 50  1  0
 50 51  2  0
 50 52  1  0
 52 53  1  0
 53 54  2  0
 46  2  1  0
 53 47  1  0
 43  4  1  0
 41  8  1  0
 39 15  1  0
 37 19  1  0
 36 22  1  0
  1 55  1  0
  1 56  1  0
  1 57  1  0
  3 58  1  0
  5 59  1  0
  6 60  1  0
  9 61  1  0
  9 62  1  0
 10 63  1  0
 10 64  1  0
 11 65  1  0
 13 66  1  0
 13 67  1  0
 13 68  1  0
 14 69  1  0
 14 70  1  0
 15 71  1  6
 16 72  1  0
 16 73  1  0
 17 74  1  0
 17 75  1  0
 18 76  1  6
 20 77  1  0
 21 78  1  0
 23 79  1  0
 26 80  1  0
 33 81  1  0
 33 82  1  0
 33 83  1  0
 34 84  1  0
 34 85  1  0
 34 86  1  0
 35 87  1  0
 35 88  1  0
 35 89  1  0
 37 90  1  0
 38 91  1  0
 38 92  1  0
 39 93  1  0
 39 94  1  0
 40 95  1  0
 40 96  1  0
 41 97  1  0
 41 98  1  0
 42 99  1  0
 47100  1  6
 48101  1  0
 48102  1  0
 49103  1  0
 49104  1  0
M  CHG  2  26  -1  52  -1
M  END
>  <UniqueID>  (29) 
29

>  <SMILES>  (29) 
Cc1cc2ccc(N3CCC(N(C)CC4CCC(c5ccc6cc(C([NH-])=O)n(C(=O)OC(C)(C)C)c6c5)CC4)CC3)cc2c(=O)n1[C@@H]1CCC(=O)[N-]C1=O

>  <Energy>  (29) 
178.08342346251436

>  <Genealogy>  (29) 
Cc1cc2ccc(N3CCC(N(C)CC4CCC(c5ccc6cc(C([NH-])=O)n(C(=O)OC(C)(C)C)c6c5)CC4)CC3)cc2c(=O)n1C1CCC(=O)[N-]C1=O (protonated)
Cc1cc2ccc(N3CCC(N(C)CC4CCC(c5ccc6cc(C([NH-])=O)n(C(=O)OC(C)(C)C)c6c5)CC4)CC3)cc2c(=O)n1[C@@H]1CCC(=O)[N-]C1=O (chirality)
Cc1cc2ccc(N3CCC(N(C)CC4CCC(c5ccc6cc(C([NH-])=O)n(C(=O)OC(C)(C)C)c6c5)CC4)CC3)cc2c(=O)n1[C@@H]1CCC(=O)[N-]C1=O (3D coordinates assigned)
Cc1cc2ccc(N3CCC(N(C)CC4CCC(c5ccc6cc(C([NH-])=O)n(C(=O)OC(C)(C)C)c6c5)CC4)CC3)cc2c(=O)n1[C@@H]1CCC(=O)[N-]C1=O (nonaromatic ring conformer: 178.08342346251436 kcal/mol)

>  <smiles>  (29) 
Cc1cc2ccc(N3CCC(N(C)CC4CCC(c5ccc6cc(C(N)=O)n(C(=O)OC(C)(C)C)c6c5)CC4)CC3)cc2c(=O)n1C1CCC(=O)NC1=O

>  <score_type>  (29) 
oracle

>  <origin>  (29) 
adg

>  <m_score__min__energy>  (29) 
-8.9399999999999995

>  <m_primary>  (29) 
energy

$$$$
29:0
     RDKit          3D

 36 37  0  0  0  0  0  0  0  0999 V2000
  144.8310  153.6840  133.0070 C   0  0  0  0  0  0  0  0  0  0  0  0
  146.1530  153.2930  132.4850 N   0  0  0  0  0  0  0  0  0  0  0  0
  146.2160  151.8420  132.2340 C   0  0  0  0  0  0  0  0  0  0  0  0
  147.2830  153.7950  133.3100 C   0  0  0  0  0  0  0  0  0  0  0  0
  148.2530  154.7820  132.6150 C   0  0  0  0  0  0  0  0  0  0  0  0
  147.8690  156.2300  132.7770 C   0  0  0  0  0  0  0  0  0  0  0  0
  148.8570  157.2430  132.6860 C   0  0  0  0  0  0  0  0  0  0  0  0
  148.5120  158.5950  132.8460 C   0  0  0  0  0  0  0  0  0  0  0  0
  147.1780  158.9040  133.0950 C   0  0  0  0  0  0  0  0  0  0  0  0
  146.5780  160.1230  133.3110 C   0  0  0  0  0  0  0  0  0  0  0  0
  145.2300  159.8390  133.5200 C   0  0  0  0  0  0  0  0  0  0  0  0
  144.2010  160.8830  133.7020 C   0  0  0  0  0  0  0  0  0  0  0  0
  142.8400  160.6380  133.3630 N   0  0  0  0  0  0  0  0  0  0  0  0
  144.5370  162.0250  134.1160 O   0  0  0  0  0  0  0  0  0  0  0  0
  145.0060  158.4970  133.4460 N   0  0  0  0  0  0  0  0  0  0  0  0
  143.7760  157.7970  133.6910 C   0  0  0  0  0  0  0  0  0  0  0  0
  142.8340  157.8560  132.8590 O   0  0  0  0  0  0  0  0  0  0  0  0
  143.6250  157.0250  134.8370 O   0  0  0  0  0  0  0  0  0  0  0  0
  146.2090  157.9380  133.1820 C   0  0  0  0  0  0  0  0  0  0  0  0
  146.5270  156.5820  133.0490 C   0  0  0  0  0  0  0  0  0  0  0  0
  144.8543  153.6771  134.1067 H   0  0  0  0  0  0  0  0  0  0  0  0
  144.5808  154.6946  132.6519 H   0  0  0  0  0  0  0  0  0  0  0  0
  144.0713  152.9721  132.6519 H   0  0  0  0  0  0  0  0  0  0  0  0
  146.2470  153.7600  131.5510 H   0  0  0  0  0  0  0  0  0  0  0  0
  146.2393  151.3046  133.1935 H   0  0  0  0  0  0  0  0  0  0  0  0
  145.3305  151.5303  131.6606 H   0  0  0  0  0  0  0  0  0  0  0  0
  147.1251  151.6082  131.6606 H   0  0  0  0  0  0  0  0  0  0  0  0
  146.8574  154.3046  134.1870 H   0  0  0  0  0  0  0  0  0  0  0  0
  147.8882  152.9083  133.5500 H   0  0  0  0  0  0  0  0  0  0  0  0
  149.2568  154.6398  133.0420 H   0  0  0  0  0  0  0  0  0  0  0  0
  148.2174  154.5603  131.5382 H   0  0  0  0  0  0  0  0  0  0  0  0
  149.9034  156.9674  132.4883 H   0  0  0  0  0  0  0  0  0  0  0  0
  149.2733  159.3860  132.7766 H   0  0  0  0  0  0  0  0  0  0  0  0
  147.0600  161.1118  133.3174 H   0  0  0  0  0  0  0  0  0  0  0  0
  142.5870  159.9910  132.5830 H   0  0  0  0  0  0  0  0  0  0  0  0
  145.7518  155.8086  133.1535 H   0  0  0  0  0  0  0  0  0  0  0  0
  1  2  1  0
  2  3  1  0
  2  4  1  0
  4  5  1  0
  5  6  1  0
  6  7  2  0
  7  8  1  0
  8  9  2  0
  9 10  1  0
 10 11  2  0
 11 12  1  0
 12 13  1  0
 12 14  2  0
 11 15  1  0
 15 16  1  0
 16 17  2  0
 16 18  1  0
 15 19  1  0
 19 20  2  0
 20  6  1  0
 19  9  1  0
  1 21  1  0
  1 22  1  0
  1 23  1  0
  2 24  1  0
  3 25  1  0
  3 26  1  0
  3 27  1  0
  4 28  1  0
  4 29  1  0
  5 30  1  0
  5 31  1  0
  7 32  1  0
  8 33  1  0
 10 34  1  0
 13 35  1  0
 20 36  1  0
M  CHG  3   2   1  13  -1  18  -1
M  END
>  <UniqueID>  (30) 
30

>  <SMILES>  (30) 
C[NH+](C)CCc1ccc2cc(C([NH-])=O)n(C(=O)[O-])c2c1

>  <Energy>  (30) 
78.80252341528079

>  <Genealogy>  (30) 
C[NH+](C)CCc1ccc2cc(C([NH-])=O)n(C(=O)[O-])c2c1 (protonated)
C[NH+](C)CCc1ccc2cc(C([NH-])=O)n(C(=O)[O-])c2c1 (3D coordinates assigned)
C[NH+](C)CCc1ccc2cc(C([NH-])=O)n(C(=O)[O-])c2c1 (optimized conformer: 78.80252341528079 kcal/mol)

>  <smiles>  (30) 
CN(C)CCc1ccc2cc(C(N)=O)n(C(=O)O)c2c1

>  <score_type>  (30) 
oracle

>  <origin>  (30) 
adg

>  <m_score__min__energy>  (30) 
-6.1799999999999997

>  <m_primary>  (30) 
energy

$$$$
30:0
     RDKit          3D

 42 44  0  0  0  0  0  0  0  0999 V2000
  147.7560  154.4760  133.9550 C   0  0  0  0  0  0  0  0  0  0  0  0
  147.0660  155.7190  133.9810 O   0  0  0  0  0  0  0  0  0  0  0  0
  146.9570  156.5440  132.8570 C   0  0  0  0  0  0  0  0  0  0  0  0
  147.0100  156.0500  131.6970 O   0  0  0  0  0  0  0  0  0  0  0  0
  146.7590  157.9560  133.0260 N   0  0  0  0  0  0  0  0  0  0  0  0
  147.6410  158.9620  132.7660 C   0  0  0  0  0  0  0  0  0  0  0  0
  149.0630  158.7990  132.3950 C   0  0  0  0  0  0  0  0  0  0  0  0
  149.6350  157.5040  132.2320 N   0  0  0  0  0  0  0  0  0  0  0  0
  149.7940  159.8170  132.2660 O   0  0  0  0  0  0  0  0  0  0  0  0
  147.0430  160.2020  132.9760 C   0  0  0  0  0  0  0  0  0  0  0  0
  145.7590  159.9210  133.3850 C   0  0  0  0  0  0  0  0  0  0  0  0
  144.7210  160.7790  133.7160 C   0  0  0  0  0  0  0  0  0  0  0  0
  143.4850  160.2170  134.0750 C   0  0  0  0  0  0  0  0  0  0  0  0
  143.2870  158.8020  134.0980 C   0  0  0  0  0  0  0  0  0  0  0  0
  141.9930  158.2250  134.4640 N   0  0  0  0  0  0  0  0  0  0  0  0
  141.5580  156.9750  133.8020 C   0  0  0  0  0  0  0  0  0  0  0  0
  140.2290  156.4000  134.3130 C   0  0  0  0  0  0  0  0  0  0  0  0
  139.2570  157.4360  134.6790 N   0  0  0  0  0  0  0  0  0  0  0  0
  138.7920  158.2220  133.5230 C   0  0  0  0  0  0  0  0  0  0  0  0
  139.8030  158.2680  135.7550 C   0  0  0  0  0  0  0  0  0  0  0  0
  141.1010  158.9890  135.3630 C   0  0  0  0  0  0  0  0  0  0  0  0
  144.3880  157.9710  133.7390 C   0  0  0  0  0  0  0  0  0  0  0  0
  145.6120  158.5620  133.4080 C   0  0  0  0  0  0  0  0  0  0  0  0
  147.9431  154.1389  134.9852 H   0  0  0  0  0  0  0  0  0  0  0  0
  147.1441  153.7278  133.4298 H   0  0  0  0  0  0  0  0  0  0  0  0
  148.7146  154.5997  133.4298 H   0  0  0  0  0  0  0  0  0  0  0  0
  149.0720  156.7120  131.8500 H   0  0  0  0  0  0  0  0  0  0  0  0
  147.4992  161.1941  132.8434 H   0  0  0  0  0  0  0  0  0  0  0  0
  144.8619  161.8698  133.6979 H   0  0  0  0  0  0  0  0  0  0  0  0
  142.6505  160.8810  134.3445 H   0  0  0  0  0  0  0  0  0  0  0  0
  141.4512  157.1777  132.7261 H   0  0  0  0  0  0  0  0  0  0  0  0
  142.3271  156.2222  134.0297 H   0  0  0  0  0  0  0  0  0  0  0  0
  139.7915  155.7731  133.5220 H   0  0  0  0  0  0  0  0  0  0  0  0
  140.4497  155.8213  135.2220 H   0  0  0  0  0  0  0  0  0  0  0  0
  138.2619  159.1180  133.8782 H   0  0  0  0  0  0  0  0  0  0  0  0
  139.6565  158.5247  132.9138 H   0  0  0  0  0  0  0  0  0  0  0  0
  138.1105  157.6101  132.9138 H   0  0  0  0  0  0  0  0  0  0  0  0
  139.0519  159.0239  136.0278 H   0  0  0  0  0  0  0  0  0  0  0  0
  140.0413  157.6000  136.5958 H   0  0  0  0  0  0  0  0  0  0  0  0
  140.8307  159.9282  134.8581 H   0  0  0  0  0  0  0  0  0  0  0  0
  141.6623  159.1412  136.2967 H   0  0  0  0  0  0  0  0  0  0  0  0
  144.2764  156.8768  133.7224 H   0  0  0  0  0  0  0  0  0  0  0  0
  1  2  1  0
  2  3  1  0
  3  4  2  0
  3  5  1  0
  5  6  1  0
  6  7  1  0
  7  8  1  0
  7  9  2  0
  6 10  2  0
 10 11  1  0
 11 12  2  0
 12 13  1  0
 13 14  2  0
 14 15  1  0
 15 16  1  0
 16 17  1  0
 17 18  1  0
 18 19  1  0
 18 20  1  0
 20 21  1  0
 14 22  1  0
 22 23  2  0
 23  5  1  0
 23 11  1  0
 21 15  1  0
  1 24  1  0
  1 25  1  0
  1 26  1  0
  8 27  1  0
 10 28  1  0
 12 29  1  0
 13 30  1  0
 16 31  1  0
 16 32  1  0
 17 33  1  0
 17 34  1  0
 19 35  1  0
 19 36  1  0
 19 37  1  0
 20 38  1  0
 20 39  1  0
 21 40  1  0
 21 41  1  0
 22 42  1  0
M  CHG  1   8  -1
M  END
>  <UniqueID>  (31) 
31

>  <SMILES>  (31) 
COC(=O)n1c(C([NH-])=O)cc2ccc(N3CCN(C)CC3)cc21

>  <Energy>  (31) 
91.17770213422118

>  <Genealogy>  (31) 
COC(=O)n1c(C([NH-])=O)cc2ccc(N3CCN(C)CC3)cc21 (protonated)
COC(=O)n1c(C([NH-])=O)cc2ccc(N3CCN(C)CC3)cc21 (3D coordinates assigned)
COC(=O)n1c(C([NH-])=O)cc2ccc(N3CCN(C)CC3)cc21 (nonaromatic ring conformer: 91.17770213422118 kcal/mol)

>  <smiles>  (31) 
COC(=O)n1c(C(N)=O)cc2ccc(N3CCN(C)CC3)cc21

>  <score_type>  (31) 
oracle

>  <origin>  (31) 
adg

>  <m_score__min__energy>  (31) 
-6.7400000000000002

>  <m_primary>  (31) 
energy

$$$$
31:0
     RDKit          3D

 31 33  0  0  0  0  0  0  0  0999 V2000
  145.9160  163.0720  134.8730 N   0  0  0  0  0  0  0  0  0  0  0  0
  145.2010  162.0950  134.1210 C   0  0  0  0  0  0  0  0  0  0  0  0
  144.0620  162.3820  133.6650 O   0  0  0  0  0  0  0  0  0  0  0  0
  145.7980  160.7770  133.8220 C   0  0  0  0  0  0  0  0  0  0  0  0
  147.1380  160.6040  133.4790 C   0  0  0  0  0  0  0  0  0  0  0  0
  147.3150  159.2450  133.3710 C   0  0  0  0  0  0  0  0  0  0  0  0
  148.4510  158.5150  133.0400 C   0  0  0  0  0  0  0  0  0  0  0  0
  148.3400  157.1160  132.9710 C   0  0  0  0  0  0  0  0  0  0  0  0
  147.1010  156.4730  133.2290 C   0  0  0  0  0  0  0  0  0  0  0  0
  146.9880  154.9980  133.1340 C   0  0  0  0  0  0  0  0  0  0  0  0
  145.7260  154.3840  133.1880 C   0  0  0  0  0  0  0  0  0  0  0  0
  145.6270  152.9940  133.0930 C   0  0  0  0  0  0  0  0  0  0  0  0
  146.7480  152.2360  132.9520 N   0  0  0  0  0  0  0  0  0  0  0  0
  147.9840  152.8010  132.9030 C   0  0  0  0  0  0  0  0  0  0  0  0
  148.1290  154.1880  132.9930 C   0  0  0  0  0  0  0  0  0  0  0  0
  149.3750  154.7270  132.9790 F   0  0  0  0  0  0  0  0  0  0  0  0
  145.9660  157.2530  133.5570 C   0  0  0  0  0  0  0  0  0  0  0  0
  146.1120  158.6420  133.6370 C   0  0  0  0  0  0  0  0  0  0  0  0
  145.1680  159.5700  133.9120 N   0  0  0  0  0  0  0  0  0  0  0  0
  143.7750  159.3190  134.1560 C   0  0  0  0  0  0  0  0  0  0  0  0
  143.2250  159.7470  135.2050 O   0  0  0  0  0  0  0  0  0  0  0  0
  143.0140  158.6240  133.2240 O   0  0  0  0  0  0  0  0  0  0  0  0
  146.9600  163.1050  134.8560 H   0  0  0  0  0  0  0  0  0  0  0  0
  147.8937  161.3887  133.3270 H   0  0  0  0  0  0  0  0  0  0  0  0
  149.4083  159.0178  132.8381 H   0  0  0  0  0  0  0  0  0  0  0  0
  149.2230  156.5123  132.7142 H   0  0  0  0  0  0  0  0  0  0  0  0
  144.8191  154.9954  133.3047 H   0  0  0  0  0  0  0  0  0  0  0  0
  144.6397  152.5107  133.1323 H   0  0  0  0  0  0  0  0  0  0  0  0
  146.6570  151.1980  132.8830 H   0  0  0  0  0  0  0  0  0  0  0  0
  148.8735  152.1635  132.7920 H   0  0  0  0  0  0  0  0  0  0  0  0
  144.9918  156.7779  133.7446 H   0  0  0  0  0  0  0  0  0  0  0  0
  1  2  1  0
  2  3  2  0
  2  4  1  0
  4  5  2  0
  5  6  1  0
  6  7  2  0
  7  8  1  0
  8  9  2  0
  9 10  1  0
 10 11  2  0
 11 12  1  0
 12 13  2  0
 13 14  1  0
 14 15  2  0
 15 16  1  0
  9 17  1  0
 17 18  2  0
 18 19  1  0
 19 20  1  0
 20 21  2  0
 20 22  1  0
 19  4  1  0
 18  6  1  0
 15 10  1  0
  1 23  1  0
  5 24  1  0
  7 25  1  0
  8 26  1  0
 11 27  1  0
 12 28  1  0
 13 29  1  0
 14 30  1  0
 17 31  1  0
M  CHG  3   1  -1  13   1  22  -1
M  END
>  <UniqueID>  (32) 
32

>  <SMILES>  (32) 
[NH-]C(=O)c1cc2ccc(-c3cc[nH+]cc3F)cc2n1C(=O)[O-]

>  <Energy>  (32) 
80.08255610349346

>  <Genealogy>  (32) 
[NH-]C(=O)c1cc2ccc(-c3cc[nH+]cc3F)cc2n1C(=O)[O-] (protonated)
[NH-]C(=O)c1cc2ccc(-c3cc[nH+]cc3F)cc2n1C(=O)[O-] (3D coordinates assigned)
[NH-]C(=O)c1cc2ccc(-c3cc[nH+]cc3F)cc2n1C(=O)[O-] (optimized conformer: 80.08255610349346 kcal/mol)

>  <smiles>  (32) 
NC(=O)c1cc2ccc(-c3ccncc3F)cc2n1C(=O)O

>  <score_type>  (32) 
oracle

>  <origin>  (32) 
adg

>  <m_score__min__energy>  (32) 
-6.6600000000000001

>  <m_primary>  (32) 
energy

$$$$
32:0
     RDKit          3D

 46 48  0  0  0  0  0  0  0  0999 V2000
  139.1410  155.6510  132.9800 C   0  0  0  0  0  0  0  0  0  0  0  0
  140.0800  154.5850  132.9040 O   0  0  0  0  0  0  0  0  0  0  0  0
  141.1910  154.4970  133.7490 C   0  0  0  0  0  0  0  0  0  0  0  0
  141.2080  155.1250  134.8430 O   0  0  0  0  0  0  0  0  0  0  0  0
  142.3180  153.6890  133.3700 N   0  0  0  0  0  0  0  0  0  0  0  0
  142.3570  152.3330  133.2330 C   0  0  0  0  0  0  0  0  0  0  0  0
  141.1960  151.4230  133.2920 C   0  0  0  0  0  0  0  0  0  0  0  0
  139.9540  151.7650  132.6770 N   0  0  0  0  0  0  0  0  0  0  0  0
  141.3190  150.3000  133.8500 O   0  0  0  0  0  0  0  0  0  0  0  0
  143.6550  151.9020  132.9740 C   0  0  0  0  0  0  0  0  0  0  0  0
  144.4170  153.0470  132.9410 C   0  0  0  0  0  0  0  0  0  0  0  0
  145.7830  153.2040  132.7380 C   0  0  0  0  0  0  0  0  0  0  0  0
  146.3140  154.5030  132.7970 C   0  0  0  0  0  0  0  0  0  0  0  0
  145.4820  155.6240  133.0690 C   0  0  0  0  0  0  0  0  0  0  0  0
  146.0430  156.9560  133.1410 N   0  0  0  0  0  0  0  0  0  0  0  0
  145.2500  158.1580  133.3670 C   0  0  0  0  0  0  0  0  0  0  0  0
  146.2060  159.3360  133.2150 C   0  0  0  0  0  0  0  0  0  0  0  0
  147.6150  158.7310  133.3380 C   0  0  2  0  0  0  0  0  0  0  0  0
  148.6820  159.4400  132.5780 N   0  0  0  0  0  0  0  0  0  0  0  0
  148.1160  160.4860  131.7100 C   0  0  0  0  0  0  0  0  0  0  0  0
  149.6110  158.5720  131.8240 C   0  0  0  0  0  0  0  0  0  0  0  0
  147.4620  157.2480  132.9830 C   0  0  0  0  0  0  0  0  0  0  0  0
  144.0950  155.4140  133.2730 C   0  0  0  0  0  0  0  0  0  0  0  0
  143.5890  154.1110  133.1850 C   0  0  0  0  0  0  0  0  0  0  0  0
  138.9356  155.8842  134.0352 H   0  0  0  0  0  0  0  0  0  0  0  0
  139.5546  156.5402  132.4818 H   0  0  0  0  0  0  0  0  0  0  0  0
  138.2067  155.3529  132.4818 H   0  0  0  0  0  0  0  0  0  0  0  0
  139.8700  152.6060  132.0620 H   0  0  0  0  0  0  0  0  0  0  0  0
  139.1320  151.1280  132.7640 H   0  0  0  0  0  0  0  0  0  0  0  0
  143.9981  150.8672  132.8271 H   0  0  0  0  0  0  0  0  0  0  0  0
  146.4291  152.3367  132.5371 H   0  0  0  0  0  0  0  0  0  0  0  0
  147.3905  154.6558  132.6302 H   0  0  0  0  0  0  0  0  0  0  0  0
  144.4410  158.2258  132.6248 H   0  0  0  0  0  0  0  0  0  0  0  0
  144.7833  158.1477  134.3630 H   0  0  0  0  0  0  0  0  0  0  0  0
  146.0759  159.8140  132.2329 H   0  0  0  0  0  0  0  0  0  0  0  0
  146.0247  160.1128  133.9725 H   0  0  0  0  0  0  0  0  0  0  0  0
  147.9892  158.8540  134.3650 H   0  0  0  0  0  0  0  0  0  0  0  0
  147.6841  161.2842  132.3316 H   0  0  0  0  0  0  0  0  0  0  0  0
  148.9104  160.9051  131.0750 H   0  0  0  0  0  0  0  0  0  0  0  0
  147.3306  160.0502  131.0750 H   0  0  0  0  0  0  0  0  0  0  0  0
  150.2280  157.9955  132.5290 H   0  0  0  0  0  0  0  0  0  0  0  0
  149.0350  157.8810  131.1910 H   0  0  0  0  0  0  0  0  0  0  0  0
  150.2613  159.1935  131.1910 H   0  0  0  0  0  0  0  0  0  0  0  0
  147.7791  157.0660  131.9455 H   0  0  0  0  0  0  0  0  0  0  0  0
  148.0851  156.6076  133.6247 H   0  0  0  0  0  0  0  0  0  0  0  0
  143.4279  156.2596  133.4965 H   0  0  0  0  0  0  0  0  0  0  0  0
  1  2  1  0
  2  3  1  0
  3  4  2  0
  3  5  1  0
  5  6  1  0
  6  7  1  0
  7  8  1  0
  7  9  2  0
  6 10  2  0
 10 11  1  0
 11 12  2  0
 12 13  1  0
 13 14  2  0
 14 15  1  0
 15 16  1  0
 16 17  1  0
 17 18  1  0
 18 19  1  0
 19 20  1  0
 19 21  1  0
 18 22  1  0
 14 23  1  0
 23 24  2  0
 24  5  1  0
 24 11  1  0
 22 15  1  0
  1 25  1  0
  1 26  1  0
  1 27  1  0
  8 28  1  0
  8 29  1  0
 10 30  1  0
 12 31  1  0
 13 32  1  0
 16 33  1  0
 16 34  1  0
 17 35  1  0
 17 36  1  0
 18 37  1  1
 20 38  1  0
 20 39  1  0
 20 40  1  0
 21 41  1  0
 21 42  1  0
 21 43  1  0
 22 44  1  0
 22 45  1  0
 23 46  1  0
M  END
>  <UniqueID>  (33) 
33

>  <SMILES>  (33) 
COC(=O)n1c(C(N)=O)cc2ccc(N3CC[C@H](N(C)C)C3)cc21

>  <Energy>  (33) 
94.85876715292544

>  <Genealogy>  (33) 
COC(=O)n1c(C(N)=O)cc2ccc(N3CC[C@H](N(C)C)C3)cc21 (3D coordinates assigned)
COC(=O)n1c(C(N)=O)cc2ccc(N3CC[C@H](N(C)C)C3)cc21 (nonaromatic ring conformer: 94.85876715292544 kcal/mol)

>  <smiles>  (33) 
COC(=O)n1c(C(N)=O)cc2ccc(N3CC[C@H](N(C)C)C3)cc21

>  <score_type>  (33) 
oracle

>  <origin>  (33) 
adg

>  <m_score__min__energy>  (33) 
-7.4400000000000004

>  <m_primary>  (33) 
energy

$$$$
33:0
     RDKit          3D

 48 50  0  0  0  0  0  0  0  0999 V2000
  145.7750  154.5940  135.5640 C   0  0  0  0  0  0  0  0  0  0  0  0
  145.8980  154.4870  134.1500 O   0  0  0  0  0  0  0  0  0  0  0  0
  147.0410  154.0140  133.4860 C   0  0  0  0  0  0  0  0  0  0  0  0
  147.2790  152.6730  133.3500 N   0  0  0  0  0  0  0  0  0  0  0  0
  148.3990  152.2040  132.7370 C   0  0  0  0  0  0  0  0  0  0  0  0
  149.3450  153.0900  132.2270 C   0  0  0  0  0  0  0  0  0  0  0  0
  149.1300  154.4620  132.3460 C   0  0  0  0  0  0  0  0  0  0  0  0
  147.9710  154.9440  132.9700 C   0  0  0  0  0  0  0  0  0  0  0  0
  147.7460  156.4050  133.0800 C   0  0  0  0  0  0  0  0  0  0  0  0
  148.8380  157.3040  132.9810 C   0  0  0  0  0  0  0  0  0  0  0  0
  148.6380  158.6900  133.0730 C   0  0  0  0  0  0  0  0  0  0  0  0
  147.3390  159.1500  133.2660 C   0  0  0  0  0  0  0  0  0  0  0  0
  146.8620  160.4370  133.3700 C   0  0  0  0  0  0  0  0  0  0  0  0
  145.4860  160.3070  133.5490 C   0  0  0  0  0  0  0  0  0  0  0  0
  144.5880  161.4540  133.8000 C   0  0  0  0  0  0  0  0  0  0  0  0
  143.1720  161.3060  133.7300 N   0  0  0  0  0  0  0  0  0  0  0  0
  145.0760  162.5680  134.1300 O   0  0  0  0  0  0  0  0  0  0  0  0
  145.1250  158.9920  133.5430 N   0  0  0  0  0  0  0  0  0  0  0  0
  143.8040  158.4360  133.6230 C   0  0  0  0  0  0  0  0  0  0  0  0
  143.3270  157.8170  132.6350 O   0  0  0  0  0  0  0  0  0  0  0  0
  143.0740  158.5670  134.8140 O   0  0  0  0  0  0  0  0  0  0  0  0
  141.6650  158.3530  134.9770 C   0  0  0  0  0  0  0  0  0  0  0  0
  140.8790  159.0440  133.8460 C   0  0  0  0  0  0  0  0  0  0  0  0
  141.2650  158.9840  136.3190 C   0  0  0  0  0  0  0  0  0  0  0  0
  141.3460  156.8470  135.0220 C   0  0  0  0  0  0  0  0  0  0  0  0
  146.2720  158.2980  133.3740 C   0  0  0  0  0  0  0  0  0  0  0  0
  146.4390  156.9130  133.2630 C   0  0  0  0  0  0  0  0  0  0  0  0
  146.5206  153.9454  136.0470 H   0  0  0  0  0  0  0  0  0  0  0  0
  145.9441  155.6373  135.8689 H   0  0  0  0  0  0  0  0  0  0  0  0
  144.7652  154.2820  135.8689 H   0  0  0  0  0  0  0  0  0  0  0  0
  146.6020  151.9710  133.7210 H   0  0  0  0  0  0  0  0  0  0  0  0
  148.5584  151.1196  132.6436 H   0  0  0  0  0  0  0  0  0  0  0  0
  150.2529  152.7107  131.7352 H   0  0  0  0  0  0  0  0  0  0  0  0
  149.8728  155.1694  131.9486 H   0  0  0  0  0  0  0  0  0  0  0  0
  149.8540  156.9104  132.8303 H   0  0  0  0  0  0  0  0  0  0  0  0
  149.4820  159.3911  132.9949 H   0  0  0  0  0  0  0  0  0  0  0  0
  147.4432  161.3697  133.3220 H   0  0  0  0  0  0  0  0  0  0  0  0
  142.7340  160.3620  133.6410 H   0  0  0  0  0  0  0  0  0  0  0  0
  140.1203  159.7110  134.2812 H   0  0  0  0  0  0  0  0  0  0  0  0
  141.5708  159.6317  133.2247 H   0  0  0  0  0  0  0  0  0  0  0  0
  140.3848  158.2826  133.2247 H   0  0  0  0  0  0  0  0  0  0  0  0
  141.6547  158.3693  137.1438 H   0  0  0  0  0  0  0  0  0  0  0  0
  141.6855  159.9982  136.3871 H   0  0  0  0  0  0  0  0  0  0  0  0
  140.1684  159.0364  136.3871 H   0  0  0  0  0  0  0  0  0  0  0  0
  141.2763  156.5181  136.0694 H   0  0  0  0  0  0  0  0  0  0  0  0
  140.3883  156.6597  134.5144 H   0  0  0  0  0  0  0  0  0  0  0  0
  142.1456  156.2875  134.5144 H   0  0  0  0  0  0  0  0  0  0  0  0
  145.5741  156.2355  133.3168 H   0  0  0  0  0  0  0  0  0  0  0  0
  1  2  1  0
  2  3  1  0
  3  4  2  0
  4  5  1  0
  5  6  2  0
  6  7  1  0
  7  8  2  0
  8  9  1  0
  9 10  2  0
 10 11  1  0
 11 12  2  0
 12 13  1  0
 13 14  2  0
 14 15  1  0
 15 16  1  0
 15 17  2  0
 14 18  1  0
 18 19  1  0
 19 20  2  0
 19 21  1  0
 21 22  1  0
 22 23  1  0
 22 24  1  0
 22 25  1  0
 18 26  1  0
 26 27  2  0
  8  3  1  0
 27  9  1  0
 26 12  1  0
  1 28  1  0
  1 29  1  0
  1 30  1  0
  4 31  1  0
  5 32  1  0
  6 33  1  0
  7 34  1  0
 10 35  1  0
 11 36  1  0
 13 37  1  0
 16 38  1  0
 23 39  1  0
 23 40  1  0
 23 41  1  0
 24 42  1  0
 24 43  1  0
 24 44  1  0
 25 45  1  0
 25 46  1  0
 25 47  1  0
 27 48  1  0
M  CHG  2   4   1  16  -1
M  END
>  <UniqueID>  (34) 
34

>  <SMILES>  (34) 
COc1[nH+]cccc1-c1ccc2cc(C([NH-])=O)n(C(=O)OC(C)(C)C)c2c1

>  <Energy>  (34) 
88.4891276113413

>  <Genealogy>  (34) 
COc1[nH+]cccc1-c1ccc2cc(C([NH-])=O)n(C(=O)OC(C)(C)C)c2c1 (protonated)
COc1[nH+]cccc1-c1ccc2cc(C([NH-])=O)n(C(=O)OC(C)(C)C)c2c1 (3D coordinates assigned)
COc1[nH+]cccc1-c1ccc2cc(C([NH-])=O)n(C(=O)OC(C)(C)C)c2c1 (optimized conformer: 88.4891276113413 kcal/mol)

>  <smiles>  (34) 
COc1ncccc1-c1ccc2cc(C(N)=O)n(C(=O)OC(C)(C)C)c2c1

>  <score_type>  (34) 
oracle

>  <origin>  (34) 
adg

>  <m_score__min__energy>  (34) 
-7.8399999999999999

>  <m_primary>  (34) 
energy

$$$$
34:0
     RDKit          3D

 29 30  0  0  0  0  0  0  0  0999 V2000
  149.3200  159.6310  131.0940 C   0  0  0  0  0  0  0  0  0  0  0  0
  148.0990  159.4990  131.8110 O   0  0  0  0  0  0  0  0  0  0  0  0
  147.9790  158.7050  132.9550 C   0  0  0  0  0  0  0  0  0  0  0  0
  148.8100  158.8190  133.8970 O   0  0  0  0  0  0  0  0  0  0  0  0
  146.9040  157.7550  133.0590 N   0  0  0  0  0  0  0  0  0  0  0  0
  145.6000  158.0070  133.3650 C   0  0  0  0  0  0  0  0  0  0  0  0
  144.9850  159.3430  133.4950 C   0  0  0  0  0  0  0  0  0  0  0  0
  145.5530  160.4860  132.8550 N   0  0  0  0  0  0  0  0  0  0  0  0
  143.9080  159.4670  134.1380 O   0  0  0  0  0  0  0  0  0  0  0  0
  144.8860  156.8190  133.4940 C   0  0  0  0  0  0  0  0  0  0  0  0
  145.7980  155.8200  133.2430 C   0  0  0  0  0  0  0  0  0  0  0  0
  145.6350  154.4380  133.2640 C   0  0  0  0  0  0  0  0  0  0  0  0
  146.7610  153.6380  133.0120 C   0  0  0  0  0  0  0  0  0  0  0  0
  148.0230  154.2260  132.7390 C   0  0  0  0  0  0  0  0  0  0  0  0
  149.2380  153.3560  132.5360 C   0  0  0  0  0  0  0  0  0  0  0  0
  149.0400  152.4780  131.4850 F   0  0  0  0  0  0  0  0  0  0  0  0
  149.5030  152.6150  133.6740 F   0  0  0  0  0  0  0  0  0  0  0  0
  150.3290  154.1570  132.2550 F   0  0  0  0  0  0  0  0  0  0  0  0
  148.1530  155.6350  132.7540 C   0  0  0  0  0  0  0  0  0  0  0  0
  147.0090  156.4080  132.9850 C   0  0  0  0  0  0  0  0  0  0  0  0
  150.1547  159.7212  131.8048 H   0  0  0  0  0  0  0  0  0  0  0  0
  149.4714  158.7440  130.4613 H   0  0  0  0  0  0  0  0  0  0  0  0
  149.2784  160.5299  130.4613 H   0  0  0  0  0  0  0  0  0  0  0  0
  146.3420  160.3890  132.1790 H   0  0  0  0  0  0  0  0  0  0  0  0
  145.1270  161.4300  132.9910 H   0  0  0  0  0  0  0  0  0  0  0  0
  143.8208  156.7037  133.7432 H   0  0  0  0  0  0  0  0  0  0  0  0
  144.6538  153.9862  133.4717 H   0  0  0  0  0  0  0  0  0  0  0  0
  146.6636  152.5424  133.0264 H   0  0  0  0  0  0  0  0  0  0  0  0
  149.1303  156.1118  132.5880 H   0  0  0  0  0  0  0  0  0  0  0  0
  1  2  1  0
  2  3  1  0
  3  4  2  0
  3  5  1  0
  5  6  1  0
  6  7  1  0
  7  8  1  0
  7  9  2  0
  6 10  2  0
 10 11  1  0
 11 12  2  0
 12 13  1  0
 13 14  2  0
 14 15  1  0
 15 16  1  0
 15 17  1  0
 15 18  1  0
 14 19  1  0
 19 20  2  0
 20  5  1  0
 20 11  1  0
  1 21  1  0
  1 22  1  0
  1 23  1  0
  8 24  1  0
  8 25  1  0
 10 26  1  0
 12 27  1  0
 13 28  1  0
 19 29  1  0
M  END
>  <UniqueID>  (35) 
35

>  <SMILES>  (35) 
COC(=O)n1c(C(N)=O)cc2ccc(C(F)(F)F)cc21

>  <Energy>  (35) 
67.42554874981606

>  <Genealogy>  (35) 
COC(=O)n1c(C(N)=O)cc2ccc(C(F)(F)F)cc21 (3D coordinates assigned)
COC(=O)n1c(C(N)=O)cc2ccc(C(F)(F)F)cc21 (optimized conformer: 67.42554874981606 kcal/mol)

>  <smiles>  (35) 
COC(=O)n1c(C(N)=O)cc2ccc(C(F)(F)F)cc21

>  <score_type>  (35) 
oracle

>  <origin>  (35) 
adg

>  <m_score__min__energy>  (35) 
-5.5700000000000003

>  <m_primary>  (35) 
energy

$$$$
35:0
     RDKit          3D

 33 35  0  0  0  0  0  0  0  0999 V2000
  138.7320  155.6120  132.9740 N   0  0  0  0  0  0  0  0  0  0  0  0
  140.1100  155.3460  133.2450 C   0  0  0  0  0  0  0  0  0  0  0  0
  140.4800  154.1560  133.4340 O   0  0  0  0  0  0  0  0  0  0  0  0
  141.0970  156.4380  133.3570 C   0  0  0  0  0  0  0  0  0  0  0  0
  142.4760  156.2360  133.3440 C   0  0  0  0  0  0  0  0  0  0  0  0
  143.0290  157.4890  133.4830 C   0  0  0  0  0  0  0  0  0  0  0  0
  144.3630  157.8820  133.4980 C   0  0  0  0  0  0  0  0  0  0  0  0
  144.6450  159.2550  133.5950 C   0  0  0  0  0  0  0  0  0  0  0  0
  143.5940  160.2040  133.6700 C   0  0  0  0  0  0  0  0  0  0  0  0
  143.9060  161.6730  133.7220 C   0  0  0  0  0  0  0  0  0  0  0  0
  145.2600  161.8900  134.3190 C   0  0  0  0  0  0  0  0  0  0  0  0
  145.3980  162.6420  135.3190 O   0  0  0  0  0  0  0  0  0  0  0  0
  146.3770  161.3010  133.7400 O   0  0  0  0  0  0  0  0  0  0  0  0
  142.2510  159.7690  133.6350 C   0  0  0  0  0  0  0  0  0  0  0  0
  142.0000  158.3930  133.5670 C   0  0  0  0  0  0  0  0  0  0  0  0
  140.8080  157.7610  133.4970 N   0  0  0  0  0  0  0  0  0  0  0  0
  139.5150  158.3800  133.4240 C   0  0  0  0  0  0  0  0  0  0  0  0
  138.7020  158.2420  134.3790 O   0  0  0  0  0  0  0  0  0  0  0  0
  139.1410  159.1990  132.2620 C   0  0  0  0  0  0  0  0  0  0  0  0
  138.4650  158.7820  131.1380 C   0  0  0  0  0  0  0  0  0  0  0  0
  138.3120  159.8340  130.3120 N   0  0  0  0  0  0  0  0  0  0  0  0
  138.9040  160.8510  130.9750 C   0  0  0  0  0  0  0  0  0  0  0  0
  139.3950  160.4770  132.1350 O   0  0  0  0  0  0  0  0  0  0  0  0
  138.0640  154.8210  132.8420 H   0  0  0  0  0  0  0  0  0  0  0  0
  138.3540  156.5830  133.0040 H   0  0  0  0  0  0  0  0  0  0  0  0
  143.0090  155.2790  133.2439 H   0  0  0  0  0  0  0  0  0  0  0  0
  145.1729  157.1403  133.4358 H   0  0  0  0  0  0  0  0  0  0  0  0
  145.6904  159.5968  133.6129 H   0  0  0  0  0  0  0  0  0  0  0  0
  143.8877  162.0852  132.7023 H   0  0  0  0  0  0  0  0  0  0  0  0
  143.1530  162.1792  134.3439 H   0  0  0  0  0  0  0  0  0  0  0  0
  141.4230  160.4927  133.6605 H   0  0  0  0  0  0  0  0  0  0  0  0
  138.1089  157.7590  130.9464 H   0  0  0  0  0  0  0  0  0  0  0  0
  138.9680  161.8783  130.5870 H   0  0  0  0  0  0  0  0  0  0  0  0
  1  2  1  0
  2  3  2  0
  2  4  1  0
  4  5  2  0
  5  6  1  0
  6  7  2  0
  7  8  1  0
  8  9  2  0
  9 10  1  0
 10 11  1  0
 11 12  2  0
 11 13  1  0
  9 14  1  0
 14 15  2  0
 15 16  1  0
 16 17  1  0
 17 18  2  0
 17 19  1  0
 19 20  2  0
 20 21  1  0
 21 22  2  0
 22 23  1  0
 16  4  1  0
 23 19  1  0
 15  6  1  0
  1 24  1  0
  1 25  1  0
  5 26  1  0
  7 27  1  0
  8 28  1  0
 10 29  1  0
 10 30  1  0
 14 31  1  0
 20 32  1  0
 22 33  1  0
M  CHG  1  13  -1
M  END
>  <UniqueID>  (36) 
36

>  <SMILES>  (36) 
NC(=O)c1cc2ccc(CC(=O)[O-])cc2n1C(=O)c1cnco1

>  <Energy>  (36) 
103.0050634259705

>  <Genealogy>  (36) 
NC(=O)c1cc2ccc(CC(=O)[O-])cc2n1C(=O)c1cnco1 (protonated)
NC(=O)c1cc2ccc(CC(=O)[O-])cc2n1C(=O)c1cnco1 (3D coordinates assigned)
NC(=O)c1cc2ccc(CC(=O)[O-])cc2n1C(=O)c1cnco1 (optimized conformer: 103.0050634259705 kcal/mol)

>  <smiles>  (36) 
NC(=O)c1cc2ccc(CC(=O)O)cc2n1C(=O)c1cnco1

>  <score_type>  (36) 
oracle

>  <origin>  (36) 
adg

>  <m_score__min__energy>  (36) 
-7.1100000000000003

>  <m_primary>  (36) 
energy

$$$$
36:0
     RDKit          3D

 66 69  0  0  0  0  0  0  0  0999 V2000
  149.1230  151.8990  132.4880 C   0  0  0  0  0  0  0  0  0  0  0  0
  147.7140  152.3740  132.6170 C   0  0  0  0  0  0  0  0  0  0  0  0
  147.4600  153.6150  133.1100 N   0  0  0  0  0  0  0  0  0  0  0  0
  146.1830  154.0710  133.2370 C   0  0  0  0  0  0  0  0  0  0  0  0
  145.1070  153.2680  132.8350 C   0  0  0  0  0  0  0  0  0  0  0  0
  143.7090  153.7400  132.9760 C   0  0  0  0  0  0  0  0  0  0  0  0
  142.6270  152.8830  132.6440 C   0  0  0  0  0  0  0  0  0  0  0  0
  141.2990  153.3100  132.8020 C   0  0  0  0  0  0  0  0  0  0  0  0
  141.0830  154.5820  133.3260 C   0  0  0  0  0  0  0  0  0  0  0  0
  139.9000  155.2500  133.5580 C   0  0  0  0  0  0  0  0  0  0  0  0
  140.2790  156.4990  134.0630 C   0  0  0  0  0  0  0  0  0  0  0  0
  139.3400  157.5770  134.4460 C   0  0  0  0  0  0  0  0  0  0  0  0
  139.4670  158.2610  135.7000 N   0  0  0  0  0  0  0  0  0  0  0  0
  138.3860  157.8860  133.6810 O   0  0  0  0  0  0  0  0  0  0  0  0
  141.6370  156.5900  134.1380 N   0  0  0  0  0  0  0  0  0  0  0  0
  142.3940  157.7750  134.4340 C   0  0  0  0  0  0  0  0  0  0  0  0
  142.3110  158.2740  135.5920 O   0  0  0  0  0  0  0  0  0  0  0  0
  143.3550  158.4070  133.4450 C   0  0  0  0  0  0  0  0  0  0  0  0
  143.4910  159.9510  133.5170 C   0  0  0  0  0  0  0  0  0  0  0  0
  144.7960  160.4720  134.1630 C   0  0  0  0  0  0  0  0  0  0  0  0
  146.0270  159.7040  133.8310 N   0  0  0  0  0  0  0  0  0  0  0  0
  147.1200  160.5670  133.3450 C   0  0  0  0  0  0  0  0  0  0  0  0
  148.4150  159.8090  133.2640 C   0  0  0  0  0  0  0  0  0  0  0  0
  149.1240  159.7270  134.3030 O   0  0  0  0  0  0  0  0  0  0  0  0
  148.8610  159.1890  132.0340 N   0  0  0  0  0  0  0  0  0  0  0  0
  148.8520  159.9380  130.7740 C   0  0  0  0  0  0  0  0  0  0  0  0
  149.4240  157.8260  132.0450 C   0  0  0  0  0  0  0  0  0  0  0  0
  148.4730  156.8620  132.7620 C   0  0  0  0  0  0  0  0  0  0  0  0
  148.3700  157.2120  134.1740 N   0  0  0  0  0  0  0  0  0  0  0  0
  145.8200  158.5650  132.9200 C   0  0  0  0  0  0  0  0  0  0  0  0
  144.7060  157.6720  133.4520 C   0  0  0  0  0  0  0  0  0  0  0  0
  142.1150  155.4200  133.6660 C   0  0  0  0  0  0  0  0  0  0  0  0
  143.4480  155.0410  133.4610 C   0  0  0  0  0  0  0  0  0  0  0  0
  145.3970  152.0060  132.3020 C   0  0  0  0  0  0  0  0  0  0  0  0
  146.6850  151.5840  132.2170 N   0  0  0  0  0  0  0  0  0  0  0  0
  149.5541  151.7537  133.4895 H   0  0  0  0  0  0  0  0  0  0  0  0
  149.1398  150.9455  131.9397 H   0  0  0  0  0  0  0  0  0  0  0  0
  149.7136  152.6477  131.9397 H   0  0  0  0  0  0  0  0  0  0  0  0
  145.9959  155.0709  133.6556 H   0  0  0  0  0  0  0  0  0  0  0  0
  142.8314  151.8732  132.2587 H   0  0  0  0  0  0  0  0  0  0  0  0
  140.4565  152.6609  132.5210 H   0  0  0  0  0  0  0  0  0  0  0  0
  138.8784  154.8811  133.3838 H   0  0  0  0  0  0  0  0  0  0  0  0
  140.2870  158.1260  136.3250 H   0  0  0  0  0  0  0  0  0  0  0  0
  138.7380  158.9510  135.9880 H   0  0  0  0  0  0  0  0  0  0  0  0
  142.8885  158.2659  132.4589 H   0  0  0  0  0  0  0  0  0  0  0  0
  143.4394  160.3445  132.4911 H   0  0  0  0  0  0  0  0  0  0  0  0
  142.6724  160.2977  134.1648 H   0  0  0  0  0  0  0  0  0  0  0  0
  144.9457  161.5108  133.8338 H   0  0  0  0  0  0  0  0  0  0  0  0
  144.6581  160.3662  135.2492 H   0  0  0  0  0  0  0  0  0  0  0  0
  146.8617  160.9442  132.3445 H   0  0  0  0  0  0  0  0  0  0  0  0
  147.2472  161.3999  134.0522 H   0  0  0  0  0  0  0  0  0  0  0  0
  148.8391  161.0168  130.9888 H   0  0  0  0  0  0  0  0  0  0  0  0
  149.7532  159.6904  130.1938 H   0  0  0  0  0  0  0  0  0  0  0  0
  147.9570  159.6689  130.1938 H   0  0  0  0  0  0  0  0  0  0  0  0
  149.5717  157.4863  131.0092 H   0  0  0  0  0  0  0  0  0  0  0  0
  150.3860  157.8412  132.5781 H   0  0  0  0  0  0  0  0  0  0  0  0
  147.4770  156.9230  132.2991 H   0  0  0  0  0  0  0  0  0  0  0  0
  148.8665  155.8385  132.6741 H   0  0  0  0  0  0  0  0  0  0  0  0
  149.3050  157.5650  134.4910 H   0  0  0  0  0  0  0  0  0  0  0  0
  147.7110  158.0230  134.2520 H   0  0  0  0  0  0  0  0  0  0  0  0
  145.5425  158.9403  131.9239 H   0  0  0  0  0  0  0  0  0  0  0  0
  146.7503  157.9820  132.8515 H   0  0  0  0  0  0  0  0  0  0  0  0
  144.6306  156.7759  132.8184 H   0  0  0  0  0  0  0  0  0  0  0  0
  144.9467  157.3939  134.4887 H   0  0  0  0  0  0  0  0  0  0  0  0
  144.2713  155.7392  133.6725 H   0  0  0  0  0  0  0  0  0  0  0  0
  144.5813  151.3563  131.9521 H   0  0  0  0  0  0  0  0  0  0  0  0
  1  2  1  0
  2  3  2  0
  3  4  1  0
  4  5  2  0
  5  6  1  0
  6  7  2  0
  7  8  1  0
  8  9  2  0
  9 10  1  0
 10 11  2  0
 11 12  1  0
 12 13  1  0
 12 14  2  0
 11 15  1  0
 15 16  1  0
 16 17  2  0
 16 18  1  0
 18 19  1  0
 19 20  1  0
 20 21  1  0
 21 22  1  0
 22 23  1  0
 23 24  2  0
 23 25  1  0
 25 26  1  0
 25 27  1  0
 27 28  1  0
 28 29  1  0
 21 30  1  0
 30 31  1  0
 15 32  1  0
 32 33  2  0
  5 34  1  0
 34 35  2  0
 35  2  1  0
 33  6  1  0
 32  9  1  0
 31 18  1  0
  1 36  1  0
  1 37  1  0
  1 38  1  0
  4 39  1  0
  7 40  1  0
  8 41  1  0
 10 42  1  0
 13 43  1  0
 13 44  1  0
 18 45  1  0
 19 46  1  0
 19 47  1  0
 20 48  1  0
 20 49  1  0
 22 50  1  0
 22 51  1  0
 26 52  1  0
 26 53  1  0
 26 54  1  0
 27 55  1  0
 27 56  1  0
 28 57  1  0
 28 58  1  0
 29 59  1  0
 29 60  1  0
 30 61  1  0
 30 62  1  0
 31 63  1  0
 31 64  1  0
 33 65  1  0
 34 66  1  0
M  END
>  <UniqueID>  (37) 
37

>  <SMILES>  (37) 
Cc1ncc(-c2ccc3cc(C(N)=O)n(C(=O)C4CCN(CC(=O)N(C)CCN)CC4)c3c2)cn1

>  <Energy>  (37) 
117.70594468410219

>  <Genealogy>  (37) 
Cc1ncc(-c2ccc3cc(C(N)=O)n(C(=O)C4CCN(CC(=O)N(C)CCN)CC4)c3c2)cn1 (3D coordinates assigned)
Cc1ncc(-c2ccc3cc(C(N)=O)n(C(=O)C4CCN(CC(=O)N(C)CCN)CC4)c3c2)cn1 (nonaromatic ring conformer: 117.70594468410219 kcal/mol)

>  <smiles>  (37) 
Cc1ncc(-c2ccc3cc(C(N)=O)n(C(=O)C4CCN(CC(=O)N(C)CCN)CC4)c3c2)cn1

>  <score_type>  (37) 
oracle

>  <origin>  (37) 
adg

>  <m_score__min__energy>  (37) 
-10.449999999999999

>  <m_primary>  (37) 
energy

$$$$
37:0
     RDKit          3D

 36 37  0  0  0  0  0  0  0  0999 V2000
  147.1760  154.4850  135.9540 C   0  0  0  0  0  0  0  0  0  0  0  0
  147.8230  153.7050  134.9560 O   0  0  0  0  0  0  0  0  0  0  0  0
  147.3820  153.6670  133.6290 C   0  0  0  0  0  0  0  0  0  0  0  0
  146.4270  152.9130  133.2940 O   0  0  0  0  0  0  0  0  0  0  0  0
  148.1010  154.4930  132.5970 C   0  0  2  0  0  0  0  0  0  0  0  0
  149.6140  154.2370  132.6060 C   0  0  0  0  0  0  0  0  0  0  0  0
  147.7940  155.9650  132.7860 C   0  0  0  0  0  0  0  0  0  0  0  0
  148.8460  156.9160  132.7630 C   0  0  0  0  0  0  0  0  0  0  0  0
  148.5860  158.2840  132.9510 C   0  0  0  0  0  0  0  0  0  0  0  0
  147.2660  158.6740  133.1520 C   0  0  0  0  0  0  0  0  0  0  0  0
  146.7380  159.9240  133.3860 C   0  0  0  0  0  0  0  0  0  0  0  0
  145.3660  159.7250  133.5290 C   0  0  0  0  0  0  0  0  0  0  0  0
  144.3990  160.8230  133.7390 C   0  0  0  0  0  0  0  0  0  0  0  0
  143.0290  160.6770  133.3750 N   0  0  0  0  0  0  0  0  0  0  0  0
  144.7960  161.9200  134.2170 O   0  0  0  0  0  0  0  0  0  0  0  0
  145.0600  158.4040  133.3900 N   0  0  0  0  0  0  0  0  0  0  0  0
  143.7710  157.7840  133.5350 C   0  0  0  0  0  0  0  0  0  0  0  0
  143.4110  157.0480  134.7870 C   0  0  0  0  0  0  0  0  0  0  0  0
  142.9270  157.8680  132.6040 O   0  0  0  0  0  0  0  0  0  0  0  0
  146.2330  157.7740  133.1620 C   0  0  0  0  0  0  0  0  0  0  0  0
  146.4650  156.4040  133.0000 C   0  0  0  0  0  0  0  0  0  0  0  0
  147.4738  154.1260  136.9502 H   0  0  0  0  0  0  0  0  0  0  0  0
  147.4682  155.5395  135.8418 H   0  0  0  0  0  0  0  0  0  0  0  0
  146.0856  154.3927  135.8418 H   0  0  0  0  0  0  0  0  0  0  0  0
  147.7310  154.1836  131.6084 H   0  0  0  0  0  0  0  0  0  0  0  0
  149.9695  154.1768  133.6452 H   0  0  0  0  0  0  0  0  0  0  0  0
  149.8287  153.2898  132.0896 H   0  0  0  0  0  0  0  0  0  0  0  0
  150.1284  155.0609  132.0896 H   0  0  0  0  0  0  0  0  0  0  0  0
  149.8794  156.5781  132.5957 H   0  0  0  0  0  0  0  0  0  0  0  0
  149.4006  159.0232  132.9396 H   0  0  0  0  0  0  0  0  0  0  0  0
  147.2834  160.8773  133.4471 H   0  0  0  0  0  0  0  0  0  0  0  0
  142.7440  160.0290  132.6060 H   0  0  0  0  0  0  0  0  0  0  0  0
  143.7041  157.6472  135.6617 H   0  0  0  0  0  0  0  0  0  0  0  0
  142.3253  156.8725  134.8099 H   0  0  0  0  0  0  0  0  0  0  0  0
  143.9389  156.0832  134.8099 H   0  0  0  0  0  0  0  0  0  0  0  0
  145.6340  155.6843  133.0380 H   0  0  0  0  0  0  0  0  0  0  0  0
  1  2  1  0
  2  3  1  0
  3  4  2  0
  3  5  1  0
  5  6  1  0
  5  7  1  0
  7  8  2  0
  8  9  1  0
  9 10  2  0
 10 11  1  0
 11 12  2  0
 12 13  1  0
 13 14  1  0
 13 15  2  0
 12 16  1  0
 16 17  1  0
 17 18  1  0
 17 19  2  0
 16 20  1  0
 20 21  2  0
 21  7  1  0
 20 10  1  0
  1 22  1  0
  1 23  1  0
  1 24  1  0
  5 25  1  6
  6 26  1  0
  6 27  1  0
  6 28  1  0
  8 29  1  0
  9 30  1  0
 11 31  1  0
 14 32  1  0
 18 33  1  0
 18 34  1  0
 18 35  1  0
 21 36  1  0
M  CHG  1  14  -1
M  END
>  <UniqueID>  (38) 
38

>  <SMILES>  (38) 
COC(=O)[C@H](C)c1ccc2cc(C([NH-])=O)n(C(C)=O)c2c1

>  <Energy>  (38) 
70.69758178632169

>  <Genealogy>  (38) 
COC(=O)C(C)c1ccc2cc(C([NH-])=O)n(C(C)=O)c2c1 (protonated)
COC(=O)[C@H](C)c1ccc2cc(C([NH-])=O)n(C(C)=O)c2c1 (chirality)
COC(=O)[C@H](C)c1ccc2cc(C([NH-])=O)n(C(C)=O)c2c1 (3D coordinates assigned)
COC(=O)[C@H](C)c1ccc2cc(C([NH-])=O)n(C(C)=O)c2c1 (optimized conformer: 70.69758178632169 kcal/mol)

>  <smiles>  (38) 
COC(=O)C(C)c1ccc2cc(C(N)=O)n(C(C)=O)c2c1

>  <score_type>  (38) 
oracle

>  <origin>  (38) 
adg

>  <m_score__min__energy>  (38) 
-6.75

>  <m_primary>  (38) 
energy

$$$$
38:0
     RDKit          3D

101108  0  0  0  0  0  0  0  0999 V2000
  146.0660  153.3740  134.8400 N   0  0  0  0  0  0  0  0  0  0  0  0
  145.3150  153.0770  133.6580 C   0  0  0  0  0  0  0  0  0  0  0  0
  145.8430  152.3750  132.7460 O   0  0  0  0  0  0  0  0  0  0  0  0
  143.9650  153.6330  133.4620 C   0  0  0  0  0  0  0  0  0  0  0  0
  142.8110  152.8650  133.3560 C   0  0  0  0  0  0  0  0  0  0  0  0
  141.7840  153.7680  133.1760 C   0  0  0  0  0  0  0  0  0  0  0  0
  140.4170  153.5680  133.0540 C   0  0  0  0  0  0  0  0  0  0  0  0
  139.5870  154.7020  132.9790 C   0  0  0  0  0  0  0  0  0  0  0  0
  140.1340  156.0110  133.0150 C   0  0  0  0  0  0  0  0  0  0  0  0
  139.2280  157.2160  132.9830 C   0  0  0  0  0  0  0  0  0  0  0  0
  139.9780  158.4560  132.4720 C   0  0  0  0  0  0  0  0  0  0  0  0
  140.8480  159.0890  133.5600 C   0  0  0  0  0  0  0  0  0  0  0  0
  140.5370  158.4650  134.8670 N   0  0  0  0  0  0  0  0  0  0  0  0
  139.1380  158.6420  135.2700 C   0  0  0  0  0  0  0  0  0  0  0  0
  138.8060  157.5920  136.3380 C   0  0  0  0  0  0  0  0  0  0  0  0
  139.8620  157.5110  137.4720 C   0  0  0  0  0  0  0  0  0  0  0  0
  140.3700  156.1230  137.6470 N   0  0  0  0  0  0  0  0  0  0  0  0
  141.7310  155.8430  137.1350 C   0  0  0  0  0  0  0  0  0  0  0  0
  142.7920  155.7730  138.2490 C   0  0  0  0  0  0  0  0  0  0  0  0
  142.4120  154.8780  139.3710 N   0  0  0  0  0  0  0  0  0  0  0  0
  143.4510  153.8720  139.6920 C   0  0  0  0  0  0  0  0  0  0  0  0
  142.8960  152.4440  139.9330 C   0  0  0  0  0  0  0  0  0  0  0  0
  143.9680  151.5010  140.5220 C   0  0  0  0  0  0  0  0  0  0  0  0
  145.3130  152.0740  140.3630 N   0  0  0  0  0  0  0  0  0  0  0  0
  146.2090  151.5640  139.3610 C   0  0  0  0  0  0  0  0  0  0  0  0
  146.8100  152.4520  138.4400 C   0  0  0  0  0  0  0  0  0  0  0  0
  147.7190  151.9420  137.5240 C   0  0  0  0  0  0  0  0  0  0  0  0
  148.0270  150.6000  137.4840 C   0  0  0  0  0  0  0  0  0  0  0  0
  147.4410  149.6950  138.3630 C   0  0  0  0  0  0  0  0  0  0  0  0
  146.5290  150.1910  139.3220 C   0  0  0  0  0  0  0  0  0  0  0  0
  145.9250  149.3290  140.1780 F   0  0  0  0  0  0  0  0  0  0  0  0
  149.0100  150.4020  136.4250 C   0  0  0  0  0  0  0  0  0  0  0  0
  149.5220  149.2990  136.0970 O   0  0  0  0  0  0  0  0  0  0  0  0
  149.3250  151.6520  135.8070 N   0  0  0  0  0  0  0  0  0  0  0  0
  149.9590  151.8110  134.4930 C   0  0  1  0  0  0  0  0  0  0  0  0
  150.2990  150.4260  133.9100 C   0  0  0  0  0  0  0  0  0  0  0  0
  150.8120  150.5280  132.4700 C   0  0  0  0  0  0  0  0  0  0  0  0
  149.8030  151.2310  131.6140 C   0  0  0  0  0  0  0  0  0  0  0  0
  149.6730  150.9200  130.4030 O   0  0  0  0  0  0  0  0  0  0  0  0
  148.9980  152.2730  132.1700 N   0  0  0  0  0  0  0  0  0  0  0  0
  149.0730  152.6050  133.5580 C   0  0  0  0  0  0  0  0  0  0  0  0
  148.4150  153.5850  133.9910 O   0  0  0  0  0  0  0  0  0  0  0  0
  148.4810  152.6050  136.4720 C   0  0  0  0  0  0  0  0  0  0  0  0
  148.3710  153.8120  136.1430 O   0  0  0  0  0  0  0  0  0  0  0  0
  145.5850  153.3870  140.9710 C   0  0  0  0  0  0  0  0  0  0  0  0
  144.3490  154.3080  140.8690 C   0  0  0  0  0  0  0  0  0  0  0  0
  141.0170  154.3980  139.3370 C   0  0  0  0  0  0  0  0  0  0  0  0
  140.0790  155.5570  138.9850 C   0  0  0  0  0  0  0  0  0  0  0  0
  140.9830  158.5860  137.3580 C   0  0  0  0  0  0  0  0  0  0  0  0
  141.4670  158.9160  135.9250 C   0  0  0  0  0  0  0  0  0  0  0  0
  141.5340  156.1670  133.0980 C   0  0  0  0  0  0  0  0  0  0  0  0
  142.3330  155.0200  133.1770 C   0  0  0  0  0  0  0  0  0  0  0  0
  143.6720  154.9550  133.3400 N   0  0  0  0  0  0  0  0  0  0  0  0
  144.5500  156.0580  133.5950 C   0  0  0  0  0  0  0  0  0  0  0  0
  144.3530  157.1680  133.0300 O   0  0  0  0  0  0  0  0  0  0  0  0
  145.6540  155.8870  134.4240 O   0  0  0  0  0  0  0  0  0  0  0  0
  145.7450  154.1070  135.5150 H   0  0  0  0  0  0  0  0  0  0  0  0
  147.0210  152.9740  134.9550 H   0  0  0  0  0  0  0  0  0  0  0  0
  142.7334  151.7689  133.4053 H   0  0  0  0  0  0  0  0  0  0  0  0
  139.9942  152.5532  133.0170 H   0  0  0  0  0  0  0  0  0  0  0  0
  138.4983  154.5718  132.8912 H   0  0  0  0  0  0  0  0  0  0  0  0
  138.3782  157.0094  132.3158 H   0  0  0  0  0  0  0  0  0  0  0  0
  138.8756  157.4165  134.0055 H   0  0  0  0  0  0  0  0  0  0  0  0
  140.6214  158.1600  131.6304 H   0  0  0  0  0  0  0  0  0  0  0  0
  139.2306  159.2000  132.1592 H   0  0  0  0  0  0  0  0  0  0  0  0
  141.9095  158.9282  133.3203 H   0  0  0  0  0  0  0  0  0  0  0  0
  140.6429  160.1685  133.6113 H   0  0  0  0  0  0  0  0  0  0  0  0
  138.9953  159.6511  135.6839 H   0  0  0  0  0  0  0  0  0  0  0  0
  138.4755  158.5197  134.4005 H   0  0  0  0  0  0  0  0  0  0  0  0
  137.8332  157.8448  136.7849 H   0  0  0  0  0  0  0  0  0  0  0  0
  138.7917  156.6127  135.8371 H   0  0  0  0  0  0  0  0  0  0  0  0
  139.3436  157.7699  138.4070 H   0  0  0  0  0  0  0  0  0  0  0  0
  141.7146  154.8788  136.6058 H   0  0  0  0  0  0  0  0  0  0  0  0
  142.0085  156.6732  136.4689 H   0  0  0  0  0  0  0  0  0  0  0  0
  143.7320  155.4046  137.8123 H   0  0  0  0  0  0  0  0  0  0  0  0
  142.8947  156.7868  138.6633 H   0  0  0  0  0  0  0  0  0  0  0  0
  144.0692  153.8191  138.7837 H   0  0  0  0  0  0  0  0  0  0  0  0
  142.0513  152.5046  140.6350 H   0  0  0  0  0  0  0  0  0  0  0  0
  142.5772  152.0341  138.9633 H   0  0  0  0  0  0  0  0  0  0  0  0
  143.7653  151.3487  141.5924 H   0  0  0  0  0  0  0  0  0  0  0  0
  143.9277  150.5424  139.9841 H   0  0  0  0  0  0  0  0  0  0  0  0
  146.5626  153.5238  138.4492 H   0  0  0  0  0  0  0  0  0  0  0  0
  147.6809  148.6226  138.3130 H   0  0  0  0  0  0  0  0  0  0  0  0
  150.8944  152.3775  134.6115 H   0  0  0  0  0  0  0  0  0  0  0  0
  151.0755  149.9579  134.5328 H   0  0  0  0  0  0  0  0  0  0  0  0
  149.3803  149.8211  133.9048 H   0  0  0  0  0  0  0  0  0  0  0  0
  151.7557  151.0930  132.4589 H   0  0  0  0  0  0  0  0  0  0  0  0
  150.9781  149.5154  132.0738 H   0  0  0  0  0  0  0  0  0  0  0  0
  145.8431  153.2466  142.0310 H   0  0  0  0  0  0  0  0  0  0  0  0
  146.4200  153.8581  140.4316 H   0  0  0  0  0  0  0  0  0  0  0  0
  143.7743  154.2488  141.8051 H   0  0  0  0  0  0  0  0  0  0  0  0
  144.6860  155.3410  140.6980 H   0  0  0  0  0  0  0  0  0  0  0  0
  140.9211  153.6071  138.5785 H   0  0  0  0  0  0  0  0  0  0  0  0
  140.7459  153.9980  140.3252 H   0  0  0  0  0  0  0  0  0  0  0  0
  139.0420  155.1902  138.9971 H   0  0  0  0  0  0  0  0  0  0  0  0
  140.2297  156.3527  139.7294 H   0  0  0  0  0  0  0  0  0  0  0  0
  140.6039  159.5158  137.8072 H   0  0  0  0  0  0  0  0  0  0  0  0
  141.8557  158.1586  137.8735 H   0  0  0  0  0  0  0  0  0  0  0  0
  141.5869  160.0062  135.8409 H   0  0  0  0  0  0  0  0  0  0  0  0
  142.4141  158.3778  135.7726 H   0  0  0  0  0  0  0  0  0  0  0  0
  141.9881  157.1689  133.1006 H   0  0  0  0  0  0  0  0  0  0  0  0
  1  2  1  0
  2  3  2  0
  2  4  1  0
  4  5  2  0
  5  6  1  0
  6  7  2  0
  7  8  1  0
  8  9  2  0
  9 10  1  0
 10 11  1  0
 11 12  1  0
 12 13  1  0
 13 14  1  0
 14 15  1  0
 15 16  1  0
 16 17  1  0
 17 18  1  0
 18 19  1  0
 19 20  1  0
 20 21  1  0
 21 22  1  0
 22 23  1  0
 23 24  1  0
 24 25  1  0
 25 26  2  0
 26 27  1  0
 27 28  2  0
 28 29  1  0
 29 30  2  0
 30 31  1  0
 28 32  1  0
 32 33  2  0
 32 34  1  0
 34 35  1  0
 35 36  1  0
 36 37  1  0
 37 38  1  0
 38 39  2  0
 38 40  1  0
 40 41  1  0
 41 42  2  0
 34 43  1  0
 43 44  2  0
 24 45  1  0
 45 46  1  0
 20 47  1  0
 47 48  1  0
 16 49  1  0
 49 50  1  0
  9 51  1  0
 51 52  2  0
 52 53  1  0
 53 54  1  0
 54 55  2  0
 54 56  1  0
 53  4  1  0
 52  6  1  0
 50 13  1  0
 48 17  1  0
 46 21  1  0
 30 25  1  0
 41 35  1  0
 43 27  1  0
  1 57  1  0
  1 58  1  0
  5 59  1  0
  7 60  1  0
  8 61  1  0
 10 62  1  0
 10 63  1  0
 11 64  1  0
 11 65  1  0
 12 66  1  0
 12 67  1  0
 14 68  1  0
 14 69  1  0
 15 70  1  0
 15 71  1  0
 16 72  1  0
 18 73  1  0
 18 74  1  0
 19 75  1  0
 19 76  1  0
 21 77  1  0
 22 78  1  0
 22 79  1  0
 23 80  1  0
 23 81  1  0
 26 82  1  0
 29 83  1  0
 35 84  1  1
 36 85  1  0
 36 86  1  0
 37 87  1  0
 37 88  1  0
 45 89  1  0
 45 90  1  0
 46 91  1  0
 46 92  1  0
 47 93  1  0
 47 94  1  0
 48 95  1  0
 48 96  1  0
 49 97  1  0
 49 98  1  0
 50 99  1  0
 50100  1  0
 51101  1  0
M  CHG  2  40  -1  56  -1
M  END
>  <UniqueID>  (39) 
39

>  <SMILES>  (39) 
NC(=O)c1cc2ccc(CCCN3CCC(N4CCN(C5CCN(c6cc7c(cc6F)C(=O)N([C@H]6CCC(=O)[N-]C6=O)C7=O)CC5)CC4)CC3)cc2n1C(=O)[O-]

>  <Energy>  (39) 
222.89687494864387

>  <Genealogy>  (39) 
NC(=O)c1cc2ccc(CCCN3CCC(N4CCN(C5CCN(c6cc7c(cc6F)C(=O)N(C6CCC(=O)[N-]C6=O)C7=O)CC5)CC4)CC3)cc2n1C(=O)[O-] (protonated)
NC(=O)c1cc2ccc(CCCN3CCC(N4CCN(C5CCN(c6cc7c(cc6F)C(=O)N([C@H]6CCC(=O)[N-]C6=O)C7=O)CC5)CC4)CC3)cc2n1C(=O)[O-] (chirality)
NC(=O)c1cc2ccc(CCCN3CCC(N4CCN(C5CCN(c6cc7c(cc6F)C(=O)N([C@H]6CCC(=O)[N-]C6=O)C7=O)CC5)CC4)CC3)cc2n1C(=O)[O-] (3D coordinates assigned)
NC(=O)c1cc2ccc(CCCN3CCC(N4CCN(C5CCN(c6cc7c(cc6F)C(=O)N([C@H]6CCC(=O)[N-]C6=O)C7=O)CC5)CC4)CC3)cc2n1C(=O)[O-] (nonaromatic ring conformer: 222.89687494864387 kcal/mol)

>  <smiles>  (39) 
NC(=O)c1cc2ccc(CCCN3CCC(N4CCN(C5CCN(c6cc7c(cc6F)C(=O)N(C6CCC(=O)NC6=O)C7=O)CC5)CC4)CC3)cc2n1C(=O)O

>  <score_type>  (39) 
oracle

>  <origin>  (39) 
adg

>  <m_score__min__energy>  (39) 
-12.92

>  <m_primary>  (39) 
energy

$$$$
39:0
     RDKit          3D

 32 33  0  0  0  0  0  0  0  0999 V2000
  149.0670  158.8010  130.7480 C   0  0  0  0  0  0  0  0  0  0  0  0
  148.8470  158.7610  132.2260 C   0  0  0  0  0  0  0  0  0  0  0  0
  149.6070  159.4300  132.9770 O   0  0  0  0  0  0  0  0  0  0  0  0
  147.7990  157.9630  132.8010 N   0  0  0  0  0  0  0  0  0  0  0  0
  146.5570  158.3840  133.1720 C   0  0  0  0  0  0  0  0  0  0  0  0
  146.0900  159.7850  133.1920 C   0  0  0  0  0  0  0  0  0  0  0  0
  147.0010  160.8700  133.3770 N   0  0  0  0  0  0  0  0  0  0  0  0
  144.8580  160.0270  133.0910 O   0  0  0  0  0  0  0  0  0  0  0  0
  145.7670  157.3040  133.5590 C   0  0  0  0  0  0  0  0  0  0  0  0
  146.5720  156.1970  133.4170 C   0  0  0  0  0  0  0  0  0  0  0  0
  146.2840  154.8520  133.6300 C   0  0  0  0  0  0  0  0  0  0  0  0
  147.2880  153.9110  133.3460 C   0  0  0  0  0  0  0  0  0  0  0  0
  148.5500  154.3280  132.8560 C   0  0  0  0  0  0  0  0  0  0  0  0
  149.5990  153.3080  132.5050 C   0  0  0  0  0  0  0  0  0  0  0  0
  148.9850  151.9130  132.4070 C   0  0  0  0  0  0  0  0  0  0  0  0
  149.2310  151.2100  133.5920 O   0  0  0  0  0  0  0  0  0  0  0  0
  148.8000  155.7020  132.6370 C   0  0  0  0  0  0  0  0  0  0  0  0
  147.7910  156.6200  132.9520 C   0  0  0  0  0  0  0  0  0  0  0  0
  150.1299  158.9942  130.5406 H   0  0  0  0  0  0  0  0  0  0  0  0
  148.7772  157.8354  130.3079 H   0  0  0  0  0  0  0  0  0  0  0  0
  148.4559  159.6028  130.3079 H   0  0  0  0  0  0  0  0  0  0  0  0
  147.9930  160.7020  133.6520 H   0  0  0  0  0  0  0  0  0  0  0  0
  146.6560  161.8540  133.3350 H   0  0  0  0  0  0  0  0  0  0  0  0
  144.7229  157.3304  133.9043 H   0  0  0  0  0  0  0  0  0  0  0  0
  145.3010  154.5356  134.0089 H   0  0  0  0  0  0  0  0  0  0  0  0
  147.0922  152.8404  133.5056 H   0  0  0  0  0  0  0  0  0  0  0  0
  150.0503  153.5726  131.5373 H   0  0  0  0  0  0  0  0  0  0  0  0
  150.3647  153.3024  133.2947 H   0  0  0  0  0  0  0  0  0  0  0  0
  147.8996  152.0004  132.2512 H   0  0  0  0  0  0  0  0  0  0  0  0
  149.4349  151.3733  131.5607 H   0  0  0  0  0  0  0  0  0  0  0  0
  148.3450  150.9080  133.9210 H   0  0  0  0  0  0  0  0  0  0  0  0
  149.7635  156.0415  132.2291 H   0  0  0  0  0  0  0  0  0  0  0  0
  1  2  1  0
  2  3  2  0
  2  4  1  0
  4  5  1  0
  5  6  1  0
  6  7  1  0
  6  8  2  0
  5  9  2  0
  9 10  1  0
 10 11  2  0
 11 12  1  0
 12 13  2  0
 13 14  1  0
 14 15  1  0
 15 16  1  0
 13 17  1  0
 17 18  2  0
 18  4  1  0
 18 10  1  0
  1 19  1  0
  1 20  1  0
  1 21  1  0
  7 22  1  0
  7 23  1  0
  9 24  1  0
 11 25  1  0
 12 26  1  0
 14 27  1  0
 14 28  1  0
 15 29  1  0
 15 30  1  0
 16 31  1  0
 17 32  1  0
M  END
>  <UniqueID>  (40) 
40

>  <SMILES>  (40) 
CC(=O)n1c(C(N)=O)cc2ccc(CCO)cc21

>  <Energy>  (40) 
67.85676400465807

>  <Genealogy>  (40) 
CC(=O)n1c(C(N)=O)cc2ccc(CCO)cc21 (3D coordinates assigned)
CC(=O)n1c(C(N)=O)cc2ccc(CCO)cc21 (optimized conformer: 67.85676400465807 kcal/mol)

>  <smiles>  (40) 
CC(=O)n1c(C(N)=O)cc2ccc(CCO)cc21

>  <score_type>  (40) 
oracle

>  <origin>  (40) 
adg

>  <m_score__min__energy>  (40) 
-6.1600000000000001

>  <m_primary>  (40) 
energy

$$$$
40:0
     RDKit          3D

 36 38  0  0  0  0  0  0  0  0999 V2000
  150.2970  160.1090  129.7210 C   0  0  0  0  0  0  0  0  0  0  0  0
  150.1760  159.8240  131.1110 O   0  0  0  0  0  0  0  0  0  0  0  0
  149.0010  159.3680  131.7280 C   0  0  0  0  0  0  0  0  0  0  0  0
  147.8950  160.2070  131.9520 C   0  0  0  0  0  0  0  0  0  0  0  0
  146.7440  159.7090  132.5700 C   0  0  0  0  0  0  0  0  0  0  0  0
  146.6770  158.3650  132.9790 C   0  0  0  0  0  0  0  0  0  0  0  0
  145.4550  157.8350  133.6350 C   0  0  0  0  0  0  0  0  0  0  0  0
  145.4610  156.5450  134.2280 C   0  0  0  0  0  0  0  0  0  0  0  0
  144.3070  156.0300  134.8410 C   0  0  0  0  0  0  0  0  0  0  0  0
  143.1660  156.8250  134.8570 C   0  0  0  0  0  0  0  0  0  0  0  0
  141.9110  156.5560  135.3520 C   0  0  0  0  0  0  0  0  0  0  0  0
  141.1590  157.6960  135.0840 C   0  0  0  0  0  0  0  0  0  0  0  0
  139.7550  157.8580  135.5090 C   0  0  0  0  0  0  0  0  0  0  0  0
  138.7290  158.1720  134.5660 N   0  0  0  0  0  0  0  0  0  0  0  0
  139.4650  157.7760  136.7320 O   0  0  0  0  0  0  0  0  0  0  0  0
  141.9120  158.6300  134.4370 N   0  0  0  0  0  0  0  0  0  0  0  0
  141.4640  159.8810  133.8890 C   0  0  0  0  0  0  0  0  0  0  0  0
  142.1280  160.9350  134.0730 O   0  0  0  0  0  0  0  0  0  0  0  0
  140.2920  159.9400  133.1440 O   0  0  0  0  0  0  0  0  0  0  0  0
  143.1420  158.0810  134.3080 C   0  0  0  0  0  0  0  0  0  0  0  0
  144.2720  158.6120  133.6720 C   0  0  0  0  0  0  0  0  0  0  0  0
  147.7860  157.5310  132.7520 C   0  0  0  0  0  0  0  0  0  0  0  0
  148.9360  158.0290  132.1330 C   0  0  0  0  0  0  0  0  0  0  0  0
  149.9920  157.2050  131.9200 F   0  0  0  0  0  0  0  0  0  0  0  0
  150.7238  161.1141  129.5886 H   0  0  0  0  0  0  0  0  0  0  0  0
  150.9571  159.3655  129.2504 H   0  0  0  0  0  0  0  0  0  0  0  0
  149.3036  160.0675  129.2504 H   0  0  0  0  0  0  0  0  0  0  0  0
  147.9356  161.2608  131.6393 H   0  0  0  0  0  0  0  0  0  0  0  0
  145.8838  160.3738  132.7377 H   0  0  0  0  0  0  0  0  0  0  0  0
  146.3805  155.9416  134.2071 H   0  0  0  0  0  0  0  0  0  0  0  0
  144.3057  155.0280  135.2948 H   0  0  0  0  0  0  0  0  0  0  0  0
  141.5739  155.6364  135.8527 H   0  0  0  0  0  0  0  0  0  0  0  0
  137.7350  158.2480  134.8780 H   0  0  0  0  0  0  0  0  0  0  0  0
  138.9600  158.4100  133.5760 H   0  0  0  0  0  0  0  0  0  0  0  0
  144.2407  159.6105  133.2116 H   0  0  0  0  0  0  0  0  0  0  0  0
  147.7482  156.4770  133.0644 H   0  0  0  0  0  0  0  0  0  0  0  0
  1  2  1  0
  2  3  1  0
  3  4  2  0
  4  5  1  0
  5  6  2  0
  6  7  1  0
  7  8  2  0
  8  9  1  0
  9 10  2  0
 10 11  1  0
 11 12  2  0
 12 13  1  0
 13 14  1  0
 13 15  2  0
 12 16  1  0
 16 17  1  0
 17 18  2  0
 17 19  1  0
 16 20  1  0
 20 21  2  0
  6 22  1  0
 22 23  2  0
 23 24  1  0
 23  3  1  0
 21  7  1  0
 20 10  1  0
  1 25  1  0
  1 26  1  0
  1 27  1  0
  4 28  1  0
  5 29  1  0
  8 30  1  0
  9 31  1  0
 11 32  1  0
 14 33  1  0
 14 34  1  0
 21 35  1  0
 22 36  1  0
M  CHG  1  19  -1
M  END
>  <UniqueID>  (41) 
41

>  <SMILES>  (41) 
COc1ccc(-c2ccc3cc(C(N)=O)n(C(=O)[O-])c3c2)cc1F

>  <Energy>  (41) 
83.590480932853

>  <Genealogy>  (41) 
COc1ccc(-c2ccc3cc(C(N)=O)n(C(=O)[O-])c3c2)cc1F (protonated)
COc1ccc(-c2ccc3cc(C(N)=O)n(C(=O)[O-])c3c2)cc1F (3D coordinates assigned)
COc1ccc(-c2ccc3cc(C(N)=O)n(C(=O)[O-])c3c2)cc1F (optimized conformer: 83.590480932853 kcal/mol)

>  <smiles>  (41) 
COc1ccc(-c2ccc3cc(C(N)=O)n(C(=O)O)c3c2)cc1F

>  <score_type>  (41) 
oracle

>  <origin>  (41) 
adg

>  <m_score__min__energy>  (41) 
-6.9800000000000004

>  <m_primary>  (41) 
energy

$$$$
41:0
     RDKit          3D

 25 26  0  0  0  0  0  0  0  0999 V2000
  148.4760  161.5390  131.4930 N   0  0  0  0  0  0  0  0  0  0  0  0
  148.9570  160.2480  131.1160 C   0  0  0  0  0  0  0  0  0  0  0  0
  149.6830  160.1340  130.0920 O   0  0  0  0  0  0  0  0  0  0  0  0
  148.5670  159.0380  131.8660 C   0  0  0  0  0  0  0  0  0  0  0  0
  149.3110  157.8620  131.8600 C   0  0  0  0  0  0  0  0  0  0  0  0
  148.5840  156.9690  132.6120 C   0  0  0  0  0  0  0  0  0  0  0  0
  148.8590  155.6440  132.9370 C   0  0  0  0  0  0  0  0  0  0  0  0
  147.9440  154.9640  133.7560 C   0  0  0  0  0  0  0  0  0  0  0  0
  146.7910  155.6200  134.2580 C   0  0  0  0  0  0  0  0  0  0  0  0
  145.7980  154.8670  135.1080 C   0  0  0  0  0  0  0  0  0  0  0  0
  145.3860  153.7110  134.4680 F   0  0  0  0  0  0  0  0  0  0  0  0
  144.6970  155.6710  135.3390 F   0  0  0  0  0  0  0  0  0  0  0  0
  146.3620  154.5140  136.3200 F   0  0  0  0  0  0  0  0  0  0  0  0
  146.5360  156.9620  133.8860 C   0  0  0  0  0  0  0  0  0  0  0  0
  147.4540  157.6100  133.0510 C   0  0  0  0  0  0  0  0  0  0  0  0
  147.4300  158.8870  132.6020 N   0  0  0  0  0  0  0  0  0  0  0  0
  146.4720  159.9040  132.9430 C   0  0  0  0  0  0  0  0  0  0  0  0
  145.2640  159.7820  132.6090 O   0  0  0  0  0  0  0  0  0  0  0  0
  146.8700  161.0330  133.6490 O   0  0  0  0  0  0  0  0  0  0  0  0
  148.7910  162.3890  130.9730 H   0  0  0  0  0  0  0  0  0  0  0  0
  147.7460  161.6470  132.2300 H   0  0  0  0  0  0  0  0  0  0  0  0
  150.2748  157.6845  131.3604 H   0  0  0  0  0  0  0  0  0  0  0  0
  149.7654  155.1450  132.5636 H   0  0  0  0  0  0  0  0  0  0  0  0
  148.1234  153.9093  134.0117 H   0  0  0  0  0  0  0  0  0  0  0  0
  145.6367  157.4839  134.2450 H   0  0  0  0  0  0  0  0  0  0  0  0
  1  2  1  0
  2  3  2  0
  2  4  1  0
  4  5  2  0
  5  6  1  0
  6  7  2  0
  7  8  1  0
  8  9  2  0
  9 10  1  0
 10 11  1  0
 10 12  1  0
 10 13  1  0
  9 14  1  0
 14 15  2  0
 15 16  1  0
 16 17  1  0
 17 18  2  0
 17 19  1  0
 16  4  1  0
 15  6  1  0
  1 20  1  0
  1 21  1  0
  5 22  1  0
  7 23  1  0
  8 24  1  0
 14 25  1  0
M  CHG  1  19  -1
M  END
>  <UniqueID>  (42) 
42

>  <SMILES>  (42) 
NC(=O)c1cc2ccc(C(F)(F)F)cc2n1C(=O)[O-]

>  <Energy>  (42) 
66.32011351551668

>  <Genealogy>  (42) 
NC(=O)c1cc2ccc(C(F)(F)F)cc2n1C(=O)[O-] (protonated)
NC(=O)c1cc2ccc(C(F)(F)F)cc2n1C(=O)[O-] (3D coordinates assigned)
NC(=O)c1cc2ccc(C(F)(F)F)cc2n1C(=O)[O-] (optimized conformer: 66.32011351551668 kcal/mol)

>  <smiles>  (42) 
NC(=O)c1cc2ccc(C(F)(F)F)cc2n1C(=O)O

>  <score_type>  (42) 
oracle

>  <origin>  (42) 
adg

>  <m_score__min__energy>  (42) 
-5.3200000000000003

>  <m_primary>  (42) 
energy

$$$$
42:0
     RDKit          3D

 52 54  0  0  0  0  0  0  0  0999 V2000
  139.6360  157.9280  135.9110 C   0  0  0  0  0  0  0  0  0  0  0  0
  139.9480  158.1310  134.4790 N   0  0  0  0  0  0  0  0  0  0  0  0
  138.7340  157.8580  133.6800 C   0  0  0  0  0  0  0  0  0  0  0  0
  141.1950  157.4380  133.9860 C   0  0  0  0  0  0  0  0  0  0  0  0
  141.5890  157.9070  132.5600 C   0  0  0  0  0  0  0  0  0  0  0  0
  140.9850  155.8960  133.9410 C   0  0  0  0  0  0  0  0  0  0  0  0
  142.3530  157.7450  134.9950 C   0  0  0  0  0  0  0  0  0  0  0  0
  143.5580  158.4500  134.4070 C   0  0  0  0  0  0  0  0  0  0  0  0
  143.5660  159.8610  134.2690 C   0  0  0  0  0  0  0  0  0  0  0  0
  144.6710  160.5210  133.7070 C   0  0  0  0  0  0  0  0  0  0  0  0
  145.7560  159.7480  133.3030 C   0  0  0  0  0  0  0  0  0  0  0  0
  146.9340  160.1240  132.6990 C   0  0  0  0  0  0  0  0  0  0  0  0
  147.6440  158.9400  132.5050 C   0  0  0  0  0  0  0  0  0  0  0  0
  149.0140  158.8950  131.9530 C   0  0  0  0  0  0  0  0  0  0  0  0
  149.7480  157.6750  131.9090 N   0  0  0  0  0  0  0  0  0  0  0  0
  149.5630  159.9580  131.5600 O   0  0  0  0  0  0  0  0  0  0  0  0
  146.9280  157.8740  132.9640 N   0  0  0  0  0  0  0  0  0  0  0  0
  147.2540  156.4790  132.8670 C   0  0  0  0  0  0  0  0  0  0  0  0
  148.1780  155.9980  133.5780 O   0  0  0  0  0  0  0  0  0  0  0  0
  146.5200  155.6590  132.0000 O   0  0  0  0  0  0  0  0  0  0  0  0
  145.4250  154.8640  132.3690 C   0  0  0  0  0  0  0  0  0  0  0  0
  145.2720  154.5130  133.7140 C   0  0  0  0  0  0  0  0  0  0  0  0
  144.1850  153.7370  134.1160 C   0  0  0  0  0  0  0  0  0  0  0  0
  143.2490  153.3240  133.1660 C   0  0  0  0  0  0  0  0  0  0  0  0
  143.3950  153.6870  131.8620 N   0  0  0  0  0  0  0  0  0  0  0  0
  144.4480  154.4440  131.4470 C   0  0  0  0  0  0  0  0  0  0  0  0
  145.7780  158.3870  133.4530 C   0  0  0  0  0  0  0  0  0  0  0  0
  144.6860  157.7010  133.9970 C   0  0  0  0  0  0  0  0  0  0  0  0
  140.4000  158.4251  136.5268 H   0  0  0  0  0  0  0  0  0  0  0  0
  138.6482  158.3568  136.1354 H   0  0  0  0  0  0  0  0  0  0  0  0
  139.6278  156.8512  136.1354 H   0  0  0  0  0  0  0  0  0  0  0  0
  137.8863  157.6674  134.3545 H   0  0  0  0  0  0  0  0  0  0  0  0
  138.5093  158.7280  133.0455 H   0  0  0  0  0  0  0  0  0  0  0  0
  138.9034  156.9755  133.0455 H   0  0  0  0  0  0  0  0  0  0  0  0
  142.2950  158.7474  132.6324 H   0  0  0  0  0  0  0  0  0  0  0  0
  142.0633  157.0753  132.0184 H   0  0  0  0  0  0  0  0  0  0  0  0
  140.6879  158.2307  132.0184 H   0  0  0  0  0  0  0  0  0  0  0  0
  140.9315  155.5031  134.9671 H   0  0  0  0  0  0  0  0  0  0  0  0
  140.0476  155.6689  133.4121 H   0  0  0  0  0  0  0  0  0  0  0  0
  141.8275  155.4265  133.4121 H   0  0  0  0  0  0  0  0  0  0  0  0
  141.9458  158.3798  135.7958 H   0  0  0  0  0  0  0  0  0  0  0  0
  142.7155  156.7677  135.3464 H   0  0  0  0  0  0  0  0  0  0  0  0
  142.6970  160.4453  134.6058 H   0  0  0  0  0  0  0  0  0  0  0  0
  144.6789  161.6147  133.5897 H   0  0  0  0  0  0  0  0  0  0  0  0
  147.2486  161.1424  132.4271 H   0  0  0  0  0  0  0  0  0  0  0  0
  149.2570  156.7540  131.8430 H   0  0  0  0  0  0  0  0  0  0  0  0
  146.0105  154.8496  134.4565 H   0  0  0  0  0  0  0  0  0  0  0  0
  144.0663  153.4529  135.1720 H   0  0  0  0  0  0  0  0  0  0  0  0
  142.3927  152.7047  133.4714 H   0  0  0  0  0  0  0  0  0  0  0  0
  142.6790  153.3840  131.1660 H   0  0  0  0  0  0  0  0  0  0  0  0
  144.5354  154.7282  130.3879 H   0  0  0  0  0  0  0  0  0  0  0  0
  144.7044  156.6063  134.1031 H   0  0  0  0  0  0  0  0  0  0  0  0
  1  2  1  0
  2  3  1  0
  2  4  1  0
  4  5  1  0
  4  6  1  0
  4  7  1  0
  7  8  1  0
  8  9  2  0
  9 10  1  0
 10 11  2  0
 11 12  1  0
 12 13  2  0
 13 14  1  0
 14 15  1  0
 14 16  2  0
 13 17  1  0
 17 18  1  0
 18 19  2  0
 18 20  1  0
 20 21  1  0
 21 22  2  0
 22 23  1  0
 23 24  2  0
 24 25  1  0
 25 26  2  0
 17 27  1  0
 27 28  2  0
 28  8  1  0
 27 11  1  0
 26 21  1  0
  1 29  1  0
  1 30  1  0
  1 31  1  0
  3 32  1  0
  3 33  1  0
  3 34  1  0
  5 35  1  0
  5 36  1  0
  5 37  1  0
  6 38  1  0
  6 39  1  0
  6 40  1  0
  7 41  1  0
  7 42  1  0
  9 43  1  0
 10 44  1  0
 12 45  1  0
 15 46  1  0
 22 47  1  0
 23 48  1  0
 24 49  1  0
 25 50  1  0
 26 51  1  0
 28 52  1  0
M  CHG  2  15  -1  25   1
M  END
>  <UniqueID>  (43) 
43

>  <SMILES>  (43) 
CN(C)C(C)(C)Cc1ccc2cc(C([NH-])=O)n(C(=O)Oc3ccc[nH+]c3)c2c1

>  <Energy>  (43) 
107.21699310212541

>  <Genealogy>  (43) 
CN(C)C(C)(C)Cc1ccc2cc(C([NH-])=O)n(C(=O)Oc3ccc[nH+]c3)c2c1 (protonated)
CN(C)C(C)(C)Cc1ccc2cc(C([NH-])=O)n(C(=O)Oc3ccc[nH+]c3)c2c1 (3D coordinates assigned)
CN(C)C(C)(C)Cc1ccc2cc(C([NH-])=O)n(C(=O)Oc3ccc[nH+]c3)c2c1 (optimized conformer: 107.21699310212541 kcal/mol)

>  <smiles>  (43) 
CN(C)C(C)(C)Cc1ccc2cc(C(N)=O)n(C(=O)Oc3cccnc3)c2c1

>  <score_type>  (43) 
oracle

>  <origin>  (43) 
adg

>  <m_score__min__energy>  (43) 
-8

>  <m_primary>  (43) 
energy

$$$$
43:0
     RDKit          3D

 37 39  0  0  0  0  0  0  0  0999 V2000
  149.5920  150.7090  130.8960 C   0  0  0  0  0  0  0  0  0  0  0  0
  149.5180  151.5700  132.4510 S   0  0  0  0  0  0  0  0  0  0  0  0
  149.5050  150.5670  133.5700 O   0  0  0  0  0  0  0  0  0  0  0  0
  150.7300  152.4460  132.6040 O   0  0  0  0  0  0  0  0  0  0  0  0
  148.0600  152.5590  132.5050 C   0  0  0  0  0  0  0  0  0  0  0  0
  148.1550  153.9470  132.6870 C   0  0  0  0  0  0  0  0  0  0  0  0
  146.9980  154.7450  132.7450 C   0  0  0  0  0  0  0  0  0  0  0  0
  147.1040  156.2140  132.9330 C   0  0  0  0  0  0  0  0  0  0  0  0
  148.3580  156.8650  132.7900 C   0  0  0  0  0  0  0  0  0  0  0  0
  148.4680  158.2560  132.9530 C   0  0  0  0  0  0  0  0  0  0  0  0
  147.3160  158.9700  133.2680 C   0  0  0  0  0  0  0  0  0  0  0  0
  147.1370  160.3210  133.4560 C   0  0  0  0  0  0  0  0  0  0  0  0
  145.7820  160.4790  133.7370 C   0  0  0  0  0  0  0  0  0  0  0  0
  145.1730  161.7790  134.0900 C   0  0  0  0  0  0  0  0  0  0  0  0
  145.9150  162.7680  134.8000 N   0  0  0  0  0  0  0  0  0  0  0  0
  143.9990  162.0390  133.7180 O   0  0  0  0  0  0  0  0  0  0  0  0
  145.1460  159.2730  133.7150 N   0  0  0  0  0  0  0  0  0  0  0  0
  143.7400  159.0140  133.8690 C   0  0  0  0  0  0  0  0  0  0  0  0
  143.1230  158.3260  133.0140 O   0  0  0  0  0  0  0  0  0  0  0  0
  143.0540  159.5010  134.9740 O   0  0  0  0  0  0  0  0  0  0  0  0
  146.1000  158.3590  133.4290 C   0  0  0  0  0  0  0  0  0  0  0  0
  145.9560  156.9780  133.2520 C   0  0  0  0  0  0  0  0  0  0  0  0
  145.7390  154.1300  132.6250 C   0  0  0  0  0  0  0  0  0  0  0  0
  145.6420  152.7470  132.4520 C   0  0  0  0  0  0  0  0  0  0  0  0
  146.7950  151.9610  132.3950 C   0  0  0  0  0  0  0  0  0  0  0  0
  146.6760  150.6190  132.2380 F   0  0  0  0  0  0  0  0  0  0  0  0
  149.6849  149.6284  131.0793 H   0  0  0  0  0  0  0  0  0  0  0  0
  148.6736  150.9062  130.3236 H   0  0  0  0  0  0  0  0  0  0  0  0
  150.4633  151.0600  130.3236 H   0  0  0  0  0  0  0  0  0  0  0  0
  149.1450  154.4163  132.7854 H   0  0  0  0  0  0  0  0  0  0  0  0
  149.2534  156.2733  132.5488 H   0  0  0  0  0  0  0  0  0  0  0  0
  149.4358  158.7654  132.8352 H   0  0  0  0  0  0  0  0  0  0  0  0
  147.9019  161.1093  133.3969 H   0  0  0  0  0  0  0  0  0  0  0  0
  146.9600  162.7670  134.7880 H   0  0  0  0  0  0  0  0  0  0  0  0
  144.9724  156.4971  133.3585 H   0  0  0  0  0  0  0  0  0  0  0  0
  144.8255  154.7413  132.6676 H   0  0  0  0  0  0  0  0  0  0  0  0
  144.6527  152.2749  132.3602 H   0  0  0  0  0  0  0  0  0  0  0  0
  1  2  1  0
  2  3  2  0
  2  4  2  0
  2  5  1  0
  5  6  2  0
  6  7  1  0
  7  8  1  0
  8  9  2  0
  9 10  1  0
 10 11  2  0
 11 12  1  0
 12 13  2  0
 13 14  1  0
 14 15  1  0
 14 16  2  0
 13 17  1  0
 17 18  1  0
 18 19  2  0
 18 20  1  0
 17 21  1  0
 21 22  2  0
  7 23  2  0
 23 24  1  0
 24 25  2  0
 25 26  1  0
 25  5  1  0
 22  8  1  0
 21 11  1  0
  1 27  1  0
  1 28  1  0
  1 29  1  0
  6 30  1  0
  9 31  1  0
 10 32  1  0
 12 33  1  0
 15 34  1  0
 22 35  1  0
 23 36  1  0
 24 37  1  0
M  CHG  2  15  -1  20  -1
M  END
>  <UniqueID>  (44) 
44

>  <SMILES>  (44) 
CS(=O)(=O)c1cc(-c2ccc3cc(C([NH-])=O)n(C(=O)[O-])c3c2)ccc1F

>  <Energy>  (44) 
82.78520030710193

>  <Genealogy>  (44) 
CS(=O)(=O)c1cc(-c2ccc3cc(C([NH-])=O)n(C(=O)[O-])c3c2)ccc1F (protonated)
CS(=O)(=O)c1cc(-c2ccc3cc(C([NH-])=O)n(C(=O)[O-])c3c2)ccc1F (3D coordinates assigned)
CS(=O)(=O)c1cc(-c2ccc3cc(C([NH-])=O)n(C(=O)[O-])c3c2)ccc1F (optimized conformer: 82.78520030710193 kcal/mol)

>  <smiles>  (44) 
CS(=O)(=O)c1cc(-c2ccc3cc(C(N)=O)n(C(=O)O)c3c2)ccc1F

>  <score_type>  (44) 
oracle

>  <origin>  (44) 
adg

>  <m_score__min__energy>  (44) 
-8.6600000000000001

>  <m_primary>  (44) 
energy

$$$$
44:0
     RDKit          3D

 36 37  0  0  0  0  0  0  0  0999 V2000
  139.0830  159.9880  131.0980 C   0  0  0  0  0  0  0  0  0  0  0  0
  138.7070  158.6300  131.6810 C   0  0  0  0  0  0  0  0  0  0  0  0
  139.8400  158.0130  132.2890 O   0  0  0  0  0  0  0  0  0  0  0  0
  139.9290  157.7460  133.6590 C   0  0  0  0  0  0  0  0  0  0  0  0
  138.9500  157.9630  134.4250 O   0  0  0  0  0  0  0  0  0  0  0  0
  141.1810  157.1420  134.2080 C   0  0  0  0  0  0  0  0  0  0  0  0
  142.3300  158.0930  134.0310 C   0  0  0  0  0  0  0  0  0  0  0  0
  142.0880  159.4850  133.9090 C   0  0  0  0  0  0  0  0  0  0  0  0
  143.1500  160.3790  133.6950 C   0  0  0  0  0  0  0  0  0  0  0  0
  144.4370  159.8550  133.6090 C   0  0  0  0  0  0  0  0  0  0  0  0
  145.6360  160.4870  133.3710 C   0  0  0  0  0  0  0  0  0  0  0  0
  146.5930  159.4740  133.3600 C   0  0  0  0  0  0  0  0  0  0  0  0
  148.0420  159.7200  133.1910 C   0  0  0  0  0  0  0  0  0  0  0  0
  148.9910  159.1830  134.1080 N   0  0  0  0  0  0  0  0  0  0  0  0
  148.4440  160.4430  132.2410 O   0  0  0  0  0  0  0  0  0  0  0  0
  146.0080  158.2630  133.5830 N   0  0  0  0  0  0  0  0  0  0  0  0
  146.6370  156.9720  133.5740 C   0  0  0  0  0  0  0  0  0  0  0  0
  146.1910  155.9070  132.6260 C   0  0  0  0  0  0  0  0  0  0  0  0
  147.5850  156.7310  134.3690 O   0  0  0  0  0  0  0  0  0  0  0  0
  144.6880  158.5130  133.7310 C   0  0  0  0  0  0  0  0  0  0  0  0
  143.6480  157.5970  133.9230 C   0  0  0  0  0  0  0  0  0  0  0  0
  139.2792  160.6966  131.9161 H   0  0  0  0  0  0  0  0  0  0  0  0
  139.9861  159.8838  130.4787 H   0  0  0  0  0  0  0  0  0  0  0  0
  138.2549  160.3631  130.4787 H   0  0  0  0  0  0  0  0  0  0  0  0
  137.9205  158.7668  132.4378 H   0  0  0  0  0  0  0  0  0  0  0  0
  138.3450  157.9833  130.8681 H   0  0  0  0  0  0  0  0  0  0  0  0
  141.0445  156.9308  135.2789 H   0  0  0  0  0  0  0  0  0  0  0  0
  141.3984  156.2083  133.6686 H   0  0  0  0  0  0  0  0  0  0  0  0
  141.0595  159.8680  133.9826 H   0  0  0  0  0  0  0  0  0  0  0  0
  142.9704  161.4599  133.5984 H   0  0  0  0  0  0  0  0  0  0  0  0
  145.8036  161.5638  133.2212 H   0  0  0  0  0  0  0  0  0  0  0  0
  149.2180  158.1640  134.1110 H   0  0  0  0  0  0  0  0  0  0  0  0
  145.8273  155.0386  133.1949 H   0  0  0  0  0  0  0  0  0  0  0  0
  145.3802  156.2960  131.9926 H   0  0  0  0  0  0  0  0  0  0  0  0
  147.0371  155.6022  131.9926 H   0  0  0  0  0  0  0  0  0  0  0  0
  143.8516  156.5180  133.9882 H   0  0  0  0  0  0  0  0  0  0  0  0
  1  2  1  0
  2  3  1  0
  3  4  1  0
  4  5  2  0
  4  6  1  0
  6  7  1  0
  7  8  2  0
  8  9  1  0
  9 10  2  0
 10 11  1  0
 11 12  2  0
 12 13  1  0
 13 14  1  0
 13 15  2  0
 12 16  1  0
 16 17  1  0
 17 18  1  0
 17 19  2  0
 16 20  1  0
 20 21  2  0
 21  7  1  0
 20 10  1  0
  1 22  1  0
  1 23  1  0
  1 24  1  0
  2 25  1  0
  2 26  1  0
  6 27  1  0
  6 28  1  0
  8 29  1  0
  9 30  1  0
 11 31  1  0
 14 32  1  0
 18 33  1  0
 18 34  1  0
 18 35  1  0
 21 36  1  0
M  CHG  1  14  -1
M  END
>  <UniqueID>  (45) 
45

>  <SMILES>  (45) 
CCOC(=O)Cc1ccc2cc(C([NH-])=O)n(C(C)=O)c2c1

>  <Energy>  (45) 
68.63486525373239

>  <Genealogy>  (45) 
CCOC(=O)Cc1ccc2cc(C([NH-])=O)n(C(C)=O)c2c1 (protonated)
CCOC(=O)Cc1ccc2cc(C([NH-])=O)n(C(C)=O)c2c1 (3D coordinates assigned)
CCOC(=O)Cc1ccc2cc(C([NH-])=O)n(C(C)=O)c2c1 (optimized conformer: 68.63486525373239 kcal/mol)

>  <smiles>  (45) 
CCOC(=O)Cc1ccc2cc(C(N)=O)n(C(C)=O)c2c1

>  <score_type>  (45) 
oracle

>  <origin>  (45) 
adg

>  <m_score__min__energy>  (45) 
-6.6399999999999997

>  <m_primary>  (45) 
energy

$$$$
45:0
     RDKit          3D

 26 27  0  0  0  0  0  0  0  0999 V2000
  141.5360  160.9990  133.6860 N   0  0  0  0  0  0  0  0  0  0  0  0
  142.3200  160.1030  134.4690 C   0  0  0  0  0  0  0  0  0  0  0  0
  141.8100  159.5700  135.4910 O   0  0  0  0  0  0  0  0  0  0  0  0
  143.6970  159.7470  134.0690 C   0  0  0  0  0  0  0  0  0  0  0  0
  144.1010  158.4410  133.7990 C   0  0  0  0  0  0  0  0  0  0  0  0
  145.4060  158.5420  133.3770 C   0  0  0  0  0  0  0  0  0  0  0  0
  146.2990  157.5500  132.9840 C   0  0  0  0  0  0  0  0  0  0  0  0
  147.5980  157.9390  132.6210 C   0  0  0  0  0  0  0  0  0  0  0  0
  147.9850  159.3010  132.6750 C   0  0  0  0  0  0  0  0  0  0  0  0
  149.3750  159.7060  132.2660 C   0  0  0  0  0  0  0  0  0  0  0  0
  149.3720  160.2560  130.8730 C   0  0  0  0  0  0  0  0  0  0  0  0
  150.3340  160.0920  130.1400 O   0  0  0  0  0  0  0  0  0  0  0  0
  147.0490  160.2830  133.0700 C   0  0  0  0  0  0  0  0  0  0  0  0
  145.7550  159.8680  133.4070 C   0  0  0  0  0  0  0  0  0  0  0  0
  144.7160  160.6220  133.8320 N   0  0  0  0  0  0  0  0  0  0  0  0
  144.7350  162.0390  134.0650 C   0  0  0  0  0  0  0  0  0  0  0  0
  145.5470  162.5370  134.8890 O   0  0  0  0  0  0  0  0  0  0  0  0
  143.8750  162.8770  133.3670 O   0  0  0  0  0  0  0  0  0  0  0  0
  141.9510  161.8740  133.2950 H   0  0  0  0  0  0  0  0  0  0  0  0
  143.5028  157.5236  133.9016 H   0  0  0  0  0  0  0  0  0  0  0  0
  145.9962  156.4928  132.9585 H   0  0  0  0  0  0  0  0  0  0  0  0
  148.3222  157.1794  132.2916 H   0  0  0  0  0  0  0  0  0  0  0  0
  149.7464  160.4758  132.9584 H   0  0  0  0  0  0  0  0  0  0  0  0
  150.0275  158.8210  132.2979 H   0  0  0  0  0  0  0  0  0  0  0  0
  148.4960  160.8121  130.5077 H   0  0  0  0  0  0  0  0  0  0  0  0
  147.3296  161.3458  133.1117 H   0  0  0  0  0  0  0  0  0  0  0  0
  1  2  1  0
  2  3  2  0
  2  4  1  0
  4  5  2  0
  5  6  1  0
  6  7  2  0
  7  8  1  0
  8  9  2  0
  9 10  1  0
 10 11  1  0
 11 12  2  0
  9 13  1  0
 13 14  2  0
 14 15  1  0
 15 16  1  0
 16 17  2  0
 16 18  1  0
 15  4  1  0
 14  6  1  0
  1 19  1  0
  5 20  1  0
  7 21  1  0
  8 22  1  0
 10 23  1  0
 10 24  1  0
 11 25  1  0
 13 26  1  0
M  CHG  2   1  -1  18  -1
M  END
>  <UniqueID>  (46) 
46

>  <SMILES>  (46) 
[NH-]C(=O)c1cc2ccc(CC=O)cc2n1C(=O)[O-]

>  <Energy>  (46) 
64.48459812477148

>  <Genealogy>  (46) 
[NH-]C(=O)c1cc2ccc(CC=O)cc2n1C(=O)[O-] (protonated)
[NH-]C(=O)c1cc2ccc(CC=O)cc2n1C(=O)[O-] (3D coordinates assigned)
[NH-]C(=O)c1cc2ccc(CC=O)cc2n1C(=O)[O-] (optimized conformer: 64.48459812477148 kcal/mol)

>  <smiles>  (46) 
NC(=O)c1cc2ccc(CC=O)cc2n1C(=O)O

>  <score_type>  (46) 
oracle

>  <origin>  (46) 
adg

>  <m_score__min__energy>  (46) 
-6.0099999999999998

>  <m_primary>  (46) 
energy

$$$$
46:0
     RDKit          3D

 39 41  0  0  0  0  0  0  0  0999 V2000
  138.9440  148.9140  131.2290 C   0  0  0  0  0  0  0  0  0  0  0  0
  139.7810  150.0420  131.4600 O   0  0  0  0  0  0  0  0  0  0  0  0
  141.0390  149.9340  132.0570 C   0  0  0  0  0  0  0  0  0  0  0  0
  141.6840  148.8510  132.0120 O   0  0  0  0  0  0  0  0  0  0  0  0
  141.6460  151.1320  132.7160 C   0  0  0  0  0  0  0  0  0  0  0  0
  140.5900  152.2210  132.9200 C   0  0  0  0  0  0  0  0  0  0  0  0
  141.2430  153.5290  133.2780 C   0  0  0  0  0  0  0  0  0  0  0  0
  142.5680  153.5500  133.7800 C   0  0  0  0  0  0  0  0  0  0  0  0
  143.1710  154.7620  134.1570 C   0  0  0  0  0  0  0  0  0  0  0  0
  142.4270  155.9300  134.0220 C   0  0  0  0  0  0  0  0  0  0  0  0
  142.7520  157.2300  134.3400 C   0  0  0  0  0  0  0  0  0  0  0  0
  141.6210  157.9820  134.0220 C   0  0  0  0  0  0  0  0  0  0  0  0
  141.5430  159.4510  134.1650 C   0  0  0  0  0  0  0  0  0  0  0  0
  141.7090  160.2860  133.0220 N   0  0  0  0  0  0  0  0  0  0  0  0
  141.3130  159.9780  135.2860 O   0  0  0  0  0  0  0  0  0  0  0  0
  140.6400  157.1780  133.5240 N   0  0  0  0  0  0  0  0  0  0  0  0
  139.3130  157.5570  133.1290 C   0  0  0  0  0  0  0  0  0  0  0  0
  138.3210  157.0880  133.7490 O   0  0  0  0  0  0  0  0  0  0  0  0
  139.1020  158.4890  132.0110 C   0  0  0  0  0  0  0  0  0  0  0  0
  137.8990  159.0290  131.6150 C   0  0  0  0  0  0  0  0  0  0  0  0
  138.1400  159.8150  130.5960 O   0  0  0  0  0  0  0  0  0  0  0  0
  139.4330  159.7720  130.3640 C   0  0  0  0  0  0  0  0  0  0  0  0
  140.0870  158.9600  131.2210 N   0  0  0  0  0  0  0  0  0  0  0  0
  141.1470  155.9260  133.5340 C   0  0  0  0  0  0  0  0  0  0  0  0
  140.5140  154.7340  133.1690 C   0  0  0  0  0  0  0  0  0  0  0  0
  138.6281  148.4883  132.1928 H   0  0  0  0  0  0  0  0  0  0  0  0
  138.0573  149.2262  130.6578 H   0  0  0  0  0  0  0  0  0  0  0  0
  139.4998  148.1558  130.6578 H   0  0  0  0  0  0  0  0  0  0  0  0
  142.0576  150.8386  133.6930 H   0  0  0  0  0  0  0  0  0  0  0  0
  142.4458  151.5266  132.0721 H   0  0  0  0  0  0  0  0  0  0  0  0
  140.0149  152.3460  131.9907 H   0  0  0  0  0  0  0  0  0  0  0  0
  139.9231  151.9201  133.7414 H   0  0  0  0  0  0  0  0  0  0  0  0
  143.1296  152.6090  133.8754 H   0  0  0  0  0  0  0  0  0  0  0  0
  144.1993  154.7866  134.5467 H   0  0  0  0  0  0  0  0  0  0  0  0
  143.7016  157.5973  134.7563 H   0  0  0  0  0  0  0  0  0  0  0  0
  141.8630  159.8760  132.0750 H   0  0  0  0  0  0  0  0  0  0  0  0
  136.9166  158.8357  132.0707 H   0  0  0  0  0  0  0  0  0  0  0  0
  139.9278  160.3360  129.5596 H   0  0  0  0  0  0  0  0  0  0  0  0
  139.4755  154.7345  132.8065 H   0  0  0  0  0  0  0  0  0  0  0  0
  1  2  1  0
  2  3  1  0
  3  4  2  0
  3  5  1  0
  5  6  1  0
  6  7  1  0
  7  8  2  0
  8  9  1  0
  9 10  2  0
 10 11  1  0
 11 12  2  0
 12 13  1  0
 13 14  1  0
 13 15  2  0
 12 16  1  0
 16 17  1  0
 17 18  2  0
 17 19  1  0
 19 20  2  0
 20 21  1  0
 21 22  1  0
 22 23  2  0
 16 24  1  0
 24 25  2  0
 25  7  1  0
 24 10  1  0
 23 19  1  0
  1 26  1  0
  1 27  1  0
  1 28  1  0
  5 29  1  0
  5 30  1  0
  6 31  1  0
  6 32  1  0
  8 33  1  0
  9 34  1  0
 11 35  1  0
 14 36  1  0
 20 37  1  0
 22 38  1  0
 25 39  1  0
M  CHG  1  14  -1
M  END
>  <UniqueID>  (47) 
47

>  <SMILES>  (47) 
COC(=O)CCc1ccc2cc(C([NH-])=O)n(C(=O)c3cocn3)c2c1

>  <Energy>  (47) 
103.16608069884121

>  <Genealogy>  (47) 
COC(=O)CCc1ccc2cc(C([NH-])=O)n(C(=O)c3cocn3)c2c1 (protonated)
COC(=O)CCc1ccc2cc(C([NH-])=O)n(C(=O)c3cocn3)c2c1 (3D coordinates assigned)
COC(=O)CCc1ccc2cc(C([NH-])=O)n(C(=O)c3cocn3)c2c1 (optimized conformer: 103.16608069884121 kcal/mol)

>  <smiles>  (47) 
COC(=O)CCc1ccc2cc(C(N)=O)n(C(=O)c3cocn3)c2c1

>  <score_type>  (47) 
oracle

>  <origin>  (47) 
adg

>  <m_score__min__energy>  (47) 
-7.1200000000000001

>  <m_primary>  (47) 
energy

$$$$
47:0
     RDKit          3D

 37 39  0  0  0  0  0  0  0  0999 V2000
  142.9890  161.2270  133.7410 N   0  0  0  0  0  0  0  0  0  0  0  0
  144.3890  161.3430  133.9790 C   0  0  0  0  0  0  0  0  0  0  0  0
  144.8410  162.3960  134.5030 O   0  0  0  0  0  0  0  0  0  0  0  0
  145.3100  160.2280  133.6690 C   0  0  0  0  0  0  0  0  0  0  0  0
  146.6560  160.4100  133.3620 C   0  0  0  0  0  0  0  0  0  0  0  0
  147.1730  159.1420  133.2220 C   0  0  0  0  0  0  0  0  0  0  0  0
  148.4640  158.7330  132.9060 C   0  0  0  0  0  0  0  0  0  0  0  0
  148.7110  157.3550  132.7960 C   0  0  0  0  0  0  0  0  0  0  0  0
  147.6680  156.4110  132.9920 C   0  0  0  0  0  0  0  0  0  0  0  0
  147.9380  154.9580  132.8580 C   0  0  0  0  0  0  0  0  0  0  0  0
  149.2400  154.4950  132.5950 C   0  0  0  0  0  0  0  0  0  0  0  0
  149.4960  153.1270  132.4730 C   0  0  0  0  0  0  0  0  0  0  0  0
  148.4530  152.1960  132.6000 C   0  0  0  0  0  0  0  0  0  0  0  0
  148.7350  150.7220  132.5000 C   0  0  0  0  0  0  0  0  0  0  0  0
  150.0400  150.4940  131.8100 C   0  0  0  0  0  0  0  0  0  0  0  0
  151.1230  150.7440  132.4030 O   0  0  0  0  0  0  0  0  0  0  0  0
  150.0630  150.0520  130.4920 O   0  0  0  0  0  0  0  0  0  0  0  0
  147.1560  152.6520  132.8750 C   0  0  0  0  0  0  0  0  0  0  0  0
  146.8990  154.0200  132.9980 C   0  0  0  0  0  0  0  0  0  0  0  0
  146.3670  156.8710  133.3110 C   0  0  0  0  0  0  0  0  0  0  0  0
  146.1560  158.2490  133.4340 C   0  0  0  0  0  0  0  0  0  0  0  0
  145.0040  158.9000  133.7090 N   0  0  0  0  0  0  0  0  0  0  0  0
  143.7140  158.3000  133.9090 C   0  0  0  0  0  0  0  0  0  0  0  0
  142.6610  158.5340  132.9770 N   0  0  0  0  0  0  0  0  0  0  0  0
  143.5030  157.5740  134.9170 O   0  0  0  0  0  0  0  0  0  0  0  0
  142.4580  160.3870  134.0620 H   0  0  0  0  0  0  0  0  0  0  0  0
  147.1922  161.3644  133.2542 H   0  0  0  0  0  0  0  0  0  0  0  0
  149.2677  159.4670  132.7470 H   0  0  0  0  0  0  0  0  0  0  0  0
  149.7247  157.0023  132.5551 H   0  0  0  0  0  0  0  0  0  0  0  0
  150.0634  155.2160  132.4845 H   0  0  0  0  0  0  0  0  0  0  0  0
  150.5203  152.7775  132.2764 H   0  0  0  0  0  0  0  0  0  0  0  0
  148.7779  150.2905  133.5109 H   0  0  0  0  0  0  0  0  0  0  0  0
  147.9330  150.2408  131.9210 H   0  0  0  0  0  0  0  0  0  0  0  0
  146.3360  151.9286  132.9946 H   0  0  0  0  0  0  0  0  0  0  0  0
  145.8759  154.3663  133.2060 H   0  0  0  0  0  0  0  0  0  0  0  0
  145.5403  156.1605  133.4589 H   0  0  0  0  0  0  0  0  0  0  0  0
  142.5220  159.4760  132.5490 H   0  0  0  0  0  0  0  0  0  0  0  0
  1  2  1  0
  2  3  2  0
  2  4  1  0
  4  5  2  0
  5  6  1  0
  6  7  2  0
  7  8  1  0
  8  9  2  0
  9 10  1  0
 10 11  2  0
 11 12  1  0
 12 13  2  0
 13 14  1  0
 14 15  1  0
 15 16  2  0
 15 17  1  0
 13 18  1  0
 18 19  2  0
  9 20  1  0
 20 21  2  0
 21 22  1  0
 22 23  1  0
 23 24  1  0
 23 25  2  0
 22  4  1  0
 21  6  1  0
 19 10  1  0
  1 26  1  0
  5 27  1  0
  7 28  1  0
  8 29  1  0
 11 30  1  0
 12 31  1  0
 14 32  1  0
 14 33  1  0
 18 34  1  0
 19 35  1  0
 20 36  1  0
 24 37  1  0
M  CHG  3   1  -1  17  -1  24  -1
M  END
>  <UniqueID>  (48) 
48

>  <SMILES>  (48) 
[NH-]C(=O)c1cc2ccc(-c3ccc(CC(=O)[O-])cc3)cc2n1C([NH-])=O

>  <Energy>  (48) 
82.6919858517547

>  <Genealogy>  (48) 
[NH-]C(=O)c1cc2ccc(-c3ccc(CC(=O)[O-])cc3)cc2n1C([NH-])=O (protonated)
[NH-]C(=O)c1cc2ccc(-c3ccc(CC(=O)[O-])cc3)cc2n1C([NH-])=O (3D coordinates assigned)
[NH-]C(=O)c1cc2ccc(-c3ccc(CC(=O)[O-])cc3)cc2n1C([NH-])=O (optimized conformer: 82.6919858517547 kcal/mol)

>  <smiles>  (48) 
NC(=O)c1cc2ccc(-c3ccc(CC(=O)O)cc3)cc2n1C(N)=O

>  <score_type>  (48) 
oracle

>  <origin>  (48) 
adg

>  <m_score__min__energy>  (48) 
-8.0600000000000005

>  <m_primary>  (48) 
energy

$$$$
48:0
     RDKit          3D

 42 44  0  0  0  0  0  0  0  0999 V2000
  142.6510  154.9110  134.5160 C   0  0  0  0  0  0  0  0  0  0  0  0
  144.0800  155.1120  134.3360 N   0  0  0  0  0  0  0  0  0  0  0  0
  144.6410  155.6530  133.1380 C   0  0  0  0  0  0  0  0  0  0  0  0
  144.6250  154.9790  132.0730 O   0  0  0  0  0  0  0  0  0  0  0  0
  145.2140  156.9720  133.1410 N   0  0  0  0  0  0  0  0  0  0  0  0
  146.5310  157.3020  133.0190 C   0  0  0  0  0  0  0  0  0  0  0  0
  147.6300  156.3690  132.7030 C   0  0  0  0  0  0  0  0  0  0  0  0
  147.4190  155.2290  131.8690 N   0  0  0  0  0  0  0  0  0  0  0  0
  148.7890  156.6110  133.1330 O   0  0  0  0  0  0  0  0  0  0  0  0
  146.7130  158.6700  133.1950 C   0  0  0  0  0  0  0  0  0  0  0  0
  145.4540  159.1780  133.4180 C   0  0  0  0  0  0  0  0  0  0  0  0
  145.0510  160.4830  133.6730 C   0  0  0  0  0  0  0  0  0  0  0  0
  143.6870  160.7180  133.9120 C   0  0  0  0  0  0  0  0  0  0  0  0
  142.7450  159.6530  133.9040 C   0  0  0  0  0  0  0  0  0  0  0  0
  141.2590  159.8740  134.1770 C   0  0  0  0  0  0  0  0  0  0  0  0
  140.3850  159.9540  132.9010 C   0  0  0  0  0  0  0  0  0  0  0  0
  140.0670  158.6170  132.2290 C   0  0  0  0  0  0  0  0  0  0  0  0
  139.4080  157.4540  133.4050 S   0  0  0  0  0  0  0  0  0  0  0  0
  139.4520  156.0670  132.8280 O   0  0  0  0  0  0  0  0  0  0  0  0
  137.9860  157.8160  133.7290 O   0  0  0  0  0  0  0  0  0  0  0  0
  140.3900  157.5190  134.8890 C   0  0  0  0  0  0  0  0  0  0  0  0
  140.6780  158.9680  135.2920 C   0  0  0  0  0  0  0  0  0  0  0  0
  143.2060  158.3380  133.6440 C   0  0  0  0  0  0  0  0  0  0  0  0
  144.5670  158.1350  133.3840 C   0  0  0  0  0  0  0  0  0  0  0  0
  142.4178  154.8782  135.5905 H   0  0  0  0  0  0  0  0  0  0  0  0
  142.1020  155.7408  134.0468 H   0  0  0  0  0  0  0  0  0  0  0  0
  142.3522  153.9620  134.0468 H   0  0  0  0  0  0  0  0  0  0  0  0
  148.1980  154.5570  131.6920 H   0  0  0  0  0  0  0  0  0  0  0  0
  146.5200  155.0960  131.3550 H   0  0  0  0  0  0  0  0  0  0  0  0
  147.6612  159.2267  133.1628 H   0  0  0  0  0  0  0  0  0  0  0  0
  145.7787  161.3078  133.6873 H   0  0  0  0  0  0  0  0  0  0  0  0
  143.3416  161.7437  134.1088 H   0  0  0  0  0  0  0  0  0  0  0  0
  141.2083  160.8878  134.6007 H   0  0  0  0  0  0  0  0  0  0  0  0
  139.4317  160.4302  133.1738 H   0  0  0  0  0  0  0  0  0  0  0  0
  140.9755  160.5243  132.1688 H   0  0  0  0  0  0  0  0  0  0  0  0
  139.3267  158.7817  131.4322 H   0  0  0  0  0  0  0  0  0  0  0  0
  140.9971  158.2044  131.8109 H   0  0  0  0  0  0  0  0  0  0  0  0
  139.8444  157.0204  135.7037 H   0  0  0  0  0  0  0  0  0  0  0  0
  141.3469  157.0107  134.6992 H   0  0  0  0  0  0  0  0  0  0  0  0
  139.7342  159.4172  135.6346 H   0  0  0  0  0  0  0  0  0  0  0  0
  141.4549  158.9139  136.0689 H   0  0  0  0  0  0  0  0  0  0  0  0
  142.5054  157.4900  133.6464 H   0  0  0  0  0  0  0  0  0  0  0  0
  1  2  1  0
  2  3  1  0
  3  4  2  0
  3  5  1  0
  5  6  1  0
  6  7  1  0
  7  8  1  0
  7  9  2  0
  6 10  2  0
 10 11  1  0
 11 12  2  0
 12 13  1  0
 13 14  2  0
 14 15  1  0
 15 16  1  0
 16 17  1  0
 17 18  1  0
 18 19  2  0
 18 20  2  0
 18 21  1  0
 21 22  1  0
 14 23  1  0
 23 24  2  0
 24  5  1  0
 24 11  1  0
 22 15  1  0
  1 25  1  0
  1 26  1  0
  1 27  1  0
  8 28  1  0
  8 29  1  0
 10 30  1  0
 12 31  1  0
 13 32  1  0
 15 33  1  0
 16 34  1  0
 16 35  1  0
 17 36  1  0
 17 37  1  0
 21 38  1  0
 21 39  1  0
 22 40  1  0
 22 41  1  0
 23 42  1  0
M  CHG  1   2  -1
M  END
>  <UniqueID>  (49) 
49

>  <SMILES>  (49) 
C[N-]C(=O)n1c(C(N)=O)cc2ccc(C3CCS(=O)(=O)CC3)cc21

>  <Energy>  (49) 
78.56611315798426

>  <Genealogy>  (49) 
C[N-]C(=O)n1c(C(N)=O)cc2ccc(C3CCS(=O)(=O)CC3)cc21 (protonated)
C[N-]C(=O)n1c(C(N)=O)cc2ccc(C3CCS(=O)(=O)CC3)cc21 (3D coordinates assigned)
C[N-]C(=O)n1c(C(N)=O)cc2ccc(C3CCS(=O)(=O)CC3)cc21 (nonaromatic ring conformer: 78.56611315798426 kcal/mol)

>  <smiles>  (49) 
CNC(=O)n1c(C(N)=O)cc2ccc(C3CCS(=O)(=O)CC3)cc21

>  <score_type>  (49) 
oracle

>  <origin>  (49) 
adg

>  <m_score__min__energy>  (49) 
-8.2699999999999996

>  <m_primary>  (49) 
energy

$$$$
49:0
     RDKit          3D

 47 49  0  0  0  0  0  0  0  0999 V2000
  139.1790  146.2760  129.7530 C   0  0  0  0  0  0  0  0  0  0  0  0
  138.7560  147.7420  129.9250 C   0  0  0  0  0  0  0  0  0  0  0  0
  139.8400  148.6300  130.3980 N   0  0  0  0  0  0  0  0  0  0  0  0
  140.5590  148.1050  131.5810 C   0  0  0  0  0  0  0  0  0  0  0  0
  141.3980  149.1930  132.2550 C   0  0  0  0  0  0  0  0  0  0  0  0
  140.4800  150.3040  132.8000 C   0  0  0  0  0  0  0  0  0  0  0  0
  141.2780  151.5510  133.1400 C   0  0  0  0  0  0  0  0  0  0  0  0
  142.6140  151.4310  133.6010 C   0  0  0  0  0  0  0  0  0  0  0  0
  143.3680  152.5710  133.9270 C   0  0  0  0  0  0  0  0  0  0  0  0
  142.7690  153.8160  133.7740 C   0  0  0  0  0  0  0  0  0  0  0  0
  143.2630  155.0730  134.0370 C   0  0  0  0  0  0  0  0  0  0  0  0
  142.2320  155.9510  133.7100 C   0  0  0  0  0  0  0  0  0  0  0  0
  142.3580  157.4250  133.7520 C   0  0  0  0  0  0  0  0  0  0  0  0
  142.0330  158.2170  132.6080 N   0  0  0  0  0  0  0  0  0  0  0  0
  142.7230  157.9990  134.8120 O   0  0  0  0  0  0  0  0  0  0  0  0
  141.1420  155.2630  133.2620 N   0  0  0  0  0  0  0  0  0  0  0  0
  139.8610  155.8000  132.8960 C   0  0  0  0  0  0  0  0  0  0  0  0
  138.8140  155.1230  133.0870 O   0  0  0  0  0  0  0  0  0  0  0  0
  139.7780  157.0800  132.3390 O   0  0  0  0  0  0  0  0  0  0  0  0
  138.7880  158.0240  132.7300 C   0  0  0  0  0  0  0  0  0  0  0  0
  141.4880  153.9570  133.3090 C   0  0  0  0  0  0  0  0  0  0  0  0
  140.7070  152.8390  132.9940 C   0  0  0  0  0  0  0  0  0  0  0  0
  139.2840  150.6080  131.8580 C   0  0  0  0  0  0  0  0  0  0  0  0
  139.4950  150.0730  130.4290 C   0  0  0  0  0  0  0  0  0  0  0  0
  139.3122  145.8143  130.7425 H   0  0  0  0  0  0  0  0  0  0  0  0
  138.4010  145.7327  129.1967 H   0  0  0  0  0  0  0  0  0  0  0  0
  140.1269  146.2307  129.1967 H   0  0  0  0  0  0  0  0  0  0  0  0
  138.4020  148.1160  128.9530 H   0  0  0  0  0  0  0  0  0  0  0  0
  137.9721  147.7583  130.6966 H   0  0  0  0  0  0  0  0  0  0  0  0
  139.8247  147.7204  132.3041 H   0  0  0  0  0  0  0  0  0  0  0  0
  141.2354  147.3045  131.2469 H   0  0  0  0  0  0  0  0  0  0  0  0
  141.9681  148.7513  133.0856 H   0  0  0  0  0  0  0  0  0  0  0  0
  142.0893  149.6254  131.5167 H   0  0  0  0  0  0  0  0  0  0  0  0
  140.0354  149.9292  133.7337 H   0  0  0  0  0  0  0  0  0  0  0  0
  143.0654  150.4332  133.7046 H   0  0  0  0  0  0  0  0  0  0  0  0
  144.4016  152.4809  134.2924 H   0  0  0  0  0  0  0  0  0  0  0  0
  144.2603  155.3301  134.4234 H   0  0  0  0  0  0  0  0  0  0  0  0
  142.0880  159.2580  132.6600 H   0  0  0  0  0  0  0  0  0  0  0  0
  141.7780  157.7760  131.6960 H   0  0  0  0  0  0  0  0  0  0  0  0
  138.7391  158.0706  133.8279 H   0  0  0  0  0  0  0  0  0  0  0  0
  139.0495  159.0156  132.3322 H   0  0  0  0  0  0  0  0  0  0  0  0
  137.8099  157.7156  132.3322 H   0  0  0  0  0  0  0  0  0  0  0  0
  139.6721  152.9581  132.6407 H   0  0  0  0  0  0  0  0  0  0  0  0
  138.3799  150.1422  132.2772 H   0  0  0  0  0  0  0  0  0  0  0  0
  139.1873  151.7016  131.7899 H   0  0  0  0  0  0  0  0  0  0  0  0
  138.5678  150.2246  129.8569 H   0  0  0  0  0  0  0  0  0  0  0  0
  140.3405  150.6241  129.9915 H   0  0  0  0  0  0  0  0  0  0  0  0
  1  2  1  0
  2  3  1  0
  3  4  1  0
  4  5  1  0
  5  6  1  0
  6  7  1  0
  7  8  2  0
  8  9  1  0
  9 10  2  0
 10 11  1  0
 11 12  2  0
 12 13  1  0
 13 14  1  0
 13 15  2  0
 12 16  1  0
 16 17  1  0
 17 18  2  0
 17 19  1  0
 19 20  1  0
 16 21  1  0
 21 22  2  0
  6 23  1  0
 23 24  1  0
 24  3  1  0
 22  7  1  0
 21 10  1  0
  1 25  1  0
  1 26  1  0
  1 27  1  0
  2 28  1  0
  2 29  1  0
  4 30  1  0
  4 31  1  0
  5 32  1  0
  5 33  1  0
  6 34  1  0
  8 35  1  0
  9 36  1  0
 11 37  1  0
 14 38  1  0
 14 39  1  0
 20 40  1  0
 20 41  1  0
 20 42  1  0
 22 43  1  0
 23 44  1  0
 23 45  1  0
 24 46  1  0
 24 47  1  0
M  END
>  <UniqueID>  (50) 
50

>  <SMILES>  (50) 
CCN1CCC(c2ccc3cc(C(N)=O)n(C(=O)OC)c3c2)CC1

>  <Energy>  (50) 
94.65420291321014

>  <Genealogy>  (50) 
CCN1CCC(c2ccc3cc(C(N)=O)n(C(=O)OC)c3c2)CC1 (3D coordinates assigned)
CCN1CCC(c2ccc3cc(C(N)=O)n(C(=O)OC)c3c2)CC1 (nonaromatic ring conformer: 94.65420291321014 kcal/mol)

>  <smiles>  (50) 
CCN1CCC(c2ccc3cc(C(N)=O)n(C(=O)OC)c3c2)CC1

>  <score_type>  (50) 
oracle

>  <origin>  (50) 
adg

>  <m_score__min__energy>  (50) 
-8.2100000000000009

>  <m_primary>  (50) 
energy

$$$$
50:0
     RDKit          3D

 31 32  0  0  0  0  0  0  0  0999 V2000
  149.0270  161.5670  130.7220 C   0  0  0  0  0  0  0  0  0  0  0  0
  149.9880  160.5850  130.4090 O   0  0  0  0  0  0  0  0  0  0  0  0
  149.6530  159.3510  131.0200 C   0  0  0  0  0  0  0  0  0  0  0  0
  149.3160  159.5440  132.5030 C   0  0  0  0  0  0  0  0  0  0  0  0
  147.8860  159.1690  132.7930 C   0  0  0  0  0  0  0  0  0  0  0  0
  147.4760  157.8150  132.7120 C   0  0  0  0  0  0  0  0  0  0  0  0
  146.1500  157.4500  133.0020 C   0  0  0  0  0  0  0  0  0  0  0  0
  145.2660  158.4560  133.3830 C   0  0  0  0  0  0  0  0  0  0  0  0
  143.9290  158.3840  133.7010 C   0  0  0  0  0  0  0  0  0  0  0  0
  143.5500  159.6890  134.0050 C   0  0  0  0  0  0  0  0  0  0  0  0
  142.2020  160.0530  134.4890 C   0  0  0  0  0  0  0  0  0  0  0  0
  141.3600  160.8780  133.6870 N   0  0  0  0  0  0  0  0  0  0  0  0
  141.7710  159.6140  135.5860 O   0  0  0  0  0  0  0  0  0  0  0  0
  144.6090  160.5380  133.8720 N   0  0  0  0  0  0  0  0  0  0  0  0
  144.6150  161.9670  134.0250 C   0  0  0  0  0  0  0  0  0  0  0  0
  145.5030  162.5290  134.7200 O   0  0  0  0  0  0  0  0  0  0  0  0
  143.6590  162.7460  133.3860 O   0  0  0  0  0  0  0  0  0  0  0  0
  145.6530  159.7660  133.4940 C   0  0  0  0  0  0  0  0  0  0  0  0
  146.9620  160.1600  133.1920 C   0  0  0  0  0  0  0  0  0  0  0  0
  148.9381  161.6579  131.8146 H   0  0  0  0  0  0  0  0  0  0  0  0
  149.3383  162.5330  130.2979 H   0  0  0  0  0  0  0  0  0  0  0  0
  148.0545  161.2766  130.2979 H   0  0  0  0  0  0  0  0  0  0  0  0
  148.7807  158.9207  130.5063 H   0  0  0  0  0  0  0  0  0  0  0  0
  150.5183  158.6762  130.9429 H   0  0  0  0  0  0  0  0  0  0  0  0
  149.9821  158.9105  133.1072 H   0  0  0  0  0  0  0  0  0  0  0  0
  149.4543  160.6058  132.7550 H   0  0  0  0  0  0  0  0  0  0  0  0
  148.2022  157.0424  132.4194 H   0  0  0  0  0  0  0  0  0  0  0  0
  145.8211  156.4028  132.9302 H   0  0  0  0  0  0  0  0  0  0  0  0
  143.2941  157.4858  133.7126 H   0  0  0  0  0  0  0  0  0  0  0  0
  141.7100  161.7820  133.2970 H   0  0  0  0  0  0  0  0  0  0  0  0
  147.2635  161.2154  133.2637 H   0  0  0  0  0  0  0  0  0  0  0  0
  1  2  1  0
  2  3  1  0
  3  4  1  0
  4  5  1  0
  5  6  2  0
  6  7  1  0
  7  8  2  0
  8  9  1  0
  9 10  2  0
 10 11  1  0
 11 12  1  0
 11 13  2  0
 10 14  1  0
 14 15  1  0
 15 16  2  0
 15 17  1  0
 14 18  1  0
 18 19  2  0
 19  5  1  0
 18  8  1  0
  1 20  1  0
  1 21  1  0
  1 22  1  0
  3 23  1  0
  3 24  1  0
  4 25  1  0
  4 26  1  0
  6 27  1  0
  7 28  1  0
  9 29  1  0
 12 30  1  0
 19 31  1  0
M  CHG  2  12  -1  17  -1
M  END
>  <UniqueID>  (51) 
51

>  <SMILES>  (51) 
COCCc1ccc2cc(C([NH-])=O)n(C(=O)[O-])c2c1

>  <Energy>  (51) 
70.0064449868019

>  <Genealogy>  (51) 
COCCc1ccc2cc(C([NH-])=O)n(C(=O)[O-])c2c1 (protonated)
COCCc1ccc2cc(C([NH-])=O)n(C(=O)[O-])c2c1 (3D coordinates assigned)
COCCc1ccc2cc(C([NH-])=O)n(C(=O)[O-])c2c1 (optimized conformer: 70.0064449868019 kcal/mol)

>  <smiles>  (51) 
COCCc1ccc2cc(C(N)=O)n(C(=O)O)c2c1

>  <score_type>  (51) 
oracle

>  <origin>  (51) 
adg

>  <m_score__min__energy>  (51) 
-6.1500000000000004

>  <m_primary>  (51) 
energy

$$$$
51:0
     RDKit          3D

 35 37  0  0  0  0  0  0  0  0999 V2000
  149.9770  154.0030  132.2410 C   0  0  0  0  0  0  0  0  0  0  0  0
  148.6320  153.6450  132.7080 N   0  0  0  0  0  0  0  0  0  0  0  0
  148.3290  152.2350  132.9820 C   0  0  0  0  0  0  0  0  0  0  0  0
  147.6180  154.6670  132.8930 C   0  0  0  0  0  0  0  0  0  0  0  0
  146.2360  154.3260  132.9180 C   0  0  0  0  0  0  0  0  0  0  0  0
  145.2480  155.3110  133.0900 C   0  0  0  0  0  0  0  0  0  0  0  0
  145.6600  156.6280  133.2440 C   0  0  0  0  0  0  0  0  0  0  0  0
  144.9160  157.7770  133.3990 C   0  0  0  0  0  0  0  0  0  0  0  0
  145.8480  158.8110  133.4880 C   0  0  0  0  0  0  0  0  0  0  0  0
  145.5030  160.2350  133.7110 C   0  0  0  0  0  0  0  0  0  0  0  0
  146.5170  161.2430  133.7230 N   0  0  0  0  0  0  0  0  0  0  0  0
  144.3030  160.5750  133.8800 O   0  0  0  0  0  0  0  0  0  0  0  0
  147.1140  158.3160  133.4000 N   0  0  0  0  0  0  0  0  0  0  0  0
  148.3430  159.0600  133.3930 C   0  0  0  0  0  0  0  0  0  0  0  0
  148.9860  159.2120  134.4650 O   0  0  0  0  0  0  0  0  0  0  0  0
  148.8680  159.6340  132.1450 C   0  0  0  0  0  0  0  0  0  0  0  0
  148.5080  160.8450  131.6720 N   0  0  0  0  0  0  0  0  0  0  0  0
  149.2450  160.9230  130.5470 C   0  0  0  0  0  0  0  0  0  0  0  0
  149.9780  159.8490  130.3820 O   0  0  0  0  0  0  0  0  0  0  0  0
  149.7730  159.0210  131.3610 N   0  0  0  0  0  0  0  0  0  0  0  0
  146.9820  156.9810  133.2440 C   0  0  0  0  0  0  0  0  0  0  0  0
  147.9870  156.0290  133.0500 C   0  0  0  0  0  0  0  0  0  0  0  0
  150.6317  154.1773  133.1076 H   0  0  0  0  0  0  0  0  0  0  0  0
  150.3846  153.1821  131.6327 H   0  0  0  0  0  0  0  0  0  0  0  0
  149.9225  154.9179  131.6327 H   0  0  0  0  0  0  0  0  0  0  0  0
  148.2940  152.0721  134.0693 H   0  0  0  0  0  0  0  0  0  0  0  0
  147.3549  151.9769  132.5410 H   0  0  0  0  0  0  0  0  0  0  0  0
  149.1111  151.5995  132.5410 H   0  0  0  0  0  0  0  0  0  0  0  0
  145.9363  153.2741  132.8008 H   0  0  0  0  0  0  0  0  0  0  0  0
  144.1804  155.0464  133.1022 H   0  0  0  0  0  0  0  0  0  0  0  0
  143.8201  157.8611  133.4432 H   0  0  0  0  0  0  0  0  0  0  0  0
  146.2530  162.2460  133.8450 H   0  0  0  0  0  0  0  0  0  0  0  0
  147.5290  161.0010  133.6550 H   0  0  0  0  0  0  0  0  0  0  0  0
  149.2331  161.7784  129.8555 H   0  0  0  0  0  0  0  0  0  0  0  0
  149.0447  156.3296  133.0195 H   0  0  0  0  0  0  0  0  0  0  0  0
  1  2  1  0
  2  3  1  0
  2  4  1  0
  4  5  2  0
  5  6  1  0
  6  7  2  0
  7  8  1  0
  8  9  2  0
  9 10  1  0
 10 11  1  0
 10 12  2  0
  9 13  1  0
 13 14  1  0
 14 15  2  0
 14 16  1  0
 16 17  1  0
 17 18  2  0
 18 19  1  0
 19 20  1  0
 13 21  1  0
 21 22  2  0
 22  4  1  0
 21  7  1  0
 20 16  2  0
  1 23  1  0
  1 24  1  0
  1 25  1  0
  3 26  1  0
  3 27  1  0
  3 28  1  0
  5 29  1  0
  6 30  1  0
  8 31  1  0
 11 32  1  0
 11 33  1  0
 18 34  1  0
 22 35  1  0
M  END
>  <UniqueID>  (52) 
52

>  <SMILES>  (52) 
CN(C)c1ccc2cc(C(N)=O)n(C(=O)c3ncon3)c2c1

>  <Energy>  (52) 
110.01412323597411

>  <Genealogy>  (52) 
CN(C)c1ccc2cc(C(N)=O)n(C(=O)c3ncon3)c2c1 (3D coordinates assigned)
CN(C)c1ccc2cc(C(N)=O)n(C(=O)c3ncon3)c2c1 (optimized conformer: 110.01412323597411 kcal/mol)

>  <smiles>  (52) 
CN(C)c1ccc2cc(C(N)=O)n(C(=O)c3ncon3)c2c1

>  <score_type>  (52) 
oracle

>  <origin>  (52) 
adg

>  <m_score__min__energy>  (52) 
-6.9000000000000004

>  <m_primary>  (52) 
energy

$$$$
52:0
     RDKit          3D

 42 43  0  0  0  0  0  0  0  0999 V2000
  147.8180  157.0870  131.9230 N   0  0  0  0  0  0  0  0  0  0  0  0
  147.4230  157.8550  133.0610 C   0  0  0  0  0  0  0  0  0  0  0  0
  148.2500  158.0480  133.9920 O   0  0  0  0  0  0  0  0  0  0  0  0
  146.0460  158.3700  133.1960 C   0  0  0  0  0  0  0  0  0  0  0  0
  145.7480  159.7200  133.3680 C   0  0  0  0  0  0  0  0  0  0  0  0
  144.3810  159.7700  133.5250 C   0  0  0  0  0  0  0  0  0  0  0  0
  143.5460  160.8650  133.7330 C   0  0  0  0  0  0  0  0  0  0  0  0
  142.1650  160.6280  133.8370 C   0  0  0  0  0  0  0  0  0  0  0  0
  141.6470  159.3160  133.7090 C   0  0  0  0  0  0  0  0  0  0  0  0
  140.1710  159.0680  133.8460 C   0  0  0  0  0  0  0  0  0  0  0  0
  139.8790  158.4790  135.1890 C   0  0  0  0  0  0  0  0  0  0  0  0
  139.1590  157.4470  135.2800 O   0  0  0  0  0  0  0  0  0  0  0  0
  140.4490  159.0550  136.3280 O   0  0  0  0  0  0  0  0  0  0  0  0
  141.6680  158.5860  136.8950 C   0  0  0  0  0  0  0  0  0  0  0  0
  141.5130  157.1280  137.3140 C   0  0  0  0  0  0  0  0  0  0  0  0
  140.1940  156.8670  137.7130 O   0  0  0  0  0  0  0  0  0  0  0  0
  142.5260  158.2300  133.5050 C   0  0  0  0  0  0  0  0  0  0  0  0
  143.8990  158.4900  133.4330 C   0  0  0  0  0  0  0  0  0  0  0  0
  144.9110  157.6170  133.2290 N   0  0  0  0  0  0  0  0  0  0  0  0
  144.7890  156.2030  133.0010 C   0  0  0  0  0  0  0  0  0  0  0  0
  145.6050  155.6140  132.2400 O   0  0  0  0  0  0  0  0  0  0  0  0
  143.7620  155.4860  133.6220 O   0  0  0  0  0  0  0  0  0  0  0  0
  143.1550  154.3390  133.0350 C   0  0  0  0  0  0  0  0  0  0  0  0
  141.8460  154.0150  133.7540 C   0  0  0  0  0  0  0  0  0  0  0  0
  142.0990  153.9790  135.5190 Cl  0  0  0  0  0  0  0  0  0  0  0  0
  140.6060  155.2380  133.3700 Cl  0  0  0  0  0  0  0  0  0  0  0  0
  141.2530  152.4190  133.2310 Cl  0  0  0  0  0  0  0  0  0  0  0  0
  148.8060  156.7650  131.8260 H   0  0  0  0  0  0  0  0  0  0  0  0
  147.1170  156.7660  131.2200 H   0  0  0  0  0  0  0  0  0  0  0  0
  146.4531  160.5643  133.3765 H   0  0  0  0  0  0  0  0  0  0  0  0
  143.9547  161.8831  133.8133 H   0  0  0  0  0  0  0  0  0  0  0  0
  141.4799  161.4690  134.0195 H   0  0  0  0  0  0  0  0  0  0  0  0
  139.6293  160.0194  133.7388 H   0  0  0  0  0  0  0  0  0  0  0  0
  139.8463  158.3665  133.0633 H   0  0  0  0  0  0  0  0  0  0  0  0
  142.4733  158.6687  136.1502 H   0  0  0  0  0  0  0  0  0  0  0  0
  141.9168  159.1939  137.7774 H   0  0  0  0  0  0  0  0  0  0  0  0
  141.7689  156.4784  136.4640 H   0  0  0  0  0  0  0  0  0  0  0  0
  142.1859  156.9288  138.1610 H   0  0  0  0  0  0  0  0  0  0  0  0
  139.6420  157.6200  137.3770 H   0  0  0  0  0  0  0  0  0  0  0  0
  142.1408  157.2045  133.4051 H   0  0  0  0  0  0  0  0  0  0  0  0
  142.9476  154.5396  131.9735 H   0  0  0  0  0  0  0  0  0  0  0  0
  143.8387  153.4821  133.1260 H   0  0  0  0  0  0  0  0  0  0  0  0
  1  2  1  0
  2  3  2  0
  2  4  1  0
  4  5  2  0
  5  6  1  0
  6  7  2  0
  7  8  1  0
  8  9  2  0
  9 10  1  0
 10 11  1  0
 11 12  2  0
 11 13  1  0
 13 14  1  0
 14 15  1  0
 15 16  1  0
  9 17  1  0
 17 18  2  0
 18 19  1  0
 19 20  1  0
 20 21  2  0
 20 22  1  0
 22 23  1  0
 23 24  1  0
 24 25  1  0
 24 26  1  0
 24 27  1  0
 19  4  1  0
 18  6  1  0
  1 28  1  0
  1 29  1  0
  5 30  1  0
  7 31  1  0
  8 32  1  0
 10 33  1  0
 10 34  1  0
 14 35  1  0
 14 36  1  0
 15 37  1  0
 15 38  1  0
 16 39  1  0
 17 40  1  0
 23 41  1  0
 23 42  1  0
M  END
>  <UniqueID>  (53) 
53

>  <SMILES>  (53) 
NC(=O)c1cc2ccc(CC(=O)OCCO)cc2n1C(=O)OCC(Cl)(Cl)Cl

>  <Energy>  (53) 
68.99422845953941

>  <Genealogy>  (53) 
NC(=O)c1cc2ccc(CC(=O)OCCO)cc2n1C(=O)OCC(Cl)(Cl)Cl (3D coordinates assigned)
NC(=O)c1cc2ccc(CC(=O)OCCO)cc2n1C(=O)OCC(Cl)(Cl)Cl (optimized conformer: 68.99422845953941 kcal/mol)

>  <smiles>  (53) 
NC(=O)c1cc2ccc(CC(=O)OCCO)cc2n1C(=O)OCC(Cl)(Cl)Cl

>  <score_type>  (53) 
oracle

>  <origin>  (53) 
adg

>  <m_score__min__energy>  (53) 
-7.29

>  <m_primary>  (53) 
energy

$$$$
53:0
     RDKit          3D

 52 54  0  0  0  0  0  0  0  0999 V2000
  138.4820  158.5040  132.6580 C   0  0  0  0  0  0  0  0  0  0  0  0
  138.7620  157.4470  133.7230 C   0  0  2  0  0  0  0  0  0  0  0  0
  138.7340  158.0730  135.0030 O   0  0  0  0  0  0  0  0  0  0  0  0
  139.8740  158.2500  135.7920 C   0  0  0  0  0  0  0  0  0  0  0  0
  140.5850  159.2850  135.6670 O   0  0  0  0  0  0  0  0  0  0  0  0
  140.2080  157.2650  136.7260 O   0  0  0  0  0  0  0  0  0  0  0  0
  141.5030  157.1480  137.3210 C   0  0  0  0  0  0  0  0  0  0  0  0
  141.3990  157.1990  138.8670 C   0  0  0  0  0  0  0  0  0  0  0  0
  141.2660  155.8120  139.5310 C   0  0  0  0  0  0  0  0  0  0  0  0
  140.5750  154.8020  138.6090 C   0  0  0  0  0  0  0  0  0  0  0  0
  141.3600  154.5970  137.2980 C   0  0  0  0  0  0  0  0  0  0  0  0
  142.1560  155.8420  136.8540 C   0  0  0  0  0  0  0  0  0  0  0  0
  140.0460  156.8620  133.5090 O   0  0  0  0  0  0  0  0  0  0  0  0
  140.2420  155.5010  133.2460 C   0  0  0  0  0  0  0  0  0  0  0  0
  139.2530  154.7550  133.0020 O   0  0  0  0  0  0  0  0  0  0  0  0
  141.5640  154.9380  133.2870 N   0  0  0  0  0  0  0  0  0  0  0  0
  142.7610  155.5930  133.3270 C   0  0  0  0  0  0  0  0  0  0  0  0
  142.9560  157.0620  133.3850 C   0  0  0  0  0  0  0  0  0  0  0  0
  142.1760  157.8610  134.2810 N   0  0  0  0  0  0  0  0  0  0  0  0
  143.7830  157.6350  132.6230 O   0  0  0  0  0  0  0  0  0  0  0  0
  143.8160  154.6850  133.2330 C   0  0  0  0  0  0  0  0  0  0  0  0
  143.2290  153.4470  133.1330 C   0  0  0  0  0  0  0  0  0  0  0  0
  143.8100  152.1870  133.0100 C   0  0  0  0  0  0  0  0  0  0  0  0
  142.9590  151.0750  132.9260 C   0  0  0  0  0  0  0  0  0  0  0  0
  141.5520  151.2390  132.9750 C   0  0  0  0  0  0  0  0  0  0  0  0
  140.6450  150.0470  132.8870 C   0  0  0  0  0  0  0  0  0  0  0  0
  141.2380  149.0600  132.1230 F   0  0  0  0  0  0  0  0  0  0  0  0
  140.4020  149.5540  134.1550 F   0  0  0  0  0  0  0  0  0  0  0  0
  140.9980  152.5350  133.0940 C   0  0  0  0  0  0  0  0  0  0  0  0
  141.8710  153.6260  133.1620 C   0  0  0  0  0  0  0  0  0  0  0  0
  138.2294  159.4574  133.1451 H   0  0  0  0  0  0  0  0  0  0  0  0
  139.3756  158.6382  132.0307 H   0  0  0  0  0  0  0  0  0  0  0  0
  137.6392  158.1782  132.0307 H   0  0  0  0  0  0  0  0  0  0  0  0
  137.9991  156.6565  133.6677 H   0  0  0  0  0  0  0  0  0  0  0  0
  142.1304  157.9940  137.0037 H   0  0  0  0  0  0  0  0  0  0  0  0
  142.3044  157.6854  139.2592 H   0  0  0  0  0  0  0  0  0  0  0  0
  140.4820  157.7572  139.1071 H   0  0  0  0  0  0  0  0  0  0  0  0
  142.2705  155.4383  139.7787 H   0  0  0  0  0  0  0  0  0  0  0  0
  140.6509  155.9244  140.4360 H   0  0  0  0  0  0  0  0  0  0  0  0
  140.4964  153.8375  139.1320 H   0  0  0  0  0  0  0  0  0  0  0  0
  139.5795  155.1948  138.3548 H   0  0  0  0  0  0  0  0  0  0  0  0
  142.0660  153.7658  137.4417 H   0  0  0  0  0  0  0  0  0  0  0  0
  140.6222  154.3875  136.5095 H   0  0  0  0  0  0  0  0  0  0  0  0
  143.1699  155.7827  137.2766 H   0  0  0  0  0  0  0  0  0  0  0  0
  142.1787  155.8519  135.7543 H   0  0  0  0  0  0  0  0  0  0  0  0
  141.5560  157.4260  135.0010 H   0  0  0  0  0  0  0  0  0  0  0  0
  142.2750  158.9010  134.2700 H   0  0  0  0  0  0  0  0  0  0  0  0
  144.8922  154.9126  133.2379 H   0  0  0  0  0  0  0  0  0  0  0  0
  144.9031  152.0676  132.9796 H   0  0  0  0  0  0  0  0  0  0  0  0
  143.3873  150.0672  132.8212 H   0  0  0  0  0  0  0  0  0  0  0  0
  139.6974  150.3525  132.4194 H   0  0  0  0  0  0  0  0  0  0  0  0
  139.9084  152.6813  133.1321 H   0  0  0  0  0  0  0  0  0  0  0  0
  1  2  1  0
  2  3  1  0
  3  4  1  0
  4  5  2  0
  4  6  1  0
  6  7  1  0
  7  8  1  0
  8  9  1  0
  9 10  1  0
 10 11  1  0
 11 12  1  0
  2 13  1  0
 13 14  1  0
 14 15  2  0
 14 16  1  0
 16 17  1  0
 17 18  1  0
 18 19  1  0
 18 20  2  0
 17 21  2  0
 21 22  1  0
 22 23  2  0
 23 24  1  0
 24 25  2  0
 25 26  1  0
 26 27  1  0
 26 28  1  0
 25 29  1  0
 29 30  2  0
 12  7  1  0
 30 16  1  0
 30 22  1  0
  1 31  1  0
  1 32  1  0
  1 33  1  0
  2 34  1  1
  7 35  1  0
  8 36  1  0
  8 37  1  0
  9 38  1  0
  9 39  1  0
 10 40  1  0
 10 41  1  0
 11 42  1  0
 11 43  1  0
 12 44  1  0
 12 45  1  0
 19 46  1  0
 19 47  1  0
 21 48  1  0
 23 49  1  0
 24 50  1  0
 26 51  1  0
 29 52  1  0
M  END
>  <UniqueID>  (54) 
54

>  <SMILES>  (54) 
C[C@H](OC(=O)OC1CCCCC1)OC(=O)n1c(C(N)=O)cc2ccc(C(F)F)cc21

>  <Energy>  (54) 
88.3579303749674

>  <Genealogy>  (54) 
C[C@H](OC(=O)OC1CCCCC1)OC(=O)n1c(C(N)=O)cc2ccc(C(F)F)cc21 (chirality)
C[C@H](OC(=O)OC1CCCCC1)OC(=O)n1c(C(N)=O)cc2ccc(C(F)F)cc21 (3D coordinates assigned)
C[C@H](OC(=O)OC1CCCCC1)OC(=O)n1c(C(N)=O)cc2ccc(C(F)F)cc21 (nonaromatic ring conformer: 88.3579303749674 kcal/mol)

>  <smiles>  (54) 
CC(OC(=O)OC1CCCCC1)OC(=O)n1c(C(N)=O)cc2ccc(C(F)F)cc21

>  <score_type>  (54) 
oracle

>  <origin>  (54) 
adg

>  <m_score__min__energy>  (54) 
-7.5099999999999998

>  <m_primary>  (54) 
energy

$$$$
54:0
     RDKit          3D

 40 41  0  0  0  0  0  0  0  0999 V2000
  137.6960  160.0740  131.0820 C   0  0  0  0  0  0  0  0  0  0  0  0
  138.6270  158.8720  131.1040 C   0  0  0  0  0  0  0  0  0  0  0  0
  139.5710  159.0230  132.1590 O   0  0  0  0  0  0  0  0  0  0  0  0
  139.5110  158.2780  133.3410 C   0  0  0  0  0  0  0  0  0  0  0  0
  138.8020  157.2360  133.4050 O   0  0  0  0  0  0  0  0  0  0  0  0
  140.2470  158.7480  134.5670 C   0  0  1  0  0  0  0  0  0  0  0  0
  140.1840  157.7060  135.6900 C   0  0  0  0  0  0  0  0  0  0  0  0
  141.6820  159.0940  134.2270 C   0  0  0  0  0  0  0  0  0  0  0  0
  142.0640  160.4520  134.0740 C   0  0  0  0  0  0  0  0  0  0  0  0
  143.3880  160.7960  133.7540 C   0  0  0  0  0  0  0  0  0  0  0  0
  144.3120  159.7670  133.6080 C   0  0  0  0  0  0  0  0  0  0  0  0
  145.6400  159.8150  133.2530 C   0  0  0  0  0  0  0  0  0  0  0  0
  146.0620  158.4890  133.2250 C   0  0  0  0  0  0  0  0  0  0  0  0
  147.4420  158.0770  132.8940 C   0  0  0  0  0  0  0  0  0  0  0  0
  147.7070  157.1310  131.8570 N   0  0  0  0  0  0  0  0  0  0  0  0
  148.4030  158.5360  133.5680 O   0  0  0  0  0  0  0  0  0  0  0  0
  145.0380  157.6520  133.5480 N   0  0  0  0  0  0  0  0  0  0  0  0
  145.0440  156.2150  133.4860 C   0  0  0  0  0  0  0  0  0  0  0  0
  145.2420  155.6430  132.3800 O   0  0  0  0  0  0  0  0  0  0  0  0
  144.8490  155.3760  134.7150 C   0  0  0  0  0  0  0  0  0  0  0  0
  144.5850  154.0700  134.3420 F   0  0  0  0  0  0  0  0  0  0  0  0
  145.9850  155.3900  135.5040 F   0  0  0  0  0  0  0  0  0  0  0  0
  143.7770  155.8600  135.4430 F   0  0  0  0  0  0  0  0  0  0  0  0
  143.9700  158.4490  133.7720 C   0  0  0  0  0  0  0  0  0  0  0  0
  142.6540  158.0780  134.0650 C   0  0  0  0  0  0  0  0  0  0  0  0
  137.4623  160.3757  132.1137 H   0  0  0  0  0  0  0  0  0  0  0  0
  138.1862  160.9079  130.5582 H   0  0  0  0  0  0  0  0  0  0  0  0
  136.7660  159.8080  130.5582 H   0  0  0  0  0  0  0  0  0  0  0  0
  138.0397  157.9561  131.2656 H   0  0  0  0  0  0  0  0  0  0  0  0
  139.1583  158.8017  130.1434 H   0  0  0  0  0  0  0  0  0  0  0  0
  139.7494  159.6584  134.9325 H   0  0  0  0  0  0  0  0  0  0  0  0
  140.2148  158.2150  136.6647 H   0  0  0  0  0  0  0  0  0  0  0  0
  139.2495  157.1319  135.6055 H   0  0  0  0  0  0  0  0  0  0  0  0
  141.0425  157.0235  135.6055 H   0  0  0  0  0  0  0  0  0  0  0  0
  141.3139  161.2454  134.2077 H   0  0  0  0  0  0  0  0  0  0  0  0
  143.6847  161.8471  133.6229 H   0  0  0  0  0  0  0  0  0  0  0  0
  146.2407  160.7108  133.0371 H   0  0  0  0  0  0  0  0  0  0  0  0
  146.9370  156.5870  131.4120 H   0  0  0  0  0  0  0  0  0  0  0  0
  148.6930  156.8970  131.6020 H   0  0  0  0  0  0  0  0  0  0  0  0
  142.3797  157.0177  134.1675 H   0  0  0  0  0  0  0  0  0  0  0  0
  1  2  1  0
  2  3  1  0
  3  4  1  0
  4  5  2  0
  4  6  1  0
  6  7  1  0
  6  8  1  0
  8  9  2  0
  9 10  1  0
 10 11  2  0
 11 12  1  0
 12 13  2  0
 13 14  1  0
 14 15  1  0
 14 16  2  0
 13 17  1  0
 17 18  1  0
 18 19  2  0
 18 20  1  0
 20 21  1  0
 20 22  1  0
 20 23  1  0
 17 24  1  0
 24 25  2  0
 25  8  1  0
 24 11  1  0
  1 26  1  0
  1 27  1  0
  1 28  1  0
  2 29  1  0
  2 30  1  0
  6 31  1  1
  7 32  1  0
  7 33  1  0
  7 34  1  0
  9 35  1  0
 10 36  1  0
 12 37  1  0
 15 38  1  0
 15 39  1  0
 25 40  1  0
M  END
>  <UniqueID>  (55) 
55

>  <SMILES>  (55) 
CCOC(=O)[C@@H](C)c1ccc2cc(C(N)=O)n(C(=O)C(F)(F)F)c2c1

>  <Energy>  (55) 
72.2336716601403

>  <Genealogy>  (55) 
CCOC(=O)[C@@H](C)c1ccc2cc(C(N)=O)n(C(=O)C(F)(F)F)c2c1 (3D coordinates assigned)
CCOC(=O)[C@@H](C)c1ccc2cc(C(N)=O)n(C(=O)C(F)(F)F)c2c1 (optimized conformer: 72.2336716601403 kcal/mol)

>  <smiles>  (55) 
CCOC(=O)[C@@H](C)c1ccc2cc(C(N)=O)n(C(=O)C(F)(F)F)c2c1

>  <score_type>  (55) 
oracle

>  <origin>  (55) 
adg

>  <m_score__min__energy>  (55) 
-6.5499999999999998

>  <m_primary>  (55) 
energy

$$$$
55:0
     RDKit          3D

 45 46  0  0  0  0  0  0  0  0999 V2000
  141.2920  157.1260  136.3030 C   0  0  0  0  0  0  0  0  0  0  0  0
  141.7630  156.7960  134.8660 C   0  0  0  0  0  0  0  0  0  0  0  0
  142.3280  155.3570  134.8770 C   0  0  0  0  0  0  0  0  0  0  0  0
  140.5370  156.9550  133.9560 C   0  0  0  0  0  0  0  0  0  0  0  0
  140.3590  156.1250  133.0740 O   0  0  0  0  0  0  0  0  0  0  0  0
  139.5480  158.0930  134.0550 C   0  0  0  0  0  0  0  0  0  0  0  0
  138.4030  157.8990  133.0510 C   0  0  0  0  0  0  0  0  0  0  0  0
  138.7830  158.3600  131.6390 C   0  0  0  0  0  0  0  0  0  0  0  0
  138.1820  159.6930  131.3080 C   0  0  0  0  0  0  0  0  0  0  0  0
  139.0020  160.8580  131.2820 N   0  0  0  0  0  0  0  0  0  0  0  0
  136.9480  159.7870  131.0770 O   0  0  0  0  0  0  0  0  0  0  0  0
  142.8790  157.7320  134.3700 C   0  0  0  0  0  0  0  0  0  0  0  0
  142.5510  159.0760  134.0300 C   0  0  0  0  0  0  0  0  0  0  0  0
  143.5180  159.9580  133.5240 C   0  0  0  0  0  0  0  0  0  0  0  0
  144.8120  159.4810  133.3570 C   0  0  0  0  0  0  0  0  0  0  0  0
  145.9240  160.1100  132.8470 C   0  0  0  0  0  0  0  0  0  0  0  0
  146.9340  159.1550  132.8860 C   0  0  0  0  0  0  0  0  0  0  0  0
  148.3280  159.4300  132.4820 C   0  0  0  0  0  0  0  0  0  0  0  0
  149.4070  158.6220  132.9530 N   0  0  0  0  0  0  0  0  0  0  0  0
  148.5750  160.4290  131.7560 O   0  0  0  0  0  0  0  0  0  0  0  0
  146.4660  157.9770  133.3860 N   0  0  0  0  0  0  0  0  0  0  0  0
  147.1720  156.7270  133.4700 C   0  0  0  0  0  0  0  0  0  0  0  0
  147.0930  155.8840  132.5370 O   0  0  0  0  0  0  0  0  0  0  0  0
  147.9510  156.4350  134.5830 O   0  0  0  0  0  0  0  0  0  0  0  0
  145.1610  158.1950  133.6720 C   0  0  0  0  0  0  0  0  0  0  0  0
  144.2130  157.2850  134.1560 C   0  0  0  0  0  0  0  0  0  0  0  0
  141.9690  156.6517  137.0287 H   0  0  0  0  0  0  0  0  0  0  0  0
  141.3015  158.2160  136.4507 H   0  0  0  0  0  0  0  0  0  0  0  0
  140.2708  156.7449  136.4507 H   0  0  0  0  0  0  0  0  0  0  0  0
  142.4593  155.0226  135.9167 H   0  0  0  0  0  0  0  0  0  0  0  0
  141.6273  154.6840  134.3611 H   0  0  0  0  0  0  0  0  0  0  0  0
  143.2994  155.3405  134.3611 H   0  0  0  0  0  0  0  0  0  0  0  0
  139.1345  158.1257  135.0738 H   0  0  0  0  0  0  0  0  0  0  0  0
  140.0663  159.0358  133.8258 H   0  0  0  0  0  0  0  0  0  0  0  0
  138.1404  156.8314  133.0159 H   0  0  0  0  0  0  0  0  0  0  0  0
  137.5531  158.5109  133.3875 H   0  0  0  0  0  0  0  0  0  0  0  0
  139.8783  158.4368  131.5722 H   0  0  0  0  0  0  0  0  0  0  0  0
  138.3940  157.6220  130.9221 H   0  0  0  0  0  0  0  0  0  0  0  0
  138.6960  161.7390  131.7520 H   0  0  0  0  0  0  0  0  0  0  0  0
  141.5184  159.4296  134.1669 H   0  0  0  0  0  0  0  0  0  0  0  0
  143.2592  160.9958  133.2673 H   0  0  0  0  0  0  0  0  0  0  0  0
  145.9983  161.1463  132.4858 H   0  0  0  0  0  0  0  0  0  0  0  0
  150.3820  158.8100  132.6280 H   0  0  0  0  0  0  0  0  0  0  0  0
  149.2560  157.8950  133.6870 H   0  0  0  0  0  0  0  0  0  0  0  0
  144.4946  156.2428  134.3671 H   0  0  0  0  0  0  0  0  0  0  0  0
  1  2  1  0
  2  3  1  0
  2  4  1  0
  4  5  2  0
  4  6  1  0
  6  7  1  0
  7  8  1  0
  8  9  1  0
  9 10  1  0
  9 11  2  0
  2 12  1  0
 12 13  2  0
 13 14  1  0
 14 15  2  0
 15 16  1  0
 16 17  2  0
 17 18  1  0
 18 19  1  0
 18 20  2  0
 17 21  1  0
 21 22  1  0
 22 23  2  0
 22 24  1  0
 21 25  1  0
 25 26  2  0
 26 12  1  0
 25 15  1  0
  1 27  1  0
  1 28  1  0
  1 29  1  0
  3 30  1  0
  3 31  1  0
  3 32  1  0
  6 33  1  0
  6 34  1  0
  7 35  1  0
  7 36  1  0
  8 37  1  0
  8 38  1  0
 10 39  1  0
 13 40  1  0
 14 41  1  0
 16 42  1  0
 19 43  1  0
 19 44  1  0
 26 45  1  0
M  CHG  2  10  -1  24  -1
M  END
>  <UniqueID>  (56) 
56

>  <SMILES>  (56) 
CC(C)(C(=O)CCCC([NH-])=O)c1ccc2cc(C(N)=O)n(C(=O)[O-])c2c1

>  <Energy>  (56) 
82.85365514740889

>  <Genealogy>  (56) 
CC(C)(C(=O)CCCC([NH-])=O)c1ccc2cc(C(N)=O)n(C(=O)[O-])c2c1 (protonated)
CC(C)(C(=O)CCCC([NH-])=O)c1ccc2cc(C(N)=O)n(C(=O)[O-])c2c1 (3D coordinates assigned)
CC(C)(C(=O)CCCC([NH-])=O)c1ccc2cc(C(N)=O)n(C(=O)[O-])c2c1 (optimized conformer: 82.85365514740889 kcal/mol)

>  <smiles>  (56) 
CC(C)(C(=O)CCCC(N)=O)c1ccc2cc(C(N)=O)n(C(=O)O)c2c1

>  <score_type>  (56) 
oracle

>  <origin>  (56) 
adg

>  <m_score__min__energy>  (56) 
-8.1099999999999994

>  <m_primary>  (56) 
energy

$$$$
56:0
     RDKit          3D

 53 56  0  0  0  0  0  0  0  0999 V2000
  139.1960  159.6750  130.6710 C   0  0  0  0  0  0  0  0  0  0  0  0
  140.0290  159.1140  131.7450 N   0  0  0  0  0  0  0  0  0  0  0  0
  140.0900  160.0120  132.9030 C   0  0  0  0  0  0  0  0  0  0  0  0
  140.2620  159.1300  134.1200 C   0  0  0  0  0  0  0  0  0  0  0  0
  139.5060  157.8680  133.7640 C   0  0  2  0  0  0  0  0  0  0  0  0
  140.1480  156.7270  134.3340 O   0  0  0  0  0  0  0  0  0  0  0  0
  140.5830  155.6330  133.5770 C   0  0  0  0  0  0  0  0  0  0  0  0
  139.7470  154.8930  132.9920 O   0  0  0  0  0  0  0  0  0  0  0  0
  141.9870  155.3390  133.4920 N   0  0  0  0  0  0  0  0  0  0  0  0
  143.0310  156.1870  133.7160 C   0  0  0  0  0  0  0  0  0  0  0  0
  142.9370  157.6470  133.9210 C   0  0  0  0  0  0  0  0  0  0  0  0
  142.9540  158.5440  132.8140 N   0  0  0  0  0  0  0  0  0  0  0  0
  142.8910  158.1100  135.0910 O   0  0  0  0  0  0  0  0  0  0  0  0
  144.2410  155.5000  133.6540 C   0  0  0  0  0  0  0  0  0  0  0  0
  143.9070  154.1950  133.3760 C   0  0  0  0  0  0  0  0  0  0  0  0
  144.7230  153.0760  133.2220 C   0  0  0  0  0  0  0  0  0  0  0  0
  144.1020  151.8390  132.9750 C   0  0  0  0  0  0  0  0  0  0  0  0
  142.6940  151.7480  132.8980 C   0  0  0  0  0  0  0  0  0  0  0  0
  142.0700  150.4730  132.6630 C   0  0  0  0  0  0  0  0  0  0  0  0
  141.5490  149.4040  132.4680 C   0  0  0  0  0  0  0  0  0  0  0  0
  140.9150  148.1040  132.2280 C   0  0  0  0  0  0  0  0  0  0  0  0
  139.9590  148.2110  131.1280 N   0  0  0  0  0  0  0  0  0  0  0  0
  139.8270  147.2410  130.0570 C   0  0  0  0  0  0  0  0  0  0  0  0
  138.7310  147.7890  129.1200 C   0  0  0  0  0  0  0  0  0  0  0  0
  138.3200  149.1740  129.6470 C   0  0  0  0  0  0  0  0  0  0  0  0
  139.1160  149.3190  130.8810 C   0  0  0  0  0  0  0  0  0  0  0  0
  139.0620  150.3270  131.6360 O   0  0  0  0  0  0  0  0  0  0  0  0
  141.8960  152.8990  133.0580 C   0  0  0  0  0  0  0  0  0  0  0  0
  142.5400  154.1220  133.2830 C   0  0  0  0  0  0  0  0  0  0  0  0
  139.5100  157.8250  132.2330 C   0  0  0  0  0  0  0  0  0  0  0  0
  138.3600  160.2380  131.1115 H   0  0  0  0  0  0  0  0  0  0  0  0
  139.8041  160.3483  130.0490 H   0  0  0  0  0  0  0  0  0  0  0  0
  138.8007  158.8584  130.0490 H   0  0  0  0  0  0  0  0  0  0  0  0
  140.9440  160.6986  132.8072 H   0  0  0  0  0  0  0  0  0  0  0  0
  139.1797  160.6247  132.9804 H   0  0  0  0  0  0  0  0  0  0  0  0
  141.3253  158.9122  134.2985 H   0  0  0  0  0  0  0  0  0  0  0  0
  139.8906  159.6015  135.0418 H   0  0  0  0  0  0  0  0  0  0  0  0
  138.4790  157.8608  134.1581 H   0  0  0  0  0  0  0  0  0  0  0  0
  142.1150  158.6620  132.2040 H   0  0  0  0  0  0  0  0  0  0  0  0
  145.2502  155.9136  133.7971 H   0  0  0  0  0  0  0  0  0  0  0  0
  145.8178  153.1578  133.2914 H   0  0  0  0  0  0  0  0  0  0  0  0
  144.7161  150.9363  132.8409 H   0  0  0  0  0  0  0  0  0  0  0  0
  141.6869  147.3642  131.9694 H   0  0  0  0  0  0  0  0  0  0  0  0
  140.3850  147.7867  133.1381 H   0  0  0  0  0  0  0  0  0  0  0  0
  140.7782  147.1392  129.5141 H   0  0  0  0  0  0  0  0  0  0  0  0
  139.5648  146.2456  130.4449 H   0  0  0  0  0  0  0  0  0  0  0  0
  139.1229  147.8782  128.0960 H   0  0  0  0  0  0  0  0  0  0  0  0
  137.8653  147.1106  129.0991 H   0  0  0  0  0  0  0  0  0  0  0  0
  138.5711  149.9618  128.9215 H   0  0  0  0  0  0  0  0  0  0  0  0
  137.2375  149.2641  129.8206 H   0  0  0  0  0  0  0  0  0  0  0  0
  140.7988  152.8382  133.0076 H   0  0  0  0  0  0  0  0  0  0  0  0
  140.1558  157.0058  131.8839 H   0  0  0  0  0  0  0  0  0  0  0  0
  138.4926  157.6528  131.8520 H   0  0  0  0  0  0  0  0  0  0  0  0
  1  2  1  0
  2  3  1  0
  3  4  1  0
  4  5  1  0
  5  6  1  0
  6  7  1  0
  7  8  2  0
  7  9  1  0
  9 10  1  0
 10 11  1  0
 11 12  1  0
 11 13  2  0
 10 14  2  0
 14 15  1  0
 15 16  2  0
 16 17  1  0
 17 18  2  0
 18 19  1  0
 19 20  3  0
 20 21  1  0
 21 22  1  0
 22 23  1  0
 23 24  1  0
 24 25  1  0
 25 26  1  0
 26 27  2  0
 18 28  1  0
 28 29  2  0
  5 30  1  0
 30  2  1  0
 29  9  1  0
 29 15  1  0
 26 22  1  0
  1 31  1  0
  1 32  1  0
  1 33  1  0
  3 34  1  0
  3 35  1  0
  4 36  1  0
  4 37  1  0
  5 38  1  1
 12 39  1  0
 14 40  1  0
 16 41  1  0
 17 42  1  0
 21 43  1  0
 21 44  1  0
 23 45  1  0
 23 46  1  0
 24 47  1  0
 24 48  1  0
 25 49  1  0
 25 50  1  0
 28 51  1  0
 30 52  1  0
 30 53  1  0
M  CHG  1  12  -1
M  END
>  <UniqueID>  (57) 
57

>  <SMILES>  (57) 
CN1CC[C@H](OC(=O)n2c(C([NH-])=O)cc3ccc(C#CCN4CCCC4=O)cc32)C1

>  <Energy>  (57) 
94.46793527037552

>  <Genealogy>  (57) 
CN1CC[C@H](OC(=O)n2c(C([NH-])=O)cc3ccc(C#CCN4CCCC4=O)cc32)C1 (protonated)
CN1CC[C@H](OC(=O)n2c(C([NH-])=O)cc3ccc(C#CCN4CCCC4=O)cc32)C1 (3D coordinates assigned)
CN1CC[C@H](OC(=O)n2c(C([NH-])=O)cc3ccc(C#CCN4CCCC4=O)cc32)C1 (nonaromatic ring conformer: 94.46793527037552 kcal/mol)

>  <smiles>  (57) 
CN1CC[C@H](OC(=O)n2c(C(N)=O)cc3ccc(C#CCN4CCCC4=O)cc32)C1

>  <score_type>  (57) 
oracle

>  <origin>  (57) 
adg

>  <m_score__min__energy>  (57) 
-9.6199999999999992

>  <m_primary>  (57) 
energy

$$$$
57:0
     RDKit          3D

 52 54  0  0  0  0  0  0  0  0999 V2000
  148.0580  150.8580  131.7350 C   0  0  0  0  0  0  0  0  0  0  0  0
  147.8280  151.8260  132.8230 N   0  0  0  0  0  0  0  0  0  0  0  0
  146.5380  152.5300  132.6070 C   0  0  0  0  0  0  0  0  0  0  0  0
  146.4690  153.8570  133.3710 C   0  0  0  0  0  0  0  0  0  0  0  0
  147.5740  154.7330  132.9620 N   0  0  0  0  0  0  0  0  0  0  0  0
  147.4560  156.1680  133.0870 C   0  0  0  0  0  0  0  0  0  0  0  0
  148.6070  156.9940  132.9910 C   0  0  0  0  0  0  0  0  0  0  0  0
  148.5030  158.3910  133.0970 C   0  0  0  0  0  0  0  0  0  0  0  0
  147.2410  158.9370  133.3100 C   0  0  0  0  0  0  0  0  0  0  0  0
  146.8550  160.2520  133.4240 C   0  0  0  0  0  0  0  0  0  0  0  0
  145.4750  160.2160  133.6140 C   0  0  0  0  0  0  0  0  0  0  0  0
  144.6550  161.4210  133.8640 C   0  0  0  0  0  0  0  0  0  0  0  0
  143.2370  161.3520  133.7350 N   0  0  0  0  0  0  0  0  0  0  0  0
  145.1960  162.5200  134.1550 O   0  0  0  0  0  0  0  0  0  0  0  0
  145.0260  158.9300  133.6120 N   0  0  0  0  0  0  0  0  0  0  0  0
  143.6670  158.4750  133.6980 C   0  0  0  0  0  0  0  0  0  0  0  0
  143.1500  157.8650  132.7240 O   0  0  0  0  0  0  0  0  0  0  0  0
  142.9250  158.7370  134.8600 O   0  0  0  0  0  0  0  0  0  0  0  0
  141.5030  158.6160  135.0080 C   0  0  0  0  0  0  0  0  0  0  0  0
  141.1240  159.3080  136.3250 C   0  0  0  0  0  0  0  0  0  0  0  0
  140.7760  159.3220  133.8470 C   0  0  0  0  0  0  0  0  0  0  0  0
  141.0880  157.1350  135.0880 C   0  0  0  0  0  0  0  0  0  0  0  0
  146.1210  158.1580  133.4250 C   0  0  0  0  0  0  0  0  0  0  0  0
  146.1910  156.7660  133.3040 C   0  0  0  0  0  0  0  0  0  0  0  0
  148.7810  154.1260  132.3860 C   0  0  0  0  0  0  0  0  0  0  0  0
  149.0030  152.7300  132.9850 C   0  0  0  0  0  0  0  0  0  0  0  0
  148.2921  149.8727  132.1643 H   0  0  0  0  0  0  0  0  0  0  0  0
  147.1529  150.7819  131.1145 H   0  0  0  0  0  0  0  0  0  0  0  0
  148.9006  151.1972  131.1145 H   0  0  0  0  0  0  0  0  0  0  0  0
  147.7360  151.2690  133.7060 H   0  0  0  0  0  0  0  0  0  0  0  0
  146.4207  152.7332  131.5323 H   0  0  0  0  0  0  0  0  0  0  0  0
  145.7321  151.8818  132.9815 H   0  0  0  0  0  0  0  0  0  0  0  0
  145.5117  154.3530  133.1529 H   0  0  0  0  0  0  0  0  0  0  0  0
  146.5493  153.6560  134.4495 H   0  0  0  0  0  0  0  0  0  0  0  0
  149.5933  156.5339  132.8315 H   0  0  0  0  0  0  0  0  0  0  0  0
  149.3920  159.0335  133.0142 H   0  0  0  0  0  0  0  0  0  0  0  0
  147.4986  161.1427  133.3755 H   0  0  0  0  0  0  0  0  0  0  0  0
  142.7590  160.4460  133.5360 H   0  0  0  0  0  0  0  0  0  0  0  0
  141.4608  158.6930  137.1725 H   0  0  0  0  0  0  0  0  0  0  0  0
  141.6075  160.2949  136.3730 H   0  0  0  0  0  0  0  0  0  0  0  0
  140.0321  159.4320  136.3730 H   0  0  0  0  0  0  0  0  0  0  0  0
  140.0425  160.0343  134.2528 H   0  0  0  0  0  0  0  0  0  0  0  0
  141.5090  159.8621  133.2298 H   0  0  0  0  0  0  0  0  0  0  0  0
  140.2576  158.5735  133.2298 H   0  0  0  0  0  0  0  0  0  0  0  0
  141.0037  156.8343  136.1427 H   0  0  0  0  0  0  0  0  0  0  0  0
  140.1171  156.9988  134.5892 H   0  0  0  0  0  0  0  0  0  0  0  0
  141.8468  156.5141  134.5892 H   0  0  0  0  0  0  0  0  0  0  0  0
  145.2829  156.1494  133.3759 H   0  0  0  0  0  0  0  0  0  0  0  0
  148.6609  154.0399  131.2960 H   0  0  0  0  0  0  0  0  0  0  0  0
  149.6496  154.7604  132.6164 H   0  0  0  0  0  0  0  0  0  0  0  0
  149.8691  152.2698  132.4869 H   0  0  0  0  0  0  0  0  0  0  0  0
  149.1677  152.8607  134.0647 H   0  0  0  0  0  0  0  0  0  0  0  0
  1  2  1  0
  2  3  1  0
  3  4  1  0
  4  5  1  0
  5  6  1  0
  6  7  2  0
  7  8  1  0
  8  9  2  0
  9 10  1  0
 10 11  2  0
 11 12  1  0
 12 13  1  0
 12 14  2  0
 11 15  1  0
 15 16  1  0
 16 17  2  0
 16 18  1  0
 18 19  1  0
 19 20  1  0
 19 21  1  0
 19 22  1  0
 15 23  1  0
 23 24  2  0
  5 25  1  0
 25 26  1  0
 26  2  1  0
 24  6  1  0
 23  9  1  0
  1 27  1  0
  1 28  1  0
  1 29  1  0
  2 30  1  0
  3 31  1  0
  3 32  1  0
  4 33  1  0
  4 34  1  0
  7 35  1  0
  8 36  1  0
 10 37  1  0
 13 38  1  0
 20 39  1  0
 20 40  1  0
 20 41  1  0
 21 42  1  0
 21 43  1  0
 21 44  1  0
 22 45  1  0
 22 46  1  0
 22 47  1  0
 24 48  1  0
 25 49  1  0
 25 50  1  0
 26 51  1  0
 26 52  1  0
M  CHG  2   2   1  13  -1
M  END
>  <UniqueID>  (58) 
58

>  <SMILES>  (58) 
C[NH+]1CCN(c2ccc3cc(C([NH-])=O)n(C(=O)OC(C)(C)C)c3c2)CC1

>  <Energy>  (58) 
96.2241671282681

>  <Genealogy>  (58) 
C[NH+]1CCN(c2ccc3cc(C([NH-])=O)n(C(=O)OC(C)(C)C)c3c2)CC1 (protonated)
C[NH+]1CCN(c2ccc3cc(C([NH-])=O)n(C(=O)OC(C)(C)C)c3c2)CC1 (3D coordinates assigned)
C[NH+]1CCN(c2ccc3cc(C([NH-])=O)n(C(=O)OC(C)(C)C)c3c2)CC1 (nonaromatic ring conformer: 96.2241671282681 kcal/mol)

>  <smiles>  (58) 
CN1CCN(c2ccc3cc(C(N)=O)n(C(=O)OC(C)(C)C)c3c2)CC1

>  <score_type>  (58) 
oracle

>  <origin>  (58) 
adg

>  <m_score__min__energy>  (58) 
-7.71

>  <m_primary>  (58) 
energy

$$$$
58:0
     RDKit          3D

 44 47  0  0  0  0  0  0  0  0999 V2000
  138.7730  148.9990  131.3540 C   0  0  0  0  0  0  0  0  0  0  0  0
  139.9310  149.6730  131.9270 N   0  0  0  0  0  0  0  0  0  0  0  0
  141.1160  149.1030  132.2150 C   0  0  0  0  0  0  0  0  0  0  0  0
  141.9980  150.0640  132.6660 C   0  0  0  0  0  0  0  0  0  0  0  0
  141.3170  151.2740  132.6330 C   0  0  0  0  0  0  0  0  0  0  0  0
  141.8530  152.6070  133.0140 C   0  0  0  0  0  0  0  0  0  0  0  0
  143.2200  152.7600  133.3710 C   0  0  0  0  0  0  0  0  0  0  0  0
  143.7310  154.0120  133.7490 C   0  0  0  0  0  0  0  0  0  0  0  0
  142.8640  155.0980  133.7470 C   0  0  0  0  0  0  0  0  0  0  0  0
  143.0870  156.4070  134.1020 C   0  0  0  0  0  0  0  0  0  0  0  0
  141.8620  157.0520  133.9430 C   0  0  0  0  0  0  0  0  0  0  0  0
  141.6710  158.4930  134.2300 C   0  0  0  0  0  0  0  0  0  0  0  0
  141.9260  159.4890  133.2470 N   0  0  0  0  0  0  0  0  0  0  0  0
  141.2530  158.8470  135.3650 O   0  0  0  0  0  0  0  0  0  0  0  0
  140.9200  156.1760  133.4840 N   0  0  0  0  0  0  0  0  0  0  0  0
  139.5420  156.4330  133.1540 C   0  0  0  0  0  0  0  0  0  0  0  0
  138.7620  155.4650  132.9560 O   0  0  0  0  0  0  0  0  0  0  0  0
  139.0610  157.8570  132.9240 C   0  0  0  0  0  0  0  0  0  0  0  0
  138.7050  158.2320  131.5320 N   0  0  0  0  0  0  0  0  0  0  0  0
  137.6400  159.2350  131.4290 C   0  0  0  0  0  0  0  0  0  0  0  0
  138.5550  160.2490  130.7650 C   0  0  0  0  0  0  0  0  0  0  0  0
  139.6230  159.1730  130.8780 C   0  0  0  0  0  0  0  0  0  0  0  0
  141.5490  154.9820  133.3850 C   0  0  0  0  0  0  0  0  0  0  0  0
  141.0050  153.7410  133.0320 C   0  0  0  0  0  0  0  0  0  0  0  0
  140.0440  150.9930  132.1620 C   0  0  0  0  0  0  0  0  0  0  0  0
  138.1292  148.6243  132.1634 H   0  0  0  0  0  0  0  0  0  0  0  0
  138.2060  149.7082  130.7331 H   0  0  0  0  0  0  0  0  0  0  0  0
  139.1096  148.1557  130.7331 H   0  0  0  0  0  0  0  0  0  0  0  0
  141.3466  148.0329  132.1072 H   0  0  0  0  0  0  0  0  0  0  0  0
  143.0373  149.9030  132.9886 H   0  0  0  0  0  0  0  0  0  0  0  0
  143.8870  151.8855  133.3509 H   0  0  0  0  0  0  0  0  0  0  0  0
  144.7858  154.1296  134.0380 H   0  0  0  0  0  0  0  0  0  0  0  0
  144.0341  156.8522  134.4407 H   0  0  0  0  0  0  0  0  0  0  0  0
  141.8900  159.2610  132.2280 H   0  0  0  0  0  0  0  0  0  0  0  0
  138.1679  158.0103  133.5476 H   0  0  0  0  0  0  0  0  0  0  0  0
  139.9206  158.4937  133.1803 H   0  0  0  0  0  0  0  0  0  0  0  0
  136.8011  158.9189  130.7915 H   0  0  0  0  0  0  0  0  0  0  0  0
  137.0956  159.5269  132.3392 H   0  0  0  0  0  0  0  0  0  0  0  0
  138.2777  160.5257  129.7371 H   0  0  0  0  0  0  0  0  0  0  0  0
  138.6932  161.2704  131.1493 H   0  0  0  0  0  0  0  0  0  0  0  0
  139.9933  158.8191  129.9046 H   0  0  0  0  0  0  0  0  0  0  0  0
  140.5750  159.4178  131.3716 H   0  0  0  0  0  0  0  0  0  0  0  0
  139.9397  153.6487  132.7737 H   0  0  0  0  0  0  0  0  0  0  0  0
  139.2479  151.7356  132.0044 H   0  0  0  0  0  0  0  0  0  0  0  0
  1  2  1  0
  2  3  1  0
  3  4  2  0
  4  5  1  0
  5  6  1  0
  6  7  2  0
  7  8  1  0
  8  9  2  0
  9 10  1  0
 10 11  2  0
 11 12  1  0
 12 13  1  0
 12 14  2  0
 11 15  1  0
 15 16  1  0
 16 17  2  0
 16 18  1  0
 18 19  1  0
 19 20  1  0
 20 21  1  0
 21 22  1  0
 15 23  1  0
 23 24  2  0
  5 25  2  0
 25  2  1  0
 24  6  1  0
 23  9  1  0
 22 19  1  0
  1 26  1  0
  1 27  1  0
  1 28  1  0
  3 29  1  0
  4 30  1  0
  7 31  1  0
  8 32  1  0
 10 33  1  0
 13 34  1  0
 18 35  1  0
 18 36  1  0
 20 37  1  0
 20 38  1  0
 21 39  1  0
 21 40  1  0
 22 41  1  0
 22 42  1  0
 24 43  1  0
 25 44  1  0
M  CHG  1  13  -1
M  END
>  <UniqueID>  (59) 
59

>  <SMILES>  (59) 
Cn1ccc(-c2ccc3cc(C([NH-])=O)n(C(=O)CN4CCC4)c3c2)c1

>  <Energy>  (59) 
189.83749202669108

>  <Genealogy>  (59) 
Cn1ccc(-c2ccc3cc(C([NH-])=O)n(C(=O)CN4CCC4)c3c2)c1 (protonated)
Cn1ccc(-c2ccc3cc(C([NH-])=O)n(C(=O)CN4CCC4)c3c2)c1 (3D coordinates assigned)
Cn1ccc(-c2ccc3cc(C([NH-])=O)n(C(=O)CN4CCC4)c3c2)c1 (nonaromatic ring conformer: 189.83749202669108 kcal/mol)

>  <smiles>  (59) 
Cn1ccc(-c2ccc3cc(C(N)=O)n(C(=O)CN4CCC4)c3c2)c1

>  <score_type>  (59) 
oracle

>  <origin>  (59) 
adg

>  <m_score__min__energy>  (59) 
-8.3300000000000001

>  <m_primary>  (59) 
energy

$$$$
59:0
     RDKit          3D

 46 48  0  0  0  0  0  0  0  0999 V2000
  149.5670  152.9640  132.5660 C   0  0  0  0  0  0  0  0  0  0  0  0
  148.9870  154.1650  132.5110 C   0  0  0  0  0  0  0  0  0  0  0  0
  147.6250  154.4030  133.0900 C   0  0  0  0  0  0  0  0  0  0  0  0
  147.4590  155.7900  133.3630 O   0  0  0  0  0  0  0  0  0  0  0  0
  146.2900  156.4880  133.0410 C   0  0  0  0  0  0  0  0  0  0  0  0
  145.2950  155.8760  132.5670 O   0  0  0  0  0  0  0  0  0  0  0  0
  146.2330  157.9100  133.2370 N   0  0  0  0  0  0  0  0  0  0  0  0
  147.2290  158.8160  133.0160 C   0  0  0  0  0  0  0  0  0  0  0  0
  148.6320  158.4840  132.6870 C   0  0  0  0  0  0  0  0  0  0  0  0
  148.9410  157.3610  131.8590 N   0  0  0  0  0  0  0  0  0  0  0  0
  149.5690  159.2110  133.1080 O   0  0  0  0  0  0  0  0  0  0  0  0
  146.7690  160.1130  133.2430 C   0  0  0  0  0  0  0  0  0  0  0  0
  145.4520  159.9720  133.6140 C   0  0  0  0  0  0  0  0  0  0  0  0
  144.5100  160.9410  133.9500 C   0  0  0  0  0  0  0  0  0  0  0  0
  143.2120  160.5130  134.2710 C   0  0  0  0  0  0  0  0  0  0  0  0
  142.8780  159.1360  134.2410 C   0  0  0  0  0  0  0  0  0  0  0  0
  141.4900  158.6810  134.6020 C   0  0  0  0  0  0  0  0  0  0  0  0
  140.5280  159.1520  133.6050 N   0  0  0  0  0  0  0  0  0  0  0  0
  140.5640  160.3410  132.9670 C   0  0  0  0  0  0  0  0  0  0  0  0
  139.6030  160.4590  132.0250 N   0  0  0  0  0  0  0  0  0  0  0  0
  138.9420  159.2830  132.0780 C   0  0  0  0  0  0  0  0  0  0  0  0
  137.8000  158.9340  131.1800 C   0  0  0  0  0  0  0  0  0  0  0  0
  139.5010  158.4780  133.0520 C   0  0  0  0  0  0  0  0  0  0  0  0
  139.1340  157.0540  133.3530 C   0  0  0  0  0  0  0  0  0  0  0  0
  143.8600  158.1820  133.8970 C   0  0  0  0  0  0  0  0  0  0  0  0
  145.1510  158.6340  133.6010 C   0  0  0  0  0  0  0  0  0  0  0  0
  150.5675  152.8161  132.1333 H   0  0  0  0  0  0  0  0  0  0  0  0
  149.0445  152.1223  133.0440 H   0  0  0  0  0  0  0  0  0  0  0  0
  149.5202  154.9984  132.0302 H   0  0  0  0  0  0  0  0  0  0  0  0
  146.8592  154.0771  132.3708 H   0  0  0  0  0  0  0  0  0  0  0  0
  147.5195  153.8313  134.0238 H   0  0  0  0  0  0  0  0  0  0  0  0
  148.1950  156.7070  131.5330 H   0  0  0  0  0  0  0  0  0  0  0  0
  149.9310  157.1560  131.6020 H   0  0  0  0  0  0  0  0  0  0  0  0
  147.3382  161.0493  133.1460 H   0  0  0  0  0  0  0  0  0  0  0  0
  144.7747  162.0086  133.9635 H   0  0  0  0  0  0  0  0  0  0  0  0
  142.4471  161.2533  134.5484 H   0  0  0  0  0  0  0  0  0  0  0  0
  141.4661  157.5819  134.6390 H   0  0  0  0  0  0  0  0  0  0  0  0
  141.2206  159.0960  135.5845 H   0  0  0  0  0  0  0  0  0  0  0  0
  141.2976  161.1297  133.1903 H   0  0  0  0  0  0  0  0  0  0  0  0
  136.9236  158.6662  131.7885 H   0  0  0  0  0  0  0  0  0  0  0  0
  137.5553  159.7984  130.5452 H   0  0  0  0  0  0  0  0  0  0  0  0
  138.0803  158.0805  130.5452 H   0  0  0  0  0  0  0  0  0  0  0  0
  139.0963  156.9075  134.4425 H   0  0  0  0  0  0  0  0  0  0  0  0
  138.1487  156.8296  132.9185 H   0  0  0  0  0  0  0  0  0  0  0  0
  139.8881  156.3813  132.9185 H   0  0  0  0  0  0  0  0  0  0  0  0
  143.6165  157.1099  133.8625 H   0  0  0  0  0  0  0  0  0  0  0  0
  1  2  2  0
  2  3  1  0
  3  4  1  0
  4  5  1  0
  5  6  2  0
  5  7  1  0
  7  8  1  0
  8  9  1  0
  9 10  1  0
  9 11  2  0
  8 12  2  0
 12 13  1  0
 13 14  2  0
 14 15  1  0
 15 16  2  0
 16 17  1  0
 17 18  1  0
 18 19  1  0
 19 20  2  0
 20 21  1  0
 21 22  1  0
 21 23  2  0
 23 24  1  0
 16 25  1  0
 25 26  2  0
 26  7  1  0
 26 13  1  0
 23 18  1  0
  1 27  1  0
  1 28  1  0
  2 29  1  0
  3 30  1  0
  3 31  1  0
 10 32  1  0
 10 33  1  0
 12 34  1  0
 14 35  1  0
 15 36  1  0
 17 37  1  0
 17 38  1  0
 19 39  1  0
 22 40  1  0
 22 41  1  0
 22 42  1  0
 24 43  1  0
 24 44  1  0
 24 45  1  0
 25 46  1  0
M  END
>  <UniqueID>  (60) 
60

>  <SMILES>  (60) 
C=CCOC(=O)n1c(C(N)=O)cc2ccc(Cn3cnc(C)c3C)cc21

>  <Energy>  (60) 
106.81216129846224

>  <Genealogy>  (60) 
C=CCOC(=O)n1c(C(N)=O)cc2ccc(Cn3cnc(C)c3C)cc21 (3D coordinates assigned)
C=CCOC(=O)n1c(C(N)=O)cc2ccc(Cn3cnc(C)c3C)cc21 (optimized conformer: 106.81216129846224 kcal/mol)

>  <smiles>  (60) 
C=CCOC(=O)n1c(C(N)=O)cc2ccc(Cn3cnc(C)c3C)cc21

>  <score_type>  (60) 
oracle

>  <origin>  (60) 
adg

>  <m_score__min__energy>  (60) 
-8.1699999999999999

>  <m_primary>  (60) 
energy

$$$$
60:0
     RDKit          3D

 46 48  0  0  0  0  0  0  0  0999 V2000
  141.3860  158.4870  137.4760 C   0  0  0  0  0  0  0  0  0  0  0  0
  140.6730  158.0000  136.2580 C   0  0  0  0  0  0  0  0  0  0  0  0
  139.6570  158.6080  135.6930 O   0  0  0  0  0  0  0  0  0  0  0  0
  139.2960  157.8400  134.6910 C   0  0  0  0  0  0  0  0  0  0  0  0
  138.3370  158.1060  133.9190 O   0  0  0  0  0  0  0  0  0  0  0  0
  140.0370  156.7590  134.5860 O   0  0  0  0  0  0  0  0  0  0  0  0
  140.9150  156.8330  135.5570 C   0  0  0  0  0  0  0  0  0  0  0  0
  141.9210  155.7730  135.8750 C   0  0  0  0  0  0  0  0  0  0  0  0
  141.6650  154.6300  135.0680 O   0  0  0  0  0  0  0  0  0  0  0  0
  141.7310  154.6650  133.6710 C   0  0  0  0  0  0  0  0  0  0  0  0
  140.6790  154.7480  132.9820 O   0  0  0  0  0  0  0  0  0  0  0  0
  143.0570  154.5560  132.9930 C   0  0  0  0  0  0  0  0  0  0  0  0
  143.7890  155.8660  133.1030 C   0  0  0  0  0  0  0  0  0  0  0  0
  145.2020  155.8830  133.2040 C   0  0  0  0  0  0  0  0  0  0  0  0
  145.8930  157.0930  133.3860 C   0  0  0  0  0  0  0  0  0  0  0  0
  145.1460  158.2640  133.4660 C   0  0  0  0  0  0  0  0  0  0  0  0
  145.5540  159.5590  133.6870 C   0  0  0  0  0  0  0  0  0  0  0  0
  144.3860  160.3190  133.7000 C   0  0  0  0  0  0  0  0  0  0  0  0
  144.3740  161.7900  133.8340 C   0  0  0  0  0  0  0  0  0  0  0  0
  143.2750  162.5630  133.3570 N   0  0  0  0  0  0  0  0  0  0  0  0
  145.3700  162.3780  134.3370 O   0  0  0  0  0  0  0  0  0  0  0  0
  143.2960  159.5230  133.5050 N   0  0  0  0  0  0  0  0  0  0  0  0
  141.9130  159.9030  133.5260 C   0  0  0  0  0  0  0  0  0  0  0  0
  141.4510  160.5470  134.5060 O   0  0  0  0  0  0  0  0  0  0  0  0
  141.0770  159.5350  132.4660 O   0  0  0  0  0  0  0  0  0  0  0  0
  139.8120  160.1450  132.2390 C   0  0  0  0  0  0  0  0  0  0  0  0
  139.0720  159.3960  131.1420 C   0  0  0  0  0  0  0  0  0  0  0  0
  137.8470  159.9960  130.9080 F   0  0  0  0  0  0  0  0  0  0  0  0
  143.7790  158.2680  133.3590 C   0  0  0  0  0  0  0  0  0  0  0  0
  143.0640  157.0760  133.1890 C   0  0  0  0  0  0  0  0  0  0  0  0
  140.8625  158.1294  138.3749 H   0  0  0  0  0  0  0  0  0  0  0  0
  142.4170  158.1035  137.4752 H   0  0  0  0  0  0  0  0  0  0  0  0
  141.4039  159.5869  137.4752 H   0  0  0  0  0  0  0  0  0  0  0  0
  142.9327  156.1514  135.6671 H   0  0  0  0  0  0  0  0  0  0  0  0
  141.8474  155.4997  136.9380 H   0  0  0  0  0  0  0  0  0  0  0  0
  143.6499  153.7638  133.4735 H   0  0  0  0  0  0  0  0  0  0  0  0
  142.9056  154.3100  131.9316 H   0  0  0  0  0  0  0  0  0  0  0  0
  145.7639  154.9395  133.1393 H   0  0  0  0  0  0  0  0  0  0  0  0
  146.9901  157.1137  133.4628 H   0  0  0  0  0  0  0  0  0  0  0  0
  146.5844  159.9186  133.8244 H   0  0  0  0  0  0  0  0  0  0  0  0
  142.3000  162.1980  133.3970 H   0  0  0  0  0  0  0  0  0  0  0  0
  139.2200  160.1152  133.1656 H   0  0  0  0  0  0  0  0  0  0  0  0
  139.9614  161.1901  131.9299 H   0  0  0  0  0  0  0  0  0  0  0  0
  139.6703  159.4155  130.2191 H   0  0  0  0  0  0  0  0  0  0  0  0
  138.9116  158.3547  131.4582 H   0  0  0  0  0  0  0  0  0  0  0  0
  141.9659  157.0814  133.1240 H   0  0  0  0  0  0  0  0  0  0  0  0
  1  2  1  0
  2  3  1  0
  3  4  1  0
  4  5  2  0
  4  6  1  0
  6  7  1  0
  7  8  1  0
  8  9  1  0
  9 10  1  0
 10 11  2  0
 10 12  1  0
 12 13  1  0
 13 14  2  0
 14 15  1  0
 15 16  2  0
 16 17  1  0
 17 18  2  0
 18 19  1  0
 19 20  1  0
 19 21  2  0
 18 22  1  0
 22 23  1  0
 23 24  2  0
 23 25  1  0
 25 26  1  0
 26 27  1  0
 27 28  1  0
 22 29  1  0
 29 30  2  0
  7  2  2  0
 30 13  1  0
 29 16  1  0
  1 31  1  0
  1 32  1  0
  1 33  1  0
  8 34  1  0
  8 35  1  0
 12 36  1  0
 12 37  1  0
 14 38  1  0
 15 39  1  0
 17 40  1  0
 20 41  1  0
 26 42  1  0
 26 43  1  0
 27 44  1  0
 27 45  1  0
 30 46  1  0
M  CHG  1  20  -1
M  END
>  <UniqueID>  (61) 
61

>  <SMILES>  (61) 
Cc1oc(=O)oc1COC(=O)Cc1ccc2cc(C([NH-])=O)n(C(=O)OCCF)c2c1

>  <Energy>  (61) 
107.2928153472191

>  <Genealogy>  (61) 
Cc1oc(=O)oc1COC(=O)Cc1ccc2cc(C([NH-])=O)n(C(=O)OCCF)c2c1 (protonated)
Cc1oc(=O)oc1COC(=O)Cc1ccc2cc(C([NH-])=O)n(C(=O)OCCF)c2c1 (3D coordinates assigned)
Cc1oc(=O)oc1COC(=O)Cc1ccc2cc(C([NH-])=O)n(C(=O)OCCF)c2c1 (optimized conformer: 107.2928153472191 kcal/mol)

>  <smiles>  (61) 
Cc1oc(=O)oc1COC(=O)Cc1ccc2cc(C(N)=O)n(C(=O)OCCF)c2c1

>  <score_type>  (61) 
oracle

>  <origin>  (61) 
adg

>  <m_score__min__energy>  (61) 
-7.0599999999999996

>  <m_primary>  (61) 
energy

$$$$
61:0
     RDKit          3D

 46 47  0  0  0  0  0  0  0  0999 V2000
  148.4040  149.6740  132.8910 C   0  0  0  0  0  0  0  0  0  0  0  0
  149.2510  150.8260  133.3470 C   0  0  0  0  0  0  0  0  0  0  0  0
  149.4630  150.9800  134.5400 O   0  0  0  0  0  0  0  0  0  0  0  0
  149.8590  151.7930  132.3680 C   0  0  0  0  0  0  0  0  0  0  0  0
  148.9410  152.8340  132.0470 O   0  0  0  0  0  0  0  0  0  0  0  0
  149.0390  154.1210  132.5830 C   0  0  0  0  0  0  0  0  0  0  0  0
  149.9840  154.8850  132.2430 O   0  0  0  0  0  0  0  0  0  0  0  0
  148.0130  154.5810  133.5860 C   0  0  1  0  0  0  0  0  0  0  0  0
  146.8580  155.2910  132.8610 C   0  0  0  0  0  0  0  0  0  0  0  0
  146.9150  156.7800  133.0810 C   0  0  0  0  0  0  0  0  0  0  0  0
  148.1410  157.4760  132.9400 C   0  0  0  0  0  0  0  0  0  0  0  0
  148.1980  158.8680  133.1140 C   0  0  0  0  0  0  0  0  0  0  0  0
  147.0140  159.5380  133.4110 C   0  0  0  0  0  0  0  0  0  0  0  0
  146.7890  160.8740  133.6480 C   0  0  0  0  0  0  0  0  0  0  0  0
  145.4220  160.9800  133.8950 C   0  0  0  0  0  0  0  0  0  0  0  0
  144.7360  162.2710  134.1140 C   0  0  0  0  0  0  0  0  0  0  0  0
  143.5450  162.5990  133.4030 N   0  0  0  0  0  0  0  0  0  0  0  0
  145.2360  163.1170  134.9030 O   0  0  0  0  0  0  0  0  0  0  0  0
  144.8250  159.7560  133.8220 N   0  0  0  0  0  0  0  0  0  0  0  0
  143.4540  159.4260  134.0910 C   0  0  0  0  0  0  0  0  0  0  0  0
  142.5310  159.9090  133.3850 O   0  0  0  0  0  0  0  0  0  0  0  0
  143.1300  158.5890  135.1520 O   0  0  0  0  0  0  0  0  0  0  0  0
  145.8140  158.8840  133.5230 C   0  0  0  0  0  0  0  0  0  0  0  0
  145.7320  157.4950  133.3750 C   0  0  0  0  0  0  0  0  0  0  0  0
  147.4830  153.4570  134.3790 N   0  0  0  0  0  0  0  0  0  0  0  0
  147.6230  153.7440  136.0900 S   0  0  0  0  0  0  0  0  0  0  0  0
  148.8440  152.6800  136.8310 C   0  0  0  0  0  0  0  0  0  0  0  0
  147.9970  155.1800  136.3360 O   0  0  0  0  0  0  0  0  0  0  0  0
  146.2940  153.4710  136.7350 O   0  0  0  0  0  0  0  0  0  0  0  0
  148.0104  149.1387  133.7677 H   0  0  0  0  0  0  0  0  0  0  0  0
  147.5668  150.0515  132.2856 H   0  0  0  0  0  0  0  0  0  0  0  0
  149.0140  148.9875  132.2856 H   0  0  0  0  0  0  0  0  0  0  0  0
  150.7635  152.2343  132.8119 H   0  0  0  0  0  0  0  0  0  0  0  0
  150.1107  151.2488  131.4458 H   0  0  0  0  0  0  0  0  0  0  0  0
  148.5083  155.2793  134.2766 H   0  0  0  0  0  0  0  0  0  0  0  0
  146.9289  155.0839  131.7830 H   0  0  0  0  0  0  0  0  0  0  0  0
  145.9069  154.9138  133.2648 H   0  0  0  0  0  0  0  0  0  0  0  0
  149.0573  156.9203  132.6918 H   0  0  0  0  0  0  0  0  0  0  0  0
  149.1489  159.4127  133.0186 H   0  0  0  0  0  0  0  0  0  0  0  0
  147.5308  161.6862  133.6435 H   0  0  0  0  0  0  0  0  0  0  0  0
  142.6640  162.0590  133.5530 H   0  0  0  0  0  0  0  0  0  0  0  0
  144.7703  156.9724  133.4848 H   0  0  0  0  0  0  0  0  0  0  0  0
  147.9810  152.5660  134.1520 H   0  0  0  0  0  0  0  0  0  0  0  0
  148.7701  152.7444  137.9266 H   0  0  0  0  0  0  0  0  0  0  0  0
  148.6680  151.6421  136.5120 H   0  0  0  0  0  0  0  0  0  0  0  0
  149.8481  152.9963  136.5120 H   0  0  0  0  0  0  0  0  0  0  0  0
  1  2  1  0
  2  3  2  0
  2  4  1  0
  4  5  1  0
  5  6  1  0
  6  7  2  0
  6  8  1  0
  8  9  1  0
  9 10  1  0
 10 11  2  0
 11 12  1  0
 12 13  2  0
 13 14  1  0
 14 15  2  0
 15 16  1  0
 16 17  1  0
 16 18  2  0
 15 19  1  0
 19 20  1  0
 20 21  2  0
 20 22  1  0
 19 23  1  0
 23 24  2  0
  8 25  1  0
 25 26  1  0
 26 27  1  0
 26 28  2  0
 26 29  2  0
 24 10  1  0
 23 13  1  0
  1 30  1  0
  1 31  1  0
  1 32  1  0
  4 33  1  0
  4 34  1  0
  8 35  1  1
  9 36  1  0
  9 37  1  0
 11 38  1  0
 12 39  1  0
 14 40  1  0
 17 41  1  0
 24 42  1  0
 25 43  1  0
 27 44  1  0
 27 45  1  0
 27 46  1  0
M  CHG  2  17  -1  22  -1
M  END
>  <UniqueID>  (62) 
62

>  <SMILES>  (62) 
CC(=O)COC(=O)[C@@H](Cc1ccc2cc(C([NH-])=O)n(C(=O)[O-])c2c1)NS(C)(=O)=O

>  <Energy>  (62) 
73.31737410944673

>  <Genealogy>  (62) 
CC(=O)COC(=O)C(Cc1ccc2cc(C([NH-])=O)n(C(=O)[O-])c2c1)NS(C)(=O)=O (protonated)
CC(=O)COC(=O)[C@@H](Cc1ccc2cc(C([NH-])=O)n(C(=O)[O-])c2c1)NS(C)(=O)=O (chirality)
CC(=O)COC(=O)[C@@H](Cc1ccc2cc(C([NH-])=O)n(C(=O)[O-])c2c1)NS(C)(=O)=O (3D coordinates assigned)
CC(=O)COC(=O)[C@@H](Cc1ccc2cc(C([NH-])=O)n(C(=O)[O-])c2c1)NS(C)(=O)=O (optimized conformer: 73.31737410944673 kcal/mol)

>  <smiles>  (62) 
CC(=O)COC(=O)C(Cc1ccc2cc(C(N)=O)n(C(=O)O)c2c1)NS(C)(=O)=O

>  <score_type>  (62) 
oracle

>  <origin>  (62) 
adg

>  <m_score__min__energy>  (62) 
-8.4299999999999997

>  <m_primary>  (62) 
energy

$$$$
62:0
     RDKit          3D

 32 33  0  0  0  0  0  0  0  0999 V2000
  148.5310  160.5430  130.5330 C   0  0  0  0  0  0  0  0  0  0  0  0
  149.6220  159.6750  131.1490 C   0  0  0  0  0  0  0  0  0  0  0  0
  149.0490  158.5930  131.8810 O   0  0  0  0  0  0  0  0  0  0  0  0
  148.1350  158.7660  132.9260 C   0  0  0  0  0  0  0  0  0  0  0  0
  148.1990  159.7880  133.6650 O   0  0  0  0  0  0  0  0  0  0  0  0
  147.1160  157.7810  133.1560 N   0  0  0  0  0  0  0  0  0  0  0  0
  145.7810  157.9930  133.3310 C   0  0  0  0  0  0  0  0  0  0  0  0
  145.1280  159.3090  133.4810 C   0  0  0  0  0  0  0  0  0  0  0  0
  145.6640  160.4770  132.8570 N   0  0  0  0  0  0  0  0  0  0  0  0
  144.1110  159.4150  134.2170 O   0  0  0  0  0  0  0  0  0  0  0  0
  145.0960  156.7850  133.4070 C   0  0  0  0  0  0  0  0  0  0  0  0
  146.0610  155.8110  133.2870 C   0  0  0  0  0  0  0  0  0  0  0  0
  145.9380  154.4250  133.2870 C   0  0  0  0  0  0  0  0  0  0  0  0
  147.1030  153.6610  133.1110 C   0  0  0  0  0  0  0  0  0  0  0  0
  148.3580  154.2910  132.9180 C   0  0  0  0  0  0  0  0  0  0  0  0
  149.5970  153.4630  132.7510 C   0  0  0  0  0  0  0  0  0  0  0  0
  149.2150  151.9870  131.8310 Cl  0  0  0  0  0  0  0  0  0  0  0  0
  148.4460  155.7000  132.9340 C   0  0  0  0  0  0  0  0  0  0  0  0
  147.2730  156.4380  133.1330 C   0  0  0  0  0  0  0  0  0  0  0  0
  147.9406  161.0128  131.3334 H   0  0  0  0  0  0  0  0  0  0  0  0
  148.9917  161.3242  129.9105 H   0  0  0  0  0  0  0  0  0  0  0  0
  147.8734  159.9185  129.9105 H   0  0  0  0  0  0  0  0  0  0  0  0
  150.2591  159.2723  130.3478 H   0  0  0  0  0  0  0  0  0  0  0  0
  150.2197  160.2914  131.8367 H   0  0  0  0  0  0  0  0  0  0  0  0
  146.5970  160.4590  132.3880 H   0  0  0  0  0  0  0  0  0  0  0  0
  145.1650  161.3910  132.9400 H   0  0  0  0  0  0  0  0  0  0  0  0
  144.0133  156.6391  133.5356 H   0  0  0  0  0  0  0  0  0  0  0  0
  144.9585  153.9427  133.4207 H   0  0  0  0  0  0  0  0  0  0  0  0
  147.0410  152.5628  133.1230 H   0  0  0  0  0  0  0  0  0  0  0  0
  150.3556  154.0459  132.2081 H   0  0  0  0  0  0  0  0  0  0  0  0
  149.9842  153.1838  133.7421 H   0  0  0  0  0  0  0  0  0  0  0  0
  149.4127  156.2057  132.7935 H   0  0  0  0  0  0  0  0  0  0  0  0
  1  2  1  0
  2  3  1  0
  3  4  1  0
  4  5  2  0
  4  6  1  0
  6  7  1  0
  7  8  1  0
  8  9  1  0
  8 10  2  0
  7 11  2  0
 11 12  1  0
 12 13  2  0
 13 14  1  0
 14 15  2  0
 15 16  1  0
 16 17  1  0
 15 18  1  0
 18 19  2  0
 19  6  1  0
 19 12  1  0
  1 20  1  0
  1 21  1  0
  1 22  1  0
  2 23  1  0
  2 24  1  0
  9 25  1  0
  9 26  1  0
 11 27  1  0
 13 28  1  0
 14 29  1  0
 16 30  1  0
 16 31  1  0
 18 32  1  0
M  END
>  <UniqueID>  (63) 
63

>  <SMILES>  (63) 
CCOC(=O)n1c(C(N)=O)cc2ccc(CCl)cc21

>  <Energy>  (63) 
66.45141409987211

>  <Genealogy>  (63) 
CCOC(=O)n1c(C(N)=O)cc2ccc(CCl)cc21 (3D coordinates assigned)
CCOC(=O)n1c(C(N)=O)cc2ccc(CCl)cc21 (optimized conformer: 66.45141409987211 kcal/mol)

>  <smiles>  (63) 
CCOC(=O)n1c(C(N)=O)cc2ccc(CCl)cc21

>  <score_type>  (63) 
oracle

>  <origin>  (63) 
adg

>  <m_score__min__energy>  (63) 
-6.7699999999999996

>  <m_primary>  (63) 
energy

$$$$
63:0
     RDKit          3D

 42 44  0  0  0  0  0  0  0  0999 V2000
  139.5130  149.6340  131.4350 C   0  0  0  0  0  0  0  0  0  0  0  0
  140.8550  149.4020  132.1200 C   0  0  0  0  0  0  0  0  0  0  0  0
  141.0780  150.3800  133.1360 O   0  0  0  0  0  0  0  0  0  0  0  0
  142.1360  151.2960  133.1090 C   0  0  0  0  0  0  0  0  0  0  0  0
  141.9250  152.5980  133.5660 C   0  0  0  0  0  0  0  0  0  0  0  0
  142.9760  153.5160  133.5410 C   0  0  0  0  0  0  0  0  0  0  0  0
  144.2380  153.1310  133.0580 C   0  0  0  0  0  0  0  0  0  0  0  0
  145.3680  154.0950  133.0280 C   0  0  0  0  0  0  0  0  0  0  0  0
  146.7070  153.6280  132.9740 C   0  0  0  0  0  0  0  0  0  0  0  0
  147.7840  154.5290  132.9590 C   0  0  0  0  0  0  0  0  0  0  0  0
  147.4970  155.8890  132.9860 C   0  0  0  0  0  0  0  0  0  0  0  0
  148.3470  156.9710  133.0130 C   0  0  0  0  0  0  0  0  0  0  0  0
  147.5190  158.0880  133.0490 C   0  0  0  0  0  0  0  0  0  0  0  0
  148.0250  159.4750  133.0270 C   0  0  0  0  0  0  0  0  0  0  0  0
  147.1840  160.5630  132.6380 N   0  0  0  0  0  0  0  0  0  0  0  0
  149.2330  159.6970  133.3040 O   0  0  0  0  0  0  0  0  0  0  0  0
  146.2080  157.7150  133.0580 N   0  0  0  0  0  0  0  0  0  0  0  0
  145.0580  158.5660  133.2060 C   0  0  0  0  0  0  0  0  0  0  0  0
  143.9780  158.2690  132.6250 O   0  0  0  0  0  0  0  0  0  0  0  0
  145.1410  159.7210  133.9890 O   0  0  0  0  0  0  0  0  0  0  0  0
  144.0920  160.6790  134.0560 C   0  0  0  0  0  0  0  0  0  0  0  0
  146.2110  156.3630  133.0170 C   0  0  0  0  0  0  0  0  0  0  0  0
  145.1200  155.4880  133.0560 C   0  0  0  0  0  0  0  0  0  0  0  0
  144.4050  151.8110  132.6060 C   0  0  0  0  0  0  0  0  0  0  0  0
  143.3620  150.9380  132.6400 N   0  0  0  0  0  0  0  0  0  0  0  0
  138.7310  149.7692  132.1967 H   0  0  0  0  0  0  0  0  0  0  0  0
  139.5728  150.5351  130.8070 H   0  0  0  0  0  0  0  0  0  0  0  0
  139.2668  148.7651  130.8070 H   0  0  0  0  0  0  0  0  0  0  0  0
  140.8598  148.4006  132.5752 H   0  0  0  0  0  0  0  0  0  0  0  0
  141.6545  149.4832  131.3689 H   0  0  0  0  0  0  0  0  0  0  0  0
  140.9365  152.8986  133.9435 H   0  0  0  0  0  0  0  0  0  0  0  0
  142.8160  154.5433  133.9003 H   0  0  0  0  0  0  0  0  0  0  0  0
  146.9038  152.5462  132.9435 H   0  0  0  0  0  0  0  0  0  0  0  0
  148.8231  154.1696  132.9269 H   0  0  0  0  0  0  0  0  0  0  0  0
  149.4469  156.9557  133.0073 H   0  0  0  0  0  0  0  0  0  0  0  0
  147.5490  161.5410  132.6670 H   0  0  0  0  0  0  0  0  0  0  0  0
  146.2350  160.3950  132.2400 H   0  0  0  0  0  0  0  0  0  0  0  0
  143.8576  160.8930  135.1092 H   0  0  0  0  0  0  0  0  0  0  0  0
  144.4092  161.6057  133.5553 H   0  0  0  0  0  0  0  0  0  0  0  0
  143.1978  160.2793  133.5553 H   0  0  0  0  0  0  0  0  0  0  0  0
  144.0914  155.8746  133.1073 H   0  0  0  0  0  0  0  0  0  0  0  0
  145.3825  151.4823  132.2233 H   0  0  0  0  0  0  0  0  0  0  0  0
  1  2  1  0
  2  3  1  0
  3  4  1  0
  4  5  2  0
  5  6  1  0
  6  7  2  0
  7  8  1  0
  8  9  2  0
  9 10  1  0
 10 11  2  0
 11 12  1  0
 12 13  2  0
 13 14  1  0
 14 15  1  0
 14 16  2  0
 13 17  1  0
 17 18  1  0
 18 19  2  0
 18 20  1  0
 20 21  1  0
 17 22  1  0
 22 23  2  0
  7 24  1  0
 24 25  2  0
 25  4  1  0
 23  8  1  0
 22 11  1  0
  1 26  1  0
  1 27  1  0
  1 28  1  0
  2 29  1  0
  2 30  1  0
  5 31  1  0
  6 32  1  0
  9 33  1  0
 10 34  1  0
 12 35  1  0
 15 36  1  0
 15 37  1  0
 21 38  1  0
 21 39  1  0
 21 40  1  0
 23 41  1  0
 24 42  1  0
M  END
>  <UniqueID>  (64) 
64

>  <SMILES>  (64) 
CCOc1ccc(-c2ccc3cc(C(N)=O)n(C(=O)OC)c3c2)cn1

>  <Energy>  (64) 
83.6933547101948

>  <Genealogy>  (64) 
CCOc1ccc(-c2ccc3cc(C(N)=O)n(C(=O)OC)c3c2)cn1 (3D coordinates assigned)
CCOc1ccc(-c2ccc3cc(C(N)=O)n(C(=O)OC)c3c2)cn1 (optimized conformer: 83.6933547101948 kcal/mol)

>  <smiles>  (64) 
CCOc1ccc(-c2ccc3cc(C(N)=O)n(C(=O)OC)c3c2)cn1

>  <score_type>  (64) 
oracle

>  <origin>  (64) 
adg

>  <m_score__min__energy>  (64) 
-7.2400000000000002

>  <m_primary>  (64) 
energy

$$$$
64:0
     RDKit          3D

 45 46  0  0  0  0  0  0  0  0999 V2000
  149.6810  151.0900  133.7260 C   0  0  0  0  0  0  0  0  0  0  0  0
  149.1200  151.6790  132.4220 C   0  0  0  0  0  0  0  0  0  0  0  0
  149.9940  151.2040  131.2450 C   0  0  0  0  0  0  0  0  0  0  0  0
  147.6660  151.2030  132.2470 C   0  0  0  0  0  0  0  0  0  0  0  0
  149.1670  153.1070  132.5460 O   0  0  0  0  0  0  0  0  0  0  0  0
  148.2980  153.9010  133.3100 C   0  0  0  0  0  0  0  0  0  0  0  0
  148.4750  154.0630  134.5470 O   0  0  0  0  0  0  0  0  0  0  0  0
  147.1560  154.5900  132.6300 C   0  0  0  0  0  0  0  0  0  0  0  0
  147.2530  156.0770  132.8360 C   0  0  0  0  0  0  0  0  0  0  0  0
  148.5160  156.7230  132.8400 C   0  0  0  0  0  0  0  0  0  0  0  0
  148.6110  158.1090  133.0510 C   0  0  0  0  0  0  0  0  0  0  0  0
  147.4330  158.8180  133.2730 C   0  0  0  0  0  0  0  0  0  0  0  0
  147.2350  160.1600  133.5080 C   0  0  0  0  0  0  0  0  0  0  0  0
  145.8580  160.3070  133.6730 C   0  0  0  0  0  0  0  0  0  0  0  0
  145.2090  161.5930  134.0130 C   0  0  0  0  0  0  0  0  0  0  0  0
  145.9380  162.6420  134.6440 N   0  0  0  0  0  0  0  0  0  0  0  0
  143.9990  161.7760  133.7160 O   0  0  0  0  0  0  0  0  0  0  0  0
  145.2320  159.1040  133.5430 N   0  0  0  0  0  0  0  0  0  0  0  0
  143.8260  158.8270  133.6300 C   0  0  0  0  0  0  0  0  0  0  0  0
  143.2420  158.2440  132.6770 O   0  0  0  0  0  0  0  0  0  0  0  0
  143.0420  159.2310  134.8400 C   0  0  0  0  0  0  0  0  0  0  0  0
  141.3510  159.6980  134.3500 S   0  0  0  0  0  0  0  0  0  0  0  0
  140.6240  159.0900  135.8680 C   0  0  0  0  0  0  0  0  0  0  0  0
  141.1010  159.4390  136.9780 O   0  0  0  0  0  0  0  0  0  0  0  0
  139.5310  158.2360  135.8200 O   0  0  0  0  0  0  0  0  0  0  0  0
  146.2080  158.2050  133.2910 C   0  0  0  0  0  0  0  0  0  0  0  0
  146.0800  156.8350  133.0460 C   0  0  0  0  0  0  0  0  0  0  0  0
  149.2080  151.5866  134.5860 H   0  0  0  0  0  0  0  0  0  0  0  0
  149.4679  150.0115  133.7627 H   0  0  0  0  0  0  0  0  0  0  0  0
  150.7686  151.2503  133.7627 H   0  0  0  0  0  0  0  0  0  0  0  0
  150.8979  150.7127  131.6344 H   0  0  0  0  0  0  0  0  0  0  0  0
  149.4251  150.4910  130.6302 H   0  0  0  0  0  0  0  0  0  0  0  0
  150.2829  152.0692  130.6302 H   0  0  0  0  0  0  0  0  0  0  0  0
  147.2078  151.0530  133.2357 H   0  0  0  0  0  0  0  0  0  0  0  0
  147.0964  151.9616  131.6901 H   0  0  0  0  0  0  0  0  0  0  0  0
  147.6552  150.2544  131.6901 H   0  0  0  0  0  0  0  0  0  0  0  0
  147.1871  154.3691  131.5529 H   0  0  0  0  0  0  0  0  0  0  0  0
  146.2100  154.2280  133.0591 H   0  0  0  0  0  0  0  0  0  0  0  0
  149.4299  156.1331  132.6763 H   0  0  0  0  0  0  0  0  0  0  0  0
  149.5859  158.6184  133.0411 H   0  0  0  0  0  0  0  0  0  0  0  0
  148.0003  160.9487  133.5555 H   0  0  0  0  0  0  0  0  0  0  0  0
  146.9810  162.6360  134.6620 H   0  0  0  0  0  0  0  0  0  0  0  0
  142.9984  158.3881  135.5454 H   0  0  0  0  0  0  0  0  0  0  0  0
  143.5320  160.0907  135.3205 H   0  0  0  0  0  0  0  0  0  0  0  0
  145.0890  156.3584  133.0174 H   0  0  0  0  0  0  0  0  0  0  0  0
  1  2  1  0
  2  3  1  0
  2  4  1  0
  2  5  1  0
  5  6  1  0
  6  7  2  0
  6  8  1  0
  8  9  1  0
  9 10  2  0
 10 11  1  0
 11 12  2  0
 12 13  1  0
 13 14  2  0
 14 15  1  0
 15 16  1  0
 15 17  2  0
 14 18  1  0
 18 19  1  0
 19 20  2  0
 19 21  1  0
 21 22  1  0
 22 23  1  0
 23 24  2  0
 23 25  1  0
 18 26  1  0
 26 27  2  0
 27  9  1  0
 26 12  1  0
  1 28  1  0
  1 29  1  0
  1 30  1  0
  3 31  1  0
  3 32  1  0
  3 33  1  0
  4 34  1  0
  4 35  1  0
  4 36  1  0
  8 37  1  0
  8 38  1  0
 10 39  1  0
 11 40  1  0
 13 41  1  0
 16 42  1  0
 21 43  1  0
 21 44  1  0
 27 45  1  0
M  CHG  2  16  -1  25  -1
M  END
>  <UniqueID>  (65) 
65

>  <SMILES>  (65) 
CC(C)(C)OC(=O)Cc1ccc2cc(C([NH-])=O)n(C(=O)CSC(=O)[O-])c2c1

>  <Energy>  (65) 
72.4948487528329

>  <Genealogy>  (65) 
CC(C)(C)OC(=O)Cc1ccc2cc(C([NH-])=O)n(C(=O)CSC(=O)[O-])c2c1 (protonated)
CC(C)(C)OC(=O)Cc1ccc2cc(C([NH-])=O)n(C(=O)CSC(=O)[O-])c2c1 (3D coordinates assigned)
CC(C)(C)OC(=O)Cc1ccc2cc(C([NH-])=O)n(C(=O)CSC(=O)[O-])c2c1 (optimized conformer: 72.4948487528329 kcal/mol)

>  <smiles>  (65) 
CC(C)(C)OC(=O)Cc1ccc2cc(C(N)=O)n(C(=O)CSC(=O)O)c2c1

>  <score_type>  (65) 
oracle

>  <origin>  (65) 
adg

>  <m_score__min__energy>  (65) 
-7.9900000000000002

>  <m_primary>  (65) 
energy

$$$$
65:0
     RDKit          3D

 37 38  0  0  0  0  0  0  0  0999 V2000
  139.4650  159.4440  131.4550 C   0  0  0  0  0  0  0  0  0  0  0  0
  138.3960  159.0430  132.2820 O   0  0  0  0  0  0  0  0  0  0  0  0
  138.8650  158.2230  133.3350 C   0  0  0  0  0  0  0  0  0  0  0  0
  140.0590  157.3900  132.8650 C   0  0  0  0  0  0  0  0  0  0  0  0
  140.7760  156.8340  134.0060 N   0  0  0  0  0  0  0  0  0  0  0  0
  142.1070  157.2180  134.3690 C   0  0  0  0  0  0  0  0  0  0  0  0
  142.4820  157.1480  135.5700 O   0  0  0  0  0  0  0  0  0  0  0  0
  143.0390  157.6900  133.3350 C   0  0  0  0  0  0  0  0  0  0  0  0
  143.2240  156.9950  132.3000 O   0  0  0  0  0  0  0  0  0  0  0  0
  143.7800  158.9080  133.5120 N   0  0  0  0  0  0  0  0  0  0  0  0
  143.3110  160.1290  133.8960 C   0  0  0  0  0  0  0  0  0  0  0  0
  141.8920  160.4810  134.1070 C   0  0  0  0  0  0  0  0  0  0  0  0
  141.1510  159.8470  135.1470 N   0  0  0  0  0  0  0  0  0  0  0  0
  141.3320  161.3540  133.3930 O   0  0  0  0  0  0  0  0  0  0  0  0
  144.3600  161.0420  133.9920 C   0  0  0  0  0  0  0  0  0  0  0  0
  145.4910  160.3390  133.6430 C   0  0  0  0  0  0  0  0  0  0  0  0
  146.8180  160.7510  133.5670 C   0  0  0  0  0  0  0  0  0  0  0  0
  147.7830  159.8020  133.1880 C   0  0  0  0  0  0  0  0  0  0  0  0
  147.4050  158.4660  132.8950 C   0  0  0  0  0  0  0  0  0  0  0  0
  148.4400  157.4510  132.4990 C   0  0  0  0  0  0  0  0  0  0  0  0
  148.6520  156.5690  133.5430 F   0  0  0  0  0  0  0  0  0  0  0  0
  149.6260  158.0920  132.1930 F   0  0  0  0  0  0  0  0  0  0  0  0
  146.0480  158.0840  132.9830 C   0  0  0  0  0  0  0  0  0  0  0  0
  145.1110  159.0540  133.3550 C   0  0  0  0  0  0  0  0  0  0  0  0
  140.3126  159.7620  132.0798 H   0  0  0  0  0  0  0  0  0  0  0  0
  139.7737  158.6005  130.8200 H   0  0  0  0  0  0  0  0  0  0  0  0
  139.1428  160.2824  130.8200 H   0  0  0  0  0  0  0  0  0  0  0  0
  139.1742  158.8571  134.1790 H   0  0  0  0  0  0  0  0  0  0  0  0
  138.0570  157.5461  133.6497 H   0  0  0  0  0  0  0  0  0  0  0  0
  139.6987  156.5682  132.2288 H   0  0  0  0  0  0  0  0  0  0  0  0
  140.7428  158.0381  132.2973 H   0  0  0  0  0  0  0  0  0  0  0  0
  141.0680  158.8060  135.1890 H   0  0  0  0  0  0  0  0  0  0  0  0
  144.2973  162.1005  134.2848 H   0  0  0  0  0  0  0  0  0  0  0  0
  147.1032  161.7883  133.7966 H   0  0  0  0  0  0  0  0  0  0  0  0
  148.8403  160.0974  133.1179 H   0  0  0  0  0  0  0  0  0  0  0  0
  148.0836  156.8969  131.6181 H   0  0  0  0  0  0  0  0  0  0  0  0
  145.7364  157.0518  132.7650 H   0  0  0  0  0  0  0  0  0  0  0  0
  1  2  1  0
  2  3  1  0
  3  4  1  0
  4  5  1  0
  5  6  1  0
  6  7  2  0
  6  8  1  0
  8  9  2  0
  8 10  1  0
 10 11  1  0
 11 12  1  0
 12 13  1  0
 12 14  2  0
 11 15  2  0
 15 16  1  0
 16 17  2  0
 17 18  1  0
 18 19  2  0
 19 20  1  0
 20 21  1  0
 20 22  1  0
 19 23  1  0
 23 24  2  0
 24 10  1  0
 24 16  1  0
  1 25  1  0
  1 26  1  0
  1 27  1  0
  3 28  1  0
  3 29  1  0
  4 30  1  0
  4 31  1  0
 13 32  1  0
 15 33  1  0
 17 34  1  0
 18 35  1  0
 20 36  1  0
 23 37  1  0
M  CHG  2   5  -1  13  -1
M  END
>  <UniqueID>  (66) 
66

>  <SMILES>  (66) 
COCC[N-]C(=O)C(=O)n1c(C([NH-])=O)cc2ccc(C(F)F)cc21

>  <Energy>  (66) 
73.89967335618424

>  <Genealogy>  (66) 
COCC[N-]C(=O)C(=O)n1c(C([NH-])=O)cc2ccc(C(F)F)cc21 (protonated)
COCC[N-]C(=O)C(=O)n1c(C([NH-])=O)cc2ccc(C(F)F)cc21 (3D coordinates assigned)
COCC[N-]C(=O)C(=O)n1c(C([NH-])=O)cc2ccc(C(F)F)cc21 (optimized conformer: 73.89967335618424 kcal/mol)

>  <smiles>  (66) 
COCCNC(=O)C(=O)n1c(C(N)=O)cc2ccc(C(F)F)cc21

>  <score_type>  (66) 
oracle

>  <origin>  (66) 
adg

>  <m_score__min__energy>  (66) 
-5.7800000000000002

>  <m_primary>  (66) 
energy

$$$$
66:0
     RDKit          3D

 53 56  0  0  0  0  0  0  0  0999 V2000
  146.9180  160.2770  133.3140 C   0  0  0  0  0  0  0  0  0  0  0  0
  146.5190  158.9370  132.7070 C   0  0  0  0  0  0  0  0  0  0  0  0
  145.1030  158.7760  132.7360 O   0  0  0  0  0  0  0  0  0  0  0  0
  144.4450  157.9550  133.6590 C   0  0  0  0  0  0  0  0  0  0  0  0
  145.1000  157.1690  134.3970 O   0  0  0  0  0  0  0  0  0  0  0  0
  143.0130  157.9800  133.7390 N   0  0  0  0  0  0  0  0  0  0  0  0
  142.1950  159.0650  133.7990 C   0  0  0  0  0  0  0  0  0  0  0  0
  142.6290  160.4680  133.9500 C   0  0  0  0  0  0  0  0  0  0  0  0
  143.9490  160.7820  134.3910 N   0  0  0  0  0  0  0  0  0  0  0  0
  141.8170  161.4020  133.7210 O   0  0  0  0  0  0  0  0  0  0  0  0
  140.8580  158.6700  133.7470 C   0  0  0  0  0  0  0  0  0  0  0  0
  140.8860  157.2970  133.6470 C   0  0  0  0  0  0  0  0  0  0  0  0
  139.8440  156.3810  133.5230 C   0  0  0  0  0  0  0  0  0  0  0  0
  140.1750  155.0230  133.3670 C   0  0  0  0  0  0  0  0  0  0  0  0
  141.5320  154.6080  133.3240 C   0  0  0  0  0  0  0  0  0  0  0  0
  141.8850  153.1860  133.1010 C   0  0  0  0  0  0  0  0  0  0  0  0
  143.1990  152.7080  133.3490 C   0  0  0  0  0  0  0  0  0  0  0  0
  143.5250  151.4040  133.1030 N   0  0  0  0  0  0  0  0  0  0  0  0
  142.5810  150.5690  132.6050 C   0  0  0  0  0  0  0  0  0  0  0  0
  142.7420  149.2620  132.3430 N   0  0  0  0  0  0  0  0  0  0  0  0
  141.5380  148.8280  131.9040 C   0  0  0  0  0  0  0  0  0  0  0  0
  140.6200  149.8770  131.8730 C   0  0  0  0  0  0  0  0  0  0  0  0
  139.1930  149.7580  131.5170 C   0  0  0  0  0  0  0  0  0  0  0  0
  138.3620  150.3800  132.2310 O   0  0  0  0  0  0  0  0  0  0  0  0
  138.6640  148.8560  130.4110 C   0  0  0  0  0  0  0  0  0  0  0  0
  139.3770  149.2080  129.0880 C   0  0  0  0  0  0  0  0  0  0  0  0
  138.8530  147.3540  130.7230 C   0  0  0  0  0  0  0  0  0  0  0  0
  137.2870  149.1170  130.2840 O   0  0  0  0  0  0  0  0  0  0  0  0
  141.3060  150.9810  132.3430 C   0  0  0  0  0  0  0  0  0  0  0  0
  140.9120  152.2860  132.6100 C   0  0  0  0  0  0  0  0  0  0  0  0
  142.5580  155.5700  133.4710 C   0  0  0  0  0  0  0  0  0  0  0  0
  142.1990  156.9080  133.6420 C   0  0  0  0  0  0  0  0  0  0  0  0
  146.8961  160.2035  134.4113 H   0  0  0  0  0  0  0  0  0  0  0  0
  147.9337  160.5409  132.9844 H   0  0  0  0  0  0  0  0  0  0  0  0
  146.2121  161.0536  132.9844 H   0  0  0  0  0  0  0  0  0  0  0  0
  146.8666  158.8944  131.6642 H   0  0  0  0  0  0  0  0  0  0  0  0
  146.9803  158.1296  133.2946 H   0  0  0  0  0  0  0  0  0  0  0  0
  144.6890  160.0480  134.4380 H   0  0  0  0  0  0  0  0  0  0  0  0
  139.9697  159.3180  133.7791 H   0  0  0  0  0  0  0  0  0  0  0  0
  138.7945  156.7096  133.5463 H   0  0  0  0  0  0  0  0  0  0  0  0
  139.3740  154.2745  133.2774 H   0  0  0  0  0  0  0  0  0  0  0  0
  143.9625  153.3947  133.7433 H   0  0  0  0  0  0  0  0  0  0  0  0
  143.6070  148.6930  132.4720 H   0  0  0  0  0  0  0  0  0  0  0  0
  141.3144  147.7913  131.6120 H   0  0  0  0  0  0  0  0  0  0  0  0
  140.3434  149.6851  129.3080 H   0  0  0  0  0  0  0  0  0  0  0  0
  139.5454  148.2895  128.5066 H   0  0  0  0  0  0  0  0  0  0  0  0
  138.7503  149.9002  128.5066 H   0  0  0  0  0  0  0  0  0  0  0  0
  138.8717  147.2054  131.8128 H   0  0  0  0  0  0  0  0  0  0  0  0
  138.0198  146.7817  130.2892 H   0  0  0  0  0  0  0  0  0  0  0  0
  139.8020  147.0060  130.2892 H   0  0  0  0  0  0  0  0  0  0  0  0
  136.8910  149.1640  131.1960 H   0  0  0  0  0  0  0  0  0  0  0  0
  139.8737  152.6093  132.4443 H   0  0  0  0  0  0  0  0  0  0  0  0
  143.6162  155.2704  133.4510 H   0  0  0  0  0  0  0  0  0  0  0  0
  1  2  1  0
  2  3  1  0
  3  4  1  0
  4  5  2  0
  4  6  1  0
  6  7  1  0
  7  8  1  0
  8  9  1  0
  8 10  2  0
  7 11  2  0
 11 12  1  0
 12 13  2  0
 13 14  1  0
 14 15  2  0
 15 16  1  0
 16 17  2  0
 17 18  1  0
 18 19  2  0
 19 20  1  0
 20 21  1  0
 21 22  2  0
 22 23  1  0
 23 24  2  0
 23 25  1  0
 25 26  1  0
 25 27  1  0
 25 28  1  0
 22 29  1  0
 29 30  2  0
 15 31  1  0
 31 32  2  0
 32  6  1  0
 32 12  1  0
 30 16  1  0
 29 19  1  0
  1 33  1  0
  1 34  1  0
  1 35  1  0
  2 36  1  0
  2 37  1  0
  9 38  1  0
 11 39  1  0
 13 40  1  0
 14 41  1  0
 17 42  1  0
 20 43  1  0
 21 44  1  0
 26 45  1  0
 26 46  1  0
 26 47  1  0
 27 48  1  0
 27 49  1  0
 27 50  1  0
 28 51  1  0
 30 52  1  0
 31 53  1  0
M  CHG  1   9  -1
M  END
>  <UniqueID>  (67) 
67

>  <SMILES>  (67) 
CCOC(=O)n1c(C([NH-])=O)cc2ccc(-c3cnc4[nH]cc(C(=O)C(C)(C)O)c4c3)cc21

>  <Energy>  (67) 
137.5230115983537

>  <Genealogy>  (67) 
CCOC(=O)n1c(C([NH-])=O)cc2ccc(-c3cnc4[nH]cc(C(=O)C(C)(C)O)c4c3)cc21 (protonated)
CCOC(=O)n1c(C([NH-])=O)cc2ccc(-c3cnc4[nH]cc(C(=O)C(C)(C)O)c4c3)cc21 (3D coordinates assigned)
CCOC(=O)n1c(C([NH-])=O)cc2ccc(-c3cnc4[nH]cc(C(=O)C(C)(C)O)c4c3)cc21 (optimized conformer: 137.5230115983537 kcal/mol)

>  <smiles>  (67) 
CCOC(=O)n1c(C(N)=O)cc2ccc(-c3cnc4[nH]cc(C(=O)C(C)(C)O)c4c3)cc21

>  <score_type>  (67) 
oracle

>  <origin>  (67) 
adg

>  <m_score__min__energy>  (67) 
-9.4499999999999993

>  <m_primary>  (67) 
energy

$$$$
67:0
     RDKit          3D

 43 44  0  0  0  0  0  0  0  0999 V2000
  149.6470  160.4840  129.2410 C   0  0  0  0  0  0  0  0  0  0  0  0
  149.1620  161.1600  130.5220 C   0  0  0  0  0  0  0  0  0  0  0  0
  148.5470  160.1730  131.5260 C   0  0  0  0  0  0  0  0  0  0  0  0
  149.5440  159.1480  132.0940 C   0  0  0  0  0  0  0  0  0  0  0  0
  148.9710  157.8490  132.2490 O   0  0  0  0  0  0  0  0  0  0  0  0
  148.2520  157.4450  133.3800 C   0  0  0  0  0  0  0  0  0  0  0  0
  148.5140  157.9460  134.5070 O   0  0  0  0  0  0  0  0  0  0  0  0
  147.2410  156.4240  133.2660 N   0  0  0  0  0  0  0  0  0  0  0  0
  145.8860  156.5870  133.2220 C   0  0  0  0  0  0  0  0  0  0  0  0
  145.1490  157.8460  133.4480 C   0  0  0  0  0  0  0  0  0  0  0  0
  145.8540  159.0840  133.4770 N   0  0  0  0  0  0  0  0  0  0  0  0
  143.8970  157.8480  133.5690 O   0  0  0  0  0  0  0  0  0  0  0  0
  145.2510  155.3680  133.0000 C   0  0  0  0  0  0  0  0  0  0  0  0
  146.2620  154.4410  132.9100 C   0  0  0  0  0  0  0  0  0  0  0  0
  146.1940  153.0690  132.6850 C   0  0  0  0  0  0  0  0  0  0  0  0
  147.4020  152.3550  132.6070 C   0  0  0  0  0  0  0  0  0  0  0  0
  148.6440  153.0230  132.7350 C   0  0  0  0  0  0  0  0  0  0  0  0
  149.9280  152.2440  132.6710 C   0  0  0  0  0  0  0  0  0  0  0  0
  149.7180  150.9770  131.9090 C   0  0  0  0  0  0  0  0  0  0  0  0
  149.2530  149.9610  132.4950 O   0  0  0  0  0  0  0  0  0  0  0  0
  149.9980  150.9430  130.5390 O   0  0  0  0  0  0  0  0  0  0  0  0
  150.7820  149.9190  129.9430 C   0  0  0  0  0  0  0  0  0  0  0  0
  148.6720  154.4150  132.9740 C   0  0  0  0  0  0  0  0  0  0  0  0
  147.4530  155.1000  133.0700 C   0  0  0  0  0  0  0  0  0  0  0  0
  150.2704  159.6150  129.4984 H   0  0  0  0  0  0  0  0  0  0  0  0
  148.7802  160.1515  128.6510 H   0  0  0  0  0  0  0  0  0  0  0  0
  150.2397  161.1986  128.6510 H   0  0  0  0  0  0  0  0  0  0  0  0
  150.0175  161.6592  131.0004 H   0  0  0  0  0  0  0  0  0  0  0  0
  148.3751  161.8747  130.2392 H   0  0  0  0  0  0  0  0  0  0  0  0
  148.1293  160.7494  132.3647 H   0  0  0  0  0  0  0  0  0  0  0  0
  147.7826  159.6012  130.9794 H   0  0  0  0  0  0  0  0  0  0  0  0
  150.4018  159.0748  131.4093 H   0  0  0  0  0  0  0  0  0  0  0  0
  149.8483  159.4980  133.0914 H   0  0  0  0  0  0  0  0  0  0  0  0
  146.8780  159.1140  133.6800 H   0  0  0  0  0  0  0  0  0  0  0  0
  144.1696  155.1854  132.9147 H   0  0  0  0  0  0  0  0  0  0  0  0
  145.2255  152.5598  132.5718 H   0  0  0  0  0  0  0  0  0  0  0  0
  147.3825  151.2672  132.4450 H   0  0  0  0  0  0  0  0  0  0  0  0
  150.6966  152.8489  132.1677 H   0  0  0  0  0  0  0  0  0  0  0  0
  150.2550  152.0014  133.6929 H   0  0  0  0  0  0  0  0  0  0  0  0
  151.2488  149.3093  130.7306 H   0  0  0  0  0  0  0  0  0  0  0  0
  150.1390  149.2815  129.3185 H   0  0  0  0  0  0  0  0  0  0  0  0
  151.5652  150.3734  129.3185 H   0  0  0  0  0  0  0  0  0  0  0  0
  149.6278  154.9486  133.0822 H   0  0  0  0  0  0  0  0  0  0  0  0
  1  2  1  0
  2  3  1  0
  3  4  1  0
  4  5  1  0
  5  6  1  0
  6  7  2  0
  6  8  1  0
  8  9  1  0
  9 10  1  0
 10 11  1  0
 10 12  2  0
  9 13  2  0
 13 14  1  0
 14 15  2  0
 15 16  1  0
 16 17  2  0
 17 18  1  0
 18 19  1  0
 19 20  2  0
 19 21  1  0
 21 22  1  0
 17 23  1  0
 23 24  2  0
 24  8  1  0
 24 14  1  0
  1 25  1  0
  1 26  1  0
  1 27  1  0
  2 28  1  0
  2 29  1  0
  3 30  1  0
  3 31  1  0
  4 32  1  0
  4 33  1  0
 11 34  1  0
 13 35  1  0
 15 36  1  0
 16 37  1  0
 18 38  1  0
 18 39  1  0
 22 40  1  0
 22 41  1  0
 22 42  1  0
 23 43  1  0
M  CHG  1  11  -1
M  END
>  <UniqueID>  (68) 
68

>  <SMILES>  (68) 
CCCCOC(=O)n1c(C([NH-])=O)cc2ccc(CC(=O)OC)cc21

>  <Energy>  (68) 
71.23550268258151

>  <Genealogy>  (68) 
CCCCOC(=O)n1c(C([NH-])=O)cc2ccc(CC(=O)OC)cc21 (protonated)
CCCCOC(=O)n1c(C([NH-])=O)cc2ccc(CC(=O)OC)cc21 (3D coordinates assigned)
CCCCOC(=O)n1c(C([NH-])=O)cc2ccc(CC(=O)OC)cc21 (optimized conformer: 71.23550268258151 kcal/mol)

>  <smiles>  (68) 
CCCCOC(=O)n1c(C(N)=O)cc2ccc(CC(=O)OC)cc21

>  <score_type>  (68) 
oracle

>  <origin>  (68) 
adg

>  <m_score__min__energy>  (68) 
-6.5199999999999996

>  <m_primary>  (68) 
energy

$$$$
68:0
     RDKit          3D

 31 33  0  0  0  0  0  0  0  0999 V2000
  141.3720  160.9210  133.6910 N   0  0  0  0  0  0  0  0  0  0  0  0
  142.2270  160.1220  134.5040 C   0  0  0  0  0  0  0  0  0  0  0  0
  141.7790  159.6310  135.5740 O   0  0  0  0  0  0  0  0  0  0  0  0
  143.6090  159.8160  134.0820 C   0  0  0  0  0  0  0  0  0  0  0  0
  144.0660  158.5220  133.8360 C   0  0  0  0  0  0  0  0  0  0  0  0
  145.3550  158.6710  133.3800 C   0  0  0  0  0  0  0  0  0  0  0  0
  146.2840  157.7090  132.9970 C   0  0  0  0  0  0  0  0  0  0  0  0
  147.5570  158.1450  132.5950 C   0  0  0  0  0  0  0  0  0  0  0  0
  147.8840  159.5250  132.5880 C   0  0  0  0  0  0  0  0  0  0  0  0
  149.2770  159.9500  132.1580 C   0  0  0  0  0  0  0  0  0  0  0  0
  149.9520  159.0030  131.1680 C   0  0  0  0  0  0  0  0  0  0  0  0
  149.9730  160.1130  130.1240 C   0  0  0  0  0  0  0  0  0  0  0  0
  149.3030  161.0630  131.1110 C   0  0  0  0  0  0  0  0  0  0  0  0
  146.9090  160.4720  132.9880 C   0  0  0  0  0  0  0  0  0  0  0  0
  145.6430  160.0110  133.3660 C   0  0  0  0  0  0  0  0  0  0  0  0
  144.5820  160.7290  133.7970 N   0  0  0  0  0  0  0  0  0  0  0  0
  144.5400  162.1500  134.0040 C   0  0  0  0  0  0  0  0  0  0  0  0
  145.3570  162.7040  134.7850 O   0  0  0  0  0  0  0  0  0  0  0  0
  143.5770  162.9230  133.3650 O   0  0  0  0  0  0  0  0  0  0  0  0
  141.6830  161.8530  133.3390 H   0  0  0  0  0  0  0  0  0  0  0  0
  143.5130  157.5816  133.9767 H   0  0  0  0  0  0  0  0  0  0  0  0
  146.0291  156.6390  133.0087 H   0  0  0  0  0  0  0  0  0  0  0  0
  148.3100  157.4069  132.2816 H   0  0  0  0  0  0  0  0  0  0  0  0
  149.7122  160.1130  133.1550 H   0  0  0  0  0  0  0  0  0  0  0  0
  150.9497  158.6618  131.4813 H   0  0  0  0  0  0  0  0  0  0  0  0
  149.5018  158.0268  130.9348 H   0  0  0  0  0  0  0  0  0  0  0  0
  150.9836  160.4228  129.8195 H   0  0  0  0  0  0  0  0  0  0  0  0
  149.5341  159.9469  129.1291 H   0  0  0  0  0  0  0  0  0  0  0  0
  149.9202  161.9294  131.3909 H   0  0  0  0  0  0  0  0  0  0  0  0
  148.3788  161.5926  130.8363 H   0  0  0  0  0  0  0  0  0  0  0  0
  147.1423  161.5469  133.0011 H   0  0  0  0  0  0  0  0  0  0  0  0
  1  2  1  0
  2  3  2  0
  2  4  1  0
  4  5  2  0
  5  6  1  0
  6  7  2  0
  7  8  1  0
  8  9  2  0
  9 10  1  0
 10 11  1  0
 11 12  1  0
 12 13  1  0
  9 14  1  0
 14 15  2  0
 15 16  1  0
 16 17  1  0
 17 18  2  0
 17 19  1  0
 16  4  1  0
 15  6  1  0
 13 10  1  0
  1 20  1  0
  5 21  1  0
  7 22  1  0
  8 23  1  0
 10 24  1  0
 11 25  1  0
 11 26  1  0
 12 27  1  0
 12 28  1  0
 13 29  1  0
 13 30  1  0
 14 31  1  0
M  CHG  2   1  -1  19  -1
M  END
>  <UniqueID>  (69) 
69

>  <SMILES>  (69) 
[NH-]C(=O)c1cc2ccc(C3CCC3)cc2n1C(=O)[O-]

>  <Energy>  (69) 
133.3793066636079

>  <Genealogy>  (69) 
[NH-]C(=O)c1cc2ccc(C3CCC3)cc2n1C(=O)[O-] (protonated)
[NH-]C(=O)c1cc2ccc(C3CCC3)cc2n1C(=O)[O-] (3D coordinates assigned)
[NH-]C(=O)c1cc2ccc(C3CCC3)cc2n1C(=O)[O-] (nonaromatic ring conformer: 133.3793066636079 kcal/mol)

>  <smiles>  (69) 
NC(=O)c1cc2ccc(C3CCC3)cc2n1C(=O)O

>  <score_type>  (69) 
oracle

>  <origin>  (69) 
adg

>  <m_score__min__energy>  (69) 
-7.3099999999999996

>  <m_primary>  (69) 
energy

$$$$
69:0
     RDKit          3D

 47 49  0  0  0  0  0  0  0  0999 V2000
  149.0650  153.6000  132.4240 C   0  0  0  0  0  0  0  0  0  0  0  0
  148.2870  154.6420  132.9670 O   0  0  0  0  0  0  0  0  0  0  0  0
  148.0800  154.4360  134.3520 C   0  0  0  0  0  0  0  0  0  0  0  0
  146.5910  154.5240  134.6930 C   0  0  0  0  0  0  0  0  0  0  0  0
  146.1170  155.8630  134.5610 O   0  0  0  0  0  0  0  0  0  0  0  0
  146.0270  156.5350  133.3370 C   0  0  0  0  0  0  0  0  0  0  0  0
  145.9220  155.8860  132.2610 O   0  0  0  0  0  0  0  0  0  0  0  0
  146.0460  157.9710  133.3100 N   0  0  0  0  0  0  0  0  0  0  0  0
  147.1280  158.7820  133.1310 C   0  0  0  0  0  0  0  0  0  0  0  0
  148.4880  158.3300  132.7610 C   0  0  0  0  0  0  0  0  0  0  0  0
  148.6900  157.0590  132.1410 N   0  0  0  0  0  0  0  0  0  0  0  0
  149.4860  159.0530  133.0200 O   0  0  0  0  0  0  0  0  0  0  0  0
  146.7580  160.1210  133.2520 C   0  0  0  0  0  0  0  0  0  0  0  0
  145.4080  160.1050  133.5130 C   0  0  0  0  0  0  0  0  0  0  0  0
  144.5270  161.1590  133.7300 C   0  0  0  0  0  0  0  0  0  0  0  0
  143.1840  160.8490  134.0050 C   0  0  0  0  0  0  0  0  0  0  0  0
  142.7500  159.5010  134.0720 C   0  0  0  0  0  0  0  0  0  0  0  0
  141.3700  159.1960  134.3550 N   0  0  0  0  0  0  0  0  0  0  0  0
  140.4420  158.8890  133.2610 C   0  0  0  0  0  0  0  0  0  0  0  0
  139.1790  158.2000  133.7990 C   0  0  0  0  0  0  0  0  0  0  0  0
  139.5290  157.2410  134.8560 N   0  0  0  0  0  0  0  0  0  0  0  0
  140.1170  157.8920  136.0430 C   0  0  0  0  0  0  0  0  0  0  0  0
  140.8590  159.2070  135.7310 C   0  0  0  0  0  0  0  0  0  0  0  0
  143.6740  158.4580  133.8350 C   0  0  0  0  0  0  0  0  0  0  0  0
  145.0010  158.7960  133.5460 C   0  0  0  0  0  0  0  0  0  0  0  0
  149.5065  153.0087  133.2397 H   0  0  0  0  0  0  0  0  0  0  0  0
  148.4282  152.9516  131.8042 H   0  0  0  0  0  0  0  0  0  0  0  0
  149.8676  154.0263  131.8042 H   0  0  0  0  0  0  0  0  0  0  0  0
  148.4562  153.4403  134.6296 H   0  0  0  0  0  0  0  0  0  0  0  0
  148.6184  155.2156  134.9108 H   0  0  0  0  0  0  0  0  0  0  0  0
  146.0259  153.8729  134.0098 H   0  0  0  0  0  0  0  0  0  0  0  0
  146.4494  154.2021  135.7353 H   0  0  0  0  0  0  0  0  0  0  0  0
  149.6570  156.7330  131.9190 H   0  0  0  0  0  0  0  0  0  0  0  0
  147.8850  156.4570  131.8610 H   0  0  0  0  0  0  0  0  0  0  0  0
  147.4083  161.0032  133.1585 H   0  0  0  0  0  0  0  0  0  0  0  0
  144.8707  162.2031  133.6877 H   0  0  0  0  0  0  0  0  0  0  0  0
  142.4613  161.6617  134.1702 H   0  0  0  0  0  0  0  0  0  0  0  0
  140.1565  159.8238  132.7564 H   0  0  0  0  0  0  0  0  0  0  0  0
  140.9411  158.2109  132.5531 H   0  0  0  0  0  0  0  0  0  0  0  0
  138.4987  158.9603  134.2103 H   0  0  0  0  0  0  0  0  0  0  0  0
  138.6890  157.6600  132.9754 H   0  0  0  0  0  0  0  0  0  0  0  0
  140.2220  156.5590  134.4660 H   0  0  0  0  0  0  0  0  0  0  0  0
  139.3072  158.1116  136.7544 H   0  0  0  0  0  0  0  0  0  0  0  0
  140.8621  157.1946  136.4534 H   0  0  0  0  0  0  0  0  0  0  0  0
  140.1649  160.0517  135.8525 H   0  0  0  0  0  0  0  0  0  0  0  0
  141.7069  159.3097  136.4242 H   0  0  0  0  0  0  0  0  0  0  0  0
  143.3575  157.4053  133.8767 H   0  0  0  0  0  0  0  0  0  0  0  0
  1  2  1  0
  2  3  1  0
  3  4  1  0
  4  5  1  0
  5  6  1  0
  6  7  2  0
  6  8  1  0
  8  9  1  0
  9 10  1  0
 10 11  1  0
 10 12  2  0
  9 13  2  0
 13 14  1  0
 14 15  2  0
 15 16  1  0
 16 17  2  0
 17 18  1  0
 18 19  1  0
 19 20  1  0
 20 21  1  0
 21 22  1  0
 22 23  1  0
 17 24  1  0
 24 25  2  0
 25  8  1  0
 25 14  1  0
 23 18  1  0
  1 26  1  0
  1 27  1  0
  1 28  1  0
  3 29  1  0
  3 30  1  0
  4 31  1  0
  4 32  1  0
 11 33  1  0
 11 34  1  0
 13 35  1  0
 15 36  1  0
 16 37  1  0
 19 38  1  0
 19 39  1  0
 20 40  1  0
 20 41  1  0
 21 42  1  0
 22 43  1  0
 22 44  1  0
 23 45  1  0
 23 46  1  0
 24 47  1  0
M  END
>  <UniqueID>  (70) 
70

>  <SMILES>  (70) 
COCCOC(=O)n1c(C(N)=O)cc2ccc(N3CCNCC3)cc21

>  <Energy>  (70) 
93.58544028817626

>  <Genealogy>  (70) 
COCCOC(=O)n1c(C(N)=O)cc2ccc(N3CCNCC3)cc21 (3D coordinates assigned)
COCCOC(=O)n1c(C(N)=O)cc2ccc(N3CCNCC3)cc21 (nonaromatic ring conformer: 93.58544028817626 kcal/mol)

>  <smiles>  (70) 
COCCOC(=O)n1c(C(N)=O)cc2ccc(N3CCNCC3)cc21

>  <score_type>  (70) 
oracle

>  <origin>  (70) 
adg

>  <m_score__min__energy>  (70) 
-7.04

>  <m_primary>  (70) 
energy

$$$$
70:0
     RDKit          3D

 27 28  0  0  0  0  0  0  0  0999 V2000
  142.7150  160.4250  133.3720 N   0  0  0  0  0  0  0  0  0  0  0  0
  144.0670  160.7640  133.6700 C   0  0  0  0  0  0  0  0  0  0  0  0
  144.3330  161.9160  134.1050 O   0  0  0  0  0  0  0  0  0  0  0  0
  145.1360  159.7590  133.4890 C   0  0  0  0  0  0  0  0  0  0  0  0
  146.4930  160.0720  133.4350 C   0  0  0  0  0  0  0  0  0  0  0  0
  147.1350  158.8730  133.2190 C   0  0  0  0  0  0  0  0  0  0  0  0
  148.4930  158.5910  133.1010 C   0  0  0  0  0  0  0  0  0  0  0  0
  148.8740  157.2520  132.9110 C   0  0  0  0  0  0  0  0  0  0  0  0
  147.8980  156.2250  132.8510 C   0  0  0  0  0  0  0  0  0  0  0  0
  148.3110  154.7930  132.6660 C   0  0  0  0  0  0  0  0  0  0  0  0
  149.6300  154.7370  132.2570 F   0  0  0  0  0  0  0  0  0  0  0  0
  148.1740  154.1100  133.8620 F   0  0  0  0  0  0  0  0  0  0  0  0
  146.5300  156.5490  132.9810 C   0  0  0  0  0  0  0  0  0  0  0  0
  146.1790  157.8930  133.1500 C   0  0  0  0  0  0  0  0  0  0  0  0
  144.9460  158.4220  133.3090 N   0  0  0  0  0  0  0  0  0  0  0  0
  143.7030  157.7040  133.3470 C   0  0  0  0  0  0  0  0  0  0  0  0
  142.9740  157.6720  132.3190 O   0  0  0  0  0  0  0  0  0  0  0  0
  143.2580  156.9850  134.5850 C   0  0  0  0  0  0  0  0  0  0  0  0
  142.2440  156.1000  134.2690 F   0  0  0  0  0  0  0  0  0  0  0  0
  144.3240  156.2790  135.1120 F   0  0  0  0  0  0  0  0  0  0  0  0
  142.8040  157.8800  135.5350 F   0  0  0  0  0  0  0  0  0  0  0  0
  142.4850  159.7750  132.5890 H   0  0  0  0  0  0  0  0  0  0  0  0
  146.9533  161.0653  133.5421 H   0  0  0  0  0  0  0  0  0  0  0  0
  149.2450  159.3920  133.1549 H   0  0  0  0  0  0  0  0  0  0  0  0
  149.9393  156.9980  132.8078 H   0  0  0  0  0  0  0  0  0  0  0  0
  147.6697  154.3294  131.9020 H   0  0  0  0  0  0  0  0  0  0  0  0
  145.7594  155.7646  132.9502 H   0  0  0  0  0  0  0  0  0  0  0  0
  1  2  1  0
  2  3  2  0
  2  4  1  0
  4  5  2  0
  5  6  1  0
  6  7  2  0
  7  8  1  0
  8  9  2  0
  9 10  1  0
 10 11  1  0
 10 12  1  0
  9 13  1  0
 13 14  2  0
 14 15  1  0
 15 16  1  0
 16 17  2  0
 16 18  1  0
 18 19  1  0
 18 20  1  0
 18 21  1  0
 15  4  1  0
 14  6  1  0
  1 22  1  0
  5 23  1  0
  7 24  1  0
  8 25  1  0
 10 26  1  0
 13 27  1  0
M  CHG  1   1  -1
M  END
>  <UniqueID>  (71) 
71

>  <SMILES>  (71) 
[NH-]C(=O)c1cc2ccc(C(F)F)cc2n1C(=O)C(F)(F)F

>  <Energy>  (71) 
66.18203359930845

>  <Genealogy>  (71) 
[NH-]C(=O)c1cc2ccc(C(F)F)cc2n1C(=O)C(F)(F)F (protonated)
[NH-]C(=O)c1cc2ccc(C(F)F)cc2n1C(=O)C(F)(F)F (3D coordinates assigned)
[NH-]C(=O)c1cc2ccc(C(F)F)cc2n1C(=O)C(F)(F)F (optimized conformer: 66.18203359930845 kcal/mol)

>  <smiles>  (71) 
NC(=O)c1cc2ccc(C(F)F)cc2n1C(=O)C(F)(F)F

>  <score_type>  (71) 
oracle

>  <origin>  (71) 
adg

>  <m_score__min__energy>  (71) 
-4.8700000000000001

>  <m_primary>  (71) 
energy

$$$$
71:0
     RDKit          3D

 44 46  0  0  0  0  0  0  0  0999 V2000
  140.1670  150.3590  137.4760 C   0  0  0  0  0  0  0  0  0  0  0  0
  140.7790  151.1350  136.4550 O   0  0  0  0  0  0  0  0  0  0  0  0
  141.6260  152.2160  136.7310 C   0  0  0  0  0  0  0  0  0  0  0  0
  141.9200  152.4890  137.9260 O   0  0  0  0  0  0  0  0  0  0  0  0
  142.1460  153.0420  135.6100 C   0  0  0  0  0  0  0  0  0  0  0  0
  142.7060  154.2980  135.9060 C   0  0  0  0  0  0  0  0  0  0  0  0
  143.2200  155.1120  134.8950 C   0  0  0  0  0  0  0  0  0  0  0  0
  143.1900  154.6880  133.5580 C   0  0  0  0  0  0  0  0  0  0  0  0
  143.6880  155.5450  132.5110 N   0  0  0  0  0  0  0  0  0  0  0  0
  143.4620  156.9230  132.8670 C   0  0  0  0  0  0  0  0  0  0  0  0
  142.1380  157.4210  132.9900 C   0  0  0  0  0  0  0  0  0  0  0  0
  141.9060  158.7730  133.2900 C   0  0  0  0  0  0  0  0  0  0  0  0
  143.0090  159.6030  133.4610 C   0  0  0  0  0  0  0  0  0  0  0  0
  143.0690  160.9520  133.7210 C   0  0  0  0  0  0  0  0  0  0  0  0
  144.4270  161.2600  133.7700 C   0  0  0  0  0  0  0  0  0  0  0  0
  144.9450  162.6010  134.1110 C   0  0  0  0  0  0  0  0  0  0  0  0
  146.0820  162.7560  134.9550 N   0  0  0  0  0  0  0  0  0  0  0  0
  144.3450  163.6270  133.6900 O   0  0  0  0  0  0  0  0  0  0  0  0
  145.1790  160.1450  133.5380 N   0  0  0  0  0  0  0  0  0  0  0  0
  146.6060  160.0530  133.4120 C   0  0  0  0  0  0  0  0  0  0  0  0
  147.2680  161.0450  133.0000 O   0  0  0  0  0  0  0  0  0  0  0  0
  147.2540  158.8530  133.7220 O   0  0  0  0  0  0  0  0  0  0  0  0
  148.5260  158.5080  133.1860 C   0  0  0  0  0  0  0  0  0  0  0  0
  144.2950  159.1390  133.3550 C   0  0  0  0  0  0  0  0  0  0  0  0
  144.5570  157.8010  133.0400 C   0  0  0  0  0  0  0  0  0  0  0  0
  142.6200  153.4440  133.2500 C   0  0  0  0  0  0  0  0  0  0  0  0
  142.1000  152.6210  134.2560 C   0  0  0  0  0  0  0  0  0  0  0  0
  141.3620  151.1040  133.7470 Cl  0  0  0  0  0  0  0  0  0  0  0  0
  140.4705  150.7439  138.4608 H   0  0  0  0  0  0  0  0  0  0  0  0
  139.0731  150.4224  137.3788 H   0  0  0  0  0  0  0  0  0  0  0  0
  140.4836  149.3100  137.3788 H   0  0  0  0  0  0  0  0  0  0  0  0
  142.7394  154.6439  136.9497 H   0  0  0  0  0  0  0  0  0  0  0  0
  143.6512  156.0918  135.1482 H   0  0  0  0  0  0  0  0  0  0  0  0
  143.2080  155.3250  131.6060 H   0  0  0  0  0  0  0  0  0  0  0  0
  144.7090  155.3730  132.3610 H   0  0  0  0  0  0  0  0  0  0  0  0
  141.2852  156.7407  132.8488 H   0  0  0  0  0  0  0  0  0  0  0  0
  140.8825  159.1641  133.3869 H   0  0  0  0  0  0  0  0  0  0  0  0
  142.2238  161.6419  133.8607 H   0  0  0  0  0  0  0  0  0  0  0  0
  147.0120  162.3680  134.6790 H   0  0  0  0  0  0  0  0  0  0  0  0
  149.2309  158.3168  134.0086 H   0  0  0  0  0  0  0  0  0  0  0  0
  148.4302  157.6034  132.5675 H   0  0  0  0  0  0  0  0  0  0  0  0
  148.9004  159.3370  132.5675 H   0  0  0  0  0  0  0  0  0  0  0  0
  145.5904  157.4406  132.9295 H   0  0  0  0  0  0  0  0  0  0  0  0
  142.5810  153.1102  132.2026 H   0  0  0  0  0  0  0  0  0  0  0  0
  1  2  1  0
  2  3  1  0
  3  4  2  0
  3  5  1  0
  5  6  2  0
  6  7  1  0
  7  8  2  0
  8  9  1  0
  9 10  1  0
 10 11  2  0
 11 12  1  0
 12 13  2  0
 13 14  1  0
 14 15  2  0
 15 16  1  0
 16 17  1  0
 16 18  2  0
 15 19  1  0
 19 20  1  0
 20 21  2  0
 20 22  1  0
 22 23  1  0
 19 24  1  0
 24 25  2  0
  8 26  1  0
 26 27  2  0
 27 28  1  0
 27  5  1  0
 25 10  1  0
 24 13  1  0
  1 29  1  0
  1 30  1  0
  1 31  1  0
  6 32  1  0
  7 33  1  0
  9 34  1  0
  9 35  1  0
 11 36  1  0
 12 37  1  0
 14 38  1  0
 17 39  1  0
 23 40  1  0
 23 41  1  0
 23 42  1  0
 25 43  1  0
 26 44  1  0
M  CHG  2   9   1  17  -1
M  END
>  <UniqueID>  (72) 
72

>  <SMILES>  (72) 
COC(=O)c1ccc([NH2+]c2ccc3cc(C([NH-])=O)n(C(=O)OC)c3c2)cc1Cl

>  <Energy>  (72) 
87.2741285299001

>  <Genealogy>  (72) 
COC(=O)c1ccc([NH2+]c2ccc3cc(C([NH-])=O)n(C(=O)OC)c3c2)cc1Cl (protonated)
COC(=O)c1ccc([NH2+]c2ccc3cc(C([NH-])=O)n(C(=O)OC)c3c2)cc1Cl (3D coordinates assigned)
COC(=O)c1ccc([NH2+]c2ccc3cc(C([NH-])=O)n(C(=O)OC)c3c2)cc1Cl (optimized conformer: 87.2741285299001 kcal/mol)

>  <smiles>  (72) 
COC(=O)c1ccc(Nc2ccc3cc(C(N)=O)n(C(=O)OC)c3c2)cc1Cl

>  <score_type>  (72) 
oracle

>  <origin>  (72) 
adg

>  <m_score__min__energy>  (72) 
-7.4800000000000004

>  <m_primary>  (72) 
energy

$$$$
72:0
     RDKit          3D

 32 33  0  0  0  0  0  0  0  0999 V2000
  147.1260  160.9170  133.3730 N   0  0  0  0  0  0  0  0  0  0  0  0
  146.1950  159.8460  133.2100 C   0  0  0  0  0  0  0  0  0  0  0  0
  144.9630  160.1040  133.1420 O   0  0  0  0  0  0  0  0  0  0  0  0
  146.6430  158.4400  133.1900 C   0  0  0  0  0  0  0  0  0  0  0  0
  145.8940  157.3910  133.7140 C   0  0  0  0  0  0  0  0  0  0  0  0
  146.6800  156.2730  133.5610 C   0  0  0  0  0  0  0  0  0  0  0  0
  146.4190  154.9460  133.8940 C   0  0  0  0  0  0  0  0  0  0  0  0
  147.3940  153.9850  133.5820 C   0  0  0  0  0  0  0  0  0  0  0  0
  148.6010  154.3620  132.9420 C   0  0  0  0  0  0  0  0  0  0  0  0
  149.6180  153.3130  132.5780 C   0  0  0  0  0  0  0  0  0  0  0  0
  149.0180  151.8980  132.5540 C   0  0  0  0  0  0  0  0  0  0  0  0
  149.9090  150.8500  133.2370 C   0  0  0  0  0  0  0  0  0  0  0  0
  149.6150  150.7490  134.6050 O   0  0  0  0  0  0  0  0  0  0  0  0
  148.8290  155.7190  132.6170 C   0  0  0  0  0  0  0  0  0  0  0  0
  147.8490  156.6590  132.9560 C   0  0  0  0  0  0  0  0  0  0  0  0
  147.8400  157.9910  132.7180 N   0  0  0  0  0  0  0  0  0  0  0  0
  148.8290  158.7450  131.9950 C   0  0  0  0  0  0  0  0  0  0  0  0
  149.6100  159.5230  132.6040 O   0  0  0  0  0  0  0  0  0  0  0  0
  148.9380  158.6170  130.6160 O   0  0  0  0  0  0  0  0  0  0  0  0
  146.7950  161.9070  133.3500 H   0  0  0  0  0  0  0  0  0  0  0  0
  148.1270  160.7300  133.5970 H   0  0  0  0  0  0  0  0  0  0  0  0
  144.8882  157.4445  134.1561 H   0  0  0  0  0  0  0  0  0  0  0  0
  145.4779  154.6596  134.3863 H   0  0  0  0  0  0  0  0  0  0  0  0
  147.2193  152.9293  133.8368 H   0  0  0  0  0  0  0  0  0  0  0  0
  150.0209  153.5428  131.5806 H   0  0  0  0  0  0  0  0  0  0  0  0
  150.4063  153.3299  133.3450 H   0  0  0  0  0  0  0  0  0  0  0  0
  148.0472  151.9214  133.0707 H   0  0  0  0  0  0  0  0  0  0  0  0
  148.9182  151.6037  131.4988 H   0  0  0  0  0  0  0  0  0  0  0  0
  149.7427  149.8724  132.7610 H   0  0  0  0  0  0  0  0  0  0  0  0
  150.9586  151.1605  133.1280 H   0  0  0  0  0  0  0  0  0  0  0  0
  148.6830  150.4130  134.6720 H   0  0  0  0  0  0  0  0  0  0  0  0
  149.7546  156.0286  132.1098 H   0  0  0  0  0  0  0  0  0  0  0  0
  1  2  1  0
  2  3  2  0
  2  4  1  0
  4  5  2  0
  5  6  1  0
  6  7  2  0
  7  8  1  0
  8  9  2  0
  9 10  1  0
 10 11  1  0
 11 12  1  0
 12 13  1  0
  9 14  1  0
 14 15  2  0
 15 16  1  0
 16 17  1  0
 17 18  2  0
 17 19  1  0
 16  4  1  0
 15  6  1  0
  1 20  1  0
  1 21  1  0
  5 22  1  0
  7 23  1  0
  8 24  1  0
 10 25  1  0
 10 26  1  0
 11 27  1  0
 11 28  1  0
 12 29  1  0
 12 30  1  0
 13 31  1  0
 14 32  1  0
M  CHG  1  19  -1
M  END
>  <UniqueID>  (73) 
73

>  <SMILES>  (73) 
NC(=O)c1cc2ccc(CCCO)cc2n1C(=O)[O-]

>  <Energy>  (73) 
68.20797517189244

>  <Genealogy>  (73) 
NC(=O)c1cc2ccc(CCCO)cc2n1C(=O)[O-] (protonated)
NC(=O)c1cc2ccc(CCCO)cc2n1C(=O)[O-] (3D coordinates assigned)
NC(=O)c1cc2ccc(CCCO)cc2n1C(=O)[O-] (optimized conformer: 68.20797517189244 kcal/mol)

>  <smiles>  (73) 
NC(=O)c1cc2ccc(CCCO)cc2n1C(=O)O

>  <score_type>  (73) 
oracle

>  <origin>  (73) 
adg

>  <m_score__min__energy>  (73) 
-6.2800000000000002

>  <m_primary>  (73) 
energy

$$$$
73:0
     RDKit          3D

 56 58  0  0  0  0  0  0  0  0999 V2000
  150.0030  158.8650  131.5490 C   0  0  0  0  0  0  0  0  0  0  0  0
  148.9300  159.9110  131.8720 C   0  0  1  0  0  0  0  0  0  0  0  0
  148.5720  160.7300  130.6610 C   0  0  0  0  0  0  0  0  0  0  0  0
  148.0450  160.1930  129.6500 O   0  0  0  0  0  0  0  0  0  0  0  0
  148.7850  162.1030  130.6690 O   0  0  0  0  0  0  0  0  0  0  0  0
  147.6910  159.2710  132.4690 C   0  0  0  0  0  0  0  0  0  0  0  0
  146.5610  160.0720  132.7760 C   0  0  0  0  0  0  0  0  0  0  0  0
  145.4100  159.5030  133.3440 C   0  0  0  0  0  0  0  0  0  0  0  0
  145.4080  158.1330  133.5850 C   0  0  0  0  0  0  0  0  0  0  0  0
  144.4490  157.3390  134.1720 C   0  0  0  0  0  0  0  0  0  0  0  0
  144.9930  156.0570  134.1880 C   0  0  0  0  0  0  0  0  0  0  0  0
  144.2800  154.8750  134.7120 C   0  0  0  0  0  0  0  0  0  0  0  0
  144.9360  153.9280  135.5560 N   0  0  0  0  0  0  0  0  0  0  0  0
  143.0860  154.6700  134.3670 O   0  0  0  0  0  0  0  0  0  0  0  0
  146.2400  156.0570  133.6380 N   0  0  0  0  0  0  0  0  0  0  0  0
  147.1790  154.9720  133.6070 C   0  0  0  0  0  0  0  0  0  0  0  0
  148.4130  155.2100  133.5020 O   0  0  0  0  0  0  0  0  0  0  0  0
  146.7190  153.6540  133.7140 O   0  0  0  0  0  0  0  0  0  0  0  0
  146.2770  152.8790  132.5990 C   0  0  0  0  0  0  0  0  0  0  0  0
  147.1840  151.6620  132.3800 C   0  0  0  0  0  0  0  0  0  0  0  0
  148.6650  151.9760  132.6390 C   0  0  0  0  0  0  0  0  0  0  0  0
  149.2970  150.9340  133.5660 C   0  0  0  0  0  0  0  0  0  0  0  0
  149.8750  151.5660  134.7070 O   0  0  0  0  0  0  0  0  0  0  0  0
  149.5100  151.2670  136.0230 C   0  0  0  0  0  0  0  0  0  0  0  0
  148.9640  150.1640  136.3020 O   0  0  0  0  0  0  0  0  0  0  0  0
  149.7680  152.2320  137.0500 N   0  0  0  0  0  0  0  0  0  0  0  0
  148.7610  152.8440  137.9190 C   0  0  2  0  0  0  0  0  0  0  0  0
  148.0590  151.8060  138.8240 C   0  0  0  0  0  0  0  0  0  0  0  0
  146.6220  151.9480  138.4420 C   0  0  0  0  0  0  0  0  0  0  0  0
  145.6900  151.2780  138.9560 O   0  0  0  0  0  0  0  0  0  0  0  0
  146.4110  152.8930  137.4590 O   0  0  0  0  0  0  0  0  0  0  0  0
  147.6360  153.4330  137.1300 C   0  0  0  0  0  0  0  0  0  0  0  0
  147.7750  154.3360  136.2640 O   0  0  0  0  0  0  0  0  0  0  0  0
  146.4800  157.3380  133.2750 C   0  0  0  0  0  0  0  0  0  0  0  0
  147.6480  157.8790  132.7280 C   0  0  0  0  0  0  0  0  0  0  0  0
  150.4161  158.4623  132.4855 H   0  0  0  0  0  0  0  0  0  0  0  0
  149.5545  158.0479  130.9648 H   0  0  0  0  0  0  0  0  0  0  0  0
  150.8084  159.3342  130.9648 H   0  0  0  0  0  0  0  0  0  0  0  0
  149.3592  160.5889  132.6245 H   0  0  0  0  0  0  0  0  0  0  0  0
  146.5870  161.1516  132.5666 H   0  0  0  0  0  0  0  0  0  0  0  0
  144.5353  160.1225  133.5912 H   0  0  0  0  0  0  0  0  0  0  0  0
  143.4634  157.6505  134.5481 H   0  0  0  0  0  0  0  0  0  0  0  0
  145.9660  153.9730  135.7210 H   0  0  0  0  0  0  0  0  0  0  0  0
  144.4020  153.1240  135.9550 H   0  0  0  0  0  0  0  0  0  0  0  0
  145.2499  152.5328  132.7864 H   0  0  0  0  0  0  0  0  0  0  0  0
  146.3135  153.5093  131.6982 H   0  0  0  0  0  0  0  0  0  0  0  0
  146.8689  150.8600  133.0638 H   0  0  0  0  0  0  0  0  0  0  0  0
  147.0866  151.3585  131.3272 H   0  0  0  0  0  0  0  0  0  0  0  0
  149.2045  151.9780  131.6804 H   0  0  0  0  0  0  0  0  0  0  0  0
  148.7330  152.9610  133.1238 H   0  0  0  0  0  0  0  0  0  0  0  0
  148.5223  150.2269  133.8974 H   0  0  0  0  0  0  0  0  0  0  0  0
  150.0866  150.4008  133.0163 H   0  0  0  0  0  0  0  0  0  0  0  0
  149.3207  153.5942  138.4969 H   0  0  0  0  0  0  0  0  0  0  0  0
  148.4248  150.7893  138.6176 H   0  0  0  0  0  0  0  0  0  0  0  0
  148.2418  151.9703  139.8962 H   0  0  0  0  0  0  0  0  0  0  0  0
  148.5135  157.2381  132.5040 H   0  0  0  0  0  0  0  0  0  0  0  0
  1  2  1  0
  2  3  1  0
  3  4  2  0
  3  5  1  0
  2  6  1  0
  6  7  2  0
  7  8  1  0
  8  9  2  0
  9 10  1  0
 10 11  2  0
 11 12  1  0
 12 13  1  0
 12 14  2  0
 11 15  1  0
 15 16  1  0
 16 17  2  0
 16 18  1  0
 18 19  1  0
 19 20  1  0
 20 21  1  0
 21 22  1  0
 22 23  1  0
 23 24  1  0
 24 25  2  0
 24 26  1  0
 26 27  1  0
 27 28  1  0
 28 29  1  0
 29 30  2  0
 29 31  1  0
 31 32  1  0
 32 33  2  0
 15 34  1  0
 34 35  2  0
 35  6  1  0
 34  9  1  0
 32 27  1  0
  1 36  1  0
  1 37  1  0
  1 38  1  0
  2 39  1  1
  7 40  1  0
  8 41  1  0
 10 42  1  0
 13 43  1  0
 13 44  1  0
 19 45  1  0
 19 46  1  0
 20 47  1  0
 20 48  1  0
 21 49  1  0
 21 50  1  0
 22 51  1  0
 22 52  1  0
 27 53  1  1
 28 54  1  0
 28 55  1  0
 35 56  1  0
M  CHG  2   5  -1  26  -1
M  END
>  <UniqueID>  (74) 
74

>  <SMILES>  (74) 
C[C@@H](C(=O)[O-])c1ccc2cc(C(N)=O)n(C(=O)OCCCCOC(=O)[N-][C@@H]3CC(=O)OC3=O)c2c1

>  <Energy>  (74) 
95.37635465137815

>  <Genealogy>  (74) 
CC(C(=O)[O-])c1ccc2cc(C(N)=O)n(C(=O)OCCCCOC(=O)[N-]C3CC(=O)OC3=O)c2c1 (protonated)
C[C@@H](C(=O)[O-])c1ccc2cc(C(N)=O)n(C(=O)OCCCCOC(=O)[N-][C@@H]3CC(=O)OC3=O)c2c1 (chirality)
C[C@@H](C(=O)[O-])c1ccc2cc(C(N)=O)n(C(=O)OCCCCOC(=O)[N-][C@@H]3CC(=O)OC3=O)c2c1 (3D coordinates assigned)
C[C@@H](C(=O)[O-])c1ccc2cc(C(N)=O)n(C(=O)OCCCCOC(=O)[N-][C@@H]3CC(=O)OC3=O)c2c1 (nonaromatic ring conformer: 95.37635465137815 kcal/mol)

>  <smiles>  (74) 
CC(C(=O)O)c1ccc2cc(C(N)=O)n(C(=O)OCCCCOC(=O)NC3CC(=O)OC3=O)c2c1

>  <score_type>  (74) 
oracle

>  <origin>  (74) 
adg

>  <m_score__min__energy>  (74) 
-8.2699999999999996

>  <m_primary>  (74) 
energy

$$$$
74:0
     RDKit          3D

 31 33  0  0  0  0  0  0  0  0999 V2000
  143.2560  160.8560  133.3670 N   0  0  0  0  0  0  0  0  0  0  0  0
  144.6350  160.8960  133.7260 C   0  0  0  0  0  0  0  0  0  0  0  0
  145.0870  161.9060  134.3300 O   0  0  0  0  0  0  0  0  0  0  0  0
  145.5250  159.7480  133.4540 C   0  0  0  0  0  0  0  0  0  0  0  0
  146.8830  159.8820  133.1750 C   0  0  0  0  0  0  0  0  0  0  0  0
  147.3640  158.5970  133.0780 C   0  0  0  0  0  0  0  0  0  0  0  0
  148.6500  158.1410  132.8060 C   0  0  0  0  0  0  0  0  0  0  0  0
  148.8570  156.7540  132.7380 C   0  0  0  0  0  0  0  0  0  0  0  0
  147.7820  155.8470  132.9340 C   0  0  0  0  0  0  0  0  0  0  0  0
  148.0130  154.3830  132.8470 C   0  0  0  0  0  0  0  0  0  0  0  0
  146.9490  153.4750  132.9930 C   0  0  0  0  0  0  0  0  0  0  0  0
  147.1710  152.1350  132.9110 N   0  0  0  0  0  0  0  0  0  0  0  0
  148.4140  151.6310  132.6880 C   0  0  0  0  0  0  0  0  0  0  0  0
  149.5020  152.4910  132.5380 C   0  0  0  0  0  0  0  0  0  0  0  0
  150.7430  151.9920  132.3210 F   0  0  0  0  0  0  0  0  0  0  0  0
  149.3010  153.8690  132.6170 C   0  0  0  0  0  0  0  0  0  0  0  0
  146.4890  156.3530  133.2080 C   0  0  0  0  0  0  0  0  0  0  0  0
  146.3160  157.7390  133.2890 C   0  0  0  0  0  0  0  0  0  0  0  0
  145.1760  158.4310  133.5190 N   0  0  0  0  0  0  0  0  0  0  0  0
  143.8610  157.8790  133.6890 C   0  0  0  0  0  0  0  0  0  0  0  0
  143.5590  157.2710  134.7490 O   0  0  0  0  0  0  0  0  0  0  0  0
  142.9200  157.9860  132.6730 O   0  0  0  0  0  0  0  0  0  0  0  0
  142.9030  160.1670  132.6680 H   0  0  0  0  0  0  0  0  0  0  0  0
  147.4504  160.8170  133.0572 H   0  0  0  0  0  0  0  0  0  0  0  0
  149.4797  158.8460  132.6489 H   0  0  0  0  0  0  0  0  0  0  0  0
  149.8647  156.3649  132.5303 H   0  0  0  0  0  0  0  0  0  0  0  0
  145.9311  153.8503  133.1746 H   0  0  0  0  0  0  0  0  0  0  0  0
  146.3660  151.4770  133.0180 H   0  0  0  0  0  0  0  0  0  0  0  0
  148.5619  150.5428  132.6258 H   0  0  0  0  0  0  0  0  0  0  0  0
  150.1525  154.5553  132.4990 H   0  0  0  0  0  0  0  0  0  0  0  0
  145.6383  155.6712  133.3541 H   0  0  0  0  0  0  0  0  0  0  0  0
  1  2  1  0
  2  3  2  0
  2  4  1  0
  4  5  2  0
  5  6  1  0
  6  7  2  0
  7  8  1  0
  8  9  2  0
  9 10  1  0
 10 11  2  0
 11 12  1  0
 12 13  2  0
 13 14  1  0
 14 15  1  0
 14 16  2  0
  9 17  1  0
 17 18  2  0
 18 19  1  0
 19 20  1  0
 20 21  2  0
 20 22  1  0
 19  4  1  0
 18  6  1  0
 16 10  1  0
  1 23  1  0
  5 24  1  0
  7 25  1  0
  8 26  1  0
 11 27  1  0
 12 28  1  0
 13 29  1  0
 16 30  1  0
 17 31  1  0
M  CHG  3   1  -1  12   1  22  -1
M  END
>  <UniqueID>  (75) 
75

>  <SMILES>  (75) 
[NH-]C(=O)c1cc2ccc(-c3c[nH+]cc(F)c3)cc2n1C(=O)[O-]

>  <Energy>  (75) 
79.13144829274653

>  <Genealogy>  (75) 
[NH-]C(=O)c1cc2ccc(-c3c[nH+]cc(F)c3)cc2n1C(=O)[O-] (protonated)
[NH-]C(=O)c1cc2ccc(-c3c[nH+]cc(F)c3)cc2n1C(=O)[O-] (3D coordinates assigned)
[NH-]C(=O)c1cc2ccc(-c3c[nH+]cc(F)c3)cc2n1C(=O)[O-] (optimized conformer: 79.13144829274653 kcal/mol)

>  <smiles>  (75) 
NC(=O)c1cc2ccc(-c3cncc(F)c3)cc2n1C(=O)O

>  <score_type>  (75) 
oracle

>  <origin>  (75) 
adg

>  <m_score__min__energy>  (75) 
-6.8099999999999996

>  <m_primary>  (75) 
energy

$$$$
75:0
     RDKit          3D

 45 46  0  0  0  0  0  0  0  0999 V2000
  147.2210  152.3310  133.8950 H   0  0  0  0  0  0  0  0  0  0  0  0
  147.8100  153.0150  134.3520 O   0  0  0  0  0  0  0  0  0  0  0  0
  148.0580  154.2690  133.8280 N   0  0  0  0  0  0  0  0  0  0  0  0
  148.9050  154.5380  132.8740 C   0  0  0  0  0  0  0  0  0  0  0  0
  149.7680  153.5290  132.3260 N   0  0  0  0  0  0  0  0  0  0  0  0
  150.3660  153.7570  131.4980 H   0  0  0  0  0  0  0  0  0  0  0  0
  149.9190  152.6020  132.7780 H   0  0  0  0  0  0  0  0  0  0  0  0
  149.0350  155.8870  132.3950 N   0  0  0  0  0  0  0  0  0  0  0  0
  149.8960  156.1310  131.8520 H   0  0  0  0  0  0  0  0  0  0  0  0
  148.1280  156.9530  132.7320 C   0  0  0  0  0  0  0  0  0  0  0  0
  148.6280  158.2680  132.8740 C   0  0  0  0  0  0  0  0  0  0  0  0
  149.7026  158.4583  132.7362 H   0  0  0  0  0  0  0  0  0  0  0  0
  147.7690  159.3350  133.1890 C   0  0  0  0  0  0  0  0  0  0  0  0
  148.1546  160.3584  133.3076 H   0  0  0  0  0  0  0  0  0  0  0  0
  146.4150  159.0550  133.3460 C   0  0  0  0  0  0  0  0  0  0  0  0
  145.3640  159.9030  133.6150 C   0  0  0  0  0  0  0  0  0  0  0  0
  145.4091  160.9889  133.7849 H   0  0  0  0  0  0  0  0  0  0  0  0
  144.2330  159.0930  133.6260 C   0  0  0  0  0  0  0  0  0  0  0  0
  142.8790  159.5930  133.9420 C   0  0  0  0  0  0  0  0  0  0  0  0
  142.6410  160.0470  135.0940 O   0  0  0  0  0  0  0  0  0  0  0  0
  141.8160  159.5010  132.9910 N   0  0  0  0  0  0  0  0  0  0  0  0
  141.9380  158.9810  132.0940 H   0  0  0  0  0  0  0  0  0  0  0  0
  140.8730  159.8840  133.2210 H   0  0  0  0  0  0  0  0  0  0  0  0
  144.5640  157.7970  133.3610 N   0  0  0  0  0  0  0  0  0  0  0  0
  143.6590  156.7020  133.1340 C   0  0  0  0  0  0  0  0  0  0  0  0
  144.0730  155.5120  133.2050 O   0  0  0  0  0  0  0  0  0  0  0  0
  142.3290  156.9660  132.7920 O   0  0  0  0  0  0  0  0  0  0  0  0
  141.2130  156.3220  133.4050 C   0  0  0  0  0  0  0  0  0  0  0  0
  141.1810  156.5933  134.4706 H   0  0  0  0  0  0  0  0  0  0  0  0
  141.3273  155.2341  133.2893 H   0  0  0  0  0  0  0  0  0  0  0  0
  139.9010  156.7510  132.7380 C   0  0  0  0  0  0  0  0  0  0  0  0
  139.0922  156.0802  133.0632 H   0  0  0  0  0  0  0  0  0  0  0  0
  140.0198  156.6958  131.6458 H   0  0  0  0  0  0  0  0  0  0  0  0
  139.5640  158.1410  133.1160 N   0  0  0  0  0  0  0  0  0  0  0  0
  138.5190  158.6790  132.2300 C   0  0  0  0  0  0  0  0  0  0  0  0
  137.7036  159.0988  132.8374 H   0  0  0  0  0  0  0  0  0  0  0  0
  138.9473  159.4687  131.5952 H   0  0  0  0  0  0  0  0  0  0  0  0
  138.1251  157.8716  131.5952 H   0  0  0  0  0  0  0  0  0  0  0  0
  139.1090  158.2120  134.5170 C   0  0  0  0  0  0  0  0  0  0  0  0
  139.9693  158.0778  135.1892 H   0  0  0  0  0  0  0  0  0  0  0  0
  138.6476  159.1930  134.7034 H   0  0  0  0  0  0  0  0  0  0  0  0
  138.3707  157.4182  134.7034 H   0  0  0  0  0  0  0  0  0  0  0  0
  145.9070  157.7890  133.2010 C   0  0  0  0  0  0  0  0  0  0  0  0
  146.7400  156.7120  132.8710 C   0  0  0  0  0  0  0  0  0  0  0  0
  146.3256  155.7038  132.7235 H   0  0  0  0  0  0  0  0  0  0  0  0
  1  2  1  0
  2  3  1  0
  3  4  2  0
  4  5  1  0
  5  6  1  0
  5  7  1  0
  4  8  1  0
  8  9  1  0
  8 10  1  0
 10 11  2  0
 11 12  1  0
 11 13  1  0
 13 14  1  0
 13 15  2  0
 15 16  1  0
 16 17  1  0
 16 18  2  0
 18 19  1  0
 19 20  2  0
 19 21  1  0
 21 22  1  0
 21 23  1  0
 18 24  1  0
 24 25  1  0
 25 26  2  0
 25 27  1  0
 27 28  1  0
 28 29  1  0
 28 30  1  0
 28 31  1  0
 31 32  1  0
 31 33  1  0
 31 34  1  0
 34 35  1  0
 35 36  1  0
 35 37  1  0
 35 38  1  0
 34 39  1  0
 39 40  1  0
 39 41  1  0
 39 42  1  0
 24 43  1  0
 43 44  2  0
 44 45  1  0
 44 10  1  0
 43 15  1  0
M  END
>  <UniqueID>  (76) 
76

>  <SMILES>  (76) 
CN(C)CCOC(=O)n1c(C(N)=O)cc2ccc(N/C(N)=N/O)cc21

>  <Energy>  (76) 
87.1650338608241

>  <Genealogy>  (76) 
CN(C)CCOC(=O)n1c(C(N)=O)cc2ccc(N/C(N)=N/O)cc21 (cis-trans isomerization)
CN(C)CCOC(=O)n1c(C(N)=O)cc2ccc(N/C(N)=N/O)cc21 (3D coordinates assigned)
CN(C)CCOC(=O)n1c(C(N)=O)cc2ccc(N/C(N)=N/O)cc21 (optimized conformer: 87.1650338608241 kcal/mol)

>  <smiles>  (76) 
CN(C)CCOC(=O)n1c(C(N)=O)cc2ccc(N/C(N)=N/O)cc21

>  <score_type>  (76) 
oracle

>  <origin>  (76) 
adg

>  <m_score__min__energy>  (76) 
-8.1799999999999997

>  <m_primary>  (76) 
energy

$$$$
76:0
     RDKit          3D

 41 42  0  0  0  0  0  0  0  0999 V2000
  148.1080  154.6270  132.6180 C   0  0  0  0  0  0  0  0  0  0  0  0
  147.7630  156.0420  132.5640 N   0  0  0  0  0  0  0  0  0  0  0  0
  146.8380  156.6300  133.4870 C   0  0  0  0  0  0  0  0  0  0  0  0
  146.3380  155.9350  134.4120 O   0  0  0  0  0  0  0  0  0  0  0  0
  146.4700  158.0110  133.3550 N   0  0  0  0  0  0  0  0  0  0  0  0
  147.2720  159.0610  133.0210 C   0  0  0  0  0  0  0  0  0  0  0  0
  148.6820  158.9720  132.5840 C   0  0  0  0  0  0  0  0  0  0  0  0
  149.0200  158.5040  131.2820 N   0  0  0  0  0  0  0  0  0  0  0  0
  149.6010  159.3500  133.3610 O   0  0  0  0  0  0  0  0  0  0  0  0
  146.5600  160.2580  133.0840 C   0  0  0  0  0  0  0  0  0  0  0  0
  145.2860  159.9040  133.4690 C   0  0  0  0  0  0  0  0  0  0  0  0
  144.1700  160.7000  133.7110 C   0  0  0  0  0  0  0  0  0  0  0  0
  142.9910  160.0670  134.1380 C   0  0  0  0  0  0  0  0  0  0  0  0
  142.9510  158.6620  134.3200 C   0  0  0  0  0  0  0  0  0  0  0  0
  141.6950  157.9980  134.8260 C   0  0  0  0  0  0  0  0  0  0  0  0
  140.4250  158.6790  134.2900 C   0  0  0  0  0  0  0  0  0  0  0  0
  139.6180  157.7950  133.3320 C   0  0  0  0  0  0  0  0  0  0  0  0
  138.4250  158.4970  132.8730 N   0  0  0  0  0  0  0  0  0  0  0  0
  138.3570  159.2360  131.6490 C   0  0  0  0  0  0  0  0  0  0  0  0
  139.5610  159.4150  130.7780 C   0  0  0  0  0  0  0  0  0  0  0  0
  137.2560  159.7330  131.2940 O   0  0  0  0  0  0  0  0  0  0  0  0
  144.1060  157.8890  134.0720 C   0  0  0  0  0  0  0  0  0  0  0  0
  145.2590  158.5430  133.6270 C   0  0  0  0  0  0  0  0  0  0  0  0
  148.1857  154.3083  133.6680 H   0  0  0  0  0  0  0  0  0  0  0  0
  147.3268  154.0396  132.1134 H   0  0  0  0  0  0  0  0  0  0  0  0
  149.0719  154.4651  132.1134 H   0  0  0  0  0  0  0  0  0  0  0  0
  148.2210  156.6450  131.8440 H   0  0  0  0  0  0  0  0  0  0  0  0
  149.1550  157.4850  131.0970 H   0  0  0  0  0  0  0  0  0  0  0  0
  146.9358  161.2697  132.8715 H   0  0  0  0  0  0  0  0  0  0  0  0
  144.2101  161.7905  133.5722 H   0  0  0  0  0  0  0  0  0  0  0  0
  142.0902  160.6674  134.3330 H   0  0  0  0  0  0  0  0  0  0  0  0
  141.6959  156.9459  134.5049 H   0  0  0  0  0  0  0  0  0  0  0  0
  141.6865  158.0803  135.9229 H   0  0  0  0  0  0  0  0  0  0  0  0
  139.7841  158.9432  135.1441 H   0  0  0  0  0  0  0  0  0  0  0  0
  140.7465  159.5643  133.7218 H   0  0  0  0  0  0  0  0  0  0  0  0
  140.2428  157.5370  132.4642 H   0  0  0  0  0  0  0  0  0  0  0  0
  139.3116  156.8817  133.8630 H   0  0  0  0  0  0  0  0  0  0  0  0
  140.4529  159.5476  131.4080 H   0  0  0  0  0  0  0  0  0  0  0  0
  139.6896  158.5261  130.1429 H   0  0  0  0  0  0  0  0  0  0  0  0
  139.4254  160.3029  130.1429 H   0  0  0  0  0  0  0  0  0  0  0  0
  144.0991  156.7997  134.2250 H   0  0  0  0  0  0  0  0  0  0  0  0
  1  2  1  0
  2  3  1  0
  3  4  2  0
  3  5  1  0
  5  6  1  0
  6  7  1  0
  7  8  1  0
  7  9  2  0
  6 10  2  0
 10 11  1  0
 11 12  2  0
 12 13  1  0
 13 14  2  0
 14 15  1  0
 15 16  1  0
 16 17  1  0
 17 18  1  0
 18 19  1  0
 19 20  1  0
 19 21  2  0
 14 22  1  0
 22 23  2  0
 23  5  1  0
 23 11  1  0
  1 24  1  0
  1 25  1  0
  1 26  1  0
  2 27  1  0
  8 28  1  0
 10 29  1  0
 12 30  1  0
 13 31  1  0
 15 32  1  0
 15 33  1  0
 16 34  1  0
 16 35  1  0
 17 36  1  0
 17 37  1  0
 20 38  1  0
 20 39  1  0
 20 40  1  0
 22 41  1  0
M  CHG  2   8  -1  18  -1
M  END
>  <UniqueID>  (77) 
77

>  <SMILES>  (77) 
CNC(=O)n1c(C([NH-])=O)cc2ccc(CCC[N-]C(C)=O)cc21

>  <Energy>  (77) 
69.18061282988857

>  <Genealogy>  (77) 
CNC(=O)n1c(C([NH-])=O)cc2ccc(CCC[N-]C(C)=O)cc21 (protonated)
CNC(=O)n1c(C([NH-])=O)cc2ccc(CCC[N-]C(C)=O)cc21 (3D coordinates assigned)
CNC(=O)n1c(C([NH-])=O)cc2ccc(CCC[N-]C(C)=O)cc21 (optimized conformer: 69.18061282988857 kcal/mol)

>  <smiles>  (77) 
CNC(=O)n1c(C(N)=O)cc2ccc(CCCNC(C)=O)cc21

>  <score_type>  (77) 
oracle

>  <origin>  (77) 
adg

>  <m_score__min__energy>  (77) 
-7.3700000000000001

>  <m_primary>  (77) 
energy

$$$$
77:0
     RDKit          3D

 38 40  0  0  0  0  0  0  0  0999 V2000
  140.6650  157.6090  137.5670 C   0  0  0  0  0  0  0  0  0  0  0  0
  139.6560  157.8230  136.5180 N   0  0  0  0  0  0  0  0  0  0  0  0
  140.1470  157.9190  135.1220 C   0  0  0  0  0  0  0  0  0  0  0  0
  141.5310  157.3840  134.9250 C   0  0  0  0  0  0  0  0  0  0  0  0
  142.1370  158.6710  134.5280 N   0  0  0  0  0  0  0  0  0  0  0  0
  143.4280  159.1570  134.1560 C   0  0  0  0  0  0  0  0  0  0  0  0
  143.6740  160.5490  134.1080 C   0  0  0  0  0  0  0  0  0  0  0  0
  144.9360  161.0390  133.7340 C   0  0  0  0  0  0  0  0  0  0  0  0
  145.9300  160.1130  133.4260 C   0  0  0  0  0  0  0  0  0  0  0  0
  147.2260  160.3090  133.0080 C   0  0  0  0  0  0  0  0  0  0  0  0
  147.7550  159.0320  132.8320 C   0  0  0  0  0  0  0  0  0  0  0  0
  149.1580  158.7770  132.4370 C   0  0  0  0  0  0  0  0  0  0  0  0
  149.6380  157.4480  132.2480 N   0  0  0  0  0  0  0  0  0  0  0  0
  149.9520  159.7450  132.2980 O   0  0  0  0  0  0  0  0  0  0  0  0
  146.8220  158.0830  133.1280 N   0  0  0  0  0  0  0  0  0  0  0  0
  146.9530  156.6580  133.0040 C   0  0  0  0  0  0  0  0  0  0  0  0
  147.0450  155.7870  134.2160 C   0  0  0  0  0  0  0  0  0  0  0  0
  146.9810  156.1280  131.8610 O   0  0  0  0  0  0  0  0  0  0  0  0
  145.7100  158.7600  133.4870 C   0  0  0  0  0  0  0  0  0  0  0  0
  144.4560  158.2460  133.8370 C   0  0  0  0  0  0  0  0  0  0  0  0
  140.7730  159.2140  134.6880 C   0  0  0  0  0  0  0  0  0  0  0  0
  140.1931  157.7091  138.5556 H   0  0  0  0  0  0  0  0  0  0  0  0
  141.0918  156.6003  137.4649 H   0  0  0  0  0  0  0  0  0  0  0  0
  141.4645  158.3575  137.4649 H   0  0  0  0  0  0  0  0  0  0  0  0
  139.1480  158.7100  136.7390 H   0  0  0  0  0  0  0  0  0  0  0  0
  139.2352  157.5221  134.6518 H   0  0  0  0  0  0  0  0  0  0  0  0
  141.9652  156.9769  135.8501 H   0  0  0  0  0  0  0  0  0  0  0  0
  141.6488  156.5381  134.2318 H   0  0  0  0  0  0  0  0  0  0  0  0
  142.8699  161.2540  134.3658 H   0  0  0  0  0  0  0  0  0  0  0  0
  145.1333  162.1201  133.6858 H   0  0  0  0  0  0  0  0  0  0  0  0
  147.7364  161.2700  132.8469 H   0  0  0  0  0  0  0  0  0  0  0  0
  149.0470  156.7250  131.7800 H   0  0  0  0  0  0  0  0  0  0  0  0
  146.9793  156.4094  135.1206 H   0  0  0  0  0  0  0  0  0  0  0  0
  146.2185  155.0611  134.2095 H   0  0  0  0  0  0  0  0  0  0  0  0
  148.0049  155.2498  134.2095 H   0  0  0  0  0  0  0  0  0  0  0  0
  144.2773  157.1609  133.8625 H   0  0  0  0  0  0  0  0  0  0  0  0
  140.7133  159.9959  135.4594 H   0  0  0  0  0  0  0  0  0  0  0  0
  140.3279  159.7241  133.8210 H   0  0  0  0  0  0  0  0  0  0  0  0
  1  2  1  0
  2  3  1  0
  3  4  1  0
  4  5  1  0
  5  6  1  0
  6  7  2  0
  7  8  1  0
  8  9  2  0
  9 10  1  0
 10 11  2  0
 11 12  1  0
 12 13  1  0
 12 14  2  0
 11 15  1  0
 15 16  1  0
 16 17  1  0
 16 18  2  0
 15 19  1  0
 19 20  2  0
  5 21  1  0
 21  3  1  0
 20  6  1  0
 19  9  1  0
  1 22  1  0
  1 23  1  0
  1 24  1  0
  2 25  1  0
  3 26  1  0
  4 27  1  0
  4 28  1  0
  7 29  1  0
  8 30  1  0
 10 31  1  0
 13 32  1  0
 17 33  1  0
 17 34  1  0
 17 35  1  0
 20 36  1  0
 21 37  1  0
 21 38  1  0
M  CHG  1  13  -1
M  END
>  <UniqueID>  (78) 
78

>  <SMILES>  (78) 
CNC1CN(c2ccc3cc(C([NH-])=O)n(C(C)=O)c3c2)C1

>  <Energy>  (78) 
129.262133730023

>  <Genealogy>  (78) 
CNC1CN(c2ccc3cc(C([NH-])=O)n(C(C)=O)c3c2)C1 (protonated)
CNC1CN(c2ccc3cc(C([NH-])=O)n(C(C)=O)c3c2)C1 (3D coordinates assigned)
CNC1CN(c2ccc3cc(C([NH-])=O)n(C(C)=O)c3c2)C1 (nonaromatic ring conformer: 129.262133730023 kcal/mol)

>  <smiles>  (78) 
CNC1CN(c2ccc3cc(C(N)=O)n(C(C)=O)c3c2)C1

>  <score_type>  (78) 
oracle

>  <origin>  (78) 
adg

>  <m_score__min__energy>  (78) 
-7.0300000000000002

>  <m_primary>  (78) 
energy

$$$$
78:0
     RDKit          3D

 48 50  0  0  0  0  0  0  0  0999 V2000
  138.7360  148.7140  129.1080 C   0  0  0  0  0  0  0  0  0  0  0  0
  139.1830  148.4260  130.4790 N   0  0  0  0  0  0  0  0  0  0  0  0
  140.6550  148.5420  130.5780 C   0  0  0  0  0  0  0  0  0  0  0  0
  141.0990  148.7700  132.0280 C   0  0  0  0  0  0  0  0  0  0  0  0
  140.5490  150.0300  132.5910 N   0  0  0  0  0  0  0  0  0  0  0  0
  141.5540  151.1170  132.5870 C   0  0  0  0  0  0  0  0  0  0  0  0
  141.6790  151.7930  133.9660 C   0  0  0  0  0  0  0  0  0  0  0  0
  142.4910  153.1000  133.9400 C   0  0  0  0  0  0  0  0  0  0  0  0
  141.6220  154.3010  133.6700 C   0  0  0  0  0  0  0  0  0  0  0  0
  140.2660  154.1270  133.3000 C   0  0  0  0  0  0  0  0  0  0  0  0
  139.4620  155.2350  132.9850 C   0  0  0  0  0  0  0  0  0  0  0  0
  140.0410  156.5000  133.0470 C   0  0  0  0  0  0  0  0  0  0  0  0
  139.5060  157.7300  132.7450 C   0  0  0  0  0  0  0  0  0  0  0  0
  140.5390  158.6410  132.9540 C   0  0  0  0  0  0  0  0  0  0  0  0
  140.3790  160.1000  132.8010 C   0  0  0  0  0  0  0  0  0  0  0  0
  141.2710  161.0130  133.4410 N   0  0  0  0  0  0  0  0  0  0  0  0
  139.4040  160.5490  132.1410 O   0  0  0  0  0  0  0  0  0  0  0  0
  141.6740  158.0000  133.3550 N   0  0  0  0  0  0  0  0  0  0  0  0
  142.9800  158.5740  133.5360 C   0  0  0  0  0  0  0  0  0  0  0  0
  143.9100  158.3150  132.7270 O   0  0  0  0  0  0  0  0  0  0  0  0
  143.2290  159.4280  134.6040 O   0  0  0  0  0  0  0  0  0  0  0  0
  141.3500  156.6880  133.4130 C   0  0  0  0  0  0  0  0  0  0  0  0
  142.1750  155.6000  133.7200 C   0  0  0  0  0  0  0  0  0  0  0  0
  139.2820  150.4580  131.9470 C   0  0  0  0  0  0  0  0  0  0  0  0
  138.4540  149.2540  131.4710 C   0  0  0  0  0  0  0  0  0  0  0  0
  137.8117  149.3095  129.1412 H   0  0  0  0  0  0  0  0  0  0  0  0
  139.5174  149.2790  128.5786 H   0  0  0  0  0  0  0  0  0  0  0  0
  138.5445  147.7690  128.5786 H   0  0  0  0  0  0  0  0  0  0  0  0
  141.1136  147.6146  130.2043 H   0  0  0  0  0  0  0  0  0  0  0  0
  140.9768  149.4048  129.9763 H   0  0  0  0  0  0  0  0  0  0  0  0
  140.7514  147.9261  132.6419 H   0  0  0  0  0  0  0  0  0  0  0  0
  142.1963  148.8462  132.0375 H   0  0  0  0  0  0  0  0  0  0  0  0
  142.5312  150.6961  132.3080 H   0  0  0  0  0  0  0  0  0  0  0  0
  141.2276  151.8787  131.8637 H   0  0  0  0  0  0  0  0  0  0  0  0
  140.6679  152.0191  134.3354 H   0  0  0  0  0  0  0  0  0  0  0  0
  142.2168  151.0921  134.6213 H   0  0  0  0  0  0  0  0  0  0  0  0
  142.9842  153.2308  134.9145 H   0  0  0  0  0  0  0  0  0  0  0  0
  143.2281  153.0251  133.1269 H   0  0  0  0  0  0  0  0  0  0  0  0
  139.8383  153.1144  133.2589 H   0  0  0  0  0  0  0  0  0  0  0  0
  138.4077  155.1074  132.6982 H   0  0  0  0  0  0  0  0  0  0  0  0
  138.4812  157.9481  132.4099 H   0  0  0  0  0  0  0  0  0  0  0  0
  141.9840  160.6790  134.1240 H   0  0  0  0  0  0  0  0  0  0  0  0
  141.1620  162.0410  133.2920 H   0  0  0  0  0  0  0  0  0  0  0  0
  143.2294  155.7527  133.9938 H   0  0  0  0  0  0  0  0  0  0  0  0
  138.6894  151.0340  132.6730 H   0  0  0  0  0  0  0  0  0  0  0  0
  139.5326  151.0716  131.0692 H   0  0  0  0  0  0  0  0  0  0  0  0
  138.2074  148.6280  132.3413 H   0  0  0  0  0  0  0  0  0  0  0  0
  137.5466  149.6410  130.9843 H   0  0  0  0  0  0  0  0  0  0  0  0
  1  2  1  0
  2  3  1  0
  3  4  1  0
  4  5  1  0
  5  6  1  0
  6  7  1  0
  7  8  1  0
  8  9  1  0
  9 10  2  0
 10 11  1  0
 11 12  2  0
 12 13  1  0
 13 14  2  0
 14 15  1  0
 15 16  1  0
 15 17  2  0
 14 18  1  0
 18 19  1  0
 19 20  2  0
 19 21  1  0
 18 22  1  0
 22 23  2  0
  5 24  1  0
 24 25  1  0
 25  2  1  0
 23  9  1  0
 22 12  1  0
  1 26  1  0
  1 27  1  0
  1 28  1  0
  3 29  1  0
  3 30  1  0
  4 31  1  0
  4 32  1  0
  6 33  1  0
  6 34  1  0
  7 35  1  0
  7 36  1  0
  8 37  1  0
  8 38  1  0
 10 39  1  0
 11 40  1  0
 13 41  1  0
 16 42  1  0
 16 43  1  0
 23 44  1  0
 24 45  1  0
 24 46  1  0
 25 47  1  0
 25 48  1  0
M  CHG  1  21  -1
M  END
>  <UniqueID>  (79) 
79

>  <SMILES>  (79) 
CN1CCN(CCCc2ccc3cc(C(N)=O)n(C(=O)[O-])c3c2)CC1

>  <Energy>  (79) 
96.80909378016369

>  <Genealogy>  (79) 
CN1CCN(CCCc2ccc3cc(C(N)=O)n(C(=O)[O-])c3c2)CC1 (protonated)
CN1CCN(CCCc2ccc3cc(C(N)=O)n(C(=O)[O-])c3c2)CC1 (3D coordinates assigned)
CN1CCN(CCCc2ccc3cc(C(N)=O)n(C(=O)[O-])c3c2)CC1 (nonaromatic ring conformer: 96.80909378016369 kcal/mol)

>  <smiles>  (79) 
CN1CCN(CCCc2ccc3cc(C(N)=O)n(C(=O)O)c3c2)CC1

>  <score_type>  (79) 
oracle

>  <origin>  (79) 
adg

>  <m_score__min__energy>  (79) 
-7.8700000000000001

>  <m_primary>  (79) 
energy

$$$$
79:0
     RDKit          3D

 38 40  0  0  0  0  0  0  0  0999 V2000
  149.5290  152.5550  132.2760 C   0  0  0  0  0  0  0  0  0  0  0  0
  149.1090  152.3780  134.0380 S   0  0  0  0  0  0  0  0  0  0  0  0
  147.8270  153.6430  133.9860 C   0  0  0  0  0  0  0  0  0  0  0  0
  147.4050  154.0710  132.7220 C   0  0  0  0  0  0  0  0  0  0  0  0
  146.3960  155.0220  132.5890 C   0  0  0  0  0  0  0  0  0  0  0  0
  145.7760  155.5620  133.7250 C   0  0  0  0  0  0  0  0  0  0  0  0
  144.7010  156.5760  133.5830 C   0  0  0  0  0  0  0  0  0  0  0  0
  145.0190  157.9590  133.5690 C   0  0  0  0  0  0  0  0  0  0  0  0
  144.0120  158.9270  133.4240 C   0  0  0  0  0  0  0  0  0  0  0  0
  142.6980  158.4890  133.3010 C   0  0  0  0  0  0  0  0  0  0  0  0
  141.5400  159.2110  133.1280 C   0  0  0  0  0  0  0  0  0  0  0  0
  140.5210  158.2620  133.0600 C   0  0  0  0  0  0  0  0  0  0  0  0
  139.0830  158.6030  132.9690 C   0  0  0  0  0  0  0  0  0  0  0  0
  138.0820  157.6190  133.2350 N   0  0  0  0  0  0  0  0  0  0  0  0
  138.7280  159.7610  132.6230 O   0  0  0  0  0  0  0  0  0  0  0  0
  141.0300  157.0040  133.1850 N   0  0  0  0  0  0  0  0  0  0  0  0
  140.3150  155.7600  133.0970 C   0  0  0  0  0  0  0  0  0  0  0  0
  139.4110  155.6040  132.2340 O   0  0  0  0  0  0  0  0  0  0  0  0
  140.6010  154.7210  133.9740 O   0  0  0  0  0  0  0  0  0  0  0  0
  142.3660  157.1600  133.3310 C   0  0  0  0  0  0  0  0  0  0  0  0
  143.3500  156.1730  133.4570 C   0  0  0  0  0  0  0  0  0  0  0  0
  146.1860  155.1290  134.9960 C   0  0  0  0  0  0  0  0  0  0  0  0
  147.2120  154.1730  135.1510 C   0  0  0  0  0  0  0  0  0  0  0  0
  147.5870  153.7540  136.5290 C   0  0  0  0  0  0  0  0  0  0  0  0
  148.4770  154.3850  137.1600 O   0  0  0  0  0  0  0  0  0  0  0  0
  146.9990  152.6560  137.1410 O   0  0  0  0  0  0  0  0  0  0  0  0
  150.5389  152.9805  132.1807 H   0  0  0  0  0  0  0  0  0  0  0  0
  149.4998  151.5680  131.7912 H   0  0  0  0  0  0  0  0  0  0  0  0
  148.8022  153.2234  131.7912 H   0  0  0  0  0  0  0  0  0  0  0  0
  147.8765  153.6507  131.8215 H   0  0  0  0  0  0  0  0  0  0  0  0
  146.0837  155.3514  131.5870 H   0  0  0  0  0  0  0  0  0  0  0  0
  146.0670  158.2766  133.6730 H   0  0  0  0  0  0  0  0  0  0  0  0
  144.2554  159.9996  133.4082 H   0  0  0  0  0  0  0  0  0  0  0  0
  141.4394  160.3042  133.0582 H   0  0  0  0  0  0  0  0  0  0  0  0
  138.3350  156.6660  133.5750 H   0  0  0  0  0  0  0  0  0  0  0  0
  137.0710  157.8590  133.1290 H   0  0  0  0  0  0  0  0  0  0  0  0
  143.0794  155.1068  133.4581 H   0  0  0  0  0  0  0  0  0  0  0  0
  145.6970  155.5438  135.8898 H   0  0  0  0  0  0  0  0  0  0  0  0
  1  2  1  0
  2  3  1  0
  3  4  2  0
  4  5  1  0
  5  6  2  0
  6  7  1  0
  7  8  2  0
  8  9  1  0
  9 10  2  0
 10 11  1  0
 11 12  2  0
 12 13  1  0
 13 14  1  0
 13 15  2  0
 12 16  1  0
 16 17  1  0
 17 18  2  0
 17 19  1  0
 16 20  1  0
 20 21  2  0
  6 22  1  0
 22 23  2  0
 23 24  1  0
 24 25  2  0
 24 26  1  0
 23  3  1  0
 21  7  1  0
 20 10  1  0
  1 27  1  0
  1 28  1  0
  1 29  1  0
  4 30  1  0
  5 31  1  0
  8 32  1  0
  9 33  1  0
 11 34  1  0
 14 35  1  0
 14 36  1  0
 21 37  1  0
 22 38  1  0
M  CHG  2  19  -1  26  -1
M  END
>  <UniqueID>  (80) 
80

>  <SMILES>  (80) 
CSc1ccc(-c2ccc3cc(C(N)=O)n(C(=O)[O-])c3c2)cc1C(=O)[O-]

>  <Energy>  (80) 
86.18715719158408

>  <Genealogy>  (80) 
CSc1ccc(-c2ccc3cc(C(N)=O)n(C(=O)[O-])c3c2)cc1C(=O)[O-] (protonated)
CSc1ccc(-c2ccc3cc(C(N)=O)n(C(=O)[O-])c3c2)cc1C(=O)[O-] (3D coordinates assigned)
CSc1ccc(-c2ccc3cc(C(N)=O)n(C(=O)[O-])c3c2)cc1C(=O)[O-] (optimized conformer: 86.18715719158408 kcal/mol)

>  <smiles>  (80) 
CSc1ccc(-c2ccc3cc(C(N)=O)n(C(=O)O)c3c2)cc1C(=O)O

>  <score_type>  (80) 
oracle

>  <origin>  (80) 
adg

>  <m_score__min__energy>  (80) 
-8.2400000000000002

>  <m_primary>  (80) 
energy

$$$$
80:0
     RDKit          3D

 48 50  0  0  0  0  0  0  0  0999 V2000
  145.7260  153.7220  132.8370 C   0  0  0  0  0  0  0  0  0  0  0  0
  145.9130  155.2340  133.0700 C   0  0  0  0  0  0  0  0  0  0  0  0
  147.1140  155.7200  132.2450 C   0  0  0  0  0  0  0  0  0  0  0  0
  146.1820  155.5270  134.5590 C   0  0  0  0  0  0  0  0  0  0  0  0
  144.7640  155.9620  132.6130 O   0  0  0  0  0  0  0  0  0  0  0  0
  143.6510  156.3280  133.3840 C   0  0  0  0  0  0  0  0  0  0  0  0
  142.9330  155.4560  133.9410 O   0  0  0  0  0  0  0  0  0  0  0  0
  143.3500  157.7200  133.5660 N   0  0  0  0  0  0  0  0  0  0  0  0
  142.1470  158.2870  133.8660 C   0  0  0  0  0  0  0  0  0  0  0  0
  140.8430  157.5930  133.8980 C   0  0  0  0  0  0  0  0  0  0  0  0
  140.5730  156.4990  133.0250 N   0  0  0  0  0  0  0  0  0  0  0  0
  139.9380  158.0000  134.6740 O   0  0  0  0  0  0  0  0  0  0  0  0
  142.2910  159.6580  134.0680 C   0  0  0  0  0  0  0  0  0  0  0  0
  143.6280  159.9180  133.8730 C   0  0  0  0  0  0  0  0  0  0  0  0
  144.3300  161.1160  133.9580 C   0  0  0  0  0  0  0  0  0  0  0  0
  145.7170  161.0850  133.7380 C   0  0  0  0  0  0  0  0  0  0  0  0
  146.3780  159.8620  133.4540 C   0  0  0  0  0  0  0  0  0  0  0  0
  147.8710  159.8380  133.2230 C   0  0  0  0  0  0  0  0  0  0  0  0
  148.3100  159.8070  131.7390 C   0  0  2  0  0  0  0  0  0  0  0  0
  149.6110  159.1080  131.4580 C   0  0  0  0  0  0  0  0  0  0  0  0
  150.0450  159.7490  130.1500 C   0  0  0  0  0  0  0  0  0  0  0  0
  149.3840  160.9860  129.9840 O   0  0  0  0  0  0  0  0  0  0  0  0
  148.5270  161.1620  131.0890 C   0  0  0  0  0  0  0  0  0  0  0  0
  145.6270  158.6690  133.3590 C   0  0  0  0  0  0  0  0  0  0  0  0
  144.2450  158.7320  133.5680 C   0  0  0  0  0  0  0  0  0  0  0  0
  145.6623  153.2067  133.8067 H   0  0  0  0  0  0  0  0  0  0  0  0
  144.7998  153.5503  132.2690 H   0  0  0  0  0  0  0  0  0  0  0  0
  146.5825  153.3298  132.2690 H   0  0  0  0  0  0  0  0  0  0  0  0
  147.9171  156.0450  132.9228 H   0  0  0  0  0  0  0  0  0  0  0  0
  147.4794  154.8990  131.6107 H   0  0  0  0  0  0  0  0  0  0  0  0
  146.8056  156.5641  131.6107 H   0  0  0  0  0  0  0  0  0  0  0  0
  145.5684  154.8586  135.1809 H   0  0  0  0  0  0  0  0  0  0  0  0
  147.2464  155.3583  134.7794 H   0  0  0  0  0  0  0  0  0  0  0  0
  145.9232  156.5732  134.7794 H   0  0  0  0  0  0  0  0  0  0  0  0
  141.3500  155.9710  132.5680 H   0  0  0  0  0  0  0  0  0  0  0  0
  141.5027  160.3797  134.3282 H   0  0  0  0  0  0  0  0  0  0  0  0
  143.8143  162.0594  134.1905 H   0  0  0  0  0  0  0  0  0  0  0  0
  146.2967  162.0186  133.7864 H   0  0  0  0  0  0  0  0  0  0  0  0
  148.3011  160.7384  133.6860 H   0  0  0  0  0  0  0  0  0  0  0  0
  148.2326  158.8988  133.6670 H   0  0  0  0  0  0  0  0  0  0  0  0
  147.4421  159.2711  131.3273 H   0  0  0  0  0  0  0  0  0  0  0  0
  150.3445  159.2948  132.2562 H   0  0  0  0  0  0  0  0  0  0  0  0
  149.5209  158.0130  131.4041 H   0  0  0  0  0  0  0  0  0  0  0  0
  151.1323  159.9148  130.1671 H   0  0  0  0  0  0  0  0  0  0  0  0
  149.7862  159.0825  129.3141 H   0  0  0  0  0  0  0  0  0  0  0  0
  148.9870  161.8525  131.8112 H   0  0  0  0  0  0  0  0  0  0  0  0
  147.5660  161.5858  130.7620 H   0  0  0  0  0  0  0  0  0  0  0  0
  146.1177  157.7125  133.1260 H   0  0  0  0  0  0  0  0  0  0  0  0
  1  2  1  0
  2  3  1  0
  2  4  1  0
  2  5  1  0
  5  6  1  0
  6  7  2  0
  6  8  1  0
  8  9  1  0
  9 10  1  0
 10 11  1  0
 10 12  2  0
  9 13  2  0
 13 14  1  0
 14 15  2  0
 15 16  1  0
 16 17  2  0
 17 18  1  0
 18 19  1  0
 19 20  1  0
 20 21  1  0
 21 22  1  0
 22 23  1  0
 17 24  1  0
 24 25  2  0
 25  8  1  0
 25 14  1  0
 23 19  1  0
  1 26  1  0
  1 27  1  0
  1 28  1  0
  3 29  1  0
  3 30  1  0
  3 31  1  0
  4 32  1  0
  4 33  1  0
  4 34  1  0
 11 35  1  0
 13 36  1  0
 15 37  1  0
 16 38  1  0
 18 39  1  0
 18 40  1  0
 19 41  1  6
 20 42  1  0
 20 43  1  0
 21 44  1  0
 21 45  1  0
 23 46  1  0
 23 47  1  0
 24 48  1  0
M  CHG  1  11  -1
M  END
>  <UniqueID>  (81) 
81

>  <SMILES>  (81) 
CC(C)(C)OC(=O)n1c(C([NH-])=O)cc2ccc(C[C@@H]3CCOC3)cc21

>  <Energy>  (81) 
84.05815573385684

>  <Genealogy>  (81) 
CC(C)(C)OC(=O)n1c(C([NH-])=O)cc2ccc(C[C@@H]3CCOC3)cc21 (protonated)
CC(C)(C)OC(=O)n1c(C([NH-])=O)cc2ccc(C[C@@H]3CCOC3)cc21 (3D coordinates assigned)
CC(C)(C)OC(=O)n1c(C([NH-])=O)cc2ccc(C[C@@H]3CCOC3)cc21 (nonaromatic ring conformer: 84.05815573385684 kcal/mol)

>  <smiles>  (81) 
CC(C)(C)OC(=O)n1c(C(N)=O)cc2ccc(C[C@@H]3CCOC3)cc21

>  <score_type>  (81) 
oracle

>  <origin>  (81) 
adg

>  <m_score__min__energy>  (81) 
-8.0600000000000005

>  <m_primary>  (81) 
energy

$$$$
81:0
     RDKit          3D

 45 49  0  0  0  0  0  0  0  0999 V2000
  138.6590  158.3590  132.4030 C   0  0  0  0  0  0  0  0  0  0  0  0
  139.2690  157.8790  133.6790 C   0  0  0  0  0  0  0  0  0  0  0  0
  139.3500  158.5890  134.7800 O   0  0  0  0  0  0  0  0  0  0  0  0
  139.9470  157.8190  135.6610 C   0  0  0  0  0  0  0  0  0  0  0  0
  140.1970  158.1740  136.8420 O   0  0  0  0  0  0  0  0  0  0  0  0
  140.2550  156.6390  135.1740 O   0  0  0  0  0  0  0  0  0  0  0  0
  139.8430  156.6440  133.9280 C   0  0  0  0  0  0  0  0  0  0  0  0
  139.9940  155.4930  132.9820 C   0  0  0  0  0  0  0  0  0  0  0  0
  140.4190  154.3310  133.6860 O   0  0  0  0  0  0  0  0  0  0  0  0
  140.7120  153.1150  133.0550 C   0  0  0  0  0  0  0  0  0  0  0  0
  139.7820  152.3850  132.6170 O   0  0  0  0  0  0  0  0  0  0  0  0
  142.0780  152.6900  132.9290 N   0  0  0  0  0  0  0  0  0  0  0  0
  142.5510  151.4170  132.8010 C   0  0  0  0  0  0  0  0  0  0  0  0
  141.7300  150.1990  132.6350 C   0  0  0  0  0  0  0  0  0  0  0  0
  140.6990  149.9050  133.5750 N   0  0  0  0  0  0  0  0  0  0  0  0
  141.9520  149.3950  131.6910 O   0  0  0  0  0  0  0  0  0  0  0  0
  143.9440  151.4170  132.7630 C   0  0  0  0  0  0  0  0  0  0  0  0
  144.3120  152.7390  132.8620 C   0  0  0  0  0  0  0  0  0  0  0  0
  145.5770  153.3160  132.8830 C   0  0  0  0  0  0  0  0  0  0  0  0
  145.6630  154.7110  133.0190 C   0  0  0  0  0  0  0  0  0  0  0  0
  144.4920  155.5040  133.1400 C   0  0  0  0  0  0  0  0  0  0  0  0
  144.5940  156.9770  133.2960 C   0  0  0  0  0  0  0  0  0  0  0  0
  145.8670  157.6130  133.3700 C   0  0  0  0  0  0  0  0  0  0  0  0
  145.9680  158.9700  133.5130 N   0  0  0  0  0  0  0  0  0  0  0  0
  144.8340  159.7070  133.5820 C   0  0  0  0  0  0  0  0  0  0  0  0
  144.7520  161.0420  133.7160 N   0  0  0  0  0  0  0  0  0  0  0  0
  143.4560  161.3500  133.7370 N   0  0  0  0  0  0  0  0  0  0  0  0
  142.7410  160.2070  133.6160 C   0  0  0  0  0  0  0  0  0  0  0  0
  141.3540  160.1480  133.5990 O   0  0  0  0  0  0  0  0  0  0  0  0
  143.5990  159.1440  133.5160 C   0  0  0  0  0  0  0  0  0  0  0  0
  143.4270  157.7750  133.3730 C   0  0  0  0  0  0  0  0  0  0  0  0
  143.2240  154.8770  133.1150 C   0  0  0  0  0  0  0  0  0  0  0  0
  143.1690  153.4870  132.9590 C   0  0  0  0  0  0  0  0  0  0  0  0
  137.8129  159.0247  132.6287 H   0  0  0  0  0  0  0  0  0  0  0  0
  139.4128  158.9087  131.8202 H   0  0  0  0  0  0  0  0  0  0  0  0
  138.3020  157.4970  131.8202 H   0  0  0  0  0  0  0  0  0  0  0  0
  139.0271  155.2912  132.4978 H   0  0  0  0  0  0  0  0  0  0  0  0
  140.7478  155.7487  132.2228 H   0  0  0  0  0  0  0  0  0  0  0  0
  139.8120  150.4560  133.5870 H   0  0  0  0  0  0  0  0  0  0  0  0
  144.6084  150.5450  132.6730 H   0  0  0  0  0  0  0  0  0  0  0  0
  146.4830  152.6983  132.7957 H   0  0  0  0  0  0  0  0  0  0  0  0
  146.6505  155.1954  133.0319 H   0  0  0  0  0  0  0  0  0  0  0  0
  146.7814  157.0044  133.3113 H   0  0  0  0  0  0  0  0  0  0  0  0
  142.4236  157.3271  133.3215 H   0  0  0  0  0  0  0  0  0  0  0  0
  142.3021  155.4685  133.2159 H   0  0  0  0  0  0  0  0  0  0  0  0
  1  2  1  0
  2  3  1  0
  3  4  1  0
  4  5  2  0
  4  6  1  0
  6  7  1  0
  7  8  1  0
  8  9  1  0
  9 10  1  0
 10 11  2  0
 10 12  1  0
 12 13  1  0
 13 14  1  0
 14 15  1  0
 14 16  2  0
 13 17  2  0
 17 18  1  0
 18 19  2  0
 19 20  1  0
 20 21  2  0
 21 22  1  0
 22 23  1  0
 23 24  2  0
 24 25  1  0
 25 26  2  0
 26 27  1  0
 27 28  1  0
 28 29  1  0
 28 30  2  0
 30 31  1  0
 21 32  1  0
 32 33  2  0
  7  2  2  0
 33 12  1  0
 33 18  1  0
 31 22  2  0
 30 25  1  0
  1 34  1  0
  1 35  1  0
  1 36  1  0
  8 37  1  0
  8 38  1  0
 15 39  1  0
 17 40  1  0
 19 41  1  0
 20 42  1  0
 23 43  1  0
 31 44  1  0
 32 45  1  0
M  CHG  3  15  -1  27  -1  29  -1
M  END
>  <UniqueID>  (82) 
82

>  <SMILES>  (82) 
Cc1oc(=O)oc1COC(=O)n1c(C([NH-])=O)cc2ccc(-c3cnc4n[n-]c([O-])c4c3)cc21

>  <Energy>  (82) 
166.90658656011848

>  <Genealogy>  (82) 
Cc1oc(=O)oc1COC(=O)n1c(C([NH-])=O)cc2ccc(-c3cnc4n[n-]c([O-])c4c3)cc21 (protonated)
Cc1oc(=O)oc1COC(=O)n1c(C([NH-])=O)cc2ccc(-c3cnc4n[n-]c([O-])c4c3)cc21 (3D coordinates assigned)
Cc1oc(=O)oc1COC(=O)n1c(C([NH-])=O)cc2ccc(-c3cnc4n[n-]c([O-])c4c3)cc21 (optimized conformer: 166.90658656011848 kcal/mol)

>  <smiles>  (82) 
Cc1oc(=O)oc1COC(=O)n1c(C(N)=O)cc2ccc(-c3cnc4n[nH]c(O)c4c3)cc21

>  <score_type>  (82) 
oracle

>  <origin>  (82) 
adg

>  <m_score__min__energy>  (82) 
-8.2200000000000006

>  <m_primary>  (82) 
energy

$$$$
82:0
     RDKit          3D

 29 30  0  0  0  0  0  0  0  0999 V2000
  149.2520  159.0910  131.1090 C   0  0  0  0  0  0  0  0  0  0  0  0
  148.6200  158.1100  131.9230 O   0  0  0  0  0  0  0  0  0  0  0  0
  148.0550  158.4120  133.1650 C   0  0  0  0  0  0  0  0  0  0  0  0
  148.7830  158.8250  134.1100 O   0  0  0  0  0  0  0  0  0  0  0  0
  146.6410  158.2500  133.3670 N   0  0  0  0  0  0  0  0  0  0  0  0
  145.9130  157.1030  133.2520 C   0  0  0  0  0  0  0  0  0  0  0  0
  146.4600  155.7470  133.0510 C   0  0  0  0  0  0  0  0  0  0  0  0
  147.3470  155.4600  131.9700 N   0  0  0  0  0  0  0  0  0  0  0  0
  146.1830  154.8390  133.8800 O   0  0  0  0  0  0  0  0  0  0  0  0
  144.5530  157.3670  133.4010 C   0  0  0  0  0  0  0  0  0  0  0  0
  144.4690  158.7210  133.6260 C   0  0  0  0  0  0  0  0  0  0  0  0
  143.3520  159.5250  133.8270 C   0  0  0  0  0  0  0  0  0  0  0  0
  143.5530  160.9050  133.9960 C   0  0  0  0  0  0  0  0  0  0  0  0
  144.8600  161.4530  133.9530 C   0  0  0  0  0  0  0  0  0  0  0  0
  145.0700  162.9320  134.1120 C   0  0  0  0  0  0  0  0  0  0  0  0
  143.9200  163.6100  133.7460 F   0  0  0  0  0  0  0  0  0  0  0  0
  145.3690  163.2210  135.4300 F   0  0  0  0  0  0  0  0  0  0  0  0
  145.9700  160.6070  133.7430 C   0  0  0  0  0  0  0  0  0  0  0  0
  145.7420  159.2320  133.5990 C   0  0  0  0  0  0  0  0  0  0  0  0
  149.7362  159.8426  131.7498 H   0  0  0  0  0  0  0  0  0  0  0  0
  150.0092  158.6080  130.4739 H   0  0  0  0  0  0  0  0  0  0  0  0
  148.4992  159.5808  130.4739 H   0  0  0  0  0  0  0  0  0  0  0  0
  147.6940  154.4860  131.8200 H   0  0  0  0  0  0  0  0  0  0  0  0
  147.7310  156.2230  131.3700 H   0  0  0  0  0  0  0  0  0  0  0  0
  143.7236  156.6462  133.3496 H   0  0  0  0  0  0  0  0  0  0  0  0
  142.3408  159.0929  133.8529 H   0  0  0  0  0  0  0  0  0  0  0  0
  142.6895  161.5657  134.1630 H   0  0  0  0  0  0  0  0  0  0  0  0
  145.9035  163.2476  133.4673 H   0  0  0  0  0  0  0  0  0  0  0  0
  146.9895  161.0171  133.6936 H   0  0  0  0  0  0  0  0  0  0  0  0
  1  2  1  0
  2  3  1  0
  3  4  2  0
  3  5  1  0
  5  6  1  0
  6  7  1  0
  7  8  1  0
  7  9  2  0
  6 10  2  0
 10 11  1  0
 11 12  2  0
 12 13  1  0
 13 14  2  0
 14 15  1  0
 15 16  1  0
 15 17  1  0
 14 18  1  0
 18 19  2  0
 19  5  1  0
 19 11  1  0
  1 20  1  0
  1 21  1  0
  1 22  1  0
  8 23  1  0
  8 24  1  0
 10 25  1  0
 12 26  1  0
 13 27  1  0
 15 28  1  0
 18 29  1  0
M  END
>  <UniqueID>  (83) 
83

>  <SMILES>  (83) 
COC(=O)n1c(C(N)=O)cc2ccc(C(F)F)cc21

>  <Energy>  (83) 
66.40361971769009

>  <Genealogy>  (83) 
COC(=O)n1c(C(N)=O)cc2ccc(C(F)F)cc21 (3D coordinates assigned)
COC(=O)n1c(C(N)=O)cc2ccc(C(F)F)cc21 (optimized conformer: 66.40361971769009 kcal/mol)

>  <smiles>  (83) 
COC(=O)n1c(C(N)=O)cc2ccc(C(F)F)cc21

>  <score_type>  (83) 
oracle

>  <origin>  (83) 
adg

>  <m_score__min__energy>  (83) 
-5.5700000000000003

>  <m_primary>  (83) 
energy

$$$$
83:0
     RDKit          3D

 51 53  0  0  0  0  0  0  0  0999 V2000
  148.4800  155.6930  133.0010 C   0  0  0  0  0  0  0  0  0  0  0  0
  148.9400  157.0380  132.6550 N   0  0  0  0  0  0  0  0  0  0  0  0
  147.9080  158.0050  132.9390 C   0  0  0  0  0  0  0  0  0  0  0  0
  148.2450  159.3640  133.1650 C   0  0  0  0  0  0  0  0  0  0  0  0
  147.2480  160.3150  133.4320 C   0  0  0  0  0  0  0  0  0  0  0  0
  145.9230  159.8860  133.4430 C   0  0  0  0  0  0  0  0  0  0  0  0
  144.7690  160.5880  133.7040 C   0  0  0  0  0  0  0  0  0  0  0  0
  143.7370  159.6580  133.5960 C   0  0  0  0  0  0  0  0  0  0  0  0
  142.3080  159.9980  133.7790 C   0  0  0  0  0  0  0  0  0  0  0  0
  141.3830  159.7610  132.7220 N   0  0  0  0  0  0  0  0  0  0  0  0
  141.8910  160.4860  134.8620 O   0  0  0  0  0  0  0  0  0  0  0  0
  144.2350  158.4300  133.2650 N   0  0  0  0  0  0  0  0  0  0  0  0
  143.5020  157.2120  133.0570 C   0  0  0  0  0  0  0  0  0  0  0  0
  142.6450  157.1510  132.1330 O   0  0  0  0  0  0  0  0  0  0  0  0
  143.7220  156.0060  133.9320 C   0  0  0  0  0  0  0  0  0  0  0  0
  142.3910  155.2720  134.2770 C   0  0  2  0  0  0  0  0  0  0  0  0
  141.3960  156.3140  134.7660 C   0  0  0  0  0  0  0  0  0  0  0  0
  141.5930  156.9660  135.9960 C   0  0  0  0  0  0  0  0  0  0  0  0
  140.6700  157.9140  136.4490 C   0  0  0  0  0  0  0  0  0  0  0  0
  139.5390  158.2120  135.6830 C   0  0  0  0  0  0  0  0  0  0  0  0
  139.3290  157.5630  134.4650 C   0  0  0  0  0  0  0  0  0  0  0  0
  140.2500  156.6150  134.0080 C   0  0  0  0  0  0  0  0  0  0  0  0
  142.5790  154.2090  135.3110 N   0  0  0  0  0  0  0  0  0  0  0  0
  142.1760  152.8860  134.7870 C   0  0  0  0  0  0  0  0  0  0  0  0
  143.9830  154.1160  135.7560 C   0  0  0  0  0  0  0  0  0  0  0  0
  145.5760  158.5860  133.1890 C   0  0  0  0  0  0  0  0  0  0  0  0
  146.5500  157.6110  132.9510 C   0  0  0  0  0  0  0  0  0  0  0  0
  148.4441  155.5880  134.0954 H   0  0  0  0  0  0  0  0  0  0  0  0
  147.4752  155.5305  132.5839 H   0  0  0  0  0  0  0  0  0  0  0  0
  149.1748  154.9492  132.5839 H   0  0  0  0  0  0  0  0  0  0  0  0
  149.8020  157.2620  133.2060 H   0  0  0  0  0  0  0  0  0  0  0  0
  149.1900  157.0650  131.6390 H   0  0  0  0  0  0  0  0  0  0  0  0
  149.2992  159.6760  133.1306 H   0  0  0  0  0  0  0  0  0  0  0  0
  147.5051  161.3667  133.6266 H   0  0  0  0  0  0  0  0  0  0  0  0
  144.6798  161.6572  133.9466 H   0  0  0  0  0  0  0  0  0  0  0  0
  141.5990  159.0760  131.9640 H   0  0  0  0  0  0  0  0  0  0  0  0
  144.3864  155.3044  133.4062 H   0  0  0  0  0  0  0  0  0  0  0  0
  144.1682  156.3530  134.8757 H   0  0  0  0  0  0  0  0  0  0  0  0
  142.0196  154.7650  133.3742 H   0  0  0  0  0  0  0  0  0  0  0  0
  142.4778  156.7292  136.6052 H   0  0  0  0  0  0  0  0  0  0  0  0
  140.8340  158.4257  137.4089 H   0  0  0  0  0  0  0  0  0  0  0  0
  138.8142  158.9583  136.0403 H   0  0  0  0  0  0  0  0  0  0  0  0
  138.4380  157.7975  133.8640 H   0  0  0  0  0  0  0  0  0  0  0  0
  140.0773  156.1019  133.0504 H   0  0  0  0  0  0  0  0  0  0  0  0
  141.9690  152.2065  135.6269 H   0  0  0  0  0  0  0  0  0  0  0  0
  141.2704  152.9955  134.1722 H   0  0  0  0  0  0  0  0  0  0  0  0
  142.9888  152.4720  134.1722 H   0  0  0  0  0  0  0  0  0  0  0  0
  144.0198  154.1136  136.8554 H   0  0  0  0  0  0  0  0  0  0  0  0
  144.4285  153.1864  135.3721 H   0  0  0  0  0  0  0  0  0  0  0  0
  144.5472  154.9787  135.3721 H   0  0  0  0  0  0  0  0  0  0  0  0
  146.2664  156.5625  132.7773 H   0  0  0  0  0  0  0  0  0  0  0  0
  1  2  1  0
  2  3  1  0
  3  4  2  0
  4  5  1  0
  5  6  2  0
  6  7  1  0
  7  8  2  0
  8  9  1  0
  9 10  1  0
  9 11  2  0
  8 12  1  0
 12 13  1  0
 13 14  2  0
 13 15  1  0
 15 16  1  0
 16 17  1  0
 17 18  2  0
 18 19  1  0
 19 20  2  0
 20 21  1  0
 21 22  2  0
 16 23  1  0
 23 24  1  0
 23 25  1  0
 12 26  1  0
 26 27  2  0
 27  3  1  0
 26  6  1  0
 22 17  1  0
  1 28  1  0
  1 29  1  0
  1 30  1  0
  2 31  1  0
  2 32  1  0
  4 33  1  0
  5 34  1  0
  7 35  1  0
 10 36  1  0
 15 37  1  0
 15 38  1  0
 16 39  1  6
 18 40  1  0
 19 41  1  0
 20 42  1  0
 21 43  1  0
 22 44  1  0
 24 45  1  0
 24 46  1  0
 24 47  1  0
 25 48  1  0
 25 49  1  0
 25 50  1  0
 27 51  1  0
M  CHG  2   2   1  10  -1
M  END
>  <UniqueID>  (84) 
84

>  <SMILES>  (84) 
C[NH2+]c1ccc2cc(C([NH-])=O)n(C(=O)C[C@H](c3ccccc3)N(C)C)c2c1

>  <Energy>  (84) 
96.43823165677978

>  <Genealogy>  (84) 
C[NH2+]c1ccc2cc(C([NH-])=O)n(C(=O)CC(c3ccccc3)N(C)C)c2c1 (protonated)
C[NH2+]c1ccc2cc(C([NH-])=O)n(C(=O)C[C@H](c3ccccc3)N(C)C)c2c1 (chirality)
C[NH2+]c1ccc2cc(C([NH-])=O)n(C(=O)C[C@H](c3ccccc3)N(C)C)c2c1 (3D coordinates assigned)
C[NH2+]c1ccc2cc(C([NH-])=O)n(C(=O)C[C@H](c3ccccc3)N(C)C)c2c1 (optimized conformer: 96.43823165677978 kcal/mol)

>  <smiles>  (84) 
CNc1ccc2cc(C(N)=O)n(C(=O)CC(c3ccccc3)N(C)C)c2c1

>  <score_type>  (84) 
oracle

>  <origin>  (84) 
adg

>  <m_score__min__energy>  (84) 
-9.0999999999999996

>  <m_primary>  (84) 
energy

$$$$
84:0
     RDKit          3D

 36 37  0  0  0  0  0  0  0  0999 V2000
  141.6600  158.6420  137.6010 C   0  0  0  0  0  0  0  0  0  0  0  0
  141.1510  159.2240  136.4070 O   0  0  0  0  0  0  0  0  0  0  0  0
  140.2600  158.5550  135.5620 C   0  0  0  0  0  0  0  0  0  0  0  0
  139.1130  158.2290  135.9810 O   0  0  0  0  0  0  0  0  0  0  0  0
  140.6640  158.2830  134.1230 C   0  0  0  0  0  0  0  0  0  0  0  0
  139.6040  158.9640  133.2290 C   0  0  0  0  0  0  0  0  0  0  0  0
  140.6560  156.7690  133.8220 C   0  0  0  0  0  0  0  0  0  0  0  0
  142.0890  158.8130  133.8860 C   0  0  0  0  0  0  0  0  0  0  0  0
  142.3140  160.2200  133.8970 C   0  0  0  0  0  0  0  0  0  0  0  0
  143.6010  160.7550  133.7280 C   0  0  0  0  0  0  0  0  0  0  0  0
  144.6570  159.8700  133.5550 C   0  0  0  0  0  0  0  0  0  0  0  0
  146.0010  160.1190  133.4040 C   0  0  0  0  0  0  0  0  0  0  0  0
  146.5980  158.8650  133.2950 C   0  0  0  0  0  0  0  0  0  0  0  0
  148.0390  158.6710  133.0310 C   0  0  0  0  0  0  0  0  0  0  0  0
  148.4870  158.0590  131.8250 N   0  0  0  0  0  0  0  0  0  0  0  0
  148.8870  159.0970  133.8590 O   0  0  0  0  0  0  0  0  0  0  0  0
  145.6600  157.8800  133.3850 N   0  0  0  0  0  0  0  0  0  0  0  0
  145.8800  156.4600  133.4120 C   0  0  0  0  0  0  0  0  0  0  0  0
  146.6120  155.9130  132.5470 O   0  0  0  0  0  0  0  0  0  0  0  0
  145.2640  155.6730  134.3780 O   0  0  0  0  0  0  0  0  0  0  0  0
  144.4750  158.5130  133.5410 C   0  0  0  0  0  0  0  0  0  0  0  0
  143.2070  157.9500  133.7270 C   0  0  0  0  0  0  0  0  0  0  0  0
  141.2181  159.1472  138.4725 H   0  0  0  0  0  0  0  0  0  0  0  0
  141.4017  157.5731  137.6269 H   0  0  0  0  0  0  0  0  0  0  0  0
  142.7538  158.7556  137.6269 H   0  0  0  0  0  0  0  0  0  0  0  0
  138.8475  159.4500  133.8626 H   0  0  0  0  0  0  0  0  0  0  0  0
  140.0903  159.7191  132.5939 H   0  0  0  0  0  0  0  0  0  0  0  0
  139.1194  158.2078  132.5939 H   0  0  0  0  0  0  0  0  0  0  0  0
  140.6530  156.2072  134.7677 H   0  0  0  0  0  0  0  0  0  0  0  0
  139.7565  156.5152  133.2419 H   0  0  0  0  0  0  0  0  0  0  0  0
  141.5528  156.5057  133.2419 H   0  0  0  0  0  0  0  0  0  0  0  0
  141.4621  160.9008  134.0408 H   0  0  0  0  0  0  0  0  0  0  0  0
  143.7678  161.8423  133.7325 H   0  0  0  0  0  0  0  0  0  0  0  0
  146.4987  161.0996  133.3754 H   0  0  0  0  0  0  0  0  0  0  0  0
  148.1080  157.1360  131.5190 H   0  0  0  0  0  0  0  0  0  0  0  0
  143.0780  156.8578  133.7497 H   0  0  0  0  0  0  0  0  0  0  0  0
  1  2  1  0
  2  3  1  0
  3  4  2  0
  3  5  1  0
  5  6  1  0
  5  7  1  0
  5  8  1  0
  8  9  2  0
  9 10  1  0
 10 11  2  0
 11 12  1  0
 12 13  2  0
 13 14  1  0
 14 15  1  0
 14 16  2  0
 13 17  1  0
 17 18  1  0
 18 19  2  0
 18 20  1  0
 17 21  1  0
 21 22  2  0
 22  8  1  0
 21 11  1  0
  1 23  1  0
  1 24  1  0
  1 25  1  0
  6 26  1  0
  6 27  1  0
  6 28  1  0
  7 29  1  0
  7 30  1  0
  7 31  1  0
  9 32  1  0
 10 33  1  0
 12 34  1  0
 15 35  1  0
 22 36  1  0
M  CHG  2  15  -1  20  -1
M  END
>  <UniqueID>  (85) 
85

>  <SMILES>  (85) 
COC(=O)C(C)(C)c1ccc2cc(C([NH-])=O)n(C(=O)[O-])c2c1

>  <Energy>  (85) 
76.5884015751607

>  <Genealogy>  (85) 
COC(=O)C(C)(C)c1ccc2cc(C([NH-])=O)n(C(=O)[O-])c2c1 (protonated)
COC(=O)C(C)(C)c1ccc2cc(C([NH-])=O)n(C(=O)[O-])c2c1 (3D coordinates assigned)
COC(=O)C(C)(C)c1ccc2cc(C([NH-])=O)n(C(=O)[O-])c2c1 (optimized conformer: 76.5884015751607 kcal/mol)

>  <smiles>  (85) 
COC(=O)C(C)(C)c1ccc2cc(C(N)=O)n(C(=O)O)c2c1

>  <score_type>  (85) 
oracle

>  <origin>  (85) 
adg

>  <m_score__min__energy>  (85) 
-6.3899999999999997

>  <m_primary>  (85) 
energy

$$$$
86:0
     RDKit          3D

 39 41  0  0  0  0  0  0  0  0999 V2000
  140.6760  155.7240  133.3650 C   0  0  0  0  0  0  0  0  0  0  0  0
  141.8570  156.2730  133.9380 O   0  0  0  0  0  0  0  0  0  0  0  0
  142.7720  157.0280  133.2000 C   0  0  0  0  0  0  0  0  0  0  0  0
  143.4280  156.4960  132.2630 O   0  0  0  0  0  0  0  0  0  0  0  0
  142.9860  158.4100  133.5300 N   0  0  0  0  0  0  0  0  0  0  0  0
  142.0480  159.3670  133.7860 C   0  0  0  0  0  0  0  0  0  0  0  0
  140.5940  159.1450  133.9280 C   0  0  0  0  0  0  0  0  0  0  0  0
  140.0740  158.3440  134.9860 N   0  0  0  0  0  0  0  0  0  0  0  0
  139.7960  159.7110  133.1340 O   0  0  0  0  0  0  0  0  0  0  0  0
  142.6570  160.6040  133.9830 C   0  0  0  0  0  0  0  0  0  0  0  0
  144.0070  160.3720  133.8500 C   0  0  0  0  0  0  0  0  0  0  0  0
  145.0770  161.2530  133.9310 C   0  0  0  0  0  0  0  0  0  0  0  0
  146.3700  160.7460  133.7190 C   0  0  0  0  0  0  0  0  0  0  0  0
  146.5830  159.3650  133.4350 C   0  0  0  0  0  0  0  0  0  0  0  0
  147.9790  158.7880  133.1440 C   0  0  0  0  0  0  0  0  0  0  0  0
  148.8520  158.9800  134.4020 C   0  0  0  0  0  0  0  0  0  0  0  0
  147.9540  157.2850  132.7900 C   0  0  0  0  0  0  0  0  0  0  0  0
  148.5850  159.5120  131.9550 C   0  0  0  0  0  0  0  0  0  0  0  0
  149.1310  158.8710  130.8970 N   0  0  0  0  0  0  0  0  0  0  0  0
  149.5530  159.8130  130.1120 O   0  0  0  0  0  0  0  0  0  0  0  0
  149.2900  160.9740  130.6540 C   0  0  0  0  0  0  0  0  0  0  0  0
  149.5820  162.0770  130.1250 O   0  0  0  0  0  0  0  0  0  0  0  0
  148.6730  160.8590  131.8420 N   0  0  0  0  0  0  0  0  0  0  0  0
  145.4490  158.5140  133.3370 C   0  0  0  0  0  0  0  0  0  0  0  0
  144.1780  159.0430  133.5770 C   0  0  0  0  0  0  0  0  0  0  0  0
  139.9929  155.4065  134.1666 H   0  0  0  0  0  0  0  0  0  0  0  0
  140.1824  156.4850  132.7427 H   0  0  0  0  0  0  0  0  0  0  0  0
  140.9396  154.8561  132.7427 H   0  0  0  0  0  0  0  0  0  0  0  0
  140.4390  157.3810  135.1590 H   0  0  0  0  0  0  0  0  0  0  0  0
  142.1636  161.5631  134.1991 H   0  0  0  0  0  0  0  0  0  0  0  0
  144.9169  162.3180  134.1549 H   0  0  0  0  0  0  0  0  0  0  0  0
  147.2329  161.4261  133.7730 H   0  0  0  0  0  0  0  0  0  0  0  0
  148.2338  158.8440  135.3016 H   0  0  0  0  0  0  0  0  0  0  0  0
  149.6652  158.2392  134.4005 H   0  0  0  0  0  0  0  0  0  0  0  0
  149.2793  159.9936  134.4005 H   0  0  0  0  0  0  0  0  0  0  0  0
  147.9441  156.6905  133.7154 H   0  0  0  0  0  0  0  0  0  0  0  0
  147.0520  157.0619  132.2012 H   0  0  0  0  0  0  0  0  0  0  0  0
  148.8481  157.0321  132.2012 H   0  0  0  0  0  0  0  0  0  0  0  0
  145.5702  157.4524  133.0756 H   0  0  0  0  0  0  0  0  0  0  0  0
  1  2  1  0
  2  3  1  0
  3  4  2  0
  3  5  1  0
  5  6  1  0
  6  7  1  0
  7  8  1  0
  7  9  2  0
  6 10  2  0
 10 11  1  0
 11 12  2  0
 12 13  1  0
 13 14  2  0
 14 15  1  0
 15 16  1  0
 15 17  1  0
 15 18  1  0
 18 19  2  0
 19 20  1  0
 20 21  1  0
 21 22  2  0
 21 23  1  0
 14 24  1  0
 24 25  2  0
 25  5  1  0
 25 11  1  0
 23 18  1  0
  1 26  1  0
  1 27  1  0
  1 28  1  0
  8 29  1  0
 10 30  1  0
 12 31  1  0
 13 32  1  0
 16 33  1  0
 16 34  1  0
 16 35  1  0
 17 36  1  0
 17 37  1  0
 17 38  1  0
 24 39  1  0
M  CHG  2   8  -1  23  -1
M  END
>  <UniqueID>  (86) 
86

>  <SMILES>  (86) 
COC(=O)n1c(C([NH-])=O)cc2ccc(C(C)(C)c3noc(=O)[n-]3)cc21

>  <Energy>  (86) 
114.74300169801833

>  <Genealogy>  (86) 
COC(=O)n1c(C([NH-])=O)cc2ccc(C(C)(C)c3noc(=O)[n-]3)cc21 (protonated)
COC(=O)n1c(C([NH-])=O)cc2ccc(C(C)(C)c3noc(=O)[n-]3)cc21 (3D coordinates assigned)
COC(=O)n1c(C([NH-])=O)cc2ccc(C(C)(C)c3noc(=O)[n-]3)cc21 (optimized conformer: 114.74300169801833 kcal/mol)

>  <smiles>  (86) 
COC(=O)n1c(C(N)=O)cc2ccc(C(C)(C)c3noc(=O)[nH]3)cc21

>  <score_type>  (86) 
oracle

>  <origin>  (86) 
adg

>  <m_score__min__energy>  (86) 
-7.4699999999999998

>  <m_primary>  (86) 
energy

$$$$
87:0
     RDKit          3D

 55 56  0  0  0  0  0  0  0  0999 V2000
  149.8660  150.7710  134.9080 C   0  0  0  0  0  0  0  0  0  0  0  0
  149.4390  150.8100  133.5650 O   0  0  0  0  0  0  0  0  0  0  0  0
  149.8060  152.0360  132.9590 C   0  0  0  0  0  0  0  0  0  0  0  0
  148.5370  152.8380  132.6030 C   0  0  0  0  0  0  0  0  0  0  0  0
  147.2580  152.1200  132.8290 N   0  0  2  0  0  0  0  0  0  0  0  0
  146.9650  151.1160  131.7870 C   0  0  0  0  0  0  0  0  0  0  0  0
  146.1390  153.0300  133.0170 C   0  0  0  0  0  0  0  0  0  0  0  0
  145.2450  153.1020  132.1780 O   0  0  0  0  0  0  0  0  0  0  0  0
  146.0230  153.8320  134.2910 C   0  0  0  0  0  0  0  0  0  0  0  0
  146.0030  155.3120  134.0180 C   0  0  0  0  0  0  0  0  0  0  0  0
  147.1290  155.9450  133.4340 C   0  0  0  0  0  0  0  0  0  0  0  0
  147.1020  157.3180  133.1340 C   0  0  0  0  0  0  0  0  0  0  0  0
  145.9400  158.0280  133.4260 C   0  0  0  0  0  0  0  0  0  0  0  0
  145.6360  159.3540  133.2170 C   0  0  0  0  0  0  0  0  0  0  0  0
  144.3340  159.5140  133.6860 C   0  0  0  0  0  0  0  0  0  0  0  0
  143.6420  160.8210  133.7300 C   0  0  0  0  0  0  0  0  0  0  0  0
  142.2160  160.8700  133.7270 N   0  0  0  0  0  0  0  0  0  0  0  0
  144.2940  161.8980  133.7350 O   0  0  0  0  0  0  0  0  0  0  0  0
  143.8460  158.3290  134.1570 N   0  0  0  0  0  0  0  0  0  0  0  0
  142.5330  158.0540  134.6730 C   0  0  0  0  0  0  0  0  0  0  0  0
  142.1340  158.6390  135.7170 O   0  0  0  0  0  0  0  0  0  0  0  0
  141.6960  157.1600  133.9820 O   0  0  0  0  0  0  0  0  0  0  0  0
  140.3230  157.3810  133.6220 C   0  0  0  0  0  0  0  0  0  0  0  0
  140.3090  158.5000  132.5680 C   0  0  0  0  0  0  0  0  0  0  0  0
  139.7120  156.1070  133.0030 C   0  0  0  0  0  0  0  0  0  0  0  0
  139.5090  157.8420  134.8470 C   0  0  0  0  0  0  0  0  0  0  0  0
  144.8440  157.4310  133.9950 C   0  0  0  0  0  0  0  0  0  0  0  0
  144.8360  156.0620  134.2860 C   0  0  0  0  0  0  0  0  0  0  0  0
  148.9932  150.8507  135.5727 H   0  0  0  0  0  0  0  0  0  0  0  0
  150.3873  149.8215  135.0996 H   0  0  0  0  0  0  0  0  0  0  0  0
  150.5507  151.6103  135.0996 H   0  0  0  0  0  0  0  0  0  0  0  0
  150.4236  152.6193  133.6578 H   0  0  0  0  0  0  0  0  0  0  0  0
  150.3789  151.8331  132.0422 H   0  0  0  0  0  0  0  0  0  0  0  0
  148.5280  153.7521  133.2149 H   0  0  0  0  0  0  0  0  0  0  0  0
  148.5916  153.0366  131.5225 H   0  0  0  0  0  0  0  0  0  0  0  0
  147.3850  151.5770  133.7160 H   0  0  0  0  0  0  0  0  0  0  0  0
  146.6872  150.1640  132.2629 H   0  0  0  0  0  0  0  0  0  0  0  0
  146.1326  151.4696  131.1609 H   0  0  0  0  0  0  0  0  0  0  0  0
  147.8569  150.9664  131.1609 H   0  0  0  0  0  0  0  0  0  0  0  0
  145.0917  153.5518  134.8049 H   0  0  0  0  0  0  0  0  0  0  0  0
  146.9006  153.6108  134.9163 H   0  0  0  0  0  0  0  0  0  0  0  0
  148.0318  155.3565  133.2137 H   0  0  0  0  0  0  0  0  0  0  0  0
  147.9723  157.8165  132.6823 H   0  0  0  0  0  0  0  0  0  0  0  0
  146.2840  160.1244  132.7735 H   0  0  0  0  0  0  0  0  0  0  0  0
  141.6530  160.1620  134.2500 H   0  0  0  0  0  0  0  0  0  0  0  0
  140.2968  159.4779  133.0716 H   0  0  0  0  0  0  0  0  0  0  0  0
  141.2082  158.4226  131.9391 H   0  0  0  0  0  0  0  0  0  0  0  0
  139.4120  158.4002  131.9391 H   0  0  0  0  0  0  0  0  0  0  0  0
  139.3868  155.4289  133.8058 H   0  0  0  0  0  0  0  0  0  0  0  0
  138.8469  156.3802  132.3809 H   0  0  0  0  0  0  0  0  0  0  0  0
  140.4666  155.6034  132.3809 H   0  0  0  0  0  0  0  0  0  0  0  0
  140.0326  157.5455  135.7678 H   0  0  0  0  0  0  0  0  0  0  0  0
  139.3994  158.9363  134.8237 H   0  0  0  0  0  0  0  0  0  0  0  0
  138.5142  157.3732  134.8237 H   0  0  0  0  0  0  0  0  0  0  0  0
  143.9431  155.5818  134.7128 H   0  0  0  0  0  0  0  0  0  0  0  0
  1  2  1  0
  2  3  1  0
  3  4  1  0
  4  5  1  0
  5  6  1  0
  5  7  1  0
  7  8  2  0
  7  9  1  0
  9 10  1  0
 10 11  2  0
 11 12  1  0
 12 13  2  0
 13 14  1  0
 14 15  2  0
 15 16  1  0
 16 17  1  0
 16 18  2  0
 15 19  1  0
 19 20  1  0
 20 21  2  0
 20 22  1  0
 22 23  1  0
 23 24  1  0
 23 25  1  0
 23 26  1  0
 19 27  1  0
 27 28  2  0
 28 10  1  0
 27 13  1  0
  1 29  1  0
  1 30  1  0
  1 31  1  0
  3 32  1  0
  3 33  1  0
  4 34  1  0
  4 35  1  0
  5 36  1  1
  6 37  1  0
  6 38  1  0
  6 39  1  0
  9 40  1  0
  9 41  1  0
 11 42  1  0
 12 43  1  0
 14 44  1  0
 17 45  1  0
 24 46  1  0
 24 47  1  0
 24 48  1  0
 25 49  1  0
 25 50  1  0
 25 51  1  0
 26 52  1  0
 26 53  1  0
 26 54  1  0
 28 55  1  0
M  CHG  2   5   1  17  -1
M  END
>  <UniqueID>  (87) 
87

>  <SMILES>  (87) 
COCC[N@H+](C)C(=O)Cc1ccc2cc(C([NH-])=O)n(C(=O)OC(C)(C)C)c2c1

>  <Energy>  (87) 
92.57474600978966

>  <Genealogy>  (87) 
COCC[NH+](C)C(=O)Cc1ccc2cc(C([NH-])=O)n(C(=O)OC(C)(C)C)c2c1 (protonated)
COCC[N@H+](C)C(=O)Cc1ccc2cc(C([NH-])=O)n(C(=O)OC(C)(C)C)c2c1 (chirality)
COCC[N@H+](C)C(=O)Cc1ccc2cc(C([NH-])=O)n(C(=O)OC(C)(C)C)c2c1 (3D coordinates assigned)
COCC[N@H+](C)C(=O)Cc1ccc2cc(C([NH-])=O)n(C(=O)OC(C)(C)C)c2c1 (optimized conformer: 92.57474600978966 kcal/mol)

>  <smiles>  (87) 
COCCN(C)C(=O)Cc1ccc2cc(C(N)=O)n(C(=O)OC(C)(C)C)c2c1

>  <score_type>  (87) 
oracle

>  <origin>  (87) 
adg

>  <m_score__min__energy>  (87) 
-7.1799999999999997

>  <m_primary>  (87) 
energy

$$$$
88:0
     RDKit          3D

 49 52  0  0  0  0  0  0  0  0999 V2000
  145.2490  160.5460  132.9820 N   0  0  0  0  0  0  0  0  0  0  0  0
  144.5470  159.5570  133.7370 C   0  0  0  0  0  0  0  0  0  0  0  0
  143.6250  159.9230  134.5070 O   0  0  0  0  0  0  0  0  0  0  0  0
  144.9330  158.1280  133.6620 C   0  0  0  0  0  0  0  0  0  0  0  0
  144.0310  157.0710  133.7800 C   0  0  0  0  0  0  0  0  0  0  0  0
  144.7600  155.9340  133.5220 C   0  0  0  0  0  0  0  0  0  0  0  0
  144.3570  154.6030  133.4870 C   0  0  0  0  0  0  0  0  0  0  0  0
  145.3250  153.6320  133.1840 C   0  0  0  0  0  0  0  0  0  0  0  0
  146.6710  154.0040  132.9380 C   0  0  0  0  0  0  0  0  0  0  0  0
  147.6530  153.0060  132.6060 N   0  0  0  0  0  0  0  0  0  0  0  0
  149.0440  153.3900  132.3620 C   0  0  0  0  0  0  0  0  0  0  0  0
  149.9640  152.2400  132.7780 C   0  0  0  0  0  0  0  0  0  0  0  0
  149.5750  151.0360  132.1520 O   0  0  0  0  0  0  0  0  0  0  0  0
  148.3030  150.6400  132.6210 C   0  0  0  0  0  0  0  0  0  0  0  0
  147.2310  151.6580  132.2110 C   0  0  0  0  0  0  0  0  0  0  0  0
  147.0410  155.3650  132.9860 C   0  0  0  0  0  0  0  0  0  0  0  0
  146.0500  156.3140  133.2650 C   0  0  0  0  0  0  0  0  0  0  0  0
  146.1740  157.6570  133.3480 N   0  0  0  0  0  0  0  0  0  0  0  0
  147.3800  158.4180  133.1680 C   0  0  0  0  0  0  0  0  0  0  0  0
  148.3280  158.2950  133.9890 O   0  0  0  0  0  0  0  0  0  0  0  0
  147.4930  159.2990  132.0870 O   0  0  0  0  0  0  0  0  0  0  0  0
  148.7300  159.8810  131.6790 C   0  0  0  0  0  0  0  0  0  0  0  0
  148.4990  161.2850  131.1500 C   0  0  0  0  0  0  0  0  0  0  0  0
  149.6170  161.5190  130.1510 C   0  0  0  0  0  0  0  0  0  0  0  0
  149.9790  160.1470  129.5910 C   0  0  0  0  0  0  0  0  0  0  0  0
  149.3630  159.1100  130.5220 C   0  0  0  0  0  0  0  0  0  0  0  0
  144.9890  161.5550  133.0690 H   0  0  0  0  0  0  0  0  0  0  0  0
  146.0160  160.2900  132.3270 H   0  0  0  0  0  0  0  0  0  0  0  0
  142.9610  157.1337  134.0275 H   0  0  0  0  0  0  0  0  0  0  0  0
  143.3135  154.3203  133.6902 H   0  0  0  0  0  0  0  0  0  0  0  0
  145.0361  152.5717  133.1370 H   0  0  0  0  0  0  0  0  0  0  0  0
  149.1842  153.6047  131.2923 H   0  0  0  0  0  0  0  0  0  0  0  0
  149.2875  154.2885  132.9480 H   0  0  0  0  0  0  0  0  0  0  0  0
  150.9970  152.4808  132.4864 H   0  0  0  0  0  0  0  0  0  0  0  0
  149.8947  152.1094  133.8680 H   0  0  0  0  0  0  0  0  0  0  0  0
  148.0505  149.6583  132.1938 H   0  0  0  0  0  0  0  0  0  0  0  0
  148.3338  150.5827  133.7191 H   0  0  0  0  0  0  0  0  0  0  0  0
  147.0918  151.6233  131.1204 H   0  0  0  0  0  0  0  0  0  0  0  0
  146.2834  151.4113  132.7123 H   0  0  0  0  0  0  0  0  0  0  0  0
  148.0821  155.6727  132.8086 H   0  0  0  0  0  0  0  0  0  0  0  0
  149.3830  159.8678  132.5641 H   0  0  0  0  0  0  0  0  0  0  0  0
  147.5186  161.3553  130.6561 H   0  0  0  0  0  0  0  0  0  0  0  0
  148.5015  162.0347  131.9549 H   0  0  0  0  0  0  0  0  0  0  0  0
  149.2744  162.1826  129.3433 H   0  0  0  0  0  0  0  0  0  0  0  0
  150.4848  162.0009  130.6251 H   0  0  0  0  0  0  0  0  0  0  0  0
  149.5707  160.0334  128.5759 H   0  0  0  0  0  0  0  0  0  0  0  0
  151.0703  160.0225  129.5314 H   0  0  0  0  0  0  0  0  0  0  0  0
  148.5960  158.5294  129.9885 H   0  0  0  0  0  0  0  0  0  0  0  0
  150.1233  158.4033  130.8860 H   0  0  0  0  0  0  0  0  0  0  0  0
  1  2  1  0
  2  3  2  0
  2  4  1  0
  4  5  2  0
  5  6  1  0
  6  7  2  0
  7  8  1  0
  8  9  2  0
  9 10  1  0
 10 11  1  0
 11 12  1  0
 12 13  1  0
 13 14  1  0
 14 15  1  0
  9 16  1  0
 16 17  2  0
 17 18  1  0
 18 19  1  0
 19 20  2  0
 19 21  1  0
 21 22  1  0
 22 23  1  0
 23 24  1  0
 24 25  1  0
 25 26  1  0
 18  4  1  0
 26 22  1  0
 17  6  1  0
 15 10  1  0
  1 27  1  0
  1 28  1  0
  5 29  1  0
  7 30  1  0
  8 31  1  0
 11 32  1  0
 11 33  1  0
 12 34  1  0
 12 35  1  0
 14 36  1  0
 14 37  1  0
 15 38  1  0
 15 39  1  0
 16 40  1  0
 22 41  1  0
 23 42  1  0
 23 43  1  0
 24 44  1  0
 24 45  1  0
 25 46  1  0
 25 47  1  0
 26 48  1  0
 26 49  1  0
M  END
>  <UniqueID>  (88) 
88

>  <SMILES>  (88) 
NC(=O)c1cc2ccc(N3CCOCC3)cc2n1C(=O)OC1CCCC1

>  <Energy>  (88) 
93.19174648841712

>  <Genealogy>  (88) 
NC(=O)c1cc2ccc(N3CCOCC3)cc2n1C(=O)OC1CCCC1 (3D coordinates assigned)
NC(=O)c1cc2ccc(N3CCOCC3)cc2n1C(=O)OC1CCCC1 (nonaromatic ring conformer: 93.19174648841712 kcal/mol)

>  <smiles>  (88) 
NC(=O)c1cc2ccc(N3CCOCC3)cc2n1C(=O)OC1CCCC1

>  <score_type>  (88) 
oracle

>  <origin>  (88) 
adg

>  <m_score__min__energy>  (88) 
-8.7799999999999994

>  <m_primary>  (88) 
energy

$$$$
89:0
     RDKit          3D

 59 61  0  0  0  0  0  0  0  0999 V2000
  143.4800  154.4770  132.9950 C   0  0  0  0  0  0  0  0  0  0  0  0
  142.2200  155.2510  133.4190 C   0  0  0  0  0  0  0  0  0  0  0  0
  141.0090  154.3040  133.3920 C   0  0  0  0  0  0  0  0  0  0  0  0
  142.3660  155.8810  134.8280 C   0  0  0  0  0  0  0  0  0  0  0  0
  142.7540  157.3810  134.8280 C   0  0  2  0  0  0  0  0  0  0  0  0
  141.5410  158.2310  135.1070 C   0  0  0  0  0  0  0  0  0  0  0  0
  141.1650  158.4410  136.2930 O   0  0  0  0  0  0  0  0  0  0  0  0
  140.7740  158.7270  134.0110 N   0  0  0  0  0  0  0  0  0  0  0  0
  139.1950  158.1380  133.6050 S   0  0  0  0  0  0  0  0  0  0  0  0
  139.3010  156.7420  133.0610 O   0  0  0  0  0  0  0  0  0  0  0  0
  138.3300  158.1330  134.8300 O   0  0  0  0  0  0  0  0  0  0  0  0
  138.4730  159.1830  132.3410 C   0  0  0  0  0  0  0  0  0  0  0  0
  139.5000  159.6410  131.2900 C   0  0  0  0  0  0  0  0  0  0  0  0
  140.7790  158.9450  131.4180 N   0  0  0  0  0  0  0  0  0  0  0  0
  143.3820  157.8580  133.5300 C   0  0  0  0  0  0  0  0  0  0  0  0
  142.7380  157.8050  132.4510 O   0  0  0  0  0  0  0  0  0  0  0  0
  144.6740  158.4950  133.5490 N   0  0  0  0  0  0  0  0  0  0  0  0
  144.9550  159.8280  133.4930 C   0  0  0  0  0  0  0  0  0  0  0  0
  143.9830  160.9210  133.6840 C   0  0  0  0  0  0  0  0  0  0  0  0
  142.6030  160.7100  133.3740 N   0  0  0  0  0  0  0  0  0  0  0  0
  144.3700  162.0600  134.0600 O   0  0  0  0  0  0  0  0  0  0  0  0
  146.3230  160.0350  133.3630 C   0  0  0  0  0  0  0  0  0  0  0  0
  146.8860  158.7770  133.3620 C   0  0  0  0  0  0  0  0  0  0  0  0
  148.2230  158.3900  133.2810 C   0  0  0  0  0  0  0  0  0  0  0  0
  148.5160  157.0160  133.3280 C   0  0  0  0  0  0  0  0  0  0  0  0
  147.4730  156.0630  133.4560 C   0  0  0  0  0  0  0  0  0  0  0  0
  147.8060  154.5970  133.5320 C   0  0  0  0  0  0  0  0  0  0  0  0
  147.3370  154.0160  134.8310 C   0  0  0  0  0  0  0  0  0  0  0  0
  146.0420  153.9320  135.2870 C   0  0  0  0  0  0  0  0  0  0  0  0
  146.0530  153.4140  136.5340 N   0  0  0  0  0  0  0  0  0  0  0  0
  147.3110  153.1740  136.8850 N   0  0  0  0  0  0  0  0  0  0  0  0
  148.1150  153.5370  135.8670 C   0  0  0  0  0  0  0  0  0  0  0  0
  146.1270  156.4920  133.5160 C   0  0  0  0  0  0  0  0  0  0  0  0
  145.8680  157.8660  133.4800 C   0  0  0  0  0  0  0  0  0  0  0  0
  144.0239  154.1429  133.8908 H   0  0  0  0  0  0  0  0  0  0  0  0
  143.1884  153.6020  132.3955 H   0  0  0  0  0  0  0  0  0  0  0  0
  144.1286  155.1326  132.3955 H   0  0  0  0  0  0  0  0  0  0  0  0
  142.0746  156.0761  132.7062 H   0  0  0  0  0  0  0  0  0  0  0  0
  140.7059  154.0669  134.4225 H   0  0  0  0  0  0  0  0  0  0  0  0
  140.1741  154.7913  132.8671 H   0  0  0  0  0  0  0  0  0  0  0  0
  141.2807  153.3763  132.8671 H   0  0  0  0  0  0  0  0  0  0  0  0
  141.4046  155.7755  135.3521 H   0  0  0  0  0  0  0  0  0  0  0  0
  143.1895  155.3465  135.3242 H   0  0  0  0  0  0  0  0  0  0  0  0
  143.5116  157.4874  135.6184 H   0  0  0  0  0  0  0  0  0  0  0  0
  137.6762  158.6205  131.8324 H   0  0  0  0  0  0  0  0  0  0  0  0
  138.0824  160.0833  132.8378 H   0  0  0  0  0  0  0  0  0  0  0  0
  139.0906  159.4456  130.2879 H   0  0  0  0  0  0  0  0  0  0  0  0
  139.6854  160.7136  131.4485 H   0  0  0  0  0  0  0  0  0  0  0  0
  141.4260  159.5270  131.9880 H   0  0  0  0  0  0  0  0  0  0  0  0
  140.6340  158.0330  131.9120 H   0  0  0  0  0  0  0  0  0  0  0  0
  142.2910  159.8540  132.8590 H   0  0  0  0  0  0  0  0  0  0  0  0
  146.8459  160.9991  133.2787 H   0  0  0  0  0  0  0  0  0  0  0  0
  149.0243  159.1373  133.1833 H   0  0  0  0  0  0  0  0  0  0  0  0
  149.5608  156.6776  133.2651 H   0  0  0  0  0  0  0  0  0  0  0  0
  147.3126  154.0707  132.7016 H   0  0  0  0  0  0  0  0  0  0  0  0
  148.8973  154.4774  133.4636 H   0  0  0  0  0  0  0  0  0  0  0  0
  145.1450  154.2367  134.7279 H   0  0  0  0  0  0  0  0  0  0  0  0
  149.2126  153.4639  135.8616 H   0  0  0  0  0  0  0  0  0  0  0  0
  145.3053  155.7644  133.5891 H   0  0  0  0  0  0  0  0  0  0  0  0
  1  2  1  0
  2  3  1  0
  2  4  1  0
  4  5  1  0
  5  6  1  0
  6  7  2  0
  6  8  1  0
  8  9  1  0
  9 10  2  0
  9 11  2  0
  9 12  1  0
 12 13  1  0
 13 14  1  0
  5 15  1  0
 15 16  2  0
 15 17  1  0
 17 18  1  0
 18 19  1  0
 19 20  1  0
 19 21  2  0
 18 22  2  0
 22 23  1  0
 23 24  2  0
 24 25  1  0
 25 26  2  0
 26 27  1  0
 27 28  1  0
 28 29  1  0
 29 30  2  0
 30 31  1  0
 31 32  1  0
 26 33  1  0
 33 34  2  0
 34 17  1  0
 34 23  1  0
 32 28  2  0
  1 35  1  0
  1 36  1  0
  1 37  1  0
  2 38  1  0
  3 39  1  0
  3 40  1  0
  3 41  1  0
  4 42  1  0
  4 43  1  0
  5 44  1  1
 12 45  1  0
 12 46  1  0
 13 47  1  0
 13 48  1  0
 14 49  1  0
 14 50  1  0
 20 51  1  0
 22 52  1  0
 24 53  1  0
 25 54  1  0
 27 55  1  0
 27 56  1  0
 29 57  1  0
 32 58  1  0
 33 59  1  0
M  CHG  3   8  -1  20  -1  31  -1
M  END
>  <UniqueID>  (89) 
89

>  <SMILES>  (89) 
CC(C)C[C@H](C(=O)[N-]S(=O)(=O)CCN)C(=O)n1c(C([NH-])=O)cc2ccc(Cc3cn[n-]c3)cc21

>  <Energy>  (89) 
118.6829442115971

>  <Genealogy>  (89) 
CC(C)C[C@H](C(=O)[N-]S(=O)(=O)CCN)C(=O)n1c(C([NH-])=O)cc2ccc(Cc3cn[n-]c3)cc21 (protonated)
CC(C)C[C@H](C(=O)[N-]S(=O)(=O)CCN)C(=O)n1c(C([NH-])=O)cc2ccc(Cc3cn[n-]c3)cc21 (3D coordinates assigned)
CC(C)C[C@H](C(=O)[N-]S(=O)(=O)CCN)C(=O)n1c(C([NH-])=O)cc2ccc(Cc3cn[n-]c3)cc21 (optimized conformer: 118.6829442115971 kcal/mol)

>  <smiles>  (89) 
CC(C)C[C@H](C(=O)NS(=O)(=O)CCN)C(=O)n1c(C(N)=O)cc2ccc(Cc3cn[nH]c3)cc21

>  <score_type>  (89) 
oracle

>  <origin>  (89) 
adg

>  <m_score__min__energy>  (89) 
-9.7899999999999991

>  <m_primary>  (89) 
energy

$$$$
90:0
     RDKit          3D

 45 47  0  0  0  0  0  0  0  0999 V2000
  149.8790  150.8770  134.4330 C   0  0  0  0  0  0  0  0  0  0  0  0
  149.7240  150.6770  132.9830 N   0  0  0  0  0  0  0  0  0  0  0  0
  148.4820  149.9430  132.6330 C   0  0  0  0  0  0  0  0  0  0  0  0
  147.3960  150.8170  131.9770 C   0  0  0  0  0  0  0  0  0  0  0  0
  147.4040  152.2220  132.5670 C   0  0  0  0  0  0  0  0  0  0  0  0
  148.7480  152.9190  132.2980 C   0  0  1  0  0  0  0  0  0  0  0  0
  148.9710  153.9160  133.2980 O   0  0  0  0  0  0  0  0  0  0  0  0
  148.1150  154.1110  134.3910 C   0  0  0  0  0  0  0  0  0  0  0  0
  148.2510  153.4170  135.4350 O   0  0  0  0  0  0  0  0  0  0  0  0
  147.1160  155.1430  134.3430 N   0  0  0  0  0  0  0  0  0  0  0  0
  145.8010  155.0480  134.6860 C   0  0  0  0  0  0  0  0  0  0  0  0
  145.1670  153.9010  135.3610 C   0  0  0  0  0  0  0  0  0  0  0  0
  145.7490  153.3600  136.5440 N   0  0  0  0  0  0  0  0  0  0  0  0
  144.1380  153.3640  134.8770 O   0  0  0  0  0  0  0  0  0  0  0  0
  145.1310  156.2340  134.3950 C   0  0  0  0  0  0  0  0  0  0  0  0
  146.0850  157.0710  133.8630 C   0  0  0  0  0  0  0  0  0  0  0  0
  145.9680  158.3750  133.3930 C   0  0  0  0  0  0  0  0  0  0  0  0
  147.1160  158.9920  132.8690 C   0  0  0  0  0  0  0  0  0  0  0  0
  148.3470  158.2910  132.8110 C   0  0  0  0  0  0  0  0  0  0  0  0
  149.5730  158.9690  132.2660 C   0  0  0  0  0  0  0  0  0  0  0  0
  149.2890  159.5340  130.9120 C   0  0  0  0  0  0  0  0  0  0  0  0
  149.4870  160.7550  130.6790 O   0  0  0  0  0  0  0  0  0  0  0  0
  148.8530  158.7010  129.8890 O   0  0  0  0  0  0  0  0  0  0  0  0
  148.4300  156.9720  133.3060 C   0  0  0  0  0  0  0  0  0  0  0  0
  147.2740  156.3890  133.8400 C   0  0  0  0  0  0  0  0  0  0  0  0
  149.9360  151.9240  132.2170 C   0  0  0  0  0  0  0  0  0  0  0  0
  149.2918  150.1193  134.9725 H   0  0  0  0  0  0  0  0  0  0  0  0
  150.9404  150.7804  134.7051 H   0  0  0  0  0  0  0  0  0  0  0  0
  149.5206  151.8808  134.7051 H   0  0  0  0  0  0  0  0  0  0  0  0
  148.7440  149.1354  131.9336 H   0  0  0  0  0  0  0  0  0  0  0  0
  148.0592  149.5686  133.5770 H   0  0  0  0  0  0  0  0  0  0  0  0
  147.5871  150.8787  130.8955 H   0  0  0  0  0  0  0  0  0  0  0  0
  146.4134  150.3603  132.1663 H   0  0  0  0  0  0  0  0  0  0  0  0
  146.5948  152.8100  132.1094 H   0  0  0  0  0  0  0  0  0  0  0  0
  147.2560  152.1488  133.6545 H   0  0  0  0  0  0  0  0  0  0  0  0
  148.6908  153.3967  131.3088 H   0  0  0  0  0  0  0  0  0  0  0  0
  146.7380  153.5770  136.8030 H   0  0  0  0  0  0  0  0  0  0  0  0
  144.0655  156.4547  134.5562 H   0  0  0  0  0  0  0  0  0  0  0  0
  145.0058  158.9068  133.4305 H   0  0  0  0  0  0  0  0  0  0  0  0
  147.0595  160.0270  132.5008 H   0  0  0  0  0  0  0  0  0  0  0  0
  149.8708  159.7822  132.9443 H   0  0  0  0  0  0  0  0  0  0  0  0
  150.3857  158.2321  132.1851 H   0  0  0  0  0  0  0  0  0  0  0  0
  149.3785  156.4160  133.2732 H   0  0  0  0  0  0  0  0  0  0  0  0
  150.0954  151.6595  131.1612 H   0  0  0  0  0  0  0  0  0  0  0  0
  150.8069  152.4284  132.6610 H   0  0  0  0  0  0  0  0  0  0  0  0
  1  2  1  0
  2  3  1  0
  3  4  1  0
  4  5  1  0
  5  6  1  0
  6  7  1  0
  7  8  1  0
  8  9  2  0
  8 10  1  0
 10 11  1  0
 11 12  1  0
 12 13  1  0
 12 14  2  0
 11 15  2  0
 15 16  1  0
 16 17  2  0
 17 18  1  0
 18 19  2  0
 19 20  1  0
 20 21  1  0
 21 22  2  0
 21 23  1  0
 19 24  1  0
 24 25  2  0
  6 26  1  0
 26  2  1  0
 25 10  1  0
 25 16  1  0
  1 27  1  0
  1 28  1  0
  1 29  1  0
  3 30  1  0
  3 31  1  0
  4 32  1  0
  4 33  1  0
  5 34  1  0
  5 35  1  0
  6 36  1  6
 13 37  1  0
 15 38  1  0
 17 39  1  0
 18 40  1  0
 20 41  1  0
 20 42  1  0
 24 43  1  0
 26 44  1  0
 26 45  1  0
M  CHG  2  13  -1  23  -1
M  END
>  <UniqueID>  (90) 
90

>  <SMILES>  (90) 
CN1CCC[C@@H](OC(=O)n2c(C([NH-])=O)cc3ccc(CC(=O)[O-])cc32)C1

>  <Energy>  (90) 
90.90113335568934

>  <Genealogy>  (90) 
CN1CCC[C@@H](OC(=O)n2c(C([NH-])=O)cc3ccc(CC(=O)[O-])cc32)C1 (protonated)
CN1CCC[C@@H](OC(=O)n2c(C([NH-])=O)cc3ccc(CC(=O)[O-])cc32)C1 (3D coordinates assigned)
CN1CCC[C@@H](OC(=O)n2c(C([NH-])=O)cc3ccc(CC(=O)[O-])cc32)C1 (nonaromatic ring conformer: 90.90113335568934 kcal/mol)

>  <smiles>  (90) 
CN1CCC[C@@H](OC(=O)n2c(C(N)=O)cc3ccc(CC(=O)O)cc32)C1

>  <score_type>  (90) 
oracle

>  <origin>  (90) 
adg

>  <m_score__min__energy>  (90) 
-7.9699999999999998

>  <m_primary>  (90) 
energy

$$$$
91:0
     RDKit          3D

 37 39  0  0  0  0  0  0  0  0999 V2000
  147.7280  160.8570  132.1650 N   0  0  0  0  0  0  0  0  0  0  0  0
  148.4050  159.6100  132.0010 C   0  0  0  0  0  0  0  0  0  0  0  0
  149.4420  159.5590  131.2870 O   0  0  0  0  0  0  0  0  0  0  0  0
  147.8740  158.3680  132.5970 C   0  0  0  0  0  0  0  0  0  0  0  0
  148.6090  157.1890  132.6880 C   0  0  0  0  0  0  0  0  0  0  0  0
  147.7470  156.2660  133.2330 C   0  0  0  0  0  0  0  0  0  0  0  0
  147.9580  154.9270  133.5510 C   0  0  0  0  0  0  0  0  0  0  0  0
  146.8980  154.2150  134.1380 C   0  0  0  0  0  0  0  0  0  0  0  0
  145.6650  154.8560  134.4090 C   0  0  0  0  0  0  0  0  0  0  0  0
  144.5560  154.1020  135.0290 C   0  0  0  0  0  0  0  0  0  0  0  0
  144.4750  154.0830  136.4290 C   0  0  0  0  0  0  0  0  0  0  0  0
  143.4300  153.4250  137.0740 C   0  0  0  0  0  0  0  0  0  0  0  0
  142.4350  152.7740  136.3330 C   0  0  0  0  0  0  0  0  0  0  0  0
  141.3170  152.0930  137.0250 C   0  0  0  0  0  0  0  0  0  0  0  0
  140.9510  152.4660  138.1710 O   0  0  0  0  0  0  0  0  0  0  0  0
  140.6550  151.0320  136.4190 O   0  0  0  0  0  0  0  0  0  0  0  0
  142.5170  152.7760  134.9290 C   0  0  0  0  0  0  0  0  0  0  0  0
  143.5830  153.4090  134.2610 C   0  0  0  0  0  0  0  0  0  0  0  0
  143.6400  153.3680  132.7440 C   0  0  0  0  0  0  0  0  0  0  0  0
  144.7240  152.6090  132.3430 F   0  0  0  0  0  0  0  0  0  0  0  0
  142.4800  152.8190  132.2250 F   0  0  0  0  0  0  0  0  0  0  0  0
  143.7740  154.6390  132.2110 F   0  0  0  0  0  0  0  0  0  0  0  0
  145.4820  156.2120  134.0630 C   0  0  0  0  0  0  0  0  0  0  0  0
  146.5480  156.8920  133.4600 C   0  0  0  0  0  0  0  0  0  0  0  0
  146.6110  158.1890  133.0770 N   0  0  0  0  0  0  0  0  0  0  0  0
  145.6000  159.1940  133.2620 C   0  0  0  0  0  0  0  0  0  0  0  0
  145.8330  160.2140  133.9620 O   0  0  0  0  0  0  0  0  0  0  0  0
  144.3540  159.0540  132.6620 O   0  0  0  0  0  0  0  0  0  0  0  0
  148.1370  161.7310  131.7670 H   0  0  0  0  0  0  0  0  0  0  0  0
  146.7840  160.9030  132.6080 H   0  0  0  0  0  0  0  0  0  0  0  0
  149.6553  157.0297  132.3882 H   0  0  0  0  0  0  0  0  0  0  0  0
  148.9242  154.4416  133.3491 H   0  0  0  0  0  0  0  0  0  0  0  0
  147.0272  153.1518  134.3888 H   0  0  0  0  0  0  0  0  0  0  0  0
  145.2458  154.5937  137.0249 H   0  0  0  0  0  0  0  0  0  0  0  0
  143.3858  153.4166  138.1731 H   0  0  0  0  0  0  0  0  0  0  0  0
  141.7340  152.2739  134.3418 H   0  0  0  0  0  0  0  0  0  0  0  0
  144.5275  156.7214  134.2616 H   0  0  0  0  0  0  0  0  0  0  0  0
  1  2  1  0
  2  3  2  0
  2  4  1  0
  4  5  2  0
  5  6  1  0
  6  7  2  0
  7  8  1  0
  8  9  2  0
  9 10  1  0
 10 11  2  0
 11 12  1  0
 12 13  2  0
 13 14  1  0
 14 15  2  0
 14 16  1  0
 13 17  1  0
 17 18  2  0
 18 19  1  0
 19 20  1  0
 19 21  1  0
 19 22  1  0
  9 23  1  0
 23 24  2  0
 24 25  1  0
 25 26  1  0
 26 27  2  0
 26 28  1  0
 25  4  1  0
 24  6  1  0
 18 10  1  0
  1 29  1  0
  1 30  1  0
  5 31  1  0
  7 32  1  0
  8 33  1  0
 11 34  1  0
 12 35  1  0
 17 36  1  0
 23 37  1  0
M  CHG  2  16  -1  28  -1
M  END
>  <UniqueID>  (91) 
91

>  <SMILES>  (91) 
NC(=O)c1cc2ccc(-c3ccc(C(=O)[O-])cc3C(F)(F)F)cc2n1C(=O)[O-]

>  <Energy>  (91) 
90.56349722655683

>  <Genealogy>  (91) 
NC(=O)c1cc2ccc(-c3ccc(C(=O)[O-])cc3C(F)(F)F)cc2n1C(=O)[O-] (protonated)
NC(=O)c1cc2ccc(-c3ccc(C(=O)[O-])cc3C(F)(F)F)cc2n1C(=O)[O-] (3D coordinates assigned)
NC(=O)c1cc2ccc(-c3ccc(C(=O)[O-])cc3C(F)(F)F)cc2n1C(=O)[O-] (optimized conformer: 90.56349722655683 kcal/mol)

>  <smiles>  (91) 
NC(=O)c1cc2ccc(-c3ccc(C(=O)O)cc3C(F)(F)F)cc2n1C(=O)O

>  <score_type>  (91) 
oracle

>  <origin>  (91) 
adg

>  <m_score__min__energy>  (91) 
-7.4100000000000001

>  <m_primary>  (91) 
energy

$$$$
92:0
     RDKit          3D

 43 44  0  0  0  0  0  0  0  0999 V2000
  137.2160  160.1200  131.0470 C   0  0  0  0  0  0  0  0  0  0  0  0
  138.4410  159.3640  131.5860 C   0  0  0  0  0  0  0  0  0  0  0  0
  139.1150  158.6150  130.4200 C   0  0  0  0  0  0  0  0  0  0  0  0
  139.4150  160.3800  132.2140 C   0  0  0  0  0  0  0  0  0  0  0  0
  137.9670  158.4380  132.5760 O   0  0  0  0  0  0  0  0  0  0  0  0
  138.7410  157.8060  133.5580 C   0  0  0  0  0  0  0  0  0  0  0  0
  139.0270  158.3880  134.6400 O   0  0  0  0  0  0  0  0  0  0  0  0
  139.2030  156.4750  133.3180 N   0  0  0  0  0  0  0  0  0  0  0  0
  140.6120  156.1200  133.1800 C   0  0  0  0  0  0  0  0  0  0  0  0
  141.3910  156.5230  134.4350 C   0  0  0  0  0  0  0  0  0  0  0  0
  142.4290  157.5610  134.1020 C   0  0  0  0  0  0  0  0  0  0  0  0
  142.0440  158.9100  133.9010 C   0  0  0  0  0  0  0  0  0  0  0  0
  143.0070  159.8970  133.6360 C   0  0  0  0  0  0  0  0  0  0  0  0
  144.3430  159.5070  133.5800 C   0  0  0  0  0  0  0  0  0  0  0  0
  145.4750  160.2590  133.3700 C   0  0  0  0  0  0  0  0  0  0  0  0
  146.5360  159.3580  133.4370 C   0  0  0  0  0  0  0  0  0  0  0  0
  147.9410  159.7370  133.1820 C   0  0  0  0  0  0  0  0  0  0  0  0
  148.9720  159.2630  134.0450 N   0  0  0  0  0  0  0  0  0  0  0  0
  148.2400  160.5050  132.2300 O   0  0  0  0  0  0  0  0  0  0  0  0
  146.0770  158.0970  133.6850 N   0  0  0  0  0  0  0  0  0  0  0  0
  146.8470  156.9010  133.8890 C   0  0  0  0  0  0  0  0  0  0  0  0
  146.4700  156.0330  134.7190 O   0  0  0  0  0  0  0  0  0  0  0  0
  148.0050  156.6790  133.1520 O   0  0  0  0  0  0  0  0  0  0  0  0
  144.7320  158.2060  133.7660 C   0  0  0  0  0  0  0  0  0  0  0  0
  143.7940  157.2040  134.0510 C   0  0  0  0  0  0  0  0  0  0  0  0
  136.6143  160.4913  131.8897 H   0  0  0  0  0  0  0  0  0  0  0  0
  137.5502  160.9692  130.4328 H   0  0  0  0  0  0  0  0  0  0  0  0
  136.6068  159.4405  130.4328 H   0  0  0  0  0  0  0  0  0  0  0  0
  139.8003  157.8535  130.8207 H   0  0  0  0  0  0  0  0  0  0  0  0
  138.3453  158.1277  129.8035 H   0  0  0  0  0  0  0  0  0  0  0  0
  139.6806  159.3292  129.8035 H   0  0  0  0  0  0  0  0  0  0  0  0
  139.3543  160.3167  133.3105 H   0  0  0  0  0  0  0  0  0  0  0  0
  140.4413  160.1527  131.8899 H   0  0  0  0  0  0  0  0  0  0  0  0
  139.1446  161.3958  131.8899 H   0  0  0  0  0  0  0  0  0  0  0  0
  140.6990  155.0333  133.0331 H   0  0  0  0  0  0  0  0  0  0  0  0
  141.0307  156.6539  132.3142 H   0  0  0  0  0  0  0  0  0  0  0  0
  140.6922  156.9354  135.1777 H   0  0  0  0  0  0  0  0  0  0  0  0
  141.8954  155.6337  134.8409 H   0  0  0  0  0  0  0  0  0  0  0  0
  140.9806  159.1865  133.9531 H   0  0  0  0  0  0  0  0  0  0  0  0
  142.7153  160.9457  133.4775 H   0  0  0  0  0  0  0  0  0  0  0  0
  145.5311  161.3423  133.1877 H   0  0  0  0  0  0  0  0  0  0  0  0
  149.2290  158.2510  134.0690 H   0  0  0  0  0  0  0  0  0  0  0  0
  144.1131  156.1667  134.2302 H   0  0  0  0  0  0  0  0  0  0  0  0
  1  2  1  0
  2  3  1  0
  2  4  1  0
  2  5  1  0
  5  6  1  0
  6  7  2  0
  6  8  1  0
  8  9  1  0
  9 10  1  0
 10 11  1  0
 11 12  2  0
 12 13  1  0
 13 14  2  0
 14 15  1  0
 15 16  2  0
 16 17  1  0
 17 18  1  0
 17 19  2  0
 16 20  1  0
 20 21  1  0
 21 22  2  0
 21 23  1  0
 20 24  1  0
 24 25  2  0
 25 11  1  0
 24 14  1  0
  1 26  1  0
  1 27  1  0
  1 28  1  0
  3 29  1  0
  3 30  1  0
  3 31  1  0
  4 32  1  0
  4 33  1  0
  4 34  1  0
  9 35  1  0
  9 36  1  0
 10 37  1  0
 10 38  1  0
 12 39  1  0
 13 40  1  0
 15 41  1  0
 18 42  1  0
 25 43  1  0
M  CHG  3   8  -1  18  -1  23  -1
M  END
>  <UniqueID>  (92) 
92

>  <SMILES>  (92) 
CC(C)(C)OC(=O)[N-]CCc1ccc2cc(C([NH-])=O)n(C(=O)[O-])c2c1

>  <Energy>  (92) 
73.21358549413749

>  <Genealogy>  (92) 
CC(C)(C)OC(=O)[N-]CCc1ccc2cc(C([NH-])=O)n(C(=O)[O-])c2c1 (protonated)
CC(C)(C)OC(=O)[N-]CCc1ccc2cc(C([NH-])=O)n(C(=O)[O-])c2c1 (3D coordinates assigned)
CC(C)(C)OC(=O)[N-]CCc1ccc2cc(C([NH-])=O)n(C(=O)[O-])c2c1 (optimized conformer: 73.21358549413749 kcal/mol)

>  <smiles>  (92) 
CC(C)(C)OC(=O)NCCc1ccc2cc(C(N)=O)n(C(=O)O)c2c1

>  <score_type>  (92) 
oracle

>  <origin>  (92) 
adg

>  <m_score__min__energy>  (92) 
-7.2199999999999998

>  <m_primary>  (92) 
energy

$$$$
93:0
     RDKit          3D

 46 50  0  0  0  0  0  0  0  0999 V2000
  149.6470  157.6550  132.2240 N   0  0  0  0  0  0  0  0  0  0  0  0
  148.8440  158.8140  132.0100 C   0  0  0  0  0  0  0  0  0  0  0  0
  149.2840  159.7390  131.2760 O   0  0  0  0  0  0  0  0  0  0  0  0
  147.4960  158.9320  132.6060 C   0  0  0  0  0  0  0  0  0  0  0  0
  146.7840  160.1280  132.6710 C   0  0  0  0  0  0  0  0  0  0  0  0
  145.5670  159.8020  133.2240 C   0  0  0  0  0  0  0  0  0  0  0  0
  144.4650  160.6030  133.5070 C   0  0  0  0  0  0  0  0  0  0  0  0
  143.3340  159.9920  134.0740 C   0  0  0  0  0  0  0  0  0  0  0  0
  143.3330  158.6050  134.3650 C   0  0  0  0  0  0  0  0  0  0  0  0
  142.1050  157.9440  134.9310 C   0  0  0  0  0  0  0  0  0  0  0  0
  141.1570  157.6480  133.8550 N   0  0  0  0  0  0  0  0  0  0  0  0
  140.6750  156.4350  133.4840 C   0  0  0  0  0  0  0  0  0  0  0  0
  141.0700  155.3450  133.9800 O   0  0  0  0  0  0  0  0  0  0  0  0
  139.7310  156.5120  132.5600 O   0  0  0  0  0  0  0  0  0  0  0  0
  139.5740  157.7920  132.3230 C   0  0  0  0  0  0  0  0  0  0  0  0
  138.6890  158.4150  131.4510 C   0  0  0  0  0  0  0  0  0  0  0  0
  138.7180  159.8210  131.4140 C   0  0  0  0  0  0  0  0  0  0  0  0
  139.5920  160.5200  132.2080 N   0  0  0  0  0  0  0  0  0  0  0  0
  140.4580  159.8950  133.0590 C   0  0  0  0  0  0  0  0  0  0  0  0
  140.4350  158.5040  133.1060 C   0  0  0  0  0  0  0  0  0  0  0  0
  144.4740  157.8280  134.0730 C   0  0  0  0  0  0  0  0  0  0  0  0
  145.5730  158.4560  133.4810 C   0  0  0  0  0  0  0  0  0  0  0  0
  146.7480  157.9070  133.1040 N   0  0  0  0  0  0  0  0  0  0  0  0
  147.1280  156.5290  133.2400 C   0  0  0  0  0  0  0  0  0  0  0  0
  147.9230  156.1910  134.1610 O   0  0  0  0  0  0  0  0  0  0  0  0
  146.6780  155.5150  132.2250 C   0  0  0  0  0  0  0  0  0  0  0  0
  145.4190  154.8200  132.6460 C   0  0  0  0  0  0  0  0  0  0  0  0
  144.3570  154.4680  131.8200 C   0  0  0  0  0  0  0  0  0  0  0  0
  143.3240  153.8140  132.5000 C   0  0  0  0  0  0  0  0  0  0  0  0
  143.5640  153.6520  133.8590 C   0  0  0  0  0  0  0  0  0  0  0  0
  145.0670  154.3210  134.2130 S   0  0  0  0  0  0  0  0  0  0  0  0
  149.6090  157.1330  133.1260 H   0  0  0  0  0  0  0  0  0  0  0  0
  147.1234  161.1233  132.3482 H   0  0  0  0  0  0  0  0  0  0  0  0
  144.4789  161.6819  133.2933 H   0  0  0  0  0  0  0  0  0  0  0  0
  142.4412  160.5957  134.2941 H   0  0  0  0  0  0  0  0  0  0  0  0
  142.3927  157.0076  135.4313 H   0  0  0  0  0  0  0  0  0  0  0  0
  141.6302  158.6222  135.6553 H   0  0  0  0  0  0  0  0  0  0  0  0
  137.9987  157.8362  130.8198 H   0  0  0  0  0  0  0  0  0  0  0  0
  138.0352  160.3639  130.7438 H   0  0  0  0  0  0  0  0  0  0  0  0
  141.1518  160.4725  133.6875 H   0  0  0  0  0  0  0  0  0  0  0  0
  144.4978  156.7532  134.3059 H   0  0  0  0  0  0  0  0  0  0  0  0
  146.4983  156.0263  131.2678 H   0  0  0  0  0  0  0  0  0  0  0  0
  147.4689  154.7566  132.1287 H   0  0  0  0  0  0  0  0  0  0  0  0
  144.3318  154.6821  130.7413 H   0  0  0  0  0  0  0  0  0  0  0  0
  142.4073  153.4609  132.0050 H   0  0  0  0  0  0  0  0  0  0  0  0
  142.8876  153.1693  134.5798 H   0  0  0  0  0  0  0  0  0  0  0  0
  1  2  1  0
  2  3  2  0
  2  4  1  0
  4  5  2  0
  5  6  1  0
  6  7  2  0
  7  8  1  0
  8  9  2  0
  9 10  1  0
 10 11  1  0
 11 12  1  0
 12 13  2  0
 12 14  1  0
 14 15  1  0
 15 16  2  0
 16 17  1  0
 17 18  2  0
 18 19  1  0
 19 20  2  0
  9 21  1  0
 21 22  2  0
 22 23  1  0
 23 24  1  0
 24 25  2  0
 24 26  1  0
 26 27  1  0
 27 28  2  0
 28 29  1  0
 29 30  2  0
 30 31  1  0
 23  4  1  0
 31 27  1  0
 22  6  1  0
 20 11  1  0
 20 15  1  0
  1 32  1  0
  5 33  1  0
  7 34  1  0
  8 35  1  0
 10 36  1  0
 10 37  1  0
 16 38  1  0
 17 39  1  0
 19 40  1  0
 21 41  1  0
 26 42  1  0
 26 43  1  0
 28 44  1  0
 29 45  1  0
 30 46  1  0
M  CHG  1   1  -1
M  END
>  <UniqueID>  (93) 
93

>  <SMILES>  (93) 
[NH-]C(=O)c1cc2ccc(Cn3c(=O)oc4ccncc43)cc2n1C(=O)Cc1cccs1

>  <Energy>  (93) 
157.485634763167

>  <Genealogy>  (93) 
[NH-]C(=O)c1cc2ccc(Cn3c(=O)oc4ccncc43)cc2n1C(=O)Cc1cccs1 (protonated)
[NH-]C(=O)c1cc2ccc(Cn3c(=O)oc4ccncc43)cc2n1C(=O)Cc1cccs1 (3D coordinates assigned)
[NH-]C(=O)c1cc2ccc(Cn3c(=O)oc4ccncc43)cc2n1C(=O)Cc1cccs1 (optimized conformer: 157.485634763167 kcal/mol)

>  <smiles>  (93) 
NC(=O)c1cc2ccc(Cn3c(=O)oc4ccncc43)cc2n1C(=O)Cc1cccs1

>  <score_type>  (93) 
oracle

>  <origin>  (93) 
adg

>  <m_score__min__energy>  (93) 
-9.2699999999999996

>  <m_primary>  (93) 
energy

$$$$
94:0
     RDKit          3D

 40 41  0  0  0  0  0  0  0  0999 V2000
  149.6480  150.7570  134.3830 C   0  0  0  0  0  0  0  0  0  0  0  0
  149.2370  152.0790  134.0570 O   0  0  0  0  0  0  0  0  0  0  0  0
  149.3230  152.5960  132.7610 C   0  0  0  0  0  0  0  0  0  0  0  0
  149.1260  151.8560  131.7590 O   0  0  0  0  0  0  0  0  0  0  0  0
  149.6010  154.0510  132.5680 C   0  0  0  0  0  0  0  0  0  0  0  0
  148.3410  154.8450  132.7720 C   0  0  0  0  0  0  0  0  0  0  0  0
  147.1070  154.1810  132.9830 C   0  0  0  0  0  0  0  0  0  0  0  0
  145.9320  154.9120  133.2220 C   0  0  0  0  0  0  0  0  0  0  0  0
  146.0220  156.3010  133.2460 C   0  0  0  0  0  0  0  0  0  0  0  0
  145.0520  157.2450  133.4880 C   0  0  0  0  0  0  0  0  0  0  0  0
  145.7040  158.4740  133.4130 C   0  0  0  0  0  0  0  0  0  0  0  0
  145.0100  159.7740  133.5300 C   0  0  0  0  0  0  0  0  0  0  0  0
  145.7670  160.9680  133.7100 N   0  0  0  0  0  0  0  0  0  0  0  0
  143.7530  159.8370  133.5130 O   0  0  0  0  0  0  0  0  0  0  0  0
  147.0280  158.2970  133.1410 N   0  0  0  0  0  0  0  0  0  0  0  0
  148.0510  159.3030  133.0660 C   0  0  0  0  0  0  0  0  0  0  0  0
  148.8940  159.4130  133.9980 O   0  0  0  0  0  0  0  0  0  0  0  0
  148.0870  160.1760  131.9730 O   0  0  0  0  0  0  0  0  0  0  0  0
  149.2360  160.3620  131.1450 C   0  0  0  0  0  0  0  0  0  0  0  0
  149.2420  159.3350  130.0100 C   0  0  0  0  0  0  0  0  0  0  0  0
  149.2140  161.7810  130.5820 C   0  0  0  0  0  0  0  0  0  0  0  0
  147.2060  156.9600  133.0400 C   0  0  0  0  0  0  0  0  0  0  0  0
  148.3950  156.2560  132.8170 C   0  0  0  0  0  0  0  0  0  0  0  0
  149.6834  150.6432  135.4765 H   0  0  0  0  0  0  0  0  0  0  0  0
  148.9316  150.0361  133.9623 H   0  0  0  0  0  0  0  0  0  0  0  0
  150.6469  150.5693  133.9623 H   0  0  0  0  0  0  0  0  0  0  0  0
  150.3591  154.3769  133.2953 H   0  0  0  0  0  0  0  0  0  0  0  0
  149.9710  154.2161  131.5453 H   0  0  0  0  0  0  0  0  0  0  0  0
  147.0691  153.0819  132.9593 H   0  0  0  0  0  0  0  0  0  0  0  0
  144.9706  154.4030  133.3851 H   0  0  0  0  0  0  0  0  0  0  0  0
  143.9867  157.0675  133.6967 H   0  0  0  0  0  0  0  0  0  0  0  0
  146.5000  161.2480  133.0220 H   0  0  0  0  0  0  0  0  0  0  0  0
  150.1499  160.2182  131.7401 H   0  0  0  0  0  0  0  0  0  0  0  0
  149.2479  158.3200  130.4339 H   0  0  0  0  0  0  0  0  0  0  0  0
  148.3431  159.4682  129.3902 H   0  0  0  0  0  0  0  0  0  0  0  0
  150.1393  159.4788  129.3902 H   0  0  0  0  0  0  0  0  0  0  0  0
  149.2028  162.5042  131.4108 H   0  0  0  0  0  0  0  0  0  0  0  0
  150.1097  161.9445  129.9648 H   0  0  0  0  0  0  0  0  0  0  0  0
  148.3136  161.9167  129.9648 H   0  0  0  0  0  0  0  0  0  0  0  0
  149.3479  156.7882  132.6802 H   0  0  0  0  0  0  0  0  0  0  0  0
  1  2  1  0
  2  3  1  0
  3  4  2  0
  3  5  1  0
  5  6  1  0
  6  7  2  0
  7  8  1  0
  8  9  2  0
  9 10  1  0
 10 11  2  0
 11 12  1  0
 12 13  1  0
 12 14  2  0
 11 15  1  0
 15 16  1  0
 16 17  2  0
 16 18  1  0
 18 19  1  0
 19 20  1  0
 19 21  1  0
 15 22  1  0
 22 23  2  0
 23  6  1  0
 22  9  1  0
  1 24  1  0
  1 25  1  0
  1 26  1  0
  5 27  1  0
  5 28  1  0
  7 29  1  0
  8 30  1  0
 10 31  1  0
 13 32  1  0
 19 33  1  0
 20 34  1  0
 20 35  1  0
 20 36  1  0
 21 37  1  0
 21 38  1  0
 21 39  1  0
 23 40  1  0
M  CHG  1  13  -1
M  END
>  <UniqueID>  (94) 
94

>  <SMILES>  (94) 
COC(=O)Cc1ccc2cc(C([NH-])=O)n(C(=O)OC(C)C)c2c1

>  <Energy>  (94) 
68.12390540659332

>  <Genealogy>  (94) 
COC(=O)Cc1ccc2cc(C([NH-])=O)n(C(=O)OC(C)C)c2c1 (protonated)
COC(=O)Cc1ccc2cc(C([NH-])=O)n(C(=O)OC(C)C)c2c1 (3D coordinates assigned)
COC(=O)Cc1ccc2cc(C([NH-])=O)n(C(=O)OC(C)C)c2c1 (optimized conformer: 68.12390540659332 kcal/mol)

>  <smiles>  (94) 
COC(=O)Cc1ccc2cc(C(N)=O)n(C(=O)OC(C)C)c2c1

>  <score_type>  (94) 
oracle

>  <origin>  (94) 
adg

>  <m_score__min__energy>  (94) 
-6.4800000000000004

>  <m_primary>  (94) 
energy

$$$$
95:0
     RDKit          3D

 40 42  0  0  0  0  0  0  0  0999 V2000
  147.6870  160.4860  130.5990 C   0  0  0  0  0  0  0  0  0  0  0  0
  148.2100  159.4460  131.4790 N   0  0  0  0  0  0  0  0  0  0  0  0
  149.4060  158.9000  131.3220 N   0  0  0  0  0  0  0  0  0  0  0  0
  149.5820  157.9980  132.3080 C   0  0  0  0  0  0  0  0  0  0  0  0
  148.4580  157.9720  133.1140 C   0  0  0  0  0  0  0  0  0  0  0  0
  148.2980  157.1900  134.3840 C   0  0  0  0  0  0  0  0  0  0  0  0
  147.2210  155.7940  134.1240 S   0  0  0  0  0  0  0  0  0  0  0  0
  146.8210  155.5900  132.4040 C   0  0  0  0  0  0  0  0  0  0  0  0
  145.8120  155.9880  135.0160 O   0  0  0  0  0  0  0  0  0  0  0  0
  147.6080  158.9190  132.5690 C   0  0  0  0  0  0  0  0  0  0  0  0
  146.2840  159.3220  133.0860 C   0  0  0  0  0  0  0  0  0  0  0  0
  146.0570  160.6590  133.4940 C   0  0  0  0  0  0  0  0  0  0  0  0
  144.8000  161.0560  133.9790 C   0  0  0  0  0  0  0  0  0  0  0  0
  143.7970  160.0930  134.0550 C   0  0  0  0  0  0  0  0  0  0  0  0
  142.4880  160.2090  134.4610 C   0  0  0  0  0  0  0  0  0  0  0  0
  141.9430  158.9350  134.3210 C   0  0  0  0  0  0  0  0  0  0  0  0
  140.5650  158.5930  134.7320 C   0  0  0  0  0  0  0  0  0  0  0  0
  140.1600  158.6890  136.0960 N   0  0  0  0  0  0  0  0  0  0  0  0
  139.7190  158.2610  133.8600 O   0  0  0  0  0  0  0  0  0  0  0  0
  142.8760  158.0650  133.8390 N   0  0  0  0  0  0  0  0  0  0  0  0
  142.6950  156.6860  133.4780 C   0  0  0  0  0  0  0  0  0  0  0  0
  143.6300  155.8590  133.6400 O   0  0  0  0  0  0  0  0  0  0  0  0
  141.4780  156.2480  132.9700 O   0  0  0  0  0  0  0  0  0  0  0  0
  144.0070  158.7890  133.6850 C   0  0  0  0  0  0  0  0  0  0  0  0
  145.2430  158.3730  133.1770 C   0  0  0  0  0  0  0  0  0  0  0  0
  147.2746  161.3060  131.2052 H   0  0  0  0  0  0  0  0  0  0  0  0
  148.4985  160.8715  129.9642 H   0  0  0  0  0  0  0  0  0  0  0  0
  146.8937  160.0644  129.9642 H   0  0  0  0  0  0  0  0  0  0  0  0
  150.4800  157.3787  132.4498 H   0  0  0  0  0  0  0  0  0  0  0  0
  149.2836  156.8305  134.7147 H   0  0  0  0  0  0  0  0  0  0  0  0
  147.8563  157.8429  135.1513 H   0  0  0  0  0  0  0  0  0  0  0  0
  145.8446  155.0920  132.3112 H   0  0  0  0  0  0  0  0  0  0  0  0
  146.7774  156.5760  131.9182 H   0  0  0  0  0  0  0  0  0  0  0  0
  147.5935  154.9758  131.9182 H   0  0  0  0  0  0  0  0  0  0  0  0
  145.0840  155.7760  134.3790 H   0  0  0  0  0  0  0  0  0  0  0  0
  146.8731  161.3938  133.4305 H   0  0  0  0  0  0  0  0  0  0  0  0
  144.6138  162.0948  134.2890 H   0  0  0  0  0  0  0  0  0  0  0  0
  141.9794  161.1158  134.8202 H   0  0  0  0  0  0  0  0  0  0  0  0
  139.4910  159.4290  136.4070 H   0  0  0  0  0  0  0  0  0  0  0  0
  145.3993  157.3324  132.8566 H   0  0  0  0  0  0  0  0  0  0  0  0
  1  2  1  0
  2  3  1  0
  3  4  2  0
  4  5  1  0
  5  6  1  0
  6  7  1  0
  7  8  1  0
  7  9  1  1
  5 10  2  0
 10 11  1  0
 11 12  2  0
 12 13  1  0
 13 14  2  0
 14 15  1  0
 15 16  2  0
 16 17  1  0
 17 18  1  0
 17 19  2  0
 16 20  1  0
 20 21  1  0
 21 22  2  0
 21 23  1  0
 20 24  1  0
 24 25  2  0
 10  2  1  0
 25 11  1  0
 24 14  1  0
  1 26  1  0
  1 27  1  0
  1 28  1  0
  4 29  1  0
  6 30  1  0
  6 31  1  0
  8 32  1  0
  8 33  1  0
  8 34  1  0
  9 35  1  0
 12 36  1  0
 13 37  1  0
 15 38  1  0
 18 39  1  0
 25 40  1  0
M  CHG  3   7   1  18  -1  23  -1
M  END
>  <UniqueID>  (95) 
95

>  <SMILES>  (95) 
Cn1ncc(C[S@+](C)O)c1-c1ccc2cc(C([NH-])=O)n(C(=O)[O-])c2c1

>  <Energy>  (95) 
109.43258038773561

>  <Genealogy>  (95) 
Cn1ncc(C[S+](C)O)c1-c1ccc2cc(C([NH-])=O)n(C(=O)[O-])c2c1 (protonated)
Cn1ncc(C[S@+](C)O)c1-c1ccc2cc(C([NH-])=O)n(C(=O)[O-])c2c1 (chirality)
Cn1ncc(C[S@+](C)O)c1-c1ccc2cc(C([NH-])=O)n(C(=O)[O-])c2c1 (3D coordinates assigned)
Cn1ncc(C[S@+](C)O)c1-c1ccc2cc(C([NH-])=O)n(C(=O)[O-])c2c1 (optimized conformer: 109.43258038773561 kcal/mol)

>  <smiles>  (95) 
Cn1ncc(C[S+](C)[O-])c1-c1ccc2cc(C(N)=O)n(C(=O)O)c2c1

>  <score_type>  (95) 
oracle

>  <origin>  (95) 
adg

>  <m_score__min__energy>  (95) 
-7.0099999999999998

>  <m_primary>  (95) 
energy

$$$$
