1:0
     RDKit          3D

 30 32  0  0  0  0  0  0  0  0999 V2000
  143.9170  160.2010  133.3690 N   0  0  0  0  0  0  0  0  0  0  0  0
  145.2990  159.8770  133.4900 C   0  0  0  0  0  0  0  0  0  0  0  0
  146.1280  160.7950  133.7310 O   0  0  0  0  0  0  0  0  0  0  0  0
  145.7690  158.4800  133.3710 C   0  0  0  0  0  0  0  0  0  0  0  0
  144.9180  157.3760  133.3520 C   0  0  0  0  0  0  0  0  0  0  0  0
  145.7400  156.2840  133.1810 C   0  0  0  0  0  0  0  0  0  0  0  0
  145.4290  154.9300  133.1190 C   0  0  0  0  0  0  0  0  0  0  0  0
  146.4880  154.0170  132.9760 C   0  0  0  0  0  0  0  0  0  0  0  0
  147.8300  154.4690  132.8880 C   0  0  0  0  0  0  0  0  0  0  0  0
  148.9610  153.4780  132.7940 C   0  0  0  0  0  0  0  0  0  0  0  0
  148.7160  152.5490  131.7980 F   0  0  0  0  0  0  0  0  0  0  0  0
  150.1520  154.1200  132.5010 F   0  0  0  0  0  0  0  0  0  0  0  0
  149.0900  152.8190  134.0030 F   0  0  0  0  0  0  0  0  0  0  0  0
  148.1050  155.8540  132.9810 C   0  0  0  0  0  0  0  0  0  0  0  0
  147.0290  156.7390  133.1040 C   0  0  0  0  0  0  0  0  0  0  0  0
  147.0640  158.0850  133.2150 N   0  0  0  0  0  0  0  0  0  0  0  0
  148.2420  158.9040  133.2490 C   0  0  0  0  0  0  0  0  0  0  0  0
  148.8580  159.0640  134.3360 O   0  0  0  0  0  0  0  0  0  0  0  0
  148.7330  159.5580  132.0260 C   0  0  0  0  0  0  0  0  0  0  0  0
  148.4660  160.8540  131.6340 C   0  0  0  0  0  0  0  0  0  0  0  0
  149.0750  161.0510  130.4900 O   0  0  0  0  0  0  0  0  0  0  0  0
  149.6870  159.9290  130.1910 C   0  0  0  0  0  0  0  0  0  0  0  0
  150.3730  159.7730  129.1470 O   0  0  0  0  0  0  0  0  0  0  0  0
  149.5120  158.9550  131.1070 N   0  0  0  0  0  0  0  0  0  0  0  0
  143.3340  159.7970  132.6030 H   0  0  0  0  0  0  0  0  0  0  0  0
  143.8226  157.3768  133.4523 H   0  0  0  0  0  0  0  0  0  0  0  0
  144.3865  154.5842  133.1800 H   0  0  0  0  0  0  0  0  0  0  0  0
  146.2738  152.9390  132.9318 H   0  0  0  0  0  0  0  0  0  0  0  0
  149.1401  156.2256  132.9571 H   0  0  0  0  0  0  0  0  0  0  0  0
  147.8546  161.5869  132.1809 H   0  0  0  0  0  0  0  0  0  0  0  0
  1  2  1  0
  2  3  2  0
  2  4  1  0
  4  5  2  0
  5  6  1  0
  6  7  2  0
  7  8  1  0
  8  9  2  0
  9 10  1  0
 10 11  1  0
 10 12  1  0
 10 13  1  0
  9 14  1  0
 14 15  2  0
 15 16  1  0
 16 17  1  0
 17 18  2  0
 17 19  1  0
 19 20  2  0
 20 21  1  0
 21 22  1  0
 22 23  2  0
 22 24  1  0
 16  4  1  0
 24 19  1  0
 15  6  1  0
  1 25  1  0
  5 26  1  0
  7 27  1  0
  8 28  1  0
 14 29  1  0
 20 30  1  0
M  CHG  2   1  -1  24  -1
M  END
>  <UniqueID>  (1) 
1

>  <SMILES>  (1) 
[NH-]C(=O)c1cc2ccc(C(F)(F)F)cc2n1C(=O)c1coc(=O)[n-]1

>  <Energy>  (1) 
102.85954081149272

>  <Genealogy>  (1) 
[NH-]C(=O)c1cc2ccc(C(F)(F)F)cc2n1C(=O)c1coc(=O)[n-]1 (protonated)
[NH-]C(=O)c1cc2ccc(C(F)(F)F)cc2n1C(=O)c1coc(=O)[n-]1 (3D coordinates assigned)
[NH-]C(=O)c1cc2ccc(C(F)(F)F)cc2n1C(=O)c1coc(=O)[n-]1 (optimized conformer: 102.85954081149272 kcal/mol)

>  <smiles>  (1) 
NC(=O)c1cc2ccc(C(F)(F)F)cc2n1C(=O)c1coc(=O)[nH]1

>  <score_type>  (1) 
oracle

>  <origin>  (1) 
adg

>  <m_score__min__energy>  (1) 
-6.6799999999999997

>  <m_primary>  (1) 
energy

$$$$
2:0
     RDKit          3D

 33 35  0  0  0  0  0  0  0  0999 V2000
  146.7560  153.7710  136.2450 N   0  0  0  0  0  0  0  0  0  0  0  0
  146.4440  154.0870  134.8920 C   0  0  0  0  0  0  0  0  0  0  0  0
  145.7340  153.2910  134.2230 O   0  0  0  0  0  0  0  0  0  0  0  0
  146.9160  155.3450  134.2720 C   0  0  0  0  0  0  0  0  0  0  0  0
  146.3520  156.5930  134.5320 C   0  0  0  0  0  0  0  0  0  0  0  0
  147.0970  157.4900  133.7990 C   0  0  0  0  0  0  0  0  0  0  0  0
  146.9660  158.8680  133.6700 C   0  0  0  0  0  0  0  0  0  0  0  0
  147.8590  159.5380  132.8170 C   0  0  0  0  0  0  0  0  0  0  0  0
  148.8610  158.8220  132.1000 C   0  0  0  0  0  0  0  0  0  0  0  0
  149.8500  159.4810  131.1530 C   0  0  0  0  0  0  0  0  0  0  0  0
  149.3690  159.7790  129.7390 C   0  0  0  0  0  0  0  0  0  0  0  0
  149.5640  160.9170  130.7330 C   0  0  0  0  0  0  0  0  0  0  0  0
  148.9530  157.4220  132.2620 C   0  0  0  0  0  0  0  0  0  0  0  0
  148.0630  156.7860  133.1340 C   0  0  0  0  0  0  0  0  0  0  0  0
  147.9690  155.4690  133.4170 N   0  0  0  0  0  0  0  0  0  0  0  0
  148.7780  154.4220  132.8600 C   0  0  0  0  0  0  0  0  0  0  0  0
  149.9730  154.6600  132.5400 O   0  0  0  0  0  0  0  0  0  0  0  0
  148.2010  153.0610  132.6170 C   0  0  0  0  0  0  0  0  0  0  0  0
  149.3010  152.0700  132.4150 C   0  0  0  0  0  0  0  0  0  0  0  0
  149.9780  151.6650  133.3960 O   0  0  0  0  0  0  0  0  0  0  0  0
  149.6140  151.6310  131.1340 O   0  0  0  0  0  0  0  0  0  0  0  0
  146.1300  154.0700  137.0260 H   0  0  0  0  0  0  0  0  0  0  0  0
  145.4942  156.8144  135.1840 H   0  0  0  0  0  0  0  0  0  0  0  0
  146.1869  159.4171  134.2191 H   0  0  0  0  0  0  0  0  0  0  0  0
  147.7837  160.6293  132.7011 H   0  0  0  0  0  0  0  0  0  0  0  0
  150.7127  158.9544  131.5871 H   0  0  0  0  0  0  0  0  0  0  0  0
  150.0579  159.6673  128.8887 H   0  0  0  0  0  0  0  0  0  0  0  0
  148.5367  159.4292  129.1106 H   0  0  0  0  0  0  0  0  0  0  0  0
  150.3937  161.6270  130.6005 H   0  0  0  0  0  0  0  0  0  0  0  0
  148.9309  161.7292  131.1197 H   0  0  0  0  0  0  0  0  0  0  0  0
  149.7100  156.8428  131.7130 H   0  0  0  0  0  0  0  0  0  0  0  0
  147.5953  152.7615  133.4850 H   0  0  0  0  0  0  0  0  0  0  0  0
  147.5709  153.0908  131.7159 H   0  0  0  0  0  0  0  0  0  0  0  0
  1  2  1  0
  2  3  2  0
  2  4  1  0
  4  5  2  0
  5  6  1  0
  6  7  2  0
  7  8  1  0
  8  9  2  0
  9 10  1  0
 10 11  1  0
 11 12  1  0
  9 13  1  0
 13 14  2  0
 14 15  1  0
 15 16  1  0
 16 17  2  0
 16 18  1  0
 18 19  1  0
 19 20  2  0
 19 21  1  0
 15  4  1  0
 14  6  1  0
 12 10  1  0
  1 22  1  0
  5 23  1  0
  7 24  1  0
  8 25  1  0
 10 26  1  0
 11 27  1  0
 11 28  1  0
 12 29  1  0
 12 30  1  0
 13 31  1  0
 18 32  1  0
 18 33  1  0
M  CHG  2   1  -1  21  -1
M  END
>  <UniqueID>  (2) 
2

>  <SMILES>  (2) 
[NH-]C(=O)c1cc2ccc(C3CC3)cc2n1C(=O)CC(=O)[O-]

>  <Energy>  (2) 
339.83558942165917

>  <Genealogy>  (2) 
[NH-]C(=O)c1cc2ccc(C3CC3)cc2n1C(=O)CC(=O)[O-] (protonated)
[NH-]C(=O)c1cc2ccc(C3CC3)cc2n1C(=O)CC(=O)[O-] (3D coordinates assigned)
[NH-]C(=O)c1cc2ccc(C3CC3)cc2n1C(=O)CC(=O)[O-] (nonaromatic ring conformer: 339.83558942165917 kcal/mol)

>  <smiles>  (2) 
NC(=O)c1cc2ccc(C3CC3)cc2n1C(=O)CC(=O)O

>  <score_type>  (2) 
oracle

>  <origin>  (2) 
adg

>  <m_score__min__energy>  (2) 
-7.1200000000000001

>  <m_primary>  (2) 
energy

$$$$
3:0
     RDKit          3D

 36 37  0  0  0  0  0  0  0  0999 V2000
  148.7990  153.9250  133.0260 C   0  0  0  0  0  0  0  0  0  0  0  0
  148.1560  155.2110  133.3100 N   0  0  0  0  0  0  0  0  0  0  0  0
  147.2490  155.6130  132.2250 C   0  0  0  0  0  0  0  0  0  0  0  0
  145.8080  155.7810  132.7320 C   0  0  0  0  0  0  0  0  0  0  0  0
  145.7100  156.6850  133.9350 C   0  0  0  0  0  0  0  0  0  0  0  0
  146.0080  156.2460  135.0780 O   0  0  0  0  0  0  0  0  0  0  0  0
  145.4190  158.0820  133.7700 N   0  0  0  0  0  0  0  0  0  0  0  0
  146.2970  159.1210  133.6980 C   0  0  0  0  0  0  0  0  0  0  0  0
  147.7640  159.0040  133.5890 C   0  0  0  0  0  0  0  0  0  0  0  0
  148.4550  157.8720  134.1170 N   0  0  0  0  0  0  0  0  0  0  0  0
  148.4130  159.8940  132.9780 O   0  0  0  0  0  0  0  0  0  0  0  0
  145.6190  160.3370  133.6810 C   0  0  0  0  0  0  0  0  0  0  0  0
  144.2830  160.0090  133.7330 C   0  0  0  0  0  0  0  0  0  0  0  0
  143.1580  160.8270  133.7410 C   0  0  0  0  0  0  0  0  0  0  0  0
  141.8970  160.2120  133.8220 C   0  0  0  0  0  0  0  0  0  0  0  0
  141.7830  158.8000  133.9180 C   0  0  0  0  0  0  0  0  0  0  0  0
  140.4220  158.1510  133.9650 C   0  0  0  0  0  0  0  0  0  0  0  0
  139.8440  158.3160  135.2120 F   0  0  0  0  0  0  0  0  0  0  0  0
  140.5550  156.8000  133.7060 F   0  0  0  0  0  0  0  0  0  0  0  0
  139.5810  158.7110  133.0210 F   0  0  0  0  0  0  0  0  0  0  0  0
  142.9500  158.0030  133.8840 C   0  0  0  0  0  0  0  0  0  0  0  0
  144.1900  158.6420  133.7870 C   0  0  0  0  0  0  0  0  0  0  0  0
  149.0497  153.4235  133.9724 H   0  0  0  0  0  0  0  0  0  0  0  0
  148.1116  153.2915  132.4462 H   0  0  0  0  0  0  0  0  0  0  0  0
  149.7183  154.0948  132.4462 H   0  0  0  0  0  0  0  0  0  0  0  0
  147.5840  155.0840  134.1780 H   0  0  0  0  0  0  0  0  0  0  0  0
  147.5946  156.5694  131.8055 H   0  0  0  0  0  0  0  0  0  0  0  0
  147.2563  154.8248  131.4578 H   0  0  0  0  0  0  0  0  0  0  0  0
  145.1986  156.2078  131.9218 H   0  0  0  0  0  0  0  0  0  0  0  0
  145.4474  154.7872  133.0360 H   0  0  0  0  0  0  0  0  0  0  0  0
  147.9340  157.0360  134.4600 H   0  0  0  0  0  0  0  0  0  0  0  0
  149.4980  157.8310  134.0810 H   0  0  0  0  0  0  0  0  0  0  0  0
  146.0574  161.3449  133.6357 H   0  0  0  0  0  0  0  0  0  0  0  0
  143.2525  161.9215  133.6856 H   0  0  0  0  0  0  0  0  0  0  0  0
  140.9881  160.8315  133.8109 H   0  0  0  0  0  0  0  0  0  0  0  0
  142.8842  156.9061  133.9327 H   0  0  0  0  0  0  0  0  0  0  0  0
  1  2  1  0
  2  3  1  0
  3  4  1  0
  4  5  1  0
  5  6  2  0
  5  7  1  0
  7  8  1  0
  8  9  1  0
  9 10  1  0
  9 11  2  0
  8 12  2  0
 12 13  1  0
 13 14  2  0
 14 15  1  0
 15 16  2  0
 16 17  1  0
 17 18  1  0
 17 19  1  0
 17 20  1  0
 16 21  1  0
 21 22  2  0
 22  7  1  0
 22 13  1  0
  1 23  1  0
  1 24  1  0
  1 25  1  0
  2 26  1  0
  3 27  1  0
  3 28  1  0
  4 29  1  0
  4 30  1  0
 10 31  1  0
 10 32  1  0
 12 33  1  0
 14 34  1  0
 15 35  1  0
 21 36  1  0
M  END
>  <UniqueID>  (3) 
3

>  <SMILES>  (3) 
CNCCC(=O)n1c(C(N)=O)cc2ccc(C(F)(F)F)cc21

>  <Energy>  (3) 
75.2039070888845

>  <Genealogy>  (3) 
CNCCC(=O)n1c(C(N)=O)cc2ccc(C(F)(F)F)cc21 (3D coordinates assigned)
CNCCC(=O)n1c(C(N)=O)cc2ccc(C(F)(F)F)cc21 (optimized conformer: 75.2039070888845 kcal/mol)

>  <smiles>  (3) 
CNCCC(=O)n1c(C(N)=O)cc2ccc(C(F)(F)F)cc21

>  <score_type>  (3) 
oracle

>  <origin>  (3) 
adg

>  <m_score__min__energy>  (3) 
-6.8099999999999996

>  <m_primary>  (3) 
energy

$$$$
4:0
     RDKit          3D

 47 50  0  0  0  0  0  0  0  0999 V2000
  145.6450  161.7720  134.1170 N   0  0  0  0  0  0  0  0  0  0  0  0
  144.2640  161.8030  133.7620 C   0  0  0  0  0  0  0  0  0  0  0  0
  143.7410  162.8940  133.4160 O   0  0  0  0  0  0  0  0  0  0  0  0
  143.4790  160.5520  133.7600 C   0  0  0  0  0  0  0  0  0  0  0  0
  142.0930  160.5140  133.8920 C   0  0  0  0  0  0  0  0  0  0  0  0
  141.7670  159.1770  133.9310 C   0  0  0  0  0  0  0  0  0  0  0  0
  140.5240  158.5630  134.0370 C   0  0  0  0  0  0  0  0  0  0  0  0
  140.4770  157.1590  134.0210 C   0  0  0  0  0  0  0  0  0  0  0  0
  141.6680  156.3930  133.9000 C   0  0  0  0  0  0  0  0  0  0  0  0
  141.6270  154.9080  133.8610 C   0  0  0  0  0  0  0  0  0  0  0  0
  142.4930  154.1170  134.6380 C   0  0  0  0  0  0  0  0  0  0  0  0
  142.4180  152.7630  134.5600 N   0  0  0  0  0  0  0  0  0  0  0  0
  141.5210  152.1510  133.7440 C   0  0  0  0  0  0  0  0  0  0  0  0
  141.4700  150.8950  133.6920 O   0  0  0  0  0  0  0  0  0  0  0  0
  140.6640  152.9280  132.9630 C   0  0  0  0  0  0  0  0  0  0  0  0
  140.7390  154.2820  133.0390 N   0  0  0  0  0  0  0  0  0  0  0  0
  142.9110  157.0600  133.7830 C   0  0  0  0  0  0  0  0  0  0  0  0
  142.9280  158.4580  133.8200 C   0  0  0  0  0  0  0  0  0  0  0  0
  143.9900  159.2890  133.7120 N   0  0  0  0  0  0  0  0  0  0  0  0
  145.3580  158.9030  133.5000 C   0  0  0  0  0  0  0  0  0  0  0  0
  145.8340  157.9090  134.1130 O   0  0  0  0  0  0  0  0  0  0  0  0
  146.1460  159.6200  132.5930 O   0  0  0  0  0  0  0  0  0  0  0  0
  147.5750  159.6490  132.6380 C   0  0  1  0  0  0  0  0  0  0  0  0
  148.1130  158.2960  132.1240 C   0  0  0  0  0  0  0  0  0  0  0  0
  149.5320  158.4330  131.5650 C   0  0  0  0  0  0  0  0  0  0  0  0
  149.5730  159.3780  130.3420 C   0  0  2  0  0  0  0  0  0  0  0  0
  150.8440  159.9710  130.2700 O   0  0  0  0  0  0  0  0  0  0  0  0
  148.4770  160.4720  130.3910 C   0  0  0  0  0  0  0  0  0  0  0  0
  148.1190  160.8570  131.8310 C   0  0  0  0  0  0  0  0  0  0  0  0
  146.3810  161.6130  133.3930 H   0  0  0  0  0  0  0  0  0  0  0  0
  141.4051  161.3702  133.9523 H   0  0  0  0  0  0  0  0  0  0  0  0
  139.6043  159.1591  134.1307 H   0  0  0  0  0  0  0  0  0  0  0  0
  139.5071  156.6466  134.1031 H   0  0  0  0  0  0  0  0  0  0  0  0
  143.2270  154.5926  135.3052 H   0  0  0  0  0  0  0  0  0  0  0  0
  139.9353  152.4486  132.2928 H   0  0  0  0  0  0  0  0  0  0  0  0
  143.8446  156.4904  133.6654 H   0  0  0  0  0  0  0  0  0  0  0  0
  147.9257  159.7866  133.6715 H   0  0  0  0  0  0  0  0  0  0  0  0
  147.4494  157.9263  131.3284 H   0  0  0  0  0  0  0  0  0  0  0  0
  148.1410  157.5920  132.9687 H   0  0  0  0  0  0  0  0  0  0  0  0
  149.8933  157.4396  131.2608 H   0  0  0  0  0  0  0  0  0  0  0  0
  150.1719  158.8599  132.3513 H   0  0  0  0  0  0  0  0  0  0  0  0
  149.3737  158.7756  129.4434 H   0  0  0  0  0  0  0  0  0  0  0  0
  150.8540  160.7150  130.9300 H   0  0  0  0  0  0  0  0  0  0  0  0
  147.5743  160.0940  129.8889 H   0  0  0  0  0  0  0  0  0  0  0  0
  148.8660  161.3678  129.8849 H   0  0  0  0  0  0  0  0  0  0  0  0
  147.3503  161.6434  131.8076 H   0  0  0  0  0  0  0  0  0  0  0  0
  149.0356  161.2107  132.3257 H   0  0  0  0  0  0  0  0  0  0  0  0
  1  2  1  0
  2  3  2  0
  2  4  1  0
  4  5  2  0
  5  6  1  0
  6  7  2  0
  7  8  1  0
  8  9  2  0
  9 10  1  0
 10 11  2  0
 11 12  1  0
 12 13  1  0
 13 14  2  0
 13 15  1  0
 15 16  2  0
  9 17  1  0
 17 18  2  0
 18 19  1  0
 19 20  1  0
 20 21  2  0
 20 22  1  0
 22 23  1  0
 23 24  1  0
 24 25  1  0
 25 26  1  0
 26 27  1  0
 26 28  1  0
 28 29  1  0
 19  4  1  0
 29 23  1  0
 18  6  1  0
 16 10  1  0
  1 30  1  0
  5 31  1  0
  7 32  1  0
  8 33  1  0
 11 34  1  0
 15 35  1  0
 17 36  1  0
 23 37  1  1
 24 38  1  0
 24 39  1  0
 25 40  1  0
 25 41  1  0
 26 42  1  6
 27 43  1  0
 28 44  1  0
 28 45  1  0
 29 46  1  0
 29 47  1  0
M  CHG  2   1  -1  12  -1
M  END
>  <UniqueID>  (4) 
4

>  <SMILES>  (4) 
[NH-]C(=O)c1cc2ccc(-c3c[n-]c(=O)cn3)cc2n1C(=O)OC1CCC(O)CC1

>  <Energy>  (4) 
96.39505480119973

>  <Genealogy>  (4) 
[NH-]C(=O)c1cc2ccc(-c3c[n-]c(=O)cn3)cc2n1C(=O)OC1CCC(O)CC1 (protonated)
[NH-]C(=O)c1cc2ccc(-c3c[n-]c(=O)cn3)cc2n1C(=O)OC1CCC(O)CC1 (3D coordinates assigned)
[NH-]C(=O)c1cc2ccc(-c3c[n-]c(=O)cn3)cc2n1C(=O)OC1CCC(O)CC1 (nonaromatic ring conformer: 96.39505480119973 kcal/mol)

>  <smiles>  (4) 
NC(=O)c1cc2ccc(-c3c[nH]c(=O)cn3)cc2n1C(=O)OC1CCC(O)CC1

>  <score_type>  (4) 
oracle

>  <origin>  (4) 
adg

>  <m_score__min__energy>  (4) 
-9.2899999999999991

>  <m_primary>  (4) 
energy

$$$$
5:0
     RDKit          3D

 44 45  0  0  0  0  0  0  0  0999 V2000
  149.5800  161.2600  130.2940 C   0  0  0  0  0  0  0  0  0  0  0  0
  149.6710  159.8240  130.7990 C   0  0  0  0  0  0  0  0  0  0  0  0
  149.6870  159.7920  132.2250 O   0  0  0  0  0  0  0  0  0  0  0  0
  148.5490  159.5400  133.0000 C   0  0  0  0  0  0  0  0  0  0  0  0
  148.6520  159.2730  134.2300 O   0  0  0  0  0  0  0  0  0  0  0  0
  147.1940  159.6250  132.3690 C   0  0  0  0  0  0  0  0  0  0  0  0
  146.3300  158.4090  132.7230 C   0  0  0  0  0  0  0  0  0  0  0  0
  144.9900  158.8180  133.2780 C   0  0  0  0  0  0  0  0  0  0  0  0
  144.7570  160.1640  133.6530 C   0  0  0  0  0  0  0  0  0  0  0  0
  143.4920  160.5710  134.1130 C   0  0  0  0  0  0  0  0  0  0  0  0
  142.4840  159.6120  134.1830 C   0  0  0  0  0  0  0  0  0  0  0  0
  141.1620  159.7340  134.5510 C   0  0  0  0  0  0  0  0  0  0  0  0
  140.6160  158.4600  134.3970 C   0  0  0  0  0  0  0  0  0  0  0  0
  139.2100  158.1190  134.6940 C   0  0  0  0  0  0  0  0  0  0  0  0
  138.3530  157.6660  133.6500 N   0  0  0  0  0  0  0  0  0  0  0  0
  138.7540  158.2330  135.8630 O   0  0  0  0  0  0  0  0  0  0  0  0
  141.5660  157.5880  133.9590 N   0  0  0  0  0  0  0  0  0  0  0  0
  141.3960  156.2040  133.6250 C   0  0  0  0  0  0  0  0  0  0  0  0
  140.5160  155.8790  132.7820 O   0  0  0  0  0  0  0  0  0  0  0  0
  142.2120  155.1900  134.2440 N   0  0  0  0  0  0  0  0  0  0  0  0
  143.0440  155.5260  135.4040 C   0  0  0  0  0  0  0  0  0  0  0  0
  142.1440  153.8110  133.7540 C   0  0  0  0  0  0  0  0  0  0  0  0
  142.6990  158.3060  133.8270 C   0  0  0  0  0  0  0  0  0  0  0  0
  143.9430  157.8740  133.3600 C   0  0  0  0  0  0  0  0  0  0  0  0
  149.5364  161.9480  131.1512 H   0  0  0  0  0  0  0  0  0  0  0  0
  150.4653  161.4907  129.6833 H   0  0  0  0  0  0  0  0  0  0  0  0
  148.6726  161.3771  129.6833 H   0  0  0  0  0  0  0  0  0  0  0  0
  148.8016  159.2571  130.4347 H   0  0  0  0  0  0  0  0  0  0  0  0
  150.6028  159.3753  130.4243 H   0  0  0  0  0  0  0  0  0  0  0  0
  146.6909  160.5362  132.7248 H   0  0  0  0  0  0  0  0  0  0  0  0
  147.3236  159.6491  131.2769 H   0  0  0  0  0  0  0  0  0  0  0  0
  146.1713  157.8084  131.8152 H   0  0  0  0  0  0  0  0  0  0  0  0
  146.8568  157.8277  133.4941 H   0  0  0  0  0  0  0  0  0  0  0  0
  145.5735  160.8979  133.5837 H   0  0  0  0  0  0  0  0  0  0  0  0
  143.3043  161.6139  134.4083 H   0  0  0  0  0  0  0  0  0  0  0  0
  140.6465  160.6433  134.8936 H   0  0  0  0  0  0  0  0  0  0  0  0
  138.5550  156.7800  133.1350 H   0  0  0  0  0  0  0  0  0  0  0  0
  142.4914  155.3028  136.3286 H   0  0  0  0  0  0  0  0  0  0  0  0
  143.9687  154.9308  135.3768 H   0  0  0  0  0  0  0  0  0  0  0  0
  143.2960  156.5964  135.3768 H   0  0  0  0  0  0  0  0  0  0  0  0
  142.1099  153.1194  134.6087 H   0  0  0  0  0  0  0  0  0  0  0  0
  141.2385  153.6833  133.1427 H   0  0  0  0  0  0  0  0  0  0  0  0
  143.0326  153.5949  133.1427 H   0  0  0  0  0  0  0  0  0  0  0  0
  144.1025  156.8266  133.0641 H   0  0  0  0  0  0  0  0  0  0  0  0
  1  2  1  0
  2  3  1  0
  3  4  1  0
  4  5  2  0
  4  6  1  0
  6  7  1  0
  7  8  1  0
  8  9  2  0
  9 10  1  0
 10 11  2  0
 11 12  1  0
 12 13  2  0
 13 14  1  0
 14 15  1  0
 14 16  2  0
 13 17  1  0
 17 18  1  0
 18 19  2  0
 18 20  1  0
 20 21  1  0
 20 22  1  0
 17 23  1  0
 23 24  2  0
 24  8  1  0
 23 11  1  0
  1 25  1  0
  1 26  1  0
  1 27  1  0
  2 28  1  0
  2 29  1  0
  6 30  1  0
  6 31  1  0
  7 32  1  0
  7 33  1  0
  9 34  1  0
 10 35  1  0
 12 36  1  0
 15 37  1  0
 21 38  1  0
 21 39  1  0
 21 40  1  0
 22 41  1  0
 22 42  1  0
 22 43  1  0
 24 44  1  0
M  CHG  1  15  -1
M  END
>  <UniqueID>  (5) 
5

>  <SMILES>  (5) 
CCOC(=O)CCc1ccc2cc(C([NH-])=O)n(C(=O)N(C)C)c2c1

>  <Energy>  (5) 
70.13884126045295

>  <Genealogy>  (5) 
CCOC(=O)CCc1ccc2cc(C([NH-])=O)n(C(=O)N(C)C)c2c1 (protonated)
CCOC(=O)CCc1ccc2cc(C([NH-])=O)n(C(=O)N(C)C)c2c1 (3D coordinates assigned)
CCOC(=O)CCc1ccc2cc(C([NH-])=O)n(C(=O)N(C)C)c2c1 (optimized conformer: 70.13884126045295 kcal/mol)

>  <smiles>  (5) 
CCOC(=O)CCc1ccc2cc(C(N)=O)n(C(=O)N(C)C)c2c1

>  <score_type>  (5) 
oracle

>  <origin>  (5) 
adg

>  <m_score__min__energy>  (5) 
-6.6399999999999997

>  <m_primary>  (5) 
energy

$$$$
6:0
     RDKit          3D

 46 48  0  0  0  0  0  0  0  0999 V2000
  148.1140  161.1930  131.4400 N   0  0  0  0  0  0  0  0  0  0  0  0
  148.9570  160.0600  131.6510 C   0  0  0  0  0  0  0  0  0  0  0  0
  150.1760  160.1320  131.3420 O   0  0  0  0  0  0  0  0  0  0  0  0
  148.4380  158.8260  132.2760 C   0  0  0  0  0  0  0  0  0  0  0  0
  149.0970  157.6030  132.2130 C   0  0  0  0  0  0  0  0  0  0  0  0
  148.3160  156.7320  132.9380 C   0  0  0  0  0  0  0  0  0  0  0  0
  148.4810  155.3710  133.1740 C   0  0  0  0  0  0  0  0  0  0  0  0
  147.4870  154.7060  133.9100 C   0  0  0  0  0  0  0  0  0  0  0  0
  146.3560  155.4060  134.4030 C   0  0  0  0  0  0  0  0  0  0  0  0
  145.2650  154.6670  135.1340 C   0  0  0  0  0  0  0  0  0  0  0  0
  145.7460  154.1250  136.3130 F   0  0  0  0  0  0  0  0  0  0  0  0
  144.7890  153.6470  134.3300 F   0  0  0  0  0  0  0  0  0  0  0  0
  144.2200  155.5210  135.4450 F   0  0  0  0  0  0  0  0  0  0  0  0
  146.2120  156.7840  134.1170 C   0  0  0  0  0  0  0  0  0  0  0  0
  147.2290  157.4280  133.4010 C   0  0  0  0  0  0  0  0  0  0  0  0
  147.2890  158.7200  133.0000 N   0  0  0  0  0  0  0  0  0  0  0  0
  146.2740  159.7230  133.1680 C   0  0  0  0  0  0  0  0  0  0  0  0
  146.5470  160.8150  133.7350 O   0  0  0  0  0  0  0  0  0  0  0  0
  144.9800  159.4770  132.7010 O   0  0  0  0  0  0  0  0  0  0  0  0
  143.9020  159.1260  133.5550 C   0  0  0  0  0  0  0  0  0  0  0  0
  143.2060  160.3850  134.0740 C   0  0  0  0  0  0  0  0  0  0  0  0
  141.7490  160.2340  134.2650 N   0  0  0  0  0  0  0  0  0  0  0  0
  141.2740  159.5760  135.4990 C   0  0  0  0  0  0  0  0  0  0  0  0
  140.8680  158.1180  135.2650 C   0  0  0  0  0  0  0  0  0  0  0  0
  139.9700  158.0270  134.0730 C   0  0  0  0  0  0  0  0  0  0  0  0
  138.9530  157.3520  134.1130 O   0  0  0  0  0  0  0  0  0  0  0  0
  140.3880  158.6940  132.8010 C   0  0  0  0  0  0  0  0  0  0  0  0
  140.8880  160.1220  133.0670 C   0  0  0  0  0  0  0  0  0  0  0  0
  148.4850  162.0380  130.9500 H   0  0  0  0  0  0  0  0  0  0  0  0
  147.1460  161.2250  131.8290 H   0  0  0  0  0  0  0  0  0  0  0  0
  150.0410  157.3795  131.6944 H   0  0  0  0  0  0  0  0  0  0  0  0
  149.3626  154.8326  132.7959 H   0  0  0  0  0  0  0  0  0  0  0  0
  147.5867  153.6283  134.1068 H   0  0  0  0  0  0  0  0  0  0  0  0
  145.3213  157.3373  134.4495 H   0  0  0  0  0  0  0  0  0  0  0  0
  143.1784  158.5160  132.9943 H   0  0  0  0  0  0  0  0  0  0  0  0
  144.2933  158.5547  134.4097 H   0  0  0  0  0  0  0  0  0  0  0  0
  143.6551  160.6539  135.0415 H   0  0  0  0  0  0  0  0  0  0  0  0
  143.3465  161.1630  133.3092 H   0  0  0  0  0  0  0  0  0  0  0  0
  142.0808  159.6023  136.2462 H   0  0  0  0  0  0  0  0  0  0  0  0
  140.3836  160.1200  135.8473 H   0  0  0  0  0  0  0  0  0  0  0  0
  141.7690  157.5116  135.0905 H   0  0  0  0  0  0  0  0  0  0  0  0
  140.3345  157.7431  136.1509 H   0  0  0  0  0  0  0  0  0  0  0  0
  141.1969  158.1101  132.3375 H   0  0  0  0  0  0  0  0  0  0  0  0
  139.5177  158.7465  132.1303 H   0  0  0  0  0  0  0  0  0  0  0  0
  141.4641  160.4575  132.1920 H   0  0  0  0  0  0  0  0  0  0  0  0
  140.0006  160.7463  133.2477 H   0  0  0  0  0  0  0  0  0  0  0  0
  1  2  1  0
  2  3  2  0
  2  4  1  0
  4  5  2  0
  5  6  1  0
  6  7  2  0
  7  8  1  0
  8  9  2  0
  9 10  1  0
 10 11  1  0
 10 12  1  0
 10 13  1  0
  9 14  1  0
 14 15  2  0
 15 16  1  0
 16 17  1  0
 17 18  2  0
 17 19  1  0
 19 20  1  0
 20 21  1  0
 21 22  1  0
 22 23  1  0
 23 24  1  0
 24 25  1  0
 25 26  2  0
 25 27  1  0
 27 28  1  0
 16  4  1  0
 28 22  1  0
 15  6  1  0
  1 29  1  0
  1 30  1  0
  5 31  1  0
  7 32  1  0
  8 33  1  0
 14 34  1  0
 20 35  1  0
 20 36  1  0
 21 37  1  0
 21 38  1  0
 23 39  1  0
 23 40  1  0
 24 41  1  0
 24 42  1  0
 27 43  1  0
 27 44  1  0
 28 45  1  0
 28 46  1  0
M  END
>  <UniqueID>  (6) 
6

>  <SMILES>  (6) 
NC(=O)c1cc2ccc(C(F)(F)F)cc2n1C(=O)OCCN1CCC(=O)CC1

>  <Energy>  (6) 
92.52647937945936

>  <Genealogy>  (6) 
NC(=O)c1cc2ccc(C(F)(F)F)cc2n1C(=O)OCCN1CCC(=O)CC1 (3D coordinates assigned)
NC(=O)c1cc2ccc(C(F)(F)F)cc2n1C(=O)OCCN1CCC(=O)CC1 (nonaromatic ring conformer: 92.52647937945936 kcal/mol)

>  <smiles>  (6) 
NC(=O)c1cc2ccc(C(F)(F)F)cc2n1C(=O)OCCN1CCC(=O)CC1

>  <score_type>  (6) 
oracle

>  <origin>  (6) 
adg

>  <m_score__min__energy>  (6) 
-7.6600000000000001

>  <m_primary>  (6) 
energy

$$$$
7:0
     RDKit          3D

 40 42  0  0  0  0  0  0  0  0999 V2000
  150.1990  151.1400  132.2060 C   0  0  0  0  0  0  0  0  0  0  0  0
  149.9150  152.5110  132.4060 O   0  0  0  0  0  0  0  0  0  0  0  0
  148.6860  152.6600  133.0910 C   0  0  0  0  0  0  0  0  0  0  0  0
  148.2840  154.0710  133.1080 C   0  0  0  0  0  0  0  0  0  0  0  0
  147.9510  155.2290  133.1030 C   0  0  0  0  0  0  0  0  0  0  0  0
  147.5340  156.6060  133.1110 C   0  0  0  0  0  0  0  0  0  0  0  0
  148.4890  157.6410  132.9940 C   0  0  0  0  0  0  0  0  0  0  0  0
  148.0880  158.9890  133.0450 C   0  0  0  0  0  0  0  0  0  0  0  0
  146.7320  159.2600  133.2180 C   0  0  0  0  0  0  0  0  0  0  0  0
  146.0720  160.4620  133.3530 C   0  0  0  0  0  0  0  0  0  0  0  0
  144.7330  160.1270  133.5570 C   0  0  0  0  0  0  0  0  0  0  0  0
  143.6510  161.1130  133.7610 C   0  0  0  0  0  0  0  0  0  0  0  0
  142.3170  160.6680  133.9960 N   0  0  0  0  0  0  0  0  0  0  0  0
  143.8940  162.3480  133.7340 O   0  0  0  0  0  0  0  0  0  0  0  0
  144.5740  158.7760  133.5390 N   0  0  0  0  0  0  0  0  0  0  0  0
  143.3800  158.0290  133.7890 C   0  0  0  0  0  0  0  0  0  0  0  0
  142.9630  157.8920  134.9700 O   0  0  0  0  0  0  0  0  0  0  0  0
  142.5840  157.4780  132.6440 C   0  0  0  0  0  0  0  0  0  0  0  0
  141.2100  157.9650  132.7140 N   0  0  0  0  0  0  0  0  0  0  0  0
  140.2490  157.5530  133.5680 C   0  0  0  0  0  0  0  0  0  0  0  0
  139.0430  158.0910  133.2860 N   0  0  0  0  0  0  0  0  0  0  0  0
  139.2770  158.8630  132.2060 C   0  0  0  0  0  0  0  0  0  0  0  0
  138.0370  159.7710  131.3650 Cl  0  0  0  0  0  0  0  0  0  0  0  0
  140.6010  158.7880  131.8450 C   0  0  0  0  0  0  0  0  0  0  0  0
  145.8010  158.2600  133.3270 C   0  0  0  0  0  0  0  0  0  0  0  0
  146.1680  156.9140  133.2680 C   0  0  0  0  0  0  0  0  0  0  0  0
  150.3024  150.6410  133.1808 H   0  0  0  0  0  0  0  0  0  0  0  0
  149.3783  150.6742  131.6408 H   0  0  0  0  0  0  0  0  0  0  0  0
  151.1372  151.0386  131.6408 H   0  0  0  0  0  0  0  0  0  0  0  0
  147.9118  152.0676  132.5815 H   0  0  0  0  0  0  0  0  0  0  0  0
  148.8068  152.3084  134.1263 H   0  0  0  0  0  0  0  0  0  0  0  0
  149.5522  157.3915  132.8623 H   0  0  0  0  0  0  0  0  0  0  0  0
  148.8218  159.8031  132.9513 H   0  0  0  0  0  0  0  0  0  0  0  0
  146.5080  161.4710  133.3092 H   0  0  0  0  0  0  0  0  0  0  0  0
  142.1250  159.8540  134.6210 H   0  0  0  0  0  0  0  0  0  0  0  0
  143.0376  157.8013  131.6955 H   0  0  0  0  0  0  0  0  0  0  0  0
  142.5820  156.3794  132.7000 H   0  0  0  0  0  0  0  0  0  0  0  0
  140.4283  156.8568  134.4005 H   0  0  0  0  0  0  0  0  0  0  0  0
  141.0751  159.3071  130.9990 H   0  0  0  0  0  0  0  0  0  0  0  0
  145.4129  156.1175  133.3419 H   0  0  0  0  0  0  0  0  0  0  0  0
  1  2  1  0
  2  3  1  0
  3  4  1  0
  4  5  3  0
  5  6  1  0
  6  7  2  0
  7  8  1  0
  8  9  2  0
  9 10  1  0
 10 11  2  0
 11 12  1  0
 12 13  1  0
 12 14  2  0
 11 15  1  0
 15 16  1  0
 16 17  2  0
 16 18  1  0
 18 19  1  0
 19 20  1  0
 20 21  2  0
 21 22  1  0
 22 23  1  0
 22 24  2  0
 15 25  1  0
 25 26  2  0
 26  6  1  0
 25  9  1  0
 24 19  1  0
  1 27  1  0
  1 28  1  0
  1 29  1  0
  3 30  1  0
  3 31  1  0
  7 32  1  0
  8 33  1  0
 10 34  1  0
 13 35  1  0
 18 36  1  0
 18 37  1  0
 20 38  1  0
 24 39  1  0
 26 40  1  0
M  CHG  1  13  -1
M  END
>  <UniqueID>  (7) 
7

>  <SMILES>  (7) 
COCC#Cc1ccc2cc(C([NH-])=O)n(C(=O)Cn3cnc(Cl)c3)c2c1

>  <Energy>  (7) 
104.93823348983835

>  <Genealogy>  (7) 
COCC#Cc1ccc2cc(C([NH-])=O)n(C(=O)Cn3cnc(Cl)c3)c2c1 (protonated)
COCC#Cc1ccc2cc(C([NH-])=O)n(C(=O)Cn3cnc(Cl)c3)c2c1 (3D coordinates assigned)
COCC#Cc1ccc2cc(C([NH-])=O)n(C(=O)Cn3cnc(Cl)c3)c2c1 (optimized conformer: 104.93823348983835 kcal/mol)

>  <smiles>  (7) 
COCC#Cc1ccc2cc(C(N)=O)n(C(=O)Cn3cnc(Cl)c3)c2c1

>  <score_type>  (7) 
oracle

>  <origin>  (7) 
adg

>  <m_score__min__energy>  (7) 
-7.8399999999999999

>  <m_primary>  (7) 
energy

$$$$
8:0
     RDKit          3D

 36 37  0  0  0  0  0  0  0  0999 V2000
  140.2900  155.2830  133.3300 C   0  0  0  0  0  0  0  0  0  0  0  0
  139.0540  155.9850  133.3280 O   0  0  0  0  0  0  0  0  0  0  0  0
  138.9770  157.3750  133.4560 C   0  0  0  0  0  0  0  0  0  0  0  0
  138.7280  157.9060  134.5730 O   0  0  0  0  0  0  0  0  0  0  0  0
  139.1240  158.2360  132.2430 C   0  0  0  0  0  0  0  0  0  0  0  0
  140.5120  158.6520  132.0980 N   0  0  0  0  0  0  0  0  0  0  0  0
  141.1280  159.6380  132.9330 C   0  0  0  0  0  0  0  0  0  0  0  0
  140.6290  160.7920  133.0360 O   0  0  0  0  0  0  0  0  0  0  0  0
  142.3270  159.2720  133.7480 C   0  0  0  0  0  0  0  0  0  0  0  0
  141.8870  158.5650  134.9990 C   0  0  0  0  0  0  0  0  0  0  0  0
  141.0960  159.2410  135.9610 C   0  0  0  0  0  0  0  0  0  0  0  0
  140.6250  158.5710  137.1010 C   0  0  0  0  0  0  0  0  0  0  0  0
  140.9570  157.2270  137.2500 C   0  0  0  0  0  0  0  0  0  0  0  0
  140.5980  156.3320  138.2320 C   0  0  0  0  0  0  0  0  0  0  0  0
  141.1810  155.1230  137.8610 C   0  0  0  0  0  0  0  0  0  0  0  0
  141.1080  153.8980  138.6850 C   0  0  0  0  0  0  0  0  0  0  0  0
  141.0170  152.6220  138.0540 N   0  0  0  0  0  0  0  0  0  0  0  0
  141.0860  153.9670  139.9430 O   0  0  0  0  0  0  0  0  0  0  0  0
  141.8680  155.2610  136.6920 N   0  0  0  0  0  0  0  0  0  0  0  0
  142.5330  154.2360  135.9340 C   0  0  0  0  0  0  0  0  0  0  0  0
  141.8700  153.4570  135.2000 O   0  0  0  0  0  0  0  0  0  0  0  0
  143.9100  154.0800  136.0220 O   0  0  0  0  0  0  0  0  0  0  0  0
  141.7260  156.5570  136.3340 C   0  0  0  0  0  0  0  0  0  0  0  0
  142.1970  157.1980  135.1820 C   0  0  0  0  0  0  0  0  0  0  0  0
  140.6076  155.1026  134.3676 H   0  0  0  0  0  0  0  0  0  0  0  0
  140.1659  154.3206  132.8120 H   0  0  0  0  0  0  0  0  0  0  0  0
  141.0530  155.8825  132.8120 H   0  0  0  0  0  0  0  0  0  0  0  0
  138.8184  157.6673  131.3524 H   0  0  0  0  0  0  0  0  0  0  0  0
  138.4875  159.1266  132.3508 H   0  0  0  0  0  0  0  0  0  0  0  0
  142.9796  158.6081  133.1621 H   0  0  0  0  0  0  0  0  0  0  0  0
  142.8787  160.1845  134.0179 H   0  0  0  0  0  0  0  0  0  0  0  0
  140.8484  160.3025  135.8128 H   0  0  0  0  0  0  0  0  0  0  0  0
  140.0131  159.0911  137.8527 H   0  0  0  0  0  0  0  0  0  0  0  0
  139.9814  156.5297  139.1212 H   0  0  0  0  0  0  0  0  0  0  0  0
  141.3060  152.4930  137.0590 H   0  0  0  0  0  0  0  0  0  0  0  0
  142.7939  156.6512  134.4372 H   0  0  0  0  0  0  0  0  0  0  0  0
  1  2  1  0
  2  3  1  0
  3  4  2  0
  3  5  1  0
  5  6  1  0
  6  7  1  0
  7  8  2  0
  7  9  1  0
  9 10  1  0
 10 11  2  0
 11 12  1  0
 12 13  2  0
 13 14  1  0
 14 15  2  0
 15 16  1  0
 16 17  1  0
 16 18  2  0
 15 19  1  0
 19 20  1  0
 20 21  2  0
 20 22  1  0
 19 23  1  0
 23 24  2  0
 24 10  1  0
 23 13  1  0
  1 25  1  0
  1 26  1  0
  1 27  1  0
  5 28  1  0
  5 29  1  0
  9 30  1  0
  9 31  1  0
 11 32  1  0
 12 33  1  0
 14 34  1  0
 17 35  1  0
 24 36  1  0
M  CHG  3   6  -1  17  -1  22  -1
M  END
>  <UniqueID>  (8) 
8

>  <SMILES>  (8) 
COC(=O)C[N-]C(=O)Cc1ccc2cc(C([NH-])=O)n(C(=O)[O-])c2c1

>  <Energy>  (8) 
67.6648711998192

>  <Genealogy>  (8) 
COC(=O)C[N-]C(=O)Cc1ccc2cc(C([NH-])=O)n(C(=O)[O-])c2c1 (protonated)
COC(=O)C[N-]C(=O)Cc1ccc2cc(C([NH-])=O)n(C(=O)[O-])c2c1 (3D coordinates assigned)
COC(=O)C[N-]C(=O)Cc1ccc2cc(C([NH-])=O)n(C(=O)[O-])c2c1 (optimized conformer: 67.6648711998192 kcal/mol)

>  <smiles>  (8) 
COC(=O)CNC(=O)Cc1ccc2cc(C(N)=O)n(C(=O)O)c2c1

>  <score_type>  (8) 
oracle

>  <origin>  (8) 
adg

>  <m_score__min__energy>  (8) 
-6.6600000000000001

>  <m_primary>  (8) 
energy

$$$$
9:0
     RDKit          3D

 37 39  0  0  0  0  0  0  0  0999 V2000
  146.2880  161.6970  134.0140 N   0  0  0  0  0  0  0  0  0  0  0  0
  145.1760  160.8460  133.7490 C   0  0  0  0  0  0  0  0  0  0  0  0
  144.0160  161.3410  133.7260 O   0  0  0  0  0  0  0  0  0  0  0  0
  145.3580  159.3970  133.5110 C   0  0  0  0  0  0  0  0  0  0  0  0
  144.3520  158.4520  133.7100 C   0  0  0  0  0  0  0  0  0  0  0  0
  144.9260  157.2370  133.4110 C   0  0  0  0  0  0  0  0  0  0  0  0
  144.3810  155.9560  133.4350 C   0  0  0  0  0  0  0  0  0  0  0  0
  145.2060  154.8820  133.0600 C   0  0  0  0  0  0  0  0  0  0  0  0
  146.5450  155.1070  132.6460 C   0  0  0  0  0  0  0  0  0  0  0  0
  147.3910  153.9960  132.2930 N   0  0  0  0  0  0  0  0  0  0  0  0
  148.0160  153.4790  133.4780 C   0  0  0  0  0  0  0  0  0  0  0  0
  148.9240  152.4470  133.5510 C   0  0  0  0  0  0  0  0  0  0  0  0
  149.1850  152.2030  134.8500 N   0  0  0  0  0  0  0  0  0  0  0  0
  148.4640  153.0350  135.5930 N   0  0  0  0  0  0  0  0  0  0  0  0
  147.7310  153.8190  134.7800 C   0  0  0  0  0  0  0  0  0  0  0  0
  147.0620  156.4230  132.6410 C   0  0  0  0  0  0  0  0  0  0  0  0
  146.2290  157.4680  133.0500 C   0  0  0  0  0  0  0  0  0  0  0  0
  146.5100  158.7870  133.1120 N   0  0  0  0  0  0  0  0  0  0  0  0
  147.7710  159.4050  132.8170 C   0  0  0  0  0  0  0  0  0  0  0  0
  148.3850  160.0300  133.7230 O   0  0  0  0  0  0  0  0  0  0  0  0
  148.3720  159.3030  131.4430 C   0  0  0  0  0  0  0  0  0  0  0  0
  148.3590  160.6600  130.7380 C   0  0  0  0  0  0  0  0  0  0  0  0
  148.4760  161.6800  131.6900 O   0  0  0  0  0  0  0  0  0  0  0  0
  147.0900  161.7570  133.3480 H   0  0  0  0  0  0  0  0  0  0  0  0
  143.3183  158.6381  134.0368 H   0  0  0  0  0  0  0  0  0  0  0  0
  143.3368  155.7898  133.7382 H   0  0  0  0  0  0  0  0  0  0  0  0
  144.8100  153.8561  133.0876 H   0  0  0  0  0  0  0  0  0  0  0  0
  148.1260  154.3030  131.6150 H   0  0  0  0  0  0  0  0  0  0  0  0
  146.8290  153.2380  131.8380 H   0  0  0  0  0  0  0  0  0  0  0  0
  149.3618  151.9127  132.6949 H   0  0  0  0  0  0  0  0  0  0  0  0
  147.0247  154.5984  135.1021 H   0  0  0  0  0  0  0  0  0  0  0  0
  148.0963  156.6198  132.3225 H   0  0  0  0  0  0  0  0  0  0  0  0
  149.4110  158.9525  131.5298 H   0  0  0  0  0  0  0  0  0  0  0  0
  147.7748  158.5941  130.8506 H   0  0  0  0  0  0  0  0  0  0  0  0
  149.2027  160.7161  130.0345 H   0  0  0  0  0  0  0  0  0  0  0  0
  147.4145  160.7786  130.1868 H   0  0  0  0  0  0  0  0  0  0  0  0
  147.7140  161.5620  132.3170 H   0  0  0  0  0  0  0  0  0  0  0  0
  1  2  1  0
  2  3  2  0
  2  4  1  0
  4  5  2  0
  5  6  1  0
  6  7  2  0
  7  8  1  0
  8  9  2  0
  9 10  1  0
 10 11  1  0
 11 12  1  0
 12 13  2  0
 13 14  1  0
 14 15  1  0
  9 16  1  0
 16 17  2  0
 17 18  1  0
 18 19  1  0
 19 20  2  0
 19 21  1  0
 21 22  1  0
 22 23  1  0
 18  4  1  0
 17  6  1  0
 15 11  2  0
  1 24  1  0
  5 25  1  0
  7 26  1  0
  8 27  1  0
 10 28  1  0
 10 29  1  0
 12 30  1  0
 15 31  1  0
 16 32  1  0
 21 33  1  0
 21 34  1  0
 22 35  1  0
 22 36  1  0
 23 37  1  0
M  CHG  3   1  -1  10   1  14  -1
M  END
>  <UniqueID>  (9) 
9

>  <SMILES>  (9) 
[NH-]C(=O)c1cc2ccc([NH2+]c3cn[n-]c3)cc2n1C(=O)CCO

>  <Energy>  (9) 
107.3467438803531

>  <Genealogy>  (9) 
[NH-]C(=O)c1cc2ccc([NH2+]c3cn[n-]c3)cc2n1C(=O)CCO (protonated)
[NH-]C(=O)c1cc2ccc([NH2+]c3cn[n-]c3)cc2n1C(=O)CCO (3D coordinates assigned)
[NH-]C(=O)c1cc2ccc([NH2+]c3cn[n-]c3)cc2n1C(=O)CCO (optimized conformer: 107.3467438803531 kcal/mol)

>  <smiles>  (9) 
NC(=O)c1cc2ccc(Nc3cn[nH]c3)cc2n1C(=O)CCO

>  <score_type>  (9) 
oracle

>  <origin>  (9) 
adg

>  <m_score__min__energy>  (9) 
-5.75

>  <m_primary>  (9) 
energy

$$$$
10:0
     RDKit          3D

 31 32  0  0  0  0  0  0  0  0999 V2000
  146.1000  160.4890  132.9940 N   0  0  0  0  0  0  0  0  0  0  0  0
  145.3720  159.3690  133.5010 C   0  0  0  0  0  0  0  0  0  0  0  0
  144.3070  159.5660  134.1420 O   0  0  0  0  0  0  0  0  0  0  0  0
  145.8790  157.9900  133.3400 C   0  0  0  0  0  0  0  0  0  0  0  0
  145.0540  156.8690  133.3180 C   0  0  0  0  0  0  0  0  0  0  0  0
  145.9060  155.7950  133.2040 C   0  0  0  0  0  0  0  0  0  0  0  0
  145.6240  154.4340  133.1290 C   0  0  0  0  0  0  0  0  0  0  0  0
  146.7010  153.5450  132.9770 C   0  0  0  0  0  0  0  0  0  0  0  0
  148.0310  154.0280  132.8730 C   0  0  0  0  0  0  0  0  0  0  0  0
  149.1810  153.0610  132.7420 C   0  0  0  0  0  0  0  0  0  0  0  0
  150.3590  153.7350  132.4670 F   0  0  0  0  0  0  0  0  0  0  0  0
  148.9170  152.1770  131.7120 F   0  0  0  0  0  0  0  0  0  0  0  0
  149.3550  152.3470  133.9160 F   0  0  0  0  0  0  0  0  0  0  0  0
  148.2790  155.4170  132.9760 C   0  0  0  0  0  0  0  0  0  0  0  0
  147.1880  156.2780  133.1520 C   0  0  0  0  0  0  0  0  0  0  0  0
  147.1880  157.6280  133.2340 N   0  0  0  0  0  0  0  0  0  0  0  0
  148.3250  158.4960  133.1040 C   0  0  0  0  0  0  0  0  0  0  0  0
  148.5040  159.4270  133.9360 O   0  0  0  0  0  0  0  0  0  0  0  0
  149.2610  158.2970  132.0390 N   0  0  0  0  0  0  0  0  0  0  0  0
  149.0840  158.8410  130.6980 C   0  0  0  0  0  0  0  0  0  0  0  0
  149.1010  160.3350  130.7420 C   0  0  0  0  0  0  0  0  0  0  0  0
  148.2900  160.9550  131.4810 O   0  0  0  0  0  0  0  0  0  0  0  0
  150.0310  161.0450  129.9940 O   0  0  0  0  0  0  0  0  0  0  0  0
  147.0680  160.3790  132.6180 H   0  0  0  0  0  0  0  0  0  0  0  0
  145.7040  161.4520  133.0780 H   0  0  0  0  0  0  0  0  0  0  0  0
  143.9559  156.8467  133.3788 H   0  0  0  0  0  0  0  0  0  0  0  0
  144.5891  154.0657  133.1870 H   0  0  0  0  0  0  0  0  0  0  0  0
  146.5111  152.4622  132.9382 H   0  0  0  0  0  0  0  0  0  0  0  0
  149.3042  155.8116  132.9192 H   0  0  0  0  0  0  0  0  0  0  0  0
  149.9004  158.4870  130.0513 H   0  0  0  0  0  0  0  0  0  0  0  0
  148.1162  158.5041  130.2983 H   0  0  0  0  0  0  0  0  0  0  0  0
  1  2  1  0
  2  3  2  0
  2  4  1  0
  4  5  2  0
  5  6  1  0
  6  7  2  0
  7  8  1  0
  8  9  2  0
  9 10  1  0
 10 11  1  0
 10 12  1  0
 10 13  1  0
  9 14  1  0
 14 15  2  0
 15 16  1  0
 16 17  1  0
 17 18  2  0
 17 19  1  0
 19 20  1  0
 20 21  1  0
 21 22  2  0
 21 23  1  0
 16  4  1  0
 15  6  1  0
  1 24  1  0
  1 25  1  0
  5 26  1  0
  7 27  1  0
  8 28  1  0
 14 29  1  0
 20 30  1  0
 20 31  1  0
M  CHG  2  19  -1  23  -1
M  END
>  <UniqueID>  (10) 
10

>  <SMILES>  (10) 
NC(=O)c1cc2ccc(C(F)(F)F)cc2n1C(=O)[N-]CC(=O)[O-]

>  <Energy>  (10) 
68.86163134883103

>  <Genealogy>  (10) 
NC(=O)c1cc2ccc(C(F)(F)F)cc2n1C(=O)[N-]CC(=O)[O-] (protonated)
NC(=O)c1cc2ccc(C(F)(F)F)cc2n1C(=O)[N-]CC(=O)[O-] (3D coordinates assigned)
NC(=O)c1cc2ccc(C(F)(F)F)cc2n1C(=O)[N-]CC(=O)[O-] (optimized conformer: 68.86163134883103 kcal/mol)

>  <smiles>  (10) 
NC(=O)c1cc2ccc(C(F)(F)F)cc2n1C(=O)NCC(=O)O

>  <score_type>  (10) 
oracle

>  <origin>  (10) 
adg

>  <m_score__min__energy>  (10) 
-6.0199999999999996

>  <m_primary>  (10) 
energy

$$$$
11:0
     RDKit          3D

 41 43  0  0  0  0  0  0  0  0999 V2000
  146.4900  162.5090  134.3460 N   0  0  0  0  0  0  0  0  0  0  0  0
  145.0830  162.5050  134.0960 C   0  0  0  0  0  0  0  0  0  0  0  0
  144.4490  163.5920  134.1260 O   0  0  0  0  0  0  0  0  0  0  0  0
  144.3510  161.2430  133.8700 C   0  0  0  0  0  0  0  0  0  0  0  0
  142.9630  161.1500  133.8920 C   0  0  0  0  0  0  0  0  0  0  0  0
  142.6860  159.8160  133.7100 C   0  0  0  0  0  0  0  0  0  0  0  0
  141.4620  159.1620  133.6330 C   0  0  0  0  0  0  0  0  0  0  0  0
  141.4680  157.7770  133.4010 C   0  0  0  0  0  0  0  0  0  0  0  0
  142.6850  157.0690  133.2410 C   0  0  0  0  0  0  0  0  0  0  0  0
  142.6350  155.6490  132.9910 N   0  0  0  0  0  0  0  0  0  0  0  0
  142.1510  154.6490  133.9560 C   0  0  0  0  0  0  0  0  0  0  0  0
  142.7210  153.2630  133.6220 C   0  0  0  0  0  0  0  0  0  0  0  0
  142.0550  152.2110  134.5150 C   0  0  0  0  0  0  0  0  0  0  0  0
  141.9470  152.6640  135.9100 N   0  0  0  0  0  0  0  0  0  0  0  0
  141.2650  151.8200  136.8570 C   0  0  0  0  0  0  0  0  0  0  0  0
  141.2420  152.1130  138.0820 O   0  0  0  0  0  0  0  0  0  0  0  0
  140.6180  150.6660  136.4280 O   0  0  0  0  0  0  0  0  0  0  0  0
  142.6950  153.8500  136.3630 C   0  0  0  0  0  0  0  0  0  0  0  0
  142.5190  155.0490  135.4070 C   0  0  0  0  0  0  0  0  0  0  0  0
  143.9120  157.7760  133.3190 C   0  0  0  0  0  0  0  0  0  0  0  0
  143.8780  159.1520  133.5750 C   0  0  0  0  0  0  0  0  0  0  0  0
  144.9130  160.0180  133.6690 N   0  0  0  0  0  0  0  0  0  0  0  0
  146.3070  159.7230  133.4700 C   0  0  0  0  0  0  0  0  0  0  0  0
  147.0130  160.4470  132.7200 O   0  0  0  0  0  0  0  0  0  0  0  0
  146.8920  158.6340  134.1060 O   0  0  0  0  0  0  0  0  0  0  0  0
  147.0140  161.6180  134.4940 H   0  0  0  0  0  0  0  0  0  0  0  0
  146.9980  163.4130  134.4680 H   0  0  0  0  0  0  0  0  0  0  0  0
  142.2413  161.9692  134.0264 H   0  0  0  0  0  0  0  0  0  0  0  0
  140.5170  159.7127  133.7502 H   0  0  0  0  0  0  0  0  0  0  0  0
  140.5135  157.2335  133.3426 H   0  0  0  0  0  0  0  0  0  0  0  0
  142.9730  155.3190  132.0580 H   0  0  0  0  0  0  0  0  0  0  0  0
  141.0542  154.6081  133.8821 H   0  0  0  0  0  0  0  0  0  0  0  0
  142.5206  153.0283  132.5662 H   0  0  0  0  0  0  0  0  0  0  0  0
  143.8069  153.2600  133.7973 H   0  0  0  0  0  0  0  0  0  0  0  0
  141.0458  152.0045  134.1291 H   0  0  0  0  0  0  0  0  0  0  0  0
  142.6792  151.3054  134.4982 H   0  0  0  0  0  0  0  0  0  0  0  0
  142.3337  154.1369  137.3616 H   0  0  0  0  0  0  0  0  0  0  0  0
  143.7632  153.5884  136.3843 H   0  0  0  0  0  0  0  0  0  0  0  0
  141.7187  155.6919  135.8021 H   0  0  0  0  0  0  0  0  0  0  0  0
  143.4903  155.5631  135.3589 H   0  0  0  0  0  0  0  0  0  0  0  0
  144.8704  157.2541  133.1812 H   0  0  0  0  0  0  0  0  0  0  0  0
  1  2  1  0
  2  3  2  0
  2  4  1  0
  4  5  2  0
  5  6  1  0
  6  7  2  0
  7  8  1  0
  8  9  2  0
  9 10  1  0
 10 11  1  0
 11 12  1  0
 12 13  1  0
 13 14  1  0
 14 15  1  0
 15 16  2  0
 15 17  1  0
 14 18  1  0
 18 19  1  0
  9 20  1  0
 20 21  2  0
 21 22  1  0
 22 23  1  0
 23 24  2  0
 23 25  1  0
 22  4  1  0
 21  6  1  0
 19 11  1  0
  1 26  1  0
  1 27  1  0
  5 28  1  0
  7 29  1  0
  8 30  1  0
 10 31  1  0
 11 32  1  0
 12 33  1  0
 12 34  1  0
 13 35  1  0
 13 36  1  0
 18 37  1  0
 18 38  1  0
 19 39  1  0
 19 40  1  0
 20 41  1  0
M  CHG  2  17  -1  25  -1
M  END
>  <UniqueID>  (11) 
11

>  <SMILES>  (11) 
NC(=O)c1cc2ccc(NC3CCN(C(=O)[O-])CC3)cc2n1C(=O)[O-]

>  <Energy>  (11) 
85.28968940577309

>  <Genealogy>  (11) 
NC(=O)c1cc2ccc(NC3CCN(C(=O)[O-])CC3)cc2n1C(=O)[O-] (protonated)
NC(=O)c1cc2ccc(NC3CCN(C(=O)[O-])CC3)cc2n1C(=O)[O-] (3D coordinates assigned)
NC(=O)c1cc2ccc(NC3CCN(C(=O)[O-])CC3)cc2n1C(=O)[O-] (nonaromatic ring conformer: 85.28968940577309 kcal/mol)

>  <smiles>  (11) 
NC(=O)c1cc2ccc(NC3CCN(C(=O)O)CC3)cc2n1C(=O)O

>  <score_type>  (11) 
oracle

>  <origin>  (11) 
adg

>  <m_score__min__energy>  (11) 
-7.7800000000000002

>  <m_primary>  (11) 
energy

$$$$
12:0
     RDKit          3D

 98105  0  0  0  0  0  0  0  0999 V2000
  141.3620  152.0020  136.8060 C   0  0  0  0  0  0  0  0  0  0  0  0
  141.7860  153.2090  136.4540 C   0  0  0  0  0  0  0  0  0  0  0  0
  142.3230  154.1790  137.4300 C   0  0  0  0  0  0  0  0  0  0  0  0
  142.4100  155.4030  137.1210 O   0  0  0  0  0  0  0  0  0  0  0  0
  142.6670  153.7690  138.7630 N   0  0  0  0  0  0  0  0  0  0  0  0
  141.9720  154.0330  139.9060 C   0  0  0  0  0  0  0  0  0  0  0  0
  140.6560  154.6950  139.9690 C   0  0  0  0  0  0  0  0  0  0  0  0
  139.5590  154.1630  139.2370 N   0  0  0  0  0  0  0  0  0  0  0  0
  140.4960  155.7220  140.6800 O   0  0  0  0  0  0  0  0  0  0  0  0
  142.6660  153.5780  141.0180 C   0  0  0  0  0  0  0  0  0  0  0  0
  143.8220  153.0170  140.5230 C   0  0  0  0  0  0  0  0  0  0  0  0
  144.8780  152.4160  141.1900 C   0  0  0  0  0  0  0  0  0  0  0  0
  145.9720  151.9680  140.4320 C   0  0  0  0  0  0  0  0  0  0  0  0
  146.0060  152.1380  139.0180 C   0  0  0  0  0  0  0  0  0  0  0  0
  147.1570  151.6300  138.2210 C   0  0  0  0  0  0  0  0  0  0  0  0
  147.2170  150.2780  137.8370 C   0  0  0  0  0  0  0  0  0  0  0  0
  148.1970  149.8320  136.9490 C   0  0  0  0  0  0  0  0  0  0  0  0
  149.1440  150.7260  136.4170 C   0  0  0  0  0  0  0  0  0  0  0  0
  150.0210  150.3130  135.3430 N   0  0  0  0  0  0  0  0  0  0  0  0
  149.5760  150.8230  134.0200 C   0  0  1  0  0  0  0  0  0  0  0  0
  148.4810  151.9100  134.1910 C   0  0  0  0  0  0  0  0  0  0  0  0
  149.0710  153.3310  134.2830 C   0  0  0  0  0  0  0  0  0  0  0  0
  149.9650  153.7070  133.0650 C   0  0  2  0  0  0  0  0  0  0  0  0
  149.4020  154.7570  132.1780 N   0  0  0  0  0  0  0  0  0  0  0  0
  149.6180  156.1510  132.6040 C   0  0  0  0  0  0  0  0  0  0  0  0
  148.4880  156.6190  133.5100 C   0  0  0  0  0  0  0  0  0  0  0  0
  147.2050  156.4250  132.8430 N   0  0  0  0  0  0  0  0  0  0  0  0
  146.1190  157.2950  133.1820 C   0  0  0  0  0  0  0  0  0  0  0  0
  144.8000  156.9170  132.8510 C   0  0  0  0  0  0  0  0  0  0  0  0
  143.7690  157.7940  133.1760 C   0  0  0  0  0  0  0  0  0  0  0  0
  144.0120  158.9920  133.8100 C   0  0  0  0  0  0  0  0  0  0  0  0
  145.3000  159.3850  134.1610 C   0  0  0  0  0  0  0  0  0  0  0  0
  146.3650  158.5300  133.8370 C   0  0  0  0  0  0  0  0  0  0  0  0
  147.6290  158.8870  134.1800 F   0  0  0  0  0  0  0  0  0  0  0  0
  142.7330  159.6730  133.9890 C   0  0  0  0  0  0  0  0  0  0  0  0
  142.5570  160.7700  134.5890 O   0  0  0  0  0  0  0  0  0  0  0  0
  141.6790  158.8840  133.4280 N   0  0  0  0  0  0  0  0  0  0  0  0
  140.2350  159.0710  133.5980 C   0  0  2  0  0  0  0  0  0  0  0  0
  139.5730  157.7430  133.9970 C   0  0  0  0  0  0  0  0  0  0  0  0
  138.0580  157.9180  134.1290 C   0  0  0  0  0  0  0  0  0  0  0  0
  137.4760  158.4540  132.8530 C   0  0  0  0  0  0  0  0  0  0  0  0
  136.2600  158.2290  132.5940 O   0  0  0  0  0  0  0  0  0  0  0  0
  138.2750  159.2610  131.9620 N   0  0  0  0  0  0  0  0  0  0  0  0
  137.6810  159.8100  130.7380 C   0  0  0  0  0  0  0  0  0  0  0  0
  139.6170  159.6190  132.3350 C   0  0  0  0  0  0  0  0  0  0  0  0
  140.2680  160.4480  131.6360 O   0  0  0  0  0  0  0  0  0  0  0  0
  142.3300  157.7020  132.9480 C   0  0  0  0  0  0  0  0  0  0  0  0
  141.7330  156.7260  132.4190 O   0  0  0  0  0  0  0  0  0  0  0  0
  146.8900  155.1430  132.2040 C   0  0  0  0  0  0  0  0  0  0  0  0
  148.1070  154.5140  131.4970 C   0  0  0  0  0  0  0  0  0  0  0  0
  150.3830  152.4790  132.2260 C   0  0  0  0  0  0  0  0  0  0  0  0
  150.7690  151.3280  133.1510 C   0  0  0  0  0  0  0  0  0  0  0  0
  149.1600  152.0500  136.8860 C   0  0  0  0  0  0  0  0  0  0  0  0
  148.1720  152.5000  137.7680 C   0  0  0  0  0  0  0  0  0  0  0  0
  144.9010  152.7540  138.3820 C   0  0  0  0  0  0  0  0  0  0  0  0
  143.8090  153.1560  139.1610 C   0  0  0  0  0  0  0  0  0  0  0  0
  140.9697  151.3129  136.0436 H   0  0  0  0  0  0  0  0  0  0  0  0
  141.4028  151.6905  137.8602 H   0  0  0  0  0  0  0  0  0  0  0  0
  141.7356  153.4986  135.3940 H   0  0  0  0  0  0  0  0  0  0  0  0
  138.5940  154.5120  139.3950 H   0  0  0  0  0  0  0  0  0  0  0  0
  142.3580  153.6501  142.0716 H   0  0  0  0  0  0  0  0  0  0  0  0
  144.8596  152.2933  142.2830 H   0  0  0  0  0  0  0  0  0  0  0  0
  146.8165  151.4778  140.9384 H   0  0  0  0  0  0  0  0  0  0  0  0
  146.4836  149.5646  138.2410 H   0  0  0  0  0  0  0  0  0  0  0  0
  148.2293  148.7705  136.6622 H   0  0  0  0  0  0  0  0  0  0  0  0
  150.9810  150.6670  135.5450 H   0  0  0  0  0  0  0  0  0  0  0  0
  150.0750  149.2700  135.3060 H   0  0  0  0  0  0  0  0  0  0  0  0
  149.1316  149.9798  133.4709 H   0  0  0  0  0  0  0  0  0  0  0  0
  147.9174  151.7015  135.1123 H   0  0  0  0  0  0  0  0  0  0  0  0
  147.8319  151.8738  133.3037 H   0  0  0  0  0  0  0  0  0  0  0  0
  149.6798  153.3977  135.1967 H   0  0  0  0  0  0  0  0  0  0  0  0
  148.2255  154.0345  134.2959 H   0  0  0  0  0  0  0  0  0  0  0  0
  150.8608  154.1393  133.5347 H   0  0  0  0  0  0  0  0  0  0  0  0
  150.5702  156.2179  133.1507 H   0  0  0  0  0  0  0  0  0  0  0  0
  149.6440  156.7932  131.7113 H   0  0  0  0  0  0  0  0  0  0  0  0
  148.5051  156.0384  134.4442 H   0  0  0  0  0  0  0  0  0  0  0  0
  148.6221  157.6875  133.7342 H   0  0  0  0  0  0  0  0  0  0  0  0
  144.5932  155.9590  132.3516 H   0  0  0  0  0  0  0  0  0  0  0  0
  145.4786  160.3393  134.6781 H   0  0  0  0  0  0  0  0  0  0  0  0
  140.0669  159.8013  134.4033 H   0  0  0  0  0  0  0  0  0  0  0  0
  139.7844  156.9872  133.2263 H   0  0  0  0  0  0  0  0  0  0  0  0
  139.9798  157.4197  134.9665 H   0  0  0  0  0  0  0  0  0  0  0  0
  137.5996  156.9438  134.3545 H   0  0  0  0  0  0  0  0  0  0  0  0
  137.8523  158.6316  134.9405 H   0  0  0  0  0  0  0  0  0  0  0  0
  136.8971  160.5345  131.0039 H   0  0  0  0  0  0  0  0  0  0  0  0
  138.4599  160.3131  130.1462 H   0  0  0  0  0  0  0  0  0  0  0  0
  137.2406  158.9940  130.1462 H   0  0  0  0  0  0  0  0  0  0  0  0
  146.5314  154.4448  132.9746 H   0  0  0  0  0  0  0  0  0  0  0  0
  146.1236  155.3336  131.4383 H   0  0  0  0  0  0  0  0  0  0  0  0
  147.9474  153.4272  131.4382 H   0  0  0  0  0  0  0  0  0  0  0  0
  148.1773  154.9902  130.5079 H   0  0  0  0  0  0  0  0  0  0  0  0
  151.2436  152.7442  131.5943 H   0  0  0  0  0  0  0  0  0  0  0  0
  149.5396  152.1682  131.5920 H   0  0  0  0  0  0  0  0  0  0  0  0
  151.5716  151.6699  133.8210 H   0  0  0  0  0  0  0  0  0  0  0  0
  151.0947  150.4898  132.5176 H   0  0  0  0  0  0  0  0  0  0  0  0
  149.9540  152.7369  136.5578 H   0  0  0  0  0  0  0  0  0  0  0  0
  148.1862  153.5445  138.1128 H   0  0  0  0  0  0  0  0  0  0  0  0
  144.9004  152.9141  137.2937 H   0  0  0  0  0  0  0  0  0  0  0  0
  1  2  2  0
  2  3  1  0
  3  4  2  0
  3  5  1  0
  5  6  1  0
  6  7  1  0
  7  8  1  0
  7  9  2  0
  6 10  2  0
 10 11  1  0
 11 12  2  0
 12 13  1  0
 13 14  2  0
 14 15  1  0
 15 16  2  0
 16 17  1  0
 17 18  2  0
 18 19  1  0
 19 20  1  0
 20 21  1  0
 21 22  1  0
 22 23  1  0
 23 24  1  0
 24 25  1  0
 25 26  1  0
 26 27  1  0
 27 28  1  0
 28 29  2  0
 29 30  1  0
 30 31  2  0
 31 32  1  0
 32 33  2  0
 33 34  1  0
 31 35  1  0
 35 36  2  0
 35 37  1  0
 37 38  1  0
 38 39  1  0
 39 40  1  0
 40 41  1  0
 41 42  2  0
 41 43  1  0
 43 44  1  0
 43 45  1  0
 45 46  2  0
 37 47  1  0
 47 48  2  0
 27 49  1  0
 49 50  1  0
 23 51  1  0
 51 52  1  0
 18 53  1  0
 53 54  2  0
 14 55  1  0
 55 56  2  0
 56  5  1  0
 56 11  1  0
 54 15  1  0
 52 20  1  0
 50 24  1  0
 33 28  1  0
 45 38  1  0
 47 30  1  0
  1 57  1  0
  1 58  1  0
  2 59  1  0
  8 60  1  0
 10 61  1  0
 12 62  1  0
 13 63  1  0
 16 64  1  0
 17 65  1  0
 19 66  1  0
 19 67  1  0
 20 68  1  6
 21 69  1  0
 21 70  1  0
 22 71  1  0
 22 72  1  0
 23 73  1  1
 25 74  1  0
 25 75  1  0
 26 76  1  0
 26 77  1  0
 29 78  1  0
 32 79  1  0
 38 80  1  1
 39 81  1  0
 39 82  1  0
 40 83  1  0
 40 84  1  0
 44 85  1  0
 44 86  1  0
 44 87  1  0
 49 88  1  0
 49 89  1  0
 50 90  1  0
 50 91  1  0
 51 92  1  0
 51 93  1  0
 52 94  1  0
 52 95  1  0
 53 96  1  0
 54 97  1  0
 55 98  1  0
M  CHG  2   8  -1  19   1
M  END
>  <UniqueID>  (12) 
12

>  <SMILES>  (12) 
C=CC(=O)n1c(C([NH-])=O)cc2ccc(-c3ccc([NH2+]C4CCC(N5CCN(c6cc7c(cc6F)C(=O)N([C@@H]6CCC(=O)N(C)C6=O)C7=O)CC5)CC4)cc3)cc21

>  <Energy>  (12) 
211.27585475084848

>  <Genealogy>  (12) 
C=CC(=O)n1c(C([NH-])=O)cc2ccc(-c3ccc([NH2+]C4CCC(N5CCN(c6cc7c(cc6F)C(=O)N(C6CCC(=O)N(C)C6=O)C7=O)CC5)CC4)cc3)cc21 (protonated)
C=CC(=O)n1c(C([NH-])=O)cc2ccc(-c3ccc([NH2+]C4CCC(N5CCN(c6cc7c(cc6F)C(=O)N([C@@H]6CCC(=O)N(C)C6=O)C7=O)CC5)CC4)cc3)cc21 (chirality)
C=CC(=O)n1c(C([NH-])=O)cc2ccc(-c3ccc([NH2+]C4CCC(N5CCN(c6cc7c(cc6F)C(=O)N([C@@H]6CCC(=O)N(C)C6=O)C7=O)CC5)CC4)cc3)cc21 (3D coordinates assigned)
C=CC(=O)n1c(C([NH-])=O)cc2ccc(-c3ccc([NH2+]C4CCC(N5CCN(c6cc7c(cc6F)C(=O)N([C@@H]6CCC(=O)N(C)C6=O)C7=O)CC5)CC4)cc3)cc21 (nonaromatic ring conformer: 211.27585475084848 kcal/mol)

>  <smiles>  (12) 
C=CC(=O)n1c(C(N)=O)cc2ccc(-c3ccc(NC4CCC(N5CCN(c6cc7c(cc6F)C(=O)N(C6CCC(=O)N(C)C6=O)C7=O)CC5)CC4)cc3)cc21

>  <score_type>  (12) 
oracle

>  <origin>  (12) 
adg

>  <m_score__min__energy>  (12) 
-5.0899999999999999

>  <m_primary>  (12) 
energy

$$$$
13:0
     RDKit          3D

 36 38  0  0  0  0  0  0  0  0999 V2000
  142.8210  160.4720  133.3650 N   0  0  0  0  0  0  0  0  0  0  0  0
  144.1760  160.7250  133.7220 C   0  0  0  0  0  0  0  0  0  0  0  0
  144.4970  161.8590  134.1680 O   0  0  0  0  0  0  0  0  0  0  0  0
  145.2170  159.6940  133.5310 C   0  0  0  0  0  0  0  0  0  0  0  0
  146.5620  159.9840  133.3120 C   0  0  0  0  0  0  0  0  0  0  0  0
  147.1710  158.7650  133.1100 C   0  0  0  0  0  0  0  0  0  0  0  0
  148.5030  158.4580  132.8550 C   0  0  0  0  0  0  0  0  0  0  0  0
  148.8510  157.1050  132.7100 C   0  0  0  0  0  0  0  0  0  0  0  0
  147.8700  156.0840  132.8240 C   0  0  0  0  0  0  0  0  0  0  0  0
  148.2490  154.6560  132.6750 C   0  0  0  0  0  0  0  0  0  0  0  0
  149.6000  154.2740  132.5890 C   0  0  0  0  0  0  0  0  0  0  0  0
  149.9360  152.9650  132.4550 N   0  0  0  0  0  0  0  0  0  0  0  0
  148.9970  151.9850  132.3950 C   0  0  0  0  0  0  0  0  0  0  0  0
  147.6380  152.3090  132.4740 C   0  0  0  0  0  0  0  0  0  0  0  0
  146.6440  151.2850  132.4090 N   0  0  0  0  0  0  0  0  0  0  0  0
  147.2680  153.6510  132.6160 C   0  0  0  0  0  0  0  0  0  0  0  0
  146.5240  156.4410  133.0830 C   0  0  0  0  0  0  0  0  0  0  0  0
  146.2090  157.7960  133.2120 C   0  0  0  0  0  0  0  0  0  0  0  0
  145.0060  158.3490  133.4770 N   0  0  0  0  0  0  0  0  0  0  0  0
  143.7910  157.6260  133.7280 C   0  0  0  0  0  0  0  0  0  0  0  0
  143.3720  157.5080  134.9090 O   0  0  0  0  0  0  0  0  0  0  0  0
  142.9840  157.0400  132.6020 C   0  0  0  0  0  0  0  0  0  0  0  0
  141.8950  157.8610  132.2760 O   0  0  0  0  0  0  0  0  0  0  0  0
  142.5850  159.9220  132.5100 H   0  0  0  0  0  0  0  0  0  0  0  0
  147.0370  160.9761  133.3024 H   0  0  0  0  0  0  0  0  0  0  0  0
  149.2610  159.2505  132.7694 H   0  0  0  0  0  0  0  0  0  0  0  0
  149.8969  156.8324  132.5055 H   0  0  0  0  0  0  0  0  0  0  0  0
  150.3887  155.0397  132.6305 H   0  0  0  0  0  0  0  0  0  0  0  0
  149.3055  150.9350  132.2841 H   0  0  0  0  0  0  0  0  0  0  0  0
  146.0600  151.0510  133.2420 H   0  0  0  0  0  0  0  0  0  0  0  0
  146.4820  150.7520  131.5250 H   0  0  0  0  0  0  0  0  0  0  0  0
  146.2037  153.9210  132.6818 H   0  0  0  0  0  0  0  0  0  0  0  0
  145.7455  155.6700  133.1802 H   0  0  0  0  0  0  0  0  0  0  0  0
  143.6287  156.9316  131.7174 H   0  0  0  0  0  0  0  0  0  0  0  0
  142.5977  156.0615  132.9236 H   0  0  0  0  0  0  0  0  0  0  0  0
  142.2560  158.7800  132.1650 H   0  0  0  0  0  0  0  0  0  0  0  0
  1  2  1  0
  2  3  2  0
  2  4  1  0
  4  5  2  0
  5  6  1  0
  6  7  2  0
  7  8  1  0
  8  9  2  0
  9 10  1  0
 10 11  2  0
 11 12  1  0
 12 13  2  0
 13 14  1  0
 14 15  1  0
 14 16  2  0
  9 17  1  0
 17 18  2  0
 18 19  1  0
 19 20  1  0
 20 21  2  0
 20 22  1  0
 22 23  1  0
 19  4  1  0
 18  6  1  0
 16 10  1  0
  1 24  1  0
  5 25  1  0
  7 26  1  0
  8 27  1  0
 11 28  1  0
 13 29  1  0
 15 30  1  0
 15 31  1  0
 16 32  1  0
 17 33  1  0
 22 34  1  0
 22 35  1  0
 23 36  1  0
M  CHG  1   1  -1
M  END
>  <UniqueID>  (13) 
13

>  <SMILES>  (13) 
[NH-]C(=O)c1cc2ccc(-c3cncc(N)c3)cc2n1C(=O)CO

>  <Energy>  (13) 
83.8081007013937

>  <Genealogy>  (13) 
[NH-]C(=O)c1cc2ccc(-c3cncc(N)c3)cc2n1C(=O)CO (protonated)
[NH-]C(=O)c1cc2ccc(-c3cncc(N)c3)cc2n1C(=O)CO (3D coordinates assigned)
[NH-]C(=O)c1cc2ccc(-c3cncc(N)c3)cc2n1C(=O)CO (optimized conformer: 83.8081007013937 kcal/mol)

>  <smiles>  (13) 
NC(=O)c1cc2ccc(-c3cncc(N)c3)cc2n1C(=O)CO

>  <score_type>  (13) 
oracle

>  <origin>  (13) 
adg

>  <m_score__min__energy>  (13) 
-7.2999999999999998

>  <m_primary>  (13) 
energy

$$$$
14:0
     RDKit          3D

 33 34  0  0  0  0  0  0  0  0999 V2000
  143.6890  155.5940  134.8420 C   0  0  0  0  0  0  0  0  0  0  0  0
  143.3100  156.8380  134.5600 C   0  0  0  0  0  0  0  0  0  0  0  0
  143.7580  157.5490  133.3470 C   0  0  0  0  0  0  0  0  0  0  0  0
  143.0070  157.6240  132.3370 O   0  0  0  0  0  0  0  0  0  0  0  0
  145.0770  158.1160  133.2910 N   0  0  0  0  0  0  0  0  0  0  0  0
  145.4480  159.4080  133.5170 C   0  0  0  0  0  0  0  0  0  0  0  0
  144.5310  160.5440  133.7430 C   0  0  0  0  0  0  0  0  0  0  0  0
  143.1620  160.4370  133.3590 N   0  0  0  0  0  0  0  0  0  0  0  0
  144.9350  161.5970  134.3010 O   0  0  0  0  0  0  0  0  0  0  0  0
  146.8330  159.5400  133.4220 C   0  0  0  0  0  0  0  0  0  0  0  0
  147.3000  158.2810  133.1180 C   0  0  0  0  0  0  0  0  0  0  0  0
  148.6010  157.8340  132.9060 C   0  0  0  0  0  0  0  0  0  0  0  0
  148.7890  156.4730  132.6150 C   0  0  0  0  0  0  0  0  0  0  0  0
  147.6850  155.5840  132.5520 C   0  0  0  0  0  0  0  0  0  0  0  0
  147.8910  154.1910  132.2330 N   0  0  0  0  0  0  0  0  0  0  0  0
  148.5010  153.4690  133.3620 C   0  0  0  0  0  0  0  0  0  0  0  0
  149.4000  152.3630  132.8920 C   0  0  0  0  0  0  0  0  0  0  0  0
  149.6630  152.2380  131.6670 O   0  0  0  0  0  0  0  0  0  0  0  0
  149.9780  151.4970  133.8120 O   0  0  0  0  0  0  0  0  0  0  0  0
  146.3770  156.0790  132.7710 C   0  0  0  0  0  0  0  0  0  0  0  0
  146.2200  157.4420  133.0440 C   0  0  0  0  0  0  0  0  0  0  0  0
  143.3293  155.1039  135.7587 H   0  0  0  0  0  0  0  0  0  0  0  0
  144.3620  155.0558  134.1584 H   0  0  0  0  0  0  0  0  0  0  0  0
  142.6365  157.3565  135.2583 H   0  0  0  0  0  0  0  0  0  0  0  0
  142.8660  159.7770  132.6050 H   0  0  0  0  0  0  0  0  0  0  0  0
  147.4265  160.4557  133.5606 H   0  0  0  0  0  0  0  0  0  0  0  0
  149.4549  158.5249  132.9645 H   0  0  0  0  0  0  0  0  0  0  0  0
  149.8047  156.0915  132.4337 H   0  0  0  0  0  0  0  0  0  0  0  0
  148.4890  154.0930  131.3790 H   0  0  0  0  0  0  0  0  0  0  0  0
  146.9670  153.7510  132.0150 H   0  0  0  0  0  0  0  0  0  0  0  0
  149.0911  154.1778  133.9615 H   0  0  0  0  0  0  0  0  0  0  0  0
  147.6932  153.0235  133.9612 H   0  0  0  0  0  0  0  0  0  0  0  0
  145.5059  155.4087  132.7276 H   0  0  0  0  0  0  0  0  0  0  0  0
  1  2  2  0
  2  3  1  0
  3  4  2  0
  3  5  1  0
  5  6  1  0
  6  7  1  0
  7  8  1  0
  7  9  2  0
  6 10  2  0
 10 11  1  0
 11 12  2  0
 12 13  1  0
 13 14  2  0
 14 15  1  0
 15 16  1  0
 16 17  1  0
 17 18  2  0
 17 19  1  0
 14 20  1  0
 20 21  2  0
 21  5  1  0
 21 11  1  0
  1 22  1  0
  1 23  1  0
  2 24  1  0
  8 25  1  0
 10 26  1  0
 12 27  1  0
 13 28  1  0
 15 29  1  0
 15 30  1  0
 16 31  1  0
 16 32  1  0
 20 33  1  0
M  CHG  3   8  -1  15   1  19  -1
M  END
>  <UniqueID>  (14) 
14

>  <SMILES>  (14) 
C=CC(=O)n1c(C([NH-])=O)cc2ccc([NH2+]CC(=O)[O-])cc21

>  <Energy>  (14) 
71.7998607928698

>  <Genealogy>  (14) 
C=CC(=O)n1c(C([NH-])=O)cc2ccc([NH2+]CC(=O)[O-])cc21 (protonated)
C=CC(=O)n1c(C([NH-])=O)cc2ccc([NH2+]CC(=O)[O-])cc21 (3D coordinates assigned)
C=CC(=O)n1c(C([NH-])=O)cc2ccc([NH2+]CC(=O)[O-])cc21 (optimized conformer: 71.7998607928698 kcal/mol)

>  <smiles>  (14) 
C=CC(=O)n1c(C(N)=O)cc2ccc(NCC(=O)O)cc21

>  <score_type>  (14) 
oracle

>  <origin>  (14) 
adg

>  <m_score__min__energy>  (14) 
-6.04

>  <m_primary>  (14) 
energy

$$$$
15:0
     RDKit          3D

 34 35  0  0  0  0  0  0  0  0999 V2000
  141.7320  157.2750  136.9390 C   0  0  0  0  0  0  0  0  0  0  0  0
  141.9240  157.7420  135.5620 N   0  0  0  0  0  0  0  0  0  0  0  0
  140.9260  158.6260  134.9500 C   0  0  0  0  0  0  0  0  0  0  0  0
  143.0450  157.2340  134.8040 C   0  0  0  0  0  0  0  0  0  0  0  0
  143.6590  156.2120  135.2180 O   0  0  0  0  0  0  0  0  0  0  0  0
  143.5140  157.8680  133.5520 C   0  0  0  0  0  0  0  0  0  0  0  0
  142.7860  157.8700  132.5230 O   0  0  0  0  0  0  0  0  0  0  0  0
  144.7950  158.5200  133.5080 N   0  0  0  0  0  0  0  0  0  0  0  0
  145.0480  159.8580  133.5180 C   0  0  0  0  0  0  0  0  0  0  0  0
  144.0410  160.9270  133.6900 C   0  0  0  0  0  0  0  0  0  0  0  0
  142.6750  160.6760  133.3660 N   0  0  0  0  0  0  0  0  0  0  0  0
  144.3770  162.0700  134.1000 O   0  0  0  0  0  0  0  0  0  0  0  0
  146.4170  160.0950  133.4010 C   0  0  0  0  0  0  0  0  0  0  0  0
  146.9970  158.8490  133.3150 C   0  0  0  0  0  0  0  0  0  0  0  0
  148.3340  158.4900  133.1810 C   0  0  0  0  0  0  0  0  0  0  0  0
  148.6420  157.1210  133.0950 C   0  0  0  0  0  0  0  0  0  0  0  0
  147.6150  156.1420  133.1180 C   0  0  0  0  0  0  0  0  0  0  0  0
  147.9620  154.6770  133.0630 C   0  0  0  0  0  0  0  0  0  0  0  0
  146.8730  153.9690  132.5870 F   0  0  0  0  0  0  0  0  0  0  0  0
  148.2900  154.2030  134.3210 F   0  0  0  0  0  0  0  0  0  0  0  0
  149.0420  154.4600  132.2240 F   0  0  0  0  0  0  0  0  0  0  0  0
  146.2700  156.5490  133.2770 C   0  0  0  0  0  0  0  0  0  0  0  0
  145.9950  157.9170  133.3780 C   0  0  0  0  0  0  0  0  0  0  0  0
  142.0542  158.0588  137.6403 H   0  0  0  0  0  0  0  0  0  0  0  0
  140.6682  157.0495  137.1047 H   0  0  0  0  0  0  0  0  0  0  0  0
  142.3296  156.3664  137.1047 H   0  0  0  0  0  0  0  0  0  0  0  0
  140.3527  159.1338  135.7396 H   0  0  0  0  0  0  0  0  0  0  0  0
  141.4340  159.3758  134.3258 H   0  0  0  0  0  0  0  0  0  0  0  0
  140.2430  158.0312  134.3258 H   0  0  0  0  0  0  0  0  0  0  0  0
  142.4170  160.0040  132.6090 H   0  0  0  0  0  0  0  0  0  0  0  0
  146.9257  161.0701  133.3815 H   0  0  0  0  0  0  0  0  0  0  0  0
  149.1254  159.2531  133.1435 H   0  0  0  0  0  0  0  0  0  0  0  0
  149.6920  156.8048  133.0088 H   0  0  0  0  0  0  0  0  0  0  0  0
  145.4589  155.8072  133.3202 H   0  0  0  0  0  0  0  0  0  0  0  0
  1  2  1  0
  2  3  1  0
  2  4  1  0
  4  5  2  0
  4  6  1  0
  6  7  2  0
  6  8  1  0
  8  9  1  0
  9 10  1  0
 10 11  1  0
 10 12  2  0
  9 13  2  0
 13 14  1  0
 14 15  2  0
 15 16  1  0
 16 17  2  0
 17 18  1  0
 18 19  1  0
 18 20  1  0
 18 21  1  0
 17 22  1  0
 22 23  2  0
 23  8  1  0
 23 14  1  0
  1 24  1  0
  1 25  1  0
  1 26  1  0
  3 27  1  0
  3 28  1  0
  3 29  1  0
 11 30  1  0
 13 31  1  0
 15 32  1  0
 16 33  1  0
 22 34  1  0
M  CHG  1  11  -1
M  END
>  <UniqueID>  (15) 
15

>  <SMILES>  (15) 
CN(C)C(=O)C(=O)n1c(C([NH-])=O)cc2ccc(C(F)(F)F)cc21

>  <Energy>  (15) 
74.09800109253489

>  <Genealogy>  (15) 
CN(C)C(=O)C(=O)n1c(C([NH-])=O)cc2ccc(C(F)(F)F)cc21 (protonated)
CN(C)C(=O)C(=O)n1c(C([NH-])=O)cc2ccc(C(F)(F)F)cc21 (3D coordinates assigned)
CN(C)C(=O)C(=O)n1c(C([NH-])=O)cc2ccc(C(F)(F)F)cc21 (optimized conformer: 74.09800109253489 kcal/mol)

>  <smiles>  (15) 
CN(C)C(=O)C(=O)n1c(C(N)=O)cc2ccc(C(F)(F)F)cc21

>  <score_type>  (15) 
oracle

>  <origin>  (15) 
adg

>  <m_score__min__energy>  (15) 
-6.21

>  <m_primary>  (15) 
energy

$$$$
16:0
     RDKit          3D

 32 34  0  0  0  0  0  0  0  0999 V2000
  144.7130  163.1040  134.1030 C   0  0  0  0  0  0  0  0  0  0  0  0
  144.7280  161.6140  133.9450 C   0  0  0  0  0  0  0  0  0  0  0  0
  143.5110  160.8890  133.9250 C   0  0  0  0  0  0  0  0  0  0  0  0
  143.5100  159.4960  133.7320 C   0  0  0  0  0  0  0  0  0  0  0  0
  144.7360  158.8610  133.5580 C   0  0  0  0  0  0  0  0  0  0  0  0
  145.0240  157.5350  133.3220 C   0  0  0  0  0  0  0  0  0  0  0  0
  146.4130  157.4720  133.2030 C   0  0  0  0  0  0  0  0  0  0  0  0
  147.1830  156.2250  132.9870 C   0  0  0  0  0  0  0  0  0  0  0  0
  146.9140  155.3790  131.8670 N   0  0  0  0  0  0  0  0  0  0  0  0
  148.0810  155.8890  133.8040 O   0  0  0  0  0  0  0  0  0  0  0  0
  146.9570  158.7090  133.3700 N   0  0  0  0  0  0  0  0  0  0  0  0
  148.3420  159.0750  133.2620 C   0  0  0  0  0  0  0  0  0  0  0  0
  149.0930  158.9680  134.2690 O   0  0  0  0  0  0  0  0  0  0  0  0
  148.8930  159.5830  131.9940 C   0  0  0  0  0  0  0  0  0  0  0  0
  148.4900  160.7160  131.3200 C   0  0  0  0  0  0  0  0  0  0  0  0
  149.2730  160.7690  130.1850 C   0  0  0  0  0  0  0  0  0  0  0  0
  150.0900  159.7410  130.1590 O   0  0  0  0  0  0  0  0  0  0  0  0
  149.8870  159.0060  131.2290 C   0  0  0  0  0  0  0  0  0  0  0  0
  145.9210  159.5490  133.5770 C   0  0  0  0  0  0  0  0  0  0  0  0
  145.9520  160.9370  133.7470 C   0  0  0  0  0  0  0  0  0  0  0  0
  144.7104  163.3593  135.1730 H   0  0  0  0  0  0  0  0  0  0  0  0
  145.6069  163.5323  133.6260 H   0  0  0  0  0  0  0  0  0  0  0  0
  143.8107  163.5142  133.6260 H   0  0  0  0  0  0  0  0  0  0  0  0
  142.5578  161.4207  134.0617 H   0  0  0  0  0  0  0  0  0  0  0  0
  142.5693  158.9260  133.7190 H   0  0  0  0  0  0  0  0  0  0  0  0
  144.3101  156.7018  133.2439 H   0  0  0  0  0  0  0  0  0  0  0  0
  147.4420  154.4860  131.7490 H   0  0  0  0  0  0  0  0  0  0  0  0
  146.2280  155.6500  131.1280 H   0  0  0  0  0  0  0  0  0  0  0  0
  147.7085  161.4282  131.6233 H   0  0  0  0  0  0  0  0  0  0  0  0
  149.2207  161.5547  129.4169 H   0  0  0  0  0  0  0  0  0  0  0  0
  150.4238  158.0782  131.4761 H   0  0  0  0  0  0  0  0  0  0  0  0
  146.9044  161.4870  133.7270 H   0  0  0  0  0  0  0  0  0  0  0  0
  1  2  1  0
  2  3  2  0
  3  4  1  0
  4  5  2  0
  5  6  1  0
  6  7  2  0
  7  8  1  0
  8  9  1  0
  8 10  2  0
  7 11  1  0
 11 12  1  0
 12 13  2  0
 12 14  1  0
 14 15  1  0
 15 16  2  0
 16 17  1  0
 17 18  1  0
 11 19  1  0
 19 20  2  0
 20  2  1  0
 19  5  1  0
 18 14  2  0
  1 21  1  0
  1 22  1  0
  1 23  1  0
  3 24  1  0
  4 25  1  0
  6 26  1  0
  9 27  1  0
  9 28  1  0
 15 29  1  0
 16 30  1  0
 18 31  1  0
 20 32  1  0
M  END
>  <UniqueID>  (16) 
16

>  <SMILES>  (16) 
Cc1ccc2cc(C(N)=O)n(C(=O)c3ccoc3)c2c1

>  <Energy>  (16) 
98.94654576717511

>  <Genealogy>  (16) 
Cc1ccc2cc(C(N)=O)n(C(=O)c3ccoc3)c2c1 (3D coordinates assigned)
Cc1ccc2cc(C(N)=O)n(C(=O)c3ccoc3)c2c1 (optimized conformer: 98.94654576717511 kcal/mol)

>  <smiles>  (16) 
Cc1ccc2cc(C(N)=O)n(C(=O)c3ccoc3)c2c1

>  <score_type>  (16) 
oracle

>  <origin>  (16) 
adg

>  <m_score__min__energy>  (16) 
-7.6799999999999997

>  <m_primary>  (16) 
energy

$$$$
17:0
     RDKit          3D

 35 36  0  0  0  0  0  0  0  0999 V2000
  144.9700  161.5010  134.1010 C   0  0  0  0  0  0  0  0  0  0  0  0
  144.4840  160.1150  133.8020 C   0  0  0  0  0  0  0  0  0  0  0  0
  145.4120  159.0810  133.5260 C   0  0  0  0  0  0  0  0  0  0  0  0
  144.9700  157.7670  133.2920 C   0  0  0  0  0  0  0  0  0  0  0  0
  143.6020  157.5200  133.3440 C   0  0  0  0  0  0  0  0  0  0  0  0
  142.9080  156.3400  133.1930 C   0  0  0  0  0  0  0  0  0  0  0  0
  141.5650  156.6740  133.3760 C   0  0  0  0  0  0  0  0  0  0  0  0
  140.4390  155.7200  133.2550 C   0  0  0  0  0  0  0  0  0  0  0  0
  139.1210  156.1750  132.9400 N   0  0  0  0  0  0  0  0  0  0  0  0
  140.6300  154.4900  133.4470 O   0  0  0  0  0  0  0  0  0  0  0  0
  141.4390  158.0100  133.6200 N   0  0  0  0  0  0  0  0  0  0  0  0
  140.2330  158.7300  133.9210 C   0  0  0  0  0  0  0  0  0  0  0  0
  139.6870  158.5870  135.0470 O   0  0  0  0  0  0  0  0  0  0  0  0
  139.6250  159.6280  132.9280 C   0  0  0  0  0  0  0  0  0  0  0  0
  140.1850  160.7210  132.6390 O   0  0  0  0  0  0  0  0  0  0  0  0
  138.4060  159.2480  132.2800 N   0  0  0  0  0  0  0  0  0  0  0  0
  138.3230  158.8860  130.8690 C   0  0  0  0  0  0  0  0  0  0  0  0
  138.7770  160.0490  129.9900 C   0  0  0  0  0  0  0  0  0  0  0  0
  138.4290  161.2590  130.6010 O   0  0  0  0  0  0  0  0  0  0  0  0
  142.6920  158.5110  133.6050 C   0  0  0  0  0  0  0  0  0  0  0  0
  143.1040  159.8230  133.8640 C   0  0  0  0  0  0  0  0  0  0  0  0
  145.0204  161.6448  135.1904 H   0  0  0  0  0  0  0  0  0  0  0  0
  145.9707  161.6405  133.6660 H   0  0  0  0  0  0  0  0  0  0  0  0
  144.2756  162.2349  133.6660 H   0  0  0  0  0  0  0  0  0  0  0  0
  146.4878  159.3081  133.4945 H   0  0  0  0  0  0  0  0  0  0  0  0
  145.6840  156.9590  133.0745 H   0  0  0  0  0  0  0  0  0  0  0  0
  143.3238  155.3453  132.9745 H   0  0  0  0  0  0  0  0  0  0  0  0
  138.9290  157.1740  132.7080 H   0  0  0  0  0  0  0  0  0  0  0  0
  138.3310  155.4940  132.8940 H   0  0  0  0  0  0  0  0  0  0  0  0
  138.9690  158.0160  130.6801 H   0  0  0  0  0  0  0  0  0  0  0  0
  137.2782  158.6431  130.6253 H   0  0  0  0  0  0  0  0  0  0  0  0
  139.8682  160.0051  129.8586 H   0  0  0  0  0  0  0  0  0  0  0  0
  138.2864  159.9797  129.0079 H   0  0  0  0  0  0  0  0  0  0  0  0
  138.3390  161.0620  131.5700 H   0  0  0  0  0  0  0  0  0  0  0  0
  142.3719  160.6064  134.1095 H   0  0  0  0  0  0  0  0  0  0  0  0
  1  2  1  0
  2  3  2  0
  3  4  1  0
  4  5  2  0
  5  6  1  0
  6  7  2  0
  7  8  1  0
  8  9  1  0
  8 10  2  0
  7 11  1  0
 11 12  1  0
 12 13  2  0
 12 14  1  0
 14 15  2  0
 14 16  1  0
 16 17  1  0
 17 18  1  0
 18 19  1  0
 11 20  1  0
 20 21  2  0
 21  2  1  0
 20  5  1  0
  1 22  1  0
  1 23  1  0
  1 24  1  0
  3 25  1  0
  4 26  1  0
  6 27  1  0
  9 28  1  0
  9 29  1  0
 17 30  1  0
 17 31  1  0
 18 32  1  0
 18 33  1  0
 19 34  1  0
 21 35  1  0
M  CHG  1  16  -1
M  END
>  <UniqueID>  (17) 
17

>  <SMILES>  (17) 
Cc1ccc2cc(C(N)=O)n(C(=O)C(=O)[N-]CCO)c2c1

>  <Energy>  (17) 
68.35873600864196

>  <Genealogy>  (17) 
Cc1ccc2cc(C(N)=O)n(C(=O)C(=O)[N-]CCO)c2c1 (protonated)
Cc1ccc2cc(C(N)=O)n(C(=O)C(=O)[N-]CCO)c2c1 (3D coordinates assigned)
Cc1ccc2cc(C(N)=O)n(C(=O)C(=O)[N-]CCO)c2c1 (optimized conformer: 68.35873600864196 kcal/mol)

>  <smiles>  (17) 
Cc1ccc2cc(C(N)=O)n(C(=O)C(=O)NCCO)c2c1

>  <score_type>  (17) 
oracle

>  <origin>  (17) 
adg

>  <m_score__min__energy>  (17) 
-6.1900000000000004

>  <m_primary>  (17) 
energy

$$$$
19:0
     RDKit          3D

 27 28  0  0  0  0  0  0  0  0999 V2000
  148.2380  161.2350  131.1620 N   0  0  0  0  0  0  0  0  0  0  0  0
  149.1170  160.1530  131.4580 C   0  0  0  0  0  0  0  0  0  0  0  0
  150.3470  160.2730  131.2140 O   0  0  0  0  0  0  0  0  0  0  0  0
  148.6100  158.9120  132.0810 C   0  0  0  0  0  0  0  0  0  0  0  0
  149.2430  157.6750  131.9670 C   0  0  0  0  0  0  0  0  0  0  0  0
  148.5020  156.8130  132.7450 C   0  0  0  0  0  0  0  0  0  0  0  0
  148.6630  155.4520  132.9810 C   0  0  0  0  0  0  0  0  0  0  0  0
  147.7250  154.8100  133.8080 C   0  0  0  0  0  0  0  0  0  0  0  0
  146.6560  155.5380  134.3950 C   0  0  0  0  0  0  0  0  0  0  0  0
  145.6240  154.8270  135.2310 C   0  0  0  0  0  0  0  0  0  0  0  0
  145.2080  153.6860  134.5700 F   0  0  0  0  0  0  0  0  0  0  0  0
  144.5280  155.6440  135.4540 F   0  0  0  0  0  0  0  0  0  0  0  0
  146.1530  154.4690  136.4590 F   0  0  0  0  0  0  0  0  0  0  0  0
  146.5140  156.9160  134.1090 C   0  0  0  0  0  0  0  0  0  0  0  0
  147.4690  157.5270  133.2920 C   0  0  0  0  0  0  0  0  0  0  0  0
  147.5190  158.8140  132.8890 N   0  0  0  0  0  0  0  0  0  0  0  0
  146.5580  159.8300  133.2060 C   0  0  0  0  0  0  0  0  0  0  0  0
  146.9410  160.9150  133.7180 O   0  0  0  0  0  0  0  0  0  0  0  0
  145.0930  159.5670  133.0390 C   0  0  0  0  0  0  0  0  0  0  0  0
  144.1710  160.6430  134.1140 S   0  0  0  0  0  0  0  0  0  0  0  0
  147.7820  161.7810  131.9270 H   0  0  0  0  0  0  0  0  0  0  0  0
  150.1428  157.4378  131.3805 H   0  0  0  0  0  0  0  0  0  0  0  0
  149.4993  154.8946  132.5339 H   0  0  0  0  0  0  0  0  0  0  0  0
  147.8200  153.7315  134.0028 H   0  0  0  0  0  0  0  0  0  0  0  0
  145.6722  157.4927  134.5198 H   0  0  0  0  0  0  0  0  0  0  0  0
  144.8033  159.7559  131.9948 H   0  0  0  0  0  0  0  0  0  0  0  0
  144.8770  158.5194  133.2957 H   0  0  0  0  0  0  0  0  0  0  0  0
  1  2  1  0
  2  3  2  0
  2  4  1  0
  4  5  2  0
  5  6  1  0
  6  7  2  0
  7  8  1  0
  8  9  2  0
  9 10  1  0
 10 11  1  0
 10 12  1  0
 10 13  1  0
  9 14  1  0
 14 15  2  0
 15 16  1  0
 16 17  1  0
 17 18  2  0
 17 19  1  0
 19 20  1  0
 16  4  1  0
 15  6  1  0
  1 21  1  0
  5 22  1  0
  7 23  1  0
  8 24  1  0
 14 25  1  0
 19 26  1  0
 19 27  1  0
M  CHG  2   1  -1  20  -1
M  END
>  <UniqueID>  (18) 
18

>  <SMILES>  (18) 
[NH-]C(=O)c1cc2ccc(C(F)(F)F)cc2n1C(=O)C[S-]

>  <Energy>  (18) 
66.63536381580892

>  <Genealogy>  (18) 
[NH-]C(=O)c1cc2ccc(C(F)(F)F)cc2n1C(=O)C[S-] (protonated)
[NH-]C(=O)c1cc2ccc(C(F)(F)F)cc2n1C(=O)C[S-] (3D coordinates assigned)
[NH-]C(=O)c1cc2ccc(C(F)(F)F)cc2n1C(=O)C[S-] (optimized conformer: 66.63536381580892 kcal/mol)

>  <smiles>  (18) 
NC(=O)c1cc2ccc(C(F)(F)F)cc2n1C(=O)CS

>  <score_type>  (18) 
oracle

>  <origin>  (18) 
adg

>  <m_score__min__energy>  (18) 
-5.2599999999999998

>  <m_primary>  (18) 
energy

$$$$
20:0
     RDKit          3D

 40 41  0  0  0  0  0  0  0  0999 V2000
  140.5040  150.0800  132.5440 C   0  0  0  0  0  0  0  0  0  0  0  0
  141.2130  151.1770  133.2220 N   0  0  0  0  0  0  0  0  0  0  0  0
  142.6620  151.1140  132.9810 C   0  0  0  0  0  0  0  0  0  0  0  0
  140.6290  152.5150  132.9650 C   0  0  0  0  0  0  0  0  0  0  0  0
  141.2860  153.6850  133.7300 C   0  0  0  0  0  0  0  0  0  0  0  0
  141.1540  154.9480  133.0140 N   0  0  0  0  0  0  0  0  0  0  0  0
  140.0420  155.8370  133.1640 C   0  0  0  0  0  0  0  0  0  0  0  0
  138.8960  155.4900  132.7700 O   0  0  0  0  0  0  0  0  0  0  0  0
  140.2420  157.1410  133.7280 N   0  0  0  0  0  0  0  0  0  0  0  0
  139.9990  158.3470  133.1420 C   0  0  0  0  0  0  0  0  0  0  0  0
  139.6300  158.5500  131.7240 C   0  0  0  0  0  0  0  0  0  0  0  0
  138.5230  157.8530  131.1490 N   0  0  0  0  0  0  0  0  0  0  0  0
  140.2760  159.3660  131.0140 O   0  0  0  0  0  0  0  0  0  0  0  0
  140.2300  159.3820  134.0470 C   0  0  0  0  0  0  0  0  0  0  0  0
  140.6210  158.7670  135.2150 C   0  0  0  0  0  0  0  0  0  0  0  0
  140.9670  159.3170  136.4440 C   0  0  0  0  0  0  0  0  0  0  0  0
  141.3060  158.4400  137.4860 C   0  0  0  0  0  0  0  0  0  0  0  0
  141.2650  157.0330  137.2940 C   0  0  0  0  0  0  0  0  0  0  0  0
  141.6660  156.1020  138.4100 C   0  0  0  0  0  0  0  0  0  0  0  0
  142.4890  155.0960  137.9370 F   0  0  0  0  0  0  0  0  0  0  0  0
  142.3470  156.7890  139.4000 F   0  0  0  0  0  0  0  0  0  0  0  0
  140.5300  155.5330  138.9570 F   0  0  0  0  0  0  0  0  0  0  0  0
  140.9310  156.5150  136.0220 C   0  0  0  0  0  0  0  0  0  0  0  0
  140.6180  157.4140  134.9960 C   0  0  0  0  0  0  0  0  0  0  0  0
  140.0680  149.4054  133.2956 H   0  0  0  0  0  0  0  0  0  0  0  0
  139.7027  150.4948  131.9148 H   0  0  0  0  0  0  0  0  0  0  0  0
  141.2113  149.5198  131.9148 H   0  0  0  0  0  0  0  0  0  0  0  0
  143.1932  151.0909  133.9440 H   0  0  0  0  0  0  0  0  0  0  0  0
  142.8994  150.2047  132.4094 H   0  0  0  0  0  0  0  0  0  0  0  0
  142.9775  151.9993  132.4094 H   0  0  0  0  0  0  0  0  0  0  0  0
  140.7170  152.7221  131.8883 H   0  0  0  0  0  0  0  0  0  0  0  0
  139.5902  152.4652  133.3233 H   0  0  0  0  0  0  0  0  0  0  0  0
  140.8029  153.7821  134.7135 H   0  0  0  0  0  0  0  0  0  0  0  0
  142.3585  153.4636  133.8337 H   0  0  0  0  0  0  0  0  0  0  0  0
  137.9990  157.1280  131.6860 H   0  0  0  0  0  0  0  0  0  0  0  0
  138.2480  158.0350  130.1580 H   0  0  0  0  0  0  0  0  0  0  0  0
  140.1226  160.4617  133.8661 H   0  0  0  0  0  0  0  0  0  0  0  0
  140.9748  160.4065  136.5952 H   0  0  0  0  0  0  0  0  0  0  0  0
  141.6069  158.8468  138.4627 H   0  0  0  0  0  0  0  0  0  0  0  0
  140.9174  155.4298  135.8425 H   0  0  0  0  0  0  0  0  0  0  0  0
  1  2  1  0
  2  3  1  0
  2  4  1  0
  4  5  1  0
  5  6  1  0
  6  7  1  0
  7  8  2  0
  7  9  1  0
  9 10  1  0
 10 11  1  0
 11 12  1  0
 11 13  2  0
 10 14  2  0
 14 15  1  0
 15 16  2  0
 16 17  1  0
 17 18  2  0
 18 19  1  0
 19 20  1  0
 19 21  1  0
 19 22  1  0
 18 23  1  0
 23 24  2  0
 24  9  1  0
 24 15  1  0
  1 25  1  0
  1 26  1  0
  1 27  1  0
  3 28  1  0
  3 29  1  0
  3 30  1  0
  4 31  1  0
  4 32  1  0
  5 33  1  0
  5 34  1  0
 12 35  1  0
 12 36  1  0
 14 37  1  0
 16 38  1  0
 17 39  1  0
 23 40  1  0
M  CHG  1   6  -1
M  END
>  <UniqueID>  (19) 
19

>  <SMILES>  (19) 
CN(C)CC[N-]C(=O)n1c(C(N)=O)cc2ccc(C(F)(F)F)cc21

>  <Energy>  (19) 
79.88876530990855

>  <Genealogy>  (19) 
CN(C)CC[N-]C(=O)n1c(C(N)=O)cc2ccc(C(F)(F)F)cc21 (protonated)
CN(C)CC[N-]C(=O)n1c(C(N)=O)cc2ccc(C(F)(F)F)cc21 (3D coordinates assigned)
CN(C)CC[N-]C(=O)n1c(C(N)=O)cc2ccc(C(F)(F)F)cc21 (optimized conformer: 79.88876530990855 kcal/mol)

>  <smiles>  (19) 
CN(C)CCNC(=O)n1c(C(N)=O)cc2ccc(C(F)(F)F)cc21

>  <score_type>  (19) 
oracle

>  <origin>  (19) 
adg

>  <m_score__min__energy>  (19) 
-6.6500000000000004

>  <m_primary>  (19) 
energy

$$$$
21:0
     RDKit          3D

 40 41  0  0  0  0  0  0  0  0999 V2000
  140.9620  156.2550  135.0210 C   0  0  0  0  0  0  0  0  0  0  0  0
  140.4750  157.6230  134.8100 N   0  0  0  0  0  0  0  0  0  0  0  0
  139.5330  158.2170  135.7660 C   0  0  0  0  0  0  0  0  0  0  0  0
  140.9210  158.4180  133.6880 C   0  0  0  0  0  0  0  0  0  0  0  0
  140.6120  159.6400  133.6310 O   0  0  0  0  0  0  0  0  0  0  0  0
  141.7380  157.8410  132.5560 C   0  0  0  0  0  0  0  0  0  0  0  0
  143.1570  157.4560  133.0040 C   0  0  0  0  0  0  0  0  0  0  0  0
  143.7610  158.4160  133.9960 C   0  0  0  0  0  0  0  0  0  0  0  0
  143.2230  158.5860  135.1230 O   0  0  0  0  0  0  0  0  0  0  0  0
  145.0460  159.0020  133.7380 N   0  0  0  0  0  0  0  0  0  0  0  0
  145.3570  160.3190  133.5830 C   0  0  0  0  0  0  0  0  0  0  0  0
  144.4450  161.4560  133.8130 C   0  0  0  0  0  0  0  0  0  0  0  0
  143.0330  161.2870  133.7330 N   0  0  0  0  0  0  0  0  0  0  0  0
  144.9150  162.5830  134.1230 O   0  0  0  0  0  0  0  0  0  0  0  0
  146.7010  160.4650  133.2440 C   0  0  0  0  0  0  0  0  0  0  0  0
  147.2080  159.1850  133.2030 C   0  0  0  0  0  0  0  0  0  0  0  0
  148.4950  158.7380  132.9220 C   0  0  0  0  0  0  0  0  0  0  0  0
  148.7290  157.3510  132.9410 C   0  0  0  0  0  0  0  0  0  0  0  0
  147.6760  156.4400  133.2150 C   0  0  0  0  0  0  0  0  0  0  0  0
  147.9490  154.9590  133.2740 C   0  0  0  0  0  0  0  0  0  0  0  0
  146.9330  154.2490  132.6610 F   0  0  0  0  0  0  0  0  0  0  0  0
  148.0400  154.5650  134.5970 F   0  0  0  0  0  0  0  0  0  0  0  0
  149.1370  154.6570  132.6310 F   0  0  0  0  0  0  0  0  0  0  0  0
  146.3870  156.9380  133.5200 C   0  0  0  0  0  0  0  0  0  0  0  0
  146.1890  158.3220  133.5050 C   0  0  0  0  0  0  0  0  0  0  0  0
  141.0337  156.0537  136.1000 H   0  0  0  0  0  0  0  0  0  0  0  0
  140.2626  155.5417  134.5606 H   0  0  0  0  0  0  0  0  0  0  0  0
  141.9548  156.1441  134.5606 H   0  0  0  0  0  0  0  0  0  0  0  0
  139.8691  158.0051  136.7917 H   0  0  0  0  0  0  0  0  0  0  0  0
  139.4910  159.3053  135.6114 H   0  0  0  0  0  0  0  0  0  0  0  0
  138.5329  157.7858  135.6114 H   0  0  0  0  0  0  0  0  0  0  0  0
  141.2306  156.9426  132.1745 H   0  0  0  0  0  0  0  0  0  0  0  0
  141.8267  158.6113  131.7757 H   0  0  0  0  0  0  0  0  0  0  0  0
  143.1165  156.4587  133.4664 H   0  0  0  0  0  0  0  0  0  0  0  0
  143.7939  157.4776  132.1074 H   0  0  0  0  0  0  0  0  0  0  0  0
  142.5740  160.4210  134.0920 H   0  0  0  0  0  0  0  0  0  0  0  0
  147.2419  161.4031  133.0504 H   0  0  0  0  0  0  0  0  0  0  0  0
  149.3042  159.4468  132.6922 H   0  0  0  0  0  0  0  0  0  0  0  0
  149.7406  156.9679  132.7410 H   0  0  0  0  0  0  0  0  0  0  0  0
  145.5612  156.2532  133.7629 H   0  0  0  0  0  0  0  0  0  0  0  0
  1  2  1  0
  2  3  1  0
  2  4  1  0
  4  5  2  0
  4  6  1  0
  6  7  1  0
  7  8  1  0
  8  9  2  0
  8 10  1  0
 10 11  1  0
 11 12  1  0
 12 13  1  0
 12 14  2  0
 11 15  2  0
 15 16  1  0
 16 17  2  0
 17 18  1  0
 18 19  2  0
 19 20  1  0
 20 21  1  0
 20 22  1  0
 20 23  1  0
 19 24  1  0
 24 25  2  0
 25 10  1  0
 25 16  1  0
  1 26  1  0
  1 27  1  0
  1 28  1  0
  3 29  1  0
  3 30  1  0
  3 31  1  0
  6 32  1  0
  6 33  1  0
  7 34  1  0
  7 35  1  0
 13 36  1  0
 15 37  1  0
 17 38  1  0
 18 39  1  0
 24 40  1  0
M  CHG  1  13  -1
M  END
>  <UniqueID>  (20) 
20

>  <SMILES>  (20) 
CN(C)C(=O)CCC(=O)n1c(C([NH-])=O)cc2ccc(C(F)(F)F)cc21

>  <Energy>  (20) 
77.32592557596425

>  <Genealogy>  (20) 
CN(C)C(=O)CCC(=O)n1c(C([NH-])=O)cc2ccc(C(F)(F)F)cc21 (protonated)
CN(C)C(=O)CCC(=O)n1c(C([NH-])=O)cc2ccc(C(F)(F)F)cc21 (3D coordinates assigned)
CN(C)C(=O)CCC(=O)n1c(C([NH-])=O)cc2ccc(C(F)(F)F)cc21 (optimized conformer: 77.32592557596425 kcal/mol)

>  <smiles>  (20) 
CN(C)C(=O)CCC(=O)n1c(C(N)=O)cc2ccc(C(F)(F)F)cc21

>  <score_type>  (20) 
oracle

>  <origin>  (20) 
adg

>  <m_score__min__energy>  (20) 
-6.4400000000000004

>  <m_primary>  (20) 
energy

$$$$
22:0
     RDKit          3D

 39 40  0  0  0  0  0  0  0  0999 V2000
  142.9000  160.8750  133.3820 N   0  0  0  0  0  0  0  0  0  0  0  0
  144.2820  160.9280  133.7280 C   0  0  0  0  0  0  0  0  0  0  0  0
  144.7780  162.0200  134.1130 O   0  0  0  0  0  0  0  0  0  0  0  0
  145.1450  159.7310  133.6170 C   0  0  0  0  0  0  0  0  0  0  0  0
  146.5350  159.7870  133.5350 C   0  0  0  0  0  0  0  0  0  0  0  0
  146.9480  158.4820  133.3930 C   0  0  0  0  0  0  0  0  0  0  0  0
  148.2280  157.9530  133.2700 C   0  0  0  0  0  0  0  0  0  0  0  0
  148.3560  156.5580  133.1500 C   0  0  0  0  0  0  0  0  0  0  0  0
  147.2100  155.7240  133.1610 C   0  0  0  0  0  0  0  0  0  0  0  0
  147.3560  154.2310  133.0090 C   0  0  0  0  0  0  0  0  0  0  0  0
  146.0850  153.4610  133.4050 C   0  0  0  0  0  0  0  0  0  0  0  0
  145.2130  153.0460  132.2050 C   0  0  0  0  0  0  0  0  0  0  0  0
  144.3430  154.1690  131.7130 C   0  0  0  0  0  0  0  0  0  0  0  0
  143.4600  154.8500  132.6020 N   0  0  0  0  0  0  0  0  0  0  0  0
  144.4050  154.5250  130.5050 O   0  0  0  0  0  0  0  0  0  0  0  0
  145.9270  156.2970  133.3080 C   0  0  0  0  0  0  0  0  0  0  0  0
  145.8300  157.6890  133.3970 C   0  0  0  0  0  0  0  0  0  0  0  0
  144.7170  158.4410  133.5280 N   0  0  0  0  0  0  0  0  0  0  0  0
  143.3700  157.9530  133.5960 C   0  0  0  0  0  0  0  0  0  0  0  0
  142.6930  157.8330  132.5400 O   0  0  0  0  0  0  0  0  0  0  0  0
  142.7760  157.5380  134.9090 C   0  0  0  0  0  0  0  0  0  0  0  0
  142.4750  156.0750  134.8900 C   0  0  0  0  0  0  0  0  0  0  0  0
  143.1210  155.2870  135.6310 O   0  0  0  0  0  0  0  0  0  0  0  0
  141.5160  155.5720  134.0200 O   0  0  0  0  0  0  0  0  0  0  0  0
  142.5230  160.1020  132.7920 H   0  0  0  0  0  0  0  0  0  0  0  0
  147.1687  160.6852  133.5753 H   0  0  0  0  0  0  0  0  0  0  0  0
  149.1133  158.6059  133.2667 H   0  0  0  0  0  0  0  0  0  0  0  0
  149.3551  156.1095  133.0466 H   0  0  0  0  0  0  0  0  0  0  0  0
  147.5889  154.0065  131.9576 H   0  0  0  0  0  0  0  0  0  0  0  0
  148.1613  153.9080  133.6852 H   0  0  0  0  0  0  0  0  0  0  0  0
  146.3845  152.5521  133.9474 H   0  0  0  0  0  0  0  0  0  0  0  0
  145.4785  154.1386  134.0239 H   0  0  0  0  0  0  0  0  0  0  0  0
  145.8712  152.7237  131.3847 H   0  0  0  0  0  0  0  0  0  0  0  0
  144.5529  152.2308  132.5362 H   0  0  0  0  0  0  0  0  0  0  0  0
  143.4030  154.5830  133.6100 H   0  0  0  0  0  0  0  0  0  0  0  0
  142.8460  155.6170  132.2490 H   0  0  0  0  0  0  0  0  0  0  0  0
  145.0280  155.6646  133.3513 H   0  0  0  0  0  0  0  0  0  0  0  0
  143.4907  157.7530  135.7171 H   0  0  0  0  0  0  0  0  0  0  0  0
  141.8443  158.0977  135.0785 H   0  0  0  0  0  0  0  0  0  0  0  0
  1  2  1  0
  2  3  2  0
  2  4  1  0
  4  5  2  0
  5  6  1  0
  6  7  2  0
  7  8  1  0
  8  9  2  0
  9 10  1  0
 10 11  1  0
 11 12  1  0
 12 13  1  0
 13 14  1  0
 13 15  2  0
  9 16  1  0
 16 17  2  0
 17 18  1  0
 18 19  1  0
 19 20  2  0
 19 21  1  0
 21 22  1  0
 22 23  2  0
 22 24  1  0
 18  4  1  0
 17  6  1  0
  1 25  1  0
  5 26  1  0
  7 27  1  0
  8 28  1  0
 10 29  1  0
 10 30  1  0
 11 31  1  0
 11 32  1  0
 12 33  1  0
 12 34  1  0
 14 35  1  0
 14 36  1  0
 16 37  1  0
 21 38  1  0
 21 39  1  0
M  CHG  2   1  -1  24  -1
M  END
>  <UniqueID>  (21) 
21

>  <SMILES>  (21) 
[NH-]C(=O)c1cc2ccc(CCCC(N)=O)cc2n1C(=O)CC(=O)[O-]

>  <Energy>  (21) 
70.18346505025116

>  <Genealogy>  (21) 
[NH-]C(=O)c1cc2ccc(CCCC(N)=O)cc2n1C(=O)CC(=O)[O-] (protonated)
[NH-]C(=O)c1cc2ccc(CCCC(N)=O)cc2n1C(=O)CC(=O)[O-] (3D coordinates assigned)
[NH-]C(=O)c1cc2ccc(CCCC(N)=O)cc2n1C(=O)CC(=O)[O-] (optimized conformer: 70.18346505025116 kcal/mol)

>  <smiles>  (21) 
NC(=O)CCCc1ccc2cc(C(N)=O)n(C(=O)CC(=O)O)c2c1

>  <score_type>  (21) 
oracle

>  <origin>  (21) 
adg

>  <m_score__min__energy>  (21) 
-7.4199999999999999

>  <m_primary>  (21) 
energy

$$$$
23:0
     RDKit          3D

 52 54  0  0  0  0  0  0  0  0999 V2000
  148.9960  160.0980  131.6330 C   0  0  0  0  0  0  0  0  0  0  0  0
  148.8080  159.1060  132.5060 C   0  0  0  0  0  0  0  0  0  0  0  0
  149.3140  157.7210  132.2370 C   0  0  0  0  0  0  0  0  0  0  0  0
  148.6010  156.7800  133.0320 O   0  0  0  0  0  0  0  0  0  0  0  0
  148.7360  155.3980  132.8600 C   0  0  0  0  0  0  0  0  0  0  0  0
  149.8630  154.8940  132.5990 O   0  0  0  0  0  0  0  0  0  0  0  0
  147.5850  154.5520  132.9730 N   0  0  0  0  0  0  0  0  0  0  0  0
  147.5350  153.1930  132.8780 C   0  0  0  0  0  0  0  0  0  0  0  0
  148.6960  152.2850  132.7690 C   0  0  0  0  0  0  0  0  0  0  0  0
  149.5830  152.3560  131.6560 N   0  0  0  0  0  0  0  0  0  0  0  0
  148.9310  151.4600  133.6920 O   0  0  0  0  0  0  0  0  0  0  0  0
  146.2170  152.7480  132.9740 C   0  0  0  0  0  0  0  0  0  0  0  0
  145.4580  153.8860  133.1340 C   0  0  0  0  0  0  0  0  0  0  0  0
  144.0820  154.0320  133.2590 C   0  0  0  0  0  0  0  0  0  0  0  0
  143.5670  155.3340  133.3740 C   0  0  0  0  0  0  0  0  0  0  0  0
  144.4240  156.4650  133.3590 C   0  0  0  0  0  0  0  0  0  0  0  0
  143.8280  157.7780  133.4550 N   0  0  0  0  0  0  0  0  0  0  0  0
  144.5250  159.0420  133.7280 C   0  0  1  0  0  0  0  0  0  0  0  0
  145.5400  159.3600  132.6220 C   0  0  0  0  0  0  0  0  0  0  0  0
  143.5510  160.1570  133.9980 C   0  0  0  0  0  0  0  0  0  0  0  0
  143.9580  161.3520  133.9760 O   0  0  0  0  0  0  0  0  0  0  0  0
  142.1990  159.8790  134.2210 O   0  0  0  0  0  0  0  0  0  0  0  0
  141.1900  160.1330  133.2490 C   0  0  0  0  0  0  0  0  0  0  0  0
  140.4610  158.8670  132.9360 C   0  0  0  0  0  0  0  0  0  0  0  0
  140.6700  157.7190  133.5380 O   0  0  0  0  0  0  0  0  0  0  0  0
  139.8360  156.8670  132.9850 C   0  0  0  0  0  0  0  0  0  0  0  0
  139.7620  155.6530  133.3110 O   0  0  0  0  0  0  0  0  0  0  0  0
  139.0930  157.4190  132.0520 O   0  0  0  0  0  0  0  0  0  0  0  0
  139.4570  158.6780  132.0030 C   0  0  0  0  0  0  0  0  0  0  0  0
  138.8860  159.6900  131.0650 C   0  0  0  0  0  0  0  0  0  0  0  0
  145.8230  156.2710  133.2240 C   0  0  0  0  0  0  0  0  0  0  0  0
  146.3080  154.9600  133.1310 C   0  0  0  0  0  0  0  0  0  0  0  0
  148.6144  161.1056  131.8548 H   0  0  0  0  0  0  0  0  0  0  0  0
  149.5325  159.9080  130.6917 H   0  0  0  0  0  0  0  0  0  0  0  0
  148.2698  159.3094  133.4436 H   0  0  0  0  0  0  0  0  0  0  0  0
  149.1715  157.4812  131.1730 H   0  0  0  0  0  0  0  0  0  0  0  0
  150.3833  157.6714  132.4903 H   0  0  0  0  0  0  0  0  0  0  0  0
  150.3850  153.0260  131.6500 H   0  0  0  0  0  0  0  0  0  0  0  0
  145.8594  151.7086  132.9310 H   0  0  0  0  0  0  0  0  0  0  0  0
  143.4169  153.1559  133.2677 H   0  0  0  0  0  0  0  0  0  0  0  0
  142.4815  155.4792  133.4774 H   0  0  0  0  0  0  0  0  0  0  0  0
  142.7900  157.8430  133.3500 H   0  0  0  0  0  0  0  0  0  0  0  0
  145.1102  158.9305  134.6527 H   0  0  0  0  0  0  0  0  0  0  0  0
  146.4958  159.6595  133.0766 H   0  0  0  0  0  0  0  0  0  0  0  0
  145.6944  158.4672  131.9983 H   0  0  0  0  0  0  0  0  0  0  0  0
  145.1574  160.1813  131.9983 H   0  0  0  0  0  0  0  0  0  0  0  0
  140.4806  160.8752  133.6439 H   0  0  0  0  0  0  0  0  0  0  0  0
  141.6576  160.5200  132.3316 H   0  0  0  0  0  0  0  0  0  0  0  0
  138.4257  160.5058  131.6417 H   0  0  0  0  0  0  0  0  0  0  0  0
  139.6881  160.0962  130.4312 H   0  0  0  0  0  0  0  0  0  0  0  0
  138.1236  159.2135  130.4312 H   0  0  0  0  0  0  0  0  0  0  0  0
  146.5103  157.1293  133.1931 H   0  0  0  0  0  0  0  0  0  0  0  0
  1  2  2  0
  2  3  1  0
  3  4  1  0
  4  5  1  0
  5  6  2  0
  5  7  1  0
  7  8  1  0
  8  9  1  0
  9 10  1  0
  9 11  2  0
  8 12  2  0
 12 13  1  0
 13 14  2  0
 14 15  1  0
 15 16  2  0
 16 17  1  0
 17 18  1  0
 18 19  1  0
 18 20  1  0
 20 21  2  0
 20 22  1  0
 22 23  1  0
 23 24  1  0
 24 25  1  0
 25 26  1  0
 26 27  2  0
 26 28  1  0
 28 29  1  0
 29 30  1  0
 16 31  1  0
 31 32  2  0
 32  7  1  0
 32 13  1  0
 29 24  2  0
  1 33  1  0
  1 34  1  0
  2 35  1  0
  3 36  1  0
  3 37  1  0
 10 38  1  0
 12 39  1  0
 14 40  1  0
 15 41  1  0
 17 42  1  0
 18 43  1  1
 19 44  1  0
 19 45  1  0
 19 46  1  0
 23 47  1  0
 23 48  1  0
 30 49  1  0
 30 50  1  0
 30 51  1  0
 31 52  1  0
M  CHG  1  10  -1
M  END
>  <UniqueID>  (22) 
22

>  <SMILES>  (22) 
C=CCOC(=O)n1c(C([NH-])=O)cc2ccc(N[C@@H](C)C(=O)OCc3oc(=O)oc3C)cc21

>  <Energy>  (22) 
112.39882502338622

>  <Genealogy>  (22) 
C=CCOC(=O)n1c(C([NH-])=O)cc2ccc(NC(C)C(=O)OCc3oc(=O)oc3C)cc21 (protonated)
C=CCOC(=O)n1c(C([NH-])=O)cc2ccc(N[C@@H](C)C(=O)OCc3oc(=O)oc3C)cc21 (chirality)
C=CCOC(=O)n1c(C([NH-])=O)cc2ccc(N[C@@H](C)C(=O)OCc3oc(=O)oc3C)cc21 (3D coordinates assigned)
C=CCOC(=O)n1c(C([NH-])=O)cc2ccc(N[C@@H](C)C(=O)OCc3oc(=O)oc3C)cc21 (optimized conformer: 112.39882502338622 kcal/mol)

>  <smiles>  (22) 
C=CCOC(=O)n1c(C(N)=O)cc2ccc(NC(C)C(=O)OCc3oc(=O)oc3C)cc21

>  <score_type>  (22) 
oracle

>  <origin>  (22) 
adg

>  <m_score__min__energy>  (22) 
-8.2100000000000009

>  <m_primary>  (22) 
energy

$$$$
24:0
     RDKit          3D

 35 37  0  0  0  0  0  0  0  0999 V2000
  147.7170  152.8400  133.0120 N   0  0  0  0  0  0  0  0  0  0  0  0
  148.4440  154.0630  132.9450 C   0  0  0  0  0  0  0  0  0  0  0  0
  149.6810  154.0320  132.7100 O   0  0  0  0  0  0  0  0  0  0  0  0
  147.7600  155.3650  133.0920 C   0  0  0  0  0  0  0  0  0  0  0  0
  148.2780  156.5620  132.6020 C   0  0  0  0  0  0  0  0  0  0  0  0
  147.3130  157.5090  132.8570 C   0  0  0  0  0  0  0  0  0  0  0  0
  147.3000  158.8710  132.5790 C   0  0  0  0  0  0  0  0  0  0  0  0
  146.1770  159.6150  132.9760 C   0  0  0  0  0  0  0  0  0  0  0  0
  145.1010  158.9950  133.6630 C   0  0  0  0  0  0  0  0  0  0  0  0
  143.8840  159.7960  134.0510 C   0  0  0  0  0  0  0  0  0  0  0  0
  144.2440  161.0780  134.4300 F   0  0  0  0  0  0  0  0  0  0  0  0
  143.0010  159.8900  132.9890 F   0  0  0  0  0  0  0  0  0  0  0  0
  143.2500  159.1740  135.1110 F   0  0  0  0  0  0  0  0  0  0  0  0
  145.1420  157.6020  133.9050 C   0  0  0  0  0  0  0  0  0  0  0  0
  146.2660  156.8830  133.4820 C   0  0  0  0  0  0  0  0  0  0  0  0
  146.5260  155.5660  133.6350 N   0  0  0  0  0  0  0  0  0  0  0  0
  145.6930  154.6140  134.3160 C   0  0  0  0  0  0  0  0  0  0  0  0
  146.1510  153.9590  135.2910 O   0  0  0  0  0  0  0  0  0  0  0  0
  144.3660  154.4450  133.9130 O   0  0  0  0  0  0  0  0  0  0  0  0
  143.9800  153.5240  132.8960 C   0  0  0  0  0  0  0  0  0  0  0  0
  144.7330  153.7480  131.5940 C   0  0  0  0  0  0  0  0  0  0  0  0
  145.4710  152.4900  131.7260 N   0  0  0  0  0  0  0  0  0  0  0  0
  144.7670  152.2300  132.9820 C   0  0  0  0  0  0  0  0  0  0  0  0
  147.0140  152.6730  133.7670 H   0  0  0  0  0  0  0  0  0  0  0  0
  149.2519  156.7170  132.1147 H   0  0  0  0  0  0  0  0  0  0  0  0
  148.1444  159.3518  132.0633 H   0  0  0  0  0  0  0  0  0  0  0  0
  146.1308  160.6909  132.7519 H   0  0  0  0  0  0  0  0  0  0  0  0
  144.3092  157.0950  134.4143 H   0  0  0  0  0  0  0  0  0  0  0  0
  142.8836  153.5748  132.9694 H   0  0  0  0  0  0  0  0  0  0  0  0
  144.0796  153.7826  130.7097 H   0  0  0  0  0  0  0  0  0  0  0  0
  145.2948  154.6838  131.4572 H   0  0  0  0  0  0  0  0  0  0  0  0
  145.2200  151.8020  130.9780 H   0  0  0  0  0  0  0  0  0  0  0  0
  146.4970  152.6440  131.8700 H   0  0  0  0  0  0  0  0  0  0  0  0
  144.1349  151.3302  132.9515 H   0  0  0  0  0  0  0  0  0  0  0  0
  145.3556  152.0254  133.8885 H   0  0  0  0  0  0  0  0  0  0  0  0
  1  2  1  0
  2  3  2  0
  2  4  1  0
  4  5  2  0
  5  6  1  0
  6  7  2  0
  7  8  1  0
  8  9  2  0
  9 10  1  0
 10 11  1  0
 10 12  1  0
 10 13  1  0
  9 14  1  0
 14 15  2  0
 15 16  1  0
 16 17  1  0
 17 18  2  0
 17 19  1  0
 19 20  1  0
 20 21  1  0
 21 22  1  0
 22 23  1  0
 16  4  1  0
 23 20  1  0
 15  6  1  0
  1 24  1  0
  5 25  1  0
  7 26  1  0
  8 27  1  0
 14 28  1  0
 20 29  1  0
 21 30  1  0
 21 31  1  0
 22 32  1  0
 22 33  1  0
 23 34  1  0
 23 35  1  0
M  CHG  2   1  -1  22   1
M  END
>  <UniqueID>  (23) 
23

>  <SMILES>  (23) 
[NH-]C(=O)c1cc2ccc(C(F)(F)F)cc2n1C(=O)OC1C[NH2+]C1

>  <Energy>  (23) 
143.29919699340374

>  <Genealogy>  (23) 
[NH-]C(=O)c1cc2ccc(C(F)(F)F)cc2n1C(=O)OC1C[NH2+]C1 (protonated)
[NH-]C(=O)c1cc2ccc(C(F)(F)F)cc2n1C(=O)OC1C[NH2+]C1 (3D coordinates assigned)
[NH-]C(=O)c1cc2ccc(C(F)(F)F)cc2n1C(=O)OC1C[NH2+]C1 (nonaromatic ring conformer: 143.29919699340374 kcal/mol)

>  <smiles>  (23) 
NC(=O)c1cc2ccc(C(F)(F)F)cc2n1C(=O)OC1CNC1

>  <score_type>  (23) 
oracle

>  <origin>  (23) 
adg

>  <m_score__min__energy>  (23) 
-5.1500000000000004

>  <m_primary>  (23) 
energy

$$$$
25:0
     RDKit          3D

 33 34  0  0  0  0  0  0  0  0999 V2000
  142.0240  152.6410  132.6160 C   0  0  0  0  0  0  0  0  0  0  0  0
  141.2430  153.2320  133.7870 C   0  0  2  0  0  0  0  0  0  0  0  0
  141.4110  154.6820  133.7960 N   0  0  0  0  0  0  0  0  0  0  0  0
  140.3210  155.6060  133.7330 C   0  0  0  0  0  0  0  0  0  0  0  0
  139.2680  155.3010  133.1090 O   0  0  0  0  0  0  0  0  0  0  0  0
  140.4330  156.8900  134.3660 N   0  0  0  0  0  0  0  0  0  0  0  0
  140.3250  158.1210  133.7880 C   0  0  0  0  0  0  0  0  0  0  0  0
  139.9400  158.3900  132.3870 C   0  0  0  0  0  0  0  0  0  0  0  0
  138.7230  157.8550  131.8720 N   0  0  0  0  0  0  0  0  0  0  0  0
  140.6880  159.0600  131.6290 O   0  0  0  0  0  0  0  0  0  0  0  0
  140.5550  159.1230  134.7280 C   0  0  0  0  0  0  0  0  0  0  0  0
  140.8020  158.4650  135.9110 C   0  0  0  0  0  0  0  0  0  0  0  0
  141.1120  158.9710  137.1700 C   0  0  0  0  0  0  0  0  0  0  0  0
  141.3520  158.0560  138.2070 C   0  0  0  0  0  0  0  0  0  0  0  0
  141.2690  156.6590  137.9780 C   0  0  0  0  0  0  0  0  0  0  0  0
  141.5900  155.6860  139.0840 C   0  0  0  0  0  0  0  0  0  0  0  0
  142.3920  154.6770  138.5840 F   0  0  0  0  0  0  0  0  0  0  0  0
  140.4320  155.1310  139.5980 F   0  0  0  0  0  0  0  0  0  0  0  0
  142.2590  156.3240  140.1150 F   0  0  0  0  0  0  0  0  0  0  0  0
  140.9750  156.1840  136.6780 C   0  0  0  0  0  0  0  0  0  0  0  0
  140.7220  157.1180  135.6670 C   0  0  0  0  0  0  0  0  0  0  0  0
  141.7310  152.6470  135.0810 C   0  0  0  0  0  0  0  0  0  0  0  0
  142.6370  153.2280  135.7340 O   0  0  0  0  0  0  0  0  0  0  0  0
  141.1630  151.4820  135.5810 O   0  0  0  0  0  0  0  0  0  0  0  0
  142.8460  152.0190  133.0001 H   0  0  0  0  0  0  0  0  0  0  0  0
  141.3525  152.0229  132.0021 H   0  0  0  0  0  0  0  0  0  0  0  0
  142.4364  153.4553  132.0021 H   0  0  0  0  0  0  0  0  0  0  0  0
  140.1761  152.9891  133.6740 H   0  0  0  0  0  0  0  0  0  0  0  0
  138.2630  157.0340  132.3230 H   0  0  0  0  0  0  0  0  0  0  0  0
  140.5419  160.2100  134.5601 H   0  0  0  0  0  0  0  0  0  0  0  0
  141.1672  160.0553  137.3470 H   0  0  0  0  0  0  0  0  0  0  0  0
  141.6078  158.4274  139.2103 H   0  0  0  0  0  0  0  0  0  0  0  0
  140.9460  155.1049  136.4668 H   0  0  0  0  0  0  0  0  0  0  0  0
  1  2  1  0
  2  3  1  0
  3  4  1  0
  4  5  2  0
  4  6  1  0
  6  7  1  0
  7  8  1  0
  8  9  1  0
  8 10  2  0
  7 11  2  0
 11 12  1  0
 12 13  2  0
 13 14  1  0
 14 15  2  0
 15 16  1  0
 16 17  1  0
 16 18  1  0
 16 19  1  0
 15 20  1  0
 20 21  2  0
  2 22  1  0
 22 23  2  0
 22 24  1  0
 21  6  1  0
 21 12  1  0
  1 25  1  0
  1 26  1  0
  1 27  1  0
  2 28  1  6
  9 29  1  0
 11 30  1  0
 13 31  1  0
 14 32  1  0
 20 33  1  0
M  CHG  3   3  -1   9  -1  24  -1
M  END
>  <UniqueID>  (24) 
24

>  <SMILES>  (24) 
C[C@H]([N-]C(=O)n1c(C([NH-])=O)cc2ccc(C(F)(F)F)cc21)C(=O)[O-]

>  <Energy>  (24) 
67.87276345260233

>  <Genealogy>  (24) 
CC([N-]C(=O)n1c(C([NH-])=O)cc2ccc(C(F)(F)F)cc21)C(=O)[O-] (protonated)
C[C@H]([N-]C(=O)n1c(C([NH-])=O)cc2ccc(C(F)(F)F)cc21)C(=O)[O-] (chirality)
C[C@H]([N-]C(=O)n1c(C([NH-])=O)cc2ccc(C(F)(F)F)cc21)C(=O)[O-] (3D coordinates assigned)
C[C@H]([N-]C(=O)n1c(C([NH-])=O)cc2ccc(C(F)(F)F)cc21)C(=O)[O-] (optimized conformer: 67.87276345260233 kcal/mol)

>  <smiles>  (24) 
CC(NC(=O)n1c(C(N)=O)cc2ccc(C(F)(F)F)cc21)C(=O)O

>  <score_type>  (24) 
oracle

>  <origin>  (24) 
adg

>  <m_score__min__energy>  (24) 
-6.5199999999999996

>  <m_primary>  (24) 
energy

$$$$
26:0
     RDKit          3D

 39 40  0  0  0  0  0  0  0  0999 V2000
  147.7430  154.4310  135.8010 C   0  0  0  0  0  0  0  0  0  0  0  0
  146.9480  154.4390  134.5710 N   0  0  0  0  0  0  0  0  0  0  0  0
  147.2010  153.4310  133.5310 C   0  0  0  0  0  0  0  0  0  0  0  0
  148.6480  153.5040  133.0450 C   0  0  0  0  0  0  0  0  0  0  0  0
  148.8090  154.5980  132.1860 O   0  0  0  0  0  0  0  0  0  0  0  0
  146.0950  155.5660  134.3090 C   0  0  0  0  0  0  0  0  0  0  0  0
  145.1100  155.7850  135.0630 O   0  0  0  0  0  0  0  0  0  0  0  0
  146.3440  156.4650  133.1630 C   0  0  0  0  0  0  0  0  0  0  0  0
  146.6140  155.9850  132.0300 O   0  0  0  0  0  0  0  0  0  0  0  0
  146.2810  157.8890  133.3260 N   0  0  0  0  0  0  0  0  0  0  0  0
  147.2640  158.7910  133.0550 C   0  0  0  0  0  0  0  0  0  0  0  0
  148.6540  158.4630  132.6750 C   0  0  0  0  0  0  0  0  0  0  0  0
  148.9540  157.3310  131.8590 N   0  0  0  0  0  0  0  0  0  0  0  0
  149.5980  159.1740  133.1140 O   0  0  0  0  0  0  0  0  0  0  0  0
  146.7810  160.0930  133.1770 C   0  0  0  0  0  0  0  0  0  0  0  0
  145.4580  159.9570  133.5330 C   0  0  0  0  0  0  0  0  0  0  0  0
  144.4820  160.9270  133.7420 C   0  0  0  0  0  0  0  0  0  0  0  0
  143.1770  160.4960  134.0360 C   0  0  0  0  0  0  0  0  0  0  0  0
  142.8700  159.1130  134.1200 C   0  0  0  0  0  0  0  0  0  0  0  0
  141.4530  158.6650  134.3680 C   0  0  0  0  0  0  0  0  0  0  0  0
  140.6680  158.8800  133.2480 F   0  0  0  0  0  0  0  0  0  0  0  0
  141.4470  157.3160  134.6710 F   0  0  0  0  0  0  0  0  0  0  0  0
  140.8980  159.3660  135.4250 F   0  0  0  0  0  0  0  0  0  0  0  0
  143.8840  158.1590  133.8710 C   0  0  0  0  0  0  0  0  0  0  0  0
  145.1800  158.6170  133.6080 C   0  0  0  0  0  0  0  0  0  0  0  0
  147.0711  154.4378  136.6719 H   0  0  0  0  0  0  0  0  0  0  0  0
  148.3685  153.5265  135.8274 H   0  0  0  0  0  0  0  0  0  0  0  0
  148.3865  155.3227  135.8274 H   0  0  0  0  0  0  0  0  0  0  0  0
  147.0097  152.4300  133.9449 H   0  0  0  0  0  0  0  0  0  0  0  0
  146.5328  153.6275  132.6796 H   0  0  0  0  0  0  0  0  0  0  0  0
  149.3177  153.6182  133.9101 H   0  0  0  0  0  0  0  0  0  0  0  0
  148.8943  152.5792  132.5027 H   0  0  0  0  0  0  0  0  0  0  0  0
  148.1050  154.5090  131.4920 H   0  0  0  0  0  0  0  0  0  0  0  0
  148.2330  156.6050  131.6510 H   0  0  0  0  0  0  0  0  0  0  0  0
  149.9360  157.1560  131.5480 H   0  0  0  0  0  0  0  0  0  0  0  0
  147.3378  161.0289  133.0220 H   0  0  0  0  0  0  0  0  0  0  0  0
  144.7246  161.9981  133.6790 H   0  0  0  0  0  0  0  0  0  0  0  0
  142.3839  161.2397  134.2030 H   0  0  0  0  0  0  0  0  0  0  0  0
  143.6593  157.0823  133.8838 H   0  0  0  0  0  0  0  0  0  0  0  0
  1  2  1  0
  2  3  1  0
  3  4  1  0
  4  5  1  0
  2  6  1  0
  6  7  2  0
  6  8  1  0
  8  9  2  0
  8 10  1  0
 10 11  1  0
 11 12  1  0
 12 13  1  0
 12 14  2  0
 11 15  2  0
 15 16  1  0
 16 17  2  0
 17 18  1  0
 18 19  2  0
 19 20  1  0
 20 21  1  0
 20 22  1  0
 20 23  1  0
 19 24  1  0
 24 25  2  0
 25 10  1  0
 25 16  1  0
  1 26  1  0
  1 27  1  0
  1 28  1  0
  3 29  1  0
  3 30  1  0
  4 31  1  0
  4 32  1  0
  5 33  1  0
 13 34  1  0
 13 35  1  0
 15 36  1  0
 17 37  1  0
 18 38  1  0
 24 39  1  0
M  END
>  <UniqueID>  (25) 
25

>  <SMILES>  (25) 
CN(CCO)C(=O)C(=O)n1c(C(N)=O)cc2ccc(C(F)(F)F)cc21

>  <Energy>  (25) 
79.25060742206593

>  <Genealogy>  (25) 
CN(CCO)C(=O)C(=O)n1c(C(N)=O)cc2ccc(C(F)(F)F)cc21 (3D coordinates assigned)
CN(CCO)C(=O)C(=O)n1c(C(N)=O)cc2ccc(C(F)(F)F)cc21 (optimized conformer: 79.25060742206593 kcal/mol)

>  <smiles>  (25) 
CN(CCO)C(=O)C(=O)n1c(C(N)=O)cc2ccc(C(F)(F)F)cc21

>  <score_type>  (25) 
oracle

>  <origin>  (25) 
adg

>  <m_score__min__energy>  (25) 
-6.46

>  <m_primary>  (25) 
energy

$$$$
27:0
     RDKit          3D

 37 38  0  0  0  0  0  0  0  0999 V2000
  147.9590  156.0420  134.8560 C   0  0  0  0  0  0  0  0  0  0  0  0
  148.1440  155.8570  133.3360 C   0  0  0  0  0  0  0  0  0  0  0  0
  148.4270  154.3750  133.0140 C   0  0  0  0  0  0  0  0  0  0  0  0
  149.2350  156.6380  132.9090 O   0  0  0  0  0  0  0  0  0  0  0  0
  146.8960  156.3630  132.5680 C   0  0  0  0  0  0  0  0  0  0  0  0
  145.8190  156.9570  133.4430 C   0  0  0  0  0  0  0  0  0  0  0  0
  145.1250  156.1970  134.1730 O   0  0  0  0  0  0  0  0  0  0  0  0
  145.6070  158.3760  133.4990 N   0  0  0  0  0  0  0  0  0  0  0  0
  146.5430  159.3660  133.5420 C   0  0  0  0  0  0  0  0  0  0  0  0
  147.9980  159.1860  133.3640 C   0  0  0  0  0  0  0  0  0  0  0  0
  148.8290  158.9490  134.4970 N   0  0  0  0  0  0  0  0  0  0  0  0
  148.5210  159.2700  132.2210 O   0  0  0  0  0  0  0  0  0  0  0  0
  145.9300  160.6120  133.6640 C   0  0  0  0  0  0  0  0  0  0  0  0
  144.5770  160.3530  133.6700 C   0  0  0  0  0  0  0  0  0  0  0  0
  143.4970  161.2260  133.7560 C   0  0  0  0  0  0  0  0  0  0  0  0
  142.2030  160.6760  133.7400 C   0  0  0  0  0  0  0  0  0  0  0  0
  142.0150  159.2740  133.6450 C   0  0  0  0  0  0  0  0  0  0  0  0
  140.6290  158.6950  133.6080 C   0  0  0  0  0  0  0  0  0  0  0  0
  139.8130  159.4680  132.8000 F   0  0  0  0  0  0  0  0  0  0  0  0
  140.1060  158.6640  134.8870 F   0  0  0  0  0  0  0  0  0  0  0  0
  143.1360  158.4220  133.5410 C   0  0  0  0  0  0  0  0  0  0  0  0
  144.4110  158.9970  133.5600 C   0  0  0  0  0  0  0  0  0  0  0  0
  148.6377  155.3633  135.3933 H   0  0  0  0  0  0  0  0  0  0  0  0
  148.1888  157.0824  135.1294 H   0  0  0  0  0  0  0  0  0  0  0  0
  146.9186  155.8123  135.1294 H   0  0  0  0  0  0  0  0  0  0  0  0
  148.5349  153.8102  133.9517 H   0  0  0  0  0  0  0  0  0  0  0  0
  147.5918  153.9606  132.4304 H   0  0  0  0  0  0  0  0  0  0  0  0
  149.3562  154.2975  132.4304 H   0  0  0  0  0  0  0  0  0  0  0  0
  149.2290  157.4880  133.4230 H   0  0  0  0  0  0  0  0  0  0  0  0
  147.2216  157.1334  131.8536 H   0  0  0  0  0  0  0  0  0  0  0  0
  146.4517  155.4830  132.0800 H   0  0  0  0  0  0  0  0  0  0  0  0
  149.3140  158.0340  134.6260 H   0  0  0  0  0  0  0  0  0  0  0  0
  146.4218  161.5930  133.7394 H   0  0  0  0  0  0  0  0  0  0  0  0
  143.6506  162.3124  133.8341 H   0  0  0  0  0  0  0  0  0  0  0  0
  141.3281  161.3399  133.8018 H   0  0  0  0  0  0  0  0  0  0  0  0
  140.6793  157.6739  133.2020 H   0  0  0  0  0  0  0  0  0  0  0  0
  143.0099  157.3333  133.4474 H   0  0  0  0  0  0  0  0  0  0  0  0
  1  2  1  0
  2  3  1  0
  2  4  1  0
  2  5  1  0
  5  6  1  0
  6  7  2  0
  6  8  1  0
  8  9  1  0
  9 10  1  0
 10 11  1  0
 10 12  2  0
  9 13  2  0
 13 14  1  0
 14 15  2  0
 15 16  1  0
 16 17  2  0
 17 18  1  0
 18 19  1  0
 18 20  1  0
 17 21  1  0
 21 22  2  0
 22  8  1  0
 22 14  1  0
  1 23  1  0
  1 24  1  0
  1 25  1  0
  3 26  1  0
  3 27  1  0
  3 28  1  0
  4 29  1  0
  5 30  1  0
  5 31  1  0
 11 32  1  0
 13 33  1  0
 15 34  1  0
 16 35  1  0
 18 36  1  0
 21 37  1  0
M  CHG  1  11  -1
M  END
>  <UniqueID>  (26) 
26

>  <SMILES>  (26) 
CC(C)(O)CC(=O)n1c(C([NH-])=O)cc2ccc(C(F)F)cc21

>  <Energy>  (26) 
72.73912500841334

>  <Genealogy>  (26) 
CC(C)(O)CC(=O)n1c(C([NH-])=O)cc2ccc(C(F)F)cc21 (protonated)
CC(C)(O)CC(=O)n1c(C([NH-])=O)cc2ccc(C(F)F)cc21 (3D coordinates assigned)
CC(C)(O)CC(=O)n1c(C([NH-])=O)cc2ccc(C(F)F)cc21 (optimized conformer: 72.73912500841334 kcal/mol)

>  <smiles>  (26) 
CC(C)(O)CC(=O)n1c(C(N)=O)cc2ccc(C(F)F)cc21

>  <score_type>  (26) 
oracle

>  <origin>  (26) 
adg

>  <m_score__min__energy>  (26) 
-6

>  <m_primary>  (26) 
energy

$$$$
28:0
     RDKit          3D

 35 36  0  0  0  0  0  0  0  0999 V2000
  149.7580  151.9280  132.5450 C   0  0  0  0  0  0  0  0  0  0  0  0
  148.7560  152.8770  132.2000 O   0  0  0  0  0  0  0  0  0  0  0  0
  148.7760  154.1940  132.6650 C   0  0  0  0  0  0  0  0  0  0  0  0
  149.6410  155.0120  132.2480 O   0  0  0  0  0  0  0  0  0  0  0  0
  147.7780  154.6290  133.6920 C   0  0  0  0  0  0  0  0  0  0  0  0
  147.6100  156.0430  133.6570 O   0  0  0  0  0  0  0  0  0  0  0  0
  146.4930  156.6710  133.0940 C   0  0  0  0  0  0  0  0  0  0  0  0
  145.5590  155.9820  132.6000 O   0  0  0  0  0  0  0  0  0  0  0  0
  146.4050  158.1040  133.0860 N   0  0  0  0  0  0  0  0  0  0  0  0
  147.4080  158.9920  132.8340 C   0  0  0  0  0  0  0  0  0  0  0  0
  148.7640  158.6530  132.3560 C   0  0  0  0  0  0  0  0  0  0  0  0
  149.0670  157.3500  131.8540 N   0  0  0  0  0  0  0  0  0  0  0  0
  149.6550  159.5430  132.3400 O   0  0  0  0  0  0  0  0  0  0  0  0
  146.9700  160.2990  133.0350 C   0  0  0  0  0  0  0  0  0  0  0  0
  145.6490  160.1840  133.4070 C   0  0  0  0  0  0  0  0  0  0  0  0
  144.7230  161.1700  133.7290 C   0  0  0  0  0  0  0  0  0  0  0  0
  143.4330  160.7640  134.1050 C   0  0  0  0  0  0  0  0  0  0  0  0
  143.0970  159.3880  134.1800 C   0  0  0  0  0  0  0  0  0  0  0  0
  141.6970  158.9660  134.5510 C   0  0  0  0  0  0  0  0  0  0  0  0
  141.6740  157.5990  134.7560 F   0  0  0  0  0  0  0  0  0  0  0  0
  140.8060  159.2870  133.5420 F   0  0  0  0  0  0  0  0  0  0  0  0
  141.2860  159.6030  135.7100 F   0  0  0  0  0  0  0  0  0  0  0  0
  144.0610  158.4150  133.8240 C   0  0  0  0  0  0  0  0  0  0  0  0
  145.3330  158.8500  133.4320 C   0  0  0  0  0  0  0  0  0  0  0  0
  149.8336  151.8563  133.6401 H   0  0  0  0  0  0  0  0  0  0  0  0
  149.4900  150.9448  132.1309 H   0  0  0  0  0  0  0  0  0  0  0  0
  150.7252  152.2490  132.1309 H   0  0  0  0  0  0  0  0  0  0  0  0
  146.8121  154.1445  133.4861 H   0  0  0  0  0  0  0  0  0  0  0  0
  148.1432  154.3387  134.6882 H   0  0  0  0  0  0  0  0  0  0  0  0
  150.0420  157.1160  131.5610 H   0  0  0  0  0  0  0  0  0  0  0  0
  148.3140  156.6460  131.6890 H   0  0  0  0  0  0  0  0  0  0  0  0
  147.5539  161.2243  132.9211 H   0  0  0  0  0  0  0  0  0  0  0  0
  144.9931  162.2356  133.6903 H   0  0  0  0  0  0  0  0  0  0  0  0
  142.6731  161.5225  134.3445 H   0  0  0  0  0  0  0  0  0  0  0  0
  143.8170  157.3428  133.8545 H   0  0  0  0  0  0  0  0  0  0  0  0
  1  2  1  0
  2  3  1  0
  3  4  2  0
  3  5  1  0
  5  6  1  0
  6  7  1  0
  7  8  2  0
  7  9  1  0
  9 10  1  0
 10 11  1  0
 11 12  1  0
 11 13  2  0
 10 14  2  0
 14 15  1  0
 15 16  2  0
 16 17  1  0
 17 18  2  0
 18 19  1  0
 19 20  1  0
 19 21  1  0
 19 22  1  0
 18 23  1  0
 23 24  2  0
 24  9  1  0
 24 15  1  0
  1 25  1  0
  1 26  1  0
  1 27  1  0
  5 28  1  0
  5 29  1  0
 12 30  1  0
 12 31  1  0
 14 32  1  0
 16 33  1  0
 17 34  1  0
 23 35  1  0
M  END
>  <UniqueID>  (27) 
27

>  <SMILES>  (27) 
COC(=O)COC(=O)n1c(C(N)=O)cc2ccc(C(F)(F)F)cc21

>  <Energy>  (27) 
70.1750108447209

>  <Genealogy>  (27) 
COC(=O)COC(=O)n1c(C(N)=O)cc2ccc(C(F)(F)F)cc21 (3D coordinates assigned)
COC(=O)COC(=O)n1c(C(N)=O)cc2ccc(C(F)(F)F)cc21 (optimized conformer: 70.1750108447209 kcal/mol)

>  <smiles>  (27) 
COC(=O)COC(=O)n1c(C(N)=O)cc2ccc(C(F)(F)F)cc21

>  <score_type>  (27) 
oracle

>  <origin>  (27) 
adg

>  <m_score__min__energy>  (27) 
-5.9900000000000002

>  <m_primary>  (27) 
energy

$$$$
29:0
     RDKit          3D

 48 49  0  0  0  0  0  0  0  0999 V2000
  149.9900  151.2810  130.9360 C   0  0  0  0  0  0  0  0  0  0  0  0
  148.8850  151.5040  132.4200 Si  0  0  0  0  0  4  0  0  0  0  0  0
  149.7700  150.9080  133.9510 C   0  0  0  0  0  0  0  0  0  0  0  0
  147.3140  150.5240  132.1830 C   0  0  0  0  0  0  0  0  0  0  0  0
  148.4830  153.2620  132.6080 C   0  0  0  0  0  0  0  0  0  0  0  0
  148.2280  154.4340  132.7330 C   0  0  0  0  0  0  0  0  0  0  0  0
  147.9130  155.8300  132.8910 C   0  0  0  0  0  0  0  0  0  0  0  0
  148.9410  156.7970  132.8310 C   0  0  0  0  0  0  0  0  0  0  0  0
  148.6400  158.1630  132.9750 C   0  0  0  0  0  0  0  0  0  0  0  0
  147.3110  158.5200  133.1870 C   0  0  0  0  0  0  0  0  0  0  0  0
  146.7460  159.7640  133.3350 C   0  0  0  0  0  0  0  0  0  0  0  0
  145.3850  159.5340  133.5120 C   0  0  0  0  0  0  0  0  0  0  0  0
  144.4100  160.6070  133.7980 C   0  0  0  0  0  0  0  0  0  0  0  0
  143.0700  160.5200  133.3130 N   0  0  0  0  0  0  0  0  0  0  0  0
  144.7640  161.6280  134.4420 O   0  0  0  0  0  0  0  0  0  0  0  0
  145.1110  158.1960  133.4720 N   0  0  0  0  0  0  0  0  0  0  0  0
  143.8210  157.5560  133.5250 C   0  0  0  0  0  0  0  0  0  0  0  0
  142.9410  157.8400  132.6670 O   0  0  0  0  0  0  0  0  0  0  0  0
  143.5170  156.6330  134.5770 N   0  0  0  0  0  0  0  0  0  0  0  0
  143.7250  155.1890  134.4900 C   0  0  0  0  0  0  0  0  0  0  0  0
  144.5700  154.6440  135.6560 C   0  0  0  0  0  0  0  0  0  0  0  0
  145.7660  153.7890  135.2130 C   0  0  0  0  0  0  0  0  0  0  0  0
  146.9740  154.0270  136.0680 C   0  0  0  0  0  0  0  0  0  0  0  0
  147.6050  155.1140  135.9900 O   0  0  0  0  0  0  0  0  0  0  0  0
  147.3750  153.0620  136.9850 O   0  0  0  0  0  0  0  0  0  0  0  0
  146.3060  157.5890  133.2700 C   0  0  0  0  0  0  0  0  0  0  0  0
  146.5770  156.2230  133.1060 C   0  0  0  0  0  0  0  0  0  0  0  0
  151.0169  151.0738  131.2714 H   0  0  0  0  0  0  0  0  0  0  0  0
  149.6250  150.4384  130.3304 H   0  0  0  0  0  0  0  0  0  0  0  0
  149.9803  152.1992  130.3304 H   0  0  0  0  0  0  0  0  0  0  0  0
  149.2382  151.2662  134.8448 H   0  0  0  0  0  0  0  0  0  0  0  0
  149.7951  149.8083  133.9553 H   0  0  0  0  0  0  0  0  0  0  0  0
  150.7985  151.2982  133.9553 H   0  0  0  0  0  0  0  0  0  0  0  0
  146.8937  150.2618  133.1651 H   0  0  0  0  0  0  0  0  0  0  0  0
  146.5859  151.1284  131.6221 H   0  0  0  0  0  0  0  0  0  0  0  0
  147.5366  149.6043  131.6221 H   0  0  0  0  0  0  0  0  0  0  0  0
  149.9820  156.4799  132.6708 H   0  0  0  0  0  0  0  0  0  0  0  0
  149.4304  158.9262  132.9218 H   0  0  0  0  0  0  0  0  0  0  0  0
  147.2607  160.7360  133.3173 H   0  0  0  0  0  0  0  0  0  0  0  0
  142.3900  161.2860  133.5150 H   0  0  0  0  0  0  0  0  0  0  0  0
  142.7380  159.6800  132.7890 H   0  0  0  0  0  0  0  0  0  0  0  0
  142.7448  154.6900  134.5013 H   0  0  0  0  0  0  0  0  0  0  0  0
  144.2715  154.9855  133.5573 H   0  0  0  0  0  0  0  0  0  0  0  0
  144.9507  155.4976  136.2360 H   0  0  0  0  0  0  0  0  0  0  0  0
  143.9125  153.9900  136.2476 H   0  0  0  0  0  0  0  0  0  0  0  0
  145.4874  152.7270  135.2797 H   0  0  0  0  0  0  0  0  0  0  0  0
  146.0202  154.0697  134.1802 H   0  0  0  0  0  0  0  0  0  0  0  0
  145.7684  155.4782  133.1442 H   0  0  0  0  0  0  0  0  0  0  0  0
  1  2  1  0
  2  3  1  0
  2  4  1  0
  2  5  1  0
  5  6  3  0
  6  7  1  0
  7  8  2  0
  8  9  1  0
  9 10  2  0
 10 11  1  0
 11 12  2  0
 12 13  1  0
 13 14  1  0
 13 15  2  0
 12 16  1  0
 16 17  1  0
 17 18  2  0
 17 19  1  0
 19 20  1  0
 20 21  1  0
 21 22  1  0
 22 23  1  0
 23 24  2  0
 23 25  1  0
 16 26  1  0
 26 27  2  0
 27  7  1  0
 26 10  1  0
  1 28  1  0
  1 29  1  0
  1 30  1  0
  3 31  1  0
  3 32  1  0
  3 33  1  0
  4 34  1  0
  4 35  1  0
  4 36  1  0
  8 37  1  0
  9 38  1  0
 11 39  1  0
 14 40  1  0
 14 41  1  0
 20 42  1  0
 20 43  1  0
 21 44  1  0
 21 45  1  0
 22 46  1  0
 22 47  1  0
 27 48  1  0
M  CHG  2  19  -1  25  -1
M  END
>  <UniqueID>  (28) 
28

>  <SMILES>  (28) 
C[Si](C)(C)C#Cc1ccc2cc(C(N)=O)n(C(=O)[N-]CCCC(=O)[O-])c2c1

>  <Energy>  (28) 
64.93535869776275

>  <Genealogy>  (28) 
C[Si](C)(C)C#Cc1ccc2cc(C(N)=O)n(C(=O)[N-]CCCC(=O)[O-])c2c1 (protonated)
C[Si](C)(C)C#Cc1ccc2cc(C(N)=O)n(C(=O)[N-]CCCC(=O)[O-])c2c1 (3D coordinates assigned)
C[Si](C)(C)C#Cc1ccc2cc(C(N)=O)n(C(=O)[N-]CCCC(=O)[O-])c2c1 (optimized conformer: 64.93535869776275 kcal/mol)

>  <smiles>  (28) 
C[Si](C)(C)C#Cc1ccc2cc(C(N)=O)n(C(=O)NCCCC(=O)O)c2c1

>  <score_type>  (28) 
oracle

>  <origin>  (28) 
adg

>  <m_score__min__energy>  (28) 
-8.5099999999999998

>  <m_primary>  (28) 
energy

$$$$
30:0
     RDKit          3D

 41 42  0  0  0  0  0  0  0  0999 V2000
  141.3600  159.5330  135.6290 C   0  0  0  0  0  0  0  0  0  0  0  0
  140.7690  158.6310  136.7130 C   0  0  0  0  0  0  0  0  0  0  0  0
  139.9030  157.5090  136.1250 C   0  0  0  0  0  0  0  0  0  0  0  0
  140.5940  156.8140  134.9830 C   0  0  0  0  0  0  0  0  0  0  0  0
  140.0490  156.8030  133.8470 O   0  0  0  0  0  0  0  0  0  0  0  0
  141.8870  156.2120  135.1570 N   0  0  0  0  0  0  0  0  0  0  0  0
  143.0220  156.4670  134.4450 C   0  0  0  0  0  0  0  0  0  0  0  0
  143.1520  157.4790  133.3690 C   0  0  0  0  0  0  0  0  0  0  0  0
  142.2640  157.4800  132.2480 N   0  0  0  0  0  0  0  0  0  0  0  0
  144.0590  158.3510  133.4240 O   0  0  0  0  0  0  0  0  0  0  0  0
  144.0680  155.6650  134.9020 C   0  0  0  0  0  0  0  0  0  0  0  0
  143.5270  154.8950  135.9080 C   0  0  0  0  0  0  0  0  0  0  0  0
  144.1130  153.9040  136.6870 C   0  0  0  0  0  0  0  0  0  0  0  0
  143.3030  153.2360  137.6220 C   0  0  0  0  0  0  0  0  0  0  0  0
  141.9220  153.5490  137.7510 C   0  0  0  0  0  0  0  0  0  0  0  0
  141.0890  152.8480  138.7060 N   0  0  0  0  0  0  0  0  0  0  0  0
  140.2400  153.6050  139.6350 C   0  0  0  0  0  0  0  0  0  0  0  0
  141.0780  151.3790  138.7850 C   0  0  0  0  0  0  0  0  0  0  0  0
  140.2460  150.7970  137.6840 C   0  0  0  0  0  0  0  0  0  0  0  0
  139.1790  150.1800  137.9490 O   0  0  0  0  0  0  0  0  0  0  0  0
  140.6420  150.9540  136.3590 O   0  0  0  0  0  0  0  0  0  0  0  0
  141.3710  154.5660  136.9320 C   0  0  0  0  0  0  0  0  0  0  0  0
  142.2090  155.2390  136.0360 C   0  0  0  0  0  0  0  0  0  0  0  0
  141.9047  160.3643  136.1005 H   0  0  0  0  0  0  0  0  0  0  0  0
  142.0515  158.9496  135.0033 H   0  0  0  0  0  0  0  0  0  0  0  0
  140.5490  159.9340  135.0033 H   0  0  0  0  0  0  0  0  0  0  0  0
  141.5924  158.1796  137.2860 H   0  0  0  0  0  0  0  0  0  0  0  0
  140.1271  159.2515  137.3556 H   0  0  0  0  0  0  0  0  0  0  0  0
  139.6894  156.7727  136.9138 H   0  0  0  0  0  0  0  0  0  0  0  0
  138.9740  157.9570  135.7425 H   0  0  0  0  0  0  0  0  0  0  0  0
  141.4530  156.8260  132.1900 H   0  0  0  0  0  0  0  0  0  0  0  0
  142.3930  158.1770  131.4820 H   0  0  0  0  0  0  0  0  0  0  0  0
  145.1053  155.6505  134.5363 H   0  0  0  0  0  0  0  0  0  0  0  0
  145.1775  153.6503  136.5753 H   0  0  0  0  0  0  0  0  0  0  0  0
  143.7444  152.4592  138.2636 H   0  0  0  0  0  0  0  0  0  0  0  0
  140.5177  153.3574  140.6702 H   0  0  0  0  0  0  0  0  0  0  0  0
  140.3809  154.6827  139.4653 H   0  0  0  0  0  0  0  0  0  0  0  0
  139.1855  153.3419  139.4653 H   0  0  0  0  0  0  0  0  0  0  0  0
  142.1085  151.0046  138.6957 H   0  0  0  0  0  0  0  0  0  0  0  0
  140.6462  151.0795  139.7514 H   0  0  0  0  0  0  0  0  0  0  0  0
  140.3033  154.8218  136.9995 H   0  0  0  0  0  0  0  0  0  0  0  0
  1  2  1  0
  2  3  1  0
  3  4  1  0
  4  5  2  0
  4  6  1  0
  6  7  1  0
  7  8  1  0
  8  9  1  0
  8 10  2  0
  7 11  2  0
 11 12  1  0
 12 13  2  0
 13 14  1  0
 14 15  2  0
 15 16  1  0
 16 17  1  0
 16 18  1  0
 18 19  1  0
 19 20  2  0
 19 21  1  0
 15 22  1  0
 22 23  2  0
 23  6  1  0
 23 12  1  0
  1 24  1  0
  1 25  1  0
  1 26  1  0
  2 27  1  0
  2 28  1  0
  3 29  1  0
  3 30  1  0
  9 31  1  0
  9 32  1  0
 11 33  1  0
 13 34  1  0
 14 35  1  0
 17 36  1  0
 17 37  1  0
 17 38  1  0
 18 39  1  0
 18 40  1  0
 22 41  1  0
M  CHG  1  21  -1
M  END
>  <UniqueID>  (29) 
29

>  <SMILES>  (29) 
CCCC(=O)n1c(C(N)=O)cc2ccc(N(C)CC(=O)[O-])cc21

>  <Energy>  (29) 
76.63656332488826

>  <Genealogy>  (29) 
CCCC(=O)n1c(C(N)=O)cc2ccc(N(C)CC(=O)[O-])cc21 (protonated)
CCCC(=O)n1c(C(N)=O)cc2ccc(N(C)CC(=O)[O-])cc21 (3D coordinates assigned)
CCCC(=O)n1c(C(N)=O)cc2ccc(N(C)CC(=O)[O-])cc21 (optimized conformer: 76.63656332488826 kcal/mol)

>  <smiles>  (29) 
CCCC(=O)n1c(C(N)=O)cc2ccc(N(C)CC(=O)O)cc21

>  <score_type>  (29) 
oracle

>  <origin>  (29) 
adg

>  <m_score__min__energy>  (29) 
-6.8600000000000003

>  <m_primary>  (29) 
energy

$$$$
31:0
     RDKit          3D

 34 35  0  0  0  0  0  0  0  0999 V2000
  141.3220  159.3540  136.1150 C   0  0  0  0  0  0  0  0  0  0  0  0
  141.8370  159.0250  134.7170 C   0  0  2  0  0  0  0  0  0  0  0  0
  143.2570  159.1740  134.6960 O   0  0  0  0  0  0  0  0  0  0  0  0
  144.0620  158.7410  133.6350 C   0  0  0  0  0  0  0  0  0  0  0  0
  143.5860  157.9830  132.7460 O   0  0  0  0  0  0  0  0  0  0  0  0
  145.4340  159.1640  133.5650 N   0  0  0  0  0  0  0  0  0  0  0  0
  145.9060  160.4400  133.6440 C   0  0  0  0  0  0  0  0  0  0  0  0
  145.1130  161.6350  133.9970 C   0  0  0  0  0  0  0  0  0  0  0  0
  143.7130  161.7020  133.7220 N   0  0  0  0  0  0  0  0  0  0  0  0
  145.6710  162.5930  134.5970 O   0  0  0  0  0  0  0  0  0  0  0  0
  147.2730  160.4770  133.3880 C   0  0  0  0  0  0  0  0  0  0  0  0
  147.6340  159.1690  133.1590 C   0  0  0  0  0  0  0  0  0  0  0  0
  148.8760  158.6310  132.8340 C   0  0  0  0  0  0  0  0  0  0  0  0
  148.9550  157.2470  132.6060 C   0  0  0  0  0  0  0  0  0  0  0  0
  147.7970  156.4330  132.6960 C   0  0  0  0  0  0  0  0  0  0  0  0
  147.8820  154.9560  132.4390 C   0  0  0  0  0  0  0  0  0  0  0  0
  147.3170  154.2660  133.4960 F   0  0  0  0  0  0  0  0  0  0  0  0
  149.2070  154.5820  132.3040 F   0  0  0  0  0  0  0  0  0  0  0  0
  146.5530  157.0160  133.0240 C   0  0  0  0  0  0  0  0  0  0  0  0
  146.5070  158.3950  133.2670 C   0  0  0  0  0  0  0  0  0  0  0  0
  141.2040  159.9330  133.7020 C   0  0  0  0  0  0  0  0  0  0  0  0
  140.5650  159.4520  132.7290 O   0  0  0  0  0  0  0  0  0  0  0  0
  141.3460  161.3110  133.8180 O   0  0  0  0  0  0  0  0  0  0  0  0
  141.9990  158.9215  136.8664 H   0  0  0  0  0  0  0  0  0  0  0  0
  141.2814  160.4457  136.2433 H   0  0  0  0  0  0  0  0  0  0  0  0
  140.3143  158.9320  136.2433 H   0  0  0  0  0  0  0  0  0  0  0  0
  141.5729  157.9876  134.4637 H   0  0  0  0  0  0  0  0  0  0  0  0
  143.1750  162.5680  133.9480 H   0  0  0  0  0  0  0  0  0  0  0  0
  143.1930  160.8700  133.3680 H   0  0  0  0  0  0  0  0  0  0  0  0
  147.9256  161.3624  133.3721 H   0  0  0  0  0  0  0  0  0  0  0  0
  149.7682  159.2699  132.7580 H   0  0  0  0  0  0  0  0  0  0  0  0
  149.9239  156.7904  132.3554 H   0  0  0  0  0  0  0  0  0  0  0  0
  147.3375  154.7191  131.5130 H   0  0  0  0  0  0  0  0  0  0  0  0
  145.6424  156.4022  133.0871 H   0  0  0  0  0  0  0  0  0  0  0  0
  1  2  1  0
  2  3  1  0
  3  4  1  0
  4  5  2  0
  4  6  1  0
  6  7  1  0
  7  8  1  0
  8  9  1  0
  8 10  2  0
  7 11  2  0
 11 12  1  0
 12 13  2  0
 13 14  1  0
 14 15  2  0
 15 16  1  0
 16 17  1  0
 16 18  1  0
 15 19  1  0
 19 20  2  0
  2 21  1  0
 21 22  2  0
 21 23  1  0
 20  6  1  0
 20 12  1  0
  1 24  1  0
  1 25  1  0
  1 26  1  0
  2 27  1  6
  9 28  1  0
  9 29  1  0
 11 30  1  0
 13 31  1  0
 14 32  1  0
 16 33  1  0
 19 34  1  0
M  CHG  1  23  -1
M  END
>  <UniqueID>  (30) 
30

>  <SMILES>  (30) 
C[C@H](OC(=O)n1c(C(N)=O)cc2ccc(C(F)F)cc21)C(=O)[O-]

>  <Energy>  (30) 
68.4066341000105

>  <Genealogy>  (30) 
CC(OC(=O)n1c(C(N)=O)cc2ccc(C(F)F)cc21)C(=O)[O-] (protonated)
C[C@H](OC(=O)n1c(C(N)=O)cc2ccc(C(F)F)cc21)C(=O)[O-] (chirality)
C[C@H](OC(=O)n1c(C(N)=O)cc2ccc(C(F)F)cc21)C(=O)[O-] (3D coordinates assigned)
C[C@H](OC(=O)n1c(C(N)=O)cc2ccc(C(F)F)cc21)C(=O)[O-] (optimized conformer: 68.4066341000105 kcal/mol)

>  <smiles>  (30) 
CC(OC(=O)n1c(C(N)=O)cc2ccc(C(F)F)cc21)C(=O)O

>  <score_type>  (30) 
oracle

>  <origin>  (30) 
adg

>  <m_score__min__energy>  (30) 
-6.0300000000000002

>  <m_primary>  (30) 
energy

$$$$
32:0
     RDKit          3D

 40 41  0  0  0  0  0  0  0  0999 V2000
  148.6340  160.4070  131.3480 C   0  0  0  0  0  0  0  0  0  0  0  0
  147.4050  160.1040  131.7620 C   0  0  0  0  0  0  0  0  0  0  0  0
  147.0400  160.0490  133.1910 C   0  0  0  0  0  0  0  0  0  0  0  0
  147.9190  160.2080  134.0800 O   0  0  0  0  0  0  0  0  0  0  0  0
  145.6760  159.8120  133.5770 N   0  0  0  0  0  0  0  0  0  0  0  0
  144.7690  160.7230  134.0280 C   0  0  0  0  0  0  0  0  0  0  0  0
  144.9740  162.1850  134.0990 C   0  0  0  0  0  0  0  0  0  0  0  0
  146.1890  162.7070  134.6360 N   0  0  0  0  0  0  0  0  0  0  0  0
  144.0790  162.9820  133.7110 O   0  0  0  0  0  0  0  0  0  0  0  0
  143.5720  160.0930  134.3670 C   0  0  0  0  0  0  0  0  0  0  0  0
  143.7780  158.7570  134.1080 C   0  0  0  0  0  0  0  0  0  0  0  0
  142.9290  157.6700  134.2820 C   0  0  0  0  0  0  0  0  0  0  0  0
  143.4180  156.3930  133.9620 C   0  0  0  0  0  0  0  0  0  0  0  0
  144.7460  156.2130  133.4820 C   0  0  0  0  0  0  0  0  0  0  0  0
  145.2430  154.8880  133.1620 N   0  0  0  0  0  0  0  0  0  0  0  0
  144.7600  154.1860  131.9670 C   0  0  0  0  0  0  0  0  0  0  0  0
  146.2020  154.2000  134.0400 C   0  0  0  0  0  0  0  0  0  0  0  0
  145.9440  154.5500  135.5100 C   0  0  0  0  0  0  0  0  0  0  0  0
  146.5980  153.6250  136.3570 O   0  0  0  0  0  0  0  0  0  0  0  0
  147.8630  154.1180  136.7400 C   0  0  0  0  0  0  0  0  0  0  0  0
  145.5760  157.3540  133.3280 C   0  0  0  0  0  0  0  0  0  0  0  0
  145.0540  158.6130  133.6350 C   0  0  0  0  0  0  0  0  0  0  0  0
  148.8604  160.4360  130.2719 H   0  0  0  0  0  0  0  0  0  0  0  0
  149.4227  160.6282  132.0821 H   0  0  0  0  0  0  0  0  0  0  0  0
  146.6322  159.8864  131.0100 H   0  0  0  0  0  0  0  0  0  0  0  0
  147.0610  162.1350  134.6440 H   0  0  0  0  0  0  0  0  0  0  0  0
  142.6579  160.5635  134.7581 H   0  0  0  0  0  0  0  0  0  0  0  0
  141.9047  157.8061  134.6591 H   0  0  0  0  0  0  0  0  0  0  0  0
  142.7638  155.5172  134.0843 H   0  0  0  0  0  0  0  0  0  0  0  0
  144.1607  153.3150  132.2706 H   0  0  0  0  0  0  0  0  0  0  0  0
  144.1387  154.8675  131.3674 H   0  0  0  0  0  0  0  0  0  0  0  0
  145.6186  153.8494  131.3674 H   0  0  0  0  0  0  0  0  0  0  0  0
  146.0989  153.1132  133.9048 H   0  0  0  0  0  0  0  0  0  0  0  0
  147.2187  154.5248  133.7739 H   0  0  0  0  0  0  0  0  0  0  0  0
  146.3250  155.5615  135.7144 H   0  0  0  0  0  0  0  0  0  0  0  0
  144.8619  154.5088  135.7030 H   0  0  0  0  0  0  0  0  0  0  0  0
  147.9294  154.1439  137.8377 H   0  0  0  0  0  0  0  0  0  0  0  0
  148.6491  153.4604  136.3405 H   0  0  0  0  0  0  0  0  0  0  0  0
  147.9969  155.1341  136.3405 H   0  0  0  0  0  0  0  0  0  0  0  0
  146.6119  157.2489  132.9732 H   0  0  0  0  0  0  0  0  0  0  0  0
  1  2  2  0
  2  3  1  0
  3  4  2  0
  3  5  1  0
  5  6  1  0
  6  7  1  0
  7  8  1  0
  7  9  2  0
  6 10  2  0
 10 11  1  0
 11 12  2  0
 12 13  1  0
 13 14  2  0
 14 15  1  0
 15 16  1  0
 15 17  1  0
 17 18  1  0
 18 19  1  0
 19 20  1  0
 14 21  1  0
 21 22  2  0
 22  5  1  0
 22 11  1  0
  1 23  1  0
  1 24  1  0
  2 25  1  0
  8 26  1  0
 10 27  1  0
 12 28  1  0
 13 29  1  0
 16 30  1  0
 16 31  1  0
 16 32  1  0
 17 33  1  0
 17 34  1  0
 18 35  1  0
 18 36  1  0
 20 37  1  0
 20 38  1  0
 20 39  1  0
 21 40  1  0
M  CHG  1   8  -1
M  END
>  <UniqueID>  (31) 
31

>  <SMILES>  (31) 
C=CC(=O)n1c(C([NH-])=O)cc2ccc(N(C)CCOC)cc21

>  <Energy>  (31) 
78.87361680562036

>  <Genealogy>  (31) 
C=CC(=O)n1c(C([NH-])=O)cc2ccc(N(C)CCOC)cc21 (protonated)
C=CC(=O)n1c(C([NH-])=O)cc2ccc(N(C)CCOC)cc21 (3D coordinates assigned)
C=CC(=O)n1c(C([NH-])=O)cc2ccc(N(C)CCOC)cc21 (optimized conformer: 78.87361680562036 kcal/mol)

>  <smiles>  (31) 
C=CC(=O)n1c(C(N)=O)cc2ccc(N(C)CCOC)cc21

>  <score_type>  (31) 
oracle

>  <origin>  (31) 
adg

>  <m_score__min__energy>  (31) 
-6.4699999999999998

>  <m_primary>  (31) 
energy

$$$$
33:0
     RDKit          3D

 31 32  0  0  0  0  0  0  0  0999 V2000
  145.3720  160.4500  132.7380 N   0  0  0  0  0  0  0  0  0  0  0  0
  144.9280  159.3790  133.5700 C   0  0  0  0  0  0  0  0  0  0  0  0
  144.0070  159.5880  134.4020 O   0  0  0  0  0  0  0  0  0  0  0  0
  145.5600  158.0480  133.4560 C   0  0  0  0  0  0  0  0  0  0  0  0
  144.8770  156.8460  133.6330 C   0  0  0  0  0  0  0  0  0  0  0  0
  145.8090  155.8590  133.4020 C   0  0  0  0  0  0  0  0  0  0  0  0
  145.6800  154.4740  133.4420 C   0  0  0  0  0  0  0  0  0  0  0  0
  146.8200  153.6980  133.1760 C   0  0  0  0  0  0  0  0  0  0  0  0
  148.0680  154.3120  132.8970 C   0  0  0  0  0  0  0  0  0  0  0  0
  149.2690  153.4570  132.5810 C   0  0  0  0  0  0  0  0  0  0  0  0
  148.9840  152.6580  131.4890 F   0  0  0  0  0  0  0  0  0  0  0  0
  149.5800  152.6500  133.6620 F   0  0  0  0  0  0  0  0  0  0  0  0
  150.3750  154.2370  132.2910 F   0  0  0  0  0  0  0  0  0  0  0  0
  148.1540  155.7240  132.8450 C   0  0  0  0  0  0  0  0  0  0  0  0
  146.9980  156.4680  133.0990 C   0  0  0  0  0  0  0  0  0  0  0  0
  146.8600  157.8110  133.1250 N   0  0  0  0  0  0  0  0  0  0  0  0
  147.8870  158.7780  132.8670 C   0  0  0  0  0  0  0  0  0  0  0  0
  147.9610  159.8170  133.5750 O   0  0  0  0  0  0  0  0  0  0  0  0
  148.8190  158.6000  131.7060 C   0  0  0  0  0  0  0  0  0  0  0  0
  148.8160  159.8370  130.8590 C   0  0  0  0  0  0  0  0  0  0  0  0
  147.7940  160.8200  131.0310 N   0  0  0  0  0  0  0  0  0  0  0  0
  149.8690  159.9710  129.6110 S   0  0  0  0  0  0  0  0  0  0  0  0
  146.2450  160.9760  132.9610 H   0  0  0  0  0  0  0  0  0  0  0  0
  143.8182  156.7138  133.9004 H   0  0  0  0  0  0  0  0  0  0  0  0
  144.7144  154.0013  133.6749 H   0  0  0  0  0  0  0  0  0  0  0  0
  146.7442  152.6006  133.1841 H   0  0  0  0  0  0  0  0  0  0  0  0
  149.1059  156.2230  132.6108 H   0  0  0  0  0  0  0  0  0  0  0  0
  149.8370  158.4156  132.0797 H   0  0  0  0  0  0  0  0  0  0  0  0
  148.4861  157.7441  131.1005 H   0  0  0  0  0  0  0  0  0  0  0  0
  147.7490  161.6570  130.4080 H   0  0  0  0  0  0  0  0  0  0  0  0
  147.0730  160.7110  131.7790 H   0  0  0  0  0  0  0  0  0  0  0  0
  1  2  1  0
  2  3  2  0
  2  4  1  0
  4  5  2  0
  5  6  1  0
  6  7  2  0
  7  8  1  0
  8  9  2  0
  9 10  1  0
 10 11  1  0
 10 12  1  0
 10 13  1  0
  9 14  1  0
 14 15  2  0
 15 16  1  0
 16 17  1  0
 17 18  2  0
 17 19  1  0
 19 20  1  0
 20 21  1  0
 20 22  2  0
 16  4  1  0
 15  6  1  0
  1 23  1  0
  5 24  1  0
  7 25  1  0
  8 26  1  0
 14 27  1  0
 19 28  1  0
 19 29  1  0
 21 30  1  0
 21 31  1  0
M  CHG  1   1  -1
M  END
>  <UniqueID>  (32) 
32

>  <SMILES>  (32) 
[NH-]C(=O)c1cc2ccc(C(F)(F)F)cc2n1C(=O)CC(N)=S

>  <Energy>  (32) 
67.16965811286404

>  <Genealogy>  (32) 
[NH-]C(=O)c1cc2ccc(C(F)(F)F)cc2n1C(=O)CC(N)=S (protonated)
[NH-]C(=O)c1cc2ccc(C(F)(F)F)cc2n1C(=O)CC(N)=S (3D coordinates assigned)
[NH-]C(=O)c1cc2ccc(C(F)(F)F)cc2n1C(=O)CC(N)=S (optimized conformer: 67.16965811286404 kcal/mol)

>  <smiles>  (32) 
NC(=O)c1cc2ccc(C(F)(F)F)cc2n1C(=O)CC(N)=S

>  <score_type>  (32) 
oracle

>  <origin>  (32) 
adg

>  <m_score__min__energy>  (32) 
-6.6299999999999999

>  <m_primary>  (32) 
energy

$$$$
34:0
     RDKit          3D

 34 35  0  0  0  0  0  0  0  0999 V2000
  148.0860  152.8290  132.9260 N   0  0  0  0  0  0  0  0  0  0  0  0
  148.7950  154.0310  132.6380 C   0  0  0  0  0  0  0  0  0  0  0  0
  149.9820  153.9640  132.2220 O   0  0  0  0  0  0  0  0  0  0  0  0
  148.1510  155.3400  132.8720 C   0  0  0  0  0  0  0  0  0  0  0  0
  148.8600  156.5150  133.1100 C   0  0  0  0  0  0  0  0  0  0  0  0
  147.9090  157.5070  133.1800 C   0  0  0  0  0  0  0  0  0  0  0  0
  148.0550  158.8720  133.4110 C   0  0  0  0  0  0  0  0  0  0  0  0
  146.8920  159.6590  133.4600 C   0  0  0  0  0  0  0  0  0  0  0  0
  145.6140  159.0730  133.2850 C   0  0  0  0  0  0  0  0  0  0  0  0
  144.3830  159.9300  133.3580 C   0  0  0  0  0  0  0  0  0  0  0  0
  144.7400  161.2330  133.6550 F   0  0  0  0  0  0  0  0  0  0  0  0
  143.5410  159.4520  134.3450 F   0  0  0  0  0  0  0  0  0  0  0  0
  145.5050  157.6820  133.0550 C   0  0  0  0  0  0  0  0  0  0  0  0
  146.6810  156.9250  132.9940 C   0  0  0  0  0  0  0  0  0  0  0  0
  146.8130  155.5940  132.8060 N   0  0  0  0  0  0  0  0  0  0  0  0
  145.7490  154.6410  132.6590 C   0  0  0  0  0  0  0  0  0  0  0  0
  145.0970  154.5870  131.5810 O   0  0  0  0  0  0  0  0  0  0  0  0
  145.4240  153.7940  133.7220 O   0  0  0  0  0  0  0  0  0  0  0  0
  144.3120  152.9050  133.6870 C   0  0  0  0  0  0  0  0  0  0  0  0
  144.5420  151.8140  132.6410 C   0  0  0  0  0  0  0  0  0  0  0  0
  145.9400  151.7710  132.2090 N   0  0  0  0  0  0  0  0  0  0  0  0
  147.3490  152.8060  133.6660 H   0  0  0  0  0  0  0  0  0  0  0  0
  149.9489  156.6263  133.2189 H   0  0  0  0  0  0  0  0  0  0  0  0
  149.0497  159.3204  133.5508 H   0  0  0  0  0  0  0  0  0  0  0  0
  146.9747  160.7417  133.6361 H   0  0  0  0  0  0  0  0  0  0  0  0
  143.8659  159.9018  132.3875 H   0  0  0  0  0  0  0  0  0  0  0  0
  144.5212  157.2069  132.9272 H   0  0  0  0  0  0  0  0  0  0  0  0
  144.1872  152.4399  134.6760 H   0  0  0  0  0  0  0  0  0  0  0  0
  143.4072  153.4717  133.4221 H   0  0  0  0  0  0  0  0  0  0  0  0
  144.2719  150.8400  133.0751 H   0  0  0  0  0  0  0  0  0  0  0  0
  143.9167  152.0390  131.7644 H   0  0  0  0  0  0  0  0  0  0  0  0
  146.5590  151.5170  133.0140 H   0  0  0  0  0  0  0  0  0  0  0  0
  146.2160  152.7150  131.8560 H   0  0  0  0  0  0  0  0  0  0  0  0
  146.0580  151.0760  131.4360 H   0  0  0  0  0  0  0  0  0  0  0  0
  1  2  1  0
  2  3  2  0
  2  4  1  0
  4  5  2  0
  5  6  1  0
  6  7  2  0
  7  8  1  0
  8  9  2  0
  9 10  1  0
 10 11  1  0
 10 12  1  0
  9 13  1  0
 13 14  2  0
 14 15  1  0
 15 16  1  0
 16 17  2  0
 16 18  1  0
 18 19  1  0
 19 20  1  0
 20 21  1  0
 15  4  1  0
 14  6  1  0
  1 22  1  0
  5 23  1  0
  7 24  1  0
  8 25  1  0
 10 26  1  0
 13 27  1  0
 19 28  1  0
 19 29  1  0
 20 30  1  0
 20 31  1  0
 21 32  1  0
 21 33  1  0
 21 34  1  0
M  CHG  2   1  -1  21   1
M  END
>  <UniqueID>  (33) 
33

>  <SMILES>  (33) 
[NH-]C(=O)c1cc2ccc(C(F)F)cc2n1C(=O)OCC[NH3+]

>  <Energy>  (33) 
66.92389463673919

>  <Genealogy>  (33) 
[NH-]C(=O)c1cc2ccc(C(F)F)cc2n1C(=O)OCC[NH3+] (protonated)
[NH-]C(=O)c1cc2ccc(C(F)F)cc2n1C(=O)OCC[NH3+] (3D coordinates assigned)
[NH-]C(=O)c1cc2ccc(C(F)F)cc2n1C(=O)OCC[NH3+] (optimized conformer: 66.92389463673919 kcal/mol)

>  <smiles>  (33) 
NCCOC(=O)n1c(C(N)=O)cc2ccc(C(F)F)cc21

>  <score_type>  (33) 
oracle

>  <origin>  (33) 
adg

>  <m_score__min__energy>  (33) 
-5.96

>  <m_primary>  (33) 
energy

$$$$
35:0
     RDKit          3D

 44 46  0  0  0  0  0  0  0  0999 V2000
  138.8420  158.2360  135.3800 N   0  0  0  0  0  0  0  0  0  0  0  0
  139.0460  157.6920  134.0740 C   0  0  0  0  0  0  0  0  0  0  0  0
  138.1770  157.8980  133.1850 O   0  0  0  0  0  0  0  0  0  0  0  0
  140.2680  156.9170  133.7560 C   0  0  0  0  0  0  0  0  0  0  0  0
  140.2910  155.5410  133.5250 C   0  0  0  0  0  0  0  0  0  0  0  0
  141.6220  155.2170  133.3810 C   0  0  0  0  0  0  0  0  0  0  0  0
  142.2210  153.9850  133.1400 C   0  0  0  0  0  0  0  0  0  0  0  0
  143.6210  153.9420  133.0310 C   0  0  0  0  0  0  0  0  0  0  0  0
  144.4010  155.1270  133.1540 C   0  0  0  0  0  0  0  0  0  0  0  0
  145.8820  155.0650  133.0330 C   0  0  0  0  0  0  0  0  0  0  0  0
  146.5610  153.8370  133.1140 C   0  0  0  0  0  0  0  0  0  0  0  0
  147.9180  153.7950  133.0220 N   0  0  0  0  0  0  0  0  0  0  0  0
  148.6640  154.9180  132.8490 C   0  0  0  0  0  0  0  0  0  0  0  0
  148.0380  156.1740  132.7550 C   0  0  0  0  0  0  0  0  0  0  0  0
  148.7480  157.3680  132.5630 O   0  0  0  0  0  0  0  0  0  0  0  0
  148.1720  158.6240  132.1990 C   0  0  0  0  0  0  0  0  0  0  0  0
  148.1840  159.5880  133.3870 C   0  0  0  0  0  0  0  0  0  0  0  0
  148.8670  159.0210  134.4750 O   0  0  0  0  0  0  0  0  0  0  0  0
  146.6420  156.2330  132.8490 C   0  0  0  0  0  0  0  0  0  0  0  0
  143.7490  156.3610  133.4000 C   0  0  0  0  0  0  0  0  0  0  0  0
  142.3540  156.3660  133.5200 C   0  0  0  0  0  0  0  0  0  0  0  0
  141.5370  157.4180  133.7420 N   0  0  0  0  0  0  0  0  0  0  0  0
  141.9430  158.7850  133.9110 C   0  0  0  0  0  0  0  0  0  0  0  0
  141.8070  159.6010  132.9590 O   0  0  0  0  0  0  0  0  0  0  0  0
  142.4620  159.2730  135.2310 C   0  0  0  0  0  0  0  0  0  0  0  0
  141.5390  158.8820  136.3510 C   0  0  0  0  0  0  0  0  0  0  0  0
  141.5560  157.7110  136.8170 O   0  0  0  0  0  0  0  0  0  0  0  0
  140.6140  159.8010  136.8420 O   0  0  0  0  0  0  0  0  0  0  0  0
  139.5100  158.0480  136.1590 H   0  0  0  0  0  0  0  0  0  0  0  0
  137.9840  158.7970  135.5860 H   0  0  0  0  0  0  0  0  0  0  0  0
  139.4292  154.8597  133.4696 H   0  0  0  0  0  0  0  0  0  0  0  0
  141.6166  153.0716  133.0378 H   0  0  0  0  0  0  0  0  0  0  0  0
  144.1215  152.9797  132.8481 H   0  0  0  0  0  0  0  0  0  0  0  0
  145.9927  152.9054  133.2524 H   0  0  0  0  0  0  0  0  0  0  0  0
  149.7595  154.8444  132.7824 H   0  0  0  0  0  0  0  0  0  0  0  0
  148.7518  159.0615  131.3729 H   0  0  0  0  0  0  0  0  0  0  0  0
  147.1300  158.4587  131.8877 H   0  0  0  0  0  0  0  0  0  0  0  0
  148.6863  160.5208  133.0909 H   0  0  0  0  0  0  0  0  0  0  0  0
  147.1462  159.7943  133.6876 H   0  0  0  0  0  0  0  0  0  0  0  0
  149.2500  158.1640  134.1460 H   0  0  0  0  0  0  0  0  0  0  0  0
  146.1337  157.2059  132.7779 H   0  0  0  0  0  0  0  0  0  0  0  0
  144.3254  157.2931  133.4944 H   0  0  0  0  0  0  0  0  0  0  0  0
  143.4539  158.8333  135.4123 H   0  0  0  0  0  0  0  0  0  0  0  0
  142.5271  160.3706  135.1977 H   0  0  0  0  0  0  0  0  0  0  0  0
  1  2  1  0
  2  3  2  0
  2  4  1  0
  4  5  2  0
  5  6  1  0
  6  7  2  0
  7  8  1  0
  8  9  2  0
  9 10  1  0
 10 11  2  0
 11 12  1  0
 12 13  2  0
 13 14  1  0
 14 15  1  0
 15 16  1  0
 16 17  1  0
 17 18  1  0
 14 19  2  0
  9 20  1  0
 20 21  2  0
 21 22  1  0
 22 23  1  0
 23 24  2  0
 23 25  1  0
 25 26  1  0
 26 27  2  0
 26 28  1  0
 22  4  1  0
 21  6  1  0
 19 10  1  0
  1 29  1  0
  1 30  1  0
  5 31  1  0
  7 32  1  0
  8 33  1  0
 11 34  1  0
 13 35  1  0
 16 36  1  0
 16 37  1  0
 17 38  1  0
 17 39  1  0
 18 40  1  0
 19 41  1  0
 20 42  1  0
 25 43  1  0
 25 44  1  0
M  CHG  1  28  -1
M  END
>  <UniqueID>  (34) 
34

>  <SMILES>  (34) 
NC(=O)c1cc2ccc(-c3cncc(OCCO)c3)cc2n1C(=O)CC(=O)[O-]

>  <Energy>  (34) 
89.07264340378262

>  <Genealogy>  (34) 
NC(=O)c1cc2ccc(-c3cncc(OCCO)c3)cc2n1C(=O)CC(=O)[O-] (protonated)
NC(=O)c1cc2ccc(-c3cncc(OCCO)c3)cc2n1C(=O)CC(=O)[O-] (3D coordinates assigned)
NC(=O)c1cc2ccc(-c3cncc(OCCO)c3)cc2n1C(=O)CC(=O)[O-] (optimized conformer: 89.07264340378262 kcal/mol)

>  <smiles>  (34) 
NC(=O)c1cc2ccc(-c3cncc(OCCO)c3)cc2n1C(=O)CC(=O)O

>  <score_type>  (34) 
oracle

>  <origin>  (34) 
adg

>  <m_score__min__energy>  (34) 
-7.6699999999999999

>  <m_primary>  (34) 
energy

$$$$
36:0
     RDKit          3D

 38 39  0  0  0  0  0  0  0  0999 V2000
  138.6760  158.5800  131.1290 C   0  0  0  0  0  0  0  0  0  0  0  0
  139.4390  158.1150  132.2920 N   0  0  0  0  0  0  0  0  0  0  0  0
  139.1090  156.8330  132.9230 C   0  0  0  0  0  0  0  0  0  0  0  0
  140.4850  158.9570  132.8240 C   0  0  0  0  0  0  0  0  0  0  0  0
  140.5850  160.1520  132.4300 O   0  0  0  0  0  0  0  0  0  0  0  0
  141.4760  158.4560  133.8360 C   0  0  0  0  0  0  0  0  0  0  0  0
  142.7310  158.2080  133.2100 O   0  0  0  0  0  0  0  0  0  0  0  0
  143.8910  157.9150  133.9360 C   0  0  0  0  0  0  0  0  0  0  0  0
  143.8590  157.0930  134.8930 O   0  0  0  0  0  0  0  0  0  0  0  0
  145.1220  158.5640  133.5930 N   0  0  0  0  0  0  0  0  0  0  0  0
  145.3640  159.8990  133.4690 C   0  0  0  0  0  0  0  0  0  0  0  0
  144.3930  160.9820  133.7340 C   0  0  0  0  0  0  0  0  0  0  0  0
  143.0280  160.8190  133.3580 N   0  0  0  0  0  0  0  0  0  0  0  0
  144.7600  162.0600  134.2710 O   0  0  0  0  0  0  0  0  0  0  0  0
  146.6950  160.1220  133.1190 C   0  0  0  0  0  0  0  0  0  0  0  0
  147.2630  158.8700  133.0320 C   0  0  0  0  0  0  0  0  0  0  0  0
  148.5670  158.4950  132.7200 C   0  0  0  0  0  0  0  0  0  0  0  0
  148.8670  157.1210  132.6880 C   0  0  0  0  0  0  0  0  0  0  0  0
  147.8600  156.1520  132.9370 C   0  0  0  0  0  0  0  0  0  0  0  0
  148.1990  154.6830  132.9390 C   0  0  0  0  0  0  0  0  0  0  0  0
  147.1720  153.9450  132.3750 F   0  0  0  0  0  0  0  0  0  0  0  0
  149.3520  154.4450  132.2120 F   0  0  0  0  0  0  0  0  0  0  0  0
  148.3910  154.2630  134.2410 F   0  0  0  0  0  0  0  0  0  0  0  0
  146.5530  156.5770  133.2680 C   0  0  0  0  0  0  0  0  0  0  0  0
  146.2910  157.9490  133.3190 C   0  0  0  0  0  0  0  0  0  0  0  0
  137.7830  159.1242  131.4701 H   0  0  0  0  0  0  0  0  0  0  0  0
  139.3038  159.2492  130.5223 H   0  0  0  0  0  0  0  0  0  0  0  0
  138.3690  157.7153  130.5223 H   0  0  0  0  0  0  0  0  0  0  0  0
  139.1377  156.9446  134.0170 H   0  0  0  0  0  0  0  0  0  0  0  0
  138.1011  156.5203  132.6127 H   0  0  0  0  0  0  0  0  0  0  0  0
  139.8407  156.0725  132.6127 H   0  0  0  0  0  0  0  0  0  0  0  0
  141.6055  159.2125  134.6240 H   0  0  0  0  0  0  0  0  0  0  0  0
  141.1009  157.5196  134.2746 H   0  0  0  0  0  0  0  0  0  0  0  0
  142.7590  160.1860  132.5720 H   0  0  0  0  0  0  0  0  0  0  0  0
  147.1868  161.0911  132.9487 H   0  0  0  0  0  0  0  0  0  0  0  0
  149.3383  159.2493  132.5053 H   0  0  0  0  0  0  0  0  0  0  0  0
  149.8938  156.7937  132.4675 H   0  0  0  0  0  0  0  0  0  0  0  0
  145.7602  155.8446  133.4806 H   0  0  0  0  0  0  0  0  0  0  0  0
  1  2  1  0
  2  3  1  0
  2  4  1  0
  4  5  2  0
  4  6  1  0
  6  7  1  0
  7  8  1  0
  8  9  2  0
  8 10  1  0
 10 11  1  0
 11 12  1  0
 12 13  1  0
 12 14  2  0
 11 15  2  0
 15 16  1  0
 16 17  2  0
 17 18  1  0
 18 19  2  0
 19 20  1  0
 20 21  1  0
 20 22  1  0
 20 23  1  0
 19 24  1  0
 24 25  2  0
 25 10  1  0
 25 16  1  0
  1 26  1  0
  1 27  1  0
  1 28  1  0
  3 29  1  0
  3 30  1  0
  3 31  1  0
  6 32  1  0
  6 33  1  0
 13 34  1  0
 15 35  1  0
 17 36  1  0
 18 37  1  0
 24 38  1  0
M  CHG  1  13  -1
M  END
>  <UniqueID>  (35) 
35

>  <SMILES>  (35) 
CN(C)C(=O)COC(=O)n1c(C([NH-])=O)cc2ccc(C(F)(F)F)cc21

>  <Energy>  (35) 
72.23803486962635

>  <Genealogy>  (35) 
CN(C)C(=O)COC(=O)n1c(C([NH-])=O)cc2ccc(C(F)(F)F)cc21 (protonated)
CN(C)C(=O)COC(=O)n1c(C([NH-])=O)cc2ccc(C(F)(F)F)cc21 (3D coordinates assigned)
CN(C)C(=O)COC(=O)n1c(C([NH-])=O)cc2ccc(C(F)(F)F)cc21 (optimized conformer: 72.23803486962635 kcal/mol)

>  <smiles>  (35) 
CN(C)C(=O)COC(=O)n1c(C(N)=O)cc2ccc(C(F)(F)F)cc21

>  <score_type>  (35) 
oracle

>  <origin>  (35) 
adg

>  <m_score__min__energy>  (35) 
-6.0700000000000003

>  <m_primary>  (35) 
energy

$$$$
37:0
     RDKit          3D

 34 35  0  0  0  0  0  0  0  0999 V2000
  139.1020  146.8770  129.7710 C   0  0  0  0  0  0  0  0  0  0  0  0
  138.8340  148.6090  129.2740 S   0  0  0  0  0  0  0  0  0  0  0  0
  139.9610  149.3530  130.5100 C   0  0  0  0  0  0  0  0  0  0  0  0
  139.6540  148.8300  131.9160 C   0  0  0  0  0  0  0  0  0  0  0  0
  139.8270  149.8780  132.9230 N   0  0  0  0  0  0  0  0  0  0  0  0
  140.9100  150.8280  132.9430 C   0  0  0  0  0  0  0  0  0  0  0  0
  142.2710  150.4150  132.9190 C   0  0  0  0  0  0  0  0  0  0  0  0
  143.3080  151.3610  132.9460 C   0  0  0  0  0  0  0  0  0  0  0  0
  142.9640  152.7080  132.9890 C   0  0  0  0  0  0  0  0  0  0  0  0
  143.7680  153.8230  133.0560 C   0  0  0  0  0  0  0  0  0  0  0  0
  142.8930  154.9040  133.0920 C   0  0  0  0  0  0  0  0  0  0  0  0
  143.3410  156.3110  133.1070 C   0  0  0  0  0  0  0  0  0  0  0  0
  142.5860  157.3350  132.4610 N   0  0  0  0  0  0  0  0  0  0  0  0
  144.4400  156.6030  133.6500 O   0  0  0  0  0  0  0  0  0  0  0  0
  141.5980  154.4780  133.0630 N   0  0  0  0  0  0  0  0  0  0  0  0
  140.4110  155.2790  133.1980 C   0  0  0  0  0  0  0  0  0  0  0  0
  140.4950  156.4880  133.5370 O   0  0  0  0  0  0  0  0  0  0  0  0
  139.1590  154.7290  132.9560 O   0  0  0  0  0  0  0  0  0  0  0  0
  141.6600  153.1290  132.9970 C   0  0  0  0  0  0  0  0  0  0  0  0
  140.6060  152.2070  132.9950 C   0  0  0  0  0  0  0  0  0  0  0  0
  139.1127  146.8080  130.8688 H   0  0  0  0  0  0  0  0  0  0  0  0
  138.2900  146.2512  129.3722 H   0  0  0  0  0  0  0  0  0  0  0  0
  140.0652  146.5259  129.3722 H   0  0  0  0  0  0  0  0  0  0  0  0
  140.9990  149.0982  130.2499 H   0  0  0  0  0  0  0  0  0  0  0  0
  139.8190  150.4438  130.5026 H   0  0  0  0  0  0  0  0  0  0  0  0
  138.6142  148.4723  131.9461 H   0  0  0  0  0  0  0  0  0  0  0  0
  140.3538  148.0121  132.1425 H   0  0  0  0  0  0  0  0  0  0  0  0
  139.1080  149.9290  133.6800 H   0  0  0  0  0  0  0  0  0  0  0  0
  142.5136  149.3428  132.8789 H   0  0  0  0  0  0  0  0  0  0  0  0
  144.3619  151.0461  132.9335 H   0  0  0  0  0  0  0  0  0  0  0  0
  144.8674  153.8530  133.0767 H   0  0  0  0  0  0  0  0  0  0  0  0
  141.7650  157.1010  131.8590 H   0  0  0  0  0  0  0  0  0  0  0  0
  142.8980  158.3290  132.5130 H   0  0  0  0  0  0  0  0  0  0  0  0
  139.5614  152.5497  133.0332 H   0  0  0  0  0  0  0  0  0  0  0  0
  1  2  1  0
  2  3  1  0
  3  4  1  0
  4  5  1  0
  5  6  1  0
  6  7  2  0
  7  8  1  0
  8  9  2  0
  9 10  1  0
 10 11  2  0
 11 12  1  0
 12 13  1  0
 12 14  2  0
 11 15  1  0
 15 16  1  0
 16 17  2  0
 16 18  1  0
 15 19  1  0
 19 20  2  0
 20  6  1  0
 19  9  1  0
  1 21  1  0
  1 22  1  0
  1 23  1  0
  3 24  1  0
  3 25  1  0
  4 26  1  0
  4 27  1  0
  5 28  1  0
  7 29  1  0
  8 30  1  0
 10 31  1  0
 13 32  1  0
 13 33  1  0
 20 34  1  0
M  CHG  1  18  -1
M  END
>  <UniqueID>  (36) 
36

>  <SMILES>  (36) 
CSCCNc1ccc2cc(C(N)=O)n(C(=O)[O-])c2c1

>  <Energy>  (36) 
68.98616834070593

>  <Genealogy>  (36) 
CSCCNc1ccc2cc(C(N)=O)n(C(=O)[O-])c2c1 (protonated)
CSCCNc1ccc2cc(C(N)=O)n(C(=O)[O-])c2c1 (3D coordinates assigned)
CSCCNc1ccc2cc(C(N)=O)n(C(=O)[O-])c2c1 (optimized conformer: 68.98616834070593 kcal/mol)

>  <smiles>  (36) 
CSCCNc1ccc2cc(C(N)=O)n(C(=O)O)c2c1

>  <score_type>  (36) 
oracle

>  <origin>  (36) 
adg

>  <m_score__min__energy>  (36) 
-6.5

>  <m_primary>  (36) 
energy

$$$$
38:0
     RDKit          3D

 44 47  0  0  0  0  0  0  0  0999 V2000
  139.5360  156.9770  133.8790 C   0  0  0  0  0  0  0  0  0  0  0  0
  140.2400  157.8070  134.9010 C   0  0  0  0  0  0  0  0  0  0  0  0
  139.8350  158.9850  135.3130 O   0  0  0  0  0  0  0  0  0  0  0  0
  140.7160  159.3750  136.2050 C   0  0  0  0  0  0  0  0  0  0  0  0
  140.6480  160.4720  136.8200 O   0  0  0  0  0  0  0  0  0  0  0  0
  141.6750  158.4970  136.3880 O   0  0  0  0  0  0  0  0  0  0  0  0
  141.4040  157.4970  135.5810 C   0  0  0  0  0  0  0  0  0  0  0  0
  142.2370  156.2570  135.4630 C   0  0  0  0  0  0  0  0  0  0  0  0
  143.5030  156.5690  134.8880 O   0  0  0  0  0  0  0  0  0  0  0  0
  143.6530  157.4090  133.7790 C   0  0  0  0  0  0  0  0  0  0  0  0
  142.7100  157.5530  132.9540 O   0  0  0  0  0  0  0  0  0  0  0  0
  144.8830  158.1230  133.5900 N   0  0  0  0  0  0  0  0  0  0  0  0
  145.0930  159.4670  133.6840 C   0  0  0  0  0  0  0  0  0  0  0  0
  144.0480  160.5000  133.8470 C   0  0  0  0  0  0  0  0  0  0  0  0
  142.6910  160.1380  134.0910 N   0  0  0  0  0  0  0  0  0  0  0  0
  144.3490  161.7170  133.7230 O   0  0  0  0  0  0  0  0  0  0  0  0
  146.4440  159.7620  133.5160 C   0  0  0  0  0  0  0  0  0  0  0  0
  147.0590  158.5490  133.3040 C   0  0  0  0  0  0  0  0  0  0  0  0
  148.4010  158.2510  133.0880 C   0  0  0  0  0  0  0  0  0  0  0  0
  148.7580  156.9020  132.9230 C   0  0  0  0  0  0  0  0  0  0  0  0
  147.7760  155.8800  132.9820 C   0  0  0  0  0  0  0  0  0  0  0  0
  148.1650  154.4570  132.8280 C   0  0  0  0  0  0  0  0  0  0  0  0
  149.4490  154.1180  132.3720 C   0  0  0  0  0  0  0  0  0  0  0  0
  149.8100  152.7800  132.2240 C   0  0  0  0  0  0  0  0  0  0  0  0
  148.8870  151.7830  132.5360 C   0  0  0  0  0  0  0  0  0  0  0  0
  147.6470  152.1160  132.9850 N   0  0  0  0  0  0  0  0  0  0  0  0
  147.2670  153.4150  133.1380 C   0  0  0  0  0  0  0  0  0  0  0  0
  146.0310  153.6900  133.6260 F   0  0  0  0  0  0  0  0  0  0  0  0
  146.4230  156.2240  133.2100 C   0  0  0  0  0  0  0  0  0  0  0  0
  146.0950  157.5770  133.3530 C   0  0  0  0  0  0  0  0  0  0  0  0
  138.9039  156.2318  134.3840 H   0  0  0  0  0  0  0  0  0  0  0  0
  138.9078  157.6248  133.2500 H   0  0  0  0  0  0  0  0  0  0  0  0
  140.2776  156.4629  133.2500 H   0  0  0  0  0  0  0  0  0  0  0  0
  142.3885  155.8243  136.4629 H   0  0  0  0  0  0  0  0  0  0  0  0
  141.7168  155.5346  134.8167 H   0  0  0  0  0  0  0  0  0  0  0  0
  142.4410  159.1780  134.4170 H   0  0  0  0  0  0  0  0  0  0  0  0
  146.9186  160.7539  133.5463 H   0  0  0  0  0  0  0  0  0  0  0  0
  149.1591  159.0470  133.0476 H   0  0  0  0  0  0  0  0  0  0  0  0
  149.8105  156.6355  132.7462 H   0  0  0  0  0  0  0  0  0  0  0  0
  150.1723  154.9109  132.1308 H   0  0  0  0  0  0  0  0  0  0  0  0
  150.8146  152.5130  131.8641 H   0  0  0  0  0  0  0  0  0  0  0  0
  149.1621  150.7244  132.4188 H   0  0  0  0  0  0  0  0  0  0  0  0
  146.9720  151.3550  133.2230 H   0  0  0  0  0  0  0  0  0  0  0  0
  145.6473  155.4467  133.2734 H   0  0  0  0  0  0  0  0  0  0  0  0
  1  2  1  0
  2  3  1  0
  3  4  1  0
  4  5  2  0
  4  6  1  0
  6  7  1  0
  7  8  1  0
  8  9  1  0
  9 10  1  0
 10 11  2  0
 10 12  1  0
 12 13  1  0
 13 14  1  0
 14 15  1  0
 14 16  2  0
 13 17  2  0
 17 18  1  0
 18 19  2  0
 19 20  1  0
 20 21  2  0
 21 22  1  0
 22 23  2  0
 23 24  1  0
 24 25  2  0
 25 26  1  0
 26 27  2  0
 27 28  1  0
 21 29  1  0
 29 30  2  0
  7  2  2  0
 30 12  1  0
 30 18  1  0
 27 22  1  0
  1 31  1  0
  1 32  1  0
  1 33  1  0
  8 34  1  0
  8 35  1  0
 15 36  1  0
 17 37  1  0
 19 38  1  0
 20 39  1  0
 23 40  1  0
 24 41  1  0
 25 42  1  0
 26 43  1  0
 29 44  1  0
M  CHG  2  15  -1  26   1
M  END
>  <UniqueID>  (37) 
37

>  <SMILES>  (37) 
Cc1oc(=O)oc1COC(=O)n1c(C([NH-])=O)cc2ccc(-c3ccc[nH+]c3F)cc21

>  <Energy>  (37) 
123.4082626273439

>  <Genealogy>  (37) 
Cc1oc(=O)oc1COC(=O)n1c(C([NH-])=O)cc2ccc(-c3ccc[nH+]c3F)cc21 (protonated)
Cc1oc(=O)oc1COC(=O)n1c(C([NH-])=O)cc2ccc(-c3ccc[nH+]c3F)cc21 (3D coordinates assigned)
Cc1oc(=O)oc1COC(=O)n1c(C([NH-])=O)cc2ccc(-c3ccc[nH+]c3F)cc21 (optimized conformer: 123.4082626273439 kcal/mol)

>  <smiles>  (37) 
Cc1oc(=O)oc1COC(=O)n1c(C(N)=O)cc2ccc(-c3cccnc3F)cc21

>  <score_type>  (37) 
oracle

>  <origin>  (37) 
adg

>  <m_score__min__energy>  (37) 
-8.1500000000000004

>  <m_primary>  (37) 
energy

$$$$
39:0
     RDKit          3D

 31 32  0  0  0  0  0  0  0  0999 V2000
  149.9490  157.2330  132.2190 N   0  0  0  0  0  0  0  0  0  0  0  0
  148.9050  156.3610  132.6480 C   0  0  0  0  0  0  0  0  0  0  0  0
  149.1360  155.1250  132.7460 O   0  0  0  0  0  0  0  0  0  0  0  0
  147.5560  156.8770  132.9560 C   0  0  0  0  0  0  0  0  0  0  0  0
  146.4540  156.0580  133.2070 C   0  0  0  0  0  0  0  0  0  0  0  0
  145.3910  156.9170  133.3780 C   0  0  0  0  0  0  0  0  0  0  0  0
  144.0580  156.6500  133.6760 C   0  0  0  0  0  0  0  0  0  0  0  0
  143.1850  157.7420  133.8290 C   0  0  0  0  0  0  0  0  0  0  0  0
  143.6530  159.0730  133.6710 C   0  0  0  0  0  0  0  0  0  0  0  0
  142.7220  160.2360  133.8970 C   0  0  0  0  0  0  0  0  0  0  0  0
  141.7000  160.2290  132.9640 F   0  0  0  0  0  0  0  0  0  0  0  0
  142.1780  160.1420  135.1640 F   0  0  0  0  0  0  0  0  0  0  0  0
  143.4020  161.4360  133.7840 F   0  0  0  0  0  0  0  0  0  0  0  0
  145.0210  159.3020  133.3900 C   0  0  0  0  0  0  0  0  0  0  0  0
  145.8600  158.1960  133.2320 C   0  0  0  0  0  0  0  0  0  0  0  0
  147.1860  158.1890  132.9800 N   0  0  0  0  0  0  0  0  0  0  0  0
  148.0160  159.3490  132.8230 C   0  0  0  0  0  0  0  0  0  0  0  0
  148.8320  159.6610  133.7310 O   0  0  0  0  0  0  0  0  0  0  0  0
  147.9650  160.1580  131.5580 C   0  0  0  0  0  0  0  0  0  0  0  0
  149.2410  159.9780  130.7350 C   0  0  0  0  0  0  0  0  0  0  0  0
  150.3680  160.1040  131.5570 O   0  0  0  0  0  0  0  0  0  0  0  0
  150.0590  158.1850  132.6320 H   0  0  0  0  0  0  0  0  0  0  0  0
  146.4379  154.9593  133.2575 H   0  0  0  0  0  0  0  0  0  0  0  0
  143.6983  155.6166  133.7884 H   0  0  0  0  0  0  0  0  0  0  0  0
  142.1277  157.5628  134.0738 H   0  0  0  0  0  0  0  0  0  0  0  0
  145.4140  160.3253  133.2983 H   0  0  0  0  0  0  0  0  0  0  0  0
  147.1023  159.8323  130.9583 H   0  0  0  0  0  0  0  0  0  0  0  0
  147.8711  161.2204  131.8274 H   0  0  0  0  0  0  0  0  0  0  0  0
  149.2378  158.9796  130.2732 H   0  0  0  0  0  0  0  0  0  0  0  0
  149.2773  160.7524  129.9546 H   0  0  0  0  0  0  0  0  0  0  0  0
  150.3270  159.3410  132.1940 H   0  0  0  0  0  0  0  0  0  0  0  0
  1  2  1  0
  2  3  2  0
  2  4  1  0
  4  5  2  0
  5  6  1  0
  6  7  2  0
  7  8  1  0
  8  9  2  0
  9 10  1  0
 10 11  1  0
 10 12  1  0
 10 13  1  0
  9 14  1  0
 14 15  2  0
 15 16  1  0
 16 17  1  0
 17 18  2  0
 17 19  1  0
 19 20  1  0
 20 21  1  0
 16  4  1  0
 15  6  1  0
  1 22  1  0
  5 23  1  0
  7 24  1  0
  8 25  1  0
 14 26  1  0
 19 27  1  0
 19 28  1  0
 20 29  1  0
 20 30  1  0
 21 31  1  0
M  CHG  1   1  -1
M  END
>  <UniqueID>  (38) 
38

>  <SMILES>  (38) 
[NH-]C(=O)c1cc2ccc(C(F)(F)F)cc2n1C(=O)CCO

>  <Energy>  (38) 
68.28196028518002

>  <Genealogy>  (38) 
[NH-]C(=O)c1cc2ccc(C(F)(F)F)cc2n1C(=O)CCO (protonated)
[NH-]C(=O)c1cc2ccc(C(F)(F)F)cc2n1C(=O)CCO (3D coordinates assigned)
[NH-]C(=O)c1cc2ccc(C(F)(F)F)cc2n1C(=O)CCO (optimized conformer: 68.28196028518002 kcal/mol)

>  <smiles>  (38) 
NC(=O)c1cc2ccc(C(F)(F)F)cc2n1C(=O)CCO

>  <score_type>  (38) 
oracle

>  <origin>  (38) 
adg

>  <m_score__min__energy>  (38) 
-5.1699999999999999

>  <m_primary>  (38) 
energy

$$$$
40:0
     RDKit          3D

 49 50  0  0  0  0  0  0  0  0999 V2000
  139.5200  160.7860  132.2260 C   0  0  0  0  0  0  0  0  0  0  0  0
  139.9710  159.4280  131.8940 N   0  0  0  0  0  0  0  0  0  0  0  0
  139.4680  158.9910  130.5820 C   0  0  0  0  0  0  0  0  0  0  0  0
  139.7880  158.4500  132.9970 C   0  0  0  0  0  0  0  0  0  0  0  0
  140.8970  157.3880  133.1700 C   0  0  0  0  0  0  0  0  0  0  0  0
  142.2310  157.9310  132.9090 N   0  0  0  0  0  0  0  0  0  0  0  0
  143.3320  157.7650  133.8150 C   0  0  0  0  0  0  0  0  0  0  0  0
  143.2200  157.0200  134.8280 O   0  0  0  0  0  0  0  0  0  0  0  0
  144.5610  158.4720  133.5920 N   0  0  0  0  0  0  0  0  0  0  0  0
  144.7420  159.8210  133.5360 C   0  0  0  0  0  0  0  0  0  0  0  0
  143.6700  160.8380  133.5730 C   0  0  0  0  0  0  0  0  0  0  0  0
  142.3230  160.4590  133.3060 N   0  0  0  0  0  0  0  0  0  0  0  0
  143.9290  162.0350  133.8620 O   0  0  0  0  0  0  0  0  0  0  0  0
  146.0930  160.1250  133.3890 C   0  0  0  0  0  0  0  0  0  0  0  0
  146.7380  158.9100  133.3620 C   0  0  0  0  0  0  0  0  0  0  0  0
  148.0930  158.6220  133.2730 C   0  0  0  0  0  0  0  0  0  0  0  0
  148.4870  157.2750  133.3290 C   0  0  0  0  0  0  0  0  0  0  0  0
  147.5290  156.2310  133.4760 C   0  0  0  0  0  0  0  0  0  0  0  0
  147.9580  154.8470  133.5700 N   0  0  0  0  0  0  0  0  0  0  0  0
  147.5160  154.0120  134.6960 C   0  0  0  0  0  0  0  0  0  0  0  0
  148.8660  154.2530  132.5770 C   0  0  0  0  0  0  0  0  0  0  0  0
  148.8220  152.7190  132.6070 C   0  0  0  0  0  0  0  0  0  0  0  0
  147.5580  152.2400  132.2420 O   0  0  0  0  0  0  0  0  0  0  0  0
  146.1520  156.5760  133.5510 C   0  0  0  0  0  0  0  0  0  0  0  0
  145.7930  157.9260  133.4840 C   0  0  0  0  0  0  0  0  0  0  0  0
  139.4813  160.9025  133.3191 H   0  0  0  0  0  0  0  0  0  0  0  0
  140.2229  161.5193  131.8037 H   0  0  0  0  0  0  0  0  0  0  0  0
  138.5181  160.9531  131.8037 H   0  0  0  0  0  0  0  0  0  0  0  0
  138.6446  158.2757  130.7247 H   0  0  0  0  0  0  0  0  0  0  0  0
  139.1026  159.8633  130.0203 H   0  0  0  0  0  0  0  0  0  0  0  0
  140.2807  158.5073  130.0203 H   0  0  0  0  0  0  0  0  0  0  0  0
  139.7185  159.0164  133.9374 H   0  0  0  0  0  0  0  0  0  0  0  0
  138.8819  157.8837  132.7356 H   0  0  0  0  0  0  0  0  0  0  0  0
  140.8653  157.0081  134.2018 H   0  0  0  0  0  0  0  0  0  0  0  0
  140.7115  156.5855  132.4409 H   0  0  0  0  0  0  0  0  0  0  0  0
  142.3440  158.6250  132.1380 H   0  0  0  0  0  0  0  0  0  0  0  0
  142.0430  160.1060  132.3650 H   0  0  0  0  0  0  0  0  0  0  0  0
  146.5476  161.1236  133.3111 H   0  0  0  0  0  0  0  0  0  0  0  0
  148.8364  159.4251  133.1619 H   0  0  0  0  0  0  0  0  0  0  0  0
  149.5550  157.0215  133.2580 H   0  0  0  0  0  0  0  0  0  0  0  0
  147.7774  154.5059  135.6435 H   0  0  0  0  0  0  0  0  0  0  0  0
  146.4261  153.8728  134.6436 H   0  0  0  0  0  0  0  0  0  0  0  0
  148.0137  153.0324  134.6436 H   0  0  0  0  0  0  0  0  0  0  0  0
  148.5716  154.5977  131.5748 H   0  0  0  0  0  0  0  0  0  0  0  0
  149.8911  154.5696  132.8198 H   0  0  0  0  0  0  0  0  0  0  0  0
  149.5712  152.3250  131.9045 H   0  0  0  0  0  0  0  0  0  0  0  0
  149.0374  152.3850  133.6327 H   0  0  0  0  0  0  0  0  0  0  0  0
  147.1590  152.9220  131.6410 H   0  0  0  0  0  0  0  0  0  0  0  0
  145.3837  155.7963  133.6596 H   0  0  0  0  0  0  0  0  0  0  0  0
  1  2  1  0
  2  3  1  0
  2  4  1  0
  4  5  1  0
  5  6  1  0
  6  7  1  0
  7  8  2  0
  7  9  1  0
  9 10  1  0
 10 11  1  0
 11 12  1  0
 11 13  2  0
 10 14  2  0
 14 15  1  0
 15 16  2  0
 16 17  1  0
 17 18  2  0
 18 19  1  0
 19 20  1  0
 19 21  1  0
 21 22  1  0
 22 23  1  0
 18 24  1  0
 24 25  2  0
 25  9  1  0
 25 15  1  0
  1 26  1  0
  1 27  1  0
  1 28  1  0
  3 29  1  0
  3 30  1  0
  3 31  1  0
  4 32  1  0
  4 33  1  0
  5 34  1  0
  5 35  1  0
  6 36  1  0
 12 37  1  0
 14 38  1  0
 16 39  1  0
 17 40  1  0
 20 41  1  0
 20 42  1  0
 20 43  1  0
 21 44  1  0
 21 45  1  0
 22 46  1  0
 22 47  1  0
 23 48  1  0
 24 49  1  0
M  CHG  1  12  -1
M  END
>  <UniqueID>  (39) 
39

>  <SMILES>  (39) 
CN(C)CCNC(=O)n1c(C([NH-])=O)cc2ccc(N(C)CCO)cc21

>  <Energy>  (39) 
91.73772218798636

>  <Genealogy>  (39) 
CN(C)CCNC(=O)n1c(C([NH-])=O)cc2ccc(N(C)CCO)cc21 (protonated)
CN(C)CCNC(=O)n1c(C([NH-])=O)cc2ccc(N(C)CCO)cc21 (3D coordinates assigned)
CN(C)CCNC(=O)n1c(C([NH-])=O)cc2ccc(N(C)CCO)cc21 (optimized conformer: 91.73772218798636 kcal/mol)

>  <smiles>  (39) 
CN(C)CCNC(=O)n1c(C(N)=O)cc2ccc(N(C)CCO)cc21

>  <score_type>  (39) 
oracle

>  <origin>  (39) 
adg

>  <m_score__min__energy>  (39) 
-6.8799999999999999

>  <m_primary>  (39) 
energy

$$$$
41:0
     RDKit          3D

 33 35  0  0  0  0  0  0  0  0999 V2000
  150.4790  149.5740  130.6760 C   0  0  0  0  0  0  0  0  0  0  0  0
  149.9760  150.5800  131.6010 N   0  0  0  0  0  0  0  0  0  0  0  0
  149.6090  151.8340  131.2760 C   0  0  0  0  0  0  0  0  0  0  0  0
  149.2670  152.4790  132.4410 C   0  0  0  0  0  0  0  0  0  0  0  0
  148.8210  153.8370  132.5800 C   0  0  0  0  0  0  0  0  0  0  0  0
  148.4470  154.9780  132.6950 C   0  0  0  0  0  0  0  0  0  0  0  0
  148.0010  156.3390  132.8320 C   0  0  0  0  0  0  0  0  0  0  0  0
  148.9300  157.3990  132.7270 C   0  0  0  0  0  0  0  0  0  0  0  0
  148.5090  158.7310  132.8710 C   0  0  0  0  0  0  0  0  0  0  0  0
  147.1580  158.9660  133.1120 C   0  0  0  0  0  0  0  0  0  0  0  0
  146.4880  160.1500  133.3170 C   0  0  0  0  0  0  0  0  0  0  0  0
  145.1570  159.7920  133.5210 C   0  0  0  0  0  0  0  0  0  0  0  0
  144.0700  160.7770  133.6910 C   0  0  0  0  0  0  0  0  0  0  0  0
  142.7230  160.4470  133.3620 N   0  0  0  0  0  0  0  0  0  0  0  0
  144.3400  161.9420  134.0870 O   0  0  0  0  0  0  0  0  0  0  0  0
  145.0090  158.4380  133.4530 N   0  0  0  0  0  0  0  0  0  0  0  0
  143.8200  157.6710  133.7020 C   0  0  0  0  0  0  0  0  0  0  0  0
  142.8840  157.6560  132.8590 O   0  0  0  0  0  0  0  0  0  0  0  0
  143.7020  156.9150  134.8620 O   0  0  0  0  0  0  0  0  0  0  0  0
  146.2430  157.9460  133.1990 C   0  0  0  0  0  0  0  0  0  0  0  0
  146.6390  156.6090  133.0770 C   0  0  0  0  0  0  0  0  0  0  0  0
  149.4610  151.5610  133.4520 C   0  0  0  0  0  0  0  0  0  0  0  0
  149.9040  150.4070  132.9130 N   0  0  0  0  0  0  0  0  0  0  0  0
  150.9003  148.7315  131.2441 H   0  0  0  0  0  0  0  0  0  0  0  0
  149.6550  149.2136  130.0426 H   0  0  0  0  0  0  0  0  0  0  0  0
  151.2617  150.0170  130.0426 H   0  0  0  0  0  0  0  0  0  0  0  0
  149.5868  152.2638  130.2637 H   0  0  0  0  0  0  0  0  0  0  0  0
  149.9899  157.1792  132.5312 H   0  0  0  0  0  0  0  0  0  0  0  0
  149.2246  159.5630  132.7957 H   0  0  0  0  0  0  0  0  0  0  0  0
  146.9131  161.1645  133.3194 H   0  0  0  0  0  0  0  0  0  0  0  0
  142.5070  159.7710  132.5960 H   0  0  0  0  0  0  0  0  0  0  0  0
  145.9083  155.7920  133.1696 H   0  0  0  0  0  0  0  0  0  0  0  0
  149.2834  151.7408  134.5226 H   0  0  0  0  0  0  0  0  0  0  0  0
  1  2  1  0
  2  3  1  0
  3  4  2  0
  4  5  1  0
  5  6  3  0
  6  7  1  0
  7  8  2  0
  8  9  1  0
  9 10  2  0
 10 11  1  0
 11 12  2  0
 12 13  1  0
 13 14  1  0
 13 15  2  0
 12 16  1  0
 16 17  1  0
 17 18  2  0
 17 19  1  0
 16 20  1  0
 20 21  2  0
  4 22  1  0
 22 23  2  0
 23  2  1  0
 21  7  1  0
 20 10  1  0
  1 24  1  0
  1 25  1  0
  1 26  1  0
  3 27  1  0
  8 28  1  0
  9 29  1  0
 11 30  1  0
 14 31  1  0
 21 32  1  0
 22 33  1  0
M  CHG  2  14  -1  19  -1
M  END
>  <UniqueID>  (40) 
40

>  <SMILES>  (40) 
Cn1cc(C#Cc2ccc3cc(C([NH-])=O)n(C(=O)[O-])c3c2)cn1

>  <Energy>  (40) 
100.8689295903307

>  <Genealogy>  (40) 
Cn1cc(C#Cc2ccc3cc(C([NH-])=O)n(C(=O)[O-])c3c2)cn1 (protonated)
Cn1cc(C#Cc2ccc3cc(C([NH-])=O)n(C(=O)[O-])c3c2)cn1 (3D coordinates assigned)
Cn1cc(C#Cc2ccc3cc(C([NH-])=O)n(C(=O)[O-])c3c2)cn1 (optimized conformer: 100.8689295903307 kcal/mol)

>  <smiles>  (40) 
Cn1cc(C#Cc2ccc3cc(C(N)=O)n(C(=O)O)c3c2)cn1

>  <score_type>  (40) 
oracle

>  <origin>  (40) 
adg

>  <m_score__min__energy>  (40) 
-7.7999999999999998

>  <m_primary>  (40) 
energy

$$$$
42:0
     RDKit          3D

 47 49  0  0  0  0  0  0  0  0999 V2000
  149.5750  161.6880  130.3610 C   0  0  0  0  0  0  0  0  0  0  0  0
  149.1730  160.5100  131.1810 C   0  0  0  0  0  0  0  0  0  0  0  0
  150.0260  159.5650  131.6230 N   0  0  0  0  0  0  0  0  0  0  0  0
  149.2930  158.6970  132.3020 N   0  0  0  0  0  0  0  0  0  0  0  0
  148.0220  159.1460  132.2470 C   0  0  0  0  0  0  0  0  0  0  0  0
  146.8710  158.4730  132.8760 C   0  0  0  0  0  0  0  0  0  0  0  0
  145.5870  159.0750  132.8600 C   0  0  0  0  0  0  0  0  0  0  0  0
  144.4930  158.4460  133.4810 C   0  0  0  0  0  0  0  0  0  0  0  0
  144.7100  157.2180  134.1010 C   0  0  0  0  0  0  0  0  0  0  0  0
  143.8380  156.3960  134.7790 C   0  0  0  0  0  0  0  0  0  0  0  0
  144.5970  155.2940  135.1720 C   0  0  0  0  0  0  0  0  0  0  0  0
  144.0400  154.1000  135.8410 C   0  0  0  0  0  0  0  0  0  0  0  0
  144.5640  153.6480  137.0930 N   0  0  0  0  0  0  0  0  0  0  0  0
  143.0890  153.4670  135.3080 O   0  0  0  0  0  0  0  0  0  0  0  0
  145.8890  155.4360  134.7620 N   0  0  0  0  0  0  0  0  0  0  0  0
  147.0000  154.5660  135.0300 C   0  0  0  0  0  0  0  0  0  0  0  0
  147.0080  153.8650  136.0790 O   0  0  0  0  0  0  0  0  0  0  0  0
  148.1110  154.4060  134.0280 C   0  0  0  0  0  0  0  0  0  0  0  0
  147.8290  153.2640  133.0430 C   0  0  0  0  0  0  0  0  0  0  0  0
  149.1070  152.7600  132.3520 C   0  0  0  0  0  0  0  0  0  0  0  0
  149.2520  151.2970  132.5200 N   0  0  0  0  0  0  0  0  0  0  0  0
  149.6830  150.9860  133.8940 C   0  0  0  0  0  0  0  0  0  0  0  0
  150.2330  150.7500  131.5670 C   0  0  0  0  0  0  0  0  0  0  0  0
  145.9410  156.6130  134.1040 C   0  0  0  0  0  0  0  0  0  0  0  0
  147.0500  157.2230  133.5080 C   0  0  0  0  0  0  0  0  0  0  0  0
  147.9430  160.2600  131.5590 O   0  0  0  0  0  0  0  0  0  0  0  0
  149.8581  162.5178  131.0253 H   0  0  0  0  0  0  0  0  0  0  0  0
  150.4318  161.4177  129.7263 H   0  0  0  0  0  0  0  0  0  0  0  0
  148.7317  161.9979  129.7263 H   0  0  0  0  0  0  0  0  0  0  0  0
  145.4454  160.0430  132.3571 H   0  0  0  0  0  0  0  0  0  0  0  0
  143.4957  158.9102  133.4771 H   0  0  0  0  0  0  0  0  0  0  0  0
  142.7690  156.5714  134.9702 H   0  0  0  0  0  0  0  0  0  0  0  0
  145.3950  154.1050  137.5270 H   0  0  0  0  0  0  0  0  0  0  0  0
  144.1590  152.8040  137.5580 H   0  0  0  0  0  0  0  0  0  0  0  0
  148.2198  155.3441  133.4640 H   0  0  0  0  0  0  0  0  0  0  0  0
  149.0339  154.1652  134.5759 H   0  0  0  0  0  0  0  0  0  0  0  0
  147.3708  152.4283  133.5922 H   0  0  0  0  0  0  0  0  0  0  0  0
  147.1554  153.6504  132.2639 H   0  0  0  0  0  0  0  0  0  0  0  0
  149.0543  152.9965  131.2790 H   0  0  0  0  0  0  0  0  0  0  0  0
  149.9752  153.2558  132.8107 H   0  0  0  0  0  0  0  0  0  0  0  0
  149.0059  151.4746  134.6101 H   0  0  0  0  0  0  0  0  0  0  0  0
  149.6569  149.8973  134.0489 H   0  0  0  0  0  0  0  0  0  0  0  0
  150.7080  151.3539  134.0489 H   0  0  0  0  0  0  0  0  0  0  0  0
  151.0632  150.2871  132.1206 H   0  0  0  0  0  0  0  0  0  0  0  0
  149.7468  149.9928  130.9344 H   0  0  0  0  0  0  0  0  0  0  0  0
  150.6216  151.5617  130.9344 H   0  0  0  0  0  0  0  0  0  0  0  0
  148.0381  156.7403  133.5311 H   0  0  0  0  0  0  0  0  0  0  0  0
  1  2  1  0
  2  3  2  0
  3  4  1  0
  4  5  2  0
  5  6  1  0
  6  7  2  0
  7  8  1  0
  8  9  2  0
  9 10  1  0
 10 11  2  0
 11 12  1  0
 12 13  1  0
 12 14  2  0
 11 15  1  0
 15 16  1  0
 16 17  2  0
 16 18  1  0
 18 19  1  0
 19 20  1  0
 20 21  1  0
 21 22  1  0
 21 23  1  0
 15 24  1  0
 24 25  2  0
  5 26  1  0
 26  2  1  0
 25  6  1  0
 24  9  1  0
  1 27  1  0
  1 28  1  0
  1 29  1  0
  7 30  1  0
  8 31  1  0
 10 32  1  0
 13 33  1  0
 13 34  1  0
 18 35  1  0
 18 36  1  0
 19 37  1  0
 19 38  1  0
 20 39  1  0
 20 40  1  0
 22 41  1  0
 22 42  1  0
 22 43  1  0
 23 44  1  0
 23 45  1  0
 23 46  1  0
 25 47  1  0
M  END
>  <UniqueID>  (41) 
41

>  <SMILES>  (41) 
Cc1nnc(-c2ccc3cc(C(N)=O)n(C(=O)CCCN(C)C)c3c2)o1

>  <Energy>  (41) 
116.36287267005085

>  <Genealogy>  (41) 
Cc1nnc(-c2ccc3cc(C(N)=O)n(C(=O)CCCN(C)C)c3c2)o1 (3D coordinates assigned)
Cc1nnc(-c2ccc3cc(C(N)=O)n(C(=O)CCCN(C)C)c3c2)o1 (optimized conformer: 116.36287267005085 kcal/mol)

>  <smiles>  (41) 
Cc1nnc(-c2ccc3cc(C(N)=O)n(C(=O)CCCN(C)C)c3c2)o1

>  <score_type>  (41) 
oracle

>  <origin>  (41) 
adg

>  <m_score__min__energy>  (41) 
-8.1400000000000006

>  <m_primary>  (41) 
energy

$$$$
43:0
     RDKit          3D

 28 29  0  0  0  0  0  0  0  0999 V2000
  148.9160  157.4640  131.8470 N   0  0  0  0  0  0  0  0  0  0  0  0
  148.6300  158.6140  132.6450 C   0  0  0  0  0  0  0  0  0  0  0  0
  149.5770  159.3660  132.9960 O   0  0  0  0  0  0  0  0  0  0  0  0
  147.2460  158.9150  133.0750 C   0  0  0  0  0  0  0  0  0  0  0  0
  146.7240  160.2020  133.2020 C   0  0  0  0  0  0  0  0  0  0  0  0
  145.3980  160.0290  133.5270 C   0  0  0  0  0  0  0  0  0  0  0  0
  144.3990  160.9700  133.7620 C   0  0  0  0  0  0  0  0  0  0  0  0
  143.1130  160.4990  134.0820 C   0  0  0  0  0  0  0  0  0  0  0  0
  142.8560  159.1080  134.1730 C   0  0  0  0  0  0  0  0  0  0  0  0
  141.4720  158.6190  134.4870 C   0  0  0  0  0  0  0  0  0  0  0  0
  141.1300  158.8610  136.2180 Cl  0  0  0  0  0  0  0  0  0  0  0  0
  143.8900  158.1830  133.9140 C   0  0  0  0  0  0  0  0  0  0  0  0
  145.1560  158.6810  133.5890 C   0  0  0  0  0  0  0  0  0  0  0  0
  146.2800  157.9870  133.3200 N   0  0  0  0  0  0  0  0  0  0  0  0
  146.4060  156.5560  133.3290 C   0  0  0  0  0  0  0  0  0  0  0  0
  146.3690  155.9230  132.2400 O   0  0  0  0  0  0  0  0  0  0  0  0
  146.5100  155.7920  134.6170 C   0  0  0  0  0  0  0  0  0  0  0  0
  147.5030  156.3180  135.4230 F   0  0  0  0  0  0  0  0  0  0  0  0
  146.7950  154.4660  134.3510 F   0  0  0  0  0  0  0  0  0  0  0  0
  145.3050  155.8690  135.2890 F   0  0  0  0  0  0  0  0  0  0  0  0
  149.9010  157.2440  131.5810 H   0  0  0  0  0  0  0  0  0  0  0  0
  148.1540  156.8520  131.4810 H   0  0  0  0  0  0  0  0  0  0  0  0
  147.2590  161.1540  133.0702 H   0  0  0  0  0  0  0  0  0  0  0  0
  144.6090  162.0480  133.6993 H   0  0  0  0  0  0  0  0  0  0  0  0
  142.2993  161.2166  134.2633 H   0  0  0  0  0  0  0  0  0  0  0  0
  140.7406  159.1808  133.8875 H   0  0  0  0  0  0  0  0  0  0  0  0
  141.4003  157.5479  134.2471 H   0  0  0  0  0  0  0  0  0  0  0  0
  143.7053  157.0999  133.9663 H   0  0  0  0  0  0  0  0  0  0  0  0
  1  2  1  0
  2  3  2  0
  2  4  1  0
  4  5  2  0
  5  6  1  0
  6  7  2  0
  7  8  1  0
  8  9  2  0
  9 10  1  0
 10 11  1  0
  9 12  1  0
 12 13  2  0
 13 14  1  0
 14 15  1  0
 15 16  2  0
 15 17  1  0
 17 18  1  0
 17 19  1  0
 17 20  1  0
 14  4  1  0
 13  6  1  0
  1 21  1  0
  1 22  1  0
  5 23  1  0
  7 24  1  0
  8 25  1  0
 10 26  1  0
 10 27  1  0
 12 28  1  0
M  END
>  <UniqueID>  (42) 
42

>  <SMILES>  (42) 
NC(=O)c1cc2ccc(CCl)cc2n1C(=O)C(F)(F)F

>  <Energy>  (42) 
66.91224845810153

>  <Genealogy>  (42) 
NC(=O)c1cc2ccc(CCl)cc2n1C(=O)C(F)(F)F (3D coordinates assigned)
NC(=O)c1cc2ccc(CCl)cc2n1C(=O)C(F)(F)F (optimized conformer: 66.91224845810153 kcal/mol)

>  <smiles>  (42) 
NC(=O)c1cc2ccc(CCl)cc2n1C(=O)C(F)(F)F

>  <score_type>  (42) 
oracle

>  <origin>  (42) 
adg

>  <m_score__min__energy>  (42) 
-5.7400000000000002

>  <m_primary>  (42) 
energy

$$$$
44:0
     RDKit          3D

 37 38  0  0  0  0  0  0  0  0999 V2000
  147.8260  152.3100  133.3640 N   0  0  0  0  0  0  0  0  0  0  0  0
  148.7510  153.3350  133.0000 C   0  0  0  0  0  0  0  0  0  0  0  0
  149.9480  153.0280  132.7570 O   0  0  0  0  0  0  0  0  0  0  0  0
  148.3460  154.7550  132.9650 C   0  0  0  0  0  0  0  0  0  0  0  0
  149.2060  155.7900  132.6110 C   0  0  0  0  0  0  0  0  0  0  0  0
  148.4660  156.9420  132.7540 C   0  0  0  0  0  0  0  0  0  0  0  0
  148.8190  158.2650  132.5150 C   0  0  0  0  0  0  0  0  0  0  0  0
  147.8360  159.2520  132.7000 C   0  0  0  0  0  0  0  0  0  0  0  0
  146.5240  158.9070  133.1070 C   0  0  0  0  0  0  0  0  0  0  0  0
  145.5440  159.9520  133.2650 N   0  0  0  0  0  0  0  0  0  0  0  0
  144.1780  159.7420  133.7440 C   0  0  0  0  0  0  0  0  0  0  0  0
  143.4190  161.0310  133.7520 C   0  0  0  0  0  0  0  0  0  0  0  0
  142.1600  161.0230  133.7990 O   0  0  0  0  0  0  0  0  0  0  0  0
  144.0980  162.2400  133.6870 O   0  0  0  0  0  0  0  0  0  0  0  0
  146.2060  157.5460  133.3430 C   0  0  0  0  0  0  0  0  0  0  0  0
  147.2090  156.5860  133.1710 C   0  0  0  0  0  0  0  0  0  0  0  0
  147.1190  155.2420  133.3040 N   0  0  0  0  0  0  0  0  0  0  0  0
  145.9320  154.4870  133.5960 C   0  0  0  0  0  0  0  0  0  0  0  0
  145.7270  154.0630  134.7650 O   0  0  0  0  0  0  0  0  0  0  0  0
  145.0110  154.2230  132.5760 O   0  0  0  0  0  0  0  0  0  0  0  0
  143.7050  153.6970  132.8060 C   0  0  0  0  0  0  0  0  0  0  0  0
  143.7380  152.1680  132.8650 C   0  0  0  0  0  0  0  0  0  0  0  0
  145.0560  151.6940  132.9210 O   0  0  0  0  0  0  0  0  0  0  0  0
  148.1200  151.3080  133.3420 H   0  0  0  0  0  0  0  0  0  0  0  0
  146.8780  152.5440  133.7340 H   0  0  0  0  0  0  0  0  0  0  0  0
  150.2536  155.7057  132.2862 H   0  0  0  0  0  0  0  0  0  0  0  0
  149.8360  158.5311  132.1912 H   0  0  0  0  0  0  0  0  0  0  0  0
  148.0892  160.3082  132.5261 H   0  0  0  0  0  0  0  0  0  0  0  0
  145.8170  160.9310  133.0210 H   0  0  0  0  0  0  0  0  0  0  0  0
  143.6686  159.0266  133.0816 H   0  0  0  0  0  0  0  0  0  0  0  0
  144.2186  159.3480  134.7702 H   0  0  0  0  0  0  0  0  0  0  0  0
  145.1930  157.2512  133.6545 H   0  0  0  0  0  0  0  0  0  0  0  0
  143.3222  154.0867  133.7608 H   0  0  0  0  0  0  0  0  0  0  0  0
  143.0501  154.0040  131.9773 H   0  0  0  0  0  0  0  0  0  0  0  0
  143.1966  151.8312  133.7613 H   0  0  0  0  0  0  0  0  0  0  0  0
  143.2626  151.7727  131.9552 H   0  0  0  0  0  0  0  0  0  0  0  0
  145.5510  152.3030  133.5290 H   0  0  0  0  0  0  0  0  0  0  0  0
  1  2  1  0
  2  3  2  0
  2  4  1  0
  4  5  2  0
  5  6  1  0
  6  7  2  0
  7  8  1  0
  8  9  2  0
  9 10  1  0
 10 11  1  0
 11 12  1  0
 12 13  2  0
 12 14  1  0
  9 15  1  0
 15 16  2  0
 16 17  1  0
 17 18  1  0
 18 19  2  0
 18 20  1  0
 20 21  1  0
 21 22  1  0
 22 23  1  0
 17  4  1  0
 16  6  1  0
  1 24  1  0
  1 25  1  0
  5 26  1  0
  7 27  1  0
  8 28  1  0
 10 29  1  0
 11 30  1  0
 11 31  1  0
 15 32  1  0
 21 33  1  0
 21 34  1  0
 22 35  1  0
 22 36  1  0
 23 37  1  0
M  CHG  1  14  -1
M  END
>  <UniqueID>  (43) 
43

>  <SMILES>  (43) 
NC(=O)c1cc2ccc(NCC(=O)[O-])cc2n1C(=O)OCCO

>  <Energy>  (43) 
71.95729121577236

>  <Genealogy>  (43) 
NC(=O)c1cc2ccc(NCC(=O)[O-])cc2n1C(=O)OCCO (protonated)
NC(=O)c1cc2ccc(NCC(=O)[O-])cc2n1C(=O)OCCO (3D coordinates assigned)
NC(=O)c1cc2ccc(NCC(=O)[O-])cc2n1C(=O)OCCO (optimized conformer: 71.95729121577236 kcal/mol)

>  <smiles>  (43) 
NC(=O)c1cc2ccc(NCC(=O)O)cc2n1C(=O)OCCO

>  <score_type>  (43) 
oracle

>  <origin>  (43) 
adg

>  <m_score__min__energy>  (43) 
-6.4699999999999998

>  <m_primary>  (43) 
energy

$$$$
45:0
     RDKit          3D

 36 38  0  0  0  0  0  0  0  0999 V2000
  148.4800  151.9930  132.8190 C   0  0  0  0  0  0  0  0  0  0  0  0
  148.5750  153.4760  132.9710 C   0  0  0  0  0  0  0  0  0  0  0  0
  149.3880  154.2480  132.2260 N   0  0  0  0  0  0  0  0  0  0  0  0
  149.1950  155.4790  132.5990 O   0  0  0  0  0  0  0  0  0  0  0  0
  148.2970  155.5590  133.5550 C   0  0  0  0  0  0  0  0  0  0  0  0
  147.9240  156.8340  134.1930 C   0  0  0  0  0  0  0  0  0  0  0  0
  148.4740  157.1500  135.2820 O   0  0  0  0  0  0  0  0  0  0  0  0
  146.9080  157.6900  133.6430 N   0  0  0  0  0  0  0  0  0  0  0  0
  147.0930  158.8440  132.9420 C   0  0  0  0  0  0  0  0  0  0  0  0
  148.4020  159.3640  132.4830 C   0  0  0  0  0  0  0  0  0  0  0  0
  149.5960  158.6000  132.6550 N   0  0  0  0  0  0  0  0  0  0  0  0
  148.4770  160.5020  131.9500 O   0  0  0  0  0  0  0  0  0  0  0  0
  145.8650  159.4310  132.6400 C   0  0  0  0  0  0  0  0  0  0  0  0
  144.9170  158.6010  133.1940 C   0  0  0  0  0  0  0  0  0  0  0  0
  143.5300  158.7040  133.1950 C   0  0  0  0  0  0  0  0  0  0  0  0
  142.7960  157.7080  133.8610 C   0  0  0  0  0  0  0  0  0  0  0  0
  143.4570  156.6490  134.5360 C   0  0  0  0  0  0  0  0  0  0  0  0
  142.6610  155.5620  135.2120 C   0  0  0  0  0  0  0  0  0  0  0  0
  141.5230  156.1140  135.7720 F   0  0  0  0  0  0  0  0  0  0  0  0
  142.2900  154.5900  134.3010 F   0  0  0  0  0  0  0  0  0  0  0  0
  143.4060  154.9580  136.2100 F   0  0  0  0  0  0  0  0  0  0  0  0
  144.8680  156.5700  134.4930 C   0  0  0  0  0  0  0  0  0  0  0  0
  145.5720  157.5630  133.8010 C   0  0  0  0  0  0  0  0  0  0  0  0
  147.8410  154.2750  133.8340 C   0  0  0  0  0  0  0  0  0  0  0  0
  146.7610  153.8440  134.7410 C   0  0  0  0  0  0  0  0  0  0  0  0
  145.5890  153.6830  134.3120 O   0  0  0  0  0  0  0  0  0  0  0  0
  147.0340  153.5700  136.0750 O   0  0  0  0  0  0  0  0  0  0  0  0
  148.4499  151.5237  133.8134 H   0  0  0  0  0  0  0  0  0  0  0  0
  147.5637  151.7390  132.2658 H   0  0  0  0  0  0  0  0  0  0  0  0
  149.3564  151.6242  132.2658 H   0  0  0  0  0  0  0  0  0  0  0  0
  149.5720  157.6260  133.0330 H   0  0  0  0  0  0  0  0  0  0  0  0
  150.5160  158.9940  132.3600 H   0  0  0  0  0  0  0  0  0  0  0  0
  145.6907  160.3604  132.0781 H   0  0  0  0  0  0  0  0  0  0  0  0
  143.0232  159.5395  132.6900 H   0  0  0  0  0  0  0  0  0  0  0  0
  141.6968  157.7496  133.8591 H   0  0  0  0  0  0  0  0  0  0  0  0
  145.4007  155.7470  134.9919 H   0  0  0  0  0  0  0  0  0  0  0  0
  1  2  1  0
  2  3  2  0
  3  4  1  0
  4  5  1  0
  5  6  1  0
  6  7  2  0
  6  8  1  0
  8  9  1  0
  9 10  1  0
 10 11  1  0
 10 12  2  0
  9 13  2  0
 13 14  1  0
 14 15  2  0
 15 16  1  0
 16 17  2  0
 17 18  1  0
 18 19  1  0
 18 20  1  0
 18 21  1  0
 17 22  1  0
 22 23  2  0
  5 24  2  0
 24 25  1  0
 25 26  2  0
 25 27  1  0
 24  2  1  0
 23  8  1  0
 23 14  1  0
  1 28  1  0
  1 29  1  0
  1 30  1  0
 11 31  1  0
 11 32  1  0
 13 33  1  0
 15 34  1  0
 16 35  1  0
 22 36  1  0
M  CHG  1  27  -1
M  END
>  <UniqueID>  (44) 
44

>  <SMILES>  (44) 
Cc1noc(C(=O)n2c(C(N)=O)cc3ccc(C(F)(F)F)cc32)c1C(=O)[O-]

>  <Energy>  (44) 
110.97718366697397

>  <Genealogy>  (44) 
Cc1noc(C(=O)n2c(C(N)=O)cc3ccc(C(F)(F)F)cc32)c1C(=O)[O-] (protonated)
Cc1noc(C(=O)n2c(C(N)=O)cc3ccc(C(F)(F)F)cc32)c1C(=O)[O-] (3D coordinates assigned)
Cc1noc(C(=O)n2c(C(N)=O)cc3ccc(C(F)(F)F)cc32)c1C(=O)[O-] (optimized conformer: 110.97718366697397 kcal/mol)

>  <smiles>  (44) 
Cc1noc(C(=O)n2c(C(N)=O)cc3ccc(C(F)(F)F)cc32)c1C(=O)O

>  <score_type>  (44) 
oracle

>  <origin>  (44) 
adg

>  <m_score__min__energy>  (44) 
-7.7000000000000002

>  <m_primary>  (44) 
energy

$$$$
46:0
     RDKit          3D

 40 42  0  0  0  0  0  0  0  0999 V2000
  147.3520  156.3720  134.9190 C   0  0  0  0  0  0  0  0  0  0  0  0
  146.6670  157.0050  133.6860 C   0  0  1  0  0  0  0  0  0  0  0  0
  146.7470  158.5520  133.7690 C   0  0  2  0  0  0  0  0  0  0  0  0
  145.3790  159.2110  133.6970 C   0  0  0  0  0  0  0  0  0  0  0  0
  145.2370  160.6180  133.8380 C   0  0  0  0  0  0  0  0  0  0  0  0
  143.9760  161.2260  133.7500 C   0  0  0  0  0  0  0  0  0  0  0  0
  142.8720  160.4110  133.5310 C   0  0  0  0  0  0  0  0  0  0  0  0
  141.5480  160.7450  133.3760 C   0  0  0  0  0  0  0  0  0  0  0  0
  140.8830  159.5390  133.1650 C   0  0  0  0  0  0  0  0  0  0  0  0
  139.4160  159.4420  133.0050 C   0  0  0  0  0  0  0  0  0  0  0  0
  138.7100  160.3190  132.1310 N   0  0  0  0  0  0  0  0  0  0  0  0
  138.7800  158.5420  133.6160 O   0  0  0  0  0  0  0  0  0  0  0  0
  141.7620  158.4970  133.1820 N   0  0  0  0  0  0  0  0  0  0  0  0
  141.4680  157.1130  132.9250 C   0  0  0  0  0  0  0  0  0  0  0  0
  141.6900  156.2310  133.7950 O   0  0  0  0  0  0  0  0  0  0  0  0
  142.9790  159.0490  133.4080 C   0  0  0  0  0  0  0  0  0  0  0  0
  144.2290  158.4180  133.4710 C   0  0  0  0  0  0  0  0  0  0  0  0
  147.6640  158.9800  132.6190 C   0  0  0  0  0  0  0  0  0  0  0  0
  148.2570  157.6870  132.0870 C   0  0  0  0  0  0  0  0  0  0  0  0
  147.2850  156.6330  132.3910 N   0  0  1  0  0  0  0  0  0  0  0  0
  147.8820  155.2870  132.3150 C   0  0  0  0  0  0  0  0  0  0  0  0
  146.9070  156.7832  135.8371 H   0  0  0  0  0  0  0  0  0  0  0  0
  147.2086  155.2816  134.8986 H   0  0  0  0  0  0  0  0  0  0  0  0
  148.4277  156.6008  134.8986 H   0  0  0  0  0  0  0  0  0  0  0  0
  145.6355  156.6238  133.7116 H   0  0  0  0  0  0  0  0  0  0  0  0
  147.1493  158.8762  134.7401 H   0  0  0  0  0  0  0  0  0  0  0  0
  146.1274  161.2382  134.0184 H   0  0  0  0  0  0  0  0  0  0  0  0
  143.8643  162.3156  133.8513 H   0  0  0  0  0  0  0  0  0  0  0  0
  141.1065  161.7519  133.4111 H   0  0  0  0  0  0  0  0  0  0  0  0
  138.3560  161.2420  132.4660 H   0  0  0  0  0  0  0  0  0  0  0  0
  141.0427  156.8208  131.9535 H   0  0  0  0  0  0  0  0  0  0  0  0
  144.3143  157.3283  133.3472 H   0  0  0  0  0  0  0  0  0  0  0  0
  147.0873  159.4923  131.8348 H   0  0  0  0  0  0  0  0  0  0  0  0
  148.4406  159.6851  132.9503 H   0  0  0  0  0  0  0  0  0  0  0  0
  148.4139  157.7586  131.0006 H   0  0  0  0  0  0  0  0  0  0  0  0
  149.2332  157.4756  132.5477 H   0  0  0  0  0  0  0  0  0  0  0  0
  146.5370  156.6730  131.6570 H   0  0  0  0  0  0  0  0  0  0  0  0
  148.0521  154.9034  133.3318 H   0  0  0  0  0  0  0  0  0  0  0  0
  147.1986  154.6126  131.7782 H   0  0  0  0  0  0  0  0  0  0  0  0
  148.8406  155.3409  131.7782 H   0  0  0  0  0  0  0  0  0  0  0  0
  1  2  1  0
  2  3  1  0
  3  4  1  0
  4  5  2  0
  5  6  1  0
  6  7  2  0
  7  8  1  0
  8  9  2  0
  9 10  1  0
 10 11  1  0
 10 12  2  0
  9 13  1  0
 13 14  1  0
 14 15  2  0
 13 16  1  0
 16 17  2  0
  3 18  1  0
 18 19  1  0
 19 20  1  0
 20 21  1  0
 20  2  1  0
 17  4  1  0
 16  7  1  0
  1 22  1  0
  1 23  1  0
  1 24  1  0
  2 25  1  6
  3 26  1  1
  5 27  1  0
  6 28  1  0
  8 29  1  0
 11 30  1  0
 14 31  1  0
 17 32  1  0
 18 33  1  0
 18 34  1  0
 19 35  1  0
 19 36  1  0
 20 37  1  6
 21 38  1  0
 21 39  1  0
 21 40  1  0
M  CHG  2  11  -1  20   1
M  END
>  <UniqueID>  (45) 
45

>  <SMILES>  (45) 
C[C@H]1[C@H](c2ccc3cc(C([NH-])=O)n(C=O)c3c2)CC[NH+]1C

>  <Energy>  (45) 
88.02440498531297

>  <Genealogy>  (45) 
CC1C(c2ccc3cc(C([NH-])=O)n(C=O)c3c2)CC[NH+]1C (protonated)
C[C@H]1[C@H](c2ccc3cc(C([NH-])=O)n(C=O)c3c2)CC[NH+]1C (chirality)
C[C@H]1[C@H](c2ccc3cc(C([NH-])=O)n(C=O)c3c2)CC[NH+]1C (3D coordinates assigned)
C[C@H]1[C@H](c2ccc3cc(C([NH-])=O)n(C=O)c3c2)CC[NH+]1C (nonaromatic ring conformer: 88.02440498531297 kcal/mol)

>  <smiles>  (45) 
CC1C(c2ccc3cc(C(N)=O)n(C=O)c3c2)CCN1C

>  <score_type>  (45) 
oracle

>  <origin>  (45) 
adg

>  <m_score__min__energy>  (45) 
-6.6600000000000001

>  <m_primary>  (45) 
energy

$$$$
47:0
     RDKit          3D

 43 44  0  0  0  0  0  0  0  0999 V2000
  147.4050  154.9640  135.3540 C   0  0  0  0  0  0  0  0  0  0  0  0
  146.6800  155.8630  134.3450 C   0  0  1  0  0  0  0  0  0  0  0  0
  147.5110  156.1550  133.0710 C   0  0  0  0  0  0  0  0  0  0  0  0
  148.8930  156.1660  133.3180 O   0  0  0  0  0  0  0  0  0  0  0  0
  145.3230  155.3530  134.0400 N   0  0  0  0  0  0  0  0  0  0  0  0
  145.0430  153.9230  134.2290 C   0  0  0  0  0  0  0  0  0  0  0  0
  144.3640  156.1150  133.2760 C   0  0  0  0  0  0  0  0  0  0  0  0
  143.9700  155.6780  132.1610 O   0  0  0  0  0  0  0  0  0  0  0  0
  143.8450  157.3650  133.7510 N   0  0  0  0  0  0  0  0  0  0  0  0
  142.5800  157.6410  134.1850 C   0  0  0  0  0  0  0  0  0  0  0  0
  141.4720  156.6600  134.2920 C   0  0  0  0  0  0  0  0  0  0  0  0
  141.2830  155.6450  133.3020 N   0  0  0  0  0  0  0  0  0  0  0  0
  140.6830  156.6980  135.2740 O   0  0  0  0  0  0  0  0  0  0  0  0
  142.4480  159.0100  134.4410 C   0  0  0  0  0  0  0  0  0  0  0  0
  143.6670  159.5630  134.1240 C   0  0  0  0  0  0  0  0  0  0  0  0
  144.0840  160.8920  134.1540 C   0  0  0  0  0  0  0  0  0  0  0  0
  145.3950  161.1790  133.7390 C   0  0  0  0  0  0  0  0  0  0  0  0
  146.2610  160.1390  133.3090 C   0  0  0  0  0  0  0  0  0  0  0  0
  147.6490  160.4610  132.8330 C   0  0  0  0  0  0  0  0  0  0  0  0
  148.5600  159.2990  133.0710 C   0  0  0  0  0  0  0  0  0  0  0  0
  148.7770  158.8240  134.3990 N   0  0  0  0  0  0  0  0  0  0  0  0
  149.1270  158.7330  132.0970 O   0  0  0  0  0  0  0  0  0  0  0  0
  145.7950  158.8070  133.2750 C   0  0  0  0  0  0  0  0  0  0  0  0
  144.4870  158.5520  133.6990 C   0  0  0  0  0  0  0  0  0  0  0  0
  147.1500  155.2802  136.3763 H   0  0  0  0  0  0  0  0  0  0  0  0
  147.0934  153.9197  135.2047 H   0  0  0  0  0  0  0  0  0  0  0  0
  148.4916  155.0473  135.2047 H   0  0  0  0  0  0  0  0  0  0  0  0
  146.5571  156.8410  134.8334 H   0  0  0  0  0  0  0  0  0  0  0  0
  147.2931  155.3787  132.3228 H   0  0  0  0  0  0  0  0  0  0  0  0
  147.2290  157.1557  132.7117 H   0  0  0  0  0  0  0  0  0  0  0  0
  149.1410  157.1040  133.5310 H   0  0  0  0  0  0  0  0  0  0  0  0
  144.9988  153.6971  135.3046 H   0  0  0  0  0  0  0  0  0  0  0  0
  144.0789  153.6733  133.7619 H   0  0  0  0  0  0  0  0  0  0  0  0
  145.8417  153.3281  133.7619 H   0  0  0  0  0  0  0  0  0  0  0  0
  141.8390  155.6130  132.4220 H   0  0  0  0  0  0  0  0  0  0  0  0
  140.5360  154.9280  133.4310 H   0  0  0  0  0  0  0  0  0  0  0  0
  141.5568  159.5340  134.8168 H   0  0  0  0  0  0  0  0  0  0  0  0
  143.4080  161.6913  134.4920 H   0  0  0  0  0  0  0  0  0  0  0  0
  145.7540  162.2187  133.7472 H   0  0  0  0  0  0  0  0  0  0  0  0
  147.6208  160.6859  131.7566 H   0  0  0  0  0  0  0  0  0  0  0  0
  148.0259  161.3319  133.3893 H   0  0  0  0  0  0  0  0  0  0  0  0
  149.2320  157.8990  134.5630 H   0  0  0  0  0  0  0  0  0  0  0  0
  146.4438  157.9909  132.9241 H   0  0  0  0  0  0  0  0  0  0  0  0
  1  2  1  0
  2  3  1  0
  3  4  1  0
  2  5  1  0
  5  6  1  0
  5  7  1  0
  7  8  2  0
  7  9  1  0
  9 10  1  0
 10 11  1  0
 11 12  1  0
 11 13  2  0
 10 14  2  0
 14 15  1  0
 15 16  2  0
 16 17  1  0
 17 18  2  0
 18 19  1  0
 19 20  1  0
 20 21  1  0
 20 22  2  0
 18 23  1  0
 23 24  2  0
 24  9  1  0
 24 15  1  0
  1 25  1  0
  1 26  1  0
  1 27  1  0
  2 28  1  1
  3 29  1  0
  3 30  1  0
  4 31  1  0
  6 32  1  0
  6 33  1  0
  6 34  1  0
 12 35  1  0
 12 36  1  0
 14 37  1  0
 16 38  1  0
 17 39  1  0
 19 40  1  0
 19 41  1  0
 21 42  1  0
 23 43  1  0
M  CHG  1  21  -1
M  END
>  <UniqueID>  (46) 
46

>  <SMILES>  (46) 
C[C@@H](CO)N(C)C(=O)n1c(C(N)=O)cc2ccc(CC([NH-])=O)cc21

>  <Energy>  (46) 
81.45567811117328

>  <Genealogy>  (46) 
CC(CO)N(C)C(=O)n1c(C(N)=O)cc2ccc(CC([NH-])=O)cc21 (protonated)
C[C@@H](CO)N(C)C(=O)n1c(C(N)=O)cc2ccc(CC([NH-])=O)cc21 (chirality)
C[C@@H](CO)N(C)C(=O)n1c(C(N)=O)cc2ccc(CC([NH-])=O)cc21 (3D coordinates assigned)
C[C@@H](CO)N(C)C(=O)n1c(C(N)=O)cc2ccc(CC([NH-])=O)cc21 (optimized conformer: 81.45567811117328 kcal/mol)

>  <smiles>  (46) 
CC(CO)N(C)C(=O)n1c(C(N)=O)cc2ccc(CC(N)=O)cc21

>  <score_type>  (46) 
oracle

>  <origin>  (46) 
adg

>  <m_score__min__energy>  (46) 
-6.7000000000000002

>  <m_primary>  (46) 
energy

$$$$
48:0
     RDKit          3D

 44 45  0  0  0  0  0  0  0  0999 V2000
  139.6690  160.1080  132.2170 C   0  0  0  0  0  0  0  0  0  0  0  0
  140.5350  159.0720  132.6250 O   0  0  0  0  0  0  0  0  0  0  0  0
  139.8520  157.8320  132.6540 C   0  0  0  0  0  0  0  0  0  0  0  0
  138.7100  157.8860  133.6710 C   0  0  0  0  0  0  0  0  0  0  0  0
  139.1400  158.4860  134.8780 O   0  0  0  0  0  0  0  0  0  0  0  0
  139.8280  157.5570  135.6960 C   0  0  0  0  0  0  0  0  0  0  0  0
  141.3120  157.7920  135.6200 C   0  0  0  0  0  0  0  0  0  0  0  0
  141.7630  158.8980  135.8770 O   0  0  0  0  0  0  0  0  0  0  0  0
  142.2430  156.6900  135.2130 C   0  0  0  0  0  0  0  0  0  0  0  0
  143.5000  157.2460  134.8480 O   0  0  0  0  0  0  0  0  0  0  0  0
  143.7080  157.9210  133.6420 C   0  0  0  0  0  0  0  0  0  0  0  0
  142.8800  157.8040  132.6980 O   0  0  0  0  0  0  0  0  0  0  0  0
  144.8800  158.7370  133.4740 N   0  0  0  0  0  0  0  0  0  0  0  0
  144.9740  160.0910  133.6030 C   0  0  0  0  0  0  0  0  0  0  0  0
  143.8430  161.0280  133.7660 C   0  0  0  0  0  0  0  0  0  0  0  0
  142.5010  160.5530  133.8240 N   0  0  0  0  0  0  0  0  0  0  0  0
  144.0610  162.2680  133.8030 O   0  0  0  0  0  0  0  0  0  0  0  0
  146.2970  160.5030  133.4750 C   0  0  0  0  0  0  0  0  0  0  0  0
  147.0190  159.3520  133.2520 C   0  0  0  0  0  0  0  0  0  0  0  0
  148.3860  159.1780  133.0550 C   0  0  0  0  0  0  0  0  0  0  0  0
  148.8620  157.8700  132.8720 C   0  0  0  0  0  0  0  0  0  0  0  0
  147.9730  156.7670  132.9070 C   0  0  0  0  0  0  0  0  0  0  0  0
  148.4900  155.3780  132.6780 C   0  0  0  0  0  0  0  0  0  0  0  0
  146.5900  156.9840  133.0950 C   0  0  0  0  0  0  0  0  0  0  0  0
  146.1400  158.2990  133.2570 C   0  0  0  0  0  0  0  0  0  0  0  0
  139.2515  160.6075  133.1037 H   0  0  0  0  0  0  0  0  0  0  0  0
  140.2292  160.8382  131.6146 H   0  0  0  0  0  0  0  0  0  0  0  0
  138.8510  159.6862  131.6146 H   0  0  0  0  0  0  0  0  0  0  0  0
  139.4411  157.6193  131.6561 H   0  0  0  0  0  0  0  0  0  0  0  0
  140.5566  157.0389  132.9447 H   0  0  0  0  0  0  0  0  0  0  0  0
  137.8808  158.4744  133.2512 H   0  0  0  0  0  0  0  0  0  0  0  0
  138.3804  156.8588  133.8858 H   0  0  0  0  0  0  0  0  0  0  0  0
  139.4950  157.6747  136.7378 H   0  0  0  0  0  0  0  0  0  0  0  0
  139.6088  156.5386  135.3427 H   0  0  0  0  0  0  0  0  0  0  0  0
  142.3793  155.9949  136.0545 H   0  0  0  0  0  0  0  0  0  0  0  0
  141.8180  156.1469  134.3560 H   0  0  0  0  0  0  0  0  0  0  0  0
  142.2950  159.5300  133.8720 H   0  0  0  0  0  0  0  0  0  0  0  0
  146.6841  161.5307  133.5385 H   0  0  0  0  0  0  0  0  0  0  0  0
  149.0716  160.0381  133.0431 H   0  0  0  0  0  0  0  0  0  0  0  0
  149.9350  157.6997  132.6998 H   0  0  0  0  0  0  0  0  0  0  0  0
  148.6717  154.8900  133.6469 H   0  0  0  0  0  0  0  0  0  0  0  0
  147.7471  154.7993  132.1095 H   0  0  0  0  0  0  0  0  0  0  0  0
  149.4305  155.4259  132.1095 H   0  0  0  0  0  0  0  0  0  0  0  0
  145.8844  156.1403  133.1136 H   0  0  0  0  0  0  0  0  0  0  0  0
  1  2  1  0
  2  3  1  0
  3  4  1  0
  4  5  1  0
  5  6  1  0
  6  7  1  0
  7  8  2  0
  7  9  1  0
  9 10  1  0
 10 11  1  0
 11 12  2  0
 11 13  1  0
 13 14  1  0
 14 15  1  0
 15 16  1  0
 15 17  2  0
 14 18  2  0
 18 19  1  0
 19 20  2  0
 20 21  1  0
 21 22  2  0
 22 23  1  0
 22 24  1  0
 24 25  2  0
 25 13  1  0
 25 19  1  0
  1 26  1  0
  1 27  1  0
  1 28  1  0
  3 29  1  0
  3 30  1  0
  4 31  1  0
  4 32  1  0
  6 33  1  0
  6 34  1  0
  9 35  1  0
  9 36  1  0
 16 37  1  0
 18 38  1  0
 20 39  1  0
 21 40  1  0
 23 41  1  0
 23 42  1  0
 23 43  1  0
 24 44  1  0
M  CHG  1  16  -1
M  END
>  <UniqueID>  (47) 
47

>  <SMILES>  (47) 
COCCOCC(=O)COC(=O)n1c(C([NH-])=O)cc2ccc(C)cc21

>  <Energy>  (47) 
81.23614580372626

>  <Genealogy>  (47) 
COCCOCC(=O)COC(=O)n1c(C([NH-])=O)cc2ccc(C)cc21 (protonated)
COCCOCC(=O)COC(=O)n1c(C([NH-])=O)cc2ccc(C)cc21 (3D coordinates assigned)
COCCOCC(=O)COC(=O)n1c(C([NH-])=O)cc2ccc(C)cc21 (optimized conformer: 81.23614580372626 kcal/mol)

>  <smiles>  (47) 
COCCOCC(=O)COC(=O)n1c(C(N)=O)cc2ccc(C)cc21

>  <score_type>  (47) 
oracle

>  <origin>  (47) 
adg

>  <m_score__min__energy>  (47) 
-6.04

>  <m_primary>  (47) 
energy

$$$$
49:0
     RDKit          3D

 40 43  0  0  0  0  0  0  0  0999 V2000
  145.7890  160.8680  133.7410 N   0  0  0  0  0  0  0  0  0  0  0  0
  145.0500  159.6730  133.5040 C   0  0  0  0  0  0  0  0  0  0  0  0
  143.7950  159.7340  133.4030 O   0  0  0  0  0  0  0  0  0  0  0  0
  145.7340  158.3710  133.3580 C   0  0  0  0  0  0  0  0  0  0  0  0
  145.1480  157.1430  133.6650 C   0  0  0  0  0  0  0  0  0  0  0  0
  146.1150  156.1990  133.3950 C   0  0  0  0  0  0  0  0  0  0  0  0
  146.0990  154.8180  133.5660 C   0  0  0  0  0  0  0  0  0  0  0  0
  147.2720  154.1030  133.2640 C   0  0  0  0  0  0  0  0  0  0  0  0
  148.4260  154.7770  132.7900 C   0  0  0  0  0  0  0  0  0  0  0  0
  149.6990  154.0180  132.5400 C   0  0  0  0  0  0  0  0  0  0  0  0
  149.4460  152.5460  132.6470 C   0  0  0  0  0  0  0  0  0  0  0  0
  149.3230  151.6680  131.5960 C   0  0  0  0  0  0  0  0  0  0  0  0
  149.1840  150.4250  132.0850 N   0  0  0  0  0  0  0  0  0  0  0  0
  149.2360  150.5890  133.4250 C   0  0  0  0  0  0  0  0  0  0  0  0
  149.4050  151.8720  133.8080 N   0  0  0  0  0  0  0  0  0  0  0  0
  148.4040  156.1790  132.6310 C   0  0  0  0  0  0  0  0  0  0  0  0
  147.2240  156.8590  132.9390 C   0  0  0  0  0  0  0  0  0  0  0  0
  147.0070  158.1880  132.9120 N   0  0  0  0  0  0  0  0  0  0  0  0
  147.9820  159.1840  132.5790 C   0  0  0  0  0  0  0  0  0  0  0  0
  148.3670  159.9890  133.4690 O   0  0  0  0  0  0  0  0  0  0  0  0
  148.5630  159.2870  131.1890 C   0  0  0  0  0  0  0  0  0  0  0  0
  149.9920  159.8290  131.1870 C   0  0  0  0  0  0  0  0  0  0  0  0
  149.5400  161.0260  130.3630 C   0  0  0  0  0  0  0  0  0  0  0  0
  148.1140  160.4960  130.3630 C   0  0  0  0  0  0  0  0  0  0  0  0
  146.5590  161.1590  133.0990 H   0  0  0  0  0  0  0  0  0  0  0  0
  144.1301  156.9657  134.0425 H   0  0  0  0  0  0  0  0  0  0  0  0
  145.1970  154.3016  133.9261 H   0  0  0  0  0  0  0  0  0  0  0  0
  147.2943  153.0113  133.3967 H   0  0  0  0  0  0  0  0  0  0  0  0
  150.0705  154.2516  131.5313 H   0  0  0  0  0  0  0  0  0  0  0  0
  150.4481  154.3115  133.2901 H   0  0  0  0  0  0  0  0  0  0  0  0
  149.3363  151.9391  130.5300 H   0  0  0  0  0  0  0  0  0  0  0  0
  149.1488  149.7551  134.1370 H   0  0  0  0  0  0  0  0  0  0  0  0
  149.2921  156.7213  132.2742 H   0  0  0  0  0  0  0  0  0  0  0  0
  148.3212  158.2751  130.8317 H   0  0  0  0  0  0  0  0  0  0  0  0
  150.3743  160.0899  132.1849 H   0  0  0  0  0  0  0  0  0  0  0  0
  150.8249  159.1990  130.8414 H   0  0  0  0  0  0  0  0  0  0  0  0
  149.6588  161.9926  130.8744 H   0  0  0  0  0  0  0  0  0  0  0  0
  150.0418  161.2675  129.4144 H   0  0  0  0  0  0  0  0  0  0  0  0
  147.3926  161.1481  130.8771 H   0  0  0  0  0  0  0  0  0  0  0  0
  147.5733  160.3532  129.4158 H   0  0  0  0  0  0  0  0  0  0  0  0
  1  2  1  0
  2  3  2  0
  2  4  1  0
  4  5  2  0
  5  6  1  0
  6  7  2  0
  7  8  1  0
  8  9  2  0
  9 10  1  0
 10 11  1  0
 11 12  2  0
 12 13  1  0
 13 14  2  0
 14 15  1  0
  9 16  1  0
 16 17  2  0
 17 18  1  0
 18 19  1  0
 19 20  2  0
 19 21  1  0
 21 22  1  0
 22 23  1  0
 23 24  1  0
 18  4  1  0
 24 21  1  0
 17  6  1  0
 15 11  1  0
  1 25  1  0
  5 26  1  0
  7 27  1  0
  8 28  1  0
 10 29  1  0
 10 30  1  0
 12 31  1  0
 14 32  1  0
 16 33  1  0
 21 34  1  0
 22 35  1  0
 22 36  1  0
 23 37  1  0
 23 38  1  0
 24 39  1  0
 24 40  1  0
M  CHG  2   1  -1  15  -1
M  END
>  <UniqueID>  (48) 
48

>  <SMILES>  (48) 
[NH-]C(=O)c1cc2ccc(Cc3cnc[n-]3)cc2n1C(=O)C1CCC1

>  <Energy>  (48) 
168.1782253547608

>  <Genealogy>  (48) 
[NH-]C(=O)c1cc2ccc(Cc3cnc[n-]3)cc2n1C(=O)C1CCC1 (protonated)
[NH-]C(=O)c1cc2ccc(Cc3cnc[n-]3)cc2n1C(=O)C1CCC1 (3D coordinates assigned)
[NH-]C(=O)c1cc2ccc(Cc3cnc[n-]3)cc2n1C(=O)C1CCC1 (nonaromatic ring conformer: 168.1782253547608 kcal/mol)

>  <smiles>  (48) 
NC(=O)c1cc2ccc(Cc3cnc[nH]3)cc2n1C(=O)C1CCC1

>  <score_type>  (48) 
oracle

>  <origin>  (48) 
adg

>  <m_score__min__energy>  (48) 
-8.1600000000000001

>  <m_primary>  (48) 
energy

$$$$
50:0
     RDKit          3D

 30 32  0  0  0  0  0  0  0  0999 V2000
  145.9440  162.8240  134.7280 N   0  0  0  0  0  0  0  0  0  0  0  0
  145.2740  161.7490  134.0760 C   0  0  0  0  0  0  0  0  0  0  0  0
  144.0670  161.8890  133.7380 O   0  0  0  0  0  0  0  0  0  0  0  0
  145.9880  160.5010  133.7360 C   0  0  0  0  0  0  0  0  0  0  0  0
  147.3560  160.4490  133.4760 C   0  0  0  0  0  0  0  0  0  0  0  0
  147.6420  159.1150  133.2990 C   0  0  0  0  0  0  0  0  0  0  0  0
  148.8500  158.4920  133.0030 C   0  0  0  0  0  0  0  0  0  0  0  0
  148.8500  157.0970  132.8420 C   0  0  0  0  0  0  0  0  0  0  0  0
  147.6500  156.3490  132.9720 C   0  0  0  0  0  0  0  0  0  0  0  0
  147.6600  154.8760  132.7880 C   0  0  0  0  0  0  0  0  0  0  0  0
  146.4610  154.1420  132.8060 C   0  0  0  0  0  0  0  0  0  0  0  0
  146.4950  152.7560  132.6330 C   0  0  0  0  0  0  0  0  0  0  0  0
  147.6810  152.1200  132.4480 N   0  0  0  0  0  0  0  0  0  0  0  0
  148.8570  152.7990  132.4260 C   0  0  0  0  0  0  0  0  0  0  0  0
  150.0190  152.1280  132.2340 F   0  0  0  0  0  0  0  0  0  0  0  0
  148.8700  154.1860  132.5960 C   0  0  0  0  0  0  0  0  0  0  0  0
  146.4420  157.0230  133.2720 C   0  0  0  0  0  0  0  0  0  0  0  0
  146.4750  158.4120  133.4450 C   0  0  0  0  0  0  0  0  0  0  0  0
  145.4470  159.2500  133.7110 N   0  0  0  0  0  0  0  0  0  0  0  0
  144.0620  158.8890  133.8360 C   0  0  0  0  0  0  0  0  0  0  0  0
  143.4060  159.2260  134.8560 O   0  0  0  0  0  0  0  0  0  0  0  0
  143.4410  158.1400  132.8450 O   0  0  0  0  0  0  0  0  0  0  0  0
  146.9860  162.8530  134.7840 H   0  0  0  0  0  0  0  0  0  0  0  0
  148.0577  161.2945  133.4235 H   0  0  0  0  0  0  0  0  0  0  0  0
  149.7772  159.0745  132.8982 H   0  0  0  0  0  0  0  0  0  0  0  0
  149.7917  156.5770  132.6122 H   0  0  0  0  0  0  0  0  0  0  0  0
  145.5004  154.6566  132.9556 H   0  0  0  0  0  0  0  0  0  0  0  0
  145.5590  152.1783  132.6466 H   0  0  0  0  0  0  0  0  0  0  0  0
  149.8227  154.7356  132.5797 H   0  0  0  0  0  0  0  0  0  0  0  0
  145.4974  156.4674  133.3672 H   0  0  0  0  0  0  0  0  0  0  0  0
  1  2  1  0
  2  3  2  0
  2  4  1  0
  4  5  2  0
  5  6  1  0
  6  7  2  0
  7  8  1  0
  8  9  2  0
  9 10  1  0
 10 11  2  0
 11 12  1  0
 12 13  2  0
 13 14  1  0
 14 15  1  0
 14 16  2  0
  9 17  1  0
 17 18  2  0
 18 19  1  0
 19 20  1  0
 20 21  2  0
 20 22  1  0
 19  4  1  0
 18  6  1  0
 16 10  1  0
  1 23  1  0
  5 24  1  0
  7 25  1  0
  8 26  1  0
 11 27  1  0
 12 28  1  0
 16 29  1  0
 17 30  1  0
M  CHG  2   1  -1  22  -1
M  END
>  <UniqueID>  (49) 
49

>  <SMILES>  (49) 
[NH-]C(=O)c1cc2ccc(-c3ccnc(F)c3)cc2n1C(=O)[O-]

>  <Energy>  (49) 
79.02904366747624

>  <Genealogy>  (49) 
[NH-]C(=O)c1cc2ccc(-c3ccnc(F)c3)cc2n1C(=O)[O-] (protonated)
[NH-]C(=O)c1cc2ccc(-c3ccnc(F)c3)cc2n1C(=O)[O-] (3D coordinates assigned)
[NH-]C(=O)c1cc2ccc(-c3ccnc(F)c3)cc2n1C(=O)[O-] (optimized conformer: 79.02904366747624 kcal/mol)

>  <smiles>  (49) 
NC(=O)c1cc2ccc(-c3ccnc(F)c3)cc2n1C(=O)O

>  <score_type>  (49) 
oracle

>  <origin>  (49) 
adg

>  <m_score__min__energy>  (49) 
-7.2000000000000002

>  <m_primary>  (49) 
energy

$$$$
51:0
     RDKit          3D

 41 43  0  0  0  0  0  0  0  0999 V2000
  139.7420  158.1670  135.5910 C   0  0  0  0  0  0  0  0  0  0  0  0
  140.1030  159.0680  134.5500 O   0  0  0  0  0  0  0  0  0  0  0  0
  141.4320  159.3290  134.2040 C   0  0  0  0  0  0  0  0  0  0  0  0
  142.2030  158.3160  133.6290 C   0  0  0  0  0  0  0  0  0  0  0  0
  143.5320  158.5750  133.2870 C   0  0  0  0  0  0  0  0  0  0  0  0
  144.0910  159.8350  133.5360 C   0  0  0  0  0  0  0  0  0  0  0  0
  145.4520  160.0990  133.1570 N   0  0  0  0  0  0  0  0  0  0  0  0
  146.4700  159.0920  133.0320 C   0  0  0  0  0  0  0  0  0  0  0  0
  147.7630  159.4650  132.5900 C   0  0  0  0  0  0  0  0  0  0  0  0
  148.7740  158.5030  132.4240 C   0  0  0  0  0  0  0  0  0  0  0  0
  148.4590  157.1740  132.6980 C   0  0  0  0  0  0  0  0  0  0  0  0
  149.2350  156.0400  132.6060 C   0  0  0  0  0  0  0  0  0  0  0  0
  148.4000  154.9890  132.9870 C   0  0  0  0  0  0  0  0  0  0  0  0
  148.8350  153.5810  133.1220 C   0  0  0  0  0  0  0  0  0  0  0  0
  147.9710  152.5990  133.6980 N   0  0  0  0  0  0  0  0  0  0  0  0
  149.9720  153.2300  132.7110 O   0  0  0  0  0  0  0  0  0  0  0  0
  147.1590  155.4610  133.2970 N   0  0  0  0  0  0  0  0  0  0  0  0
  146.0010  154.7090  133.6920 C   0  0  0  0  0  0  0  0  0  0  0  0
  145.5170  153.8510  132.9060 O   0  0  0  0  0  0  0  0  0  0  0  0
  145.4250  154.8600  135.0660 C   0  0  0  0  0  0  0  0  0  0  0  0
  146.1880  154.0420  136.0110 C   0  0  0  0  0  0  0  0  0  0  0  0
  146.7910  153.3950  136.7580 N   0  0  0  0  0  0  0  0  0  0  0  0
  147.2130  156.7960  133.1200 C   0  0  0  0  0  0  0  0  0  0  0  0
  146.1840  157.7290  133.2810 C   0  0  0  0  0  0  0  0  0  0  0  0
  143.2750  160.8320  134.0950 C   0  0  0  0  0  0  0  0  0  0  0  0
  141.9820  160.5570  134.4170 N   0  0  0  0  0  0  0  0  0  0  0  0
  139.9311  158.6390  136.5664 H   0  0  0  0  0  0  0  0  0  0  0  0
  138.6742  157.9169  135.5056 H   0  0  0  0  0  0  0  0  0  0  0  0
  140.3417  157.2488  135.5056 H   0  0  0  0  0  0  0  0  0  0  0  0
  141.7670  157.3226  133.4471 H   0  0  0  0  0  0  0  0  0  0  0  0
  144.1417  157.7871  132.8207 H   0  0  0  0  0  0  0  0  0  0  0  0
  145.7170  161.0890  132.9520 H   0  0  0  0  0  0  0  0  0  0  0  0
  147.9787  160.5217  132.3738 H   0  0  0  0  0  0  0  0  0  0  0  0
  149.7815  158.7902  132.0886 H   0  0  0  0  0  0  0  0  0  0  0  0
  150.2890  155.9763  132.2977 H   0  0  0  0  0  0  0  0  0  0  0  0
  148.2780  151.6020  133.7550 H   0  0  0  0  0  0  0  0  0  0  0  0
  147.0480  152.8570  134.1090 H   0  0  0  0  0  0  0  0  0  0  0  0
  145.4768  155.9157  135.3707 H   0  0  0  0  0  0  0  0  0  0  0  0
  144.3759  154.5294  135.0607 H   0  0  0  0  0  0  0  0  0  0  0  0
  145.1782  157.4114  133.5932 H   0  0  0  0  0  0  0  0  0  0  0  0
  143.6824  161.8381  134.2730 H   0  0  0  0  0  0  0  0  0  0  0  0
  1  2  1  0
  2  3  1  0
  3  4  2  0
  4  5  1  0
  5  6  2  0
  6  7  1  0
  7  8  1  0
  8  9  2  0
  9 10  1  0
 10 11  2  0
 11 12  1  0
 12 13  2  0
 13 14  1  0
 14 15  1  0
 14 16  2  0
 13 17  1  0
 17 18  1  0
 18 19  2  0
 18 20  1  0
 20 21  1  0
 21 22  3  0
 17 23  1  0
 23 24  2  0
  6 25  1  0
 25 26  2  0
 26  3  1  0
 24  8  1  0
 23 11  1  0
  1 27  1  0
  1 28  1  0
  1 29  1  0
  4 30  1  0
  5 31  1  0
  7 32  1  0
  9 33  1  0
 10 34  1  0
 12 35  1  0
 15 36  1  0
 15 37  1  0
 20 38  1  0
 20 39  1  0
 24 40  1  0
 25 41  1  0
M  END
>  <UniqueID>  (50) 
50

>  <SMILES>  (50) 
COc1ccc(Nc2ccc3cc(C(N)=O)n(C(=O)CC#N)c3c2)cn1

>  <Energy>  (50) 
84.31881973228249

>  <Genealogy>  (50) 
COc1ccc(Nc2ccc3cc(C(N)=O)n(C(=O)CC#N)c3c2)cn1 (3D coordinates assigned)
COc1ccc(Nc2ccc3cc(C(N)=O)n(C(=O)CC#N)c3c2)cn1 (optimized conformer: 84.31881973228249 kcal/mol)

>  <smiles>  (50) 
COc1ccc(Nc2ccc3cc(C(N)=O)n(C(=O)CC#N)c3c2)cn1

>  <score_type>  (50) 
oracle

>  <origin>  (50) 
adg

>  <m_score__min__energy>  (50) 
-7.7699999999999996

>  <m_primary>  (50) 
energy

$$$$
52:0
     RDKit          3D

 33 34  0  0  0  0  0  0  0  0999 V2000
  148.7890  158.0230  131.7290 N   0  0  0  0  0  0  0  0  0  0  0  0
  148.3510  158.7700  132.8610 C   0  0  0  0  0  0  0  0  0  0  0  0
  149.2060  159.2390  133.6590 O   0  0  0  0  0  0  0  0  0  0  0  0
  146.9120  158.9520  133.1420 C   0  0  0  0  0  0  0  0  0  0  0  0
  146.2920  160.1980  133.1940 C   0  0  0  0  0  0  0  0  0  0  0  0
  144.9920  159.9450  133.5640 C   0  0  0  0  0  0  0  0  0  0  0  0
  143.9260  160.8200  133.7490 C   0  0  0  0  0  0  0  0  0  0  0  0
  142.6780  160.2760  134.0940 C   0  0  0  0  0  0  0  0  0  0  0  0
  142.5190  158.8760  134.2480 C   0  0  0  0  0  0  0  0  0  0  0  0
  141.1650  158.3010  134.5770 C   0  0  0  0  0  0  0  0  0  0  0  0
  140.7510  158.6280  136.0130 C   0  0  0  0  0  0  0  0  0  0  0  0
  139.5330  158.0320  136.2850 F   0  0  0  0  0  0  0  0  0  0  0  0
  141.6930  158.1470  136.9050 F   0  0  0  0  0  0  0  0  0  0  0  0
  140.6250  159.9970  136.1760 F   0  0  0  0  0  0  0  0  0  0  0  0
  143.6210  158.0170  134.0440 C   0  0  0  0  0  0  0  0  0  0  0  0
  144.8570  158.5880  133.7170 C   0  0  0  0  0  0  0  0  0  0  0  0
  146.0270  157.9640  133.4580 N   0  0  0  0  0  0  0  0  0  0  0  0
  146.2460  156.5460  133.4200 C   0  0  0  0  0  0  0  0  0  0  0  0
  146.6990  156.0070  132.3730 O   0  0  0  0  0  0  0  0  0  0  0  0
  145.9760  155.7710  134.5540 O   0  0  0  0  0  0  0  0  0  0  0  0
  146.9280  154.8940  135.1490 C   0  0  0  0  0  0  0  0  0  0  0  0
  146.2390  153.8840  136.0090 C   0  0  0  0  0  0  0  0  0  0  0  0
  144.9820  153.8050  136.0150 O   0  0  0  0  0  0  0  0  0  0  0  0
  146.9870  153.0080  136.7860 O   0  0  0  0  0  0  0  0  0  0  0  0
  148.3440  157.1130  131.4800 H   0  0  0  0  0  0  0  0  0  0  0  0
  146.7462  161.1775  132.9836 H   0  0  0  0  0  0  0  0  0  0  0  0
  144.0569  161.9055  133.6286 H   0  0  0  0  0  0  0  0  0  0  0  0
  141.8162  160.9424  134.2461 H   0  0  0  0  0  0  0  0  0  0  0  0
  140.4202  158.7220  133.8856 H   0  0  0  0  0  0  0  0  0  0  0  0
  141.2203  157.2072  134.4743 H   0  0  0  0  0  0  0  0  0  0  0  0
  143.5112  156.9267  134.1396 H   0  0  0  0  0  0  0  0  0  0  0  0
  147.4871  154.3746  134.3568 H   0  0  0  0  0  0  0  0  0  0  0  0
  147.6161  155.4839  135.7724 H   0  0  0  0  0  0  0  0  0  0  0  0
  1  2  1  0
  2  3  2  0
  2  4  1  0
  4  5  2  0
  5  6  1  0
  6  7  2  0
  7  8  1  0
  8  9  2  0
  9 10  1  0
 10 11  1  0
 11 12  1  0
 11 13  1  0
 11 14  1  0
  9 15  1  0
 15 16  2  0
 16 17  1  0
 17 18  1  0
 18 19  2  0
 18 20  1  0
 20 21  1  0
 21 22  1  0
 22 23  2  0
 22 24  1  0
 17  4  1  0
 16  6  1  0
  1 25  1  0
  5 26  1  0
  7 27  1  0
  8 28  1  0
 10 29  1  0
 10 30  1  0
 15 31  1  0
 21 32  1  0
 21 33  1  0
M  CHG  2   1  -1  24  -1
M  END
>  <UniqueID>  (51) 
51

>  <SMILES>  (51) 
[NH-]C(=O)c1cc2ccc(CC(F)(F)F)cc2n1C(=O)OCC(=O)[O-]

>  <Energy>  (51) 
67.58907165281445

>  <Genealogy>  (51) 
[NH-]C(=O)c1cc2ccc(CC(F)(F)F)cc2n1C(=O)OCC(=O)[O-] (protonated)
[NH-]C(=O)c1cc2ccc(CC(F)(F)F)cc2n1C(=O)OCC(=O)[O-] (3D coordinates assigned)
[NH-]C(=O)c1cc2ccc(CC(F)(F)F)cc2n1C(=O)OCC(=O)[O-] (optimized conformer: 67.58907165281445 kcal/mol)

>  <smiles>  (51) 
NC(=O)c1cc2ccc(CC(F)(F)F)cc2n1C(=O)OCC(=O)O

>  <score_type>  (51) 
oracle

>  <origin>  (51) 
adg

>  <m_score__min__energy>  (51) 
-6.04

>  <m_primary>  (51) 
energy

$$$$
53:0
     RDKit          3D

 42 44  0  0  0  0  0  0  0  0999 V2000
  142.5070  157.2280  132.5680 N   0  0  0  0  0  0  0  0  0  0  0  0
  142.6320  156.2400  133.5950 C   0  0  0  0  0  0  0  0  0  0  0  0
  142.9210  156.6030  134.7640 O   0  0  0  0  0  0  0  0  0  0  0  0
  142.3690  154.8130  133.3210 C   0  0  0  0  0  0  0  0  0  0  0  0
  143.3670  153.8360  133.3140 C   0  0  0  0  0  0  0  0  0  0  0  0
  142.7110  152.6480  133.1000 C   0  0  0  0  0  0  0  0  0  0  0  0
  143.2150  151.3540  132.9830 C   0  0  0  0  0  0  0  0  0  0  0  0
  142.3080  150.3170  132.7190 C   0  0  0  0  0  0  0  0  0  0  0  0
  140.9240  150.5890  132.5700 C   0  0  0  0  0  0  0  0  0  0  0  0
  139.9640  149.4600  132.3080 C   0  0  0  0  0  0  0  0  0  0  0  0
  140.0390  148.9730  130.8480 C   0  0  0  0  0  0  0  0  0  0  0  0
  141.3010  148.8250  130.2650 O   0  0  0  0  0  0  0  0  0  0  0  0
  139.0820  147.8580  130.4640 C   0  0  0  0  0  0  0  0  0  0  0  0
  138.9020  149.2460  129.8800 C   0  0  0  0  0  0  0  0  0  0  0  0
  140.4470  151.9100  132.7070 C   0  0  0  0  0  0  0  0  0  0  0  0
  141.3720  152.9200  132.9890 C   0  0  0  0  0  0  0  0  0  0  0  0
  141.1470  154.2480  133.1110 N   0  0  0  0  0  0  0  0  0  0  0  0
  139.8790  154.9040  132.9540 C   0  0  0  0  0  0  0  0  0  0  0  0
  138.8160  154.2240  132.9850 O   0  0  0  0  0  0  0  0  0  0  0  0
  139.7970  156.3780  132.6770 C   0  0  0  0  0  0  0  0  0  0  0  0
  139.1780  157.2770  134.1480 S   0  0  0  0  0  0  0  0  0  0  0  0
  139.2560  158.9660  133.4410 C   0  0  0  0  0  0  0  0  0  0  0  0
  140.6170  159.2340  132.8850 C   0  0  0  0  0  0  0  0  0  0  0  0
  141.4820  159.8150  133.5830 O   0  0  0  0  0  0  0  0  0  0  0  0
  140.9310  158.8400  131.5970 O   0  0  0  0  0  0  0  0  0  0  0  0
  142.1550  156.9750  131.6230 H   0  0  0  0  0  0  0  0  0  0  0  0
  142.7540  158.2250  132.7730 H   0  0  0  0  0  0  0  0  0  0  0  0
  144.4481  153.9858  133.4507 H   0  0  0  0  0  0  0  0  0  0  0  0
  144.2906  151.1521  133.0942 H   0  0  0  0  0  0  0  0  0  0  0  0
  142.6734  149.2836  132.6267 H   0  0  0  0  0  0  0  0  0  0  0  0
  140.2095  148.6214  132.9762 H   0  0  0  0  0  0  0  0  0  0  0  0
  138.9442  149.8279  132.4940 H   0  0  0  0  0  0  0  0  0  0  0  0
  141.2000  148.1110  129.5900 H   0  0  0  0  0  0  0  0  0  0  0  0
  139.4276  147.0327  129.8241 H   0  0  0  0  0  0  0  0  0  0  0  0
  138.4398  147.1586  131.0194 H   0  0  0  0  0  0  0  0  0  0  0  0
  139.1168  149.4272  128.8165 H   0  0  0  0  0  0  0  0  0  0  0  0
  138.0749  149.9699  129.8365 H   0  0  0  0  0  0  0  0  0  0  0  0
  139.3769  152.1389  132.5950 H   0  0  0  0  0  0  0  0  0  0  0  0
  140.7981  156.7535  132.4186 H   0  0  0  0  0  0  0  0  0  0  0  0
  139.1011  156.5436  131.8414 H   0  0  0  0  0  0  0  0  0  0  0  0
  138.5112  159.0573  132.6367 H   0  0  0  0  0  0  0  0  0  0  0  0
  139.0444  159.6964  134.2358 H   0  0  0  0  0  0  0  0  0  0  0  0
  1  2  1  0
  2  3  2  0
  2  4  1  0
  4  5  2  0
  5  6  1  0
  6  7  2  0
  7  8  1  0
  8  9  2  0
  9 10  1  0
 10 11  1  0
 11 12  1  0
 11 13  1  0
 13 14  1  0
  9 15  1  0
 15 16  2  0
 16 17  1  0
 17 18  1  0
 18 19  2  0
 18 20  1  0
 20 21  1  0
 21 22  1  0
 22 23  1  0
 23 24  2  0
 23 25  1  0
 17  4  1  0
 16  6  1  0
 14 11  1  0
  1 26  1  0
  1 27  1  0
  5 28  1  0
  7 29  1  0
  8 30  1  0
 10 31  1  0
 10 32  1  0
 12 33  1  0
 13 34  1  0
 13 35  1  0
 14 36  1  0
 14 37  1  0
 15 38  1  0
 20 39  1  0
 20 40  1  0
 22 41  1  0
 22 42  1  0
M  CHG  1  25  -1
M  END
>  <UniqueID>  (52) 
52

>  <SMILES>  (52) 
NC(=O)c1cc2ccc(CC3(O)CC3)cc2n1C(=O)CSCC(=O)[O-]

>  <Energy>  (52) 
345.22126063548234

>  <Genealogy>  (52) 
NC(=O)c1cc2ccc(CC3(O)CC3)cc2n1C(=O)CSCC(=O)[O-] (protonated)
NC(=O)c1cc2ccc(CC3(O)CC3)cc2n1C(=O)CSCC(=O)[O-] (3D coordinates assigned)
NC(=O)c1cc2ccc(CC3(O)CC3)cc2n1C(=O)CSCC(=O)[O-] (nonaromatic ring conformer: 345.22126063548234 kcal/mol)

>  <smiles>  (52) 
NC(=O)c1cc2ccc(CC3(O)CC3)cc2n1C(=O)CSCC(=O)O

>  <score_type>  (52) 
oracle

>  <origin>  (52) 
adg

>  <m_score__min__energy>  (52) 
-8.1799999999999997

>  <m_primary>  (52) 
energy

$$$$
54:0
     RDKit          3D

 39 40  0  0  0  0  0  0  0  0999 V2000
  143.0770  161.2010  133.7260 N   0  0  0  0  0  0  0  0  0  0  0  0
  144.4820  161.4160  133.8410 C   0  0  0  0  0  0  0  0  0  0  0  0
  144.9070  162.5610  134.1490 O   0  0  0  0  0  0  0  0  0  0  0  0
  145.4210  160.3100  133.5620 C   0  0  0  0  0  0  0  0  0  0  0  0
  146.7850  160.4920  133.3470 C   0  0  0  0  0  0  0  0  0  0  0  0
  147.3040  159.2250  133.1970 C   0  0  0  0  0  0  0  0  0  0  0  0
  148.6080  158.8160  132.9330 C   0  0  0  0  0  0  0  0  0  0  0  0
  148.8470  157.4400  132.7820 C   0  0  0  0  0  0  0  0  0  0  0  0
  147.7890  156.5050  132.8980 C   0  0  0  0  0  0  0  0  0  0  0  0
  148.0510  155.0350  132.6890 C   0  0  0  0  0  0  0  0  0  0  0  0
  147.6900  154.2210  133.9320 C   0  0  0  0  0  0  0  0  0  0  0  0
  148.5520  153.1470  134.0700 F   0  0  0  0  0  0  0  0  0  0  0  0
  147.7650  155.0140  135.0640 F   0  0  0  0  0  0  0  0  0  0  0  0
  146.3980  153.7440  133.8080 F   0  0  0  0  0  0  0  0  0  0  0  0
  146.4770  156.9580  133.1600 C   0  0  0  0  0  0  0  0  0  0  0  0
  146.2700  158.3330  133.3210 C   0  0  0  0  0  0  0  0  0  0  0  0
  145.1080  158.9840  133.5440 N   0  0  0  0  0  0  0  0  0  0  0  0
  143.8060  158.3850  133.6370 C   0  0  0  0  0  0  0  0  0  0  0  0
  143.2950  157.8360  132.6230 O   0  0  0  0  0  0  0  0  0  0  0  0
  143.1010  158.4440  134.8450 O   0  0  0  0  0  0  0  0  0  0  0  0
  141.8260  157.8370  135.0520 C   0  0  0  0  0  0  0  0  0  0  0  0
  140.6760  158.7930  134.6820 C   0  0  1  0  0  0  0  0  0  0  0  0
  141.0090  160.1180  135.0100 O   0  0  0  0  0  0  0  0  0  0  0  0
  140.2470  158.6930  133.2050 C   0  0  0  0  0  0  0  0  0  0  0  0
  141.1270  159.4080  132.3780 O   0  0  0  0  0  0  0  0  0  0  0  0
  142.6860  160.2350  133.6630 H   0  0  0  0  0  0  0  0  0  0  0  0
  147.3319  161.4455  133.3057 H   0  0  0  0  0  0  0  0  0  0  0  0
  149.4253  159.5470  132.8454 H   0  0  0  0  0  0  0  0  0  0  0  0
  149.8665  157.0847  132.5714 H   0  0  0  0  0  0  0  0  0  0  0  0
  147.4461  154.6808  131.8413 H   0  0  0  0  0  0  0  0  0  0  0  0
  149.1238  154.9002  132.4868 H   0  0  0  0  0  0  0  0  0  0  0  0
  145.6397  156.2486  133.2356 H   0  0  0  0  0  0  0  0  0  0  0  0
  141.7548  156.9343  134.4274 H   0  0  0  0  0  0  0  0  0  0  0  0
  141.7341  157.5849  136.1188 H   0  0  0  0  0  0  0  0  0  0  0  0
  139.8080  158.4759  135.2786 H   0  0  0  0  0  0  0  0  0  0  0  0
  141.9130  160.3030  134.6430 H   0  0  0  0  0  0  0  0  0  0  0  0
  140.2461  157.6358  132.9011 H   0  0  0  0  0  0  0  0  0  0  0  0
  139.2400  159.1235  133.1018 H   0  0  0  0  0  0  0  0  0  0  0  0
  141.9610  159.5440  132.8990 H   0  0  0  0  0  0  0  0  0  0  0  0
  1  2  1  0
  2  3  2  0
  2  4  1  0
  4  5  2  0
  5  6  1  0
  6  7  2  0
  7  8  1  0
  8  9  2  0
  9 10  1  0
 10 11  1  0
 11 12  1  0
 11 13  1  0
 11 14  1  0
  9 15  1  0
 15 16  2  0
 16 17  1  0
 17 18  1  0
 18 19  2  0
 18 20  1  0
 20 21  1  0
 21 22  1  0
 22 23  1  0
 22 24  1  0
 24 25  1  0
 17  4  1  0
 16  6  1  0
  1 26  1  0
  5 27  1  0
  7 28  1  0
  8 29  1  0
 10 30  1  0
 10 31  1  0
 15 32  1  0
 21 33  1  0
 21 34  1  0
 22 35  1  1
 23 36  1  0
 24 37  1  0
 24 38  1  0
 25 39  1  0
M  CHG  1   1  -1
M  END
>  <UniqueID>  (53) 
53

>  <SMILES>  (53) 
[NH-]C(=O)c1cc2ccc(CC(F)(F)F)cc2n1C(=O)OC[C@@H](O)CO

>  <Energy>  (53) 
72.25235483853417

>  <Genealogy>  (53) 
[NH-]C(=O)c1cc2ccc(CC(F)(F)F)cc2n1C(=O)OCC(O)CO (protonated)
[NH-]C(=O)c1cc2ccc(CC(F)(F)F)cc2n1C(=O)OC[C@@H](O)CO (chirality)
[NH-]C(=O)c1cc2ccc(CC(F)(F)F)cc2n1C(=O)OC[C@@H](O)CO (3D coordinates assigned)
[NH-]C(=O)c1cc2ccc(CC(F)(F)F)cc2n1C(=O)OC[C@@H](O)CO (optimized conformer: 72.25235483853417 kcal/mol)

>  <smiles>  (53) 
NC(=O)c1cc2ccc(CC(F)(F)F)cc2n1C(=O)OCC(O)CO

>  <score_type>  (53) 
oracle

>  <origin>  (53) 
adg

>  <m_score__min__energy>  (53) 
-4.8799999999999999

>  <m_primary>  (53) 
energy

$$$$
55:0
     RDKit          3D

 36 38  0  0  0  0  0  0  0  0999 V2000
  142.8440  160.4810  133.3720 N   0  0  0  0  0  0  0  0  0  0  0  0
  144.2010  160.7210  133.7310 C   0  0  0  0  0  0  0  0  0  0  0  0
  144.5360  161.8630  134.1480 O   0  0  0  0  0  0  0  0  0  0  0  0
  145.2300  159.6720  133.5700 C   0  0  0  0  0  0  0  0  0  0  0  0
  146.5820  159.9470  133.3810 C   0  0  0  0  0  0  0  0  0  0  0  0
  147.1800  158.7240  133.1820 C   0  0  0  0  0  0  0  0  0  0  0  0
  148.5140  158.4060  132.9540 C   0  0  0  0  0  0  0  0  0  0  0  0
  148.8550  157.0510  132.8110 C   0  0  0  0  0  0  0  0  0  0  0  0
  147.8640  156.0380  132.9050 C   0  0  0  0  0  0  0  0  0  0  0  0
  148.2360  154.6070  132.7640 C   0  0  0  0  0  0  0  0  0  0  0  0
  147.3020  153.5870  132.9980 C   0  0  0  0  0  0  0  0  0  0  0  0
  147.6640  152.2860  132.8620 N   0  0  0  0  0  0  0  0  0  0  0  0
  148.9270  151.9440  132.5040 C   0  0  0  0  0  0  0  0  0  0  0  0
  149.8540  152.9100  132.2710 N   0  0  0  0  0  0  0  0  0  0  0  0
  149.5350  154.2250  132.3940 C   0  0  0  0  0  0  0  0  0  0  0  0
  146.5170  156.4040  133.1390 C   0  0  0  0  0  0  0  0  0  0  0  0
  146.2050  157.7630  133.2570 C   0  0  0  0  0  0  0  0  0  0  0  0
  145.0020  158.3300  133.5000 N   0  0  0  0  0  0  0  0  0  0  0  0
  143.7660  157.6320  133.7150 C   0  0  0  0  0  0  0  0  0  0  0  0
  142.8740  157.6420  132.8220 O   0  0  0  0  0  0  0  0  0  0  0  0
  143.5460  156.9650  134.9260 O   0  0  0  0  0  0  0  0  0  0  0  0
  143.1930  155.5870  135.0080 C   0  0  0  0  0  0  0  0  0  0  0  0
  144.4120  154.7290  134.8820 C   0  0  0  0  0  0  0  0  0  0  0  0
  144.4080  153.7370  134.1080 O   0  0  0  0  0  0  0  0  0  0  0  0
  145.5420  155.0060  135.6420 O   0  0  0  0  0  0  0  0  0  0  0  0
  142.5970  159.7770  132.6410 H   0  0  0  0  0  0  0  0  0  0  0  0
  147.0689  160.9334  133.3891 H   0  0  0  0  0  0  0  0  0  0  0  0
  149.2801  159.1926  132.8875 H   0  0  0  0  0  0  0  0  0  0  0  0
  149.9022  156.7710  132.6240 H   0  0  0  0  0  0  0  0  0  0  0  0
  146.2734  153.8422  133.2925 H   0  0  0  0  0  0  0  0  0  0  0  0
  149.2011  150.8836  132.4022 H   0  0  0  0  0  0  0  0  0  0  0  0
  150.8250  152.6370  132.0000 H   0  0  0  0  0  0  0  0  0  0  0  0
  150.2982  154.9937  132.2027 H   0  0  0  0  0  0  0  0  0  0  0  0
  145.7330  155.6374  133.2262 H   0  0  0  0  0  0  0  0  0  0  0  0
  142.7117  155.3931  135.9779 H   0  0  0  0  0  0  0  0  0  0  0  0
  142.5004  155.3463  134.1880 H   0  0  0  0  0  0  0  0  0  0  0  0
  1  2  1  0
  2  3  2  0
  2  4  1  0
  4  5  2  0
  5  6  1  0
  6  7  2  0
  7  8  1  0
  8  9  2  0
  9 10  1  0
 10 11  2  0
 11 12  1  0
 12 13  2  0
 13 14  1  0
 14 15  2  0
  9 16  1  0
 16 17  2  0
 17 18  1  0
 18 19  1  0
 19 20  2  0
 19 21  1  0
 21 22  1  0
 22 23  1  0
 23 24  2  0
 23 25  1  0
 18  4  1  0
 17  6  1  0
 15 10  1  0
  1 26  1  0
  5 27  1  0
  7 28  1  0
  8 29  1  0
 11 30  1  0
 13 31  1  0
 14 32  1  0
 15 33  1  0
 16 34  1  0
 22 35  1  0
 22 36  1  0
M  CHG  3   1  -1  14   1  25  -1
M  END
>  <UniqueID>  (54) 
54

>  <SMILES>  (54) 
[NH-]C(=O)c1cc2ccc(-c3cnc[nH+]c3)cc2n1C(=O)OCC(=O)[O-]

>  <Energy>  (54) 
81.24184516199458

>  <Genealogy>  (54) 
[NH-]C(=O)c1cc2ccc(-c3cnc[nH+]c3)cc2n1C(=O)OCC(=O)[O-] (protonated)
[NH-]C(=O)c1cc2ccc(-c3cnc[nH+]c3)cc2n1C(=O)OCC(=O)[O-] (3D coordinates assigned)
[NH-]C(=O)c1cc2ccc(-c3cnc[nH+]c3)cc2n1C(=O)OCC(=O)[O-] (optimized conformer: 81.24184516199458 kcal/mol)

>  <smiles>  (54) 
NC(=O)c1cc2ccc(-c3cncnc3)cc2n1C(=O)OCC(=O)O

>  <score_type>  (54) 
oracle

>  <origin>  (54) 
adg

>  <m_score__min__energy>  (54) 
-6.9000000000000004

>  <m_primary>  (54) 
energy

$$$$
56:0
     RDKit          3D

 39 41  0  0  0  0  0  0  0  0999 V2000
  142.9310  160.5320  133.7290 N   0  0  0  0  0  0  0  0  0  0  0  0
  144.3300  160.8040  133.7380 C   0  0  0  0  0  0  0  0  0  0  0  0
  144.7250  161.9970  133.8380 O   0  0  0  0  0  0  0  0  0  0  0  0
  145.3180  159.7180  133.5740 C   0  0  0  0  0  0  0  0  0  0  0  0
  146.6790  159.9430  133.3790 C   0  0  0  0  0  0  0  0  0  0  0  0
  147.2300  158.6970  133.1800 C   0  0  0  0  0  0  0  0  0  0  0  0
  148.5510  158.3300  132.9480 C   0  0  0  0  0  0  0  0  0  0  0  0
  148.8400  156.9630  132.8060 C   0  0  0  0  0  0  0  0  0  0  0  0
  147.8130  155.9880  132.9050 C   0  0  0  0  0  0  0  0  0  0  0  0
  148.1310  154.5450  132.7640 C   0  0  0  0  0  0  0  0  0  0  0  0
  149.3830  154.1260  132.2880 C   0  0  0  0  0  0  0  0  0  0  0  0
  149.6690  152.7680  132.1590 C   0  0  0  0  0  0  0  0  0  0  0  0
  148.6980  151.8180  132.5060 C   0  0  0  0  0  0  0  0  0  0  0  0
  148.9880  150.3730  132.3730 C   0  0  0  0  0  0  0  0  0  0  0  0
  150.0870  149.9850  131.8950 O   0  0  0  0  0  0  0  0  0  0  0  0
  148.0530  149.4250  132.7730 O   0  0  0  0  0  0  0  0  0  0  0  0
  147.4820  152.2400  132.9660 N   0  0  0  0  0  0  0  0  0  0  0  0
  147.1850  153.5620  133.1000 C   0  0  0  0  0  0  0  0  0  0  0  0
  146.4810  156.4050  133.1420 C   0  0  0  0  0  0  0  0  0  0  0  0
  146.2200  157.7740  133.2600 C   0  0  0  0  0  0  0  0  0  0  0  0
  145.0400  158.3840  133.5070 N   0  0  0  0  0  0  0  0  0  0  0  0
  143.7800  157.7340  133.7270 C   0  0  0  0  0  0  0  0  0  0  0  0
  142.8500  157.8610  132.8830 O   0  0  0  0  0  0  0  0  0  0  0  0
  143.5800  156.9810  134.8900 O   0  0  0  0  0  0  0  0  0  0  0  0
  143.2190  155.6020  134.8780 C   0  0  0  0  0  0  0  0  0  0  0  0
  144.4380  154.7450  135.0020 C   0  0  0  0  0  0  0  0  0  0  0  0
  145.4350  155.1480  135.6570 O   0  0  0  0  0  0  0  0  0  0  0  0
  144.4610  153.4850  134.4190 O   0  0  0  0  0  0  0  0  0  0  0  0
  142.5570  159.6260  134.0910 H   0  0  0  0  0  0  0  0  0  0  0  0
  147.2022  160.9106  133.3831 H   0  0  0  0  0  0  0  0  0  0  0  0
  149.3456  159.0874  132.8778 H   0  0  0  0  0  0  0  0  0  0  0  0
  149.8753  156.6438  132.6157 H   0  0  0  0  0  0  0  0  0  0  0  0
  150.1426  154.8734  132.0152 H   0  0  0  0  0  0  0  0  0  0  0  0
  150.6518  152.4431  131.7867 H   0  0  0  0  0  0  0  0  0  0  0  0
  146.7470  151.5450  133.2250 H   0  0  0  0  0  0  0  0  0  0  0  0
  146.1956  153.8631  133.4747 H   0  0  0  0  0  0  0  0  0  0  0  0
  145.6690  155.6683  133.2314 H   0  0  0  0  0  0  0  0  0  0  0  0
  142.5436  155.3964  135.7216 H   0  0  0  0  0  0  0  0  0  0  0  0
  142.7155  155.3723  133.9273 H   0  0  0  0  0  0  0  0  0  0  0  0
  1  2  1  0
  2  3  2  0
  2  4  1  0
  4  5  2  0
  5  6  1  0
  6  7  2  0
  7  8  1  0
  8  9  2  0
  9 10  1  0
 10 11  2  0
 11 12  1  0
 12 13  2  0
 13 14  1  0
 14 15  2  0
 14 16  1  0
 13 17  1  0
 17 18  2  0
  9 19  1  0
 19 20  2  0
 20 21  1  0
 21 22  1  0
 22 23  2  0
 22 24  1  0
 24 25  1  0
 25 26  1  0
 26 27  2  0
 26 28  1  0
 21  4  1  0
 20  6  1  0
 18 10  1  0
  1 29  1  0
  5 30  1  0
  7 31  1  0
  8 32  1  0
 11 33  1  0
 12 34  1  0
 17 35  1  0
 18 36  1  0
 19 37  1  0
 25 38  1  0
 25 39  1  0
M  CHG  4   1  -1  16  -1  17   1  28  -1
M  END
>  <UniqueID>  (55) 
55

>  <SMILES>  (55) 
[NH-]C(=O)c1cc2ccc(-c3ccc(C(=O)[O-])[nH+]c3)cc2n1C(=O)OCC(=O)[O-]

>  <Energy>  (55) 
84.41617038415755

>  <Genealogy>  (55) 
[NH-]C(=O)c1cc2ccc(-c3ccc(C(=O)[O-])[nH+]c3)cc2n1C(=O)OCC(=O)[O-] (protonated)
[NH-]C(=O)c1cc2ccc(-c3ccc(C(=O)[O-])[nH+]c3)cc2n1C(=O)OCC(=O)[O-] (3D coordinates assigned)
[NH-]C(=O)c1cc2ccc(-c3ccc(C(=O)[O-])[nH+]c3)cc2n1C(=O)OCC(=O)[O-] (optimized conformer: 84.41617038415755 kcal/mol)

>  <smiles>  (55) 
NC(=O)c1cc2ccc(-c3ccc(C(=O)O)nc3)cc2n1C(=O)OCC(=O)O

>  <score_type>  (55) 
oracle

>  <origin>  (55) 
adg

>  <m_score__min__energy>  (55) 
-7.5499999999999998

>  <m_primary>  (55) 
energy

$$$$
57:0
     RDKit          3D

 30 31  0  0  0  0  0  0  0  0999 V2000
  148.9460  151.9350  132.3030 N   0  0  0  0  0  0  0  0  0  0  0  0
  149.1790  153.0610  132.4290 C   0  0  0  0  0  0  0  0  0  0  0  0
  149.4750  154.4880  132.5890 C   0  0  0  0  0  0  0  0  0  0  0  0
  148.2120  155.2430  132.8900 C   0  0  0  0  0  0  0  0  0  0  0  0
  147.0560  154.5490  133.3320 C   0  0  0  0  0  0  0  0  0  0  0  0
  145.8740  155.2470  133.6330 C   0  0  0  0  0  0  0  0  0  0  0  0
  145.8820  156.6320  133.5010 C   0  0  0  0  0  0  0  0  0  0  0  0
  144.8750  157.5490  133.7010 C   0  0  0  0  0  0  0  0  0  0  0  0
  145.4400  158.7900  133.4090 C   0  0  0  0  0  0  0  0  0  0  0  0
  144.7120  160.0710  133.5340 C   0  0  0  0  0  0  0  0  0  0  0  0
  145.3910  161.2740  133.8830 N   0  0  0  0  0  0  0  0  0  0  0  0
  143.4650  160.1000  133.3540 O   0  0  0  0  0  0  0  0  0  0  0  0
  146.7460  158.6430  133.0460 N   0  0  0  0  0  0  0  0  0  0  0  0
  147.6590  159.6640  132.6200 C   0  0  0  0  0  0  0  0  0  0  0  0
  148.1260  160.4770  133.4630 O   0  0  0  0  0  0  0  0  0  0  0  0
  148.0960  159.7470  131.1890 C   0  0  0  0  0  0  0  0  0  0  0  0
  149.5610  159.4750  131.0880 C   0  0  0  0  0  0  0  0  0  0  0  0
  150.1010  158.6210  131.8400 O   0  0  0  0  0  0  0  0  0  0  0  0
  150.3440  160.2000  130.1980 O   0  0  0  0  0  0  0  0  0  0  0  0
  146.9990  157.3180  133.1020 C   0  0  0  0  0  0  0  0  0  0  0  0
  148.1830  156.6500  132.7760 C   0  0  0  0  0  0  0  0  0  0  0  0
  150.1860  154.6221  133.4176 H   0  0  0  0  0  0  0  0  0  0  0  0
  149.9129  154.8732  131.6563 H   0  0  0  0  0  0  0  0  0  0  0  0
  147.0853  153.4547  133.4400 H   0  0  0  0  0  0  0  0  0  0  0  0
  144.9698  154.7144  133.9630 H   0  0  0  0  0  0  0  0  0  0  0  0
  143.8430  157.3458  134.0230 H   0  0  0  0  0  0  0  0  0  0  0  0
  146.2450  161.5790  133.3650 H   0  0  0  0  0  0  0  0  0  0  0  0
  147.5451  159.0024  130.5957 H   0  0  0  0  0  0  0  0  0  0  0  0
  147.8879  160.7565  130.8049 H   0  0  0  0  0  0  0  0  0  0  0  0
  149.0699  157.2067  132.4391 H   0  0  0  0  0  0  0  0  0  0  0  0
  1  2  3  0
  2  3  1  0
  3  4  1  0
  4  5  2  0
  5  6  1  0
  6  7  2  0
  7  8  1  0
  8  9  2  0
  9 10  1  0
 10 11  1  0
 10 12  2  0
  9 13  1  0
 13 14  1  0
 14 15  2  0
 14 16  1  0
 16 17  1  0
 17 18  2  0
 17 19  1  0
 13 20  1  0
 20 21  2  0
 21  4  1  0
 20  7  1  0
  3 22  1  0
  3 23  1  0
  5 24  1  0
  6 25  1  0
  8 26  1  0
 11 27  1  0
 16 28  1  0
 16 29  1  0
 21 30  1  0
M  CHG  2  11  -1  19  -1
M  END
>  <UniqueID>  (56) 
56

>  <SMILES>  (56) 
N#CCc1ccc2cc(C([NH-])=O)n(C(=O)CC(=O)[O-])c2c1

>  <Energy>  (56) 
66.23987164194725

>  <Genealogy>  (56) 
N#CCc1ccc2cc(C([NH-])=O)n(C(=O)CC(=O)[O-])c2c1 (protonated)
N#CCc1ccc2cc(C([NH-])=O)n(C(=O)CC(=O)[O-])c2c1 (3D coordinates assigned)
N#CCc1ccc2cc(C([NH-])=O)n(C(=O)CC(=O)[O-])c2c1 (optimized conformer: 66.23987164194725 kcal/mol)

>  <smiles>  (56) 
N#CCc1ccc2cc(C(N)=O)n(C(=O)CC(=O)O)c2c1

>  <score_type>  (56) 
oracle

>  <origin>  (56) 
adg

>  <m_score__min__energy>  (56) 
-6.6500000000000004

>  <m_primary>  (56) 
energy

$$$$
58:0
     RDKit          3D

 39 41  0  0  0  0  0  0  0  0999 V2000
  144.2790  154.5040  136.1150 N   0  0  0  0  0  0  0  0  0  0  0  0
  143.9300  155.3840  135.0490 C   0  0  0  0  0  0  0  0  0  0  0  0
  142.7460  155.3970  134.6220 O   0  0  0  0  0  0  0  0  0  0  0  0
  144.9460  156.2920  134.4810 C   0  0  0  0  0  0  0  0  0  0  0  0
  146.3190  156.1290  134.6600 C   0  0  0  0  0  0  0  0  0  0  0  0
  146.8980  157.2200  134.0510 C   0  0  0  0  0  0  0  0  0  0  0  0
  148.2390  157.5680  133.9180 C   0  0  0  0  0  0  0  0  0  0  0  0
  148.5470  158.7470  133.2170 C   0  0  0  0  0  0  0  0  0  0  0  0
  147.5170  159.5540  132.6650 C   0  0  0  0  0  0  0  0  0  0  0  0
  147.8430  160.7500  131.9260 N   0  0  0  0  0  0  0  0  0  0  0  0
  149.2080  160.6600  131.3780 C   0  0  0  0  0  0  0  0  0  0  0  0
  149.3310  159.5960  130.2860 C   0  0  0  0  0  0  0  0  0  0  0  0
  149.6590  160.6800  129.2690 C   0  0  0  0  0  0  0  0  0  0  0  0
  149.5330  161.7450  130.3490 C   0  0  0  0  0  0  0  0  0  0  0  0
  146.1670  159.1650  132.8230 C   0  0  0  0  0  0  0  0  0  0  0  0
  145.8910  157.9910  133.5310 C   0  0  0  0  0  0  0  0  0  0  0  0
  144.6900  157.4320  133.7820 N   0  0  0  0  0  0  0  0  0  0  0  0
  143.4210  157.9310  133.3310 C   0  0  0  0  0  0  0  0  0  0  0  0
  142.9280  157.4900  132.2580 O   0  0  0  0  0  0  0  0  0  0  0  0
  142.6110  158.8410  134.2110 C   0  0  0  0  0  0  0  0  0  0  0  0
  142.8040  160.2800  133.8450 C   0  0  0  0  0  0  0  0  0  0  0  0
  141.8400  160.9530  133.3930 O   0  0  0  0  0  0  0  0  0  0  0  0
  144.0530  160.8730  133.9780 O   0  0  0  0  0  0  0  0  0  0  0  0
  144.3730  154.8570  137.0930 H   0  0  0  0  0  0  0  0  0  0  0  0
  146.8309  155.3043  135.1776 H   0  0  0  0  0  0  0  0  0  0  0  0
  149.0332  156.9400  134.3480 H   0  0  0  0  0  0  0  0  0  0  0  0
  149.5979  159.0479  133.0946 H   0  0  0  0  0  0  0  0  0  0  0  0
  147.7380  161.5960  132.5360 H   0  0  0  0  0  0  0  0  0  0  0  0
  147.1660  160.8490  131.1330 H   0  0  0  0  0  0  0  0  0  0  0  0
  149.7895  160.5916  132.3092 H   0  0  0  0  0  0  0  0  0  0  0  0
  150.1444  158.8742  130.4515 H   0  0  0  0  0  0  0  0  0  0  0  0
  148.5086  158.8892  130.1015 H   0  0  0  0  0  0  0  0  0  0  0  0
  150.6672  160.5979  128.8367 H   0  0  0  0  0  0  0  0  0  0  0  0
  149.0757  160.7621  128.3400 H   0  0  0  0  0  0  0  0  0  0  0  0
  150.4656  162.2918  130.5519 H   0  0  0  0  0  0  0  0  0  0  0  0
  148.8577  162.6022  130.2105 H   0  0  0  0  0  0  0  0  0  0  0  0
  145.3530  159.7714  132.3991 H   0  0  0  0  0  0  0  0  0  0  0  0
  141.5464  158.5856  134.1043 H   0  0  0  0  0  0  0  0  0  0  0  0
  142.9469  158.7029  135.2493 H   0  0  0  0  0  0  0  0  0  0  0  0
  1  2  1  0
  2  3  2  0
  2  4  1  0
  4  5  2  0
  5  6  1  0
  6  7  2  0
  7  8  1  0
  8  9  2  0
  9 10  1  0
 10 11  1  0
 11 12  1  0
 12 13  1  0
 13 14  1  0
  9 15  1  0
 15 16  2  0
 16 17  1  0
 17 18  1  0
 18 19  2  0
 18 20  1  0
 20 21  1  0
 21 22  2  0
 21 23  1  0
 17  4  1  0
 16  6  1  0
 14 11  1  0
  1 24  1  0
  5 25  1  0
  7 26  1  0
  8 27  1  0
 10 28  1  0
 10 29  1  0
 11 30  1  0
 12 31  1  0
 12 32  1  0
 13 33  1  0
 13 34  1  0
 14 35  1  0
 14 36  1  0
 15 37  1  0
 20 38  1  0
 20 39  1  0
M  CHG  3   1  -1  10   1  23  -1
M  END
>  <UniqueID>  (57) 
57

>  <SMILES>  (57) 
[NH-]C(=O)c1cc2ccc([NH2+]C3CCC3)cc2n1C(=O)CC(=O)[O-]

>  <Energy>  (57) 
139.78370006302333

>  <Genealogy>  (57) 
[NH-]C(=O)c1cc2ccc([NH2+]C3CCC3)cc2n1C(=O)CC(=O)[O-] (protonated)
[NH-]C(=O)c1cc2ccc([NH2+]C3CCC3)cc2n1C(=O)CC(=O)[O-] (3D coordinates assigned)
[NH-]C(=O)c1cc2ccc([NH2+]C3CCC3)cc2n1C(=O)CC(=O)[O-] (nonaromatic ring conformer: 139.78370006302333 kcal/mol)

>  <smiles>  (57) 
NC(=O)c1cc2ccc(NC3CCC3)cc2n1C(=O)CC(=O)O

>  <score_type>  (57) 
oracle

>  <origin>  (57) 
adg

>  <m_score__min__energy>  (57) 
-7.4800000000000004

>  <m_primary>  (57) 
energy

$$$$
59:0
     RDKit          3D

 36 38  0  0  0  0  0  0  0  0999 V2000
  148.4840  157.3260  133.7920 N   0  0  0  0  0  0  0  0  0  0  0  0
  147.9670  158.6190  133.4820 C   0  0  0  0  0  0  0  0  0  0  0  0
  148.7540  159.5190  133.0830 O   0  0  0  0  0  0  0  0  0  0  0  0
  146.5220  158.9030  133.5620 C   0  0  0  0  0  0  0  0  0  0  0  0
  145.9950  160.1820  133.7270 C   0  0  0  0  0  0  0  0  0  0  0  0
  144.6290  160.0210  133.6760 C   0  0  0  0  0  0  0  0  0  0  0  0
  143.6110  160.9630  133.7840 C   0  0  0  0  0  0  0  0  0  0  0  0
  142.2820  160.5070  133.7160 C   0  0  0  0  0  0  0  0  0  0  0  0
  141.9960  159.1250  133.5680 C   0  0  0  0  0  0  0  0  0  0  0  0
  140.5670  158.6540  133.4560 C   0  0  0  0  0  0  0  0  0  0  0  0
  140.5190  157.3310  133.0530 F   0  0  0  0  0  0  0  0  0  0  0  0
  139.9220  158.7590  134.6770 F   0  0  0  0  0  0  0  0  0  0  0  0
  139.9030  159.4330  132.5280 F   0  0  0  0  0  0  0  0  0  0  0  0
  143.0600  158.2030  133.4410 C   0  0  0  0  0  0  0  0  0  0  0  0
  144.3700  158.6880  133.4960 C   0  0  0  0  0  0  0  0  0  0  0  0
  145.5230  157.9880  133.4270 N   0  0  0  0  0  0  0  0  0  0  0  0
  145.6350  156.5570  133.3700 C   0  0  0  0  0  0  0  0  0  0  0  0
  146.3580  156.0280  132.4820 O   0  0  0  0  0  0  0  0  0  0  0  0
  144.7850  155.6910  134.2600 C   0  0  0  0  0  0  0  0  0  0  0  0
  145.6200  154.8710  135.2030 C   0  0  0  0  0  0  0  0  0  0  0  0
  145.0200  154.1140  136.2180 C   0  0  0  0  0  0  0  0  0  0  0  0
  145.8370  153.3580  137.0560 C   0  0  0  0  0  0  0  0  0  0  0  0
  147.1840  153.3650  136.8780 N   0  0  0  0  0  0  0  0  0  0  0  0
  147.7520  154.1020  135.8880 C   0  0  0  0  0  0  0  0  0  0  0  0
  146.9720  154.8460  135.0610 N   0  0  0  0  0  0  0  0  0  0  0  0
  149.5130  157.1530  133.7650 H   0  0  0  0  0  0  0  0  0  0  0  0
  147.8490  156.5180  133.9730 H   0  0  0  0  0  0  0  0  0  0  0  0
  146.5517  161.1202  133.8680 H   0  0  0  0  0  0  0  0  0  0  0  0
  143.8382  162.0309  133.9183 H   0  0  0  0  0  0  0  0  0  0  0  0
  141.4552  161.2298  133.7783 H   0  0  0  0  0  0  0  0  0  0  0  0
  142.8620  157.1299  133.3022 H   0  0  0  0  0  0  0  0  0  0  0  0
  144.1133  156.3347  134.8469 H   0  0  0  0  0  0  0  0  0  0  0  0
  144.2135  155.0014  133.6214 H   0  0  0  0  0  0  0  0  0  0  0  0
  143.9280  154.1165  136.3503 H   0  0  0  0  0  0  0  0  0  0  0  0
  145.3916  152.7556  137.8615 H   0  0  0  0  0  0  0  0  0  0  0  0
  148.8440  154.0963  135.7560 H   0  0  0  0  0  0  0  0  0  0  0  0
  1  2  1  0
  2  3  2  0
  2  4  1  0
  4  5  2  0
  5  6  1  0
  6  7  2  0
  7  8  1  0
  8  9  2  0
  9 10  1  0
 10 11  1  0
 10 12  1  0
 10 13  1  0
  9 14  1  0
 14 15  2  0
 15 16  1  0
 16 17  1  0
 17 18  2  0
 17 19  1  0
 19 20  1  0
 20 21  2  0
 21 22  1  0
 22 23  2  0
 23 24  1  0
 24 25  2  0
 16  4  1  0
 25 20  1  0
 15  6  1  0
  1 26  1  0
  1 27  1  0
  5 28  1  0
  7 29  1  0
  8 30  1  0
 14 31  1  0
 19 32  1  0
 19 33  1  0
 21 34  1  0
 22 35  1  0
 24 36  1  0
M  END
>  <UniqueID>  (58) 
58

>  <SMILES>  (58) 
NC(=O)c1cc2ccc(C(F)(F)F)cc2n1C(=O)Cc1ccncn1

>  <Energy>  (58) 
80.12462231259833

>  <Genealogy>  (58) 
NC(=O)c1cc2ccc(C(F)(F)F)cc2n1C(=O)Cc1ccncn1 (3D coordinates assigned)
NC(=O)c1cc2ccc(C(F)(F)F)cc2n1C(=O)Cc1ccncn1 (optimized conformer: 80.12462231259833 kcal/mol)

>  <smiles>  (58) 
NC(=O)c1cc2ccc(C(F)(F)F)cc2n1C(=O)Cc1ccncn1

>  <score_type>  (58) 
oracle

>  <origin>  (58) 
adg

>  <m_score__min__energy>  (58) 
-7.6399999999999997

>  <m_primary>  (58) 
energy

$$$$
60:0
     RDKit          3D

 42 44  0  0  0  0  0  0  0  0999 V2000
  146.3230  155.1760  131.9470 N   0  0  0  0  0  0  0  0  0  0  0  0
  146.1140  155.7920  133.2190 C   0  0  0  0  0  0  0  0  0  0  0  0
  146.2560  155.1080  134.2680 O   0  0  0  0  0  0  0  0  0  0  0  0
  145.6850  157.1990  133.3100 C   0  0  0  0  0  0  0  0  0  0  0  0
  144.3460  157.5860  133.3570 C   0  0  0  0  0  0  0  0  0  0  0  0
  144.3690  158.9370  133.6170 C   0  0  0  0  0  0  0  0  0  0  0  0
  143.3190  159.8340  133.7840 C   0  0  0  0  0  0  0  0  0  0  0  0
  143.6360  161.1820  134.0320 C   0  0  0  0  0  0  0  0  0  0  0  0
  144.9870  161.6060  134.1150 C   0  0  0  0  0  0  0  0  0  0  0  0
  145.3140  163.0670  134.2970 C   0  0  0  0  0  0  0  0  0  0  0  0
  144.3830  163.8590  133.6470 F   0  0  0  0  0  0  0  0  0  0  0  0
  145.3040  163.3710  135.6450 F   0  0  0  0  0  0  0  0  0  0  0  0
  146.5650  163.3610  133.7810 F   0  0  0  0  0  0  0  0  0  0  0  0
  146.0260  160.6640  133.9270 C   0  0  0  0  0  0  0  0  0  0  0  0
  145.6820  159.3250  133.7020 C   0  0  0  0  0  0  0  0  0  0  0  0
  146.5050  158.2670  133.5190 N   0  0  0  0  0  0  0  0  0  0  0  0
  147.9460  158.3010  133.5400 C   0  0  0  0  0  0  0  0  0  0  0  0
  148.5350  158.7510  134.5580 O   0  0  0  0  0  0  0  0  0  0  0  0
  148.7500  157.9770  132.3050 C   0  0  0  0  0  0  0  0  0  0  0  0
  149.5910  159.1510  131.7580 C   0  0  0  0  0  0  0  0  0  0  0  0
  148.8120  160.1780  130.8960 C   0  0  0  0  0  0  0  0  0  0  0  0
  147.3670  160.1960  131.1600 N   0  0  0  0  0  0  0  0  0  0  0  0
  149.1390  160.1040  129.4030 C   0  0  0  0  0  0  0  0  0  0  0  0
  149.6740  161.4670  129.3700 N   0  0  0  0  0  0  0  0  0  0  0  0
  149.4260  161.5750  130.8090 C   0  0  0  0  0  0  0  0  0  0  0  0
  146.6060  154.1690  131.8880 H   0  0  0  0  0  0  0  0  0  0  0  0
  146.2360  155.7220  131.0560 H   0  0  0  0  0  0  0  0  0  0  0  0
  143.4611  156.9479  133.2163 H   0  0  0  0  0  0  0  0  0  0  0  0
  142.2728  159.4995  133.7240 H   0  0  0  0  0  0  0  0  0  0  0  0
  142.8269  161.9156  134.1630 H   0  0  0  0  0  0  0  0  0  0  0  0
  147.0803  160.9763  133.9569 H   0  0  0  0  0  0  0  0  0  0  0  0
  149.4331  157.1497  132.5478 H   0  0  0  0  0  0  0  0  0  0  0  0
  148.0241  157.7213  131.5191 H   0  0  0  0  0  0  0  0  0  0  0  0
  150.0253  159.6865  132.6151 H   0  0  0  0  0  0  0  0  0  0  0  0
  150.3430  158.7026  131.0921 H   0  0  0  0  0  0  0  0  0  0  0  0
  146.8790  160.4820  130.2800 H   0  0  0  0  0  0  0  0  0  0  0  0
  147.1390  160.9210  131.8820 H   0  0  0  0  0  0  0  0  0  0  0  0
  149.8867  159.3355  129.1574 H   0  0  0  0  0  0  0  0  0  0  0  0
  148.3377  159.8338  128.6995 H   0  0  0  0  0  0  0  0  0  0  0  0
  148.9860  162.0820  128.8700 H   0  0  0  0  0  0  0  0  0  0  0  0
  150.3453  161.6852  131.4030 H   0  0  0  0  0  0  0  0  0  0  0  0
  148.8441  162.4311  131.1812 H   0  0  0  0  0  0  0  0  0  0  0  0
  1  2  1  0
  2  3  2  0
  2  4  1  0
  4  5  2  0
  5  6  1  0
  6  7  2  0
  7  8  1  0
  8  9  2  0
  9 10  1  0
 10 11  1  0
 10 12  1  0
 10 13  1  0
  9 14  1  0
 14 15  2  0
 15 16  1  0
 16 17  1  0
 17 18  2  0
 17 19  1  0
 19 20  1  0
 20 21  1  0
 21 22  1  0
 21 23  1  0
 23 24  1  0
 24 25  1  0
 16  4  1  0
 25 21  1  0
 15  6  1  0
  1 26  1  0
  1 27  1  0
  5 28  1  0
  7 29  1  0
  8 30  1  0
 14 31  1  0
 19 32  1  0
 19 33  1  0
 20 34  1  0
 20 35  1  0
 22 36  1  0
 22 37  1  0
 23 38  1  0
 23 39  1  0
 24 40  1  0
 25 41  1  0
 25 42  1  0
M  END
>  <UniqueID>  (59) 
59

>  <SMILES>  (59) 
NC(=O)c1cc2ccc(C(F)(F)F)cc2n1C(=O)CCC1(N)CNC1

>  <Energy>  (59) 
152.77456337207798

>  <Genealogy>  (59) 
NC(=O)c1cc2ccc(C(F)(F)F)cc2n1C(=O)CCC1(N)CNC1 (3D coordinates assigned)
NC(=O)c1cc2ccc(C(F)(F)F)cc2n1C(=O)CCC1(N)CNC1 (nonaromatic ring conformer: 152.77456337207798 kcal/mol)

>  <smiles>  (59) 
NC(=O)c1cc2ccc(C(F)(F)F)cc2n1C(=O)CCC1(N)CNC1

>  <score_type>  (59) 
oracle

>  <origin>  (59) 
adg

>  <m_score__min__energy>  (59) 
-8.5600000000000005

>  <m_primary>  (59) 
energy

$$$$
61:0
     RDKit          3D

 41 42  0  0  0  0  0  0  0  0999 V2000
  149.5900  161.1140  130.5110 C   0  0  0  0  0  0  0  0  0  0  0  0
  148.5630  160.1200  129.9810 C   0  0  0  0  0  0  0  0  0  0  0  0
  148.4520  158.9920  130.8470 O   0  0  0  0  0  0  0  0  0  0  0  0
  149.1240  158.8890  132.0710 C   0  0  0  0  0  0  0  0  0  0  0  0
  150.0820  158.0820  132.2130 O   0  0  0  0  0  0  0  0  0  0  0  0
  148.6850  159.7350  133.2250 C   0  0  0  0  0  0  0  0  0  0  0  0
  147.2220  160.1720  133.0950 C   0  0  0  0  0  0  0  0  0  0  0  0
  146.3550  159.0370  132.7960 N   0  0  0  0  0  0  0  0  0  0  0  0
  145.1330  158.7530  133.4850 C   0  0  0  0  0  0  0  0  0  0  0  0
  144.5020  159.6820  134.0560 O   0  0  0  0  0  0  0  0  0  0  0  0
  144.6050  157.4150  133.4930 N   0  0  0  0  0  0  0  0  0  0  0  0
  145.2790  156.2570  133.2400 C   0  0  0  0  0  0  0  0  0  0  0  0
  146.7400  156.1240  133.0860 C   0  0  0  0  0  0  0  0  0  0  0  0
  147.4330  156.7860  132.0290 N   0  0  0  0  0  0  0  0  0  0  0  0
  147.3960  155.4610  133.9340 O   0  0  0  0  0  0  0  0  0  0  0  0
  144.4040  155.1760  133.1950 C   0  0  0  0  0  0  0  0  0  0  0  0
  143.1600  155.7060  133.4420 C   0  0  0  0  0  0  0  0  0  0  0  0
  141.9170  155.0830  133.4870 C   0  0  0  0  0  0  0  0  0  0  0  0
  140.7850  155.8820  133.7170 C   0  0  0  0  0  0  0  0  0  0  0  0
  140.9130  157.2820  133.9060 C   0  0  0  0  0  0  0  0  0  0  0  0
  139.6960  158.1500  134.0990 C   0  0  0  0  0  0  0  0  0  0  0  0
  139.9140  159.4320  133.6250 F   0  0  0  0  0  0  0  0  0  0  0  0
  139.3920  158.2160  135.4470 F   0  0  0  0  0  0  0  0  0  0  0  0
  138.6160  157.6140  133.4190 F   0  0  0  0  0  0  0  0  0  0  0  0
  142.1920  157.8810  133.8310 C   0  0  0  0  0  0  0  0  0  0  0  0
  143.3060  157.0580  133.6190 C   0  0  0  0  0  0  0  0  0  0  0  0
  149.5779  161.1023  131.6109 H   0  0  0  0  0  0  0  0  0  0  0  0
  150.5912  160.8331  130.1523 H   0  0  0  0  0  0  0  0  0  0  0  0
  149.3419  162.1238  130.1523 H   0  0  0  0  0  0  0  0  0  0  0  0
  147.5843  160.6170  129.9098 H   0  0  0  0  0  0  0  0  0  0  0  0
  148.8901  159.7715  128.9903 H   0  0  0  0  0  0  0  0  0  0  0  0
  148.8014  159.1566  134.1534 H   0  0  0  0  0  0  0  0  0  0  0  0
  149.3094  160.6405  133.2383 H   0  0  0  0  0  0  0  0  0  0  0  0
  146.8992  160.6301  134.0416 H   0  0  0  0  0  0  0  0  0  0  0  0
  147.1471  160.8938  132.2684 H   0  0  0  0  0  0  0  0  0  0  0  0
  146.9430  157.4760  131.4190 H   0  0  0  0  0  0  0  0  0  0  0  0
  148.4620  156.6530  131.9100 H   0  0  0  0  0  0  0  0  0  0  0  0
  144.6544  154.1222  133.0028 H   0  0  0  0  0  0  0  0  0  0  0  0
  141.8234  153.9960  133.3465 H   0  0  0  0  0  0  0  0  0  0  0  0
  139.7886  155.4172  133.7509 H   0  0  0  0  0  0  0  0  0  0  0  0
  142.3097  158.9696  133.9368 H   0  0  0  0  0  0  0  0  0  0  0  0
  1  2  1  0
  2  3  1  0
  3  4  1  0
  4  5  2  0
  4  6  1  0
  6  7  1  0
  7  8  1  0
  8  9  1  0
  9 10  2  0
  9 11  1  0
 11 12  1  0
 12 13  1  0
 13 14  1  0
 13 15  2  0
 12 16  2  0
 16 17  1  0
 17 18  2  0
 18 19  1  0
 19 20  2  0
 20 21  1  0
 21 22  1  0
 21 23  1  0
 21 24  1  0
 20 25  1  0
 25 26  2  0
 26 11  1  0
 26 17  1  0
  1 27  1  0
  1 28  1  0
  1 29  1  0
  2 30  1  0
  2 31  1  0
  6 32  1  0
  6 33  1  0
  7 34  1  0
  7 35  1  0
 14 36  1  0
 14 37  1  0
 16 38  1  0
 18 39  1  0
 19 40  1  0
 25 41  1  0
M  CHG  1   8  -1
M  END
>  <UniqueID>  (60) 
60

>  <SMILES>  (60) 
CCOC(=O)CC[N-]C(=O)n1c(C(N)=O)cc2ccc(C(F)(F)F)cc21

>  <Energy>  (60) 
72.18513039570719

>  <Genealogy>  (60) 
CCOC(=O)CC[N-]C(=O)n1c(C(N)=O)cc2ccc(C(F)(F)F)cc21 (protonated)
CCOC(=O)CC[N-]C(=O)n1c(C(N)=O)cc2ccc(C(F)(F)F)cc21 (3D coordinates assigned)
CCOC(=O)CC[N-]C(=O)n1c(C(N)=O)cc2ccc(C(F)(F)F)cc21 (optimized conformer: 72.18513039570719 kcal/mol)

>  <smiles>  (60) 
CCOC(=O)CCNC(=O)n1c(C(N)=O)cc2ccc(C(F)(F)F)cc21

>  <score_type>  (60) 
oracle

>  <origin>  (60) 
adg

>  <m_score__min__energy>  (60) 
-6.54

>  <m_primary>  (60) 
energy

$$$$
62:0
     RDKit          3D

 37 38  0  0  0  0  0  0  0  0999 V2000
  142.3660  160.8870  133.7000 N   0  0  0  0  0  0  0  0  0  0  0  0
  143.7480  161.2270  133.7440 C   0  0  0  0  0  0  0  0  0  0  0  0
  144.0830  162.4390  133.8280 O   0  0  0  0  0  0  0  0  0  0  0  0
  144.7940  160.1870  133.6340 C   0  0  0  0  0  0  0  0  0  0  0  0
  146.1440  160.4800  133.4540 C   0  0  0  0  0  0  0  0  0  0  0  0
  146.7670  159.2610  133.3160 C   0  0  0  0  0  0  0  0  0  0  0  0
  148.1120  158.9620  133.1250 C   0  0  0  0  0  0  0  0  0  0  0  0
  148.4820  157.6080  133.0470 C   0  0  0  0  0  0  0  0  0  0  0  0
  147.5060  156.5860  133.1680 C   0  0  0  0  0  0  0  0  0  0  0  0
  147.9080  155.1400  133.1040 C   0  0  0  0  0  0  0  0  0  0  0  0
  149.2030  155.0390  132.6290 F   0  0  0  0  0  0  0  0  0  0  0  0
  147.8410  154.5810  134.3670 F   0  0  0  0  0  0  0  0  0  0  0  0
  146.1510  156.9300  133.3640 C   0  0  0  0  0  0  0  0  0  0  0  0
  145.8080  158.2860  133.4170 C   0  0  0  0  0  0  0  0  0  0  0  0
  144.5900  158.8390  133.6160 N   0  0  0  0  0  0  0  0  0  0  0  0
  143.3630  158.1260  133.8460 C   0  0  0  0  0  0  0  0  0  0  0  0
  142.6670  157.7430  132.8670 O   0  0  0  0  0  0  0  0  0  0  0  0
  142.9320  157.8910  135.1570 O   0  0  0  0  0  0  0  0  0  0  0  0
  142.0600  158.7610  135.8770 C   0  0  0  0  0  0  0  0  0  0  0  0
  140.6770  158.1270  136.0610 C   0  0  0  0  0  0  0  0  0  0  0  0
  139.8580  158.1240  134.7710 C   0  0  0  0  0  0  0  0  0  0  0  0
  140.0280  159.3660  134.0970 O   0  0  0  0  0  0  0  0  0  0  0  0
  139.7680  159.5060  132.7480 N   0  0  0  0  0  0  0  0  0  0  0  0
  138.6120  159.7330  132.3350 O   0  0  0  0  0  0  0  0  0  0  0  0
  140.8000  159.3950  131.8470 O   0  0  0  0  0  0  0  0  0  0  0  0
  142.0580  159.9060  133.5200 H   0  0  0  0  0  0  0  0  0  0  0  0
  146.6125  161.4749  133.4278 H   0  0  0  0  0  0  0  0  0  0  0  0
  148.8633  159.7607  133.0377 H   0  0  0  0  0  0  0  0  0  0  0  0
  149.5371  157.3390  132.8908 H   0  0  0  0  0  0  0  0  0  0  0  0
  147.2241  154.6049  132.4287 H   0  0  0  0  0  0  0  0  0  0  0  0
  145.3825  156.1505  133.4726 H   0  0  0  0  0  0  0  0  0  0  0  0
  142.4949  158.9677  136.8660 H   0  0  0  0  0  0  0  0  0  0  0  0
  141.9439  159.6924  135.3034 H   0  0  0  0  0  0  0  0  0  0  0  0
  140.8073  157.0882  136.3985 H   0  0  0  0  0  0  0  0  0  0  0  0
  140.1301  158.7278  136.8026 H   0  0  0  0  0  0  0  0  0  0  0  0
  140.2002  157.3048  134.1216 H   0  0  0  0  0  0  0  0  0  0  0  0
  138.7945  157.9811  135.0128 H   0  0  0  0  0  0  0  0  0  0  0  0
  1  2  1  0
  2  3  2  0
  2  4  1  0
  4  5  2  0
  5  6  1  0
  6  7  2  0
  7  8  1  0
  8  9  2  0
  9 10  1  0
 10 11  1  0
 10 12  1  0
  9 13  1  0
 13 14  2  0
 14 15  1  0
 15 16  1  0
 16 17  2  0
 16 18  1  0
 18 19  1  0
 19 20  1  0
 20 21  1  0
 21 22  1  0
 22 23  1  0
 23 24  2  0
 23 25  1  0
 15  4  1  0
 14  6  1  0
  1 26  1  0
  5 27  1  0
  7 28  1  0
  8 29  1  0
 10 30  1  0
 13 31  1  0
 19 32  1  0
 19 33  1  0
 20 34  1  0
 20 35  1  0
 21 36  1  0
 21 37  1  0
M  CHG  3   1  -1  23   1  25  -1
M  END
>  <UniqueID>  (61) 
61

>  <SMILES>  (61) 
[NH-]C(=O)c1cc2ccc(C(F)F)cc2n1C(=O)OCCCO[N+](=O)[O-]

>  <Energy>  (61) 
69.48841600084585

>  <Genealogy>  (61) 
[NH-]C(=O)c1cc2ccc(C(F)F)cc2n1C(=O)OCCCO[N+](=O)[O-] (protonated)
[NH-]C(=O)c1cc2ccc(C(F)F)cc2n1C(=O)OCCCO[N+](=O)[O-] (3D coordinates assigned)
[NH-]C(=O)c1cc2ccc(C(F)F)cc2n1C(=O)OCCCO[N+](=O)[O-] (optimized conformer: 69.48841600084585 kcal/mol)

>  <smiles>  (61) 
NC(=O)c1cc2ccc(C(F)F)cc2n1C(=O)OCCCO[N+](=O)[O-]

>  <score_type>  (61) 
oracle

>  <origin>  (61) 
adg

>  <m_score__min__energy>  (61) 
-6.1699999999999999

>  <m_primary>  (61) 
energy

$$$$
63:0
     RDKit          3D

 47 49  0  0  0  0  0  0  0  0999 V2000
  139.0890  158.2300  132.4700 C   0  0  0  0  0  0  0  0  0  0  0  0
  139.2690  156.8010  132.9820 C   0  0  0  0  0  0  0  0  0  0  0  0
  140.7360  156.3420  132.9960 C   0  0  0  0  0  0  0  0  0  0  0  0
  140.9590  155.0410  133.7730 C   0  0  0  0  0  0  0  0  0  0  0  0
  141.5530  155.3200  135.0350 O   0  0  0  0  0  0  0  0  0  0  0  0
  142.6400  156.1830  135.1900 C   0  0  0  0  0  0  0  0  0  0  0  0
  143.7750  155.7280  135.5020 O   0  0  0  0  0  0  0  0  0  0  0  0
  142.4580  157.5960  135.0090 N   0  0  0  0  0  0  0  0  0  0  0  0
  141.4230  158.3620  135.4580 C   0  0  0  0  0  0  0  0  0  0  0  0
  140.1780  157.8630  136.0780 C   0  0  0  0  0  0  0  0  0  0  0  0
  140.2130  156.8630  137.0910 N   0  0  0  0  0  0  0  0  0  0  0  0
  139.0650  158.2910  135.6700 O   0  0  0  0  0  0  0  0  0  0  0  0
  141.6600  159.7080  135.1900 C   0  0  0  0  0  0  0  0  0  0  0  0
  142.8770  159.7430  134.5500 C   0  0  0  0  0  0  0  0  0  0  0  0
  143.6040  160.8260  134.0760 C   0  0  0  0  0  0  0  0  0  0  0  0
  144.8540  160.5780  133.4900 C   0  0  0  0  0  0  0  0  0  0  0  0
  145.3790  159.2530  133.3840 C   0  0  0  0  0  0  0  0  0  0  0  0
  146.6870  159.0070  132.7820 N   0  0  0  0  0  0  0  0  0  0  0  0
  147.3780  160.1070  132.0740 C   0  0  0  0  0  0  0  0  0  0  0  0
  148.6990  159.6850  131.4250 C   0  0  0  0  0  0  0  0  0  0  0  0
  149.3940  158.7740  132.2410 O   0  0  0  0  0  0  0  0  0  0  0  0
  148.6820  157.5610  132.2590 C   0  0  0  0  0  0  0  0  0  0  0  0
  147.3600  157.7120  133.0170 C   0  0  0  0  0  0  0  0  0  0  0  0
  144.5920  158.1820  133.8950 C   0  0  0  0  0  0  0  0  0  0  0  0
  143.3390  158.4590  134.4530 C   0  0  0  0  0  0  0  0  0  0  0  0
  139.0024  158.9174  133.3244 H   0  0  0  0  0  0  0  0  0  0  0  0
  139.9586  158.5127  131.8586 H   0  0  0  0  0  0  0  0  0  0  0  0
  138.1764  158.2882  131.8586 H   0  0  0  0  0  0  0  0  0  0  0  0
  138.8756  156.7452  134.0077 H   0  0  0  0  0  0  0  0  0  0  0  0
  138.7257  156.1368  132.2938 H   0  0  0  0  0  0  0  0  0  0  0  0
  141.0631  156.1881  131.9571 H   0  0  0  0  0  0  0  0  0  0  0  0
  141.3169  157.1266  133.5029 H   0  0  0  0  0  0  0  0  0  0  0  0
  139.9921  154.5403  133.9289 H   0  0  0  0  0  0  0  0  0  0  0  0
  141.6304  154.3881  133.1960 H   0  0  0  0  0  0  0  0  0  0  0  0
  140.6940  155.9500  136.9300 H   0  0  0  0  0  0  0  0  0  0  0  0
  141.0118  160.5615  135.4375 H   0  0  0  0  0  0  0  0  0  0  0  0
  143.2110  161.8501  134.1576 H   0  0  0  0  0  0  0  0  0  0  0  0
  145.4435  161.4224  133.1033 H   0  0  0  0  0  0  0  0  0  0  0  0
  146.7101  160.4876  131.2872 H   0  0  0  0  0  0  0  0  0  0  0  0
  147.6187  160.8731  132.8258 H   0  0  0  0  0  0  0  0  0  0  0  0
  148.4878  159.2105  130.4553 H   0  0  0  0  0  0  0  0  0  0  0  0
  149.3237  160.5800  131.2886 H   0  0  0  0  0  0  0  0  0  0  0  0
  148.4704  157.2527  131.2245 H   0  0  0  0  0  0  0  0  0  0  0  0
  149.2941  156.8028  132.7694 H   0  0  0  0  0  0  0  0  0  0  0  0
  146.6829  156.9056  132.6990 H   0  0  0  0  0  0  0  0  0  0  0  0
  147.5962  157.6616  134.0902 H   0  0  0  0  0  0  0  0  0  0  0  0
  144.9650  157.1481  133.8516 H   0  0  0  0  0  0  0  0  0  0  0  0
  1  2  1  0
  2  3  1  0
  3  4  1  0
  4  5  1  0
  5  6  1  0
  6  7  2  0
  6  8  1  0
  8  9  1  0
  9 10  1  0
 10 11  1  0
 10 12  2  0
  9 13  2  0
 13 14  1  0
 14 15  2  0
 15 16  1  0
 16 17  2  0
 17 18  1  0
 18 19  1  0
 19 20  1  0
 20 21  1  0
 21 22  1  0
 22 23  1  0
 17 24  1  0
 24 25  2  0
 25  8  1  0
 25 14  1  0
 23 18  1  0
  1 26  1  0
  1 27  1  0
  1 28  1  0
  2 29  1  0
  2 30  1  0
  3 31  1  0
  3 32  1  0
  4 33  1  0
  4 34  1  0
 11 35  1  0
 13 36  1  0
 15 37  1  0
 16 38  1  0
 19 39  1  0
 19 40  1  0
 20 41  1  0
 20 42  1  0
 22 43  1  0
 22 44  1  0
 23 45  1  0
 23 46  1  0
 24 47  1  0
M  CHG  1  11  -1
M  END
>  <UniqueID>  (62) 
62

>  <SMILES>  (62) 
CCCCOC(=O)n1c(C([NH-])=O)cc2ccc(N3CCOCC3)cc21

>  <Energy>  (62) 
87.09960558222697

>  <Genealogy>  (62) 
CCCCOC(=O)n1c(C([NH-])=O)cc2ccc(N3CCOCC3)cc21 (protonated)
CCCCOC(=O)n1c(C([NH-])=O)cc2ccc(N3CCOCC3)cc21 (3D coordinates assigned)
CCCCOC(=O)n1c(C([NH-])=O)cc2ccc(N3CCOCC3)cc21 (nonaromatic ring conformer: 87.09960558222697 kcal/mol)

>  <smiles>  (62) 
CCCCOC(=O)n1c(C(N)=O)cc2ccc(N3CCOCC3)cc21

>  <score_type>  (62) 
oracle

>  <origin>  (62) 
adg

>  <m_score__min__energy>  (62) 
-7.2999999999999998

>  <m_primary>  (62) 
energy

$$$$
64:0
     RDKit          3D

 25 26  0  0  0  0  0  0  0  0999 V2000
  147.3320  155.6120  131.8560 N   0  0  0  0  0  0  0  0  0  0  0  0
  146.4570  155.8910  132.9500 C   0  0  0  0  0  0  0  0  0  0  0  0
  146.1590  154.9660  133.7520 O   0  0  0  0  0  0  0  0  0  0  0  0
  145.9500  157.2560  133.1970 C   0  0  0  0  0  0  0  0  0  0  0  0
  144.6030  157.5480  133.3860 C   0  0  0  0  0  0  0  0  0  0  0  0
  144.5590  158.8990  133.6430 C   0  0  0  0  0  0  0  0  0  0  0  0
  143.4650  159.7260  133.8790 C   0  0  0  0  0  0  0  0  0  0  0  0
  143.7050  161.0970  134.0680 C   0  0  0  0  0  0  0  0  0  0  0  0
  145.0250  161.6160  134.0260 C   0  0  0  0  0  0  0  0  0  0  0  0
  145.2620  163.0980  134.1650 C   0  0  0  0  0  0  0  0  0  0  0  0
  146.5350  163.4320  133.7410 F   0  0  0  0  0  0  0  0  0  0  0  0
  144.3520  163.8120  133.4050 F   0  0  0  0  0  0  0  0  0  0  0  0
  145.1190  163.4580  135.4930 F   0  0  0  0  0  0  0  0  0  0  0  0
  146.1070  160.7450  133.7570 C   0  0  0  0  0  0  0  0  0  0  0  0
  145.8420  159.3800  133.5950 C   0  0  0  0  0  0  0  0  0  0  0  0
  146.7110  158.3810  133.3170 N   0  0  0  0  0  0  0  0  0  0  0  0
  148.1230  158.5100  133.0800 C   0  0  0  0  0  0  0  0  0  0  0  0
  148.8690  159.0340  133.9480 O   0  0  0  0  0  0  0  0  0  0  0  0
  148.6810  158.0570  131.8910 O   0  0  0  0  0  0  0  0  0  0  0  0
  147.7320  156.3820  131.2780 H   0  0  0  0  0  0  0  0  0  0  0  0
  147.6500  154.6340  131.6750 H   0  0  0  0  0  0  0  0  0  0  0  0
  143.7550  156.8488  133.3399 H   0  0  0  0  0  0  0  0  0  0  0  0
  142.4439  159.3187  133.9164 H   0  0  0  0  0  0  0  0  0  0  0  0
  142.8595  161.7765  134.2508 H   0  0  0  0  0  0  0  0  0  0  0  0
  147.1336  161.1318  133.6769 H   0  0  0  0  0  0  0  0  0  0  0  0
  1  2  1  0
  2  3  2  0
  2  4  1  0
  4  5  2  0
  5  6  1  0
  6  7  2  0
  7  8  1  0
  8  9  2  0
  9 10  1  0
 10 11  1  0
 10 12  1  0
 10 13  1  0
  9 14  1  0
 14 15  2  0
 15 16  1  0
 16 17  1  0
 17 18  2  0
 17 19  1  0
 16  4  1  0
 15  6  1  0
  1 20  1  0
  1 21  1  0
  5 22  1  0
  7 23  1  0
  8 24  1  0
 14 25  1  0
M  CHG  1  19  -1
M  END
>  <UniqueID>  (63) 
63

>  <SMILES>  (63) 
NC(=O)c1cc2ccc(C(F)(F)F)cc2n1C(=O)[O-]

>  <Energy>  (63) 
66.34749045877003

>  <Genealogy>  (63) 
NC(=O)c1cc2ccc(C(F)(F)F)cc2n1C(=O)[O-] (protonated)
NC(=O)c1cc2ccc(C(F)(F)F)cc2n1C(=O)[O-] (3D coordinates assigned)
NC(=O)c1cc2ccc(C(F)(F)F)cc2n1C(=O)[O-] (optimized conformer: 66.34749045877003 kcal/mol)

>  <smiles>  (63) 
NC(=O)c1cc2ccc(C(F)(F)F)cc2n1C(=O)O

>  <score_type>  (63) 
oracle

>  <origin>  (63) 
adg

>  <m_score__min__energy>  (63) 
-5.3200000000000003

>  <m_primary>  (63) 
energy

$$$$
65:0
     RDKit          3D

 33 34  0  0  0  0  0  0  0  0999 V2000
  141.2130  156.5640  134.6770 C   0  0  0  0  0  0  0  0  0  0  0  0
  141.1050  158.1130  134.6250 C   0  0  0  0  0  0  0  0  0  0  0  0
  142.4960  158.7120  134.2760 C   0  0  0  0  0  0  0  0  0  0  0  0
  142.6390  160.1240  134.1080 C   0  0  0  0  0  0  0  0  0  0  0  0
  143.8720  160.7060  133.7780 C   0  0  0  0  0  0  0  0  0  0  0  0
  144.9610  159.8680  133.5940 C   0  0  0  0  0  0  0  0  0  0  0  0
  146.2680  160.1710  133.2920 C   0  0  0  0  0  0  0  0  0  0  0  0
  146.9260  158.9440  133.2300 C   0  0  0  0  0  0  0  0  0  0  0  0
  148.3450  158.8020  132.8430 C   0  0  0  0  0  0  0  0  0  0  0  0
  148.7150  158.1020  131.6590 N   0  0  0  0  0  0  0  0  0  0  0  0
  149.2400  159.3500  133.5420 O   0  0  0  0  0  0  0  0  0  0  0  0
  146.0600  157.9260  133.4930 N   0  0  0  0  0  0  0  0  0  0  0  0
  146.3650  156.5270  133.6140 C   0  0  0  0  0  0  0  0  0  0  0  0
  147.0390  155.9430  132.7260 O   0  0  0  0  0  0  0  0  0  0  0  0
  145.8990  155.8000  134.7030 O   0  0  0  0  0  0  0  0  0  0  0  0
  144.8600  158.5100  133.7120 C   0  0  0  0  0  0  0  0  0  0  0  0
  143.6490  157.9000  134.0600 C   0  0  0  0  0  0  0  0  0  0  0  0
  140.6600  158.6490  136.0210 C   0  0  0  0  0  0  0  0  0  0  0  0
  139.4040  158.1770  136.3620 F   0  0  0  0  0  0  0  0  0  0  0  0
  141.5510  158.2420  137.0000 F   0  0  0  0  0  0  0  0  0  0  0  0
  140.6060  160.0330  136.0240 F   0  0  0  0  0  0  0  0  0  0  0  0
  140.0040  158.4590  133.5630 C   0  0  0  0  0  0  0  0  0  0  0  0
  140.2920  157.8790  132.3380 F   0  0  0  0  0  0  0  0  0  0  0  0
  139.9330  159.8290  133.3700 F   0  0  0  0  0  0  0  0  0  0  0  0
  138.7590  157.9930  133.9550 F   0  0  0  0  0  0  0  0  0  0  0  0
  141.2361  156.2331  135.7258 H   0  0  0  0  0  0  0  0  0  0  0  0
  140.3437  156.1186  134.1710 H   0  0  0  0  0  0  0  0  0  0  0  0
  142.1357  156.2436  134.1710 H   0  0  0  0  0  0  0  0  0  0  0  0
  141.7595  160.7712  134.2409 H   0  0  0  0  0  0  0  0  0  0  0  0
  143.9719  161.7959  133.6684 H   0  0  0  0  0  0  0  0  0  0  0  0
  146.7018  161.1693  133.1332 H   0  0  0  0  0  0  0  0  0  0  0  0
  148.4100  157.1150  131.5010 H   0  0  0  0  0  0  0  0  0  0  0  0
  143.5871  156.8068  134.1657 H   0  0  0  0  0  0  0  0  0  0  0  0
  1  2  1  0
  2  3  1  0
  3  4  2  0
  4  5  1  0
  5  6  2  0
  6  7  1  0
  7  8  2  0
  8  9  1  0
  9 10  1  0
  9 11  2  0
  8 12  1  0
 12 13  1  0
 13 14  2  0
 13 15  1  0
 12 16  1  0
 16 17  2  0
  2 18  1  0
 18 19  1  0
 18 20  1  0
 18 21  1  0
  2 22  1  0
 22 23  1  0
 22 24  1  0
 22 25  1  0
 17  3  1  0
 16  6  1  0
  1 26  1  0
  1 27  1  0
  1 28  1  0
  4 29  1  0
  5 30  1  0
  7 31  1  0
 10 32  1  0
 17 33  1  0
M  CHG  2  10  -1  15  -1
M  END
>  <UniqueID>  (64) 
64

>  <SMILES>  (64) 
CC(c1ccc2cc(C([NH-])=O)n(C(=O)[O-])c2c1)(C(F)(F)F)C(F)(F)F

>  <Energy>  (64) 
82.15586081861402

>  <Genealogy>  (64) 
CC(c1ccc2cc(C([NH-])=O)n(C(=O)[O-])c2c1)(C(F)(F)F)C(F)(F)F (protonated)
CC(c1ccc2cc(C([NH-])=O)n(C(=O)[O-])c2c1)(C(F)(F)F)C(F)(F)F (3D coordinates assigned)
CC(c1ccc2cc(C([NH-])=O)n(C(=O)[O-])c2c1)(C(F)(F)F)C(F)(F)F (optimized conformer: 82.15586081861402 kcal/mol)

>  <smiles>  (64) 
CC(c1ccc2cc(C(N)=O)n(C(=O)O)c2c1)(C(F)(F)F)C(F)(F)F

>  <score_type>  (64) 
oracle

>  <origin>  (64) 
adg

>  <m_score__min__energy>  (64) 
-5.6799999999999997

>  <m_primary>  (64) 
energy

$$$$
66:0
     RDKit          3D

 45 46  0  0  0  0  0  0  0  0999 V2000
  146.0350  153.7490  136.7490 C   0  0  0  0  0  0  0  0  0  0  0  0
  147.3560  153.4880  136.1540 N   0  0  0  0  0  0  0  0  0  0  0  0
  148.3740  153.4170  137.2190 C   0  0  0  0  0  0  0  0  0  0  0  0
  147.6930  154.5350  135.1640 C   0  0  0  0  0  0  0  0  0  0  0  0
  147.9940  153.9270  133.7870 C   0  0  0  0  0  0  0  0  0  0  0  0
  147.7040  154.8820  132.7130 N   0  0  0  0  0  0  0  0  0  0  0  0
  147.5370  156.3010  132.8920 C   0  0  0  0  0  0  0  0  0  0  0  0
  148.6780  157.1350  132.8280 C   0  0  0  0  0  0  0  0  0  0  0  0
  148.5630  158.5220  132.9870 C   0  0  0  0  0  0  0  0  0  0  0  0
  147.2960  159.0480  133.2110 C   0  0  0  0  0  0  0  0  0  0  0  0
  146.9030  160.3520  133.3790 C   0  0  0  0  0  0  0  0  0  0  0  0
  145.5260  160.3020  133.5630 C   0  0  0  0  0  0  0  0  0  0  0  0
  144.7020  161.4950  133.8460 C   0  0  0  0  0  0  0  0  0  0  0  0
  143.3080  161.5190  133.5370 N   0  0  0  0  0  0  0  0  0  0  0  0
  145.2260  162.4870  134.4200 O   0  0  0  0  0  0  0  0  0  0  0  0
  145.0740  159.0190  133.4950 N   0  0  0  0  0  0  0  0  0  0  0  0
  143.7040  158.5790  133.5210 C   0  0  0  0  0  0  0  0  0  0  0  0
  143.2610  157.8300  132.6080 O   0  0  0  0  0  0  0  0  0  0  0  0
  142.8650  158.9800  134.5660 O   0  0  0  0  0  0  0  0  0  0  0  0
  141.5560  158.4550  134.7520 C   0  0  0  0  0  0  0  0  0  0  0  0
  140.6430  159.0110  133.7150 C   0  0  0  0  0  0  0  0  0  0  0  0
  141.1650  159.8100  132.6590 N   0  0  0  0  0  0  0  0  0  0  0  0
  139.4040  158.8020  133.7930 O   0  0  0  0  0  0  0  0  0  0  0  0
  146.1750  158.2620  133.2820 C   0  0  0  0  0  0  0  0  0  0  0  0
  146.2590  156.8780  133.1010 C   0  0  0  0  0  0  0  0  0  0  0  0
  146.1172  153.7328  137.8458 H   0  0  0  0  0  0  0  0  0  0  0  0
  145.6745  154.7357  136.4229 H   0  0  0  0  0  0  0  0  0  0  0  0
  145.3263  152.9735  136.4229 H   0  0  0  0  0  0  0  0  0  0  0  0
  147.8800  153.4515  138.2013 H   0  0  0  0  0  0  0  0  0  0  0  0
  148.9381  152.4773  137.1250 H   0  0  0  0  0  0  0  0  0  0  0  0
  149.0631  154.2693  137.1250 H   0  0  0  0  0  0  0  0  0  0  0  0
  146.8431  155.2272  135.0717 H   0  0  0  0  0  0  0  0  0  0  0  0
  148.5917  155.0650  135.5126 H   0  0  0  0  0  0  0  0  0  0  0  0
  149.0571  153.6480  133.7422 H   0  0  0  0  0  0  0  0  0  0  0  0
  147.3556  153.0419  133.6490 H   0  0  0  0  0  0  0  0  0  0  0  0
  147.6880  154.5040  131.7380 H   0  0  0  0  0  0  0  0  0  0  0  0
  149.6677  156.6887  132.6512 H   0  0  0  0  0  0  0  0  0  0  0  0
  149.4473  159.1742  132.9362 H   0  0  0  0  0  0  0  0  0  0  0  0
  147.5422  161.2472  133.3700 H   0  0  0  0  0  0  0  0  0  0  0  0
  142.8140  160.6590  133.2110 H   0  0  0  0  0  0  0  0  0  0  0  0
  142.7400  162.3700  133.7430 H   0  0  0  0  0  0  0  0  0  0  0  0
  141.5853  157.3589  134.6644 H   0  0  0  0  0  0  0  0  0  0  0  0
  141.1885  158.7348  135.7503 H   0  0  0  0  0  0  0  0  0  0  0  0
  142.1350  159.6710  132.3080 H   0  0  0  0  0  0  0  0  0  0  0  0
  145.3549  156.2518  133.1203 H   0  0  0  0  0  0  0  0  0  0  0  0
  1  2  1  0
  2  3  1  0
  2  4  1  0
  4  5  1  0
  5  6  1  0
  6  7  1  0
  7  8  2  0
  8  9  1  0
  9 10  2  0
 10 11  1  0
 11 12  2  0
 12 13  1  0
 13 14  1  0
 13 15  2  0
 12 16  1  0
 16 17  1  0
 17 18  2  0
 17 19  1  0
 19 20  1  0
 20 21  1  0
 21 22  1  0
 21 23  2  0
 16 24  1  0
 24 25  2  0
 25  7  1  0
 24 10  1  0
  1 26  1  0
  1 27  1  0
  1 28  1  0
  3 29  1  0
  3 30  1  0
  3 31  1  0
  4 32  1  0
  4 33  1  0
  5 34  1  0
  5 35  1  0
  6 36  1  0
  8 37  1  0
  9 38  1  0
 11 39  1  0
 14 40  1  0
 14 41  1  0
 20 42  1  0
 20 43  1  0
 22 44  1  0
 25 45  1  0
M  CHG  1  22  -1
M  END
>  <UniqueID>  (65) 
65

>  <SMILES>  (65) 
CN(C)CCNc1ccc2cc(C(N)=O)n(C(=O)OCC([NH-])=O)c2c1

>  <Energy>  (65) 
78.94835172021475

>  <Genealogy>  (65) 
CN(C)CCNc1ccc2cc(C(N)=O)n(C(=O)OCC([NH-])=O)c2c1 (protonated)
CN(C)CCNc1ccc2cc(C(N)=O)n(C(=O)OCC([NH-])=O)c2c1 (3D coordinates assigned)
CN(C)CCNc1ccc2cc(C(N)=O)n(C(=O)OCC([NH-])=O)c2c1 (optimized conformer: 78.94835172021475 kcal/mol)

>  <smiles>  (65) 
CN(C)CCNc1ccc2cc(C(N)=O)n(C(=O)OCC(N)=O)c2c1

>  <score_type>  (65) 
oracle

>  <origin>  (65) 
adg

>  <m_score__min__energy>  (65) 
-6.6900000000000004

>  <m_primary>  (65) 
energy

$$$$
67:0
     RDKit          3D

 56 58  0  0  0  0  0  0  0  0999 V2000
  140.4150  155.1130  138.6740 C   0  0  0  0  0  0  0  0  0  0  0  0
  140.9270  156.2060  137.7960 C   0  0  0  0  0  0  0  0  0  0  0  0
  140.4390  157.4240  137.7570 O   0  0  0  0  0  0  0  0  0  0  0  0
  141.1630  158.0730  136.8750 C   0  0  0  0  0  0  0  0  0  0  0  0
  140.9840  159.2830  136.5790 O   0  0  0  0  0  0  0  0  0  0  0  0
  142.1000  157.3240  136.3390 O   0  0  0  0  0  0  0  0  0  0  0  0
  141.9810  156.1450  136.9010 C   0  0  0  0  0  0  0  0  0  0  0  0
  142.8590  154.9700  136.5920 C   0  0  0  0  0  0  0  0  0  0  0  0
  143.3260  155.0520  135.2480 O   0  0  0  0  0  0  0  0  0  0  0  0
  143.0930  154.0540  134.2930 C   0  0  0  0  0  0  0  0  0  0  0  0
  144.0070  153.2340  134.0010 O   0  0  0  0  0  0  0  0  0  0  0  0
  141.8140  153.9710  133.6410 N   0  0  0  0  0  0  0  0  0  0  0  0
  141.6350  153.0490  132.5150 C   0  0  0  0  0  0  0  0  0  0  0  0
  140.7040  154.8280  134.0810 C   0  0  0  0  0  0  0  0  0  0  0  0
  140.2680  155.7950  132.9710 C   0  0  0  0  0  0  0  0  0  0  0  0
  140.8520  157.1680  133.1760 C   0  0  0  0  0  0  0  0  0  0  0  0
  139.9990  158.2880  133.3370 C   0  0  0  0  0  0  0  0  0  0  0  0
  140.5320  159.5680  133.5600 C   0  0  0  0  0  0  0  0  0  0  0  0
  141.9170  159.6930  133.6340 C   0  0  0  0  0  0  0  0  0  0  0  0
  142.6990  160.8120  133.8170 C   0  0  0  0  0  0  0  0  0  0  0  0
  144.0140  160.3510  133.7950 C   0  0  0  0  0  0  0  0  0  0  0  0
  145.1910  161.2240  133.9980 C   0  0  0  0  0  0  0  0  0  0  0  0
  146.4730  160.8620  133.4930 N   0  0  0  0  0  0  0  0  0  0  0  0
  145.0680  162.2920  134.6550 O   0  0  0  0  0  0  0  0  0  0  0  0
  144.0430  159.0010  133.6110 N   0  0  0  0  0  0  0  0  0  0  0  0
  145.1940  158.1560  133.4760 C   0  0  0  0  0  0  0  0  0  0  0  0
  146.0900  158.4500  132.6410 O   0  0  0  0  0  0  0  0  0  0  0  0
  145.3580  156.9440  134.3450 C   0  0  0  0  0  0  0  0  0  0  0  0
  146.0580  155.8200  133.5740 C   0  0  0  0  0  0  0  0  0  0  0  0
  147.2900  155.3130  134.3220 C   0  0  0  0  0  0  0  0  0  0  0  0
  146.9130  154.5420  135.4080 F   0  0  0  0  0  0  0  0  0  0  0  0
  142.7530  158.6150  133.5080 C   0  0  0  0  0  0  0  0  0  0  0  0
  142.2510  157.3330  133.2630 C   0  0  0  0  0  0  0  0  0  0  0  0
  140.5480  155.3970  139.7284 H   0  0  0  0  0  0  0  0  0  0  0  0
  139.3465  154.9493  138.4704 H   0  0  0  0  0  0  0  0  0  0  0  0
  140.9731  154.1873  138.4704 H   0  0  0  0  0  0  0  0  0  0  0  0
  143.7194  154.9677  137.2773 H   0  0  0  0  0  0  0  0  0  0  0  0
  142.2801  154.0431  136.7177 H   0  0  0  0  0  0  0  0  0  0  0  0
  141.4384  152.0366  132.8977 H   0  0  0  0  0  0  0  0  0  0  0  0
  140.7844  153.3805  131.9013 H   0  0  0  0  0  0  0  0  0  0  0  0
  142.5478  153.0382  131.9013 H   0  0  0  0  0  0  0  0  0  0  0  0
  139.8497  154.1928  134.3581 H   0  0  0  0  0  0  0  0  0  0  0  0
  141.0453  155.4212  134.9422 H   0  0  0  0  0  0  0  0  0  0  0  0
  140.6080  155.4029  132.0011 H   0  0  0  0  0  0  0  0  0  0  0  0
  139.1715  155.8785  132.9963 H   0  0  0  0  0  0  0  0  0  0  0  0
  138.9084  158.1535  133.2868 H   0  0  0  0  0  0  0  0  0  0  0  0
  139.8763  160.4440  133.6726 H   0  0  0  0  0  0  0  0  0  0  0  0
  142.3581  161.8491  133.9519 H   0  0  0  0  0  0  0  0  0  0  0  0
  146.5970  160.5700  132.4970 H   0  0  0  0  0  0  0  0  0  0  0  0
  145.9617  157.2092  135.2255 H   0  0  0  0  0  0  0  0  0  0  0  0
  144.3632  156.5940  134.6579 H   0  0  0  0  0  0  0  0  0  0  0  0
  145.3533  154.9862  133.4388 H   0  0  0  0  0  0  0  0  0  0  0  0
  146.3834  156.2183  132.6016 H   0  0  0  0  0  0  0  0  0  0  0  0
  147.9024  154.7041  133.6406 H   0  0  0  0  0  0  0  0  0  0  0  0
  147.8688  156.1764  134.6818 H   0  0  0  0  0  0  0  0  0  0  0  0
  142.9289  156.4753  133.1412 H   0  0  0  0  0  0  0  0  0  0  0  0
  1  2  1  0
  2  3  1  0
  3  4  1  0
  4  5  2  0
  4  6  1  0
  6  7  1  0
  7  8  1  0
  8  9  1  0
  9 10  1  0
 10 11  2  0
 10 12  1  0
 12 13  1  0
 12 14  1  0
 14 15  1  0
 15 16  1  0
 16 17  2  0
 17 18  1  0
 18 19  2  0
 19 20  1  0
 20 21  2  0
 21 22  1  0
 22 23  1  0
 22 24  2  0
 21 25  1  0
 25 26  1  0
 26 27  2  0
 26 28  1  0
 28 29  1  0
 29 30  1  0
 30 31  1  0
 25 32  1  0
 32 33  2  0
  7  2  2  0
 33 16  1  0
 32 19  1  0
  1 34  1  0
  1 35  1  0
  1 36  1  0
  8 37  1  0
  8 38  1  0
 13 39  1  0
 13 40  1  0
 13 41  1  0
 14 42  1  0
 14 43  1  0
 15 44  1  0
 15 45  1  0
 17 46  1  0
 18 47  1  0
 20 48  1  0
 23 49  1  0
 28 50  1  0
 28 51  1  0
 29 52  1  0
 29 53  1  0
 30 54  1  0
 30 55  1  0
 33 56  1  0
M  CHG  1  23  -1
M  END
>  <UniqueID>  (66) 
66

>  <SMILES>  (66) 
Cc1oc(=O)oc1COC(=O)N(C)CCc1ccc2cc(C([NH-])=O)n(C(=O)CCCF)c2c1

>  <Energy>  (66) 
113.15392929603854

>  <Genealogy>  (66) 
Cc1oc(=O)oc1COC(=O)N(C)CCc1ccc2cc(C([NH-])=O)n(C(=O)CCCF)c2c1 (protonated)
Cc1oc(=O)oc1COC(=O)N(C)CCc1ccc2cc(C([NH-])=O)n(C(=O)CCCF)c2c1 (3D coordinates assigned)
Cc1oc(=O)oc1COC(=O)N(C)CCc1ccc2cc(C([NH-])=O)n(C(=O)CCCF)c2c1 (optimized conformer: 113.15392929603854 kcal/mol)

>  <smiles>  (66) 
Cc1oc(=O)oc1COC(=O)N(C)CCc1ccc2cc(C(N)=O)n(C(=O)CCCF)c2c1

>  <score_type>  (66) 
oracle

>  <origin>  (66) 
adg

>  <m_score__min__energy>  (66) 
-7.8099999999999996

>  <m_primary>  (66) 
energy

$$$$
68:0
     RDKit          3D

 34 35  0  0  0  0  0  0  0  0999 V2000
  138.6670  159.1700  130.8300 C   0  0  0  0  0  0  0  0  0  0  0  0
  139.3840  159.5470  132.0920 C   0  0  0  0  0  0  0  0  0  0  0  0
  139.7450  160.7470  132.2380 O   0  0  0  0  0  0  0  0  0  0  0  0
  139.6770  158.5780  133.1240 N   0  0  0  0  0  0  0  0  0  0  0  0
  138.7320  157.4750  133.3360 C   0  0  0  0  0  0  0  0  0  0  0  0
  140.7430  158.7900  134.0750 C   0  0  0  0  0  0  0  0  0  0  0  0
  140.5030  159.3580  135.1750 O   0  0  0  0  0  0  0  0  0  0  0  0
  142.0720  158.3110  133.8130 N   0  0  0  0  0  0  0  0  0  0  0  0
  143.2170  159.0360  133.6610 C   0  0  0  0  0  0  0  0  0  0  0  0
  143.3500  160.4970  133.8400 C   0  0  0  0  0  0  0  0  0  0  0  0
  142.2200  161.3570  133.7310 N   0  0  0  0  0  0  0  0  0  0  0  0
  144.4730  160.9900  134.1290 O   0  0  0  0  0  0  0  0  0  0  0  0
  144.2870  158.1990  133.3510 C   0  0  0  0  0  0  0  0  0  0  0  0
  143.7610  156.9270  133.3320 C   0  0  0  0  0  0  0  0  0  0  0  0
  144.3770  155.7060  133.0680 C   0  0  0  0  0  0  0  0  0  0  0  0
  143.5790  154.5480  133.0930 C   0  0  0  0  0  0  0  0  0  0  0  0
  142.1920  154.6320  133.3730 C   0  0  0  0  0  0  0  0  0  0  0  0
  141.3430  153.3930  133.3940 C   0  0  0  0  0  0  0  0  0  0  0  0
  141.3800  152.8260  134.6540 F   0  0  0  0  0  0  0  0  0  0  0  0
  140.0370  153.7180  133.0760 F   0  0  0  0  0  0  0  0  0  0  0  0
  141.6030  155.8890  133.6330 C   0  0  0  0  0  0  0  0  0  0  0  0
  142.4240  157.0230  133.6150 C   0  0  0  0  0  0  0  0  0  0  0  0
  137.7192  158.6716  131.0817 H   0  0  0  0  0  0  0  0  0  0  0  0
  138.4599  160.0759  130.2413 H   0  0  0  0  0  0  0  0  0  0  0  0
  139.2959  158.4860  130.2413 H   0  0  0  0  0  0  0  0  0  0  0  0
  138.5934  157.3132  134.4152 H   0  0  0  0  0  0  0  0  0  0  0  0
  137.7652  157.7270  132.8758 H   0  0  0  0  0  0  0  0  0  0  0  0
  139.1293  156.5582  132.8758 H   0  0  0  0  0  0  0  0  0  0  0  0
  141.2500  160.9860  133.8360 H   0  0  0  0  0  0  0  0  0  0  0  0
  145.3301  158.4923  133.1617 H   0  0  0  0  0  0  0  0  0  0  0  0
  145.4531  155.6491  132.8470 H   0  0  0  0  0  0  0  0  0  0  0  0
  144.0358  153.5675  132.8933 H   0  0  0  0  0  0  0  0  0  0  0  0
  141.7322  152.6755  132.6566 H   0  0  0  0  0  0  0  0  0  0  0  0
  140.5269  155.9749  133.8442 H   0  0  0  0  0  0  0  0  0  0  0  0
  1  2  1  0
  2  3  2  0
  2  4  1  0
  4  5  1  0
  4  6  1  0
  6  7  2  0
  6  8  1  0
  8  9  1  0
  9 10  1  0
 10 11  1  0
 10 12  2  0
  9 13  2  0
 13 14  1  0
 14 15  2  0
 15 16  1  0
 16 17  2  0
 17 18  1  0
 18 19  1  0
 18 20  1  0
 17 21  1  0
 21 22  2  0
 22  8  1  0
 22 14  1  0
  1 23  1  0
  1 24  1  0
  1 25  1  0
  5 26  1  0
  5 27  1  0
  5 28  1  0
 11 29  1  0
 13 30  1  0
 15 31  1  0
 16 32  1  0
 18 33  1  0
 21 34  1  0
M  CHG  1  11  -1
M  END
>  <UniqueID>  (67) 
67

>  <SMILES>  (67) 
CC(=O)N(C)C(=O)n1c(C([NH-])=O)cc2ccc(C(F)F)cc21

>  <Energy>  (67) 
75.23895989006293

>  <Genealogy>  (67) 
CC(=O)N(C)C(=O)n1c(C([NH-])=O)cc2ccc(C(F)F)cc21 (protonated)
CC(=O)N(C)C(=O)n1c(C([NH-])=O)cc2ccc(C(F)F)cc21 (3D coordinates assigned)
CC(=O)N(C)C(=O)n1c(C([NH-])=O)cc2ccc(C(F)F)cc21 (optimized conformer: 75.23895989006293 kcal/mol)

>  <smiles>  (67) 
CC(=O)N(C)C(=O)n1c(C(N)=O)cc2ccc(C(F)F)cc21

>  <score_type>  (67) 
oracle

>  <origin>  (67) 
adg

>  <m_score__min__energy>  (67) 
-6.1100000000000003

>  <m_primary>  (67) 
energy

$$$$
69:0
     RDKit          3D

 33 34  0  0  0  0  0  0  0  0999 V2000
  148.2550  161.0770  131.1360 N   0  0  0  0  0  0  0  0  0  0  0  0
  149.1360  160.0180  131.5040 C   0  0  0  0  0  0  0  0  0  0  0  0
  150.3660  160.1250  131.2580 O   0  0  0  0  0  0  0  0  0  0  0  0
  148.6070  158.8290  132.2010 C   0  0  0  0  0  0  0  0  0  0  0  0
  149.2200  157.5780  132.1660 C   0  0  0  0  0  0  0  0  0  0  0  0
  148.3760  156.7390  132.8580 C   0  0  0  0  0  0  0  0  0  0  0  0
  148.4860  155.3800  133.1300 C   0  0  0  0  0  0  0  0  0  0  0  0
  147.4620  154.7730  133.8790 C   0  0  0  0  0  0  0  0  0  0  0  0
  146.3650  155.5340  134.3610 C   0  0  0  0  0  0  0  0  0  0  0  0
  145.2540  154.8630  135.1260 C   0  0  0  0  0  0  0  0  0  0  0  0
  144.2380  155.7740  135.3480 F   0  0  0  0  0  0  0  0  0  0  0  0
  144.7480  153.7890  134.4120 F   0  0  0  0  0  0  0  0  0  0  0  0
  145.7130  154.3940  136.3450 F   0  0  0  0  0  0  0  0  0  0  0  0
  146.2790  156.9090  134.0410 C   0  0  0  0  0  0  0  0  0  0  0  0
  147.3060  157.4820  133.2840 C   0  0  0  0  0  0  0  0  0  0  0  0
  147.4350  158.7670  132.8930 N   0  0  0  0  0  0  0  0  0  0  0  0
  146.5420  159.8410  133.2300 C   0  0  0  0  0  0  0  0  0  0  0  0
  147.0050  160.8950  133.7440 O   0  0  0  0  0  0  0  0  0  0  0  0
  145.0700  159.7460  132.9580 C   0  0  0  0  0  0  0  0  0  0  0  0
  144.3510  159.8150  134.1740 O   0  0  0  0  0  0  0  0  0  0  0  0
  143.1530  159.0690  134.0830 C   0  0  0  0  0  0  0  0  0  0  0  0
  141.9790  159.9450  134.3860 C   0  0  0  0  0  0  0  0  0  0  0  0
  141.6230  160.8330  133.5680 O   0  0  0  0  0  0  0  0  0  0  0  0
  141.3030  159.8070  135.5910 O   0  0  0  0  0  0  0  0  0  0  0  0
  147.7510  161.6330  131.8630 H   0  0  0  0  0  0  0  0  0  0  0  0
  150.1752  157.3165  131.6872 H   0  0  0  0  0  0  0  0  0  0  0  0
  149.3472  154.7976  132.7706 H   0  0  0  0  0  0  0  0  0  0  0  0
  147.5118  153.6953  134.0939 H   0  0  0  0  0  0  0  0  0  0  0  0
  145.4246  157.5134  134.3795 H   0  0  0  0  0  0  0  0  0  0  0  0
  144.7650  160.5779  132.3061 H   0  0  0  0  0  0  0  0  0  0  0  0
  144.8540  158.7877  132.4631 H   0  0  0  0  0  0  0  0  0  0  0  0
  143.0524  158.6647  133.0650 H   0  0  0  0  0  0  0  0  0  0  0  0
  143.1853  158.2449  134.8109 H   0  0  0  0  0  0  0  0  0  0  0  0
  1  2  1  0
  2  3  2  0
  2  4  1  0
  4  5  2  0
  5  6  1  0
  6  7  2  0
  7  8  1  0
  8  9  2  0
  9 10  1  0
 10 11  1  0
 10 12  1  0
 10 13  1  0
  9 14  1  0
 14 15  2  0
 15 16  1  0
 16 17  1  0
 17 18  2  0
 17 19  1  0
 19 20  1  0
 20 21  1  0
 21 22  1  0
 22 23  2  0
 22 24  1  0
 16  4  1  0
 15  6  1  0
  1 25  1  0
  5 26  1  0
  7 27  1  0
  8 28  1  0
 14 29  1  0
 19 30  1  0
 19 31  1  0
 21 32  1  0
 21 33  1  0
M  CHG  2   1  -1  24  -1
M  END
>  <UniqueID>  (68) 
68

>  <SMILES>  (68) 
[NH-]C(=O)c1cc2ccc(C(F)(F)F)cc2n1C(=O)COCC(=O)[O-]

>  <Energy>  (68) 
73.91265808985624

>  <Genealogy>  (68) 
[NH-]C(=O)c1cc2ccc(C(F)(F)F)cc2n1C(=O)COCC(=O)[O-] (protonated)
[NH-]C(=O)c1cc2ccc(C(F)(F)F)cc2n1C(=O)COCC(=O)[O-] (3D coordinates assigned)
[NH-]C(=O)c1cc2ccc(C(F)(F)F)cc2n1C(=O)COCC(=O)[O-] (optimized conformer: 73.91265808985624 kcal/mol)

>  <smiles>  (68) 
NC(=O)c1cc2ccc(C(F)(F)F)cc2n1C(=O)COCC(=O)O

>  <score_type>  (68) 
oracle

>  <origin>  (68) 
adg

>  <m_score__min__energy>  (68) 
-5.7800000000000002

>  <m_primary>  (68) 
energy

$$$$
70:0
     RDKit          3D

 42 44  0  0  0  0  0  0  0  0999 V2000
  145.5870  151.8480  131.9070 N   0  0  0  0  0  0  0  0  0  0  0  0
  144.3360  151.7590  132.5880 C   0  0  0  0  0  0  0  0  0  0  0  0
  143.8820  150.6200  132.8770 O   0  0  0  0  0  0  0  0  0  0  0  0
  143.5350  152.9590  132.9230 C   0  0  0  0  0  0  0  0  0  0  0  0
  144.0420  154.2520  132.8330 C   0  0  0  0  0  0  0  0  0  0  0  0
  142.9860  155.0810  133.1200 C   0  0  0  0  0  0  0  0  0  0  0  0
  142.9180  156.4720  133.1060 C   0  0  0  0  0  0  0  0  0  0  0  0
  141.6700  157.0730  133.3340 C   0  0  0  0  0  0  0  0  0  0  0  0
  140.5150  156.2780  133.5450 C   0  0  0  0  0  0  0  0  0  0  0  0
  139.1730  156.9230  133.7400 C   0  0  0  0  0  0  0  0  0  0  0  0
  139.1680  157.6380  134.9240 F   0  0  0  0  0  0  0  0  0  0  0  0
  138.9100  157.7810  132.6870 F   0  0  0  0  0  0  0  0  0  0  0  0
  140.6230  154.8710  133.5370 C   0  0  0  0  0  0  0  0  0  0  0  0
  141.8890  154.2960  133.3620 C   0  0  0  0  0  0  0  0  0  0  0  0
  142.2150  152.9840  133.2720 N   0  0  0  0  0  0  0  0  0  0  0  0
  141.3160  151.8660  133.3880 C   0  0  0  0  0  0  0  0  0  0  0  0
  141.0680  151.3850  134.5260 O   0  0  0  0  0  0  0  0  0  0  0  0
  140.6430  151.2690  132.1740 C   0  0  0  0  0  0  0  0  0  0  0  0
  140.5720  149.7200  132.2140 C   0  0  0  0  0  0  0  0  0  0  0  0
  141.3060  149.2520  133.3230 O   0  0  0  0  0  0  0  0  0  0  0  0
  141.1300  149.1330  130.9080 C   0  0  0  0  0  0  0  0  0  0  0  0
  139.9570  149.0850  129.9390 C   0  0  0  0  0  0  0  0  0  0  0  0
  138.6880  149.0500  130.7860 C   0  0  0  0  0  0  0  0  0  0  0  0
  139.1110  149.2330  132.2420 C   0  0  0  0  0  0  0  0  0  0  0  0
  146.1530  150.9870  131.7400 H   0  0  0  0  0  0  0  0  0  0  0  0
  145.9090  152.7380  131.4760 H   0  0  0  0  0  0  0  0  0  0  0  0
  145.0720  154.5475  132.5843 H   0  0  0  0  0  0  0  0  0  0  0  0
  143.8151  157.0813  132.9219 H   0  0  0  0  0  0  0  0  0  0  0  0
  141.5874  158.1698  133.3491 H   0  0  0  0  0  0  0  0  0  0  0  0
  138.3999  156.1415  133.7786 H   0  0  0  0  0  0  0  0  0  0  0  0
  139.7321  154.2388  133.6655 H   0  0  0  0  0  0  0  0  0  0  0  0
  139.6184  151.6644  132.1125 H   0  0  0  0  0  0  0  0  0  0  0  0
  141.2463  151.5458  131.2968 H   0  0  0  0  0  0  0  0  0  0  0  0
  142.1070  149.8270  133.4400 H   0  0  0  0  0  0  0  0  0  0  0  0
  141.9292  149.7756  130.5101 H   0  0  0  0  0  0  0  0  0  0  0  0
  141.5647  148.1350  131.0665 H   0  0  0  0  0  0  0  0  0  0  0  0
  139.9593  149.9780  129.2967 H   0  0  0  0  0  0  0  0  0  0  0  0
  140.0203  148.2025  129.2853 H   0  0  0  0  0  0  0  0  0  0  0  0
  138.0116  149.8636  130.4851 H   0  0  0  0  0  0  0  0  0  0  0  0
  138.1550  148.0972  130.6513 H   0  0  0  0  0  0  0  0  0  0  0  0
  138.4704  149.9805  132.7329 H   0  0  0  0  0  0  0  0  0  0  0  0
  139.0152  148.2932  132.8056 H   0  0  0  0  0  0  0  0  0  0  0  0
  1  2  1  0
  2  3  2  0
  2  4  1  0
  4  5  2  0
  5  6  1  0
  6  7  2  0
  7  8  1  0
  8  9  2  0
  9 10  1  0
 10 11  1  0
 10 12  1  0
  9 13  1  0
 13 14  2  0
 14 15  1  0
 15 16  1  0
 16 17  2  0
 16 18  1  0
 18 19  1  0
 19 20  1  0
 19 21  1  0
 21 22  1  0
 22 23  1  0
 23 24  1  0
 15  4  1  0
 24 19  1  0
 14  6  1  0
  1 25  1  0
  1 26  1  0
  5 27  1  0
  7 28  1  0
  8 29  1  0
 10 30  1  0
 13 31  1  0
 18 32  1  0
 18 33  1  0
 20 34  1  0
 21 35  1  0
 21 36  1  0
 22 37  1  0
 22 38  1  0
 23 39  1  0
 23 40  1  0
 24 41  1  0
 24 42  1  0
M  END
>  <UniqueID>  (69) 
69

>  <SMILES>  (69) 
NC(=O)c1cc2ccc(C(F)F)cc2n1C(=O)CC1(O)CCCC1

>  <Energy>  (69) 
85.51512095529233

>  <Genealogy>  (69) 
NC(=O)c1cc2ccc(C(F)F)cc2n1C(=O)CC1(O)CCCC1 (3D coordinates assigned)
NC(=O)c1cc2ccc(C(F)F)cc2n1C(=O)CC1(O)CCCC1 (nonaromatic ring conformer: 85.51512095529233 kcal/mol)

>  <smiles>  (69) 
NC(=O)c1cc2ccc(C(F)F)cc2n1C(=O)CC1(O)CCCC1

>  <score_type>  (69) 
oracle

>  <origin>  (69) 
adg

>  <m_score__min__energy>  (69) 
-8.1699999999999999

>  <m_primary>  (69) 
energy

$$$$
71:0
     RDKit          3D

 47 49  0  0  0  0  0  0  0  0999 V2000
  141.4160  159.4570  134.2000 N   0  0  0  0  0  0  0  0  0  0  0  0
  142.3920  160.4320  133.8370 C   0  0  0  0  0  0  0  0  0  0  0  0
  142.0420  161.6350  133.7080 O   0  0  0  0  0  0  0  0  0  0  0  0
  143.7870  160.0170  133.5770 C   0  0  0  0  0  0  0  0  0  0  0  0
  144.8680  160.8960  133.6130 C   0  0  0  0  0  0  0  0  0  0  0  0
  145.9820  160.1120  133.4190 C   0  0  0  0  0  0  0  0  0  0  0  0
  147.3270  160.4680  133.3520 C   0  0  0  0  0  0  0  0  0  0  0  0
  148.2670  159.4510  133.1150 C   0  0  0  0  0  0  0  0  0  0  0  0
  147.8500  158.1070  132.9560 C   0  0  0  0  0  0  0  0  0  0  0  0
  148.8560  157.0380  132.6510 C   0  0  0  0  0  0  0  0  0  0  0  0
  149.8890  157.5740  131.9060 F   0  0  0  0  0  0  0  0  0  0  0  0
  146.4740  157.7850  133.0140 C   0  0  0  0  0  0  0  0  0  0  0  0
  145.5620  158.8160  133.2690 C   0  0  0  0  0  0  0  0  0  0  0  0
  144.2150  158.7410  133.3580 N   0  0  0  0  0  0  0  0  0  0  0  0
  143.4200  157.5540  133.2150 C   0  0  0  0  0  0  0  0  0  0  0  0
  142.6170  157.4470  132.2480 O   0  0  0  0  0  0  0  0  0  0  0  0
  143.5570  156.5130  134.1390 O   0  0  0  0  0  0  0  0  0  0  0  0
  143.0360  155.2010  133.9300 C   0  0  0  0  0  0  0  0  0  0  0  0
  141.5130  155.1850  134.0960 C   0  0  0  0  0  0  0  0  0  0  0  0
  140.9440  156.5150  133.8730 N   0  0  0  0  0  0  0  0  0  0  0  0
  139.6500  156.6910  133.2900 C   0  0  0  0  0  0  0  0  0  0  0  0
  138.9540  155.6860  132.9740 O   0  0  0  0  0  0  0  0  0  0  0  0
  139.1700  157.9860  133.0700 O   0  0  0  0  0  0  0  0  0  0  0  0
  139.5150  158.7640  131.9240 C   0  0  2  0  0  0  0  0  0  0  0  0
  139.3570  160.2330  132.2070 C   0  0  0  0  0  0  0  0  0  0  0  0
  138.6730  160.7800  130.9610 C   0  0  0  0  0  0  0  0  0  0  0  0
  138.4380  159.7290  130.0500 O   0  0  0  0  0  0  0  0  0  0  0  0
  138.5510  158.5310  130.7770 C   0  0  0  0  0  0  0  0  0  0  0  0
  141.2230  158.6370  133.5830 H   0  0  0  0  0  0  0  0  0  0  0  0
  144.8372  161.9851  133.7644 H   0  0  0  0  0  0  0  0  0  0  0  0
  147.6436  161.5136  133.4807 H   0  0  0  0  0  0  0  0  0  0  0  0
  149.3364  159.7010  133.0524 H   0  0  0  0  0  0  0  0  0  0  0  0
  149.2554  156.6317  133.5919 H   0  0  0  0  0  0  0  0  0  0  0  0
  148.3720  156.2327  132.0789 H   0  0  0  0  0  0  0  0  0  0  0  0
  146.1294  156.7514  132.8627 H   0  0  0  0  0  0  0  0  0  0  0  0
  143.2909  154.8701  132.9124 H   0  0  0  0  0  0  0  0  0  0  0  0
  143.4781  154.5242  134.6760 H   0  0  0  0  0  0  0  0  0  0  0  0
  141.0798  154.4825  133.3688 H   0  0  0  0  0  0  0  0  0  0  0  0
  141.2771  154.8722  135.1239 H   0  0  0  0  0  0  0  0  0  0  0  0
  141.4890  157.3710  134.1260 H   0  0  0  0  0  0  0  0  0  0  0  0
  140.5466  158.4723  131.6778 H   0  0  0  0  0  0  0  0  0  0  0  0
  138.7322  160.3940  133.0979 H   0  0  0  0  0  0  0  0  0  0  0  0
  140.3170  160.7287  132.4136 H   0  0  0  0  0  0  0  0  0  0  0  0
  137.7150  161.2418  131.2422 H   0  0  0  0  0  0  0  0  0  0  0  0
  139.3210  161.5337  130.4898 H   0  0  0  0  0  0  0  0  0  0  0  0
  137.5661  158.2400  131.1712 H   0  0  0  0  0  0  0  0  0  0  0  0
  138.9208  157.7246  130.1267 H   0  0  0  0  0  0  0  0  0  0  0  0
  1  2  1  0
  2  3  2  0
  2  4  1  0
  4  5  2  0
  5  6  1  0
  6  7  2  0
  7  8  1  0
  8  9  2  0
  9 10  1  0
 10 11  1  0
  9 12  1  0
 12 13  2  0
 13 14  1  0
 14 15  1  0
 15 16  2  0
 15 17  1  0
 17 18  1  0
 18 19  1  0
 19 20  1  0
 20 21  1  0
 21 22  2  0
 21 23  1  0
 23 24  1  0
 24 25  1  0
 25 26  1  0
 26 27  1  0
 27 28  1  0
 14  4  1  0
 28 24  1  0
 13  6  1  0
  1 29  1  0
  5 30  1  0
  7 31  1  0
  8 32  1  0
 10 33  1  0
 10 34  1  0
 12 35  1  0
 18 36  1  0
 18 37  1  0
 19 38  1  0
 19 39  1  0
 20 40  1  0
 24 41  1  6
 25 42  1  0
 25 43  1  0
 26 44  1  0
 26 45  1  0
 28 46  1  0
 28 47  1  0
M  CHG  1   1  -1
M  END
>  <UniqueID>  (70) 
70

>  <SMILES>  (70) 
[NH-]C(=O)c1cc2ccc(CF)cc2n1C(=O)OCCNC(=O)O[C@@H]1CCOC1

>  <Energy>  (70) 
78.7984150290519

>  <Genealogy>  (70) 
[NH-]C(=O)c1cc2ccc(CF)cc2n1C(=O)OCCNC(=O)OC1CCOC1 (protonated)
[NH-]C(=O)c1cc2ccc(CF)cc2n1C(=O)OCCNC(=O)O[C@@H]1CCOC1 (chirality)
[NH-]C(=O)c1cc2ccc(CF)cc2n1C(=O)OCCNC(=O)O[C@@H]1CCOC1 (3D coordinates assigned)
[NH-]C(=O)c1cc2ccc(CF)cc2n1C(=O)OCCNC(=O)O[C@@H]1CCOC1 (nonaromatic ring conformer: 78.7984150290519 kcal/mol)

>  <smiles>  (70) 
NC(=O)c1cc2ccc(CF)cc2n1C(=O)OCCNC(=O)OC1CCOC1

>  <score_type>  (70) 
oracle

>  <origin>  (70) 
adg

>  <m_score__min__energy>  (70) 
-6.8600000000000003

>  <m_primary>  (70) 
energy

$$$$
72:0
     RDKit          3D

 42 44  0  0  0  0  0  0  0  0999 V2000
  149.7710  160.4700  129.2300 C   0  0  0  0  0  0  0  0  0  0  0  0
  149.6880  159.3990  130.1630 O   0  0  0  0  0  0  0  0  0  0  0  0
  148.8660  159.4440  131.2940 C   0  0  0  0  0  0  0  0  0  0  0  0
  147.7380  160.0100  131.2310 O   0  0  0  0  0  0  0  0  0  0  0  0
  149.3050  158.7930  132.5090 N   0  0  0  0  0  0  0  0  0  0  0  0
  149.1430  157.3360  132.4510 C   0  0  0  0  0  0  0  0  0  0  0  0
  147.6760  156.9150  132.3610 C   0  0  0  0  0  0  0  0  0  0  0  0
  146.7720  157.6830  133.2390 N   0  0  0  0  0  0  0  0  0  0  0  0
  145.3740  157.2640  133.3480 C   0  0  0  0  0  0  0  0  0  0  0  0
  144.9720  155.9420  132.9830 C   0  0  0  0  0  0  0  0  0  0  0  0
  143.6320  155.5340  133.0730 C   0  0  0  0  0  0  0  0  0  0  0  0
  142.6980  156.4490  133.5350 C   0  0  0  0  0  0  0  0  0  0  0  0
  141.3380  156.3200  133.6930 C   0  0  0  0  0  0  0  0  0  0  0  0
  140.9040  157.5520  134.1740 C   0  0  0  0  0  0  0  0  0  0  0  0
  139.5050  157.8280  134.5630 C   0  0  0  0  0  0  0  0  0  0  0  0
  139.1940  158.1320  135.9210 N   0  0  0  0  0  0  0  0  0  0  0  0
  138.5840  157.8340  133.7050 O   0  0  0  0  0  0  0  0  0  0  0  0
  141.9550  158.4120  134.3010 N   0  0  0  0  0  0  0  0  0  0  0  0
  141.9240  159.7910  134.7070 C   0  0  0  0  0  0  0  0  0  0  0  0
  141.1870  160.1570  135.6600 O   0  0  0  0  0  0  0  0  0  0  0  0
  142.6910  160.7370  134.0380 O   0  0  0  0  0  0  0  0  0  0  0  0
  143.0470  157.7180  133.9070 C   0  0  0  0  0  0  0  0  0  0  0  0
  144.3710  158.1630  133.8100 C   0  0  0  0  0  0  0  0  0  0  0  0
  147.1940  158.9380  133.9020 C   0  0  0  0  0  0  0  0  0  0  0  0
  148.6770  159.3270  133.7280 C   0  0  0  0  0  0  0  0  0  0  0  0
  149.8449  161.4240  129.7726 H   0  0  0  0  0  0  0  0  0  0  0  0
  150.6616  160.3376  128.5981 H   0  0  0  0  0  0  0  0  0  0  0  0
  148.8707  160.4764  128.5981 H   0  0  0  0  0  0  0  0  0  0  0  0
  150.3320  158.9820  132.5960 H   0  0  0  0  0  0  0  0  0  0  0  0
  149.6742  156.9566  131.5656 H   0  0  0  0  0  0  0  0  0  0  0  0
  149.5558  156.9158  133.3800 H   0  0  0  0  0  0  0  0  0  0  0  0
  147.3421  157.0475  131.3213 H   0  0  0  0  0  0  0  0  0  0  0  0
  147.6263  155.8678  132.6940 H   0  0  0  0  0  0  0  0  0  0  0  0
  145.7288  155.2291  132.6239 H   0  0  0  0  0  0  0  0  0  0  0  0
  143.3309  154.5160  132.7849 H   0  0  0  0  0  0  0  0  0  0  0  0
  140.7236  155.4319  133.4837 H   0  0  0  0  0  0  0  0  0  0  0  0
  139.4080  159.0720  136.3230 H   0  0  0  0  0  0  0  0  0  0  0  0
  144.6332  159.1947  134.0873 H   0  0  0  0  0  0  0  0  0  0  0  0
  146.5812  159.7562  133.4958 H   0  0  0  0  0  0  0  0  0  0  0  0
  147.0561  158.7660  134.9797 H   0  0  0  0  0  0  0  0  0  0  0  0
  148.7438  160.4245  133.6973 H   0  0  0  0  0  0  0  0  0  0  0  0
  149.2191  158.8889  134.5790 H   0  0  0  0  0  0  0  0  0  0  0  0
  1  2  1  0
  2  3  1  0
  3  4  2  0
  3  5  1  0
  5  6  1  0
  6  7  1  0
  7  8  1  0
  8  9  1  0
  9 10  2  0
 10 11  1  0
 11 12  2  0
 12 13  1  0
 13 14  2  0
 14 15  1  0
 15 16  1  0
 15 17  2  0
 14 18  1  0
 18 19  1  0
 19 20  2  0
 19 21  1  0
 18 22  1  0
 22 23  2  0
  8 24  1  0
 24 25  1  0
 25  5  1  0
 23  9  1  0
 22 12  1  0
  1 26  1  0
  1 27  1  0
  1 28  1  0
  5 29  1  0
  6 30  1  0
  6 31  1  0
  7 32  1  0
  7 33  1  0
 10 34  1  0
 11 35  1  0
 13 36  1  0
 16 37  1  0
 23 38  1  0
 24 39  1  0
 24 40  1  0
 25 41  1  0
 25 42  1  0
M  CHG  3   5   1  16  -1  21  -1
M  END
>  <UniqueID>  (71) 
71

>  <SMILES>  (71) 
COC(=O)[NH+]1CCN(c2ccc3cc(C([NH-])=O)n(C(=O)[O-])c3c2)CC1

>  <Energy>  (71) 
94.26834267920722

>  <Genealogy>  (71) 
COC(=O)[NH+]1CCN(c2ccc3cc(C([NH-])=O)n(C(=O)[O-])c3c2)CC1 (protonated)
COC(=O)[NH+]1CCN(c2ccc3cc(C([NH-])=O)n(C(=O)[O-])c3c2)CC1 (3D coordinates assigned)
COC(=O)[NH+]1CCN(c2ccc3cc(C([NH-])=O)n(C(=O)[O-])c3c2)CC1 (nonaromatic ring conformer: 94.26834267920722 kcal/mol)

>  <smiles>  (71) 
COC(=O)N1CCN(c2ccc3cc(C(N)=O)n(C(=O)O)c3c2)CC1

>  <score_type>  (71) 
oracle

>  <origin>  (71) 
adg

>  <m_score__min__energy>  (71) 
-6.6200000000000001

>  <m_primary>  (71) 
energy

$$$$
73:0
     RDKit          3D

 42 43  0  0  0  0  0  0  0  0999 V2000
  139.6270  158.9860  130.8930 C   0  0  0  0  0  0  0  0  0  0  0  0
  140.3870  159.6140  131.9770 N   0  0  0  0  0  0  0  0  0  0  0  0
  139.8640  159.2370  133.3000 C   0  0  0  0  0  0  0  0  0  0  0  0
  140.4410  157.9310  133.8050 C   0  0  0  0  0  0  0  0  0  0  0  0
  140.0540  156.8530  133.2740 O   0  0  0  0  0  0  0  0  0  0  0  0
  141.4590  157.8940  134.8320 N   0  0  0  0  0  0  0  0  0  0  0  0
  141.3000  158.6530  136.0780 C   0  0  0  0  0  0  0  0  0  0  0  0
  142.7310  157.2040  134.5830 C   0  0  0  0  0  0  0  0  0  0  0  0
  143.3940  157.7700  133.3630 C   0  0  0  0  0  0  0  0  0  0  0  0
  142.8000  157.7220  132.2520 O   0  0  0  0  0  0  0  0  0  0  0  0
  144.6830  158.3930  133.4560 N   0  0  0  0  0  0  0  0  0  0  0  0
  144.9580  159.7240  133.5620 C   0  0  0  0  0  0  0  0  0  0  0  0
  143.9570  160.8050  133.6770 C   0  0  0  0  0  0  0  0  0  0  0  0
  142.6000  160.5590  133.3160 N   0  0  0  0  0  0  0  0  0  0  0  0
  144.2890  161.9540  134.0750 O   0  0  0  0  0  0  0  0  0  0  0  0
  146.3360  159.9340  133.5970 C   0  0  0  0  0  0  0  0  0  0  0  0
  146.8990  158.6810  133.5040 C   0  0  0  0  0  0  0  0  0  0  0  0
  148.2360  158.2970  133.4830 C   0  0  0  0  0  0  0  0  0  0  0  0
  148.5270  156.9290  133.3520 C   0  0  0  0  0  0  0  0  0  0  0  0
  147.4830  155.9750  133.2180 C   0  0  0  0  0  0  0  0  0  0  0  0
  147.7910  154.5030  133.1080 C   0  0  0  0  0  0  0  0  0  0  0  0
  148.8480  154.2750  132.2420 F   0  0  0  0  0  0  0  0  0  0  0  0
  148.1210  154.0110  134.3570 F   0  0  0  0  0  0  0  0  0  0  0  0
  146.6880  153.8190  132.6310 F   0  0  0  0  0  0  0  0  0  0  0  0
  146.1370  156.4040  133.2650 C   0  0  0  0  0  0  0  0  0  0  0  0
  145.8790  157.7700  133.4160 C   0  0  0  0  0  0  0  0  0  0  0  0
  138.8454  158.3401  131.3195 H   0  0  0  0  0  0  0  0  0  0  0  0
  139.1604  159.7656  130.2729 H   0  0  0  0  0  0  0  0  0  0  0  0
  140.3046  158.3808  130.2729 H   0  0  0  0  0  0  0  0  0  0  0  0
  141.3920  159.3290  131.8960 H   0  0  0  0  0  0  0  0  0  0  0  0
  140.1136  160.0329  134.0171 H   0  0  0  0  0  0  0  0  0  0  0  0
  138.7764  159.1045  133.2024 H   0  0  0  0  0  0  0  0  0  0  0  0
  141.4408  157.9808  136.9373 H   0  0  0  0  0  0  0  0  0  0  0  0
  142.0491  159.4577  136.1153 H   0  0  0  0  0  0  0  0  0  0  0  0
  140.2910  159.0894  136.1153 H   0  0  0  0  0  0  0  0  0  0  0  0
  143.3930  157.3367  135.4514 H   0  0  0  0  0  0  0  0  0  0  0  0
  142.5345  156.1337  134.4222 H   0  0  0  0  0  0  0  0  0  0  0  0
  142.3550  159.8360  132.6030 H   0  0  0  0  0  0  0  0  0  0  0  0
  146.8618  160.8966  133.6811 H   0  0  0  0  0  0  0  0  0  0  0  0
  149.0409  159.0421  133.5665 H   0  0  0  0  0  0  0  0  0  0  0  0
  149.5744  156.5929  133.3532 H   0  0  0  0  0  0  0  0  0  0  0  0
  145.3122  155.6806  133.1847 H   0  0  0  0  0  0  0  0  0  0  0  0
  1  2  1  0
  2  3  1  0
  3  4  1  0
  4  5  2  0
  4  6  1  0
  6  7  1  0
  6  8  1  0
  8  9  1  0
  9 10  2  0
  9 11  1  0
 11 12  1  0
 12 13  1  0
 13 14  1  0
 13 15  2  0
 12 16  2  0
 16 17  1  0
 17 18  2  0
 18 19  1  0
 19 20  2  0
 20 21  1  0
 21 22  1  0
 21 23  1  0
 21 24  1  0
 20 25  1  0
 25 26  2  0
 26 11  1  0
 26 17  1  0
  1 27  1  0
  1 28  1  0
  1 29  1  0
  2 30  1  0
  3 31  1  0
  3 32  1  0
  7 33  1  0
  7 34  1  0
  7 35  1  0
  8 36  1  0
  8 37  1  0
 14 38  1  0
 16 39  1  0
 18 40  1  0
 19 41  1  0
 25 42  1  0
M  CHG  1  14  -1
M  END
>  <UniqueID>  (72) 
72

>  <SMILES>  (72) 
CNCC(=O)N(C)CC(=O)n1c(C([NH-])=O)cc2ccc(C(F)(F)F)cc21

>  <Energy>  (72) 
79.25100564570896

>  <Genealogy>  (72) 
CNCC(=O)N(C)CC(=O)n1c(C([NH-])=O)cc2ccc(C(F)(F)F)cc21 (protonated)
CNCC(=O)N(C)CC(=O)n1c(C([NH-])=O)cc2ccc(C(F)(F)F)cc21 (3D coordinates assigned)
CNCC(=O)N(C)CC(=O)n1c(C([NH-])=O)cc2ccc(C(F)(F)F)cc21 (optimized conformer: 79.25100564570896 kcal/mol)

>  <smiles>  (72) 
CNCC(=O)N(C)CC(=O)n1c(C(N)=O)cc2ccc(C(F)(F)F)cc21

>  <score_type>  (72) 
oracle

>  <origin>  (72) 
adg

>  <m_score__min__energy>  (72) 
-6.3399999999999999

>  <m_primary>  (72) 
energy

$$$$
74:0
     RDKit          3D

 33 35  0  0  0  0  0  0  0  0999 V2000
  144.3220  153.8710  136.7230 N   0  0  0  0  0  0  0  0  0  0  0  0
  144.4660  154.0420  135.3150 C   0  0  0  0  0  0  0  0  0  0  0  0
  144.0170  153.1600  134.5370 O   0  0  0  0  0  0  0  0  0  0  0  0
  145.1660  155.2320  134.7850 C   0  0  0  0  0  0  0  0  0  0  0  0
  144.5110  156.3610  134.2960 C   0  0  0  0  0  0  0  0  0  0  0  0
  145.5110  157.2570  133.9890 C   0  0  0  0  0  0  0  0  0  0  0  0
  145.4330  158.5410  133.4570 C   0  0  0  0  0  0  0  0  0  0  0  0
  146.6360  159.2300  133.2240 C   0  0  0  0  0  0  0  0  0  0  0  0
  147.8820  158.6310  133.5330 C   0  0  0  0  0  0  0  0  0  0  0  0
  149.1630  159.3560  133.2290 C   0  0  0  0  0  0  0  0  0  0  0  0
  149.2550  159.6240  131.7970 N   0  0  0  0  0  0  0  0  0  0  0  0
  149.2770  160.8260  131.2000 C   0  0  0  0  0  0  0  0  0  0  0  0
  149.2820  160.6200  129.8390 C   0  0  0  0  0  0  0  0  0  0  0  0
  149.2500  159.2960  129.5810 N   0  0  0  0  0  0  0  0  0  0  0  0
  149.2280  158.7190  130.8010 C   0  0  0  0  0  0  0  0  0  0  0  0
  147.9220  157.3220  134.0590 C   0  0  0  0  0  0  0  0  0  0  0  0
  146.7100  156.6650  134.2870 C   0  0  0  0  0  0  0  0  0  0  0  0
  146.5150  155.4190  134.7690 N   0  0  0  0  0  0  0  0  0  0  0  0
  147.5440  154.4930  135.1470 C   0  0  0  0  0  0  0  0  0  0  0  0
  148.2760  153.9790  134.2590 O   0  0  0  0  0  0  0  0  0  0  0  0
  147.7250  154.0950  136.5510 C   0  0  0  0  0  0  0  0  0  0  0  0
  148.5410  154.7100  137.2870 O   0  0  0  0  0  0  0  0  0  0  0  0
  146.9830  153.0460  137.0790 O   0  0  0  0  0  0  0  0  0  0  0  0
  145.0980  154.1200  137.3750 H   0  0  0  0  0  0  0  0  0  0  0  0
  143.4267  156.5056  134.1800 H   0  0  0  0  0  0  0  0  0  0  0  0
  144.4611  159.0017  133.2263 H   0  0  0  0  0  0  0  0  0  0  0  0
  146.6096  160.2437  132.7978 H   0  0  0  0  0  0  0  0  0  0  0  0
  149.1829  160.3078  133.7801 H   0  0  0  0  0  0  0  0  0  0  0  0
  150.0144  158.7306  133.5356 H   0  0  0  0  0  0  0  0  0  0  0  0
  149.2889  161.8017  131.7078 H   0  0  0  0  0  0  0  0  0  0  0  0
  149.3081  161.4137  129.0778 H   0  0  0  0  0  0  0  0  0  0  0  0
  149.1920  157.6316  130.9631 H   0  0  0  0  0  0  0  0  0  0  0  0
  148.8811  156.8323  134.2834 H   0  0  0  0  0  0  0  0  0  0  0  0
  1  2  1  0
  2  3  2  0
  2  4  1  0
  4  5  2  0
  5  6  1  0
  6  7  2  0
  7  8  1  0
  8  9  2  0
  9 10  1  0
 10 11  1  0
 11 12  1  0
 12 13  2  0
 13 14  1  0
 14 15  2  0
  9 16  1  0
 16 17  2  0
 17 18  1  0
 18 19  1  0
 19 20  2  0
 19 21  1  0
 21 22  2  0
 21 23  1  0
 18  4  1  0
 17  6  1  0
 15 11  1  0
  1 24  1  0
  5 25  1  0
  7 26  1  0
  8 27  1  0
 10 28  1  0
 10 29  1  0
 12 30  1  0
 13 31  1  0
 15 32  1  0
 16 33  1  0
M  CHG  2   1  -1  23  -1
M  END
>  <UniqueID>  (73) 
73

>  <SMILES>  (73) 
[NH-]C(=O)c1cc2ccc(Cn3ccnc3)cc2n1C(=O)C(=O)[O-]

>  <Energy>  (73) 
102.03604378222913

>  <Genealogy>  (73) 
[NH-]C(=O)c1cc2ccc(Cn3ccnc3)cc2n1C(=O)C(=O)[O-] (protonated)
[NH-]C(=O)c1cc2ccc(Cn3ccnc3)cc2n1C(=O)C(=O)[O-] (3D coordinates assigned)
[NH-]C(=O)c1cc2ccc(Cn3ccnc3)cc2n1C(=O)C(=O)[O-] (optimized conformer: 102.03604378222913 kcal/mol)

>  <smiles>  (73) 
NC(=O)c1cc2ccc(Cn3ccnc3)cc2n1C(=O)C(=O)O

>  <score_type>  (73) 
oracle

>  <origin>  (73) 
adg

>  <m_score__min__energy>  (73) 
-7.1699999999999999

>  <m_primary>  (73) 
energy

$$$$
75:0
     RDKit          3D

 34 35  0  0  0  0  0  0  0  0999 V2000
  149.9798  158.1089  131.9978 H   0  0  0  0  0  0  0  0  0  0  0  0
  149.2460  158.9010  132.2080 C   0  0  0  0  0  0  0  0  0  0  0  0
  148.4560  158.7820  133.4530 C   0  0  0  0  0  0  0  0  0  0  0  0
  149.0400  158.9630  134.5550 O   0  0  0  0  0  0  0  0  0  0  0  0
  147.0380  158.5480  133.4380 N   0  0  0  0  0  0  0  0  0  0  0  0
  146.3990  157.3480  133.3380 C   0  0  0  0  0  0  0  0  0  0  0  0
  147.0600  156.0490  133.0760 C   0  0  0  0  0  0  0  0  0  0  0  0
  147.8200  155.5410  133.9430 O   0  0  0  0  0  0  0  0  0  0  0  0
  146.8650  155.3630  131.8370 N   0  0  0  0  0  0  0  0  0  0  0  0
  147.3670  154.4660  131.6530 H   0  0  0  0  0  0  0  0  0  0  0  0
  146.1950  155.7120  131.1190 H   0  0  0  0  0  0  0  0  0  0  0  0
  145.0190  157.5220  133.4450 C   0  0  0  0  0  0  0  0  0  0  0  0
  144.2431  156.7440  133.3933 H   0  0  0  0  0  0  0  0  0  0  0  0
  144.8340  158.8730  133.6290 C   0  0  0  0  0  0  0  0  0  0  0  0
  143.6620  159.5990  133.8170 C   0  0  0  0  0  0  0  0  0  0  0  0
  142.6807  159.1021  133.8123 H   0  0  0  0  0  0  0  0  0  0  0  0
  143.7700  160.9860  134.0130 C   0  0  0  0  0  0  0  0  0  0  0  0
  142.8610  161.5851  134.1706 H   0  0  0  0  0  0  0  0  0  0  0  0
  145.0380  161.6230  134.0100 C   0  0  0  0  0  0  0  0  0  0  0  0
  145.1460  163.1020  134.2800 C   0  0  0  0  0  0  0  0  0  0  0  0
  145.1080  163.3560  135.6400 F   0  0  0  0  0  0  0  0  0  0  0  0
  146.3400  163.5730  133.7670 F   0  0  0  0  0  0  0  0  0  0  0  0
  144.0990  163.7840  133.6840 F   0  0  0  0  0  0  0  0  0  0  0  0
  146.2070  160.8460  133.8420 C   0  0  0  0  0  0  0  0  0  0  0  0
  147.2028  161.3119  133.8778 H   0  0  0  0  0  0  0  0  0  0  0  0
  146.0670  159.4700  133.6290 C   0  0  0  0  0  0  0  0  0  0  0  0
  149.1400  159.9030  131.3080 C   0  0  0  0  0  0  0  0  0  0  0  0
  150.0720  159.9580  130.1540 C   0  0  0  0  0  0  0  0  0  0  0  0
  151.3040  159.7420  130.3050 O   0  0  0  0  0  0  0  0  0  0  0  0
  149.5980  160.2620  128.8820 O   0  0  0  0  0  0  0  0  0  0  0  0
  148.1030  160.9920  131.4410 C   0  0  0  0  0  0  0  0  0  0  0  0
  147.9141  161.1903  132.5064 H   0  0  0  0  0  0  0  0  0  0  0  0
  148.4700  161.9090  130.9568 H   0  0  0  0  0  0  0  0  0  0  0  0
  147.1692  160.6702  130.9568 H   0  0  0  0  0  0  0  0  0  0  0  0
  1  2  1  0
  2  3  1  0
  3  4  2  0
  3  5  1  0
  5  6  1  0
  6  7  1  0
  7  8  2  0
  7  9  1  0
  9 10  1  0
  9 11  1  0
  6 12  2  0
 12 13  1  0
 12 14  1  0
 14 15  2  0
 15 16  1  0
 15 17  1  0
 17 18  1  0
 17 19  2  0
 19 20  1  0
 20 21  1  0
 20 22  1  0
 20 23  1  0
 19 24  1  0
 24 25  1  0
 24 26  2  0
  2 27  2  0
 27 28  1  0
 28 29  2  0
 28 30  1  0
 27 31  1  0
 31 32  1  0
 31 33  1  0
 31 34  1  0
 26  5  1  0
 26 14  1  0
M  CHG  1  30  -1
M  END
>  <UniqueID>  (74) 
74

>  <SMILES>  (74) 
C/C(=C\C(=O)n1c(C(N)=O)cc2ccc(C(F)(F)F)cc21)C(=O)[O-]

>  <Energy>  (74) 
77.07267099262212

>  <Genealogy>  (74) 
CC(=CC(=O)n1c(C(N)=O)cc2ccc(C(F)(F)F)cc21)C(=O)[O-] (protonated)
C/C(=C\C(=O)n1c(C(N)=O)cc2ccc(C(F)(F)F)cc21)C(=O)[O-] (cis-trans isomerization)
C/C(=C\C(=O)n1c(C(N)=O)cc2ccc(C(F)(F)F)cc21)C(=O)[O-] (3D coordinates assigned)
C/C(=C\C(=O)n1c(C(N)=O)cc2ccc(C(F)(F)F)cc21)C(=O)[O-] (optimized conformer: 77.07267099262212 kcal/mol)

>  <smiles>  (74) 
CC(=CC(=O)n1c(C(N)=O)cc2ccc(C(F)(F)F)cc21)C(=O)O

>  <score_type>  (74) 
oracle

>  <origin>  (74) 
adg

>  <m_score__min__energy>  (74) 
-7.4299999999999997

>  <m_primary>  (74) 
energy

$$$$
76:0
     RDKit          3D

 34 35  0  0  0  0  0  0  0  0999 V2000
  145.6350  162.9730  134.5090 C   0  0  0  0  0  0  0  0  0  0  0  0
  145.1050  161.7470  134.4620 C   0  0  0  0  0  0  0  0  0  0  0  0
  143.8160  161.4690  133.7400 C   0  0  0  0  0  0  0  0  0  0  0  0
  143.5690  159.9890  133.6430 C   0  0  0  0  0  0  0  0  0  0  0  0
  144.6570  159.0980  133.4680 C   0  0  0  0  0  0  0  0  0  0  0  0
  144.4390  157.7150  133.3570 C   0  0  0  0  0  0  0  0  0  0  0  0
  143.1260  157.2550  133.4080 C   0  0  0  0  0  0  0  0  0  0  0  0
  142.6350  155.9720  133.3410 C   0  0  0  0  0  0  0  0  0  0  0  0
  141.2510  156.1000  133.4430 C   0  0  0  0  0  0  0  0  0  0  0  0
  140.3170  154.9590  133.3270 C   0  0  0  0  0  0  0  0  0  0  0  0
  138.9540  155.1920  132.9800 N   0  0  0  0  0  0  0  0  0  0  0  0
  140.7010  153.7840  133.5660 O   0  0  0  0  0  0  0  0  0  0  0  0
  140.9010  157.4120  133.5750 N   0  0  0  0  0  0  0  0  0  0  0  0
  139.5870  157.9610  133.7570 C   0  0  0  0  0  0  0  0  0  0  0  0
  138.8640  158.2120  132.7540 O   0  0  0  0  0  0  0  0  0  0  0  0
  139.1050  158.1930  135.0510 O   0  0  0  0  0  0  0  0  0  0  0  0
  139.8150  157.8210  136.2290 C   0  0  0  0  0  0  0  0  0  0  0  0
  140.6930  158.9420  136.6820 C   0  0  0  0  0  0  0  0  0  0  0  0
  140.6060  160.0760  136.1420 O   0  0  0  0  0  0  0  0  0  0  0  0
  141.6320  158.7270  137.6830 O   0  0  0  0  0  0  0  0  0  0  0  0
  142.0600  158.1060  133.5490 C   0  0  0  0  0  0  0  0  0  0  0  0
  142.2490  159.4860  133.6840 C   0  0  0  0  0  0  0  0  0  0  0  0
  146.5799  163.1435  135.0457 H   0  0  0  0  0  0  0  0  0  0  0  0
  145.1263  163.8116  134.0109 H   0  0  0  0  0  0  0  0  0  0  0  0
  145.6259  160.9191  134.9651 H   0  0  0  0  0  0  0  0  0  0  0  0
  142.9863  161.9382  134.2890 H   0  0  0  0  0  0  0  0  0  0  0  0
  143.8839  161.8833  132.7233 H   0  0  0  0  0  0  0  0  0  0  0  0
  145.6823  159.4934  133.4186 H   0  0  0  0  0  0  0  0  0  0  0  0
  145.2799  157.0167  133.2335 H   0  0  0  0  0  0  0  0  0  0  0  0
  143.2122  155.0422  133.2304 H   0  0  0  0  0  0  0  0  0  0  0  0
  138.6630  156.0780  132.5120 H   0  0  0  0  0  0  0  0  0  0  0  0
  139.0954  157.5794  137.0251 H   0  0  0  0  0  0  0  0  0  0  0  0
  140.4408  156.9440  136.0072 H   0  0  0  0  0  0  0  0  0  0  0  0
  141.3918  160.1621  133.8186 H   0  0  0  0  0  0  0  0  0  0  0  0
  1  2  2  0
  2  3  1  0
  3  4  1  0
  4  5  2  0
  5  6  1  0
  6  7  2  0
  7  8  1  0
  8  9  2  0
  9 10  1  0
 10 11  1  0
 10 12  2  0
  9 13  1  0
 13 14  1  0
 14 15  2  0
 14 16  1  0
 16 17  1  0
 17 18  1  0
 18 19  2  0
 18 20  1  0
 13 21  1  0
 21 22  2  0
 22  4  1  0
 21  7  1  0
  1 23  1  0
  1 24  1  0
  2 25  1  0
  3 26  1  0
  3 27  1  0
  5 28  1  0
  6 29  1  0
  8 30  1  0
 11 31  1  0
 17 32  1  0
 17 33  1  0
 22 34  1  0
M  CHG  2  11  -1  20  -1
M  END
>  <UniqueID>  (75) 
75

>  <SMILES>  (75) 
C=CCc1ccc2cc(C([NH-])=O)n(C(=O)OCC(=O)[O-])c2c1

>  <Energy>  (75) 
67.22119567074918

>  <Genealogy>  (75) 
C=CCc1ccc2cc(C([NH-])=O)n(C(=O)OCC(=O)[O-])c2c1 (protonated)
C=CCc1ccc2cc(C([NH-])=O)n(C(=O)OCC(=O)[O-])c2c1 (3D coordinates assigned)
C=CCc1ccc2cc(C([NH-])=O)n(C(=O)OCC(=O)[O-])c2c1 (optimized conformer: 67.22119567074918 kcal/mol)

>  <smiles>  (75) 
C=CCc1ccc2cc(C(N)=O)n(C(=O)OCC(=O)O)c2c1

>  <score_type>  (75) 
oracle

>  <origin>  (75) 
adg

>  <m_score__min__energy>  (75) 
-6.4900000000000002

>  <m_primary>  (75) 
energy

$$$$
77:0
     RDKit          3D

 44 46  0  0  0  0  0  0  0  0999 V2000
  139.8120  158.9410  133.1810 C   0  0  0  0  0  0  0  0  0  0  0  0
  139.5530  158.2960  134.4780 N   0  0  2  0  0  0  0  0  0  0  0  0
  140.2220  158.9590  135.6060 C   0  0  0  0  0  0  0  0  0  0  0  0
  141.1050  157.7440  135.8970 C   0  0  2  0  0  0  0  0  0  0  0  0
  140.8230  157.1170  137.2750 C   0  0  0  0  0  0  0  0  0  0  0  0
  142.4690  158.0530  135.6570 O   0  0  0  0  0  0  0  0  0  0  0  0
  143.0850  157.1270  134.7780 C   0  0  0  0  0  0  0  0  0  0  0  0
  143.4750  157.8340  133.5190 C   0  0  0  0  0  0  0  0  0  0  0  0
  142.6850  157.8370  132.5370 O   0  0  0  0  0  0  0  0  0  0  0  0
  144.6990  158.5800  133.4500 N   0  0  0  0  0  0  0  0  0  0  0  0
  144.8490  159.9320  133.5110 C   0  0  0  0  0  0  0  0  0  0  0  0
  143.7650  160.9110  133.7370 C   0  0  0  0  0  0  0  0  0  0  0  0
  142.4300  160.4560  133.9460 N   0  0  0  0  0  0  0  0  0  0  0  0
  144.0010  162.1480  133.7250 O   0  0  0  0  0  0  0  0  0  0  0  0
  146.1940  160.2780  133.3860 C   0  0  0  0  0  0  0  0  0  0  0  0
  146.8660  159.0840  133.2450 C   0  0  0  0  0  0  0  0  0  0  0  0
  148.2240  158.8320  133.0760 C   0  0  0  0  0  0  0  0  0  0  0  0
  148.6340  157.4950  132.9340 C   0  0  0  0  0  0  0  0  0  0  0  0
  147.6850  156.4420  132.9590 C   0  0  0  0  0  0  0  0  0  0  0  0
  148.1250  155.0150  132.7930 C   0  0  0  0  0  0  0  0  0  0  0  0
  147.8530  154.3060  133.9480 F   0  0  0  0  0  0  0  0  0  0  0  0
  149.4850  154.9730  132.5400 F   0  0  0  0  0  0  0  0  0  0  0  0
  146.3150  156.7370  133.1260 C   0  0  0  0  0  0  0  0  0  0  0  0
  145.9390  158.0740  133.2840 C   0  0  0  0  0  0  0  0  0  0  0  0
  140.3770  157.1000  134.7090 C   0  0  0  0  0  0  0  0  0  0  0  0
  140.2172  159.9500  133.3477 H   0  0  0  0  0  0  0  0  0  0  0  0
  140.5397  158.3429  132.6129 H   0  0  0  0  0  0  0  0  0  0  0  0
  138.8728  159.0123  132.6129 H   0  0  0  0  0  0  0  0  0  0  0  0
  138.5350  158.1230  134.6570 H   0  0  0  0  0  0  0  0  0  0  0  0
  140.7912  159.8534  135.3128 H   0  0  0  0  0  0  0  0  0  0  0  0
  139.6070  159.3747  136.4178 H   0  0  0  0  0  0  0  0  0  0  0  0
  141.1365  157.8141  138.0661 H   0  0  0  0  0  0  0  0  0  0  0  0
  139.7464  156.9129  137.3716 H   0  0  0  0  0  0  0  0  0  0  0  0
  141.3846  156.1761  137.3716 H   0  0  0  0  0  0  0  0  0  0  0  0
  143.9811  156.7048  135.2563 H   0  0  0  0  0  0  0  0  0  0  0  0
  142.3825  156.3134  134.5443 H   0  0  0  0  0  0  0  0  0  0  0  0
  142.2100  159.4360  133.9900 H   0  0  0  0  0  0  0  0  0  0  0  0
  146.6264  161.2894  133.3975 H   0  0  0  0  0  0  0  0  0  0  0  0
  148.9545  159.6541  133.0542 H   0  0  0  0  0  0  0  0  0  0  0  0
  149.7013  157.2635  132.8022 H   0  0  0  0  0  0  0  0  0  0  0  0
  147.5802  154.5658  131.9496 H   0  0  0  0  0  0  0  0  0  0  0  0
  145.5621  155.9350  133.1317 H   0  0  0  0  0  0  0  0  0  0  0  0
  141.0417  156.8561  133.8672 H   0  0  0  0  0  0  0  0  0  0  0  0
  139.8794  156.1294  134.8514 H   0  0  0  0  0  0  0  0  0  0  0  0
  1  2  1  0
  2  3  1  0
  3  4  1  0
  4  5  1  0
  4  6  1  6
  6  7  1  0
  7  8  1  0
  8  9  2  0
  8 10  1  0
 10 11  1  0
 11 12  1  0
 12 13  1  0
 12 14  2  0
 11 15  2  0
 15 16  1  0
 16 17  2  0
 17 18  1  0
 18 19  2  0
 19 20  1  0
 20 21  1  0
 20 22  1  0
 19 23  1  0
 23 24  2  0
  4 25  1  0
 25  2  1  0
 24 10  1  0
 24 16  1  0
  1 26  1  0
  1 27  1  0
  1 28  1  0
  2 29  1  1
  3 30  1  0
  3 31  1  0
  5 32  1  0
  5 33  1  0
  5 34  1  0
  7 35  1  0
  7 36  1  0
 13 37  1  0
 15 38  1  0
 17 39  1  0
 18 40  1  0
 20 41  1  0
 23 42  1  0
 25 43  1  0
 25 44  1  0
M  CHG  2   2   1  13  -1
M  END
>  <UniqueID>  (76) 
76

>  <SMILES>  (76) 
C[NH+]1CC(C)(OCC(=O)n2c(C([NH-])=O)cc3ccc(C(F)F)cc32)C1

>  <Energy>  (76) 
158.22218051088493

>  <Genealogy>  (76) 
C[NH+]1CC(C)(OCC(=O)n2c(C([NH-])=O)cc3ccc(C(F)F)cc32)C1 (protonated)
C[NH+]1CC(C)(OCC(=O)n2c(C([NH-])=O)cc3ccc(C(F)F)cc32)C1 (3D coordinates assigned)
C[NH+]1CC(C)(OCC(=O)n2c(C([NH-])=O)cc3ccc(C(F)F)cc32)C1 (nonaromatic ring conformer: 158.22218051088493 kcal/mol)

>  <smiles>  (76) 
CN1CC(C)(OCC(=O)n2c(C(N)=O)cc3ccc(C(F)F)cc32)C1

>  <score_type>  (76) 
oracle

>  <origin>  (76) 
adg

>  <m_score__min__energy>  (76) 
-6.4000000000000004

>  <m_primary>  (76) 
energy

$$$$
78:0
     RDKit          3D

 29 30  0  0  0  0  0  0  0  0999 V2000
  149.1950  159.3060  131.1760 C   0  0  0  0  0  0  0  0  0  0  0  0
  148.6230  159.3290  132.3780 C   0  0  0  0  0  0  0  0  0  0  0  0
  147.9960  158.1390  132.9820 C   0  0  0  0  0  0  0  0  0  0  0  0
  148.7040  157.1580  133.3410 O   0  0  0  0  0  0  0  0  0  0  0  0
  146.5700  158.0800  133.1500 N   0  0  0  0  0  0  0  0  0  0  0  0
  145.7740  156.9760  133.0810 C   0  0  0  0  0  0  0  0  0  0  0  0
  146.2260  155.6200  132.6940 C   0  0  0  0  0  0  0  0  0  0  0  0
  147.3990  155.4370  131.8990 N   0  0  0  0  0  0  0  0  0  0  0  0
  145.5870  154.6050  133.0820 O   0  0  0  0  0  0  0  0  0  0  0  0
  144.4500  157.3140  133.3590 C   0  0  0  0  0  0  0  0  0  0  0  0
  144.4630  158.6670  133.6090 C   0  0  0  0  0  0  0  0  0  0  0  0
  143.4240  159.5200  133.9680 C   0  0  0  0  0  0  0  0  0  0  0  0
  143.7330  160.8700  134.2060 C   0  0  0  0  0  0  0  0  0  0  0  0
  145.0630  161.3450  134.0750 C   0  0  0  0  0  0  0  0  0  0  0  0
  145.3920  162.7800  134.3960 C   0  0  0  0  0  0  0  0  0  0  0  0
  146.6070  163.1070  133.8240 F   0  0  0  0  0  0  0  0  0  0  0  0
  145.4720  162.9690  135.7650 F   0  0  0  0  0  0  0  0  0  0  0  0
  144.4170  163.6280  133.8990 F   0  0  0  0  0  0  0  0  0  0  0  0
  146.0950  160.4390  133.7320 C   0  0  0  0  0  0  0  0  0  0  0  0
  145.7550  159.1060  133.4790 C   0  0  0  0  0  0  0  0  0  0  0  0
  149.6505  160.2195  130.7661 H   0  0  0  0  0  0  0  0  0  0  0  0
  149.2121  158.3735  130.5928 H   0  0  0  0  0  0  0  0  0  0  0  0
  148.6180  160.2729  132.9428 H   0  0  0  0  0  0  0  0  0  0  0  0
  147.7280  154.4730  131.6650 H   0  0  0  0  0  0  0  0  0  0  0  0
  147.9210  156.2480  131.5000 H   0  0  0  0  0  0  0  0  0  0  0  0
  143.5796  156.6415  133.3750 H   0  0  0  0  0  0  0  0  0  0  0  0
  142.3927  159.1491  134.0626 H   0  0  0  0  0  0  0  0  0  0  0  0
  142.9335  161.5670  134.4975 H   0  0  0  0  0  0  0  0  0  0  0  0
  147.1402  160.7754  133.6659 H   0  0  0  0  0  0  0  0  0  0  0  0
  1  2  2  0
  2  3  1  0
  3  4  2  0
  3  5  1  0
  5  6  1  0
  6  7  1  0
  7  8  1  0
  7  9  2  0
  6 10  2  0
 10 11  1  0
 11 12  2  0
 12 13  1  0
 13 14  2  0
 14 15  1  0
 15 16  1  0
 15 17  1  0
 15 18  1  0
 14 19  1  0
 19 20  2  0
 20  5  1  0
 20 11  1  0
  1 21  1  0
  1 22  1  0
  2 23  1  0
  8 24  1  0
  8 25  1  0
 10 26  1  0
 12 27  1  0
 13 28  1  0
 19 29  1  0
M  END
>  <UniqueID>  (77) 
77

>  <SMILES>  (77) 
C=CC(=O)n1c(C(N)=O)cc2ccc(C(F)(F)F)cc21

>  <Energy>  (77) 
67.91954341537543

>  <Genealogy>  (77) 
C=CC(=O)n1c(C(N)=O)cc2ccc(C(F)(F)F)cc21 (3D coordinates assigned)
C=CC(=O)n1c(C(N)=O)cc2ccc(C(F)(F)F)cc21 (optimized conformer: 67.91954341537543 kcal/mol)

>  <smiles>  (77) 
C=CC(=O)n1c(C(N)=O)cc2ccc(C(F)(F)F)cc21

>  <score_type>  (77) 
oracle

>  <origin>  (77) 
adg

>  <m_score__min__energy>  (77) 
-6.6200000000000001

>  <m_primary>  (77) 
energy

$$$$
79:0
     RDKit          3D

 38 39  0  0  0  0  0  0  0  0999 V2000
  149.2660  161.8170  130.4380 N   0  0  0  0  0  0  0  0  0  0  0  0
  149.6010  160.4330  130.3810 C   0  0  0  0  0  0  0  0  0  0  0  0
  149.6290  159.8390  129.2700 O   0  0  0  0  0  0  0  0  0  0  0  0
  149.8940  159.6820  131.6400 C   0  0  0  0  0  0  0  0  0  0  0  0
  148.6220  159.1530  132.2420 C   0  0  0  0  0  0  0  0  0  0  0  0
  147.4950  160.0010  132.3890 C   0  0  0  0  0  0  0  0  0  0  0  0
  146.2920  159.5100  132.9270 C   0  0  0  0  0  0  0  0  0  0  0  0
  146.2460  158.1710  133.3010 C   0  0  0  0  0  0  0  0  0  0  0  0
  145.2110  157.4280  133.8260 C   0  0  0  0  0  0  0  0  0  0  0  0
  145.7230  156.1410  133.9840 C   0  0  0  0  0  0  0  0  0  0  0  0
  144.9660  155.0160  134.5680 C   0  0  0  0  0  0  0  0  0  0  0  0
  144.9030  154.8590  135.9840 N   0  0  0  0  0  0  0  0  0  0  0  0
  144.3930  154.1740  133.8270 O   0  0  0  0  0  0  0  0  0  0  0  0
  147.0190  156.0940  133.5720 N   0  0  0  0  0  0  0  0  0  0  0  0
  147.8730  154.9460  133.4790 C   0  0  0  0  0  0  0  0  0  0  0  0
  148.7260  154.8760  132.5540 O   0  0  0  0  0  0  0  0  0  0  0  0
  147.6730  153.7820  134.4000 C   0  0  0  0  0  0  0  0  0  0  0  0
  147.6660  154.2600  135.8160 C   0  0  0  0  0  0  0  0  0  0  0  0
  147.8890  155.4750  136.0680 O   0  0  0  0  0  0  0  0  0  0  0  0
  147.3560  153.3610  136.8420 O   0  0  0  0  0  0  0  0  0  0  0  0
  148.2920  152.9660  137.8420 C   0  0  0  0  0  0  0  0  0  0  0  0
  148.3810  154.0060  138.9130 C   0  0  0  0  0  0  0  0  0  0  0  0
  147.4110  154.2010  139.6920 O   0  0  0  0  0  0  0  0  0  0  0  0
  149.5290  154.7780  139.0350 O   0  0  0  0  0  0  0  0  0  0  0  0
  147.3260  157.3400  133.1610 C   0  0  0  0  0  0  0  0  0  0  0  0
  148.5320  157.7960  132.6220 C   0  0  0  0  0  0  0  0  0  0  0  0
  148.4020  162.1790  129.9760 H   0  0  0  0  0  0  0  0  0  0  0  0
  150.5648  158.8404  131.4124 H   0  0  0  0  0  0  0  0  0  0  0  0
  150.3730  160.3631  132.3588 H   0  0  0  0  0  0  0  0  0  0  0  0
  147.5625  161.0542  132.0789 H   0  0  0  0  0  0  0  0  0  0  0  0
  145.4157  160.1637  133.0482 H   0  0  0  0  0  0  0  0  0  0  0  0
  144.1963  157.7764  134.0689 H   0  0  0  0  0  0  0  0  0  0  0  0
  145.7710  154.8710  136.5640 H   0  0  0  0  0  0  0  0  0  0  0  0
  146.7128  153.2959  134.1727 H   0  0  0  0  0  0  0  0  0  0  0  0
  148.4920  153.0609  134.2614 H   0  0  0  0  0  0  0  0  0  0  0  0
  147.9666  152.0142  138.2872 H   0  0  0  0  0  0  0  0  0  0  0  0
  149.2818  152.8471  137.3771 H   0  0  0  0  0  0  0  0  0  0  0  0
  149.3879  157.1164  132.4971 H   0  0  0  0  0  0  0  0  0  0  0  0
  1  2  1  0
  2  3  2  0
  2  4  1  0
  4  5  1  0
  5  6  2  0
  6  7  1  0
  7  8  2  0
  8  9  1  0
  9 10  2  0
 10 11  1  0
 11 12  1  0
 11 13  2  0
 10 14  1  0
 14 15  1  0
 15 16  2  0
 15 17  1  0
 17 18  1  0
 18 19  2  0
 18 20  1  0
 20 21  1  0
 21 22  1  0
 22 23  2  0
 22 24  1  0
 14 25  1  0
 25 26  2  0
 26  5  1  0
 25  8  1  0
  1 27  1  0
  4 28  1  0
  4 29  1  0
  6 30  1  0
  7 31  1  0
  9 32  1  0
 12 33  1  0
 17 34  1  0
 17 35  1  0
 21 36  1  0
 21 37  1  0
 26 38  1  0
M  CHG  3   1  -1  12  -1  24  -1
M  END
>  <UniqueID>  (78) 
78

>  <SMILES>  (78) 
[NH-]C(=O)Cc1ccc2cc(C([NH-])=O)n(C(=O)CC(=O)OCC(=O)[O-])c2c1

>  <Energy>  (78) 
69.85080349781315

>  <Genealogy>  (78) 
[NH-]C(=O)Cc1ccc2cc(C([NH-])=O)n(C(=O)CC(=O)OCC(=O)[O-])c2c1 (protonated)
[NH-]C(=O)Cc1ccc2cc(C([NH-])=O)n(C(=O)CC(=O)OCC(=O)[O-])c2c1 (3D coordinates assigned)
[NH-]C(=O)Cc1ccc2cc(C([NH-])=O)n(C(=O)CC(=O)OCC(=O)[O-])c2c1 (optimized conformer: 69.85080349781315 kcal/mol)

>  <smiles>  (78) 
NC(=O)Cc1ccc2cc(C(N)=O)n(C(=O)CC(=O)OCC(=O)O)c2c1

>  <score_type>  (78) 
oracle

>  <origin>  (78) 
adg

>  <m_score__min__energy>  (78) 
-7.0599999999999996

>  <m_primary>  (78) 
energy

$$$$
80:0
     RDKit          3D

 38 39  0  0  0  0  0  0  0  0999 V2000
  148.9750  161.5000  130.7210 C   0  0  0  0  0  0  0  0  0  0  0  0
  149.3370  160.0740  131.1100 C   0  0  0  0  0  0  0  0  0  0  0  0
  148.1410  159.3650  131.5420 N   0  0  0  0  0  0  0  0  0  0  0  0
  147.6300  159.4460  132.8760 C   0  0  0  0  0  0  0  0  0  0  0  0
  148.2460  160.1130  133.7510 O   0  0  0  0  0  0  0  0  0  0  0  0
  146.4020  158.7810  133.2130 N   0  0  0  0  0  0  0  0  0  0  0  0
  145.2060  159.3480  133.5390 C   0  0  0  0  0  0  0  0  0  0  0  0
  144.9560  160.7880  133.7580 C   0  0  0  0  0  0  0  0  0  0  0  0
  146.0230  161.6790  134.0750 N   0  0  0  0  0  0  0  0  0  0  0  0
  143.7780  161.2320  133.7050 O   0  0  0  0  0  0  0  0  0  0  0  0
  144.2350  158.3650  133.7240 C   0  0  0  0  0  0  0  0  0  0  0  0
  144.8810  157.1700  133.5050 C   0  0  0  0  0  0  0  0  0  0  0  0
  144.3940  155.8680  133.5520 C   0  0  0  0  0  0  0  0  0  0  0  0
  145.2830  154.8210  133.2580 C   0  0  0  0  0  0  0  0  0  0  0  0
  146.6310  155.0850  132.9060 C   0  0  0  0  0  0  0  0  0  0  0  0
  147.5000  153.9690  132.6100 N   0  0  0  0  0  0  0  0  0  0  0  0
  148.5800  153.4510  133.4630 C   0  0  1  0  0  0  0  0  0  0  0  0
  148.1350  153.3810  134.9300 C   0  0  0  0  0  0  0  0  0  0  0  0
  149.1150  152.1430  132.9430 C   0  0  0  0  0  0  0  0  0  0  0  0
  148.7410  151.6960  131.8250 O   0  0  0  0  0  0  0  0  0  0  0  0
  149.9610  151.3720  133.7330 O   0  0  0  0  0  0  0  0  0  0  0  0
  147.0880  156.4260  132.8760 C   0  0  0  0  0  0  0  0  0  0  0  0
  146.1860  157.4470  133.1970 C   0  0  0  0  0  0  0  0  0  0  0  0
  148.8226  162.1005  131.6299 H   0  0  0  0  0  0  0  0  0  0  0  0
  149.7909  161.9361  130.1259 H   0  0  0  0  0  0  0  0  0  0  0  0
  148.0499  161.4941  130.1259 H   0  0  0  0  0  0  0  0  0  0  0  0
  149.7747  159.5582  130.2426 H   0  0  0  0  0  0  0  0  0  0  0  0
  150.0659  160.0948  131.9336 H   0  0  0  0  0  0  0  0  0  0  0  0
  146.8530  161.7670  133.4500 H   0  0  0  0  0  0  0  0  0  0  0  0
  143.1776  158.5131  133.9887 H   0  0  0  0  0  0  0  0  0  0  0  0
  143.3446  155.6644  133.8115 H   0  0  0  0  0  0  0  0  0  0  0  0
  144.9282  153.7807  133.3015 H   0  0  0  0  0  0  0  0  0  0  0  0
  147.4100  153.5280  131.6660 H   0  0  0  0  0  0  0  0  0  0  0  0
  149.4218  154.1580  133.4246 H   0  0  0  0  0  0  0  0  0  0  0  0
  149.0080  153.5183  135.5849 H   0  0  0  0  0  0  0  0  0  0  0  0
  147.3994  154.1745  135.1283 H   0  0  0  0  0  0  0  0  0  0  0  0
  147.6786  152.4000  135.1283 H   0  0  0  0  0  0  0  0  0  0  0  0
  148.1286  156.6594  132.6064 H   0  0  0  0  0  0  0  0  0  0  0  0
  1  2  1  0
  2  3  1  0
  3  4  1  0
  4  5  2  0
  4  6  1  0
  6  7  1  0
  7  8  1  0
  8  9  1  0
  8 10  2  0
  7 11  2  0
 11 12  1  0
 12 13  2  0
 13 14  1  0
 14 15  2  0
 15 16  1  0
 16 17  1  0
 17 18  1  0
 17 19  1  0
 19 20  2  0
 19 21  1  0
 15 22  1  0
 22 23  2  0
 23  6  1  0
 23 12  1  0
  1 24  1  0
  1 25  1  0
  1 26  1  0
  2 27  1  0
  2 28  1  0
  9 29  1  0
 11 30  1  0
 13 31  1  0
 14 32  1  0
 16 33  1  0
 17 34  1  1
 18 35  1  0
 18 36  1  0
 18 37  1  0
 22 38  1  0
M  CHG  3   3  -1   9  -1  21  -1
M  END
>  <UniqueID>  (79) 
79

>  <SMILES>  (79) 
CC[N-]C(=O)n1c(C([NH-])=O)cc2ccc(N[C@@H](C)C(=O)[O-])cc21

>  <Energy>  (79) 
72.26700696300426

>  <Genealogy>  (79) 
CC[N-]C(=O)n1c(C([NH-])=O)cc2ccc(NC(C)C(=O)[O-])cc21 (protonated)
CC[N-]C(=O)n1c(C([NH-])=O)cc2ccc(N[C@@H](C)C(=O)[O-])cc21 (chirality)
CC[N-]C(=O)n1c(C([NH-])=O)cc2ccc(N[C@@H](C)C(=O)[O-])cc21 (3D coordinates assigned)
CC[N-]C(=O)n1c(C([NH-])=O)cc2ccc(N[C@@H](C)C(=O)[O-])cc21 (optimized conformer: 72.26700696300426 kcal/mol)

>  <smiles>  (79) 
CCNC(=O)n1c(C(N)=O)cc2ccc(NC(C)C(=O)O)cc21

>  <score_type>  (79) 
oracle

>  <origin>  (79) 
adg

>  <m_score__min__energy>  (79) 
-7.2599999999999998

>  <m_primary>  (79) 
energy

$$$$
81:0
     RDKit          3D

 38 39  0  0  0  0  0  0  0  0999 V2000
  139.8860  159.5680  131.8570 C   0  0  0  0  0  0  0  0  0  0  0  0
  140.9830  158.8670  132.5150 N   0  0  0  0  0  0  0  0  0  0  0  0
  140.9310  158.5270  133.9070 C   0  0  0  0  0  0  0  0  0  0  0  0
  139.8950  158.7770  134.5840 O   0  0  0  0  0  0  0  0  0  0  0  0
  142.1200  157.9110  134.5770 C   0  0  0  0  0  0  0  0  0  0  0  0
  143.3790  158.5860  134.1130 C   0  0  0  0  0  0  0  0  0  0  0  0
  143.4740  160.0010  134.1220 C   0  0  0  0  0  0  0  0  0  0  0  0
  144.6600  160.6420  133.7230 C   0  0  0  0  0  0  0  0  0  0  0  0
  145.7330  159.8460  133.3340 C   0  0  0  0  0  0  0  0  0  0  0  0
  146.9920  160.1980  132.8970 C   0  0  0  0  0  0  0  0  0  0  0  0
  147.6470  158.9910  132.6510 C   0  0  0  0  0  0  0  0  0  0  0  0
  149.0640  158.8960  132.2390 C   0  0  0  0  0  0  0  0  0  0  0  0
  149.6430  157.6370  131.9010 N   0  0  0  0  0  0  0  0  0  0  0  0
  149.7830  159.9300  132.2280 O   0  0  0  0  0  0  0  0  0  0  0  0
  146.8230  157.9400  132.9160 N   0  0  0  0  0  0  0  0  0  0  0  0
  147.0740  156.5420  132.7080 C   0  0  0  0  0  0  0  0  0  0  0  0
  147.0030  156.0620  131.5460 O   0  0  0  0  0  0  0  0  0  0  0  0
  147.5530  155.6830  133.8390 C   0  0  0  0  0  0  0  0  0  0  0  0
  148.3220  154.4750  133.3010 C   0  0  0  0  0  0  0  0  0  0  0  0
  149.4170  154.9030  132.5360 O   0  0  0  0  0  0  0  0  0  0  0  0
  145.6610  158.4780  133.3390 C   0  0  0  0  0  0  0  0  0  0  0  0
  144.4910  157.8110  133.7170 C   0  0  0  0  0  0  0  0  0  0  0  0
  139.2160  159.9961  132.6172 H   0  0  0  0  0  0  0  0  0  0  0  0
  140.2910  160.3751  131.2288 H   0  0  0  0  0  0  0  0  0  0  0  0
  139.3237  158.8614  131.2288 H   0  0  0  0  0  0  0  0  0  0  0  0
  141.8270  158.6080  131.9530 H   0  0  0  0  0  0  0  0  0  0  0  0
  142.0248  158.0273  135.6667 H   0  0  0  0  0  0  0  0  0  0  0  0
  142.1668  156.8429  134.3181 H   0  0  0  0  0  0  0  0  0  0  0  0
  142.6114  160.6028  134.4442 H   0  0  0  0  0  0  0  0  0  0  0  0
  144.7373  161.7393  133.7185 H   0  0  0  0  0  0  0  0  0  0  0  0
  147.3944  161.2138  132.7695 H   0  0  0  0  0  0  0  0  0  0  0  0
  149.0510  156.8330  131.5940 H   0  0  0  0  0  0  0  0  0  0  0  0
  148.2151  156.2745  134.4884 H   0  0  0  0  0  0  0  0  0  0  0  0
  146.6832  155.3271  134.4106 H   0  0  0  0  0  0  0  0  0  0  0  0
  148.6824  153.8679  134.1445 H   0  0  0  0  0  0  0  0  0  0  0  0
  147.6525  153.8748  132.6674 H   0  0  0  0  0  0  0  0  0  0  0  0
  149.0690  155.5720  131.8900 H   0  0  0  0  0  0  0  0  0  0  0  0
  144.4386  156.7123  133.7060 H   0  0  0  0  0  0  0  0  0  0  0  0
  1  2  1  0
  2  3  1  0
  3  4  2  0
  3  5  1  0
  5  6  1  0
  6  7  2  0
  7  8  1  0
  8  9  2  0
  9 10  1  0
 10 11  2  0
 11 12  1  0
 12 13  1  0
 12 14  2  0
 11 15  1  0
 15 16  1  0
 16 17  2  0
 16 18  1  0
 18 19  1  0
 19 20  1  0
 15 21  1  0
 21 22  2  0
 22  6  1  0
 21  9  1  0
  1 23  1  0
  1 24  1  0
  1 25  1  0
  2 26  1  0
  5 27  1  0
  5 28  1  0
  7 29  1  0
  8 30  1  0
 10 31  1  0
 13 32  1  0
 18 33  1  0
 18 34  1  0
 19 35  1  0
 19 36  1  0
 20 37  1  0
 22 38  1  0
M  CHG  1  13  -1
M  END
>  <UniqueID>  (80) 
80

>  <SMILES>  (80) 
CNC(=O)Cc1ccc2cc(C([NH-])=O)n(C(=O)CCO)c2c1

>  <Energy>  (80) 
69.26334631138431

>  <Genealogy>  (80) 
CNC(=O)Cc1ccc2cc(C([NH-])=O)n(C(=O)CCO)c2c1 (protonated)
CNC(=O)Cc1ccc2cc(C([NH-])=O)n(C(=O)CCO)c2c1 (3D coordinates assigned)
CNC(=O)Cc1ccc2cc(C([NH-])=O)n(C(=O)CCO)c2c1 (optimized conformer: 69.26334631138431 kcal/mol)

>  <smiles>  (80) 
CNC(=O)Cc1ccc2cc(C(N)=O)n(C(=O)CCO)c2c1

>  <score_type>  (80) 
oracle

>  <origin>  (80) 
adg

>  <m_score__min__energy>  (80) 
-6.4400000000000004

>  <m_primary>  (80) 
energy

$$$$
82:0
     RDKit          3D

 47 48  0  0  0  0  0  0  0  0999 V2000
  138.5850  158.2450  133.1300 C   0  0  0  0  0  0  0  0  0  0  0  0
  139.1190  159.4430  132.4610 N   0  0  0  0  0  0  0  0  0  0  0  0
  138.8670  159.3460  131.0110 C   0  0  0  0  0  0  0  0  0  0  0  0
  140.5650  159.5860  132.7400 C   0  0  0  0  0  0  0  0  0  0  0  0
  141.1100  158.3140  133.4090 C   0  0  0  0  0  0  0  0  0  0  0  0
  142.0400  158.6250  134.5920 C   0  0  0  0  0  0  0  0  0  0  0  0
  143.3830  159.1310  134.1320 C   0  0  0  0  0  0  0  0  0  0  0  0
  143.6520  160.5230  134.0990 C   0  0  0  0  0  0  0  0  0  0  0  0
  144.9130  160.9990  133.7040 C   0  0  0  0  0  0  0  0  0  0  0  0
  145.8880  160.0640  133.3700 C   0  0  0  0  0  0  0  0  0  0  0  0
  147.1890  160.2470  132.9610 C   0  0  0  0  0  0  0  0  0  0  0  0
  147.7070  158.9660  132.7870 C   0  0  0  0  0  0  0  0  0  0  0  0
  149.1180  158.7020  132.4280 C   0  0  0  0  0  0  0  0  0  0  0  0
  149.5980  157.3730  132.2440 N   0  0  0  0  0  0  0  0  0  0  0  0
  149.9220  159.6660  132.3180 O   0  0  0  0  0  0  0  0  0  0  0  0
  146.7600  158.0260  133.0700 N   0  0  0  0  0  0  0  0  0  0  0  0
  146.8950  156.5980  133.0120 C   0  0  0  0  0  0  0  0  0  0  0  0
  146.9320  156.0100  131.8990 O   0  0  0  0  0  0  0  0  0  0  0  0
  147.0240  155.6320  134.5180 S   0  0  0  0  0  0  0  0  0  0  0  0
  147.0350  154.0370  133.6390 C   0  0  0  0  0  0  0  0  0  0  0  0
  148.4690  153.6430  133.3010 C   0  0  0  0  0  0  0  0  0  0  0  0
  148.9800  154.4800  132.2210 N   0  0  0  0  0  0  0  0  0  0  0  0
  145.6520  158.7140  133.4220 C   0  0  0  0  0  0  0  0  0  0  0  0
  144.3960  158.2140  133.7740 C   0  0  0  0  0  0  0  0  0  0  0  0
  138.6439  158.3771  134.2205 H   0  0  0  0  0  0  0  0  0  0  0  0
  137.5358  158.0971  132.8347 H   0  0  0  0  0  0  0  0  0  0  0  0
  139.1764  157.3658  132.8347 H   0  0  0  0  0  0  0  0  0  0  0  0
  137.8529  158.9556  130.8404 H   0  0  0  0  0  0  0  0  0  0  0  0
  138.9575  160.3432  130.5556 H   0  0  0  0  0  0  0  0  0  0  0  0
  139.6028  158.6668  130.5556 H   0  0  0  0  0  0  0  0  0  0  0  0
  141.1013  159.7567  131.7949 H   0  0  0  0  0  0  0  0  0  0  0  0
  140.7148  160.4384  133.4189 H   0  0  0  0  0  0  0  0  0  0  0  0
  140.2619  157.7163  133.7744 H   0  0  0  0  0  0  0  0  0  0  0  0
  141.6966  157.7655  132.6573 H   0  0  0  0  0  0  0  0  0  0  0  0
  141.5680  159.3921  135.2235 H   0  0  0  0  0  0  0  0  0  0  0  0
  142.2006  157.6932  135.1540 H   0  0  0  0  0  0  0  0  0  0  0  0
  142.8656  161.2367  134.3855 H   0  0  0  0  0  0  0  0  0  0  0  0
  145.1234  162.0778  133.6600 H   0  0  0  0  0  0  0  0  0  0  0  0
  147.7099  161.2031  132.8045 H   0  0  0  0  0  0  0  0  0  0  0  0
  148.9820  156.6290  131.8450 H   0  0  0  0  0  0  0  0  0  0  0  0
  146.5853  153.2640  134.2795 H   0  0  0  0  0  0  0  0  0  0  0  0
  146.4554  154.1311  132.7088 H   0  0  0  0  0  0  0  0  0  0  0  0
  149.1012  153.7731  134.1917 H   0  0  0  0  0  0  0  0  0  0  0  0
  148.4859  152.5914  132.9789 H   0  0  0  0  0  0  0  0  0  0  0  0
  148.9510  155.4770  132.5370 H   0  0  0  0  0  0  0  0  0  0  0  0
  148.3130  154.4050  131.4190 H   0  0  0  0  0  0  0  0  0  0  0  0
  144.2004  157.1315  133.7724 H   0  0  0  0  0  0  0  0  0  0  0  0
  1  2  1  0
  2  3  1  0
  2  4  1  0
  4  5  1  0
  5  6  1  0
  6  7  1  0
  7  8  2  0
  8  9  1  0
  9 10  2  0
 10 11  1  0
 11 12  2  0
 12 13  1  0
 13 14  1  0
 13 15  2  0
 12 16  1  0
 16 17  1  0
 17 18  2  0
 17 19  1  0
 19 20  1  0
 20 21  1  0
 21 22  1  0
 16 23  1  0
 23 24  2  0
 24  7  1  0
 23 10  1  0
  1 25  1  0
  1 26  1  0
  1 27  1  0
  3 28  1  0
  3 29  1  0
  3 30  1  0
  4 31  1  0
  4 32  1  0
  5 33  1  0
  5 34  1  0
  6 35  1  0
  6 36  1  0
  8 37  1  0
  9 38  1  0
 11 39  1  0
 14 40  1  0
 20 41  1  0
 20 42  1  0
 21 43  1  0
 21 44  1  0
 22 45  1  0
 22 46  1  0
 24 47  1  0
M  CHG  1  14  -1
M  END
>  <UniqueID>  (81) 
81

>  <SMILES>  (81) 
CN(C)CCCc1ccc2cc(C([NH-])=O)n(C(=O)SCCN)c2c1

>  <Energy>  (81) 
74.29012233610432

>  <Genealogy>  (81) 
CN(C)CCCc1ccc2cc(C([NH-])=O)n(C(=O)SCCN)c2c1 (protonated)
CN(C)CCCc1ccc2cc(C([NH-])=O)n(C(=O)SCCN)c2c1 (3D coordinates assigned)
CN(C)CCCc1ccc2cc(C([NH-])=O)n(C(=O)SCCN)c2c1 (optimized conformer: 74.29012233610432 kcal/mol)

>  <smiles>  (81) 
CN(C)CCCc1ccc2cc(C(N)=O)n(C(=O)SCCN)c2c1

>  <score_type>  (81) 
oracle

>  <origin>  (81) 
adg

>  <m_score__min__energy>  (81) 
-6.9100000000000001

>  <m_primary>  (81) 
energy

$$$$
83:0
     RDKit          3D

 35 36  0  0  0  0  0  0  0  0999 V2000
  149.5920  160.7940  129.9410 C   0  0  0  0  0  0  0  0  0  0  0  0
  149.0660  160.8170  131.3740 C   0  0  0  0  0  0  0  0  0  0  0  0
  148.8760  159.4480  131.8830 N   0  0  0  0  0  0  0  0  0  0  0  0
  149.9970  158.5030  131.8520 C   0  0  0  0  0  0  0  0  0  0  0  0
  147.6060  159.0270  132.4380 C   0  0  0  0  0  0  0  0  0  0  0  0
  147.2860  157.6460  132.5510 C   0  0  0  0  0  0  0  0  0  0  0  0
  146.0510  157.2330  133.0790 C   0  0  0  0  0  0  0  0  0  0  0  0
  145.1560  158.2140  133.4900 C   0  0  0  0  0  0  0  0  0  0  0  0
  143.8910  158.0950  134.0210 C   0  0  0  0  0  0  0  0  0  0  0  0
  143.4600  159.4010  134.2440 C   0  0  0  0  0  0  0  0  0  0  0  0
  142.1760  159.7410  134.8920 C   0  0  0  0  0  0  0  0  0  0  0  0
  141.1860  160.4660  134.1660 N   0  0  0  0  0  0  0  0  0  0  0  0
  141.9320  159.3730  136.0700 O   0  0  0  0  0  0  0  0  0  0  0  0
  144.4170  160.2900  133.8560 N   0  0  0  0  0  0  0  0  0  0  0  0
  144.3520  161.7250  133.8630 C   0  0  0  0  0  0  0  0  0  0  0  0
  145.4430  162.5400  134.4810 C   0  0  0  0  0  0  0  0  0  0  0  0
  143.3360  162.3080  133.3990 O   0  0  0  0  0  0  0  0  0  0  0  0
  145.4500  159.5470  133.4050 C   0  0  0  0  0  0  0  0  0  0  0  0
  146.6650  159.9920  132.8750 C   0  0  0  0  0  0  0  0  0  0  0  0
  150.6909  160.7460  129.9545 H   0  0  0  0  0  0  0  0  0  0  0  0
  149.1928  159.9125  129.4180 H   0  0  0  0  0  0  0  0  0  0  0  0
  149.2713  161.7070  129.4180 H   0  0  0  0  0  0  0  0  0  0  0  0
  149.7886  161.3432  132.0151 H   0  0  0  0  0  0  0  0  0  0  0  0
  148.0959  161.3354  131.3854 H   0  0  0  0  0  0  0  0  0  0  0  0
  150.2940  158.2526  132.8811 H   0  0  0  0  0  0  0  0  0  0  0  0
  149.6900  157.5871  131.3258 H   0  0  0  0  0  0  0  0  0  0  0  0
  150.8478  158.9605  131.3258 H   0  0  0  0  0  0  0  0  0  0  0  0
  148.0148  156.8912  132.2207 H   0  0  0  0  0  0  0  0  0  0  0  0
  145.8000  156.1654  133.1645 H   0  0  0  0  0  0  0  0  0  0  0  0
  143.3383  157.1662  134.2256 H   0  0  0  0  0  0  0  0  0  0  0  0
  141.4280  161.3490  133.6640 H   0  0  0  0  0  0  0  0  0  0  0  0
  145.3671  162.4833  135.5769 H   0  0  0  0  0  0  0  0  0  0  0  0
  146.4197  162.1485  134.1603 H   0  0  0  0  0  0  0  0  0  0  0  0
  145.3447  163.5876  134.1603 H   0  0  0  0  0  0  0  0  0  0  0  0
  146.8853  161.0670  132.7990 H   0  0  0  0  0  0  0  0  0  0  0  0
  1  2  1  0
  2  3  1  0
  3  4  1  0
  3  5  1  0
  5  6  2  0
  6  7  1  0
  7  8  2  0
  8  9  1  0
  9 10  2  0
 10 11  1  0
 11 12  1  0
 11 13  2  0
 10 14  1  0
 14 15  1  0
 15 16  1  0
 15 17  2  0
 14 18  1  0
 18 19  2  0
 19  5  1  0
 18  8  1  0
  1 20  1  0
  1 21  1  0
  1 22  1  0
  2 23  1  0
  2 24  1  0
  4 25  1  0
  4 26  1  0
  4 27  1  0
  6 28  1  0
  7 29  1  0
  9 30  1  0
 12 31  1  0
 16 32  1  0
 16 33  1  0
 16 34  1  0
 19 35  1  0
M  CHG  1  12  -1
M  END
>  <UniqueID>  (82) 
82

>  <SMILES>  (82) 
CCN(C)c1ccc2cc(C([NH-])=O)n(C(C)=O)c2c1

>  <Energy>  (82) 
73.36083153648448

>  <Genealogy>  (82) 
CCN(C)c1ccc2cc(C([NH-])=O)n(C(C)=O)c2c1 (protonated)
CCN(C)c1ccc2cc(C([NH-])=O)n(C(C)=O)c2c1 (3D coordinates assigned)
CCN(C)c1ccc2cc(C([NH-])=O)n(C(C)=O)c2c1 (optimized conformer: 73.36083153648448 kcal/mol)

>  <smiles>  (82) 
CCN(C)c1ccc2cc(C(N)=O)n(C(C)=O)c2c1

>  <score_type>  (82) 
oracle

>  <origin>  (82) 
adg

>  <m_score__min__energy>  (82) 
-6.1399999999999997

>  <m_primary>  (82) 
energy

$$$$
84:0
     RDKit          3D

 28 29  0  0  0  0  0  0  0  0999 V2000
  145.9780  154.1160  136.3500 C   0  0  0  0  0  0  0  0  0  0  0  0
  145.5740  155.0070  135.2630 N   0  0  0  0  0  0  0  0  0  0  0  0
  143.8570  155.2600  135.0440 Cl  0  0  0  0  0  0  0  0  0  0  0  0
  146.5430  155.6600  134.4060 C   0  0  0  0  0  0  0  0  0  0  0  0
  147.6040  154.9170  133.8170 C   0  0  0  0  0  0  0  0  0  0  0  0
  148.5550  155.5380  132.9900 C   0  0  0  0  0  0  0  0  0  0  0  0
  148.4250  156.9010  132.7550 C   0  0  0  0  0  0  0  0  0  0  0  0
  149.2170  157.7540  132.0210 C   0  0  0  0  0  0  0  0  0  0  0  0
  148.6260  159.0100  132.1490 C   0  0  0  0  0  0  0  0  0  0  0  0
  149.1290  160.2290  131.4820 C   0  0  0  0  0  0  0  0  0  0  0  0
  148.2170  161.2530  131.0910 N   0  0  0  0  0  0  0  0  0  0  0  0
  150.3590  160.3840  131.2690 O   0  0  0  0  0  0  0  0  0  0  0  0
  147.5100  158.9310  132.9270 N   0  0  0  0  0  0  0  0  0  0  0  0
  146.6540  160.0090  133.3410 C   0  0  0  0  0  0  0  0  0  0  0  0
  147.1600  161.1080  133.6910 O   0  0  0  0  0  0  0  0  0  0  0  0
  145.1930  159.8490  133.3510 C   0  0  0  0  0  0  0  0  0  0  0  0
  144.4720  160.6180  134.0400 O   0  0  0  0  0  0  0  0  0  0  0  0
  144.6000  158.8330  132.6120 O   0  0  0  0  0  0  0  0  0  0  0  0
  147.4040  157.6360  133.2940 C   0  0  0  0  0  0  0  0  0  0  0  0
  146.4540  157.0510  134.1370 C   0  0  0  0  0  0  0  0  0  0  0  0
  145.7610  154.5947  137.3163 H   0  0  0  0  0  0  0  0  0  0  0  0
  145.4205  153.1707  136.2757 H   0  0  0  0  0  0  0  0  0  0  0  0
  147.0564  153.9125  136.2757 H   0  0  0  0  0  0  0  0  0  0  0  0
  147.6810  153.8373  134.0126 H   0  0  0  0  0  0  0  0  0  0  0  0
  149.3781  154.9620  132.5419 H   0  0  0  0  0  0  0  0  0  0  0  0
  150.1241  157.4988  131.4535 H   0  0  0  0  0  0  0  0  0  0  0  0
  147.8290  161.9210  131.7930 H   0  0  0  0  0  0  0  0  0  0  0  0
  145.6523  157.6576  134.5835 H   0  0  0  0  0  0  0  0  0  0  0  0
  1  2  1  0
  2  3  1  0
  2  4  1  0
  4  5  2  0
  5  6  1  0
  6  7  2  0
  7  8  1  0
  8  9  2  0
  9 10  1  0
 10 11  1  0
 10 12  2  0
  9 13  1  0
 13 14  1  0
 14 15  2  0
 14 16  1  0
 16 17  2  0
 16 18  1  0
 13 19  1  0
 19 20  2  0
 20  4  1  0
 19  7  1  0
  1 21  1  0
  1 22  1  0
  1 23  1  0
  5 24  1  0
  6 25  1  0
  8 26  1  0
 11 27  1  0
 20 28  1  0
M  CHG  2  11  -1  18  -1
M  END
>  <UniqueID>  (83) 
83

>  <SMILES>  (83) 
CN(Cl)c1ccc2cc(C([NH-])=O)n(C(=O)C(=O)[O-])c2c1

>  <Energy>  (83) 
68.80930398316384

>  <Genealogy>  (83) 
CN(Cl)c1ccc2cc(C([NH-])=O)n(C(=O)C(=O)[O-])c2c1 (protonated)
CN(Cl)c1ccc2cc(C([NH-])=O)n(C(=O)C(=O)[O-])c2c1 (3D coordinates assigned)
CN(Cl)c1ccc2cc(C([NH-])=O)n(C(=O)C(=O)[O-])c2c1 (optimized conformer: 68.80930398316384 kcal/mol)

>  <smiles>  (83) 
CN(Cl)c1ccc2cc(C(N)=O)n(C(=O)C(=O)O)c2c1

>  <score_type>  (83) 
oracle

>  <origin>  (83) 
adg

>  <m_score__min__energy>  (83) 
-6.0499999999999998

>  <m_primary>  (83) 
energy

$$$$
85:0
     RDKit          3D

 49 50  0  0  0  0  0  0  0  0999 V2000
  147.7210  154.7400  134.8840 C   0  0  0  0  0  0  0  0  0  0  0  0
  147.7210  154.0250  133.5090 C   0  0  0  0  0  0  0  0  0  0  0  0
  146.2590  153.6040  133.2150 C   0  0  0  0  0  0  0  0  0  0  0  0
  148.5940  152.7330  133.5920 C   0  0  0  0  0  0  0  0  0  0  0  0
  149.1970  152.3150  132.2780 C   0  0  0  0  0  0  0  0  0  0  0  0
  149.5550  153.1510  131.4620 O   0  0  0  0  0  0  0  0  0  0  0  0
  148.2320  154.9770  132.4760 N   0  0  0  0  0  0  0  0  0  0  0  0
  147.8350  156.3580  132.6720 C   0  0  0  0  0  0  0  0  0  0  0  0
  148.7900  157.4030  132.5370 C   0  0  0  0  0  0  0  0  0  0  0  0
  148.4250  158.7450  132.7300 C   0  0  0  0  0  0  0  0  0  0  0  0
  147.0970  159.0220  133.0380 C   0  0  0  0  0  0  0  0  0  0  0  0
  146.4810  160.2220  133.3110 C   0  0  0  0  0  0  0  0  0  0  0  0
  145.1500  159.9030  133.5780 C   0  0  0  0  0  0  0  0  0  0  0  0
  144.1100  160.9080  133.8810 C   0  0  0  0  0  0  0  0  0  0  0  0
  142.7740  160.4880  134.1510 N   0  0  0  0  0  0  0  0  0  0  0  0
  144.3940  162.1310  133.9290 O   0  0  0  0  0  0  0  0  0  0  0  0
  144.9510  158.5600  133.4660 N   0  0  0  0  0  0  0  0  0  0  0  0
  143.7410  157.8330  133.7250 C   0  0  0  0  0  0  0  0  0  0  0  0
  143.4200  157.5570  134.9130 O   0  0  0  0  0  0  0  0  0  0  0  0
  142.8570  157.3860  132.5960 C   0  0  0  0  0  0  0  0  0  0  0  0
  141.6180  158.0680  132.6350 O   0  0  0  0  0  0  0  0  0  0  0  0
  140.5600  157.1950  132.9970 C   0  0  0  0  0  0  0  0  0  0  0  0
  140.0760  157.4930  134.4150 C   0  0  0  0  0  0  0  0  0  0  0  0
  140.7960  158.5720  134.9460 O   0  0  0  0  0  0  0  0  0  0  0  0
  146.1510  158.0330  133.1390 C   0  0  0  0  0  0  0  0  0  0  0  0
  146.4890  156.6880  132.9620 C   0  0  0  0  0  0  0  0  0  0  0  0
  148.7581  154.9092  135.2093 H   0  0  0  0  0  0  0  0  0  0  0  0
  147.2024  155.7060  134.7949 H   0  0  0  0  0  0  0  0  0  0  0  0
  147.2024  154.1123  135.6237 H   0  0  0  0  0  0  0  0  0  0  0  0
  145.7240  153.4499  134.1637 H   0  0  0  0  0  0  0  0  0  0  0  0
  145.7591  154.3947  132.6363 H   0  0  0  0  0  0  0  0  0  0  0  0
  146.2561  152.6685  132.6363 H   0  0  0  0  0  0  0  0  0  0  0  0
  149.4114  152.9134  134.3057 H   0  0  0  0  0  0  0  0  0  0  0  0
  147.9264  151.9182  133.9088 H   0  0  0  0  0  0  0  0  0  0  0  0
  149.3167  151.2456  132.0498 H   0  0  0  0  0  0  0  0  0  0  0  0
  147.9260  154.6680  131.5240 H   0  0  0  0  0  0  0  0  0  0  0  0
  149.2780  154.9390  132.4590 H   0  0  0  0  0  0  0  0  0  0  0  0
  149.8301  157.1563  132.2775 H   0  0  0  0  0  0  0  0  0  0  0  0
  149.1665  159.5526  132.6404 H   0  0  0  0  0  0  0  0  0  0  0  0
  146.9411  161.2211  133.3173 H   0  0  0  0  0  0  0  0  0  0  0  0
  142.4970  159.4860  134.0660 H   0  0  0  0  0  0  0  0  0  0  0  0
  143.3568  157.5983  131.6394 H   0  0  0  0  0  0  0  0  0  0  0  0
  142.6714  156.3064  132.6963 H   0  0  0  0  0  0  0  0  0  0  0  0
  139.7244  157.3294  132.2944 H   0  0  0  0  0  0  0  0  0  0  0  0
  140.9274  156.1589  132.9589 H   0  0  0  0  0  0  0  0  0  0  0  0
  139.0056  157.7453  134.3900 H   0  0  0  0  0  0  0  0  0  0  0  0
  140.2333  156.6059  135.0461 H   0  0  0  0  0  0  0  0  0  0  0  0
  141.6160  158.6580  134.3870 H   0  0  0  0  0  0  0  0  0  0  0  0
  145.7244  155.9017  133.0464 H   0  0  0  0  0  0  0  0  0  0  0  0
  1  2  1  0
  2  3  1  0
  2  4  1  0
  4  5  1  0
  5  6  2  0
  2  7  1  0
  7  8  1  0
  8  9  2  0
  9 10  1  0
 10 11  2  0
 11 12  1  0
 12 13  2  0
 13 14  1  0
 14 15  1  0
 14 16  2  0
 13 17  1  0
 17 18  1  0
 18 19  2  0
 18 20  1  0
 20 21  1  0
 21 22  1  0
 22 23  1  0
 23 24  1  0
 17 25  1  0
 25 26  2  0
 26  8  1  0
 25 11  1  0
  1 27  1  0
  1 28  1  0
  1 29  1  0
  3 30  1  0
  3 31  1  0
  3 32  1  0
  4 33  1  0
  4 34  1  0
  5 35  1  0
  7 36  1  0
  7 37  1  0
  9 38  1  0
 10 39  1  0
 12 40  1  0
 15 41  1  0
 20 42  1  0
 20 43  1  0
 22 44  1  0
 22 45  1  0
 23 46  1  0
 23 47  1  0
 24 48  1  0
 26 49  1  0
M  CHG  2   7   1  15  -1
M  END
>  <UniqueID>  (84) 
84

>  <SMILES>  (84) 
CC(C)(CC=O)[NH2+]c1ccc2cc(C([NH-])=O)n(C(=O)COCCO)c2c1

>  <Energy>  (84) 
90.35083978121314

>  <Genealogy>  (84) 
CC(C)(CC=O)[NH2+]c1ccc2cc(C([NH-])=O)n(C(=O)COCCO)c2c1 (protonated)
CC(C)(CC=O)[NH2+]c1ccc2cc(C([NH-])=O)n(C(=O)COCCO)c2c1 (3D coordinates assigned)
CC(C)(CC=O)[NH2+]c1ccc2cc(C([NH-])=O)n(C(=O)COCCO)c2c1 (optimized conformer: 90.35083978121314 kcal/mol)

>  <smiles>  (84) 
CC(C)(CC=O)Nc1ccc2cc(C(N)=O)n(C(=O)COCCO)c2c1

>  <score_type>  (84) 
oracle

>  <origin>  (84) 
adg

>  <m_score__min__energy>  (84) 
-6.0499999999999998

>  <m_primary>  (84) 
energy

$$$$
86:0
     RDKit          3D

 43 46  0  0  0  0  0  0  0  0999 V2000
  149.5120  157.5340  132.2360 N   0  0  0  0  0  0  0  0  0  0  0  0
  148.9630  158.8480  132.2820 C   0  0  0  0  0  0  0  0  0  0  0  0
  149.6560  159.8190  131.8790 O   0  0  0  0  0  0  0  0  0  0  0  0
  147.6100  159.0610  132.8390 C   0  0  0  0  0  0  0  0  0  0  0  0
  147.0150  160.3160  132.9460 C   0  0  0  0  0  0  0  0  0  0  0  0
  145.7470  160.0790  133.4220 C   0  0  0  0  0  0  0  0  0  0  0  0
  144.7280  160.9720  133.7320 C   0  0  0  0  0  0  0  0  0  0  0  0
  143.5260  160.4520  134.2390 C   0  0  0  0  0  0  0  0  0  0  0  0
  143.3620  159.0530  134.4310 C   0  0  0  0  0  0  0  0  0  0  0  0
  142.1380  158.5150  134.9790 N   0  0  0  0  0  0  0  0  0  0  0  0
  141.8290  157.1230  135.1920 C   0  0  1  0  0  0  0  0  0  0  0  0
  141.2230  157.0540  136.6540 C   0  0  0  0  0  0  0  0  0  0  0  0
  141.2930  158.3120  137.3740 O   0  0  0  0  0  0  0  0  0  0  0  0
  140.7710  159.4660  136.6690 C   0  0  0  0  0  0  0  0  0  0  0  0
  140.9200  159.2870  135.1510 C   0  0  2  0  0  0  0  0  0  0  0  0
  140.2530  159.3570  133.7720 C   0  0  0  0  0  0  0  0  0  0  0  0
  140.3920  157.9270  133.0660 C   0  0  1  0  0  0  0  0  0  0  0  0
  141.3460  158.0200  131.9580 N   0  0  0  0  0  0  0  0  0  0  0  0
  140.8200  156.7260  134.0390 C   0  0  0  0  0  0  0  0  0  0  0  0
  144.4290  158.1820  134.1130 C   0  0  0  0  0  0  0  0  0  0  0  0
  145.6090  158.7270  133.5920 C   0  0  0  0  0  0  0  0  0  0  0  0
  146.7450  158.0850  133.2400 N   0  0  0  0  0  0  0  0  0  0  0  0
  146.9910  156.6730  133.3410 C   0  0  0  0  0  0  0  0  0  0  0  0
  147.1750  156.1370  134.4660 O   0  0  0  0  0  0  0  0  0  0  0  0
  147.0020  155.8790  132.2010 O   0  0  0  0  0  0  0  0  0  0  0  0
  148.9610  156.7340  131.8540 H   0  0  0  0  0  0  0  0  0  0  0  0
  147.4642  161.2899  132.7016 H   0  0  0  0  0  0  0  0  0  0  0  0
  144.8592  162.0542  133.5846 H   0  0  0  0  0  0  0  0  0  0  0  0
  142.7016  161.1354  134.4906 H   0  0  0  0  0  0  0  0  0  0  0  0
  142.6733  156.4197  135.1431 H   0  0  0  0  0  0  0  0  0  0  0  0
  141.7788  156.2956  137.2250 H   0  0  0  0  0  0  0  0  0  0  0  0
  140.1573  156.8024  136.5489 H   0  0  0  0  0  0  0  0  0  0  0  0
  141.3256  160.3625  136.9832 H   0  0  0  0  0  0  0  0  0  0  0  0
  139.7031  159.5745  136.9095 H   0  0  0  0  0  0  0  0  0  0  0  0
  140.2186  160.1317  135.2180 H   0  0  0  0  0  0  0  0  0  0  0  0
  140.7493  160.1233  133.1585 H   0  0  0  0  0  0  0  0  0  0  0  0
  139.1908  159.6215  133.8806 H   0  0  0  0  0  0  0  0  0  0  0  0
  139.3817  157.6743  132.7118 H   0  0  0  0  0  0  0  0  0  0  0  0
  141.8330  157.0990  131.8640 H   0  0  0  0  0  0  0  0  0  0  0  0
  142.0930  158.7050  132.2180 H   0  0  0  0  0  0  0  0  0  0  0  0
  141.2926  155.9436  133.4271 H   0  0  0  0  0  0  0  0  0  0  0  0
  139.8984  156.3939  134.5394 H   0  0  0  0  0  0  0  0  0  0  0  0
  144.3342  157.0976  134.2717 H   0  0  0  0  0  0  0  0  0  0  0  0
  1  2  1  0
  2  3  2  0
  2  4  1  0
  4  5  2  0
  5  6  1  0
  6  7  2  0
  7  8  1  0
  8  9  2  0
  9 10  1  0
 10 11  1  0
 11 12  1  0
 12 13  1  0
 13 14  1  0
 14 15  1  0
 15 16  1  0
 16 17  1  0
 17 18  1  0
 17 19  1  0
  9 20  1  0
 20 21  2  0
 21 22  1  0
 22 23  1  0
 23 24  2  0
 23 25  1  0
 22  4  1  0
 21  6  1  0
 15 10  1  0
 19 11  1  0
  1 26  1  0
  5 27  1  0
  7 28  1  0
  8 29  1  0
 11 30  1  1
 12 31  1  0
 12 32  1  0
 14 33  1  0
 14 34  1  0
 15 35  1  6
 16 36  1  0
 16 37  1  0
 17 38  1  6
 18 39  1  0
 18 40  1  0
 19 41  1  0
 19 42  1  0
 20 43  1  0
M  CHG  2   1  -1  25  -1
M  END
>  <UniqueID>  (85) 
85

>  <SMILES>  (85) 
[NH-]C(=O)c1cc2ccc(N3[C@H]4COC[C@H]3CC(N)C4)cc2n1C(=O)[O-]

>  <Energy>  (85) 
207.40255259281295

>  <Genealogy>  (85) 
[NH-]C(=O)c1cc2ccc(N3C4COCC3CC(N)C4)cc2n1C(=O)[O-] (protonated)
[NH-]C(=O)c1cc2ccc(N3[C@H]4COC[C@H]3CC(N)C4)cc2n1C(=O)[O-] (chirality)
[NH-]C(=O)c1cc2ccc(N3[C@H]4COC[C@H]3CC(N)C4)cc2n1C(=O)[O-] (3D coordinates assigned)
[NH-]C(=O)c1cc2ccc(N3[C@H]4COC[C@H]3CC(N)C4)cc2n1C(=O)[O-] (nonaromatic ring conformer: 207.40255259281295 kcal/mol)

>  <smiles>  (85) 
NC(=O)c1cc2ccc(N3C4COCC3CC(N)C4)cc2n1C(=O)O

>  <score_type>  (85) 
oracle

>  <origin>  (85) 
adg

>  <m_score__min__energy>  (85) 
-7.6699999999999999

>  <m_primary>  (85) 
energy

$$$$
87:0
     RDKit          3D

 38 40  0  0  0  0  0  0  0  0999 V2000
  143.1340  155.3620  134.6830 C   0  0  0  0  0  0  0  0  0  0  0  0
  142.9720  156.5170  135.4970 O   0  0  0  0  0  0  0  0  0  0  0  0
  142.8510  157.8030  134.9630 C   0  0  0  0  0  0  0  0  0  0  0  0
  142.2040  158.6940  135.5780 O   0  0  0  0  0  0  0  0  0  0  0  0
  143.4760  158.1110  133.6680 C   0  0  0  0  0  0  0  0  0  0  0  0
  142.8650  157.8300  132.6030 O   0  0  0  0  0  0  0  0  0  0  0  0
  144.7700  158.7310  133.6030 N   0  0  0  0  0  0  0  0  0  0  0  0
  145.0520  160.0640  133.5830 C   0  0  0  0  0  0  0  0  0  0  0  0
  144.0670  161.1570  133.7280 C   0  0  0  0  0  0  0  0  0  0  0  0
  142.6730  160.8590  133.7390 N   0  0  0  0  0  0  0  0  0  0  0  0
  144.4430  162.3550  133.8220 O   0  0  0  0  0  0  0  0  0  0  0  0
  146.4260  160.2680  133.4550 C   0  0  0  0  0  0  0  0  0  0  0  0
  146.9760  159.0090  133.3910 C   0  0  0  0  0  0  0  0  0  0  0  0
  148.3030  158.6170  133.2430 C   0  0  0  0  0  0  0  0  0  0  0  0
  148.5810  157.2420  133.1760 C   0  0  0  0  0  0  0  0  0  0  0  0
  147.5360  156.2810  133.2480 C   0  0  0  0  0  0  0  0  0  0  0  0
  147.8400  154.8300  133.1690 C   0  0  0  0  0  0  0  0  0  0  0  0
  147.0700  153.7760  133.6420 C   0  0  0  0  0  0  0  0  0  0  0  0
  147.6970  152.6210  133.3560 N   0  0  0  0  0  0  0  0  0  0  0  0
  148.8320  152.8960  132.7370 N   0  0  0  0  0  0  0  0  0  0  0  0
  149.7420  151.8910  132.1990 C   0  0  0  0  0  0  0  0  0  0  0  0
  148.9510  154.2290  132.5920 C   0  0  0  0  0  0  0  0  0  0  0  0
  146.2000  156.7250  133.3960 C   0  0  0  0  0  0  0  0  0  0  0  0
  145.9570  158.1000  133.4800 C   0  0  0  0  0  0  0  0  0  0  0  0
  143.2582  154.4764  135.3236 H   0  0  0  0  0  0  0  0  0  0  0  0
  142.2451  155.2334  134.0479 H   0  0  0  0  0  0  0  0  0  0  0  0
  144.0240  155.4829  134.0479 H   0  0  0  0  0  0  0  0  0  0  0  0
  142.3350  159.8720  133.7410 H   0  0  0  0  0  0  0  0  0  0  0  0
  146.9566  161.2307  133.4140 H   0  0  0  0  0  0  0  0  0  0  0  0
  149.1101  159.3618  133.1804 H   0  0  0  0  0  0  0  0  0  0  0  0
  149.6220  156.9039  133.0663 H   0  0  0  0  0  0  0  0  0  0  0  0
  146.1065  153.8700  134.1643 H   0  0  0  0  0  0  0  0  0  0  0  0
  147.3500  151.6600  133.5740 H   0  0  0  0  0  0  0  0  0  0  0  0
  150.2275  151.3548  133.0277 H   0  0  0  0  0  0  0  0  0  0  0  0
  149.1766  151.1773  131.5818 H   0  0  0  0  0  0  0  0  0  0  0  0
  150.5082  152.3830  131.5818 H   0  0  0  0  0  0  0  0  0  0  0  0
  149.7848  154.7522  132.1010 H   0  0  0  0  0  0  0  0  0  0  0  0
  145.3706  156.0041  133.4439 H   0  0  0  0  0  0  0  0  0  0  0  0
  1  2  1  0
  2  3  1  0
  3  4  2  0
  3  5  1  0
  5  6  2  0
  5  7  1  0
  7  8  1  0
  8  9  1  0
  9 10  1  0
  9 11  2  0
  8 12  2  0
 12 13  1  0
 13 14  2  0
 14 15  1  0
 15 16  2  0
 16 17  1  0
 17 18  1  0
 18 19  2  0
 19 20  1  0
 20 21  1  0
 20 22  1  0
 16 23  1  0
 23 24  2  0
 24  7  1  0
 24 13  1  0
 22 17  2  0
  1 25  1  0
  1 26  1  0
  1 27  1  0
 10 28  1  0
 12 29  1  0
 14 30  1  0
 15 31  1  0
 18 32  1  0
 19 33  1  0
 21 34  1  0
 21 35  1  0
 21 36  1  0
 22 37  1  0
 23 38  1  0
M  CHG  2  10  -1  19   1
M  END
>  <UniqueID>  (86) 
86

>  <SMILES>  (86) 
COC(=O)C(=O)n1c(C([NH-])=O)cc2ccc(-c3c[nH+]n(C)c3)cc21

>  <Energy>  (86) 
108.32217415194563

>  <Genealogy>  (86) 
COC(=O)C(=O)n1c(C([NH-])=O)cc2ccc(-c3c[nH+]n(C)c3)cc21 (protonated)
COC(=O)C(=O)n1c(C([NH-])=O)cc2ccc(-c3c[nH+]n(C)c3)cc21 (3D coordinates assigned)
COC(=O)C(=O)n1c(C([NH-])=O)cc2ccc(-c3c[nH+]n(C)c3)cc21 (optimized conformer: 108.32217415194563 kcal/mol)

>  <smiles>  (86) 
COC(=O)C(=O)n1c(C(N)=O)cc2ccc(-c3cnn(C)c3)cc21

>  <score_type>  (86) 
oracle

>  <origin>  (86) 
adg

>  <m_score__min__energy>  (86) 
-6.8099999999999996

>  <m_primary>  (86) 
energy

$$$$
88:0
     RDKit          3D

 42 44  0  0  0  0  0  0  0  0999 V2000
  149.2190  156.9290  132.6070 C   0  0  0  0  0  0  0  0  0  0  0  0
  148.1010  157.9160  132.7710 C   0  0  0  0  0  0  0  0  0  0  0  0
  148.3620  159.3040  132.6740 C   0  0  0  0  0  0  0  0  0  0  0  0
  147.3350  160.2390  132.8820 C   0  0  0  0  0  0  0  0  0  0  0  0
  146.0640  159.7570  133.1830 C   0  0  0  0  0  0  0  0  0  0  0  0
  144.9050  160.4410  133.4570 C   0  0  0  0  0  0  0  0  0  0  0  0
  143.9550  159.4610  133.7250 C   0  0  0  0  0  0  0  0  0  0  0  0
  142.5520  159.7720  134.0450 C   0  0  0  0  0  0  0  0  0  0  0  0
  141.5410  159.7180  133.0400 N   0  0  0  0  0  0  0  0  0  0  0  0
  142.2290  160.0150  135.2370 O   0  0  0  0  0  0  0  0  0  0  0  0
  144.4900  158.2130  133.5900 N   0  0  0  0  0  0  0  0  0  0  0  0
  143.7790  156.9580  133.6090 C   0  0  0  0  0  0  0  0  0  0  0  0
  144.3440  155.9210  134.0440 O   0  0  0  0  0  0  0  0  0  0  0  0
  142.3710  156.8500  133.0890 C   0  0  0  0  0  0  0  0  0  0  0  0
  141.4820  156.2180  134.0970 N   0  0  0  0  0  0  0  0  0  0  0  0
  141.6260  154.7520  134.0610 C   0  0  0  0  0  0  0  0  0  0  0  0
  140.6110  154.2060  133.0600 C   0  0  0  0  0  0  0  0  0  0  0  0
  139.6120  155.3320  132.8390 C   0  0  0  0  0  0  0  0  0  0  0  0
  140.0410  156.4110  133.8320 C   0  0  2  0  0  0  0  0  0  0  0  0
  139.6480  157.8140  133.4360 C   0  0  0  0  0  0  0  0  0  0  0  0
  139.1460  158.6130  134.2720 O   0  0  0  0  0  0  0  0  0  0  0  0
  139.8170  158.2230  132.1200 O   0  0  0  0  0  0  0  0  0  0  0  0
  145.7910  158.4150  133.2730 C   0  0  0  0  0  0  0  0  0  0  0  0
  146.8040  157.4640  133.0960 C   0  0  0  0  0  0  0  0  0  0  0  0
  149.5772  156.6128  133.5978 H   0  0  0  0  0  0  0  0  0  0  0  0
  148.8553  156.0520  132.0515 H   0  0  0  0  0  0  0  0  0  0  0  0
  150.0441  157.3986  132.0515 H   0  0  0  0  0  0  0  0  0  0  0  0
  149.3772  159.6529  132.4338 H   0  0  0  0  0  0  0  0  0  0  0  0
  147.5289  161.3193  132.8093 H   0  0  0  0  0  0  0  0  0  0  0  0
  144.7591  161.5313  133.4632 H   0  0  0  0  0  0  0  0  0  0  0  0
  140.5570  159.9830  133.2690 H   0  0  0  0  0  0  0  0  0  0  0  0
  141.7460  159.3170  132.0980 H   0  0  0  0  0  0  0  0  0  0  0  0
  141.9942  157.8571  132.8572 H   0  0  0  0  0  0  0  0  0  0  0  0
  142.3771  156.2249  132.1839 H   0  0  0  0  0  0  0  0  0  0  0  0
  142.6448  154.4841  133.7443 H   0  0  0  0  0  0  0  0  0  0  0  0
  141.4485  154.3246  135.0589 H   0  0  0  0  0  0  0  0  0  0  0  0
  141.1074  153.9414  132.1147 H   0  0  0  0  0  0  0  0  0  0  0  0
  140.1218  153.2934  133.4314 H   0  0  0  0  0  0  0  0  0  0  0  0
  139.6684  155.7070  131.8064 H   0  0  0  0  0  0  0  0  0  0  0  0
  138.5714  155.0089  132.9901 H   0  0  0  0  0  0  0  0  0  0  0  0
  139.4838  156.2923  134.7730 H   0  0  0  0  0  0  0  0  0  0  0  0
  146.5937  156.3901  133.2077 H   0  0  0  0  0  0  0  0  0  0  0  0
  1  2  1  0
  2  3  2  0
  3  4  1  0
  4  5  2  0
  5  6  1  0
  6  7  2  0
  7  8  1  0
  8  9  1  0
  8 10  2  0
  7 11  1  0
 11 12  1  0
 12 13  2  0
 12 14  1  0
 14 15  1  0
 15 16  1  0
 16 17  1  0
 17 18  1  0
 18 19  1  0
 19 20  1  0
 20 21  2  0
 20 22  1  0
 11 23  1  0
 23 24  2  0
 24  2  1  0
 23  5  1  0
 19 15  1  0
  1 25  1  0
  1 26  1  0
  1 27  1  0
  3 28  1  0
  4 29  1  0
  6 30  1  0
  9 31  1  0
  9 32  1  0
 14 33  1  0
 14 34  1  0
 16 35  1  0
 16 36  1  0
 17 37  1  0
 17 38  1  0
 18 39  1  0
 18 40  1  0
 19 41  1  1
 24 42  1  0
M  CHG  1  22  -1
M  END
>  <UniqueID>  (87) 
87

>  <SMILES>  (87) 
Cc1ccc2cc(C(N)=O)n(C(=O)CN3CCC[C@@H]3C(=O)[O-])c2c1

>  <Energy>  (87) 
93.8769695846579

>  <Genealogy>  (87) 
Cc1ccc2cc(C(N)=O)n(C(=O)CN3CCCC3C(=O)[O-])c2c1 (protonated)
Cc1ccc2cc(C(N)=O)n(C(=O)CN3CCC[C@@H]3C(=O)[O-])c2c1 (chirality)
Cc1ccc2cc(C(N)=O)n(C(=O)CN3CCC[C@@H]3C(=O)[O-])c2c1 (3D coordinates assigned)
Cc1ccc2cc(C(N)=O)n(C(=O)CN3CCC[C@@H]3C(=O)[O-])c2c1 (nonaromatic ring conformer: 93.8769695846579 kcal/mol)

>  <smiles>  (87) 
Cc1ccc2cc(C(N)=O)n(C(=O)CN3CCCC3C(=O)O)c2c1

>  <score_type>  (87) 
oracle

>  <origin>  (87) 
adg

>  <m_score__min__energy>  (87) 
-7.1799999999999997

>  <m_primary>  (87) 
energy

$$$$
89:0
     RDKit          3D

 51 54  0  0  0  0  0  0  0  0999 V2000
  138.3610  159.8600  130.5390 C   0  0  0  0  0  0  0  0  0  0  0  0
  139.0300  159.4640  131.8210 C   0  0  0  0  0  0  0  0  0  0  0  0
  139.9870  160.1090  132.2210 O   0  0  0  0  0  0  0  0  0  0  0  0
  138.5200  158.3030  132.6350 C   0  0  0  0  0  0  0  0  0  0  0  0
  139.6520  157.3590  133.0700 C   0  0  2  0  0  0  0  0  0  0  0  0
  139.2220  155.8890  132.9820 C   0  0  0  0  0  0  0  0  0  0  0  0
  140.0110  157.6760  134.4160 O   0  0  0  0  0  0  0  0  0  0  0  0
  141.1060  158.4800  134.7590 C   0  0  0  0  0  0  0  0  0  0  0  0
  140.9570  159.4610  135.5370 O   0  0  0  0  0  0  0  0  0  0  0  0
  142.4100  158.1610  134.2480 N   0  0  0  0  0  0  0  0  0  0  0  0
  143.3870  159.0290  133.8590 C   0  0  0  0  0  0  0  0  0  0  0  0
  143.3620  160.4960  134.0310 C   0  0  0  0  0  0  0  0  0  0  0  0
  142.1750  161.2250  133.7270 N   0  0  0  0  0  0  0  0  0  0  0  0
  144.3890  161.1190  134.4070 O   0  0  0  0  0  0  0  0  0  0  0  0
  144.4770  158.3360  133.3380 C   0  0  0  0  0  0  0  0  0  0  0  0
  144.1380  157.0050  133.4240 C   0  0  0  0  0  0  0  0  0  0  0  0
  144.8500  155.8740  133.0380 C   0  0  0  0  0  0  0  0  0  0  0  0
  144.2430  154.6200  133.2170 C   0  0  0  0  0  0  0  0  0  0  0  0
  142.9400  154.5160  133.7700 C   0  0  0  0  0  0  0  0  0  0  0  0
  142.2820  153.1660  133.9510 C   0  0  2  0  0  0  0  0  0  0  0  0
  141.9170  152.6120  135.3270 C   0  0  0  0  0  0  0  0  0  0  0  0
  141.3450  151.3630  134.9580 O   0  0  0  0  0  0  0  0  0  0  0  0
  141.4920  151.4570  133.5540 C   0  0  2  0  0  0  0  0  0  0  0  0
  140.9850  150.2740  132.7400 C   0  0  0  0  0  0  0  0  0  0  0  0
  142.9260  151.9250  133.3580 C   0  0  0  0  0  0  0  0  0  0  0  0
  140.9880  152.8520  133.2190 C   0  0  0  0  0  0  0  0  0  0  0  0
  142.2510  155.6910  134.1500 C   0  0  0  0  0  0  0  0  0  0  0  0
  142.8870  156.9250  133.9760 C   0  0  0  0  0  0  0  0  0  0  0  0
  137.4343  160.4085  130.7632 H   0  0  0  0  0  0  0  0  0  0  0  0
  139.0364  160.5039  129.9566 H   0  0  0  0  0  0  0  0  0  0  0  0
  138.1214  158.9581  129.9566 H   0  0  0  0  0  0  0  0  0  0  0  0
  138.0187  158.6928  133.5332 H   0  0  0  0  0  0  0  0  0  0  0  0
  137.8237  157.7289  132.0061 H   0  0  0  0  0  0  0  0  0  0  0  0
  140.5101  157.4958  132.3956 H   0  0  0  0  0  0  0  0  0  0  0  0
  139.1025  155.4806  133.9963 H   0  0  0  0  0  0  0  0  0  0  0  0
  138.2656  155.8184  132.4433 H   0  0  0  0  0  0  0  0  0  0  0  0
  139.9896  155.3141  132.4433 H   0  0  0  0  0  0  0  0  0  0  0  0
  141.2330  160.7940  133.8540 H   0  0  0  0  0  0  0  0  0  0  0  0
  145.4106  158.7621  132.9419 H   0  0  0  0  0  0  0  0  0  0  0  0
  145.8579  155.9591  132.6057 H   0  0  0  0  0  0  0  0  0  0  0  0
  144.7839  153.7077  132.9251 H   0  0  0  0  0  0  0  0  0  0  0  0
  142.8062  152.4803  135.9611 H   0  0  0  0  0  0  0  0  0  0  0  0
  141.2582  153.2605  135.9231 H   0  0  0  0  0  0  0  0  0  0  0  0
  140.6446  149.4797  133.4205 H   0  0  0  0  0  0  0  0  0  0  0  0
  140.1466  150.5977  132.1058 H   0  0  0  0  0  0  0  0  0  0  0  0
  141.7976  149.8901  132.1058 H   0  0  0  0  0  0  0  0  0  0  0  0
  143.6932  151.4288  133.9705 H   0  0  0  0  0  0  0  0  0  0  0  0
  143.5063  151.8744  132.4249 H   0  0  0  0  0  0  0  0  0  0  0  0
  140.9495  153.1179  132.1523 H   0  0  0  0  0  0  0  0  0  0  0  0
  139.9926  153.2586  133.4511 H   0  0  0  0  0  0  0  0  0  0  0  0
  141.2371  155.6360  134.5731 H   0  0  0  0  0  0  0  0  0  0  0  0
  1  2  1  0
  2  3  2  0
  2  4  1  0
  4  5  1  0
  5  6  1  0
  5  7  1  0
  7  8  1  0
  8  9  2  0
  8 10  1  0
 10 11  1  0
 11 12  1  0
 12 13  1  0
 12 14  2  0
 11 15  2  0
 15 16  1  0
 16 17  2  0
 17 18  1  0
 18 19  2  0
 20 19  1  1
 20 21  1  0
 21 22  1  0
 22 23  1  0
 23 24  1  6
 23 25  1  0
 23 26  1  0
 19 27  1  0
 27 28  2  0
 28 10  1  0
 28 16  1  0
 25 20  1  0
 26 20  1  0
  1 29  1  0
  1 30  1  0
  1 31  1  0
  4 32  1  0
  4 33  1  0
  5 34  1  6
  6 35  1  0
  6 36  1  0
  6 37  1  0
 13 38  1  0
 15 39  1  0
 17 40  1  0
 18 41  1  0
 21 42  1  0
 21 43  1  0
 24 44  1  0
 24 45  1  0
 24 46  1  0
 25 47  1  0
 25 48  1  0
 26 49  1  0
 26 50  1  0
 27 51  1  0
M  CHG  1  13  -1
M  END
>  <UniqueID>  (88) 
88

>  <SMILES>  (88) 
CC(=O)C[C@H](C)OC(=O)n1c(C([NH-])=O)cc2ccc(C34COC(C)(C3)C4)cc21

>  <Energy>  (88) 
210.72301617778515

>  <Genealogy>  (88) 
CC(=O)CC(C)OC(=O)n1c(C([NH-])=O)cc2ccc(C34COC(C)(C3)C4)cc21 (protonated)
CC(=O)C[C@H](C)OC(=O)n1c(C([NH-])=O)cc2ccc(C34COC(C)(C3)C4)cc21 (chirality)
CC(=O)C[C@H](C)OC(=O)n1c(C([NH-])=O)cc2ccc(C34COC(C)(C3)C4)cc21 (3D coordinates assigned)
CC(=O)C[C@H](C)OC(=O)n1c(C([NH-])=O)cc2ccc(C34COC(C)(C3)C4)cc21 (nonaromatic ring conformer: 210.72301617778515 kcal/mol)

>  <smiles>  (88) 
CC(=O)CC(C)OC(=O)n1c(C(N)=O)cc2ccc(C34COC(C)(C3)C4)cc21

>  <score_type>  (88) 
oracle

>  <origin>  (88) 
adg

>  <m_score__min__energy>  (88) 
-8.8300000000000001

>  <m_primary>  (88) 
energy

$$$$
90:0
     RDKit          3D

 39 40  0  0  0  0  0  0  0  0999 V2000
  148.4810  160.6530  130.8540 C   0  0  0  0  0  0  0  0  0  0  0  0
  148.0230  159.9020  131.9560 O   0  0  0  0  0  0  0  0  0  0  0  0
  149.1060  159.1950  132.5240 C   0  0  0  0  0  0  0  0  0  0  0  0
  148.9290  157.7050  132.2470 C   0  0  0  0  0  0  0  0  0  0  0  0
  147.8300  157.1370  133.0930 C   0  0  0  0  0  0  0  0  0  0  0  0
  148.0700  156.1410  133.8290 O   0  0  0  0  0  0  0  0  0  0  0  0
  146.5300  157.7480  133.0860 N   0  0  0  0  0  0  0  0  0  0  0  0
  145.4270  157.3020  133.8900 C   0  0  0  0  0  0  0  0  0  0  0  0
  145.5890  156.4050  134.7610 O   0  0  0  0  0  0  0  0  0  0  0  0
  144.1270  157.8880  133.7110 N   0  0  0  0  0  0  0  0  0  0  0  0
  143.8040  159.2120  133.7270 C   0  0  0  0  0  0  0  0  0  0  0  0
  144.7730  160.3280  133.8140 C   0  0  0  0  0  0  0  0  0  0  0  0
  145.8070  160.4790  132.8390 N   0  0  0  0  0  0  0  0  0  0  0  0
  144.7060  161.1490  134.7660 O   0  0  0  0  0  0  0  0  0  0  0  0
  142.4270  159.3770  133.5730 C   0  0  0  0  0  0  0  0  0  0  0  0
  141.9160  158.1040  133.4660 C   0  0  0  0  0  0  0  0  0  0  0  0
  140.6000  157.6770  133.3240 C   0  0  0  0  0  0  0  0  0  0  0  0
  140.3570  156.2940  133.2800 C   0  0  0  0  0  0  0  0  0  0  0  0
  141.4270  155.3650  133.3670 C   0  0  0  0  0  0  0  0  0  0  0  0
  141.1490  153.8840  133.3810 C   0  0  0  0  0  0  0  0  0  0  0  0
  141.3600  153.3940  134.6560 F   0  0  0  0  0  0  0  0  0  0  0  0
  139.8400  153.6280  133.0110 F   0  0  0  0  0  0  0  0  0  0  0  0
  141.9850  153.2220  132.5000 F   0  0  0  0  0  0  0  0  0  0  0  0
  142.7470  155.8400  133.5350 C   0  0  0  0  0  0  0  0  0  0  0  0
  142.9620  157.2230  133.5540 C   0  0  0  0  0  0  0  0  0  0  0  0
  149.0221  161.5403  131.2144 H   0  0  0  0  0  0  0  0  0  0  0  0
  149.1559  160.0347  130.2439 H   0  0  0  0  0  0  0  0  0  0  0  0
  147.6223  160.9699  130.2439 H   0  0  0  0  0  0  0  0  0  0  0  0
  150.0486  159.5435  132.0768 H   0  0  0  0  0  0  0  0  0  0  0  0
  149.1342  159.3696  133.6097 H   0  0  0  0  0  0  0  0  0  0  0  0
  148.6784  157.5621  131.1855 H   0  0  0  0  0  0  0  0  0  0  0  0
  149.8677  157.1856  132.4902 H   0  0  0  0  0  0  0  0  0  0  0  0
  146.3810  158.5770  132.4680 H   0  0  0  0  0  0  0  0  0  0  0  0
  145.8600  159.8600  132.0000 H   0  0  0  0  0  0  0  0  0  0  0  0
  146.5030  161.2510  132.9310 H   0  0  0  0  0  0  0  0  0  0  0  0
  141.8684  160.3241  133.5434 H   0  0  0  0  0  0  0  0  0  0  0  0
  139.7746  158.4001  133.2485 H   0  0  0  0  0  0  0  0  0  0  0  0
  139.3253  155.9265  133.1769 H   0  0  0  0  0  0  0  0  0  0  0  0
  143.5868  155.1387  133.6483 H   0  0  0  0  0  0  0  0  0  0  0  0
  1  2  1  0
  2  3  1  0
  3  4  1  0
  4  5  1  0
  5  6  2  0
  5  7  1  0
  7  8  1  0
  8  9  2  0
  8 10  1  0
 10 11  1  0
 11 12  1  0
 12 13  1  0
 12 14  2  0
 11 15  2  0
 15 16  1  0
 16 17  2  0
 17 18  1  0
 18 19  2  0
 19 20  1  0
 20 21  1  0
 20 22  1  0
 20 23  1  0
 19 24  1  0
 24 25  2  0
 25 10  1  0
 25 16  1  0
  1 26  1  0
  1 27  1  0
  1 28  1  0
  3 29  1  0
  3 30  1  0
  4 31  1  0
  4 32  1  0
  7 33  1  0
 13 34  1  0
 13 35  1  0
 15 36  1  0
 17 37  1  0
 18 38  1  0
 24 39  1  0
M  END
>  <UniqueID>  (89) 
89

>  <SMILES>  (89) 
COCCC(=O)NC(=O)n1c(C(N)=O)cc2ccc(C(F)(F)F)cc21

>  <Energy>  (89) 
75.37378589006342

>  <Genealogy>  (89) 
COCCC(=O)NC(=O)n1c(C(N)=O)cc2ccc(C(F)(F)F)cc21 (3D coordinates assigned)
COCCC(=O)NC(=O)n1c(C(N)=O)cc2ccc(C(F)(F)F)cc21 (optimized conformer: 75.37378589006342 kcal/mol)

>  <smiles>  (89) 
COCCC(=O)NC(=O)n1c(C(N)=O)cc2ccc(C(F)(F)F)cc21

>  <score_type>  (89) 
oracle

>  <origin>  (89) 
adg

>  <m_score__min__energy>  (89) 
-6.3200000000000003

>  <m_primary>  (89) 
energy

$$$$
91:0
     RDKit          3D

 29 30  0  0  0  0  0  0  0  0999 V2000
  149.2110  160.0570  131.3400 C   0  0  0  0  0  0  0  0  0  0  0  0
  149.0810  158.9570  132.0780 C   0  0  0  0  0  0  0  0  0  0  0  0
  148.3480  158.9410  133.3580 C   0  0  0  0  0  0  0  0  0  0  0  0
  148.9440  159.2080  134.4370 O   0  0  0  0  0  0  0  0  0  0  0  0
  146.9520  158.6020  133.3850 N   0  0  0  0  0  0  0  0  0  0  0  0
  146.4030  157.3570  133.3110 C   0  0  0  0  0  0  0  0  0  0  0  0
  147.1540  156.1050  133.0600 C   0  0  0  0  0  0  0  0  0  0  0  0
  146.9620  155.3630  131.8540 N   0  0  0  0  0  0  0  0  0  0  0  0
  147.9890  155.6890  133.9060 O   0  0  0  0  0  0  0  0  0  0  0  0
  145.0150  157.4300  133.4310 C   0  0  0  0  0  0  0  0  0  0  0  0
  144.7330  158.7680  133.5920 C   0  0  0  0  0  0  0  0  0  0  0  0
  143.5100  159.4100  133.7670 C   0  0  0  0  0  0  0  0  0  0  0  0
  143.5180  160.8050  133.9370 C   0  0  0  0  0  0  0  0  0  0  0  0
  144.7390  161.5240  133.9480 C   0  0  0  0  0  0  0  0  0  0  0  0
  144.7310  163.0150  134.1070 C   0  0  0  0  0  0  0  0  0  0  0  0
  145.4060  163.3590  135.2640 F   0  0  0  0  0  0  0  0  0  0  0  0
  145.9580  160.8400  133.7520 C   0  0  0  0  0  0  0  0  0  0  0  0
  145.9190  159.4540  133.5640 C   0  0  0  0  0  0  0  0  0  0  0  0
  149.7671  160.0205  130.3916 H   0  0  0  0  0  0  0  0  0  0  0  0
  148.7624  161.0026  131.6785 H   0  0  0  0  0  0  0  0  0  0  0  0
  149.5382  158.0230  131.7193 H   0  0  0  0  0  0  0  0  0  0  0  0
  146.2350  155.6340  131.1570 H   0  0  0  0  0  0  0  0  0  0  0  0
  147.5260  154.5020  131.6740 H   0  0  0  0  0  0  0  0  0  0  0  0
  144.2983  156.5960  133.4030 H   0  0  0  0  0  0  0  0  0  0  0  0
  142.5673  158.8432  133.7720 H   0  0  0  0  0  0  0  0  0  0  0  0
  142.5673  161.3439  134.0627 H   0  0  0  0  0  0  0  0  0  0  0  0
  145.2270  163.4787  133.2415 H   0  0  0  0  0  0  0  0  0  0  0  0
  143.6922  163.3715  134.1688 H   0  0  0  0  0  0  0  0  0  0  0  0
  146.9147  161.3829  133.7472 H   0  0  0  0  0  0  0  0  0  0  0  0
  1  2  2  0
  2  3  1  0
  3  4  2  0
  3  5  1  0
  5  6  1  0
  6  7  1  0
  7  8  1  0
  7  9  2  0
  6 10  2  0
 10 11  1  0
 11 12  2  0
 12 13  1  0
 13 14  2  0
 14 15  1  0
 15 16  1  0
 14 17  1  0
 17 18  2  0
 18  5  1  0
 18 11  1  0
  1 19  1  0
  1 20  1  0
  2 21  1  0
  8 22  1  0
  8 23  1  0
 10 24  1  0
 12 25  1  0
 13 26  1  0
 15 27  1  0
 15 28  1  0
 17 29  1  0
M  END
>  <UniqueID>  (90) 
90

>  <SMILES>  (90) 
C=CC(=O)n1c(C(N)=O)cc2ccc(CF)cc21

>  <Energy>  (90) 
66.55634926685286

>  <Genealogy>  (90) 
C=CC(=O)n1c(C(N)=O)cc2ccc(CF)cc21 (3D coordinates assigned)
C=CC(=O)n1c(C(N)=O)cc2ccc(CF)cc21 (optimized conformer: 66.55634926685286 kcal/mol)

>  <smiles>  (90) 
C=CC(=O)n1c(C(N)=O)cc2ccc(CF)cc21

>  <score_type>  (90) 
oracle

>  <origin>  (90) 
adg

>  <m_score__min__energy>  (90) 
-6.6299999999999999

>  <m_primary>  (90) 
energy

$$$$
92:0
     RDKit          3D

 43 44  0  0  0  0  0  0  0  0999 V2000
  140.5250  155.8050  133.5890 C   0  0  0  0  0  0  0  0  0  0  0  0
  140.7950  157.1460  134.1190 N   0  0  0  0  0  0  0  0  0  0  0  0
  141.8780  157.3520  135.0990 C   0  0  0  0  0  0  0  0  0  0  0  0
  143.2430  156.9100  134.5570 C   0  0  0  0  0  0  0  0  0  0  0  0
  143.6710  157.7070  133.3550 C   0  0  0  0  0  0  0  0  0  0  0  0
  142.9410  157.7070  132.3260 O   0  0  0  0  0  0  0  0  0  0  0  0
  144.9070  158.4430  133.3560 N   0  0  0  0  0  0  0  0  0  0  0  0
  145.0910  159.7890  133.4940 C   0  0  0  0  0  0  0  0  0  0  0  0
  144.0370  160.8180  133.6410 C   0  0  0  0  0  0  0  0  0  0  0  0
  142.6700  160.5270  133.3770 N   0  0  0  0  0  0  0  0  0  0  0  0
  144.3510  161.9800  134.0100 O   0  0  0  0  0  0  0  0  0  0  0  0
  146.4510  160.0960  133.4960 C   0  0  0  0  0  0  0  0  0  0  0  0
  147.1000  158.8960  133.3290 C   0  0  0  0  0  0  0  0  0  0  0  0
  148.4610  158.6230  133.2140 C   0  0  0  0  0  0  0  0  0  0  0  0
  148.8490  157.2920  132.9900 C   0  0  0  0  0  0  0  0  0  0  0  0
  147.8770  156.2670  132.8690 C   0  0  0  0  0  0  0  0  0  0  0  0
  148.3110  154.8550  132.5960 C   0  0  0  0  0  0  0  0  0  0  0  0
  148.1000  154.0770  133.7190 F   0  0  0  0  0  0  0  0  0  0  0  0
  149.6550  154.8370  132.2750 F   0  0  0  0  0  0  0  0  0  0  0  0
  146.5040  156.5850  132.9790 C   0  0  0  0  0  0  0  0  0  0  0  0
  146.1470  157.9140  133.2380 C   0  0  0  0  0  0  0  0  0  0  0  0
  139.8840  158.2160  133.7950 C   0  0  0  0  0  0  0  0  0  0  0  0
  138.7300  158.2410  134.3050 O   0  0  0  0  0  0  0  0  0  0  0  0
  140.2850  159.2340  132.9230 O   0  0  0  0  0  0  0  0  0  0  0  0
  140.0340  159.1920  131.5220 C   0  0  0  0  0  0  0  0  0  0  0  0
  138.6460  159.6750  131.2580 C   0  0  0  0  0  0  0  0  0  0  0  0
  137.6580  159.0100  131.6650 O   0  0  0  0  0  0  0  0  0  0  0  0
  138.4410  160.8720  130.5830 O   0  0  0  0  0  0  0  0  0  0  0  0
  140.3836  155.1025  134.4236 H   0  0  0  0  0  0  0  0  0  0  0  0
  139.6140  155.8308  132.9730 H   0  0  0  0  0  0  0  0  0  0  0  0
  141.3750  155.4762  132.9730 H   0  0  0  0  0  0  0  0  0  0  0  0
  141.9272  158.4212  135.3528 H   0  0  0  0  0  0  0  0  0  0  0  0
  141.6524  156.7397  135.9846 H   0  0  0  0  0  0  0  0  0  0  0  0
  143.9950  157.0360  135.3499 H   0  0  0  0  0  0  0  0  0  0  0  0
  143.1548  155.8584  134.2467 H   0  0  0  0  0  0  0  0  0  0  0  0
  142.3990  159.7920  132.6900 H   0  0  0  0  0  0  0  0  0  0  0  0
  146.9086  161.0900  133.6078 H   0  0  0  0  0  0  0  0  0  0  0  0
  149.2090  159.4253  133.2961 H   0  0  0  0  0  0  0  0  0  0  0  0
  149.9171  157.0424  132.9077 H   0  0  0  0  0  0  0  0  0  0  0  0
  147.7254  154.4534  131.7559 H   0  0  0  0  0  0  0  0  0  0  0  0
  145.7347  155.8073  132.8639 H   0  0  0  0  0  0  0  0  0  0  0  0
  140.7543  159.8386  130.9995 H   0  0  0  0  0  0  0  0  0  0  0  0
  140.1420  158.1597  131.1576 H   0  0  0  0  0  0  0  0  0  0  0  0
  1  2  1  0
  2  3  1  0
  3  4  1  0
  4  5  1  0
  5  6  2  0
  5  7  1  0
  7  8  1  0
  8  9  1  0
  9 10  1  0
  9 11  2  0
  8 12  2  0
 12 13  1  0
 13 14  2  0
 14 15  1  0
 15 16  2  0
 16 17  1  0
 17 18  1  0
 17 19  1  0
 16 20  1  0
 20 21  2  0
  2 22  1  0
 22 23  2  0
 22 24  1  0
 24 25  1  0
 25 26  1  0
 26 27  2  0
 26 28  1  0
 21  7  1  0
 21 13  1  0
  1 29  1  0
  1 30  1  0
  1 31  1  0
  3 32  1  0
  3 33  1  0
  4 34  1  0
  4 35  1  0
 10 36  1  0
 12 37  1  0
 14 38  1  0
 15 39  1  0
 17 40  1  0
 20 41  1  0
 25 42  1  0
 25 43  1  0
M  CHG  2  10  -1  28  -1
M  END
>  <UniqueID>  (91) 
91

>  <SMILES>  (91) 
CN(CCC(=O)n1c(C([NH-])=O)cc2ccc(C(F)F)cc21)C(=O)OCC(=O)[O-]

>  <Energy>  (91) 
72.6791842354605

>  <Genealogy>  (91) 
CN(CCC(=O)n1c(C([NH-])=O)cc2ccc(C(F)F)cc21)C(=O)OCC(=O)[O-] (protonated)
CN(CCC(=O)n1c(C([NH-])=O)cc2ccc(C(F)F)cc21)C(=O)OCC(=O)[O-] (3D coordinates assigned)
CN(CCC(=O)n1c(C([NH-])=O)cc2ccc(C(F)F)cc21)C(=O)OCC(=O)[O-] (optimized conformer: 72.6791842354605 kcal/mol)

>  <smiles>  (91) 
CN(CCC(=O)n1c(C(N)=O)cc2ccc(C(F)F)cc21)C(=O)OCC(=O)O

>  <score_type>  (91) 
oracle

>  <origin>  (91) 
adg

>  <m_score__min__energy>  (91) 
-6.6100000000000003

>  <m_primary>  (91) 
energy

$$$$
93:0
     RDKit          3D

 38 40  0  0  0  0  0  0  0  0999 V2000
  145.5550  155.0260  132.5800 C   0  0  0  0  0  0  0  0  0  0  0  0
  144.0470  154.8550  132.4840 C   0  0  0  0  0  0  0  0  0  0  0  0
  143.4270  155.4990  133.5910 O   0  0  0  0  0  0  0  0  0  0  0  0
  142.1870  156.1270  133.5020 C   0  0  0  0  0  0  0  0  0  0  0  0
  141.1470  155.4420  133.3000 O   0  0  0  0  0  0  0  0  0  0  0  0
  142.0880  157.5540  133.6500 N   0  0  0  0  0  0  0  0  0  0  0  0
  140.9740  158.2770  133.9700 C   0  0  0  0  0  0  0  0  0  0  0  0
  139.5840  157.7740  133.9800 C   0  0  0  0  0  0  0  0  0  0  0  0
  139.1100  156.8760  132.9740 N   0  0  0  0  0  0  0  0  0  0  0  0
  138.7800  158.2070  134.8440 O   0  0  0  0  0  0  0  0  0  0  0  0
  141.2990  159.6140  134.1850 C   0  0  0  0  0  0  0  0  0  0  0  0
  142.6540  159.6980  133.9570 C   0  0  0  0  0  0  0  0  0  0  0  0
  143.4990  160.8000  134.0190 C   0  0  0  0  0  0  0  0  0  0  0  0
  144.8580  160.6090  133.7160 C   0  0  0  0  0  0  0  0  0  0  0  0
  145.3520  159.3260  133.3500 C   0  0  0  0  0  0  0  0  0  0  0  0
  146.7790  159.1180  132.9720 C   0  0  0  0  0  0  0  0  0  0  0  0
  147.5240  160.1090  132.2960 C   0  0  0  0  0  0  0  0  0  0  0  0
  148.8470  159.8470  131.9270 C   0  0  0  0  0  0  0  0  0  0  0  0
  149.4210  158.6110  132.2230 C   0  0  0  0  0  0  0  0  0  0  0  0
  148.6600  157.6470  132.8890 C   0  0  0  0  0  0  0  0  0  0  0  0
  147.3730  157.9190  133.2400 N   0  0  0  0  0  0  0  0  0  0  0  0
  144.4600  158.2230  133.3390 C   0  0  0  0  0  0  0  0  0  0  0  0
  143.1070  158.4460  133.6310 C   0  0  0  0  0  0  0  0  0  0  0  0
  145.8535  155.0599  133.6382 H   0  0  0  0  0  0  0  0  0  0  0  0
  146.0523  154.1785  132.0856 H   0  0  0  0  0  0  0  0  0  0  0  0
  145.8499  155.9633  132.0856 H   0  0  0  0  0  0  0  0  0  0  0  0
  143.6854  155.3053  131.5478 H   0  0  0  0  0  0  0  0  0  0  0  0
  143.7972  153.7838  132.4949 H   0  0  0  0  0  0  0  0  0  0  0  0
  139.7090  156.6060  132.1650 H   0  0  0  0  0  0  0  0  0  0  0  0
  138.1210  156.5430  132.9900 H   0  0  0  0  0  0  0  0  0  0  0  0
  140.6188  160.4284  134.4749 H   0  0  0  0  0  0  0  0  0  0  0  0
  143.1152  161.7926  134.2971 H   0  0  0  0  0  0  0  0  0  0  0  0
  145.5493  161.4633  133.7625 H   0  0  0  0  0  0  0  0  0  0  0  0
  147.0663  161.0813  132.0611 H   0  0  0  0  0  0  0  0  0  0  0  0
  149.4347  160.6154  131.4035 H   0  0  0  0  0  0  0  0  0  0  0  0
  150.4611  158.3975  131.9354 H   0  0  0  0  0  0  0  0  0  0  0  0
  149.1007  156.6683  133.1298 H   0  0  0  0  0  0  0  0  0  0  0  0
  144.8232  157.2113  133.1056 H   0  0  0  0  0  0  0  0  0  0  0  0
  1  2  1  0
  2  3  1  0
  3  4  1  0
  4  5  2  0
  4  6  1  0
  6  7  1  0
  7  8  1  0
  8  9  1  0
  8 10  2  0
  7 11  2  0
 11 12  1  0
 12 13  2  0
 13 14  1  0
 14 15  2  0
 15 16  1  0
 16 17  2  0
 17 18  1  0
 18 19  2  0
 19 20  1  0
 20 21  2  0
 15 22  1  0
 22 23  2  0
 23  6  1  0
 23 12  1  0
 21 16  1  0
  1 24  1  0
  1 25  1  0
  1 26  1  0
  2 27  1  0
  2 28  1  0
  9 29  1  0
  9 30  1  0
 11 31  1  0
 13 32  1  0
 14 33  1  0
 17 34  1  0
 18 35  1  0
 19 36  1  0
 20 37  1  0
 22 38  1  0
M  END
>  <UniqueID>  (92) 
92

>  <SMILES>  (92) 
CCOC(=O)n1c(C(N)=O)cc2ccc(-c3ccccn3)cc21

>  <Energy>  (92) 
80.37795823531974

>  <Genealogy>  (92) 
CCOC(=O)n1c(C(N)=O)cc2ccc(-c3ccccn3)cc21 (3D coordinates assigned)
CCOC(=O)n1c(C(N)=O)cc2ccc(-c3ccccn3)cc21 (optimized conformer: 80.37795823531974 kcal/mol)

>  <smiles>  (92) 
CCOC(=O)n1c(C(N)=O)cc2ccc(-c3ccccn3)cc21

>  <score_type>  (92) 
oracle

>  <origin>  (92) 
adg

>  <m_score__min__energy>  (92) 
-7.46

>  <m_primary>  (92) 
energy

$$$$
94:0
     RDKit          3D

 32 33  0  0  0  0  0  0  0  0999 V2000
  149.8160  157.5640  131.9770 N   0  0  0  0  0  0  0  0  0  0  0  0
  149.3480  158.8270  131.4130 C   0  0  0  0  0  0  0  0  0  0  0  0
  148.6620  159.6810  132.4840 C   0  0  0  0  0  0  0  0  0  0  0  0
  147.3960  159.0320  132.9770 C   0  0  0  0  0  0  0  0  0  0  0  0
  146.1570  159.7140  132.8710 C   0  0  0  0  0  0  0  0  0  0  0  0
  144.9670  159.1090  133.3130 C   0  0  0  0  0  0  0  0  0  0  0  0
  145.0450  157.8220  133.8370 C   0  0  0  0  0  0  0  0  0  0  0  0
  144.0580  157.0150  134.3580 C   0  0  0  0  0  0  0  0  0  0  0  0
  144.7070  155.8430  134.7470 C   0  0  0  0  0  0  0  0  0  0  0  0
  144.0250  154.6600  135.3230 C   0  0  0  0  0  0  0  0  0  0  0  0
  144.4230  154.1260  136.5880 N   0  0  0  0  0  0  0  0  0  0  0  0
  143.0700  154.1200  134.7060 O   0  0  0  0  0  0  0  0  0  0  0  0
  146.0380  155.9210  134.4650 N   0  0  0  0  0  0  0  0  0  0  0  0
  147.0500  154.9460  134.7630 C   0  0  0  0  0  0  0  0  0  0  0  0
  147.0740  154.3980  135.8980 O   0  0  0  0  0  0  0  0  0  0  0  0
  148.0500  154.5610  133.7590 C   0  0  0  0  0  0  0  0  0  0  0  0
  148.7750  155.4300  133.2090 O   0  0  0  0  0  0  0  0  0  0  0  0
  146.2300  157.1410  133.9190 C   0  0  0  0  0  0  0  0  0  0  0  0
  147.4340  157.7250  133.5080 C   0  0  0  0  0  0  0  0  0  0  0  0
  149.6050  157.5640  133.0010 H   0  0  0  0  0  0  0  0  0  0  0  0
  149.2450  156.7960  131.5550 H   0  0  0  0  0  0  0  0  0  0  0  0
  150.2072  159.3805  131.0063 H   0  0  0  0  0  0  0  0  0  0  0  0
  148.6208  158.6093  130.6169 H   0  0  0  0  0  0  0  0  0  0  0  0
  149.3503  159.8125  133.3319 H   0  0  0  0  0  0  0  0  0  0  0  0
  148.4019  160.6522  132.0379 H   0  0  0  0  0  0  0  0  0  0  0  0
  146.1266  160.7252  132.4392 H   0  0  0  0  0  0  0  0  0  0  0  0
  144.0041  159.6367  133.2466 H   0  0  0  0  0  0  0  0  0  0  0  0
  142.9862  157.2455  134.4482 H   0  0  0  0  0  0  0  0  0  0  0  0
  145.2510  154.4980  137.1020 H   0  0  0  0  0  0  0  0  0  0  0  0
  143.9080  153.3140  136.9970 H   0  0  0  0  0  0  0  0  0  0  0  0
  148.1665  153.5021  133.4849 H   0  0  0  0  0  0  0  0  0  0  0  0
  148.3850  157.1794  133.5966 H   0  0  0  0  0  0  0  0  0  0  0  0
  1  2  1  0
  2  3  1  0
  3  4  1  0
  4  5  2  0
  5  6  1  0
  6  7  2  0
  7  8  1  0
  8  9  2  0
  9 10  1  0
 10 11  1  0
 10 12  2  0
  9 13  1  0
 13 14  1  0
 14 15  2  0
 14 16  1  0
 16 17  2  0
 13 18  1  0
 18 19  2  0
 19  4  1  0
 18  7  1  0
  1 20  1  0
  1 21  1  0
  2 22  1  0
  2 23  1  0
  3 24  1  0
  3 25  1  0
  5 26  1  0
  6 27  1  0
  8 28  1  0
 11 29  1  0
 11 30  1  0
 16 31  1  0
 19 32  1  0
M  END
>  <UniqueID>  (93) 
93

>  <SMILES>  (93) 
NCCc1ccc2cc(C(N)=O)n(C(=O)C=O)c2c1

>  <Energy>  (93) 
67.1017874287108

>  <Genealogy>  (93) 
NCCc1ccc2cc(C(N)=O)n(C(=O)C=O)c2c1 (3D coordinates assigned)
NCCc1ccc2cc(C(N)=O)n(C(=O)C=O)c2c1 (optimized conformer: 67.1017874287108 kcal/mol)

>  <smiles>  (93) 
NCCc1ccc2cc(C(N)=O)n(C(=O)C=O)c2c1

>  <score_type>  (93) 
oracle

>  <origin>  (93) 
adg

>  <m_score__min__energy>  (93) 
-6.4000000000000004

>  <m_primary>  (93) 
energy

$$$$
95:0
     RDKit          3D

 48 50  0  0  0  0  0  0  0  0999 V2000
  147.7460  154.3640  136.6690 C   0  0  0  0  0  0  0  0  0  0  0  0
  147.1230  154.7050  135.4350 O   0  0  0  0  0  0  0  0  0  0  0  0
  146.8940  153.8080  134.3780 C   0  0  0  0  0  0  0  0  0  0  0  0
  147.9570  153.2140  133.6720 C   0  0  0  0  0  0  0  0  0  0  0  0
  147.7030  152.3430  132.6110 C   0  0  0  0  0  0  0  0  0  0  0  0
  148.8000  151.7450  131.8940 C   0  0  0  0  0  0  0  0  0  0  0  0
  149.6810  151.2640  131.3180 N   0  0  0  0  0  0  0  0  0  0  0  0
  146.3870  152.0500  132.2440 C   0  0  0  0  0  0  0  0  0  0  0  0
  145.3080  152.6240  132.9400 C   0  0  0  0  0  0  0  0  0  0  0  0
  143.9730  152.3250  132.6120 O   0  0  0  0  0  0  0  0  0  0  0  0
  143.2790  151.1420  132.9990 C   0  0  0  0  0  0  0  0  0  0  0  0
  143.6060  150.1030  132.1470 F   0  0  0  0  0  0  0  0  0  0  0  0
  141.9190  151.3740  132.9250 F   0  0  0  0  0  0  0  0  0  0  0  0
  145.5640  153.5100  134.0100 C   0  0  0  0  0  0  0  0  0  0  0  0
  144.4350  154.1190  134.7530 C   0  0  0  0  0  0  0  0  0  0  0  0
  143.7440  153.3710  135.7410 C   0  0  0  0  0  0  0  0  0  0  0  0
  142.6690  153.9360  136.4450 C   0  0  0  0  0  0  0  0  0  0  0  0
  142.3120  155.2490  136.1480 C   0  0  0  0  0  0  0  0  0  0  0  0
  141.2970  156.0260  136.6560 C   0  0  0  0  0  0  0  0  0  0  0  0
  141.3940  157.2460  135.9870 C   0  0  0  0  0  0  0  0  0  0  0  0
  140.5350  158.4090  136.2910 C   0  0  0  0  0  0  0  0  0  0  0  0
  140.9620  159.7350  135.9880 N   0  0  0  0  0  0  0  0  0  0  0  0
  139.4290  158.2340  136.8690 O   0  0  0  0  0  0  0  0  0  0  0  0
  142.4250  157.2200  135.0950 N   0  0  0  0  0  0  0  0  0  0  0  0
  142.7980  158.2370  134.1510 C   0  0  0  0  0  0  0  0  0  0  0  0
  143.5970  159.1510  134.4910 O   0  0  0  0  0  0  0  0  0  0  0  0
  142.2420  158.2250  132.8340 N   0  0  0  0  0  0  0  0  0  0  0  0
  140.8100  158.1710  132.5790 C   0  0  0  0  0  0  0  0  0  0  0  0
  140.1920  159.5510  132.7900 C   0  0  0  0  0  0  0  0  0  0  0  0
  141.1560  160.4580  133.2530 O   0  0  0  0  0  0  0  0  0  0  0  0
  142.9770  155.9920  135.2070 C   0  0  0  0  0  0  0  0  0  0  0  0
  144.0410  155.4470  134.4780 C   0  0  0  0  0  0  0  0  0  0  0  0
  147.1180  154.7078  137.5041 H   0  0  0  0  0  0  0  0  0  0  0  0
  147.8694  153.2725  136.7281 H   0  0  0  0  0  0  0  0  0  0  0  0
  148.7319  154.8482  136.7281 H   0  0  0  0  0  0  0  0  0  0  0  0
  148.9953  153.4377  133.9583 H   0  0  0  0  0  0  0  0  0  0  0  0
  146.1935  151.3656  131.4049 H   0  0  0  0  0  0  0  0  0  0  0  0
  143.5639  150.8726  134.0267 H   0  0  0  0  0  0  0  0  0  0  0  0
  144.0538  152.3380  135.9575 H   0  0  0  0  0  0  0  0  0  0  0  0
  142.1253  153.3594  137.2078 H   0  0  0  0  0  0  0  0  0  0  0  0
  140.5641  155.7448  137.4266 H   0  0  0  0  0  0  0  0  0  0  0  0
  141.7030  159.9100  135.2740 H   0  0  0  0  0  0  0  0  0  0  0  0
  140.6362  157.8483  131.5419 H   0  0  0  0  0  0  0  0  0  0  0  0
  140.3452  157.4561  133.2739 H   0  0  0  0  0  0  0  0  0  0  0  0
  139.7833  159.9138  131.8354 H   0  0  0  0  0  0  0  0  0  0  0  0
  139.3918  159.4702  133.5404 H   0  0  0  0  0  0  0  0  0  0  0  0
  141.6660  159.9920  133.9660 H   0  0  0  0  0  0  0  0  0  0  0  0
  144.5580  156.0395  133.7089 H   0  0  0  0  0  0  0  0  0  0  0  0
  1  2  1  0
  2  3  1  0
  3  4  2  0
  4  5  1  0
  5  6  1  0
  6  7  3  0
  5  8  2  0
  8  9  1  0
  9 10  1  0
 10 11  1  0
 11 12  1  0
 11 13  1  0
  9 14  2  0
 14 15  1  0
 15 16  2  0
 16 17  1  0
 17 18  2  0
 18 19  1  0
 19 20  2  0
 20 21  1  0
 21 22  1  0
 21 23  2  0
 20 24  1  0
 24 25  1  0
 25 26  2  0
 25 27  1  0
 27 28  1  0
 28 29  1  0
 29 30  1  0
 24 31  1  0
 31 32  2  0
 14  3  1  0
 32 15  1  0
 31 18  1  0
  1 33  1  0
  1 34  1  0
  1 35  1  0
  4 36  1  0
  8 37  1  0
 11 38  1  0
 16 39  1  0
 17 40  1  0
 19 41  1  0
 22 42  1  0
 28 43  1  0
 28 44  1  0
 29 45  1  0
 29 46  1  0
 30 47  1  0
 32 48  1  0
M  CHG  2  22  -1  27  -1
M  END
>  <UniqueID>  (94) 
94

>  <SMILES>  (94) 
COc1cc(C#N)cc(OC(F)F)c1-c1ccc2cc(C([NH-])=O)n(C(=O)[N-]CCO)c2c1

>  <Energy>  (94) 
90.1844937569776

>  <Genealogy>  (94) 
COc1cc(C#N)cc(OC(F)F)c1-c1ccc2cc(C([NH-])=O)n(C(=O)[N-]CCO)c2c1 (protonated)
COc1cc(C#N)cc(OC(F)F)c1-c1ccc2cc(C([NH-])=O)n(C(=O)[N-]CCO)c2c1 (3D coordinates assigned)
COc1cc(C#N)cc(OC(F)F)c1-c1ccc2cc(C([NH-])=O)n(C(=O)[N-]CCO)c2c1 (optimized conformer: 90.1844937569776 kcal/mol)

>  <smiles>  (94) 
COc1cc(C#N)cc(OC(F)F)c1-c1ccc2cc(C(N)=O)n(C(=O)NCCO)c2c1

>  <score_type>  (94) 
oracle

>  <origin>  (94) 
adg

>  <m_score__min__energy>  (94) 
-7.0300000000000002

>  <m_primary>  (94) 
energy

$$$$
96:0
     RDKit          3D

 38 40  0  0  0  0  0  0  0  0999 V2000
  138.7460  147.0270  129.4530 C   0  0  0  0  0  0  0  0  0  0  0  0
  139.3820  148.0230  130.3690 C   0  0  0  0  0  0  0  0  0  0  0  0
  139.1410  149.3930  130.2130 C   0  0  0  0  0  0  0  0  0  0  0  0
  139.7600  150.2780  131.0370 N   0  0  0  0  0  0  0  0  0  0  0  0
  140.6060  149.8630  132.0180 C   0  0  0  0  0  0  0  0  0  0  0  0
  141.3350  150.8790  132.8570 C   0  0  0  0  0  0  0  0  0  0  0  0
  141.3110  152.2150  132.2400 N   0  0  0  0  0  0  0  0  0  0  0  0
  141.6850  153.2380  133.1880 C   0  0  0  0  0  0  0  0  0  0  0  0
  142.8040  153.0470  134.0390 C   0  0  0  0  0  0  0  0  0  0  0  0
  143.1520  154.0170  134.9950 C   0  0  0  0  0  0  0  0  0  0  0  0
  142.3540  155.1520  135.0930 C   0  0  0  0  0  0  0  0  0  0  0  0
  142.4620  156.2420  135.9260 C   0  0  0  0  0  0  0  0  0  0  0  0
  141.3870  157.0650  135.5990 C   0  0  0  0  0  0  0  0  0  0  0  0
  141.0680  158.3100  136.3290 C   0  0  0  0  0  0  0  0  0  0  0  0
  139.8880  158.4150  137.1200 N   0  0  0  0  0  0  0  0  0  0  0  0
  141.8740  159.2780  136.2930 O   0  0  0  0  0  0  0  0  0  0  0  0
  140.6470  156.5120  134.5970 N   0  0  0  0  0  0  0  0  0  0  0  0
  139.5060  157.0770  133.9300 C   0  0  0  0  0  0  0  0  0  0  0  0
  139.2470  156.7650  132.7380 O   0  0  0  0  0  0  0  0  0  0  0  0
  138.6930  157.9920  134.5870 O   0  0  0  0  0  0  0  0  0  0  0  0
  141.2540  155.3420  134.2980 C   0  0  0  0  0  0  0  0  0  0  0  0
  140.9030  154.4090  133.3150 C   0  0  0  0  0  0  0  0  0  0  0  0
  140.8550  148.4920  132.1670 C   0  0  0  0  0  0  0  0  0  0  0  0
  140.2400  147.6070  131.3390 N   0  0  0  0  0  0  0  0  0  0  0  0
  138.2481  146.2472  130.0481 H   0  0  0  0  0  0  0  0  0  0  0  0
  138.0040  147.5339  128.8185 H   0  0  0  0  0  0  0  0  0  0  0  0
  139.5180  146.5671  128.8185 H   0  0  0  0  0  0  0  0  0  0  0  0
  138.4561  149.7500  129.4297 H   0  0  0  0  0  0  0  0  0  0  0  0
  140.8557  150.9345  133.8455 H   0  0  0  0  0  0  0  0  0  0  0  0
  142.3845  150.5612  132.9441 H   0  0  0  0  0  0  0  0  0  0  0  0
  141.9820  152.2270  131.4360 H   0  0  0  0  0  0  0  0  0  0  0  0
  140.3600  152.4120  131.8480 H   0  0  0  0  0  0  0  0  0  0  0  0
  143.4055  152.1304  133.9498 H   0  0  0  0  0  0  0  0  0  0  0  0
  144.0286  153.8826  135.6457 H   0  0  0  0  0  0  0  0  0  0  0  0
  143.2337  156.4246  136.6884 H   0  0  0  0  0  0  0  0  0  0  0  0
  138.9610  158.6080  136.6790 H   0  0  0  0  0  0  0  0  0  0  0  0
  140.0390  154.5829  132.6568 H   0  0  0  0  0  0  0  0  0  0  0  0
  141.5427  148.1350  132.9478 H   0  0  0  0  0  0  0  0  0  0  0  0
  1  2  1  0
  2  3  2  0
  3  4  1  0
  4  5  2  0
  5  6  1  0
  6  7  1  0
  7  8  1  0
  8  9  2  0
  9 10  1  0
 10 11  2  0
 11 12  1  0
 12 13  2  0
 13 14  1  0
 14 15  1  0
 14 16  2  0
 13 17  1  0
 17 18  1  0
 18 19  2  0
 18 20  1  0
 17 21  1  0
 21 22  2  0
  5 23  1  0
 23 24  2  0
 24  2  1  0
 22  8  1  0
 21 11  1  0
  1 25  1  0
  1 26  1  0
  1 27  1  0
  3 28  1  0
  6 29  1  0
  6 30  1  0
  7 31  1  0
  7 32  1  0
  9 33  1  0
 10 34  1  0
 12 35  1  0
 15 36  1  0
 22 37  1  0
 23 38  1  0
M  CHG  3   7   1  15  -1  20  -1
M  END
>  <UniqueID>  (95) 
95

>  <SMILES>  (95) 
Cc1cnc(C[NH2+]c2ccc3cc(C([NH-])=O)n(C(=O)[O-])c3c2)cn1

>  <Energy>  (95) 
80.239937673768

>  <Genealogy>  (95) 
Cc1cnc(C[NH2+]c2ccc3cc(C([NH-])=O)n(C(=O)[O-])c3c2)cn1 (protonated)
Cc1cnc(C[NH2+]c2ccc3cc(C([NH-])=O)n(C(=O)[O-])c3c2)cn1 (3D coordinates assigned)
Cc1cnc(C[NH2+]c2ccc3cc(C([NH-])=O)n(C(=O)[O-])c3c2)cn1 (optimized conformer: 80.239937673768 kcal/mol)

>  <smiles>  (95) 
Cc1cnc(CNc2ccc3cc(C(N)=O)n(C(=O)O)c3c2)cn1

>  <score_type>  (95) 
oracle

>  <origin>  (95) 
adg

>  <m_score__min__energy>  (95) 
-7.6299999999999999

>  <m_primary>  (95) 
energy

$$$$
97:0
     RDKit          3D

 34 35  0  0  0  0  0  0  0  0999 V2000
  143.0090  160.3600  133.4050 N   0  0  0  0  0  0  0  0  0  0  0  0
  144.3540  160.6900  133.7380 C   0  0  0  0  0  0  0  0  0  0  0  0
  144.6170  161.8460  134.1650 O   0  0  0  0  0  0  0  0  0  0  0  0
  145.4490  159.7170  133.5360 C   0  0  0  0  0  0  0  0  0  0  0  0
  146.7660  160.0900  133.2730 C   0  0  0  0  0  0  0  0  0  0  0  0
  147.4420  158.9110  133.0570 C   0  0  0  0  0  0  0  0  0  0  0  0
  148.7830  158.6910  132.7550 C   0  0  0  0  0  0  0  0  0  0  0  0
  149.2150  157.3630  132.6070 C   0  0  0  0  0  0  0  0  0  0  0  0
  148.3090  156.2860  132.7780 C   0  0  0  0  0  0  0  0  0  0  0  0
  148.7760  154.8690  132.5960 C   0  0  0  0  0  0  0  0  0  0  0  0
  148.0100  153.9550  133.5020 C   0  0  0  0  0  0  0  0  0  0  0  0
  147.1420  152.9610  132.9600 N   0  0  0  0  0  0  0  0  0  0  0  0
  148.1020  154.0900  134.7510 O   0  0  0  0  0  0  0  0  0  0  0  0
  146.9530  156.5490  133.0740 C   0  0  0  0  0  0  0  0  0  0  0  0
  146.5460  157.8820  133.1970 C   0  0  0  0  0  0  0  0  0  0  0  0
  145.3190  158.3610  133.4950 N   0  0  0  0  0  0  0  0  0  0  0  0
  144.1510  157.5770  133.7840 C   0  0  0  0  0  0  0  0  0  0  0  0
  143.1110  157.7150  133.0840 O   0  0  0  0  0  0  0  0  0  0  0  0
  144.1660  156.6800  134.8590 O   0  0  0  0  0  0  0  0  0  0  0  0
  143.9580  155.2780  134.7100 C   0  0  0  0  0  0  0  0  0  0  0  0
  145.0240  154.5100  135.4300 C   0  0  0  0  0  0  0  0  0  0  0  0
  145.3530  153.4010  135.0400 O   0  0  0  0  0  0  0  0  0  0  0  0
  142.7910  159.7510  132.5850 H   0  0  0  0  0  0  0  0  0  0  0  0
  147.1774  161.1098  133.2442 H   0  0  0  0  0  0  0  0  0  0  0  0
  149.4827  159.5314  132.6360 H   0  0  0  0  0  0  0  0  0  0  0  0
  150.2659  157.1565  132.3561 H   0  0  0  0  0  0  0  0  0  0  0  0
  148.6156  154.5643  131.5513 H   0  0  0  0  0  0  0  0  0  0  0  0
  149.8461  154.8077  132.8433 H   0  0  0  0  0  0  0  0  0  0  0  0
  147.0390  152.8500  131.9270 H   0  0  0  0  0  0  0  0  0  0  0  0
  146.5960  152.3340  133.5930 H   0  0  0  0  0  0  0  0  0  0  0  0
  146.2348  155.7261  133.2046 H   0  0  0  0  0  0  0  0  0  0  0  0
  142.9756  155.0115  135.1270 H   0  0  0  0  0  0  0  0  0  0  0  0
  143.9975  155.0242  133.6404 H   0  0  0  0  0  0  0  0  0  0  0  0
  145.5121  154.9471  136.3135 H   0  0  0  0  0  0  0  0  0  0  0  0
  1  2  1  0
  2  3  2  0
  2  4  1  0
  4  5  2  0
  5  6  1  0
  6  7  2  0
  7  8  1  0
  8  9  2  0
  9 10  1  0
 10 11  1  0
 11 12  1  0
 11 13  2  0
  9 14  1  0
 14 15  2  0
 15 16  1  0
 16 17  1  0
 17 18  2  0
 17 19  1  0
 19 20  1  0
 20 21  1  0
 21 22  2  0
 16  4  1  0
 15  6  1  0
  1 23  1  0
  5 24  1  0
  7 25  1  0
  8 26  1  0
 10 27  1  0
 10 28  1  0
 12 29  1  0
 12 30  1  0
 14 31  1  0
 20 32  1  0
 20 33  1  0
 21 34  1  0
M  CHG  1   1  -1
M  END
>  <UniqueID>  (96) 
96

>  <SMILES>  (96) 
[NH-]C(=O)c1cc2ccc(CC(N)=O)cc2n1C(=O)OCC=O

>  <Energy>  (96) 
67.16736419488012

>  <Genealogy>  (96) 
[NH-]C(=O)c1cc2ccc(CC(N)=O)cc2n1C(=O)OCC=O (protonated)
[NH-]C(=O)c1cc2ccc(CC(N)=O)cc2n1C(=O)OCC=O (3D coordinates assigned)
[NH-]C(=O)c1cc2ccc(CC(N)=O)cc2n1C(=O)OCC=O (optimized conformer: 67.16736419488012 kcal/mol)

>  <smiles>  (96) 
NC(=O)Cc1ccc2cc(C(N)=O)n(C(=O)OCC=O)c2c1

>  <score_type>  (96) 
oracle

>  <origin>  (96) 
adg

>  <m_score__min__energy>  (96) 
-6.1100000000000003

>  <m_primary>  (96) 
energy

$$$$
98:0
     RDKit          3D

 48 49  0  0  0  0  0  0  0  0999 V2000
  139.0460  160.3230  130.4310 C   0  0  0  0  0  0  0  0  0  0  0  0
  139.2780  159.4020  131.5910 C   0  0  0  0  0  0  0  0  0  0  0  0
  138.1820  158.7520  132.2140 C   0  0  0  0  0  0  0  0  0  0  0  0
  138.3920  157.8530  133.2740 C   0  0  0  0  0  0  0  0  0  0  0  0
  139.7030  157.6130  133.6750 C   0  0  0  0  0  0  0  0  0  0  0  0
  140.1940  156.7900  134.6630 C   0  0  0  0  0  0  0  0  0  0  0  0
  141.5780  156.9450  134.6200 C   0  0  0  0  0  0  0  0  0  0  0  0
  142.5010  156.3300  135.5910 C   0  0  0  0  0  0  0  0  0  0  0  0
  143.8220  155.9750  135.1890 N   0  0  0  0  0  0  0  0  0  0  0  0
  142.1200  156.0720  136.7630 O   0  0  0  0  0  0  0  0  0  0  0  0
  141.9300  157.8090  133.6270 N   0  0  0  0  0  0  0  0  0  0  0  0
  143.2470  158.1800  133.1910 C   0  0  0  0  0  0  0  0  0  0  0  0
  143.9670  157.3220  132.6140 O   0  0  0  0  0  0  0  0  0  0  0  0
  143.7910  159.5690  133.4000 C   0  0  0  0  0  0  0  0  0  0  0  0
  145.5820  159.6390  133.3560 S   0  0  0  0  0  0  0  0  0  0  0  0
  146.0540  160.8640  134.0870 O   0  0  0  0  0  0  0  0  0  0  0  0
  146.0110  159.7510  131.9200 O   0  0  0  0  0  0  0  0  0  0  0  0
  146.3750  158.2040  134.0780 C   0  0  0  0  0  0  0  0  0  0  0  0
  147.4060  157.5550  133.1370 C   0  0  0  0  0  0  0  0  0  0  0  0
  146.9010  156.2140  132.5620 C   0  0  0  0  0  0  0  0  0  0  0  0
  146.0170  155.4460  133.4730 N   0  0  0  0  0  0  0  0  0  0  0  0
  145.3020  154.3570  132.7830 C   0  0  0  0  0  0  0  0  0  0  0  0
  146.7270  154.9390  134.6610 C   0  0  0  0  0  0  0  0  0  0  0  0
  140.7710  158.2250  133.0730 C   0  0  0  0  0  0  0  0  0  0  0  0
  140.5940  159.1270  132.0200 C   0  0  0  0  0  0  0  0  0  0  0  0
  138.7933  161.3264  130.8043 H   0  0  0  0  0  0  0  0  0  0  0  0
  139.9582  160.3786  129.8188 H   0  0  0  0  0  0  0  0  0  0  0  0
  138.2163  159.9398  129.8188 H   0  0  0  0  0  0  0  0  0  0  0  0
  137.1586  158.9532  131.8645 H   0  0  0  0  0  0  0  0  0  0  0  0
  137.5466  157.3547  133.7710 H   0  0  0  0  0  0  0  0  0  0  0  0
  139.6162  156.1463  135.3425 H   0  0  0  0  0  0  0  0  0  0  0  0
  144.4020  156.6270  134.6160 H   0  0  0  0  0  0  0  0  0  0  0  0
  143.3959  160.2222  132.6080 H   0  0  0  0  0  0  0  0  0  0  0  0
  143.4752  159.8969  134.4013 H   0  0  0  0  0  0  0  0  0  0  0  0
  146.8873  158.5129  135.0011 H   0  0  0  0  0  0  0  0  0  0  0  0
  145.5917  157.4575  134.2760 H   0  0  0  0  0  0  0  0  0  0  0  0
  147.6099  158.2441  132.3042 H   0  0  0  0  0  0  0  0  0  0  0  0
  148.3174  157.3533  133.7190 H   0  0  0  0  0  0  0  0  0  0  0  0
  146.3419  156.4253  131.6386 H   0  0  0  0  0  0  0  0  0  0  0  0
  147.7920  155.5914  132.3935 H   0  0  0  0  0  0  0  0  0  0  0  0
  145.2880  156.1170  133.8180 H   0  0  0  0  0  0  0  0  0  0  0  0
  144.8578  153.6804  133.5279 H   0  0  0  0  0  0  0  0  0  0  0  0
  144.5066  154.7820  132.1531 H   0  0  0  0  0  0  0  0  0  0  0  0
  146.0082  153.7961  132.1531 H   0  0  0  0  0  0  0  0  0  0  0  0
  146.2234  155.2986  135.5704 H   0  0  0  0  0  0  0  0  0  0  0  0
  146.7218  153.8391  134.6496 H   0  0  0  0  0  0  0  0  0  0  0  0
  147.7657  155.3009  134.6496 H   0  0  0  0  0  0  0  0  0  0  0  0
  141.4574  159.6096  131.5386 H   0  0  0  0  0  0  0  0  0  0  0  0
  1  2  1  0
  2  3  2  0
  3  4  1  0
  4  5  2  0
  5  6  1  0
  6  7  2  0
  7  8  1  0
  8  9  1  0
  8 10  2  0
  7 11  1  0
 11 12  1  0
 12 13  2  0
 12 14  1  0
 14 15  1  0
 15 16  2  0
 15 17  2  0
 15 18  1  0
 18 19  1  0
 19 20  1  0
 20 21  1  0
 21 22  1  0
 21 23  1  0
 11 24  1  0
 24 25  2  0
 25  2  1  0
 24  5  1  0
  1 26  1  0
  1 27  1  0
  1 28  1  0
  3 29  1  0
  4 30  1  0
  6 31  1  0
  9 32  1  0
 14 33  1  0
 14 34  1  0
 18 35  1  0
 18 36  1  0
 19 37  1  0
 19 38  1  0
 20 39  1  0
 20 40  1  0
 21 41  1  0
 22 42  1  0
 22 43  1  0
 22 44  1  0
 23 45  1  0
 23 46  1  0
 23 47  1  0
 25 48  1  0
M  CHG  2   9  -1  21   1
M  END
>  <UniqueID>  (97) 
97

>  <SMILES>  (97) 
Cc1ccc2cc(C([NH-])=O)n(C(=O)CS(=O)(=O)CCC[NH+](C)C)c2c1

>  <Energy>  (97) 
79.34838094475717

>  <Genealogy>  (97) 
Cc1ccc2cc(C([NH-])=O)n(C(=O)CS(=O)(=O)CCC[NH+](C)C)c2c1 (protonated)
Cc1ccc2cc(C([NH-])=O)n(C(=O)CS(=O)(=O)CCC[NH+](C)C)c2c1 (3D coordinates assigned)
Cc1ccc2cc(C([NH-])=O)n(C(=O)CS(=O)(=O)CCC[NH+](C)C)c2c1 (optimized conformer: 79.34838094475717 kcal/mol)

>  <smiles>  (97) 
Cc1ccc2cc(C(N)=O)n(C(=O)CS(=O)(=O)CCCN(C)C)c2c1

>  <score_type>  (97) 
oracle

>  <origin>  (97) 
adg

>  <m_score__min__energy>  (97) 
-6.6600000000000001

>  <m_primary>  (97) 
energy

$$$$
