0:0
     RDKit          3D

 56 57  0  0  0  0  0  0  0  0999 V2000
  140.9070  154.5570  138.3410 C   0  0  0  0  0  0  0  0  0  0  0  0
  141.4290  154.9300  137.0160 N   0  0  0  0  0  0  0  0  0  0  0  0
  142.6130  154.1090  136.7120 C   0  0  0  0  0  0  0  0  0  0  0  0
  141.7560  156.3740  136.9900 C   0  0  0  0  0  0  0  0  0  0  0  0
  140.5860  157.2280  137.5040 C   0  0  0  0  0  0  0  0  0  0  0  0
  139.7520  157.7070  136.4060 N   0  0  0  0  0  0  0  0  0  0  0  0
  140.1620  158.5910  135.3530 C   0  0  0  0  0  0  0  0  0  0  0  0
  140.7460  159.6630  135.6650 O   0  0  0  0  0  0  0  0  0  0  0  0
  140.0010  158.2370  133.8950 C   0  0  0  0  0  0  0  0  0  0  0  0
  140.4320  156.8180  133.6320 C   0  0  0  0  0  0  0  0  0  0  0  0
  139.4740  155.8430  133.2590 C   0  0  0  0  0  0  0  0  0  0  0  0
  139.8640  154.5200  132.9950 C   0  0  0  0  0  0  0  0  0  0  0  0
  141.2160  154.2060  133.0980 C   0  0  0  0  0  0  0  0  0  0  0  0
  141.8600  153.0040  132.9210 C   0  0  0  0  0  0  0  0  0  0  0  0
  143.2090  153.2700  133.1550 C   0  0  0  0  0  0  0  0  0  0  0  0
  144.2760  152.2620  132.9900 C   0  0  0  0  0  0  0  0  0  0  0  0
  145.6500  152.6410  132.9740 N   0  0  0  0  0  0  0  0  0  0  0  0
  143.9690  151.0520  132.8100 O   0  0  0  0  0  0  0  0  0  0  0  0
  143.3890  154.5840  133.4710 N   0  0  0  0  0  0  0  0  0  0  0  0
  144.6080  155.2300  133.8680 C   0  0  0  0  0  0  0  0  0  0  0  0
  144.9980  156.2660  133.2620 O   0  0  0  0  0  0  0  0  0  0  0  0
  145.3480  154.7190  134.9380 O   0  0  0  0  0  0  0  0  0  0  0  0
  146.7210  155.0310  135.1420 C   0  0  0  0  0  0  0  0  0  0  0  0
  147.4700  153.7850  135.4740 C   0  0  0  0  0  0  0  0  0  0  0  0
  147.4660  153.3500  136.6580 O   0  0  0  0  0  0  0  0  0  0  0  0
  148.1560  153.1010  134.4660 O   0  0  0  0  0  0  0  0  0  0  0  0
  148.4530  153.6890  133.2050 C   0  0  0  0  0  0  0  0  0  0  0  0
  149.6150  153.0870  132.6900 O   0  0  0  0  0  0  0  0  0  0  0  0
  149.4150  151.3940  132.7490 P   0  0  2  0  0  0  0  0  0  0  0  0
  149.9320  150.8880  134.0750 O   0  0  0  0  0  0  0  0  0  0  0  0
  150.2930  150.6590  131.5010 O   0  0  0  0  0  0  0  0  0  0  0  0
  147.7760  150.9930  132.6100 O   0  0  0  0  0  0  0  0  0  0  0  0
  142.1600  155.1440  133.4290 C   0  0  0  0  0  0  0  0  0  0  0  0
  141.7970  156.4650  133.7160 C   0  0  0  0  0  0  0  0  0  0  0  0
  141.5365  155.0068  139.1230 H   0  0  0  0  0  0  0  0  0  0  0  0
  139.8751  154.9235  138.4450 H   0  0  0  0  0  0  0  0  0  0  0  0
  140.9194  153.4620  138.4450 H   0  0  0  0  0  0  0  0  0  0  0  0
  143.0838  153.7826  137.6511 H   0  0  0  0  0  0  0  0  0  0  0  0
  142.3081  153.2275  136.1289 H   0  0  0  0  0  0  0  0  0  0  0  0
  143.3316  154.7036  136.1289 H   0  0  0  0  0  0  0  0  0  0  0  0
  142.6351  156.5525  137.6267 H   0  0  0  0  0  0  0  0  0  0  0  0
  141.9607  156.6619  135.9483 H   0  0  0  0  0  0  0  0  0  0  0  0
  139.9697  156.6193  138.1820 H   0  0  0  0  0  0  0  0  0  0  0  0
  141.0001  158.1010  138.0298 H   0  0  0  0  0  0  0  0  0  0  0  0
  138.9440  158.3499  133.6123 H   0  0  0  0  0  0  0  0  0  0  0  0
  140.6341  158.9111  133.2993 H   0  0  0  0  0  0  0  0  0  0  0  0
  138.4141  156.1252  133.1754 H   0  0  0  0  0  0  0  0  0  0  0  0
  139.1240  153.7557  132.7155 H   0  0  0  0  0  0  0  0  0  0  0  0
  141.4075  152.0381  132.6521 H   0  0  0  0  0  0  0  0  0  0  0  0
  146.3250  152.2440  133.6630 H   0  0  0  0  0  0  0  0  0  0  0  0
  147.1362  155.4751  134.2253 H   0  0  0  0  0  0  0  0  0  0  0  0
  146.8149  155.7473  135.9716 H   0  0  0  0  0  0  0  0  0  0  0  0
  147.6135  153.5254  132.5132 H   0  0  0  0  0  0  0  0  0  0  0  0
  148.6122  154.7709  133.3238 H   0  0  0  0  0  0  0  0  0  0  0  0
  147.3360  151.4460  133.3730 H   0  0  0  0  0  0  0  0  0  0  0  0
  142.5556  157.2093  133.9998 H   0  0  0  0  0  0  0  0  0  0  0  0
  1  2  1  0
  2  3  1  0
  2  4  1  0
  4  5  1  0
  5  6  1  0
  6  7  1  0
  7  8  2  0
  7  9  1  0
  9 10  1  0
 10 11  2  0
 11 12  1  0
 12 13  2  0
 13 14  1  0
 14 15  2  0
 15 16  1  0
 16 17  1  0
 16 18  2  0
 15 19  1  0
 19 20  1  0
 20 21  2  0
 20 22  1  0
 22 23  1  0
 23 24  1  0
 24 25  2  0
 24 26  1  0
 26 27  1  0
 27 28  1  0
 28 29  1  0
 29 30  2  0
 29 31  1  6
 29 32  1  0
 19 33  1  0
 33 34  2  0
 34 10  1  0
 33 13  1  0
  1 35  1  0
  1 36  1  0
  1 37  1  0
  3 38  1  0
  3 39  1  0
  3 40  1  0
  4 41  1  0
  4 42  1  0
  5 43  1  0
  5 44  1  0
  9 45  1  0
  9 46  1  0
 11 47  1  0
 12 48  1  0
 14 49  1  0
 17 50  1  0
 23 51  1  0
 23 52  1  0
 27 53  1  0
 27 54  1  0
 32 55  1  0
 34 56  1  0
M  CHG  3   6  -1  17  -1  31  -1
M  END
>  <UniqueID>  (1) 
1

>  <SMILES>  (1) 
CN(C)CC[N-]C(=O)Cc1ccc2cc(C([NH-])=O)n(C(=O)OCC(=O)OCO[P@](=O)([O-])O)c2c1

>  <Energy>  (1) 
85.64614147833927

>  <Genealogy>  (1) 
CN(C)CC[N-]C(=O)Cc1ccc2cc(C([NH-])=O)n(C(=O)OCC(=O)OCOP(=O)([O-])O)c2c1 (protonated)
CN(C)CC[N-]C(=O)Cc1ccc2cc(C([NH-])=O)n(C(=O)OCC(=O)OCO[P@](=O)([O-])O)c2c1 (chirality)
CN(C)CC[N-]C(=O)Cc1ccc2cc(C([NH-])=O)n(C(=O)OCC(=O)OCO[P@](=O)([O-])O)c2c1 (3D coordinates assigned)
CN(C)CC[N-]C(=O)Cc1ccc2cc(C([NH-])=O)n(C(=O)OCC(=O)OCO[P@](=O)([O-])O)c2c1 (optimized conformer: 85.64614147833927 kcal/mol)

>  <smiles>  (1) 
CN(C)CCNC(=O)Cc1ccc2cc(C(N)=O)n(C(=O)OCC(=O)OCOP(=O)(O)O)c2c1

>  <score_type>  (1) 
oracle

>  <origin>  (1) 
adg

>  <m_score__min__energy>  (1) 
-6.9699999999999998

>  <m_primary>  (1) 
energy

$$$$
1:0
     RDKit          3D

 38 39  0  0  0  0  0  0  0  0999 V2000
  141.4540  154.2520  133.3760 C   0  0  0  0  0  0  0  0  0  0  0  0
  142.2440  154.6850  134.1760 C   0  0  0  0  0  0  0  0  0  0  0  0
  143.2070  155.2080  135.1450 C   0  0  0  0  0  0  0  0  0  0  0  0
  144.4710  155.3520  134.5130 O   0  0  0  0  0  0  0  0  0  0  0  0
  144.6560  156.1020  133.3470 C   0  0  0  0  0  0  0  0  0  0  0  0
  144.8200  155.5220  132.2390 O   0  0  0  0  0  0  0  0  0  0  0  0
  144.6530  157.5380  133.4140 N   0  0  0  0  0  0  0  0  0  0  0  0
  145.6940  158.3850  133.1710 C   0  0  0  0  0  0  0  0  0  0  0  0
  147.0930  157.9870  132.9250 C   0  0  0  0  0  0  0  0  0  0  0  0
  147.4190  156.9740  131.9710 N   0  0  0  0  0  0  0  0  0  0  0  0
  148.0140  158.5110  133.6070 O   0  0  0  0  0  0  0  0  0  0  0  0
  145.2750  159.7100  133.2450 C   0  0  0  0  0  0  0  0  0  0  0  0
  143.9370  159.6520  133.5570 C   0  0  0  0  0  0  0  0  0  0  0  0
  143.0190  160.6780  133.7550 C   0  0  0  0  0  0  0  0  0  0  0  0
  141.6900  160.3280  134.0450 C   0  0  0  0  0  0  0  0  0  0  0  0
  141.2930  158.9670  134.1090 C   0  0  0  0  0  0  0  0  0  0  0  0
  139.8520  158.6180  134.4460 C   0  0  2  0  0  0  0  0  0  0  0  0
  139.7490  157.9320  135.8280 C   0  0  0  0  0  0  0  0  0  0  0  0
  140.6750  158.5100  136.8590 C   0  0  0  0  0  0  0  0  0  0  0  0
  140.6320  159.7370  137.1360 O   0  0  0  0  0  0  0  0  0  0  0  0
  141.5730  157.6870  137.5280 O   0  0  0  0  0  0  0  0  0  0  0  0
  139.1680  157.8370  133.3450 C   0  0  0  0  0  0  0  0  0  0  0  0
  139.1110  156.5790  133.3990 O   0  0  0  0  0  0  0  0  0  0  0  0
  138.7000  158.4830  132.2070 O   0  0  0  0  0  0  0  0  0  0  0  0
  142.2610  157.9520  133.9050 C   0  0  0  0  0  0  0  0  0  0  0  0
  143.5840  158.3310  133.6480 C   0  0  0  0  0  0  0  0  0  0  0  0
  140.7327  153.8567  132.6456 H   0  0  0  0  0  0  0  0  0  0  0  0
  142.8652  156.1869  135.5124 H   0  0  0  0  0  0  0  0  0  0  0  0
  143.2939  154.5129  135.9932 H   0  0  0  0  0  0  0  0  0  0  0  0
  146.6750  156.4020  131.5170 H   0  0  0  0  0  0  0  0  0  0  0  0
  148.4180  156.7360  131.7810 H   0  0  0  0  0  0  0  0  0  0  0  0
  145.8845  160.6120  133.0874 H   0  0  0  0  0  0  0  0  0  0  0  0
  143.3248  161.7324  133.6865 H   0  0  0  0  0  0  0  0  0  0  0  0
  140.9472  161.1191  134.2249 H   0  0  0  0  0  0  0  0  0  0  0  0
  139.2959  159.5643  134.5179 H   0  0  0  0  0  0  0  0  0  0  0  0
  138.7160  158.0364  136.1914 H   0  0  0  0  0  0  0  0  0  0  0  0
  140.0402  156.8806  135.6876 H   0  0  0  0  0  0  0  0  0  0  0  0
  141.9789  156.8896  133.9477 H   0  0  0  0  0  0  0  0  0  0  0  0
  1  2  3  0
  2  3  1  0
  3  4  1  0
  4  5  1  0
  5  6  2  0
  5  7  1  0
  7  8  1  0
  8  9  1  0
  9 10  1  0
  9 11  2  0
  8 12  2  0
 12 13  1  0
 13 14  2  0
 14 15  1  0
 15 16  2  0
 16 17  1  0
 17 18  1  0
 18 19  1  0
 19 20  2  0
 19 21  1  0
 17 22  1  0
 22 23  2  0
 22 24  1  0
 16 25  1  0
 25 26  2  0
 26  7  1  0
 26 13  1  0
  1 27  1  0
  3 28  1  0
  3 29  1  0
 10 30  1  0
 10 31  1  0
 12 32  1  0
 14 33  1  0
 15 34  1  0
 17 35  1  1
 18 36  1  0
 18 37  1  0
 25 38  1  0
M  CHG  2  21  -1  24  -1
M  END
>  <UniqueID>  (2) 
2

>  <SMILES>  (2) 
C#CCOC(=O)n1c(C(N)=O)cc2ccc([C@H](CC(=O)[O-])C(=O)[O-])cc21

>  <Energy>  (2) 
73.36166191078573

>  <Genealogy>  (2) 
C#CCOC(=O)n1c(C(N)=O)cc2ccc(C(CC(=O)[O-])C(=O)[O-])cc21 (protonated)
C#CCOC(=O)n1c(C(N)=O)cc2ccc([C@H](CC(=O)[O-])C(=O)[O-])cc21 (chirality)
C#CCOC(=O)n1c(C(N)=O)cc2ccc([C@H](CC(=O)[O-])C(=O)[O-])cc21 (3D coordinates assigned)
C#CCOC(=O)n1c(C(N)=O)cc2ccc([C@H](CC(=O)[O-])C(=O)[O-])cc21 (optimized conformer: 73.36166191078573 kcal/mol)

>  <smiles>  (2) 
C#CCOC(=O)n1c(C(N)=O)cc2ccc(C(CC(=O)O)C(=O)O)cc21

>  <score_type>  (2) 
oracle

>  <origin>  (2) 
adg

>  <m_score__min__energy>  (2) 
-7.0599999999999996

>  <m_primary>  (2) 
energy

$$$$
2:0
     RDKit          3D

 30 31  0  0  0  0  0  0  0  0999 V2000
  149.5890  161.5690  130.3560 C   0  0  0  0  0  0  0  0  0  0  0  0
  148.8000  160.8390  131.3360 N   0  0  0  0  0  0  0  0  0  0  0  0
  149.0060  159.4520  131.6180 C   0  0  0  0  0  0  0  0  0  0  0  0
  149.2300  158.6380  130.6810 O   0  0  0  0  0  0  0  0  0  0  0  0
  149.0050  158.9750  133.0340 C   0  0  0  0  0  0  0  0  0  0  0  0
  147.6930  158.3170  133.3540 C   0  0  0  0  0  0  0  0  0  0  0  0
  146.4750  158.9750  133.0500 C   0  0  0  0  0  0  0  0  0  0  0  0
  145.2420  158.3790  133.3650 C   0  0  0  0  0  0  0  0  0  0  0  0
  145.2580  157.1390  133.9960 C   0  0  0  0  0  0  0  0  0  0  0  0
  144.2140  156.3340  134.3910 C   0  0  0  0  0  0  0  0  0  0  0  0
  144.8100  155.2120  134.9640 C   0  0  0  0  0  0  0  0  0  0  0  0
  144.0430  154.1250  135.6050 C   0  0  0  0  0  0  0  0  0  0  0  0
  144.2030  153.8330  136.9920 N   0  0  0  0  0  0  0  0  0  0  0  0
  143.1960  153.4790  134.9320 O   0  0  0  0  0  0  0  0  0  0  0  0
  146.1690  155.3150  134.9170 N   0  0  0  0  0  0  0  0  0  0  0  0
  147.1380  154.3310  135.3150 C   0  0  0  0  0  0  0  0  0  0  0  0
  148.1240  154.0730  134.5760 O   0  0  0  0  0  0  0  0  0  0  0  0
  146.9790  153.6330  136.5060 O   0  0  0  0  0  0  0  0  0  0  0  0
  146.4280  156.5020  134.3230 C   0  0  0  0  0  0  0  0  0  0  0  0
  147.6690  157.0630  134.0040 C   0  0  0  0  0  0  0  0  0  0  0  0
  150.3008  162.2275  130.8754 H   0  0  0  0  0  0  0  0  0  0  0  0
  150.1414  160.8565  129.7258 H   0  0  0  0  0  0  0  0  0  0  0  0
  148.9215  162.1750  129.7258 H   0  0  0  0  0  0  0  0  0  0  0  0
  149.8200  158.2498  133.1746 H   0  0  0  0  0  0  0  0  0  0  0  0
  149.1506  159.8348  133.7045 H   0  0  0  0  0  0  0  0  0  0  0  0
  146.4951  159.9612  132.5631 H   0  0  0  0  0  0  0  0  0  0  0  0
  144.2927  158.8778  133.1201 H   0  0  0  0  0  0  0  0  0  0  0  0
  143.1381  156.5336  134.2784 H   0  0  0  0  0  0  0  0  0  0  0  0
  145.0780  154.0920  137.4970 H   0  0  0  0  0  0  0  0  0  0  0  0
  148.6041  156.5401  134.2534 H   0  0  0  0  0  0  0  0  0  0  0  0
  1  2  1  0
  2  3  1  0
  3  4  2  0
  3  5  1  0
  5  6  1  0
  6  7  2  0
  7  8  1  0
  8  9  2  0
  9 10  1  0
 10 11  2  0
 11 12  1  0
 12 13  1  0
 12 14  2  0
 11 15  1  0
 15 16  1  0
 16 17  2  0
 16 18  1  0
 15 19  1  0
 19 20  2  0
 20  6  1  0
 19  9  1  0
  1 21  1  0
  1 22  1  0
  1 23  1  0
  5 24  1  0
  5 25  1  0
  7 26  1  0
  8 27  1  0
 10 28  1  0
 13 29  1  0
 20 30  1  0
M  CHG  3   2  -1  13  -1  18  -1
M  END
>  <UniqueID>  (3) 
3

>  <SMILES>  (3) 
C[N-]C(=O)Cc1ccc2cc(C([NH-])=O)n(C(=O)[O-])c2c1

>  <Energy>  (3) 
65.64243278189181

>  <Genealogy>  (3) 
C[N-]C(=O)Cc1ccc2cc(C([NH-])=O)n(C(=O)[O-])c2c1 (protonated)
C[N-]C(=O)Cc1ccc2cc(C([NH-])=O)n(C(=O)[O-])c2c1 (3D coordinates assigned)
C[N-]C(=O)Cc1ccc2cc(C([NH-])=O)n(C(=O)[O-])c2c1 (optimized conformer: 65.64243278189181 kcal/mol)

>  <smiles>  (3) 
CNC(=O)Cc1ccc2cc(C(N)=O)n(C(=O)O)c2c1

>  <score_type>  (3) 
oracle

>  <origin>  (3) 
adg

>  <m_score__min__energy>  (3) 
-6.4699999999999998

>  <m_primary>  (3) 
energy

$$$$
3:0
     RDKit          3D

 58 60  0  0  0  0  0  0  0  0999 V2000
  139.1420  158.0390  135.9960 C   0  0  0  0  0  0  0  0  0  0  0  0
  139.9120  157.1790  136.8080 O   0  0  0  0  0  0  0  0  0  0  0  0
  141.2020  157.7200  137.0200 C   0  0  0  0  0  0  0  0  0  0  0  0
  141.3730  159.0500  136.2770 C   0  0  0  0  0  0  0  0  0  0  0  0
  142.4660  158.9810  135.3620 O   0  0  0  0  0  0  0  0  0  0  0  0
  142.3090  158.8010  133.9820 C   0  0  0  0  0  0  0  0  0  0  0  0
  143.1560  159.2730  133.1750 O   0  0  0  0  0  0  0  0  0  0  0  0
  141.1880  158.0540  133.4870 N   0  0  0  0  0  0  0  0  0  0  0  0
  140.1250  158.5150  132.7670 C   0  0  0  0  0  0  0  0  0  0  0  0
  139.8170  159.9340  132.4780 C   0  0  0  0  0  0  0  0  0  0  0  0
  140.6240  160.9820  133.0030 N   0  0  0  0  0  0  0  0  0  0  0  0
  138.7940  160.2240  131.8000 O   0  0  0  0  0  0  0  0  0  0  0  0
  139.2950  157.4610  132.3930 C   0  0  0  0  0  0  0  0  0  0  0  0
  139.8800  156.3320  132.9160 C   0  0  0  0  0  0  0  0  0  0  0  0
  139.4880  154.9990  132.8210 C   0  0  0  0  0  0  0  0  0  0  0  0
  140.3070  154.0310  133.4240 C   0  0  0  0  0  0  0  0  0  0  0  0
  141.4930  154.4110  134.1040 C   0  0  0  0  0  0  0  0  0  0  0  0
  142.3930  153.3640  134.7000 C   0  0  0  0  0  0  0  0  0  0  0  0
  141.8260  151.9980  134.4770 C   0  0  0  0  0  0  0  0  0  0  0  0
  141.0570  151.4830  135.3390 O   0  0  0  0  0  0  0  0  0  0  0  0
  142.1650  151.3020  133.3150 O   0  0  0  0  0  0  0  0  0  0  0  0
  141.2540  151.1120  132.2340 C   0  0  0  0  0  0  0  0  0  0  0  0
  140.6170  149.7850  132.3410 N   0  0  0  0  0  0  0  0  0  0  0  0
  139.1330  149.8840  132.3740 C   0  0  0  0  0  0  0  0  0  0  0  0
  138.5070  149.6160  130.9950 C   0  0  0  0  0  0  0  0  0  0  0  0
  138.8290  148.2570  130.4980 N   0  0  0  0  0  0  0  0  0  0  0  0
  138.7650  148.2180  129.0280 C   0  0  0  0  0  0  0  0  0  0  0  0
  140.1310  147.7440  130.9890 C   0  0  0  0  0  0  0  0  0  0  0  0
  141.1240  148.8800  131.2810 C   0  0  0  0  0  0  0  0  0  0  0  0
  141.8620  155.7720  134.1650 C   0  0  0  0  0  0  0  0  0  0  0  0
  141.0190  156.7160  133.5730 C   0  0  0  0  0  0  0  0  0  0  0  0
  138.5439  158.7070  136.6333 H   0  0  0  0  0  0  0  0  0  0  0  0
  139.8101  158.6393  135.3609 H   0  0  0  0  0  0  0  0  0  0  0  0
  138.4718  157.4411  135.3609 H   0  0  0  0  0  0  0  0  0  0  0  0
  141.3478  157.8891  138.0971 H   0  0  0  0  0  0  0  0  0  0  0  0
  141.9466  157.0074  136.6356 H   0  0  0  0  0  0  0  0  0  0  0  0
  140.4506  159.2740  135.7211 H   0  0  0  0  0  0  0  0  0  0  0  0
  141.5778  159.8417  137.0127 H   0  0  0  0  0  0  0  0  0  0  0  0
  141.6040  160.8010  133.3220 H   0  0  0  0  0  0  0  0  0  0  0  0
  138.3678  157.5194  131.8040 H   0  0  0  0  0  0  0  0  0  0  0  0
  138.5672  154.7139  132.2911 H   0  0  0  0  0  0  0  0  0  0  0  0
  140.0268  152.9687  133.3688 H   0  0  0  0  0  0  0  0  0  0  0  0
  143.3840  153.4264  134.2267 H   0  0  0  0  0  0  0  0  0  0  0  0
  142.4780  153.5418  135.7822 H   0  0  0  0  0  0  0  0  0  0  0  0
  140.4794  151.8922  132.2684 H   0  0  0  0  0  0  0  0  0  0  0  0
  141.8028  151.1745  131.2827 H   0  0  0  0  0  0  0  0  0  0  0  0
  138.7436  149.1456  133.0903 H   0  0  0  0  0  0  0  0  0  0  0  0
  138.8674  150.9083  132.6745 H   0  0  0  0  0  0  0  0  0  0  0  0
  137.4145  149.7163  131.0745 H   0  0  0  0  0  0  0  0  0  0  0  0
  138.9208  150.3465  130.2843 H   0  0  0  0  0  0  0  0  0  0  0  0
  137.8646  147.6693  128.7146 H   0  0  0  0  0  0  0  0  0  0  0  0
  138.7239  149.2447  128.6354 H   0  0  0  0  0  0  0  0  0  0  0  0
  139.6587  147.7109  128.6354 H   0  0  0  0  0  0  0  0  0  0  0  0
  139.9619  147.1735  131.9142 H   0  0  0  0  0  0  0  0  0  0  0  0
  140.5639  147.1079  130.2029 H   0  0  0  0  0  0  0  0  0  0  0  0
  142.0792  148.4444  131.6095 H   0  0  0  0  0  0  0  0  0  0  0  0
  141.2578  149.4671  130.3604 H   0  0  0  0  0  0  0  0  0  0  0  0
  142.7907  156.0820  134.6664 H   0  0  0  0  0  0  0  0  0  0  0  0
  1  2  1  0
  2  3  1  0
  3  4  1  0
  4  5  1  0
  5  6  1  0
  6  7  2  0
  6  8  1  0
  8  9  1  0
  9 10  1  0
 10 11  1  0
 10 12  2  0
  9 13  2  0
 13 14  1  0
 14 15  2  0
 15 16  1  0
 16 17  2  0
 17 18  1  0
 18 19  1  0
 19 20  2  0
 19 21  1  0
 21 22  1  0
 22 23  1  0
 23 24  1  0
 24 25  1  0
 25 26  1  0
 26 27  1  0
 26 28  1  0
 28 29  1  0
 17 30  1  0
 30 31  2  0
 31  8  1  0
 31 14  1  0
 29 23  1  0
  1 32  1  0
  1 33  1  0
  1 34  1  0
  3 35  1  0
  3 36  1  0
  4 37  1  0
  4 38  1  0
 11 39  1  0
 13 40  1  0
 15 41  1  0
 16 42  1  0
 18 43  1  0
 18 44  1  0
 22 45  1  0
 22 46  1  0
 24 47  1  0
 24 48  1  0
 25 49  1  0
 25 50  1  0
 27 51  1  0
 27 52  1  0
 27 53  1  0
 28 54  1  0
 28 55  1  0
 29 56  1  0
 29 57  1  0
 30 58  1  0
M  CHG  1  11  -1
M  END
>  <UniqueID>  (4) 
4

>  <SMILES>  (4) 
COCCOC(=O)n1c(C([NH-])=O)cc2ccc(CC(=O)OCN3CCN(C)CC3)cc21

>  <Energy>  (4) 
104.74427514272296

>  <Genealogy>  (4) 
COCCOC(=O)n1c(C([NH-])=O)cc2ccc(CC(=O)OCN3CCN(C)CC3)cc21 (protonated)
COCCOC(=O)n1c(C([NH-])=O)cc2ccc(CC(=O)OCN3CCN(C)CC3)cc21 (3D coordinates assigned)
COCCOC(=O)n1c(C([NH-])=O)cc2ccc(CC(=O)OCN3CCN(C)CC3)cc21 (nonaromatic ring conformer: 104.74427514272296 kcal/mol)

>  <smiles>  (4) 
COCCOC(=O)n1c(C(N)=O)cc2ccc(CC(=O)OCN3CCN(C)CC3)cc21

>  <score_type>  (4) 
oracle

>  <origin>  (4) 
adg

>  <m_score__min__energy>  (4) 
-7.5300000000000002

>  <m_primary>  (4) 
energy

$$$$
4:0
     RDKit          3D

 26 27  0  0  0  0  0  0  0  0999 V2000
  149.9430  160.4770  130.1420 N   0  0  0  0  0  0  0  0  0  0  0  0
  148.9610  160.4940  131.1750 C   0  0  0  0  0  0  0  0  0  0  0  0
  148.4580  161.5920  131.5320 O   0  0  0  0  0  0  0  0  0  0  0  0
  148.5780  159.2330  131.8450 C   0  0  0  0  0  0  0  0  0  0  0  0
  149.2650  158.0340  131.6720 C   0  0  0  0  0  0  0  0  0  0  0  0
  148.6600  157.1400  132.5250 C   0  0  0  0  0  0  0  0  0  0  0  0
  148.9310  155.7930  132.7490 C   0  0  0  0  0  0  0  0  0  0  0  0
  148.1230  155.1030  133.6680 C   0  0  0  0  0  0  0  0  0  0  0  0
  147.0700  155.7670  134.3430 C   0  0  0  0  0  0  0  0  0  0  0  0
  146.1840  155.0060  135.2900 C   0  0  0  0  0  0  0  0  0  0  0  0
  147.0150  154.2740  136.2940 C   0  0  0  0  0  0  0  0  0  0  0  0
  148.0960  154.7710  136.7070 O   0  0  0  0  0  0  0  0  0  0  0  0
  146.6200  153.0190  136.7410 O   0  0  0  0  0  0  0  0  0  0  0  0
  146.8170  157.1310  134.0820 C   0  0  0  0  0  0  0  0  0  0  0  0
  147.6480  157.7990  133.1750 C   0  0  0  0  0  0  0  0  0  0  0  0
  147.5820  159.0860  132.7660 N   0  0  0  0  0  0  0  0  0  0  0  0
  146.6060  160.0620  133.1690 C   0  0  0  0  0  0  0  0  0  0  0  0
  146.9670  161.1260  133.7370 O   0  0  0  0  0  0  0  0  0  0  0  0
  145.2520  159.8280  132.9620 O   0  0  0  0  0  0  0  0  0  0  0  0
  150.9070  160.8420  130.3130 H   0  0  0  0  0  0  0  0  0  0  0  0
  150.1118  157.8424  130.9966 H   0  0  0  0  0  0  0  0  0  0  0  0
  149.7524  155.2847  132.2227 H   0  0  0  0  0  0  0  0  0  0  0  0
  148.3100  154.0371  133.8651 H   0  0  0  0  0  0  0  0  0  0  0  0
  145.5193  155.7102  135.8118 H   0  0  0  0  0  0  0  0  0  0  0  0
  145.5861  154.2802  134.7193 H   0  0  0  0  0  0  0  0  0  0  0  0
  145.9877  157.6558  134.5789 H   0  0  0  0  0  0  0  0  0  0  0  0
  1  2  1  0
  2  3  2  0
  2  4  1  0
  4  5  2  0
  5  6  1  0
  6  7  2  0
  7  8  1  0
  8  9  2  0
  9 10  1  0
 10 11  1  0
 11 12  2  0
 11 13  1  0
  9 14  1  0
 14 15  2  0
 15 16  1  0
 16 17  1  0
 17 18  2  0
 17 19  1  0
 16  4  1  0
 15  6  1  0
  1 20  1  0
  5 21  1  0
  7 22  1  0
  8 23  1  0
 10 24  1  0
 10 25  1  0
 14 26  1  0
M  CHG  3   1  -1  13  -1  19  -1
M  END
>  <UniqueID>  (5) 
5

>  <SMILES>  (5) 
[NH-]C(=O)c1cc2ccc(CC(=O)[O-])cc2n1C(=O)[O-]

>  <Energy>  (5) 
64.30528475957914

>  <Genealogy>  (5) 
[NH-]C(=O)c1cc2ccc(CC(=O)[O-])cc2n1C(=O)[O-] (protonated)
[NH-]C(=O)c1cc2ccc(CC(=O)[O-])cc2n1C(=O)[O-] (3D coordinates assigned)
[NH-]C(=O)c1cc2ccc(CC(=O)[O-])cc2n1C(=O)[O-] (optimized conformer: 64.30528475957914 kcal/mol)

>  <smiles>  (5) 
NC(=O)c1cc2ccc(CC(=O)O)cc2n1C(=O)O

>  <score_type>  (5) 
oracle

>  <origin>  (5) 
adg

>  <m_score__min__energy>  (5) 
-6.3499999999999996

>  <m_primary>  (5) 
energy

$$$$
5:0
     RDKit          3D

 44 45  0  0  0  0  0  0  0  0999 V2000
  140.2240  158.2410  136.7390 C   0  0  0  0  0  0  0  0  0  0  0  0
  141.0420  159.2080  136.3170 C   0  0  0  0  0  0  0  0  0  0  0  0
  141.5430  159.2350  134.9060 C   0  0  0  0  0  0  0  0  0  0  0  0
  142.9380  158.9540  134.8910 O   0  0  0  0  0  0  0  0  0  0  0  0
  143.6470  158.6970  133.7140 C   0  0  0  0  0  0  0  0  0  0  0  0
  143.1060  158.0530  132.7730 O   0  0  0  0  0  0  0  0  0  0  0  0
  145.0050  159.1440  133.5920 N   0  0  0  0  0  0  0  0  0  0  0  0
  145.4700  160.4260  133.5740 C   0  0  0  0  0  0  0  0  0  0  0  0
  144.6730  161.6450  133.8290 C   0  0  0  0  0  0  0  0  0  0  0  0
  143.2510  161.6250  133.7330 N   0  0  0  0  0  0  0  0  0  0  0  0
  145.2520  162.7050  134.1880 O   0  0  0  0  0  0  0  0  0  0  0  0
  146.8470  160.4440  133.3640 C   0  0  0  0  0  0  0  0  0  0  0  0
  147.2190  159.1220  133.2650 C   0  0  0  0  0  0  0  0  0  0  0  0
  148.4740  158.5580  133.0580 C   0  0  0  0  0  0  0  0  0  0  0  0
  148.5620  157.1590  132.9820 C   0  0  0  0  0  0  0  0  0  0  0  0
  147.4010  156.3550  133.1010 C   0  0  0  0  0  0  0  0  0  0  0  0
  147.5050  154.8540  133.0400 C   0  0  0  0  0  0  0  0  0  0  0  0
  146.1810  154.1560  133.4100 C   0  0  0  0  0  0  0  0  0  0  0  0
  145.5030  153.5410  132.2340 N   0  0  0  0  0  0  0  0  0  0  0  0
  144.8140  152.2900  132.6030 C   0  0  0  0  0  0  0  0  0  0  0  0
  144.5270  154.4790  131.6490 C   0  0  0  0  0  0  0  0  0  0  0  0
  146.1430  156.9630  133.3070 C   0  0  0  0  0  0  0  0  0  0  0  0
  146.0880  158.3590  133.4030 C   0  0  0  0  0  0  0  0  0  0  0  0
  139.8665  158.2381  137.7793 H   0  0  0  0  0  0  0  0  0  0  0  0
  139.9075  157.4472  136.0464 H   0  0  0  0  0  0  0  0  0  0  0  0
  141.3530  159.9975  137.0169 H   0  0  0  0  0  0  0  0  0  0  0  0
  141.0101  158.4768  134.3134 H   0  0  0  0  0  0  0  0  0  0  0  0
  141.3655  160.2307  134.4736 H   0  0  0  0  0  0  0  0  0  0  0  0
  142.7310  160.7240  133.6500 H   0  0  0  0  0  0  0  0  0  0  0  0
  147.4989  161.3271  133.2924 H   0  0  0  0  0  0  0  0  0  0  0  0
  149.3695  159.1888  132.9570 H   0  0  0  0  0  0  0  0  0  0  0  0
  149.5414  156.6823  132.8286 H   0  0  0  0  0  0  0  0  0  0  0  0
  147.7848  154.5609  132.0174 H   0  0  0  0  0  0  0  0  0  0  0  0
  148.2643  154.5411  133.7718 H   0  0  0  0  0  0  0  0  0  0  0  0
  146.3939  153.3662  134.1455 H   0  0  0  0  0  0  0  0  0  0  0  0
  145.5056  154.9226  133.8176 H   0  0  0  0  0  0  0  0  0  0  0  0
  146.2010  153.3190  131.4850 H   0  0  0  0  0  0  0  0  0  0  0  0
  144.7679  152.2063  133.6988 H   0  0  0  0  0  0  0  0  0  0  0  0
  143.7934  152.2987  132.1927 H   0  0  0  0  0  0  0  0  0  0  0  0
  145.3669  151.4321  132.1927 H   0  0  0  0  0  0  0  0  0  0  0  0
  143.9877  154.9973  132.4556 H   0  0  0  0  0  0  0  0  0  0  0  0
  145.0550  155.2173  131.0275 H   0  0  0  0  0  0  0  0  0  0  0  0
  143.8103  153.9221  131.0275 H   0  0  0  0  0  0  0  0  0  0  0  0
  145.2297  156.3555  133.3899 H   0  0  0  0  0  0  0  0  0  0  0  0
  1  2  2  0
  2  3  1  0
  3  4  1  0
  4  5  1  0
  5  6  2  0
  5  7  1  0
  7  8  1  0
  8  9  1  0
  9 10  1  0
  9 11  2  0
  8 12  2  0
 12 13  1  0
 13 14  2  0
 14 15  1  0
 15 16  2  0
 16 17  1  0
 17 18  1  0
 18 19  1  0
 19 20  1  0
 19 21  1  0
 16 22  1  0
 22 23  2  0
 23  7  1  0
 23 13  1  0
  1 24  1  0
  1 25  1  0
  2 26  1  0
  3 27  1  0
  3 28  1  0
 10 29  1  0
 12 30  1  0
 14 31  1  0
 15 32  1  0
 17 33  1  0
 17 34  1  0
 18 35  1  0
 18 36  1  0
 19 37  1  0
 20 38  1  0
 20 39  1  0
 20 40  1  0
 21 41  1  0
 21 42  1  0
 21 43  1  0
 22 44  1  0
M  CHG  2  10  -1  19   1
M  END
>  <UniqueID>  (6) 
6

>  <SMILES>  (6) 
C=CCOC(=O)n1c(C([NH-])=O)cc2ccc(CC[NH+](C)C)cc21

>  <Energy>  (6) 
78.04574147050721

>  <Genealogy>  (6) 
C=CCOC(=O)n1c(C([NH-])=O)cc2ccc(CC[NH+](C)C)cc21 (protonated)
C=CCOC(=O)n1c(C([NH-])=O)cc2ccc(CC[NH+](C)C)cc21 (3D coordinates assigned)
C=CCOC(=O)n1c(C([NH-])=O)cc2ccc(CC[NH+](C)C)cc21 (optimized conformer: 78.04574147050721 kcal/mol)

>  <smiles>  (6) 
C=CCOC(=O)n1c(C(N)=O)cc2ccc(CCN(C)C)cc21

>  <score_type>  (6) 
oracle

>  <origin>  (6) 
adg

>  <m_score__min__energy>  (6) 
-6.6900000000000004

>  <m_primary>  (6) 
energy

$$$$
6:0
     RDKit          3D

 56 57  0  0  0  0  0  0  0  0999 V2000
  139.0940  146.9000  129.9860 C   0  0  0  0  0  0  0  0  0  0  0  0
  138.7330  148.2910  129.4780 C   0  0  0  0  0  0  0  0  0  0  0  0
  139.1070  149.2880  130.4270 O   0  0  0  0  0  0  0  0  0  0  0  0
  140.4330  149.5510  130.7850 C   0  0  0  0  0  0  0  0  0  0  0  0
  141.3670  148.8000  130.3870 O   0  0  0  0  0  0  0  0  0  0  0  0
  140.7070  150.6590  131.5920 O   0  0  0  0  0  0  0  0  0  0  0  0
  140.7630  150.6010  133.0190 C   0  0  1  0  0  0  0  0  0  0  0  0
  140.2570  149.2480  133.5120 C   0  0  0  0  0  0  0  0  0  0  0  0
  142.1110  150.7700  133.4470 O   0  0  0  0  0  0  0  0  0  0  0  0
  142.9370  151.7960  132.9780 C   0  0  0  0  0  0  0  0  0  0  0  0
  144.1750  151.6090  132.8230 O   0  0  0  0  0  0  0  0  0  0  0  0
  142.3340  153.1200  132.6200 C   0  0  0  0  0  0  0  0  0  0  0  0
  142.2800  154.0630  133.8290 C   0  0  0  0  0  0  0  0  0  0  0  0
  143.3240  153.7020  134.8960 C   0  0  0  0  0  0  0  0  0  0  0  0
  144.5720  154.5210  134.7110 C   0  0  0  0  0  0  0  0  0  0  0  0
  145.8420  153.9680  135.0120 C   0  0  0  0  0  0  0  0  0  0  0  0
  147.0130  154.7220  134.8320 C   0  0  0  0  0  0  0  0  0  0  0  0
  146.8850  156.0150  134.3310 C   0  0  0  0  0  0  0  0  0  0  0  0
  147.8480  156.9640  134.0760 C   0  0  0  0  0  0  0  0  0  0  0  0
  147.1560  158.0700  133.5860 C   0  0  0  0  0  0  0  0  0  0  0  0
  147.8210  159.2970  133.1000 C   0  0  0  0  0  0  0  0  0  0  0  0
  147.3910  159.9020  131.8830 N   0  0  0  0  0  0  0  0  0  0  0  0
  148.7400  159.8400  133.7670 O   0  0  0  0  0  0  0  0  0  0  0  0
  145.8170  157.8160  133.5440 N   0  0  0  0  0  0  0  0  0  0  0  0
  144.7640  158.7150  133.1620 C   0  0  0  0  0  0  0  0  0  0  0  0
  143.6600  158.2540  132.7610 O   0  0  0  0  0  0  0  0  0  0  0  0
  144.9640  160.0970  133.2480 O   0  0  0  0  0  0  0  0  0  0  0  0
  144.3910  160.9110  134.2690 C   0  0  0  0  0  0  0  0  0  0  0  0
  145.2260  162.1660  134.4910 C   0  0  0  0  0  0  0  0  0  0  0  0
  145.6680  156.5540  134.0030 C   0  0  0  0  0  0  0  0  0  0  0  0
  144.4830  155.8330  134.1940 C   0  0  0  0  0  0  0  0  0  0  0  0
  139.0940  146.8999  131.0860 H   0  0  0  0  0  0  0  0  0  0  0  0
  138.3549  146.1725  129.6193 H   0  0  0  0  0  0  0  0  0  0  0  0
  140.0936  146.6237  129.6193 H   0  0  0  0  0  0  0  0  0  0  0  0
  139.2610  148.4778  128.5312 H   0  0  0  0  0  0  0  0  0  0  0  0
  137.6448  148.3397  129.3247 H   0  0  0  0  0  0  0  0  0  0  0  0
  140.1300  151.4006  133.4312 H   0  0  0  0  0  0  0  0  0  0  0  0
  140.2528  149.2367  134.6119 H   0  0  0  0  0  0  0  0  0  0  0  0
  139.2355  149.0807  133.1397 H   0  0  0  0  0  0  0  0  0  0  0  0
  140.9180  148.4515  133.1397 H   0  0  0  0  0  0  0  0  0  0  0  0
  142.9412  153.5867  131.8304 H   0  0  0  0  0  0  0  0  0  0  0  0
  141.3045  152.9461  132.2738 H   0  0  0  0  0  0  0  0  0  0  0  0
  142.4668  155.0909  133.4847 H   0  0  0  0  0  0  0  0  0  0  0  0
  141.2841  153.9676  134.2863 H   0  0  0  0  0  0  0  0  0  0  0  0
  142.9054  153.9006  135.8937 H   0  0  0  0  0  0  0  0  0  0  0  0
  143.5799  152.6368  134.7970 H   0  0  0  0  0  0  0  0  0  0  0  0
  145.9110  152.9375  135.3905 H   0  0  0  0  0  0  0  0  0  0  0  0
  148.0002  154.3044  135.0790 H   0  0  0  0  0  0  0  0  0  0  0  0
  148.9335  156.8698  134.2269 H   0  0  0  0  0  0  0  0  0  0  0  0
  146.5520  160.5240  131.8600 H   0  0  0  0  0  0  0  0  0  0  0  0
  143.3736  161.2028  133.9694 H   0  0  0  0  0  0  0  0  0  0  0  0
  144.3633  160.3351  135.2058 H   0  0  0  0  0  0  0  0  0  0  0  0
  145.3432  162.3422  135.5704 H   0  0  0  0  0  0  0  0  0  0  0  0
  146.2166  162.0334  134.0314 H   0  0  0  0  0  0  0  0  0  0  0  0
  144.7210  163.0284  134.0314 H   0  0  0  0  0  0  0  0  0  0  0  0
  143.5071  156.2769  133.9477 H   0  0  0  0  0  0  0  0  0  0  0  0
  1  2  1  0
  2  3  1  0
  3  4  1  0
  4  5  2  0
  4  6  1  0
  6  7  1  0
  7  8  1  0
  7  9  1  0
  9 10  1  0
 10 11  2  0
 10 12  1  0
 12 13  1  0
 13 14  1  0
 14 15  1  0
 15 16  2  0
 16 17  1  0
 17 18  2  0
 18 19  1  0
 19 20  2  0
 20 21  1  0
 21 22  1  0
 21 23  2  0
 20 24  1  0
 24 25  1  0
 25 26  2  0
 25 27  1  0
 27 28  1  0
 28 29  1  0
 24 30  1  0
 30 31  2  0
 31 15  1  0
 30 18  1  0
  1 32  1  0
  1 33  1  0
  1 34  1  0
  2 35  1  0
  2 36  1  0
  7 37  1  1
  8 38  1  0
  8 39  1  0
  8 40  1  0
 12 41  1  0
 12 42  1  0
 13 43  1  0
 13 44  1  0
 14 45  1  0
 14 46  1  0
 16 47  1  0
 17 48  1  0
 19 49  1  0
 22 50  1  0
 28 51  1  0
 28 52  1  0
 29 53  1  0
 29 54  1  0
 29 55  1  0
 31 56  1  0
M  CHG  1  22  -1
M  END
>  <UniqueID>  (7) 
7

>  <SMILES>  (7) 
CCOC(=O)O[C@@H](C)OC(=O)CCCc1ccc2cc(C([NH-])=O)n(C(=O)OCC)c2c1

>  <Energy>  (7) 
75.10246203604488

>  <Genealogy>  (7) 
CCOC(=O)OC(C)OC(=O)CCCc1ccc2cc(C([NH-])=O)n(C(=O)OCC)c2c1 (protonated)
CCOC(=O)O[C@@H](C)OC(=O)CCCc1ccc2cc(C([NH-])=O)n(C(=O)OCC)c2c1 (chirality)
CCOC(=O)O[C@@H](C)OC(=O)CCCc1ccc2cc(C([NH-])=O)n(C(=O)OCC)c2c1 (3D coordinates assigned)
CCOC(=O)O[C@@H](C)OC(=O)CCCc1ccc2cc(C([NH-])=O)n(C(=O)OCC)c2c1 (optimized conformer: 75.10246203604488 kcal/mol)

>  <smiles>  (7) 
CCOC(=O)OC(C)OC(=O)CCCc1ccc2cc(C(N)=O)n(C(=O)OCC)c2c1

>  <score_type>  (7) 
oracle

>  <origin>  (7) 
adg

>  <m_score__min__energy>  (7) 
-6.6799999999999997

>  <m_primary>  (7) 
energy

$$$$
7:0
     RDKit          3D

 43 45  0  0  0  0  0  0  0  0999 V2000
  142.3130  155.1780  133.7960 C   0  0  0  0  0  0  0  0  0  0  0  0
  143.5710  155.0600  133.3640 C   0  0  0  0  0  0  0  0  0  0  0  0
  144.6930  154.6550  134.2790 C   0  0  0  0  0  0  0  0  0  0  0  0
  145.6210  155.7270  134.4210 O   0  0  0  0  0  0  0  0  0  0  0  0
  146.0600  156.5120  133.3490 C   0  0  0  0  0  0  0  0  0  0  0  0
  146.4440  155.9580  132.2840 O   0  0  0  0  0  0  0  0  0  0  0  0
  146.0360  157.9500  133.4520 N   0  0  0  0  0  0  0  0  0  0  0  0
  147.0500  158.8160  133.1710 C   0  0  0  0  0  0  0  0  0  0  0  0
  148.4290  158.4420  132.8180 C   0  0  0  0  0  0  0  0  0  0  0  0
  148.6820  157.4260  131.8490 N   0  0  0  0  0  0  0  0  0  0  0  0
  149.3930  158.9830  133.4210 O   0  0  0  0  0  0  0  0  0  0  0  0
  146.6040  160.1330  133.2010 C   0  0  0  0  0  0  0  0  0  0  0  0
  145.2750  160.0550  133.5410 C   0  0  0  0  0  0  0  0  0  0  0  0
  144.3430  161.0710  133.7340 C   0  0  0  0  0  0  0  0  0  0  0  0
  143.0370  160.7070  134.0960 C   0  0  0  0  0  0  0  0  0  0  0  0
  142.6850  159.3430  134.2620 C   0  0  0  0  0  0  0  0  0  0  0  0
  141.3500  158.9780  134.6570 N   0  0  0  0  0  0  0  0  0  0  0  0
  140.2690  158.9330  133.6630 C   0  0  0  0  0  0  0  0  0  0  0  0
  139.2790  157.7830  133.9600 C   0  0  0  0  0  0  0  0  0  0  0  0
  139.5120  157.1360  135.2000 O   0  0  0  0  0  0  0  0  0  0  0  0
  139.6740  158.0940  136.2250 C   0  0  0  0  0  0  0  0  0  0  0  0
  141.0360  158.7720  136.0750 C   0  0  0  0  0  0  0  0  0  0  0  0
  143.6620  158.3420  134.0650 C   0  0  0  0  0  0  0  0  0  0  0  0
  144.9540  158.7300  133.6870 C   0  0  0  0  0  0  0  0  0  0  0  0
  141.5174  155.4766  133.0976 H   0  0  0  0  0  0  0  0  0  0  0  0
  142.0724  154.9766  134.8503 H   0  0  0  0  0  0  0  0  0  0  0  0
  143.7931  155.2654  132.3064 H   0  0  0  0  0  0  0  0  0  0  0  0
  144.2821  154.3965  135.2661 H   0  0  0  0  0  0  0  0  0  0  0  0
  145.2113  153.7850  133.8495 H   0  0  0  0  0  0  0  0  0  0  0  0
  149.6620  157.1680  131.6000 H   0  0  0  0  0  0  0  0  0  0  0  0
  147.8950  156.8900  131.4220 H   0  0  0  0  0  0  0  0  0  0  0  0
  147.1893  161.0416  132.9965 H   0  0  0  0  0  0  0  0  0  0  0  0
  144.6220  162.1274  133.6065 H   0  0  0  0  0  0  0  0  0  0  0  0
  142.2782  161.4878  134.2527 H   0  0  0  0  0  0  0  0  0  0  0  0
  139.7244  159.8885  133.6827 H   0  0  0  0  0  0  0  0  0  0  0  0
  140.7154  158.7593  132.6728 H   0  0  0  0  0  0  0  0  0  0  0  0
  138.2596  158.1963  133.9701 H   0  0  0  0  0  0  0  0  0  0  0  0
  139.4181  157.0278  133.1724 H   0  0  0  0  0  0  0  0  0  0  0  0
  138.8778  158.8493  136.1507 H   0  0  0  0  0  0  0  0  0  0  0  0
  139.6165  157.5974  137.2048 H   0  0  0  0  0  0  0  0  0  0  0  0
  141.0149  159.7454  136.5869 H   0  0  0  0  0  0  0  0  0  0  0  0
  141.8072  158.1273  136.5217 H   0  0  0  0  0  0  0  0  0  0  0  0
  143.4135  157.2797  134.2055 H   0  0  0  0  0  0  0  0  0  0  0  0
  1  2  2  0
  2  3  1  0
  3  4  1  0
  4  5  1  0
  5  6  2  0
  5  7  1  0
  7  8  1  0
  8  9  1  0
  9 10  1  0
  9 11  2  0
  8 12  2  0
 12 13  1  0
 13 14  2  0
 14 15  1  0
 15 16  2  0
 16 17  1  0
 17 18  1  0
 18 19  1  0
 19 20  1  0
 20 21  1  0
 21 22  1  0
 16 23  1  0
 23 24  2  0
 24  7  1  0
 24 13  1  0
 22 17  1  0
  1 25  1  0
  1 26  1  0
  2 27  1  0
  3 28  1  0
  3 29  1  0
 10 30  1  0
 10 31  1  0
 12 32  1  0
 14 33  1  0
 15 34  1  0
 18 35  1  0
 18 36  1  0
 19 37  1  0
 19 38  1  0
 21 39  1  0
 21 40  1  0
 22 41  1  0
 22 42  1  0
 23 43  1  0
M  END
>  <UniqueID>  (8) 
8

>  <SMILES>  (8) 
C=CCOC(=O)n1c(C(N)=O)cc2ccc(N3CCOCC3)cc21

>  <Energy>  (8) 
93.48733155886723

>  <Genealogy>  (8) 
C=CCOC(=O)n1c(C(N)=O)cc2ccc(N3CCOCC3)cc21 (3D coordinates assigned)
C=CCOC(=O)n1c(C(N)=O)cc2ccc(N3CCOCC3)cc21 (nonaromatic ring conformer: 93.48733155886723 kcal/mol)

>  <smiles>  (8) 
C=CCOC(=O)n1c(C(N)=O)cc2ccc(N3CCOCC3)cc21

>  <score_type>  (8) 
oracle

>  <origin>  (8) 
adg

>  <m_score__min__energy>  (8) 
-7.3700000000000001

>  <m_primary>  (8) 
energy

$$$$
8:0
     RDKit          3D

 50 53  0  0  0  0  0  0  0  0999 V2000
  142.7620  155.5600  134.9910 C   0  0  0  0  0  0  0  0  0  0  0  0
  143.9520  154.8470  135.6250 C   0  0  0  0  0  0  0  0  0  0  0  0
  144.8070  154.3020  134.6220 O   0  0  0  0  0  0  0  0  0  0  0  0
  145.1430  154.9750  133.4440 C   0  0  0  0  0  0  0  0  0  0  0  0
  144.4100  154.8850  132.4210 O   0  0  0  0  0  0  0  0  0  0  0  0
  146.3030  155.8170  133.4080 N   0  0  0  0  0  0  0  0  0  0  0  0
  147.5980  155.4470  133.2120 C   0  0  0  0  0  0  0  0  0  0  0  0
  148.0790  154.0620  133.0530 C   0  0  0  0  0  0  0  0  0  0  0  0
  147.3270  152.9570  133.5510 N   0  0  0  0  0  0  0  0  0  0  0  0
  149.2020  153.8570  132.5180 O   0  0  0  0  0  0  0  0  0  0  0  0
  148.4090  156.5680  133.0500 C   0  0  0  0  0  0  0  0  0  0  0  0
  147.5630  157.6480  133.1680 C   0  0  0  0  0  0  0  0  0  0  0  0
  147.8300  159.0130  133.0970 C   0  0  0  0  0  0  0  0  0  0  0  0
  146.7510  159.9040  133.2470 C   0  0  0  0  0  0  0  0  0  0  0  0
  145.4340  159.4160  133.4440 C   0  0  0  0  0  0  0  0  0  0  0  0
  144.2940  160.3730  133.6530 C   0  0  0  0  0  0  0  0  0  0  0  0
  143.1250  159.6500  134.1410 N   0  0  0  0  0  0  0  0  0  0  0  0
  142.1350  159.1390  133.3670 C   0  0  0  0  0  0  0  0  0  0  0  0
  141.1890  158.6240  134.2200 C   0  0  0  0  0  0  0  0  0  0  0  0
  139.9660  157.9960  134.0400 C   0  0  0  0  0  0  0  0  0  0  0  0
  139.4630  157.7350  132.7250 N   0  0  0  0  0  0  0  0  0  0  0  0
  139.1060  158.7310  131.7640 C   0  0  0  0  0  0  0  0  0  0  0  0
  139.9450  159.0630  130.8850 O   0  0  0  0  0  0  0  0  0  0  0  0
  137.8460  159.3400  131.8030 O   0  0  0  0  0  0  0  0  0  0  0  0
  137.3400  160.1280  130.7310 C   0  0  0  0  0  0  0  0  0  0  0  0
  139.2740  157.6340  135.1630 N   0  0  0  0  0  0  0  0  0  0  0  0
  139.7650  157.8840  136.4200 C   0  0  0  0  0  0  0  0  0  0  0  0
  140.9700  158.5090  136.5830 N   0  0  0  0  0  0  0  0  0  0  0  0
  141.6590  158.8650  135.4730 C   0  0  0  0  0  0  0  0  0  0  0  0
  142.8410  159.5000  135.4330 N   0  0  0  0  0  0  0  0  0  0  0  0
  145.2040  158.0260  133.5150 C   0  0  0  0  0  0  0  0  0  0  0  0
  146.2970  157.1660  133.3710 C   0  0  0  0  0  0  0  0  0  0  0  0
  142.1061  155.9530  135.7818 H   0  0  0  0  0  0  0  0  0  0  0  0
  143.1224  156.3911  134.3670 H   0  0  0  0  0  0  0  0  0  0  0  0
  142.1992  154.8502  134.3670 H   0  0  0  0  0  0  0  0  0  0  0  0
  144.5212  155.5656  136.2330 H   0  0  0  0  0  0  0  0  0  0  0  0
  143.5777  154.0261  136.2543 H   0  0  0  0  0  0  0  0  0  0  0  0
  146.5530  153.1030  134.2340 H   0  0  0  0  0  0  0  0  0  0  0  0
  147.6410  151.9800  133.3580 H   0  0  0  0  0  0  0  0  0  0  0  0
  149.4935  156.5865  132.8669 H   0  0  0  0  0  0  0  0  0  0  0  0
  148.8522  159.3831  132.9290 H   0  0  0  0  0  0  0  0  0  0  0  0
  146.9307  160.9886  133.2111 H   0  0  0  0  0  0  0  0  0  0  0  0
  144.5869  161.1342  134.3910 H   0  0  0  0  0  0  0  0  0  0  0  0
  144.0477  160.8587  132.6973 H   0  0  0  0  0  0  0  0  0  0  0  0
  142.0969  159.1373  132.2677 H   0  0  0  0  0  0  0  0  0  0  0  0
  136.7876  160.9882  131.1372 H   0  0  0  0  0  0  0  0  0  0  0  0
  138.1764  160.4877  130.1137 H   0  0  0  0  0  0  0  0  0  0  0  0
  136.6649  159.5171  130.1137 H   0  0  0  0  0  0  0  0  0  0  0  0
  139.1845  157.5791  137.3032 H   0  0  0  0  0  0  0  0  0  0  0  0
  144.1913  157.6291  133.6793 H   0  0  0  0  0  0  0  0  0  0  0  0
  1  2  1  0
  2  3  1  0
  3  4  1  0
  4  5  2  0
  4  6  1  0
  6  7  1  0
  7  8  1  0
  8  9  1  0
  8 10  2  0
  7 11  2  0
 11 12  1  0
 12 13  2  0
 13 14  1  0
 14 15  2  0
 15 16  1  0
 16 17  1  0
 17 18  1  0
 18 19  2  0
 19 20  1  0
 20 21  1  0
 21 22  1  0
 22 23  2  0
 22 24  1  0
 24 25  1  0
 20 26  2  0
 26 27  1  0
 27 28  2  0
 28 29  1  0
 29 30  2  0
 15 31  1  0
 31 32  2  0
 32  6  1  0
 32 12  1  0
 30 17  1  0
 29 19  1  0
  1 33  1  0
  1 34  1  0
  1 35  1  0
  2 36  1  0
  2 37  1  0
  9 38  1  0
  9 39  1  0
 11 40  1  0
 13 41  1  0
 14 42  1  0
 16 43  1  0
 16 44  1  0
 18 45  1  0
 25 46  1  0
 25 47  1  0
 25 48  1  0
 27 49  1  0
 31 50  1  0
M  CHG  1  21  -1
M  END
>  <UniqueID>  (9) 
9

>  <SMILES>  (9) 
CCOC(=O)n1c(C(N)=O)cc2ccc(Cn3cc4c([N-]C(=O)OC)ncnc4n3)cc21

>  <Energy>  (9) 
131.2385389753351

>  <Genealogy>  (9) 
CCOC(=O)n1c(C(N)=O)cc2ccc(Cn3cc4c([N-]C(=O)OC)ncnc4n3)cc21 (protonated)
CCOC(=O)n1c(C(N)=O)cc2ccc(Cn3cc4c([N-]C(=O)OC)ncnc4n3)cc21 (3D coordinates assigned)
CCOC(=O)n1c(C(N)=O)cc2ccc(Cn3cc4c([N-]C(=O)OC)ncnc4n3)cc21 (optimized conformer: 131.2385389753351 kcal/mol)

>  <smiles>  (9) 
CCOC(=O)n1c(C(N)=O)cc2ccc(Cn3cc4c(NC(=O)OC)ncnc4n3)cc21

>  <score_type>  (9) 
oracle

>  <origin>  (9) 
adg

>  <m_score__min__energy>  (9) 
-8.3399999999999999

>  <m_primary>  (9) 
energy

$$$$
9:0
     RDKit          3D

 34 35  0  0  0  0  0  0  0  0999 V2000
  139.4350  155.2380  132.9930 C   0  0  0  0  0  0  0  0  0  0  0  0
  140.6960  156.4910  133.0620 S   0  0  0  0  0  0  0  0  0  0  0  0
  142.2250  155.7980  133.1470 O   0  0  0  0  0  0  0  0  0  0  0  0
  140.4310  157.6470  134.3980 C   0  0  0  0  0  0  0  0  0  0  0  0
  140.5420  159.0920  133.9120 C   0  0  0  0  0  0  0  0  0  0  0  0
  141.9830  159.5220  133.8690 C   0  0  0  0  0  0  0  0  0  0  0  0
  142.3110  160.9000  133.8150 C   0  0  0  0  0  0  0  0  0  0  0  0
  143.6500  161.3130  133.7270 C   0  0  0  0  0  0  0  0  0  0  0  0
  144.6360  160.3300  133.6940 C   0  0  0  0  0  0  0  0  0  0  0  0
  146.0010  160.4530  133.5730 C   0  0  0  0  0  0  0  0  0  0  0  0
  146.4880  159.1500  133.5730 C   0  0  0  0  0  0  0  0  0  0  0  0
  147.9260  158.8220  133.5240 C   0  0  0  0  0  0  0  0  0  0  0  0
  148.4810  157.7990  134.3530 N   0  0  0  0  0  0  0  0  0  0  0  0
  148.6900  159.4950  132.7800 O   0  0  0  0  0  0  0  0  0  0  0  0
  145.4670  158.2520  133.6750 N   0  0  0  0  0  0  0  0  0  0  0  0
  145.5560  156.8190  133.5840 C   0  0  0  0  0  0  0  0  0  0  0  0
  146.3500  156.1800  134.3230 O   0  0  0  0  0  0  0  0  0  0  0  0
  144.7600  156.1240  132.6820 O   0  0  0  0  0  0  0  0  0  0  0  0
  144.3380  158.9920  133.7520 C   0  0  0  0  0  0  0  0  0  0  0  0
  143.0090  158.5520  133.8200 C   0  0  0  0  0  0  0  0  0  0  0  0
  139.1466  154.9514  134.0151 H   0  0  0  0  0  0  0  0  0  0  0  0
  138.5563  155.6310  132.4606 H   0  0  0  0  0  0  0  0  0  0  0  0
  139.8224  154.3568  132.4606 H   0  0  0  0  0  0  0  0  0  0  0  0
  142.6460  155.9930  132.2730 H   0  0  0  0  0  0  0  0  0  0  0  0
  139.4269  157.4861  134.8173 H   0  0  0  0  0  0  0  0  0  0  0  0
  141.2036  157.4774  135.1624 H   0  0  0  0  0  0  0  0  0  0  0  0
  140.1106  159.1691  132.9031 H   0  0  0  0  0  0  0  0  0  0  0  0
  139.9955  159.7453  134.6080 H   0  0  0  0  0  0  0  0  0  0  0  0
  141.5092  161.6526  133.8423 H   0  0  0  0  0  0  0  0  0  0  0  0
  143.9123  162.3805  133.6854 H   0  0  0  0  0  0  0  0  0  0  0  0
  146.5829  161.3831  133.4933 H   0  0  0  0  0  0  0  0  0  0  0  0
  149.4940  157.5560  134.2780 H   0  0  0  0  0  0  0  0  0  0  0  0
  147.9090  157.3380  135.0940 H   0  0  0  0  0  0  0  0  0  0  0  0
  142.7708  157.4782  133.8349 H   0  0  0  0  0  0  0  0  0  0  0  0
  1  2  1  0
  2  3  1  1
  2  4  1  0
  4  5  1  0
  5  6  1  0
  6  7  2  0
  7  8  1  0
  8  9  2  0
  9 10  1  0
 10 11  2  0
 11 12  1  0
 12 13  1  0
 12 14  2  0
 11 15  1  0
 15 16  1  0
 16 17  2  0
 16 18  1  0
 15 19  1  0
 19 20  2  0
 20  6  1  0
 19  9  1  0
  1 21  1  0
  1 22  1  0
  1 23  1  0
  3 24  1  0
  4 25  1  0
  4 26  1  0
  5 27  1  0
  5 28  1  0
  7 29  1  0
  8 30  1  0
 10 31  1  0
 13 32  1  0
 13 33  1  0
 20 34  1  0
M  CHG  2   2   1  18  -1
M  END
>  <UniqueID>  (10) 
10

>  <SMILES>  (10) 
C[S@+](O)CCc1ccc2cc(C(N)=O)n(C(=O)[O-])c2c1

>  <Energy>  (10) 
64.9227166155265

>  <Genealogy>  (10) 
C[S+](O)CCc1ccc2cc(C(N)=O)n(C(=O)[O-])c2c1 (protonated)
C[S@+](O)CCc1ccc2cc(C(N)=O)n(C(=O)[O-])c2c1 (chirality)
C[S@+](O)CCc1ccc2cc(C(N)=O)n(C(=O)[O-])c2c1 (3D coordinates assigned)
C[S@+](O)CCc1ccc2cc(C(N)=O)n(C(=O)[O-])c2c1 (optimized conformer: 64.9227166155265 kcal/mol)

>  <smiles>  (10) 
C[S+]([O-])CCc1ccc2cc(C(N)=O)n(C(=O)O)c2c1

>  <score_type>  (10) 
oracle

>  <origin>  (10) 
adg

>  <m_score__min__energy>  (10) 
-6.1100000000000003

>  <m_primary>  (10) 
energy

$$$$
10:0
     RDKit          3D

 68 71  0  0  0  0  0  0  0  0999 V2000
  144.0480  159.8700  133.7100 C   0  0  0  0  0  0  0  0  0  0  0  0
  144.7850  158.6240  133.1660 C   0  0  2  0  0  0  0  0  0  0  0  0
  144.4980  157.4170  134.0830 C   0  0  0  0  0  0  0  0  0  0  0  0
  145.2710  156.2200  133.7140 N   0  0  0  0  0  0  0  0  0  0  0  0
  145.0740  154.9770  134.4240 C   0  0  0  0  0  0  0  0  0  0  0  0
  145.4940  154.8560  135.6070 O   0  0  0  0  0  0  0  0  0  0  0  0
  144.4370  153.7850  133.7670 C   0  0  0  0  0  0  0  0  0  0  0  0
  143.0450  154.0070  133.5790 O   0  0  0  0  0  0  0  0  0  0  0  0
  142.1090  153.8230  134.5990 C   0  0  0  0  0  0  0  0  0  0  0  0
  141.3370  152.8290  134.5720 O   0  0  0  0  0  0  0  0  0  0  0  0
  142.0180  154.7830  135.6690 N   0  0  0  0  0  0  0  0  0  0  0  0
  142.4230  154.6240  136.9600 C   0  0  0  0  0  0  0  0  0  0  0  0
  143.0240  153.4060  137.5400 C   0  0  0  0  0  0  0  0  0  0  0  0
  144.4170  153.3460  137.8570 N   0  0  0  0  0  0  0  0  0  0  0  0
  142.3130  152.3760  137.6940 O   0  0  0  0  0  0  0  0  0  0  0  0
  142.0960  155.7440  137.7150 C   0  0  0  0  0  0  0  0  0  0  0  0
  141.4510  156.5930  136.8460 C   0  0  0  0  0  0  0  0  0  0  0  0
  140.8740  157.8350  137.0780 C   0  0  0  0  0  0  0  0  0  0  0  0
  140.2520  158.4850  136.0020 C   0  0  0  0  0  0  0  0  0  0  0  0
  140.2360  157.9090  134.6960 C   0  0  0  0  0  0  0  0  0  0  0  0
  139.6080  158.6030  133.5760 N   0  0  0  0  0  0  0  0  0  0  0  0
  138.4050  158.0040  132.9470 C   0  0  0  0  0  0  0  0  0  0  0  0
  137.8410  158.7740  131.7380 C   0  0  0  0  0  0  0  0  0  0  0  0
  138.8890  159.5110  131.0220 N   0  0  0  0  0  0  0  0  0  0  0  0
  138.3190  160.1850  129.8450 C   0  0  0  0  0  0  0  0  0  0  0  0
  139.4710  160.4960  131.9390 C   0  0  0  0  0  0  0  0  0  0  0  0
  140.3000  159.7710  132.9890 C   0  0  0  0  0  0  0  0  0  0  0  0
  140.8580  156.6450  134.5140 C   0  0  0  0  0  0  0  0  0  0  0  0
  141.4270  155.9990  135.6170 C   0  0  0  0  0  0  0  0  0  0  0  0
  146.3650  156.3550  132.7450 C   0  0  0  0  0  0  0  0  0  0  0  0
  147.1410  157.6500  133.0220 C   0  0  2  0  0  0  0  0  0  0  0  0
  147.8500  157.5640  134.3910 C   0  0  0  0  0  0  0  0  0  0  0  0
  146.2450  158.8310  132.9000 N   0  0  0  0  0  0  0  0  0  0  0  0
  146.8630  160.1150  133.2840 C   0  0  0  0  0  0  0  0  0  0  0  0
  144.0590  159.8514  134.8098 H   0  0  0  0  0  0  0  0  0  0  0  0
  144.5534  160.7797  133.3536 H   0  0  0  0  0  0  0  0  0  0  0  0
  143.0074  159.8652  133.3536 H   0  0  0  0  0  0  0  0  0  0  0  0
  144.3792  158.4138  132.1654 H   0  0  0  0  0  0  0  0  0  0  0  0
  144.7519  157.6937  135.1169 H   0  0  0  0  0  0  0  0  0  0  0  0
  143.4321  157.1673  133.9757 H   0  0  0  0  0  0  0  0  0  0  0  0
  144.9118  153.6131  132.7897 H   0  0  0  0  0  0  0  0  0  0  0  0
  144.5738  152.9058  134.4138 H   0  0  0  0  0  0  0  0  0  0  0  0
  145.0610  154.1160  137.5720 H   0  0  0  0  0  0  0  0  0  0  0  0
  144.8210  152.4760  138.2660 H   0  0  0  0  0  0  0  0  0  0  0  0
  142.3079  155.9151  138.7807 H   0  0  0  0  0  0  0  0  0  0  0  0
  140.9040  158.2954  138.0766 H   0  0  0  0  0  0  0  0  0  0  0  0
  139.7668  159.4582  136.1678 H   0  0  0  0  0  0  0  0  0  0  0  0
  138.6665  156.9895  132.6117 H   0  0  0  0  0  0  0  0  0  0  0  0
  137.6179  158.0256  133.7151 H   0  0  0  0  0  0  0  0  0  0  0  0
  137.3741  158.0575  131.0462 H   0  0  0  0  0  0  0  0  0  0  0  0
  137.1054  159.5022  132.1103 H   0  0  0  0  0  0  0  0  0  0  0  0
  137.6412  160.9865  130.1739 H   0  0  0  0  0  0  0  0  0  0  0  0
  139.1306  160.6162  129.2405 H   0  0  0  0  0  0  0  0  0  0  0  0
  137.7590  159.4562  129.2405 H   0  0  0  0  0  0  0  0  0  0  0  0
  140.1140  161.1884  131.3759 H   0  0  0  0  0  0  0  0  0  0  0  0
  138.6676  161.0651  132.4297 H   0  0  0  0  0  0  0  0  0  0  0  0
  141.2327  159.4248  132.5197 H   0  0  0  0  0  0  0  0  0  0  0  0
  140.4870  160.4836  133.8059 H   0  0  0  0  0  0  0  0  0  0  0  0
  140.8919  156.1796  133.5179 H   0  0  0  0  0  0  0  0  0  0  0  0
  147.0440  155.4945  132.8371 H   0  0  0  0  0  0  0  0  0  0  0  0
  145.9494  156.3887  131.7271 H   0  0  0  0  0  0  0  0  0  0  0  0
  147.9284  157.7779  132.2646 H   0  0  0  0  0  0  0  0  0  0  0  0
  147.1056  157.6543  135.1958 H   0  0  0  0  0  0  0  0  0  0  0  0
  148.3666  156.5966  134.4763 H   0  0  0  0  0  0  0  0  0  0  0  0
  148.5829  158.3798  134.4763 H   0  0  0  0  0  0  0  0  0  0  0  0
  146.8995  160.1909  134.3808 H   0  0  0  0  0  0  0  0  0  0  0  0
  147.8843  160.1661  132.8787 H   0  0  0  0  0  0  0  0  0  0  0  0
  146.2658  160.9451  132.8787 H   0  0  0  0  0  0  0  0  0  0  0  0
  1  2  1  0
  2  3  1  0
  3  4  1  0
  4  5  1  0
  5  6  2  0
  5  7  1  0
  7  8  1  0
  8  9  1  0
  9 10  2  0
  9 11  1  0
 11 12  1  0
 12 13  1  0
 13 14  1  0
 13 15  2  0
 12 16  2  0
 16 17  1  0
 17 18  2  0
 18 19  1  0
 19 20  2  0
 20 21  1  0
 21 22  1  0
 22 23  1  0
 23 24  1  0
 24 25  1  0
 24 26  1  0
 26 27  1  0
 20 28  1  0
 28 29  2  0
  4 30  1  0
 30 31  1  0
 31 32  1  0
 31 33  1  0
 33 34  1  0
 33  2  1  0
 29 11  1  0
 29 17  1  0
 27 21  1  0
  1 35  1  0
  1 36  1  0
  1 37  1  0
  2 38  1  6
  3 39  1  0
  3 40  1  0
  7 41  1  0
  7 42  1  0
 14 43  1  0
 14 44  1  0
 16 45  1  0
 18 46  1  0
 19 47  1  0
 22 48  1  0
 22 49  1  0
 23 50  1  0
 23 51  1  0
 25 52  1  0
 25 53  1  0
 25 54  1  0
 26 55  1  0
 26 56  1  0
 27 57  1  0
 27 58  1  0
 28 59  1  0
 30 60  1  0
 30 61  1  0
 31 62  1  6
 32 63  1  0
 32 64  1  0
 32 65  1  0
 34 66  1  0
 34 67  1  0
 34 68  1  0
M  END
>  <UniqueID>  (11) 
11

>  <SMILES>  (11) 
C[C@@H]1CN(C(=O)COC(=O)n2c(C(N)=O)cc3ccc(N4CCN(C)CC4)cc32)C[C@H](C)N1C

>  <Energy>  (11) 
129.09347247201336

>  <Genealogy>  (11) 
C[C@@H]1CN(C(=O)COC(=O)n2c(C(N)=O)cc3ccc(N4CCN(C)CC4)cc32)C[C@H](C)N1C (3D coordinates assigned)
C[C@@H]1CN(C(=O)COC(=O)n2c(C(N)=O)cc3ccc(N4CCN(C)CC4)cc32)C[C@H](C)N1C (nonaromatic ring conformer: 129.09347247201336 kcal/mol)

>  <smiles>  (11) 
C[C@@H]1CN(C(=O)COC(=O)n2c(C(N)=O)cc3ccc(N4CCN(C)CC4)cc32)C[C@H](C)N1C

>  <score_type>  (11) 
oracle

>  <origin>  (11) 
adg

>  <m_score__min__energy>  (11) 
-9.8000000000000007

>  <m_primary>  (11) 
energy

$$$$
11:0
     RDKit          3D

 47 48  0  0  0  0  0  0  0  0999 V2000
  141.9140  158.1450  138.8630 C   0  0  0  0  0  0  0  0  0  0  0  0
  141.3920  158.6340  137.5910 N   0  0  0  0  0  0  0  0  0  0  0  0
  140.4060  157.4130  136.8410 S   0  0  0  0  0  0  0  0  0  0  0  0
  139.1680  158.0630  136.2920 O   0  0  0  0  0  0  0  0  0  0  0  0
  140.0000  156.3880  137.8630 O   0  0  0  0  0  0  0  0  0  0  0  0
  141.2760  156.5960  135.5060 C   0  0  0  0  0  0  0  0  0  0  0  0
  141.2630  157.4390  134.2180 C   0  0  2  0  0  0  0  0  0  0  0  0
  141.5210  158.9270  134.5310 C   0  0  0  0  0  0  0  0  0  0  0  0
  142.9290  159.3460  134.1940 C   0  0  0  0  0  0  0  0  0  0  0  0
  143.2510  160.7210  134.0820 C   0  0  0  0  0  0  0  0  0  0  0  0
  144.5500  161.1270  133.7330 C   0  0  0  0  0  0  0  0  0  0  0  0
  145.5040  160.1380  133.5060 C   0  0  0  0  0  0  0  0  0  0  0  0
  146.8200  160.2480  133.1200 C   0  0  0  0  0  0  0  0  0  0  0  0
  147.2850  158.9370  133.0140 C   0  0  0  0  0  0  0  0  0  0  0  0
  148.6760  158.5660  132.6640 C   0  0  0  0  0  0  0  0  0  0  0  0
  148.9520  157.4070  131.8730 N   0  0  0  0  0  0  0  0  0  0  0  0
  149.6370  159.2830  133.0510 O   0  0  0  0  0  0  0  0  0  0  0  0
  146.2970  158.0560  133.3350 N   0  0  0  0  0  0  0  0  0  0  0  0
  146.3560  156.6220  133.2830 C   0  0  0  0  0  0  0  0  0  0  0  0
  146.5930  156.0500  132.1860 O   0  0  0  0  0  0  0  0  0  0  0  0
  146.1590  155.8150  134.5020 C   0  0  0  0  0  0  0  0  0  0  0  0
  147.3170  155.1450  135.1720 C   0  0  0  0  0  0  0  0  0  0  0  0
  145.0080  155.7110  135.0060 O   0  0  0  0  0  0  0  0  0  0  0  0
  145.2110  158.8050  133.6260 C   0  0  0  0  0  0  0  0  0  0  0  0
  143.9230  158.3710  133.9530 C   0  0  0  0  0  0  0  0  0  0  0  0
  139.9850  157.3190  133.6130 O   0  0  0  0  0  0  0  0  0  0  0  0
  139.7120  155.9740  133.2830 C   0  0  0  0  0  0  0  0  0  0  0  0
  141.3854  158.6402  139.6909 H   0  0  0  0  0  0  0  0  0  0  0  0
  141.7610  157.0577  138.9285 H   0  0  0  0  0  0  0  0  0  0  0  0
  142.9890  158.3686  138.9285 H   0  0  0  0  0  0  0  0  0  0  0  0
  142.3193  156.4271  135.8110 H   0  0  0  0  0  0  0  0  0  0  0  0
  140.7672  155.6433  135.2975 H   0  0  0  0  0  0  0  0  0  0  0  0
  142.0555  157.0753  133.5475 H   0  0  0  0  0  0  0  0  0  0  0  0
  140.8198  159.5387  133.9444 H   0  0  0  0  0  0  0  0  0  0  0  0
  141.3753  159.0741  135.6113 H   0  0  0  0  0  0  0  0  0  0  0  0
  142.4760  161.4786  134.2702 H   0  0  0  0  0  0  0  0  0  0  0  0
  144.8056  162.1930  133.6419 H   0  0  0  0  0  0  0  0  0  0  0  0
  147.3854  161.1731  132.9344 H   0  0  0  0  0  0  0  0  0  0  0  0
  148.1950  156.7480  131.5880 H   0  0  0  0  0  0  0  0  0  0  0  0
  149.9350  157.1800  131.6040 H   0  0  0  0  0  0  0  0  0  0  0  0
  147.1988  155.2134  136.2635 H   0  0  0  0  0  0  0  0  0  0  0  0
  147.3520  154.0871  134.8725 H   0  0  0  0  0  0  0  0  0  0  0  0
  148.2516  155.6419  134.8725 H   0  0  0  0  0  0  0  0  0  0  0  0
  143.6893  157.2983  134.0209 H   0  0  0  0  0  0  0  0  0  0  0  0
  139.5929  155.3870  134.2056 H   0  0  0  0  0  0  0  0  0  0  0  0
  138.7850  155.9221  132.6931 H   0  0  0  0  0  0  0  0  0  0  0  0
  140.5454  155.5648  132.6931 H   0  0  0  0  0  0  0  0  0  0  0  0
  1  2  1  0
  2  3  1  0
  3  4  2  0
  3  5  2  0
  3  6  1  0
  6  7  1  0
  7  8  1  0
  8  9  1  0
  9 10  2  0
 10 11  1  0
 11 12  2  0
 12 13  1  0
 13 14  2  0
 14 15  1  0
 15 16  1  0
 15 17  2  0
 14 18  1  0
 18 19  1  0
 19 20  2  0
 19 21  1  0
 21 22  1  0
 21 23  2  0
 18 24  1  0
 24 25  2  0
  7 26  1  0
 26 27  1  0
 25  9  1  0
 24 12  1  0
  1 28  1  0
  1 29  1  0
  1 30  1  0
  6 31  1  0
  6 32  1  0
  7 33  1  6
  8 34  1  0
  8 35  1  0
 10 36  1  0
 11 37  1  0
 13 38  1  0
 16 39  1  0
 16 40  1  0
 22 41  1  0
 22 42  1  0
 22 43  1  0
 25 44  1  0
 27 45  1  0
 27 46  1  0
 27 47  1  0
M  CHG  1   2  -1
M  END
>  <UniqueID>  (12) 
12

>  <SMILES>  (12) 
C[N-]S(=O)(=O)C[C@H](Cc1ccc2cc(C(N)=O)n(C(=O)C(C)=O)c2c1)OC

>  <Energy>  (12) 
76.40708555559704

>  <Genealogy>  (12) 
C[N-]S(=O)(=O)CC(Cc1ccc2cc(C(N)=O)n(C(=O)C(C)=O)c2c1)OC (protonated)
C[N-]S(=O)(=O)C[C@H](Cc1ccc2cc(C(N)=O)n(C(=O)C(C)=O)c2c1)OC (chirality)
C[N-]S(=O)(=O)C[C@H](Cc1ccc2cc(C(N)=O)n(C(=O)C(C)=O)c2c1)OC (3D coordinates assigned)
C[N-]S(=O)(=O)C[C@H](Cc1ccc2cc(C(N)=O)n(C(=O)C(C)=O)c2c1)OC (optimized conformer: 76.40708555559704 kcal/mol)

>  <smiles>  (12) 
CNS(=O)(=O)CC(Cc1ccc2cc(C(N)=O)n(C(=O)C(C)=O)c2c1)OC

>  <score_type>  (12) 
oracle

>  <origin>  (12) 
adg

>  <m_score__min__energy>  (12) 
-8.0500000000000007

>  <m_primary>  (12) 
energy

$$$$
12:0
     RDKit          3D

 55 56  0  0  0  0  0  0  0  0999 V2000
  137.2240  159.7480  131.0540 C   0  0  0  0  0  0  0  0  0  0  0  0
  138.5660  159.6090  131.6450 N   0  0  0  0  0  0  0  0  0  0  0  0
  139.5790  159.6660  130.5770 C   0  0  0  0  0  0  0  0  0  0  0  0
  138.6920  158.3440  132.4010 C   0  0  0  0  0  0  0  0  0  0  0  0
  139.2660  158.5880  133.8060 C   0  0  0  0  0  0  0  0  0  0  0  0
  139.6670  157.3360  134.4410 N   0  0  0  0  0  0  0  0  0  0  0  0
  140.6480  156.4150  133.9460 C   0  0  0  0  0  0  0  0  0  0  0  0
  140.3330  155.6650  132.9840 O   0  0  0  0  0  0  0  0  0  0  0  0
  141.9980  156.2510  134.5990 C   0  0  0  0  0  0  0  0  0  0  0  0
  142.9530  157.3260  134.1540 C   0  0  0  0  0  0  0  0  0  0  0  0
  142.5050  158.6610  133.9970 C   0  0  0  0  0  0  0  0  0  0  0  0
  143.3990  159.6750  133.6150 C   0  0  0  0  0  0  0  0  0  0  0  0
  144.7280  159.3260  133.3950 C   0  0  0  0  0  0  0  0  0  0  0  0
  145.8050  160.1120  133.0530 C   0  0  0  0  0  0  0  0  0  0  0  0
  146.8890  159.2420  132.9850 C   0  0  0  0  0  0  0  0  0  0  0  0
  148.2460  159.6640  132.5850 C   0  0  0  0  0  0  0  0  0  0  0  0
  149.4070  159.0230  133.1160 N   0  0  0  0  0  0  0  0  0  0  0  0
  148.3830  160.5680  131.7180 O   0  0  0  0  0  0  0  0  0  0  0  0
  146.5040  157.9710  133.2880 N   0  0  0  0  0  0  0  0  0  0  0  0
  147.3410  156.8120  133.4350 C   0  0  0  0  0  0  0  0  0  0  0  0
  148.2770  156.6080  132.6160 O   0  0  0  0  0  0  0  0  0  0  0  0
  147.1090  155.9250  134.4980 O   0  0  0  0  0  0  0  0  0  0  0  0
  146.7420  154.5440  134.3900 C   0  0  0  0  0  0  0  0  0  0  0  0
  148.0390  153.7260  134.4600 C   0  0  0  0  0  0  0  0  0  0  0  0
  145.8270  154.1350  135.5600 C   0  0  0  0  0  0  0  0  0  0  0  0
  146.0520  154.2730  133.0390 C   0  0  0  0  0  0  0  0  0  0  0  0
  145.1770  158.0380  133.5340 C   0  0  0  0  0  0  0  0  0  0  0  0
  144.3140  157.0120  133.9380 C   0  0  0  0  0  0  0  0  0  0  0  0
  136.4760  159.8255  131.8568 H   0  0  0  0  0  0  0  0  0  0  0  0
  137.1894  160.6545  130.4319 H   0  0  0  0  0  0  0  0  0  0  0  0
  137.0043  158.8678  130.4319 H   0  0  0  0  0  0  0  0  0  0  0  0
  140.5818  159.7224  131.0255 H   0  0  0  0  0  0  0  0  0  0  0  0
  139.5062  158.7623  129.9540 H   0  0  0  0  0  0  0  0  0  0  0  0
  139.4053  160.5558  129.9540 H   0  0  0  0  0  0  0  0  0  0  0  0
  137.6980  157.8823  132.4952 H   0  0  0  0  0  0  0  0  0  0  0  0
  139.3792  157.6804  131.8556 H   0  0  0  0  0  0  0  0  0  0  0  0
  140.1440  159.2457  133.7249 H   0  0  0  0  0  0  0  0  0  0  0  0
  138.4847  159.0553  134.4234 H   0  0  0  0  0  0  0  0  0  0  0  0
  141.8775  156.3078  135.6909 H   0  0  0  0  0  0  0  0  0  0  0  0
  142.4109  155.2750  134.3042 H   0  0  0  0  0  0  0  0  0  0  0  0
  141.4476  158.9056  134.1758 H   0  0  0  0  0  0  0  0  0  0  0  0
  143.0586  160.7139  133.4934 H   0  0  0  0  0  0  0  0  0  0  0  0
  145.8081  161.1970  132.8719 H   0  0  0  0  0  0  0  0  0  0  0  0
  150.3590  159.3610  132.8530 H   0  0  0  0  0  0  0  0  0  0  0  0
  149.3280  158.1620  133.7010 H   0  0  0  0  0  0  0  0  0  0  0  0
  148.3088  153.5558  135.5127 H   0  0  0  0  0  0  0  0  0  0  0  0
  147.8897  152.7583  133.9587 H   0  0  0  0  0  0  0  0  0  0  0  0
  148.8479  154.2777  133.9587 H   0  0  0  0  0  0  0  0  0  0  0  0
  146.3283  154.3591  136.5132 H   0  0  0  0  0  0  0  0  0  0  0  0
  144.8832  154.6969  135.5011 H   0  0  0  0  0  0  0  0  0  0  0  0
  145.6162  153.0570  135.5011 H   0  0  0  0  0  0  0  0  0  0  0  0
  145.0416  153.8761  133.2165 H   0  0  0  0  0  0  0  0  0  0  0  0
  145.9826  155.2107  132.4681 H   0  0  0  0  0  0  0  0  0  0  0  0
  146.6393  153.5387  132.4681 H   0  0  0  0  0  0  0  0  0  0  0  0
  144.6860  155.9871  134.0836 H   0  0  0  0  0  0  0  0  0  0  0  0
  1  2  1  0
  2  3  1  0
  2  4  1  0
  4  5  1  0
  5  6  1  0
  6  7  1  0
  7  8  2  0
  7  9  1  0
  9 10  1  0
 10 11  2  0
 11 12  1  0
 12 13  2  0
 13 14  1  0
 14 15  2  0
 15 16  1  0
 16 17  1  0
 16 18  2  0
 15 19  1  0
 19 20  1  0
 20 21  2  0
 20 22  1  0
 22 23  1  0
 23 24  1  0
 23 25  1  0
 23 26  1  0
 19 27  1  0
 27 28  2  0
 28 10  1  0
 27 13  1  0
  1 29  1  0
  1 30  1  0
  1 31  1  0
  3 32  1  0
  3 33  1  0
  3 34  1  0
  4 35  1  0
  4 36  1  0
  5 37  1  0
  5 38  1  0
  9 39  1  0
  9 40  1  0
 11 41  1  0
 12 42  1  0
 14 43  1  0
 17 44  1  0
 17 45  1  0
 24 46  1  0
 24 47  1  0
 24 48  1  0
 25 49  1  0
 25 50  1  0
 25 51  1  0
 26 52  1  0
 26 53  1  0
 26 54  1  0
 28 55  1  0
M  CHG  1   6  -1
M  END
>  <UniqueID>  (13) 
13

>  <SMILES>  (13) 
CN(C)CC[N-]C(=O)Cc1ccc2cc(C(N)=O)n(C(=O)OC(C)(C)C)c2c1

>  <Energy>  (13) 
84.23065375119758

>  <Genealogy>  (13) 
CN(C)CC[N-]C(=O)Cc1ccc2cc(C(N)=O)n(C(=O)OC(C)(C)C)c2c1 (protonated)
CN(C)CC[N-]C(=O)Cc1ccc2cc(C(N)=O)n(C(=O)OC(C)(C)C)c2c1 (3D coordinates assigned)
CN(C)CC[N-]C(=O)Cc1ccc2cc(C(N)=O)n(C(=O)OC(C)(C)C)c2c1 (optimized conformer: 84.23065375119758 kcal/mol)

>  <smiles>  (13) 
CN(C)CCNC(=O)Cc1ccc2cc(C(N)=O)n(C(=O)OC(C)(C)C)c2c1

>  <score_type>  (13) 
oracle

>  <origin>  (13) 
adg

>  <m_score__min__energy>  (13) 
-7.9199999999999999

>  <m_primary>  (13) 
energy

$$$$
13:0
     RDKit          3D

 40 42  0  0  0  0  0  0  0  0999 V2000
  149.5820  158.9760  133.1090 N   0  0  0  0  0  0  0  0  0  0  0  0
  148.4850  159.7920  132.6960 C   0  0  0  0  0  0  0  0  0  0  0  0
  148.6960  160.7620  131.9210 O   0  0  0  0  0  0  0  0  0  0  0  0
  147.1020  159.4810  133.1090 C   0  0  0  0  0  0  0  0  0  0  0  0
  146.0980  160.4400  133.2030 C   0  0  0  0  0  0  0  0  0  0  0  0
  144.9640  159.7430  133.5510 C   0  0  0  0  0  0  0  0  0  0  0  0
  143.6710  160.1980  133.7710 C   0  0  0  0  0  0  0  0  0  0  0  0
  142.6950  159.2620  134.1480 C   0  0  0  0  0  0  0  0  0  0  0  0
  143.0270  157.8910  134.3490 C   0  0  0  0  0  0  0  0  0  0  0  0
  141.9680  156.8390  134.7110 C   0  0  2  0  0  0  0  0  0  0  0  0
  140.6410  156.9010  133.9070 C   0  0  0  0  0  0  0  0  0  0  0  0
  139.7170  158.0040  134.3410 C   0  0  0  0  0  0  0  0  0  0  0  0
  139.5660  159.0210  133.6140 O   0  0  0  0  0  0  0  0  0  0  0  0
  139.0180  157.9100  135.5370 O   0  0  0  0  0  0  0  0  0  0  0  0
  141.6600  156.7960  136.2030 C   0  0  0  0  0  0  0  0  0  0  0  0
  141.7360  157.9750  136.9680 C   0  0  0  0  0  0  0  0  0  0  0  0
  141.4770  157.9460  138.3410 C   0  0  0  0  0  0  0  0  0  0  0  0
  141.1500  156.7420  138.9690 C   0  0  0  0  0  0  0  0  0  0  0  0
  141.0860  155.5600  138.2250 C   0  0  0  0  0  0  0  0  0  0  0  0
  140.6820  154.0470  139.0130 Cl  0  0  0  0  0  0  0  0  0  0  0  0
  141.3440  155.5850  136.8500 C   0  0  0  0  0  0  0  0  0  0  0  0
  144.3520  157.4690  134.0590 C   0  0  0  0  0  0  0  0  0  0  0  0
  145.3000  158.4210  133.6660 C   0  0  0  0  0  0  0  0  0  0  0  0
  146.6140  158.2410  133.3980 N   0  0  0  0  0  0  0  0  0  0  0  0
  147.3580  157.0160  133.5230 C   0  0  0  0  0  0  0  0  0  0  0  0
  148.1410  156.6540  132.6070 O   0  0  0  0  0  0  0  0  0  0  0  0
  147.2220  156.2200  134.6530 O   0  0  0  0  0  0  0  0  0  0  0  0
  149.4230  158.0720  133.6070 H   0  0  0  0  0  0  0  0  0  0  0  0
  150.5580  159.2340  132.8400 H   0  0  0  0  0  0  0  0  0  0  0  0
  146.1911  161.5231  133.0351 H   0  0  0  0  0  0  0  0  0  0  0  0
  143.4183  161.2621  133.6532 H   0  0  0  0  0  0  0  0  0  0  0  0
  141.6557  159.5928  134.2907 H   0  0  0  0  0  0  0  0  0  0  0  0
  142.4611  155.9035  134.4082 H   0  0  0  0  0  0  0  0  0  0  0  0
  140.8860  157.0521  132.8453 H   0  0  0  0  0  0  0  0  0  0  0  0
  140.1135  155.9528  134.0879 H   0  0  0  0  0  0  0  0  0  0  0  0
  142.0010  158.9256  136.4820 H   0  0  0  0  0  0  0  0  0  0  0  0
  141.5308  158.8742  138.9289 H   0  0  0  0  0  0  0  0  0  0  0  0
  140.9428  156.7238  140.0491 H   0  0  0  0  0  0  0  0  0  0  0  0
  141.2997  154.6517  136.2695 H   0  0  0  0  0  0  0  0  0  0  0  0
  144.6295  156.4078  134.1422 H   0  0  0  0  0  0  0  0  0  0  0  0
  1  2  1  0
  2  3  2  0
  2  4  1  0
  4  5  2  0
  5  6  1  0
  6  7  2  0
  7  8  1  0
  8  9  2  0
  9 10  1  0
 10 11  1  0
 11 12  1  0
 12 13  2  0
 12 14  1  0
 10 15  1  0
 15 16  2  0
 16 17  1  0
 17 18  2  0
 18 19  1  0
 19 20  1  0
 19 21  2  0
  9 22  1  0
 22 23  2  0
 23 24  1  0
 24 25  1  0
 25 26  2  0
 25 27  1  0
 24  4  1  0
 23  6  1  0
 21 15  1  0
  1 28  1  0
  1 29  1  0
  5 30  1  0
  7 31  1  0
  8 32  1  0
 10 33  1  6
 11 34  1  0
 11 35  1  0
 16 36  1  0
 17 37  1  0
 18 38  1  0
 21 39  1  0
 22 40  1  0
M  CHG  2  14  -1  27  -1
M  END
>  <UniqueID>  (14) 
14

>  <SMILES>  (14) 
NC(=O)c1cc2ccc([C@H](CC(=O)[O-])c3cccc(Cl)c3)cc2n1C(=O)[O-]

>  <Energy>  (14) 
88.17411259919974

>  <Genealogy>  (14) 
NC(=O)c1cc2ccc(C(CC(=O)[O-])c3cccc(Cl)c3)cc2n1C(=O)[O-] (protonated)
NC(=O)c1cc2ccc([C@H](CC(=O)[O-])c3cccc(Cl)c3)cc2n1C(=O)[O-] (chirality)
NC(=O)c1cc2ccc([C@H](CC(=O)[O-])c3cccc(Cl)c3)cc2n1C(=O)[O-] (3D coordinates assigned)
NC(=O)c1cc2ccc([C@H](CC(=O)[O-])c3cccc(Cl)c3)cc2n1C(=O)[O-] (optimized conformer: 88.17411259919974 kcal/mol)

>  <smiles>  (14) 
NC(=O)c1cc2ccc(C(CC(=O)O)c3cccc(Cl)c3)cc2n1C(=O)O

>  <score_type>  (14) 
oracle

>  <origin>  (14) 
adg

>  <m_score__min__energy>  (14) 
-9.25

>  <m_primary>  (14) 
energy

$$$$
14:0
     RDKit          3D

 33 34  0  0  0  0  0  0  0  0999 V2000
  149.0300  160.4110  129.8440 C   0  0  0  0  0  0  0  0  0  0  0  0
  148.4450  160.7150  131.0910 O   0  0  0  0  0  0  0  0  0  0  0  0
  149.1120  160.0230  132.1310 C   0  0  0  0  0  0  0  0  0  0  0  0
  148.1140  159.1830  132.9320 C   0  0  0  0  0  0  0  0  0  0  0  0
  146.7470  159.6770  132.7530 N   0  0  0  0  0  0  0  0  0  0  0  0
  145.5870  158.9890  133.2600 C   0  0  0  0  0  0  0  0  0  0  0  0
  145.7290  157.6630  133.7390 C   0  0  0  0  0  0  0  0  0  0  0  0
  144.6230  156.9520  134.2320 C   0  0  0  0  0  0  0  0  0  0  0  0
  143.3880  157.5910  134.2410 C   0  0  0  0  0  0  0  0  0  0  0  0
  142.1550  157.1280  134.6360 C   0  0  0  0  0  0  0  0  0  0  0  0
  141.2740  158.1850  134.4180 C   0  0  0  0  0  0  0  0  0  0  0  0
  139.8450  158.1400  134.7900 C   0  0  0  0  0  0  0  0  0  0  0  0
  139.4410  158.1330  136.1560 N   0  0  0  0  0  0  0  0  0  0  0  0
  138.9690  158.0570  133.8880 O   0  0  0  0  0  0  0  0  0  0  0  0
  141.9360  159.2580  133.8990 N   0  0  0  0  0  0  0  0  0  0  0  0
  141.3810  160.5080  133.4580 C   0  0  0  0  0  0  0  0  0  0  0  0
  141.9570  161.5930  133.7340 O   0  0  0  0  0  0  0  0  0  0  0  0
  140.1900  160.5340  132.7430 O   0  0  0  0  0  0  0  0  0  0  0  0
  143.2300  158.8790  133.8000 C   0  0  0  0  0  0  0  0  0  0  0  0
  144.3110  159.6060  133.2860 C   0  0  0  0  0  0  0  0  0  0  0  0
  149.9956  159.9092  130.0046 H   0  0  0  0  0  0  0  0  0  0  0  0
  148.3611  159.7464  129.2775 H   0  0  0  0  0  0  0  0  0  0  0  0
  149.1894  161.3403  129.2775 H   0  0  0  0  0  0  0  0  0  0  0  0
  149.8763  159.3622  131.6959 H   0  0  0  0  0  0  0  0  0  0  0  0
  149.5859  160.7542  132.8024 H   0  0  0  0  0  0  0  0  0  0  0  0
  148.1666  158.1390  132.5895 H   0  0  0  0  0  0  0  0  0  0  0  0
  148.3744  159.2533  133.9984 H   0  0  0  0  0  0  0  0  0  0  0  0
  146.5980  160.5700  132.2290 H   0  0  0  0  0  0  0  0  0  0  0  0
  146.7192  157.1841  133.7245 H   0  0  0  0  0  0  0  0  0  0  0  0
  144.7303  155.9209  134.5999 H   0  0  0  0  0  0  0  0  0  0  0  0
  141.9149  156.1331  135.0390 H   0  0  0  0  0  0  0  0  0  0  0  0
  139.4580  159.0070  136.7270 H   0  0  0  0  0  0  0  0  0  0  0  0
  144.1733  160.6311  132.9115 H   0  0  0  0  0  0  0  0  0  0  0  0
  1  2  1  0
  2  3  1  0
  3  4  1  0
  4  5  1  0
  5  6  1  0
  6  7  2  0
  7  8  1  0
  8  9  2  0
  9 10  1  0
 10 11  2  0
 11 12  1  0
 12 13  1  0
 12 14  2  0
 11 15  1  0
 15 16  1  0
 16 17  2  0
 16 18  1  0
 15 19  1  0
 19 20  2  0
 20  6  1  0
 19  9  1  0
  1 21  1  0
  1 22  1  0
  1 23  1  0
  3 24  1  0
  3 25  1  0
  4 26  1  0
  4 27  1  0
  5 28  1  0
  7 29  1  0
  8 30  1  0
 10 31  1  0
 13 32  1  0
 20 33  1  0
M  CHG  2  13  -1  18  -1
M  END
>  <UniqueID>  (15) 
15

>  <SMILES>  (15) 
COCCNc1ccc2cc(C([NH-])=O)n(C(=O)[O-])c2c1

>  <Energy>  (15) 
72.63354301938381

>  <Genealogy>  (15) 
COCCNc1ccc2cc(C([NH-])=O)n(C(=O)[O-])c2c1 (protonated)
COCCNc1ccc2cc(C([NH-])=O)n(C(=O)[O-])c2c1 (3D coordinates assigned)
COCCNc1ccc2cc(C([NH-])=O)n(C(=O)[O-])c2c1 (optimized conformer: 72.63354301938381 kcal/mol)

>  <smiles>  (15) 
COCCNc1ccc2cc(C(N)=O)n(C(=O)O)c2c1

>  <score_type>  (15) 
oracle

>  <origin>  (15) 
adg

>  <m_score__min__energy>  (15) 
-6.2599999999999998

>  <m_primary>  (15) 
energy

$$$$
15:0
     RDKit          3D

 70 72  0  0  0  0  0  0  0  0999 V2000
  144.9050  161.6740  134.1100 C   0  0  0  0  0  0  0  0  0  0  0  0
  145.1520  160.1630  134.0080 C   0  0  0  0  0  0  0  0  0  0  0  0
  146.1320  159.8340  132.8760 C   0  0  0  0  0  0  0  0  0  0  0  0
  143.8800  159.4240  133.8500 N   0  0  0  0  0  0  0  0  0  0  0  0
  142.6360  159.9350  134.4630 C   0  0  0  0  0  0  0  0  0  0  0  0
  141.7740  158.8100  135.0840 C   0  0  0  0  0  0  0  0  0  0  0  0
  141.5320  159.0900  136.5890 C   0  0  0  0  0  0  0  0  0  0  0  0
  140.2500  158.4220  137.1230 C   0  0  0  0  0  0  0  0  0  0  0  0
  139.9250  157.2040  136.3730 N   0  0  0  0  0  0  0  0  0  0  0  0
  139.5800  157.5060  134.9680 C   0  0  0  0  0  0  0  0  0  0  0  0
  140.4380  158.6330  134.3460 C   0  0  0  0  0  0  0  0  0  0  0  0
  143.8810  158.0920  133.2930 C   0  0  0  0  0  0  0  0  0  0  0  0
  143.1840  157.8440  132.2680 O   0  0  0  0  0  0  0  0  0  0  0  0
  144.6480  156.9750  133.9530 C   0  0  0  0  0  0  0  0  0  0  0  0
  143.8040  155.7480  134.1850 C   0  0  0  0  0  0  0  0  0  0  0  0
  143.3930  154.9430  133.0910 C   0  0  0  0  0  0  0  0  0  0  0  0
  142.6830  153.7490  133.3060 C   0  0  0  0  0  0  0  0  0  0  0  0
  142.3790  153.3990  134.6180 C   0  0  0  0  0  0  0  0  0  0  0  0
  141.7580  152.2750  135.1190 C   0  0  0  0  0  0  0  0  0  0  0  0
  141.7410  152.4520  136.5040 C   0  0  0  0  0  0  0  0  0  0  0  0
  141.1410  151.4760  137.4430 C   0  0  0  0  0  0  0  0  0  0  0  0
  141.5580  151.3950  138.8080 N   0  0  0  0  0  0  0  0  0  0  0  0
  140.2090  150.7260  137.0420 O   0  0  0  0  0  0  0  0  0  0  0  0
  142.3340  153.6300  136.8430 N   0  0  0  0  0  0  0  0  0  0  0  0
  142.5330  154.1840  138.1520 C   0  0  0  0  0  0  0  0  0  0  0  0
  143.2830  153.5860  138.9700 O   0  0  0  0  0  0  0  0  0  0  0  0
  141.8450  155.4560  138.5680 C   0  0  0  0  0  0  0  0  0  0  0  0
  140.4680  155.4350  138.2420 O   0  0  0  0  0  0  0  0  0  0  0  0
  139.7440  154.5920  139.1200 C   0  0  0  0  0  0  0  0  0  0  0  0
  140.3890  154.6150  140.5090 C   0  0  0  0  0  0  0  0  0  0  0  0
  140.5320  153.2100  141.1100 C   0  0  0  0  0  0  0  0  0  0  0  0
  141.8710  152.7960  141.1040 O   0  0  0  0  0  0  0  0  0  0  0  0
  142.7200  154.1940  135.6790 C   0  0  0  0  0  0  0  0  0  0  0  0
  143.4440  155.3760  135.4990 C   0  0  0  0  0  0  0  0  0  0  0  0
  144.8571  161.9670  135.1692 H   0  0  0  0  0  0  0  0  0  0  0  0
  145.7268  162.2140  133.6170 H   0  0  0  0  0  0  0  0  0  0  0  0
  143.9540  161.9242  133.6170 H   0  0  0  0  0  0  0  0  0  0  0  0
  145.6139  159.8353  134.9510 H   0  0  0  0  0  0  0  0  0  0  0  0
  147.0924  159.5116  133.3046 H   0  0  0  0  0  0  0  0  0  0  0  0
  145.7176  159.0257  132.2556 H   0  0  0  0  0  0  0  0  0  0  0  0
  146.2892  160.7286  132.2556 H   0  0  0  0  0  0  0  0  0  0  0  0
  142.9014  160.6526  135.2533 H   0  0  0  0  0  0  0  0  0  0  0  0
  142.0426  160.4093  133.6675 H   0  0  0  0  0  0  0  0  0  0  0  0
  142.3312  157.8676  134.9777 H   0  0  0  0  0  0  0  0  0  0  0  0
  142.3911  158.7080  137.1600 H   0  0  0  0  0  0  0  0  0  0  0  0
  141.4129  160.1770  136.7083 H   0  0  0  0  0  0  0  0  0  0  0  0
  140.3973  158.1612  138.1814 H   0  0  0  0  0  0  0  0  0  0  0  0
  139.4174  159.1313  137.0062 H   0  0  0  0  0  0  0  0  0  0  0  0
  140.7500  156.5550  136.3960 H   0  0  0  0  0  0  0  0  0  0  0  0
  139.7211  156.5926  134.3716 H   0  0  0  0  0  0  0  0  0  0  0  0
  138.5367  157.8546  134.9607 H   0  0  0  0  0  0  0  0  0  0  0  0
  140.6430  158.3845  133.2942 H   0  0  0  0  0  0  0  0  0  0  0  0
  139.8756  159.5747  134.4288 H   0  0  0  0  0  0  0  0  0  0  0  0
  145.4965  156.7018  133.3084 H   0  0  0  0  0  0  0  0  0  0  0  0
  144.9840  157.3379  134.9355 H   0  0  0  0  0  0  0  0  0  0  0  0
  143.6325  155.2566  132.0642 H   0  0  0  0  0  0  0  0  0  0  0  0
  142.3773  153.1113  132.4635 H   0  0  0  0  0  0  0  0  0  0  0  0
  141.3609  151.4216  134.5498 H   0  0  0  0  0  0  0  0  0  0  0  0
  142.0700  152.1820  139.2680 H   0  0  0  0  0  0  0  0  0  0  0  0
  141.1910  150.6280  139.4130 H   0  0  0  0  0  0  0  0  0  0  0  0
  141.9523  155.5805  139.6556 H   0  0  0  0  0  0  0  0  0  0  0  0
  142.3132  156.2924  138.0283 H   0  0  0  0  0  0  0  0  0  0  0  0
  138.7054  154.9467  139.1935 H   0  0  0  0  0  0  0  0  0  0  0  0
  139.7571  153.5636  138.7299 H   0  0  0  0  0  0  0  0  0  0  0  0
  141.3881  155.0678  140.4273 H   0  0  0  0  0  0  0  0  0  0  0  0
  139.7353  155.1994  141.1732 H   0  0  0  0  0  0  0  0  0  0  0  0
  140.1639  153.2228  142.1465 H   0  0  0  0  0  0  0  0  0  0  0  0
  139.9446  152.5067  140.5015 H   0  0  0  0  0  0  0  0  0  0  0  0
  142.3820  153.4940  140.6050 H   0  0  0  0  0  0  0  0  0  0  0  0
  143.7263  156.0008  136.3592 H   0  0  0  0  0  0  0  0  0  0  0  0
  1  2  1  0
  2  3  1  0
  2  4  1  0
  4  5  1  0
  5  6  1  0
  6  7  1  0
  7  8  1  0
  8  9  1  0
  9 10  1  0
 10 11  1  0
  4 12  1  0
 12 13  2  0
 12 14  1  0
 14 15  1  0
 15 16  2  0
 16 17  1  0
 17 18  2  0
 18 19  1  0
 19 20  2  0
 20 21  1  0
 21 22  1  0
 21 23  2  0
 20 24  1  0
 24 25  1  0
 25 26  2  0
 25 27  1  0
 27 28  1  0
 28 29  1  0
 29 30  1  0
 30 31  1  0
 31 32  1  0
 24 33  1  0
 33 34  2  0
 11  6  1  0
 34 15  1  0
 33 18  1  0
  1 35  1  0
  1 36  1  0
  1 37  1  0
  2 38  1  0
  3 39  1  0
  3 40  1  0
  3 41  1  0
  5 42  1  0
  5 43  1  0
  6 44  1  0
  7 45  1  0
  7 46  1  0
  8 47  1  0
  8 48  1  0
  9 49  1  0
 10 50  1  0
 10 51  1  0
 11 52  1  0
 11 53  1  0
 14 54  1  0
 14 55  1  0
 16 56  1  0
 17 57  1  0
 19 58  1  0
 22 59  1  0
 22 60  1  0
 27 61  1  0
 27 62  1  0
 29 63  1  0
 29 64  1  0
 30 65  1  0
 30 66  1  0
 31 67  1  0
 31 68  1  0
 32 69  1  0
 34 70  1  0
M  END
>  <UniqueID>  (16) 
16

>  <SMILES>  (16) 
CC(C)N(CC1CCNCC1)C(=O)Cc1ccc2cc(C(N)=O)n(C(=O)COCCCO)c2c1

>  <Energy>  (16) 
110.34165684951651

>  <Genealogy>  (16) 
CC(C)N(CC1CCNCC1)C(=O)Cc1ccc2cc(C(N)=O)n(C(=O)COCCCO)c2c1 (3D coordinates assigned)
CC(C)N(CC1CCNCC1)C(=O)Cc1ccc2cc(C(N)=O)n(C(=O)COCCCO)c2c1 (nonaromatic ring conformer: 110.34165684951651 kcal/mol)

>  <smiles>  (16) 
CC(C)N(CC1CCNCC1)C(=O)Cc1ccc2cc(C(N)=O)n(C(=O)COCCCO)c2c1

>  <score_type>  (16) 
oracle

>  <origin>  (16) 
adg

>  <m_score__min__energy>  (16) 
-9.4800000000000004

>  <m_primary>  (16) 
energy

$$$$
16:0
     RDKit          3D

 46 48  0  0  0  0  0  0  0  0999 V2000
  149.2000  157.4240  132.2310 N   0  0  0  0  0  0  0  0  0  0  0  0
  148.5320  158.6830  132.3640 C   0  0  0  0  0  0  0  0  0  0  0  0
  149.1490  159.7030  132.1260 O   0  0  0  0  0  0  0  0  0  0  0  0
  147.0880  158.8370  132.8040 C   0  0  0  0  0  0  0  0  0  0  0  0
  146.5580  160.0960  132.9990 C   0  0  0  0  0  0  0  0  0  0  0  0
  145.2670  159.9080  133.3870 C   0  0  0  0  0  0  0  0  0  0  0  0
  144.2920  160.8910  133.7070 C   0  0  0  0  0  0  0  0  0  0  0  0
  143.0410  160.4690  134.0690 C   0  0  0  0  0  0  0  0  0  0  0  0
  142.7500  159.1100  134.1360 C   0  0  0  0  0  0  0  0  0  0  0  0
  141.4440  158.6860  134.5120 N   0  0  0  0  0  0  0  0  0  0  0  0
  140.5210  158.9290  133.4450 C   0  0  0  0  0  0  0  0  0  0  0  0
  139.8380  157.8560  132.8380 C   0  0  0  0  0  0  0  0  0  0  0  0
  138.9470  158.1370  131.7960 C   0  0  0  0  0  0  0  0  0  0  0  0
  138.7490  159.4410  131.3660 C   0  0  0  0  0  0  0  0  0  0  0  0
  137.8940  159.7230  130.3670 F   0  0  0  0  0  0  0  0  0  0  0  0
  139.4530  160.4630  131.9860 C   0  0  0  0  0  0  0  0  0  0  0  0
  140.3110  160.1980  132.9920 N   0  0  0  0  0  0  0  0  0  0  0  0
  143.7450  158.1460  133.8040 C   0  0  0  0  0  0  0  0  0  0  0  0
  145.0240  158.6260  133.4290 C   0  0  0  0  0  0  0  0  0  0  0  0
  146.1610  157.8850  133.0650 N   0  0  0  0  0  0  0  0  0  0  0  0
  146.1920  156.4570  133.0230 C   0  0  0  0  0  0  0  0  0  0  0  0
  145.2560  155.8540  132.5910 O   0  0  0  0  0  0  0  0  0  0  0  0
  147.3280  155.7840  133.4910 O   0  0  0  0  0  0  0  0  0  0  0  0
  147.6130  155.6390  134.9100 C   0  0  0  0  0  0  0  0  0  0  0  0
  147.3920  154.2020  135.3830 C   0  0  0  0  0  0  0  0  0  0  0  0
  148.4620  153.4300  134.9070 O   0  0  0  0  0  0  0  0  0  0  0  0
  148.5170  153.3680  133.1360 P   0  0  0  0  0  0  0  0  0  0  0  0
  149.3750  154.8310  132.5050 N   0  0  0  0  0  0  0  0  0  0  0  0
  146.8980  153.2640  132.4640 O   0  0  0  0  0  0  0  0  0  0  0  0
  148.6260  156.6160  131.8940 H   0  0  0  0  0  0  0  0  0  0  0  0
  147.0749  161.0580  132.8673 H   0  0  0  0  0  0  0  0  0  0  0  0
  144.5360  161.9628  133.6650 H   0  0  0  0  0  0  0  0  0  0  0  0
  142.2620  161.2079  134.3081 H   0  0  0  0  0  0  0  0  0  0  0  0
  141.1430  159.2200  135.3560 H   0  0  0  0  0  0  0  0  0  0  0  0
  141.4990  157.6690  134.7110 H   0  0  0  0  0  0  0  0  0  0  0  0
  140.0014  156.8218  133.1753 H   0  0  0  0  0  0  0  0  0  0  0  0
  138.3980  157.3153  131.3129 H   0  0  0  0  0  0  0  0  0  0  0  0
  139.3097  161.5016  131.6531 H   0  0  0  0  0  0  0  0  0  0  0  0
  143.5280  157.0681  133.8376 H   0  0  0  0  0  0  0  0  0  0  0  0
  148.6608  155.9186  135.0943 H   0  0  0  0  0  0  0  0  0  0  0  0
  146.9282  156.2947  135.4679 H   0  0  0  0  0  0  0  0  0  0  0  0
  147.3652  154.1687  136.4822 H   0  0  0  0  0  0  0  0  0  0  0  0
  146.4357  153.8129  135.0034 H   0  0  0  0  0  0  0  0  0  0  0  0
  148.7020  155.2840  131.8280 H   0  0  0  0  0  0  0  0  0  0  0  0
  149.5490  155.5230  133.2610 H   0  0  0  0  0  0  0  0  0  0  0  0
  146.5810  154.1460  132.2000 H   0  0  0  0  0  0  0  0  0  0  0  0
  1  2  1  0
  2  3  2  0
  2  4  1  0
  4  5  2  0
  5  6  1  0
  6  7  2  0
  7  8  1  0
  8  9  2  0
  9 10  1  0
 10 11  1  0
 11 12  2  0
 12 13  1  0
 13 14  2  0
 14 15  1  0
 14 16  1  0
 16 17  2  0
  9 18  1  0
 18 19  2  0
 19 20  1  0
 20 21  1  0
 21 22  2  0
 21 23  1  0
 23 24  1  0
 24 25  1  0
 25 26  1  0
 27 26  1  0
 27 28  1  0
 27 29  1  0
 20  4  1  0
 19  6  1  0
 17 11  1  0
  1 30  1  0
  5 31  1  0
  7 32  1  0
  8 33  1  0
 10 34  1  0
 10 35  1  0
 12 36  1  0
 13 37  1  0
 16 38  1  0
 18 39  1  0
 24 40  1  0
 24 41  1  0
 25 42  1  0
 25 43  1  0
 28 44  1  0
 28 45  1  0
 29 46  1  0
M  CHG  2   1  -1  10   1
M  END
>  <UniqueID>  (17) 
17

>  <SMILES>  (17) 
[NH-]C(=O)c1cc2ccc([NH2+]c3ccc(F)cn3)cc2n1C(=O)OCCO[P@](N)O

>  <Energy>  (17) 
165.03201974855057

>  <Genealogy>  (17) 
[NH-]C(=O)c1cc2ccc([NH2+]c3ccc(F)cn3)cc2n1C(=O)OCCOP(N)O (protonated)
[NH-]C(=O)c1cc2ccc([NH2+]c3ccc(F)cn3)cc2n1C(=O)OCCO[P@](N)O (chirality)
[NH-]C(=O)c1cc2ccc([NH2+]c3ccc(F)cn3)cc2n1C(=O)OCCO[P@](N)O (3D coordinates assigned)
[NH-]C(=O)c1cc2ccc([NH2+]c3ccc(F)cn3)cc2n1C(=O)OCCO[P@](N)O (optimized conformer: 165.03201974855057 kcal/mol)

>  <smiles>  (17) 
NC(=O)c1cc2ccc(Nc3ccc(F)cn3)cc2n1C(=O)OCCOP(N)O

>  <score_type>  (17) 
oracle

>  <origin>  (17) 
adg

>  <m_score__min__energy>  (17) 
-6.0700000000000003

>  <m_primary>  (17) 
energy

$$$$
17:0
     RDKit          3D

 61 63  0  0  0  0  0  0  0  0999 V2000
  149.5900  162.1410  130.2770 C   0  0  0  0  0  0  0  0  0  0  0  0
  149.6120  160.7160  129.7270 C   0  0  0  0  0  0  0  0  0  0  0  0
  148.9470  159.7730  130.6530 N   0  0  0  0  0  0  0  0  0  0  0  0
  149.9530  158.9750  131.3800 C   0  0  0  0  0  0  0  0  0  0  0  0
  149.2650  157.8840  132.2280 C   0  0  0  0  0  0  0  0  0  0  0  0
  147.8260  158.1630  132.4120 N   0  0  0  0  0  0  0  0  0  0  0  0
  147.2360  157.2510  133.4160 C   0  0  0  0  0  0  0  0  0  0  0  0
  145.7040  157.2440  133.3200 C   0  0  0  0  0  0  0  0  0  0  0  0
  145.1690  155.8380  133.2500 C   0  0  0  0  0  0  0  0  0  0  0  0
  146.0610  154.7380  133.1770 C   0  0  0  0  0  0  0  0  0  0  0  0
  145.5720  153.4210  133.1510 C   0  0  0  0  0  0  0  0  0  0  0  0
  144.1940  153.2360  133.2170 C   0  0  0  0  0  0  0  0  0  0  0  0
  143.4550  152.0750  133.2010 C   0  0  0  0  0  0  0  0  0  0  0  0
  142.1260  152.4810  133.3030 C   0  0  0  0  0  0  0  0  0  0  0  0
  140.9830  151.5480  133.4210 C   0  0  0  0  0  0  0  0  0  0  0  0
  139.8370  151.6870  132.5780 N   0  0  0  0  0  0  0  0  0  0  0  0
  141.0220  150.6000  134.2480 O   0  0  0  0  0  0  0  0  0  0  0  0
  142.0470  153.8400  133.3770 N   0  0  0  0  0  0  0  0  0  0  0  0
  140.8660  154.6530  133.4590 C   0  0  0  0  0  0  0  0  0  0  0  0
  139.9260  154.4720  132.6400 O   0  0  0  0  0  0  0  0  0  0  0  0
  140.7860  155.6500  134.4420 O   0  0  0  0  0  0  0  0  0  0  0  0
  140.3710  157.0090  134.2460 C   0  0  0  0  0  0  0  0  0  0  0  0
  140.0980  157.6010  135.6370 C   0  0  0  0  0  0  0  0  0  0  0  0
  141.4900  157.8230  133.5690 C   0  0  0  0  0  0  0  0  0  0  0  0
  139.0750  157.0670  133.4160 C   0  0  0  0  0  0  0  0  0  0  0  0
  143.3210  154.2870  133.3210 C   0  0  0  0  0  0  0  0  0  0  0  0
  143.7790  155.6090  133.3250 C   0  0  0  0  0  0  0  0  0  0  0  0
  147.6290  159.5770  132.7770 C   0  0  0  0  0  0  0  0  0  0  0  0
  148.0670  160.4860  131.6110 C   0  0  0  0  0  0  0  0  0  0  0  0
  149.5905  162.1097  131.3765 H   0  0  0  0  0  0  0  0  0  0  0  0
  150.4799  162.6836  129.9252 H   0  0  0  0  0  0  0  0  0  0  0  0
  148.6838  162.6558  129.9252 H   0  0  0  0  0  0  0  0  0  0  0  0
  149.0891  160.6971  128.7594 H   0  0  0  0  0  0  0  0  0  0  0  0
  150.6605  160.4054  129.6083 H   0  0  0  0  0  0  0  0  0  0  0  0
  150.6296  158.4980  130.6556 H   0  0  0  0  0  0  0  0  0  0  0  0
  150.5211  159.6398  132.0473 H   0  0  0  0  0  0  0  0  0  0  0  0
  149.3784  156.9142  131.7215 H   0  0  0  0  0  0  0  0  0  0  0  0
  149.7413  157.8684  133.2194 H   0  0  0  0  0  0  0  0  0  0  0  0
  147.6120  156.2321  133.2414 H   0  0  0  0  0  0  0  0  0  0  0  0
  147.5226  157.6011  134.4186 H   0  0  0  0  0  0  0  0  0  0  0  0
  145.2866  157.7429  134.2071 H   0  0  0  0  0  0  0  0  0  0  0  0
  145.4101  157.7745  132.4023 H   0  0  0  0  0  0  0  0  0  0  0  0
  147.1457  154.9174  133.1404 H   0  0  0  0  0  0  0  0  0  0  0  0
  146.2568  152.5630  133.0807 H   0  0  0  0  0  0  0  0  0  0  0  0
  143.8333  151.0450  133.1240 H   0  0  0  0  0  0  0  0  0  0  0  0
  139.0530  151.0010  132.6430 H   0  0  0  0  0  0  0  0  0  0  0  0
  139.7430  152.4900  131.9180 H   0  0  0  0  0  0  0  0  0  0  0  0
  140.4261  156.8895  136.4091 H   0  0  0  0  0  0  0  0  0  0  0  0
  140.6518  158.5448  135.7490 H   0  0  0  0  0  0  0  0  0  0  0  0
  139.0206  157.7926  135.7490 H   0  0  0  0  0  0  0  0  0  0  0  0
  142.1249  158.2849  134.3394 H   0  0  0  0  0  0  0  0  0  0  0  0
  142.1004  157.1564  132.9421 H   0  0  0  0  0  0  0  0  0  0  0  0
  141.0437  158.6090  132.9421 H   0  0  0  0  0  0  0  0  0  0  0  0
  138.2081  157.1058  134.0920 H   0  0  0  0  0  0  0  0  0  0  0  0
  139.0858  157.9656  132.7816 H   0  0  0  0  0  0  0  0  0  0  0  0
  139.0055  156.1711  132.7816 H   0  0  0  0  0  0  0  0  0  0  0  0
  143.0722  156.4497  133.3852 H   0  0  0  0  0  0  0  0  0  0  0  0
  146.5655  159.7523  132.9964 H   0  0  0  0  0  0  0  0  0  0  0  0
  148.2352  159.8096  133.6649 H   0  0  0  0  0  0  0  0  0  0  0  0
  147.1711  160.8364  131.0776 H   0  0  0  0  0  0  0  0  0  0  0  0
  148.6342  161.3296  132.0314 H   0  0  0  0  0  0  0  0  0  0  0  0
  1  2  1  0
  2  3  1  0
  3  4  1  0
  4  5  1  0
  5  6  1  0
  6  7  1  0
  7  8  1  0
  8  9  1  0
  9 10  2  0
 10 11  1  0
 11 12  2  0
 12 13  1  0
 13 14  2  0
 14 15  1  0
 15 16  1  0
 15 17  2  0
 14 18  1  0
 18 19  1  0
 19 20  2  0
 19 21  1  0
 21 22  1  0
 22 23  1  0
 22 24  1  0
 22 25  1  0
 18 26  1  0
 26 27  2  0
  6 28  1  0
 28 29  1  0
 29  3  1  0
 27  9  1  0
 26 12  1  0
  1 30  1  0
  1 31  1  0
  1 32  1  0
  2 33  1  0
  2 34  1  0
  4 35  1  0
  4 36  1  0
  5 37  1  0
  5 38  1  0
  7 39  1  0
  7 40  1  0
  8 41  1  0
  8 42  1  0
 10 43  1  0
 11 44  1  0
 13 45  1  0
 16 46  1  0
 16 47  1  0
 23 48  1  0
 23 49  1  0
 23 50  1  0
 24 51  1  0
 24 52  1  0
 24 53  1  0
 25 54  1  0
 25 55  1  0
 25 56  1  0
 27 57  1  0
 28 58  1  0
 28 59  1  0
 29 60  1  0
 29 61  1  0
M  END
>  <UniqueID>  (18) 
18

>  <SMILES>  (18) 
CCN1CCN(CCc2ccc3cc(C(N)=O)n(C(=O)OC(C)(C)C)c3c2)CC1

>  <Energy>  (18) 
98.61762251283601

>  <Genealogy>  (18) 
CCN1CCN(CCc2ccc3cc(C(N)=O)n(C(=O)OC(C)(C)C)c3c2)CC1 (3D coordinates assigned)
CCN1CCN(CCc2ccc3cc(C(N)=O)n(C(=O)OC(C)(C)C)c3c2)CC1 (nonaromatic ring conformer: 98.61762251283601 kcal/mol)

>  <smiles>  (18) 
CCN1CCN(CCc2ccc3cc(C(N)=O)n(C(=O)OC(C)(C)C)c3c2)CC1

>  <score_type>  (18) 
oracle

>  <origin>  (18) 
adg

>  <m_score__min__energy>  (18) 
-9.6899999999999995

>  <m_primary>  (18) 
energy

$$$$
18:0
     RDKit          3D

 49 50  0  0  0  0  0  0  0  0999 V2000
  148.6910  154.5220  132.6060 C   0  0  0  0  0  0  0  0  0  0  0  0
  148.2460  155.2420  133.7340 O   0  0  0  0  0  0  0  0  0  0  0  0
  147.7110  154.3650  134.7090 C   0  0  0  0  0  0  0  0  0  0  0  0
  146.2190  154.6390  134.8910 C   0  0  0  0  0  0  0  0  0  0  0  0
  145.9430  156.0340  134.7900 O   0  0  0  0  0  0  0  0  0  0  0  0
  145.4330  156.6380  133.6350 C   0  0  0  0  0  0  0  0  0  0  0  0
  145.1800  155.9440  132.6120 O   0  0  0  0  0  0  0  0  0  0  0  0
  145.1890  158.0540  133.6190 N   0  0  0  0  0  0  0  0  0  0  0  0
  146.0940  159.0530  133.4150 C   0  0  0  0  0  0  0  0  0  0  0  0
  147.5590  158.8750  133.3030 C   0  0  0  0  0  0  0  0  0  0  0  0
  148.2140  157.7860  133.9570 N   0  0  0  0  0  0  0  0  0  0  0  0
  148.2420  159.6680  132.6020 O   0  0  0  0  0  0  0  0  0  0  0  0
  145.4590  160.2930  133.4220 C   0  0  0  0  0  0  0  0  0  0  0  0
  144.1280  160.0220  133.6440 C   0  0  0  0  0  0  0  0  0  0  0  0
  143.0420  160.8870  133.7330 C   0  0  0  0  0  0  0  0  0  0  0  0
  141.7700  160.3270  133.9400 C   0  0  0  0  0  0  0  0  0  0  0  0
  141.6090  158.9250  134.0550 C   0  0  0  0  0  0  0  0  0  0  0  0
  140.2320  158.3370  134.2280 C   0  0  0  0  0  0  0  0  0  0  0  0
  139.6730  157.7990  132.9300 C   0  0  0  0  0  0  0  0  0  0  0  0
  139.5620  156.5500  132.7820 O   0  0  0  0  0  0  0  0  0  0  0  0
  139.1970  158.6780  131.8840 N   0  0  0  0  0  0  0  0  0  0  0  0
  140.1780  159.3330  131.0100 C   0  0  0  0  0  0  0  0  0  0  0  0
  137.7670  158.9560  131.6850 C   0  0  0  0  0  0  0  0  0  0  0  0
  137.5700  160.1270  130.7250 C   0  0  0  0  0  0  0  0  0  0  0  0
  136.2470  160.2020  130.3300 F   0  0  0  0  0  0  0  0  0  0  0  0
  142.7340  158.0770  133.9480 C   0  0  0  0  0  0  0  0  0  0  0  0
  143.9910  158.6630  133.7600 C   0  0  0  0  0  0  0  0  0  0  0  0
  149.2428  153.6292  132.9352 H   0  0  0  0  0  0  0  0  0  0  0  0
  147.8246  154.2154  132.0015 H   0  0  0  0  0  0  0  0  0  0  0  0
  149.3526  155.1598  132.0015 H   0  0  0  0  0  0  0  0  0  0  0  0
  147.8536  153.3246  134.3815 H   0  0  0  0  0  0  0  0  0  0  0  0
  148.2288  154.5275  135.6658 H   0  0  0  0  0  0  0  0  0  0  0  0
  145.6566  154.1031  134.1123 H   0  0  0  0  0  0  0  0  0  0  0  0
  145.9167  154.2919  135.8901 H   0  0  0  0  0  0  0  0  0  0  0  0
  147.6930  157.1400  134.5900 H   0  0  0  0  0  0  0  0  0  0  0  0
  149.2420  157.6470  133.8390 H   0  0  0  0  0  0  0  0  0  0  0  0
  145.9233  161.2801  133.2801 H   0  0  0  0  0  0  0  0  0  0  0  0
  143.1750  161.9753  133.6441 H   0  0  0  0  0  0  0  0  0  0  0  0
  140.8909  160.9841  134.0134 H   0  0  0  0  0  0  0  0  0  0  0  0
  140.2867  157.5155  134.9575 H   0  0  0  0  0  0  0  0  0  0  0  0
  139.5641  159.1385  134.5767 H   0  0  0  0  0  0  0  0  0  0  0  0
  140.9365  159.8394  131.6250 H   0  0  0  0  0  0  0  0  0  0  0  0
  140.6650  158.5782  130.3751 H   0  0  0  0  0  0  0  0  0  0  0  0
  139.6675  160.0721  130.3751 H   0  0  0  0  0  0  0  0  0  0  0  0
  137.2806  158.0620  131.2677 H   0  0  0  0  0  0  0  0  0  0  0  0
  137.3205  159.2173  132.6557 H   0  0  0  0  0  0  0  0  0  0  0  0
  137.8522  161.0626  131.2300 H   0  0  0  0  0  0  0  0  0  0  0  0
  138.2019  159.9745  129.8376 H   0  0  0  0  0  0  0  0  0  0  0  0
  142.6247  156.9842  134.0108 H   0  0  0  0  0  0  0  0  0  0  0  0
  1  2  1  0
  2  3  1  0
  3  4  1  0
  4  5  1  0
  5  6  1  0
  6  7  2  0
  6  8  1  0
  8  9  1  0
  9 10  1  0
 10 11  1  0
 10 12  2  0
  9 13  2  0
 13 14  1  0
 14 15  2  0
 15 16  1  0
 16 17  2  0
 17 18  1  0
 18 19  1  0
 19 20  2  0
 19 21  1  0
 21 22  1  0
 21 23  1  0
 23 24  1  0
 24 25  1  0
 17 26  1  0
 26 27  2  0
 27  8  1  0
 27 14  1  0
  1 28  1  0
  1 29  1  0
  1 30  1  0
  3 31  1  0
  3 32  1  0
  4 33  1  0
  4 34  1  0
 11 35  1  0
 11 36  1  0
 13 37  1  0
 15 38  1  0
 16 39  1  0
 18 40  1  0
 18 41  1  0
 22 42  1  0
 22 43  1  0
 22 44  1  0
 23 45  1  0
 23 46  1  0
 24 47  1  0
 24 48  1  0
 26 49  1  0
M  END
>  <UniqueID>  (19) 
19

>  <SMILES>  (19) 
COCCOC(=O)n1c(C(N)=O)cc2ccc(CC(=O)N(C)CCF)cc21

>  <Energy>  (19) 
81.6559129931573

>  <Genealogy>  (19) 
COCCOC(=O)n1c(C(N)=O)cc2ccc(CC(=O)N(C)CCF)cc21 (3D coordinates assigned)
COCCOC(=O)n1c(C(N)=O)cc2ccc(CC(=O)N(C)CCF)cc21 (optimized conformer: 81.6559129931573 kcal/mol)

>  <smiles>  (19) 
COCCOC(=O)n1c(C(N)=O)cc2ccc(CC(=O)N(C)CCF)cc21

>  <score_type>  (19) 
oracle

>  <origin>  (19) 
adg

>  <m_score__min__energy>  (19) 
-6.79

>  <m_primary>  (19) 
energy

$$$$
19:0
     RDKit          3D

 49 51  0  0  0  0  0  0  0  0999 V2000
  139.2000  146.9500  129.9840 C   0  0  0  0  0  0  0  0  0  0  0  0
  139.6600  148.3500  130.0100 N   0  0  0  0  0  0  0  0  0  0  0  0
  138.5530  149.2340  129.6120 C   0  0  0  0  0  0  0  0  0  0  0  0
  140.1560  148.7180  131.3550 C   0  0  0  0  0  0  0  0  0  0  0  0
  139.3110  149.8510  131.9450 C   0  0  0  0  0  0  0  0  0  0  0  0
  140.0940  151.0850  132.0080 N   0  0  0  0  0  0  0  0  0  0  0  0
  140.9940  151.3660  133.0940 C   0  0  0  0  0  0  0  0  0  0  0  0
  141.1210  150.5280  134.0290 O   0  0  0  0  0  0  0  0  0  0  0  0
  141.7600  152.6360  133.1490 C   0  0  0  0  0  0  0  0  0  0  0  0
  141.1160  153.8720  133.3320 C   0  0  0  0  0  0  0  0  0  0  0  0
  141.8570  155.0560  133.3980 C   0  0  0  0  0  0  0  0  0  0  0  0
  143.2560  155.0330  133.2780 C   0  0  0  0  0  0  0  0  0  0  0  0
  144.0290  156.2960  133.3660 C   0  0  0  0  0  0  0  0  0  0  0  0
  145.4300  156.2950  133.1330 C   0  0  0  0  0  0  0  0  0  0  0  0
  146.1670  157.4890  133.1860 C   0  0  0  0  0  0  0  0  0  0  0  0
  145.4870  158.6650  133.4840 C   0  0  0  0  0  0  0  0  0  0  0  0
  145.9490  159.9580  133.5630 C   0  0  0  0  0  0  0  0  0  0  0  0
  144.8310  160.7330  133.8680 C   0  0  0  0  0  0  0  0  0  0  0  0
  144.8920  162.1870  134.1070 C   0  0  0  0  0  0  0  0  0  0  0  0
  145.9410  162.7600  134.8850 N   0  0  0  0  0  0  0  0  0  0  0  0
  144.0320  162.9410  133.5780 O   0  0  0  0  0  0  0  0  0  0  0  0
  143.7180  159.9500  133.9680 N   0  0  0  0  0  0  0  0  0  0  0  0
  142.3610  160.3760  134.1740 C   0  0  0  0  0  0  0  0  0  0  0  0
  141.8290  161.2060  133.3920 O   0  0  0  0  0  0  0  0  0  0  0  0
  141.6240  159.8830  135.2440 O   0  0  0  0  0  0  0  0  0  0  0  0
  144.1390  158.6860  133.7290 C   0  0  0  0  0  0  0  0  0  0  0  0
  143.3730  157.5160  133.6580 C   0  0  0  0  0  0  0  0  0  0  0  0
  143.9010  153.7990  133.0680 C   0  0  0  0  0  0  0  0  0  0  0  0
  145.2460  153.7370  132.8950 F   0  0  0  0  0  0  0  0  0  0  0  0
  143.1590  152.6160  133.0030 C   0  0  0  0  0  0  0  0  0  0  0  0
  139.0798  146.5843  131.0145 H   0  0  0  0  0  0  0  0  0  0  0  0
  138.2351  146.8908  129.4591 H   0  0  0  0  0  0  0  0  0  0  0  0
  139.9417  146.3300  129.4591 H   0  0  0  0  0  0  0  0  0  0  0  0
  138.0580  149.6293  130.5113 H   0  0  0  0  0  0  0  0  0  0  0  0
  138.9472  150.0686  129.0136 H   0  0  0  0  0  0  0  0  0  0  0  0
  137.8263  148.6649  129.0136 H   0  0  0  0  0  0  0  0  0  0  0  0
  140.0971  147.8404  132.0155 H   0  0  0  0  0  0  0  0  0  0  0  0
  141.1986  149.0581  131.2697 H   0  0  0  0  0  0  0  0  0  0  0  0
  138.4272  150.0134  131.3106 H   0  0  0  0  0  0  0  0  0  0  0  0
  138.9973  149.5727  132.9619 H   0  0  0  0  0  0  0  0  0  0  0  0
  139.9190  151.8020  131.2700 H   0  0  0  0  0  0  0  0  0  0  0  0
  140.0204  153.9081  133.4240 H   0  0  0  0  0  0  0  0  0  0  0  0
  141.3389  156.0151  133.5454 H   0  0  0  0  0  0  0  0  0  0  0  0
  145.9434  155.3484  132.9085 H   0  0  0  0  0  0  0  0  0  0  0  0
  147.2507  157.4941  132.9973 H   0  0  0  0  0  0  0  0  0  0  0  0
  146.9819  160.3068  133.4166 H   0  0  0  0  0  0  0  0  0  0  0  0
  146.9360  162.6950  134.5750 H   0  0  0  0  0  0  0  0  0  0  0  0
  142.2862  157.5442  133.8253 H   0  0  0  0  0  0  0  0  0  0  0  0
  143.6748  151.6589  132.8359 H   0  0  0  0  0  0  0  0  0  0  0  0
  1  2  1  0
  2  3  1  0
  2  4  1  0
  4  5  1  0
  5  6  1  0
  6  7  1  0
  7  8  2  0
  7  9  1  0
  9 10  2  0
 10 11  1  0
 11 12  2  0
 12 13  1  0
 13 14  2  0
 14 15  1  0
 15 16  2  0
 16 17  1  0
 17 18  2  0
 18 19  1  0
 19 20  1  0
 19 21  2  0
 18 22  1  0
 22 23  1  0
 23 24  2  0
 23 25  1  0
 22 26  1  0
 26 27  2  0
 12 28  1  0
 28 29  1  0
 28 30  2  0
 30  9  1  0
 27 13  1  0
 26 16  1  0
  1 31  1  0
  1 32  1  0
  1 33  1  0
  3 34  1  0
  3 35  1  0
  3 36  1  0
  4 37  1  0
  4 38  1  0
  5 39  1  0
  5 40  1  0
  6 41  1  0
 10 42  1  0
 11 43  1  0
 14 44  1  0
 15 45  1  0
 17 46  1  0
 20 47  1  0
 27 48  1  0
 30 49  1  0
M  CHG  2  20  -1  25  -1
M  END
>  <UniqueID>  (20) 
20

>  <SMILES>  (20) 
CN(C)CCNC(=O)c1ccc(-c2ccc3cc(C([NH-])=O)n(C(=O)[O-])c3c2)c(F)c1

>  <Energy>  (20) 
97.00733155410292

>  <Genealogy>  (20) 
CN(C)CCNC(=O)c1ccc(-c2ccc3cc(C([NH-])=O)n(C(=O)[O-])c3c2)c(F)c1 (protonated)
CN(C)CCNC(=O)c1ccc(-c2ccc3cc(C([NH-])=O)n(C(=O)[O-])c3c2)c(F)c1 (3D coordinates assigned)
CN(C)CCNC(=O)c1ccc(-c2ccc3cc(C([NH-])=O)n(C(=O)[O-])c3c2)c(F)c1 (optimized conformer: 97.00733155410292 kcal/mol)

>  <smiles>  (20) 
CN(C)CCNC(=O)c1ccc(-c2ccc3cc(C(N)=O)n(C(=O)O)c3c2)c(F)c1

>  <score_type>  (20) 
oracle

>  <origin>  (20) 
adg

>  <m_score__min__energy>  (20) 
-9.7100000000000009

>  <m_primary>  (20) 
energy

$$$$
20:0
     RDKit          3D

 42 44  0  0  0  0  0  0  0  0999 V2000
  139.1560  160.6300  131.9220 N   0  0  0  0  0  0  0  0  0  0  0  0
  140.2090  160.1260  132.7410 C   0  0  0  0  0  0  0  0  0  0  0  0
  140.9610  160.9350  133.3510 O   0  0  0  0  0  0  0  0  0  0  0  0
  140.3890  158.6750  132.9350 C   0  0  0  0  0  0  0  0  0  0  0  0
  139.3540  157.7510  132.8100 C   0  0  0  0  0  0  0  0  0  0  0  0
  139.9420  156.5190  132.9860 C   0  0  0  0  0  0  0  0  0  0  0  0
  139.3770  155.2460  132.9760 C   0  0  0  0  0  0  0  0  0  0  0  0
  140.2120  154.1470  133.2440 C   0  0  0  0  0  0  0  0  0  0  0  0
  141.5830  154.3430  133.5370 C   0  0  0  0  0  0  0  0  0  0  0  0
  142.4630  153.1580  133.8480 C   0  0  0  0  0  0  0  0  0  0  0  0
  141.6540  151.8650  134.0140 C   0  0  0  0  0  0  0  0  0  0  0  0
  141.9850  150.8680  132.9280 C   0  0  0  0  0  0  0  0  0  0  0  0
  143.2030  150.6800  132.6520 O   0  0  0  0  0  0  0  0  0  0  0  0
  140.9730  150.0710  132.2730 N   0  0  0  0  0  0  0  0  0  0  0  0
  141.4160  148.8640  131.5520 C   0  0  0  0  0  0  0  0  0  0  0  0
  140.2610  148.1360  130.8490 C   0  0  0  0  0  0  0  0  0  0  0  0
  139.3340  149.0620  130.3280 O   0  0  0  0  0  0  0  0  0  0  0  0
  138.6430  149.6530  131.4130 C   0  0  0  0  0  0  0  0  0  0  0  0
  139.5780  150.5480  132.2490 C   0  0  0  0  0  0  0  0  0  0  0  0
  142.1290  155.6470  133.5170 C   0  0  0  0  0  0  0  0  0  0  0  0
  141.2800  156.7200  133.2180 C   0  0  0  0  0  0  0  0  0  0  0  0
  141.5720  158.0400  133.1860 N   0  0  0  0  0  0  0  0  0  0  0  0
  142.8460  158.6390  133.4790 C   0  0  0  0  0  0  0  0  0  0  0  0
  143.8050  158.5140  132.6720 O   0  0  0  0  0  0  0  0  0  0  0  0
  143.0240  159.3800  134.6430 O   0  0  0  0  0  0  0  0  0  0  0  0
  138.4300  161.2670  132.3150 H   0  0  0  0  0  0  0  0  0  0  0  0
  138.2925  157.9613  132.6126 H   0  0  0  0  0  0  0  0  0  0  0  0
  138.3069  155.1043  132.7642 H   0  0  0  0  0  0  0  0  0  0  0  0
  139.7973  153.1283  133.2259 H   0  0  0  0  0  0  0  0  0  0  0  0
  143.1809  153.0239  133.0254 H   0  0  0  0  0  0  0  0  0  0  0  0
  142.9780  153.3593  134.7989 H   0  0  0  0  0  0  0  0  0  0  0  0
  141.8868  151.4197  134.9925 H   0  0  0  0  0  0  0  0  0  0  0  0
  140.5846  152.1128  133.9441 H   0  0  0  0  0  0  0  0  0  0  0  0
  142.1585  149.1585  130.7957 H   0  0  0  0  0  0  0  0  0  0  0  0
  141.8426  148.1721  132.2932 H   0  0  0  0  0  0  0  0  0  0  0  0
  140.6648  147.5272  130.0266 H   0  0  0  0  0  0  0  0  0  0  0  0
  139.7482  147.4949  131.5812 H   0  0  0  0  0  0  0  0  0  0  0  0
  137.8166  150.2645  131.0216 H   0  0  0  0  0  0  0  0  0  0  0  0
  138.2594  148.8503  132.0600 H   0  0  0  0  0  0  0  0  0  0  0  0
  139.5630  151.5623  131.8237 H   0  0  0  0  0  0  0  0  0  0  0  0
  139.2086  150.5279  133.2849 H   0  0  0  0  0  0  0  0  0  0  0  0
  143.1948  155.8147  133.7311 H   0  0  0  0  0  0  0  0  0  0  0  0
  1  2  1  0
  2  3  2  0
  2  4  1  0
  4  5  2  0
  5  6  1  0
  6  7  2  0
  7  8  1  0
  8  9  2  0
  9 10  1  0
 10 11  1  0
 11 12  1  0
 12 13  2  0
 12 14  1  0
 14 15  1  0
 15 16  1  0
 16 17  1  0
 17 18  1  0
 18 19  1  0
  9 20  1  0
 20 21  2  0
 21 22  1  0
 22 23  1  0
 23 24  2  0
 23 25  1  0
 22  4  1  0
 21  6  1  0
 19 14  1  0
  1 26  1  0
  5 27  1  0
  7 28  1  0
  8 29  1  0
 10 30  1  0
 10 31  1  0
 11 32  1  0
 11 33  1  0
 15 34  1  0
 15 35  1  0
 16 36  1  0
 16 37  1  0
 18 38  1  0
 18 39  1  0
 19 40  1  0
 19 41  1  0
 20 42  1  0
M  CHG  2   1  -1  25  -1
M  END
>  <UniqueID>  (21) 
21

>  <SMILES>  (21) 
[NH-]C(=O)c1cc2ccc(CCC(=O)N3CCOCC3)cc2n1C(=O)[O-]

>  <Energy>  (21) 
82.96749600060535

>  <Genealogy>  (21) 
[NH-]C(=O)c1cc2ccc(CCC(=O)N3CCOCC3)cc2n1C(=O)[O-] (protonated)
[NH-]C(=O)c1cc2ccc(CCC(=O)N3CCOCC3)cc2n1C(=O)[O-] (3D coordinates assigned)
[NH-]C(=O)c1cc2ccc(CCC(=O)N3CCOCC3)cc2n1C(=O)[O-] (nonaromatic ring conformer: 82.96749600060535 kcal/mol)

>  <smiles>  (21) 
NC(=O)c1cc2ccc(CCC(=O)N3CCOCC3)cc2n1C(=O)O

>  <score_type>  (21) 
oracle

>  <origin>  (21) 
adg

>  <m_score__min__energy>  (21) 
-7.7999999999999998

>  <m_primary>  (21) 
energy

$$$$
21:0
     RDKit          3D

 46 47  0  0  0  0  0  0  0  0999 V2000
  137.4800  159.0180  131.4580 C   0  0  0  0  0  0  0  0  0  0  0  0
  138.9590  159.0200  131.8360 C   0  0  0  0  0  0  0  0  0  0  0  0
  139.7890  159.7040  130.7470 C   0  0  0  0  0  0  0  0  0  0  0  0
  139.3910  157.6720  132.0140 O   0  0  0  0  0  0  0  0  0  0  0  0
  139.2060  156.9460  133.1970 C   0  0  0  0  0  0  0  0  0  0  0  0
  138.7120  157.4970  134.2200 O   0  0  0  0  0  0  0  0  0  0  0  0
  139.5560  155.4930  133.2330 C   0  0  0  0  0  0  0  0  0  0  0  0
  140.9240  155.3160  133.7350 N   0  0  0  0  0  0  0  0  0  0  0  0
  141.5790  154.0110  133.6070 C   0  0  0  0  0  0  0  0  0  0  0  0
  141.6000  156.3900  134.4200 C   0  0  0  0  0  0  0  0  0  0  0  0
  142.4260  157.1180  133.8080 O   0  0  0  0  0  0  0  0  0  0  0  0
  141.3400  156.6480  135.8060 N   0  0  0  0  0  0  0  0  0  0  0  0
  140.9750  157.8280  136.3800 C   0  0  0  0  0  0  0  0  0  0  0  0
  140.8270  159.1190  135.6770 C   0  0  0  0  0  0  0  0  0  0  0  0
  140.9400  159.2010  134.2580 N   0  0  0  0  0  0  0  0  0  0  0  0
  140.6050  160.1680  136.3390 O   0  0  0  0  0  0  0  0  0  0  0  0
  140.7720  157.6560  137.7500 C   0  0  0  0  0  0  0  0  0  0  0  0
  141.0220  156.3230  137.9910 C   0  0  0  0  0  0  0  0  0  0  0  0
  140.9740  155.5980  139.1790 C   0  0  0  0  0  0  0  0  0  0  0  0
  141.2860  154.2280  139.1270 C   0  0  0  0  0  0  0  0  0  0  0  0
  141.6330  153.6110  137.8980 C   0  0  0  0  0  0  0  0  0  0  0  0
  142.0020  152.1540  137.8670 C   0  0  0  0  0  0  0  0  0  0  0  0
  140.7890  151.3200  137.6040 C   0  0  0  0  0  0  0  0  0  0  0  0
  139.9040  151.1910  138.4900 O   0  0  0  0  0  0  0  0  0  0  0  0
  140.6140  150.7200  136.3630 O   0  0  0  0  0  0  0  0  0  0  0  0
  141.6770  154.3810  136.7140 C   0  0  0  0  0  0  0  0  0  0  0  0
  141.3620  155.7390  136.7990 C   0  0  0  0  0  0  0  0  0  0  0  0
  136.8679  159.0172  132.3720 H   0  0  0  0  0  0  0  0  0  0  0  0
  137.2519  159.9158  130.8648 H   0  0  0  0  0  0  0  0  0  0  0  0
  137.2544  158.1196  130.8648 H   0  0  0  0  0  0  0  0  0  0  0  0
  139.0979  159.5803  132.7723 H   0  0  0  0  0  0  0  0  0  0  0  0
  140.5573  160.3371  131.2149 H   0  0  0  0  0  0  0  0  0  0  0  0
  140.2743  158.9401  130.1217 H   0  0  0  0  0  0  0  0  0  0  0  0
  139.1319  160.3263  130.1217 H   0  0  0  0  0  0  0  0  0  0  0  0
  138.8541  154.9660  133.8960 H   0  0  0  0  0  0  0  0  0  0  0  0
  139.4900  155.0814  132.2150 H   0  0  0  0  0  0  0  0  0  0  0  0
  141.7835  153.6036  134.6081 H   0  0  0  0  0  0  0  0  0  0  0  0
  140.9198  153.3221  133.0584 H   0  0  0  0  0  0  0  0  0  0  0  0
  142.5252  154.1279  133.0584 H   0  0  0  0  0  0  0  0  0  0  0  0
  140.6540  158.4030  133.6490 H   0  0  0  0  0  0  0  0  0  0  0  0
  140.4755  158.4220  138.4817 H   0  0  0  0  0  0  0  0  0  0  0  0
  140.7006  156.0819  140.1282 H   0  0  0  0  0  0  0  0  0  0  0  0
  141.2607  153.6286  140.0490 H   0  0  0  0  0  0  0  0  0  0  0  0
  142.7404  151.9830  137.0698 H   0  0  0  0  0  0  0  0  0  0  0  0
  142.4284  151.8707  138.8407 H   0  0  0  0  0  0  0  0  0  0  0  0
  141.9517  153.9236  135.7521 H   0  0  0  0  0  0  0  0  0  0  0  0
  1  2  1  0
  2  3  1  0
  2  4  1  0
  4  5  1  0
  5  6  2  0
  5  7  1  0
  7  8  1  0
  8  9  1  0
  8 10  1  0
 10 11  2  0
 10 12  1  0
 12 13  1  0
 13 14  1  0
 14 15  1  0
 14 16  2  0
 13 17  2  0
 17 18  1  0
 18 19  2  0
 19 20  1  0
 20 21  2  0
 21 22  1  0
 22 23  1  0
 23 24  2  0
 23 25  1  0
 21 26  1  0
 26 27  2  0
 27 12  1  0
 27 18  1  0
  1 28  1  0
  1 29  1  0
  1 30  1  0
  2 31  1  0
  3 32  1  0
  3 33  1  0
  3 34  1  0
  7 35  1  0
  7 36  1  0
  9 37  1  0
  9 38  1  0
  9 39  1  0
 15 40  1  0
 17 41  1  0
 19 42  1  0
 20 43  1  0
 22 44  1  0
 22 45  1  0
 26 46  1  0
M  CHG  2  15  -1  25  -1
M  END
>  <UniqueID>  (22) 
22

>  <SMILES>  (22) 
CC(C)OC(=O)CN(C)C(=O)n1c(C([NH-])=O)cc2ccc(CC(=O)[O-])cc21

>  <Energy>  (22) 
72.15772559861175

>  <Genealogy>  (22) 
CC(C)OC(=O)CN(C)C(=O)n1c(C([NH-])=O)cc2ccc(CC(=O)[O-])cc21 (protonated)
CC(C)OC(=O)CN(C)C(=O)n1c(C([NH-])=O)cc2ccc(CC(=O)[O-])cc21 (3D coordinates assigned)
CC(C)OC(=O)CN(C)C(=O)n1c(C([NH-])=O)cc2ccc(CC(=O)[O-])cc21 (optimized conformer: 72.15772559861175 kcal/mol)

>  <smiles>  (22) 
CC(C)OC(=O)CN(C)C(=O)n1c(C(N)=O)cc2ccc(CC(=O)O)cc21

>  <score_type>  (22) 
oracle

>  <origin>  (22) 
adg

>  <m_score__min__energy>  (22) 
-7.4900000000000002

>  <m_primary>  (22) 
energy

$$$$
22:0
     RDKit          3D

 36 37  0  0  0  0  0  0  0  0999 V2000
  149.6310  151.1730  133.9660 N   0  0  0  0  0  0  0  0  0  0  0  0
  149.4010  151.8490  132.7330 C   0  0  0  0  0  0  0  0  0  0  0  0
  148.8360  151.2460  131.7820 O   0  0  0  0  0  0  0  0  0  0  0  0
  149.7860  153.2870  132.5850 C   0  0  0  0  0  0  0  0  0  0  0  0
  148.6000  154.1680  132.8570 C   0  0  0  0  0  0  0  0  0  0  0  0
  147.3510  153.5940  133.2000 C   0  0  0  0  0  0  0  0  0  0  0  0
  146.2350  154.4090  133.4500 C   0  0  0  0  0  0  0  0  0  0  0  0
  146.3900  155.7860  133.3220 C   0  0  0  0  0  0  0  0  0  0  0  0
  145.4900  156.7950  133.5640 C   0  0  0  0  0  0  0  0  0  0  0  0
  146.1850  157.9740  133.3110 C   0  0  0  0  0  0  0  0  0  0  0  0
  145.5800  159.3120  133.4580 C   0  0  0  0  0  0  0  0  0  0  0  0
  146.2490  160.4790  132.9870 N   0  0  0  0  0  0  0  0  0  0  0  0
  144.4310  159.4210  133.9630 O   0  0  0  0  0  0  0  0  0  0  0  0
  147.4670  157.7120  132.9230 N   0  0  0  0  0  0  0  0  0  0  0  0
  148.5130  158.6780  132.6970 C   0  0  0  0  0  0  0  0  0  0  0  0
  148.7340  159.5660  133.5640 O   0  0  0  0  0  0  0  0  0  0  0  0
  149.3850  158.6170  131.4670 C   0  0  0  0  0  0  0  0  0  0  0  0
  149.9660  159.9820  131.0680 C   0  0  0  0  0  0  0  0  0  0  0  0
  148.9090  160.9360  130.6010 C   0  0  0  0  0  0  0  0  0  0  0  0
  149.2010  162.1390  130.3710 O   0  0  0  0  0  0  0  0  0  0  0  0
  147.6120  160.4910  130.3760 O   0  0  0  0  0  0  0  0  0  0  0  0
  147.5800  156.3610  132.9490 C   0  0  0  0  0  0  0  0  0  0  0  0
  148.7170  155.5710  132.7330 C   0  0  0  0  0  0  0  0  0  0  0  0
  148.8370  150.7710  134.5120 H   0  0  0  0  0  0  0  0  0  0  0  0
  150.5877  153.5247  133.2997 H   0  0  0  0  0  0  0  0  0  0  0  0
  150.1375  153.4624  131.5575 H   0  0  0  0  0  0  0  0  0  0  0  0
  147.2545  152.5005  133.2711 H   0  0  0  0  0  0  0  0  0  0  0  0
  145.2675  153.9721  133.7383 H   0  0  0  0  0  0  0  0  0  0  0  0
  144.4439  156.6930  133.8883 H   0  0  0  0  0  0  0  0  0  0  0  0
  145.8350  161.4250  133.1460 H   0  0  0  0  0  0  0  0  0  0  0  0
  147.0990  160.3990  132.3890 H   0  0  0  0  0  0  0  0  0  0  0  0
  150.2183  157.9263  131.6633 H   0  0  0  0  0  0  0  0  0  0  0  0
  148.7521  158.2755  130.6346 H   0  0  0  0  0  0  0  0  0  0  0  0
  150.4756  160.4180  131.9399 H   0  0  0  0  0  0  0  0  0  0  0  0
  150.6645  159.8194  130.2339 H   0  0  0  0  0  0  0  0  0  0  0  0
  149.6806  156.0332  132.4724 H   0  0  0  0  0  0  0  0  0  0  0  0
  1  2  1  0
  2  3  2  0
  2  4  1  0
  4  5  1  0
  5  6  2  0
  6  7  1  0
  7  8  2  0
  8  9  1  0
  9 10  2  0
 10 11  1  0
 11 12  1  0
 11 13  2  0
 10 14  1  0
 14 15  1  0
 15 16  2  0
 15 17  1  0
 17 18  1  0
 18 19  1  0
 19 20  2  0
 19 21  1  0
 14 22  1  0
 22 23  2  0
 23  5  1  0
 22  8  1  0
  1 24  1  0
  4 25  1  0
  4 26  1  0
  6 27  1  0
  7 28  1  0
  9 29  1  0
 12 30  1  0
 12 31  1  0
 17 32  1  0
 17 33  1  0
 18 34  1  0
 18 35  1  0
 23 36  1  0
M  CHG  2   1  -1  21  -1
M  END
>  <UniqueID>  (23) 
23

>  <SMILES>  (23) 
[NH-]C(=O)Cc1ccc2cc(C(N)=O)n(C(=O)CCC(=O)[O-])c2c1

>  <Energy>  (23) 
71.77597061962443

>  <Genealogy>  (23) 
[NH-]C(=O)Cc1ccc2cc(C(N)=O)n(C(=O)CCC(=O)[O-])c2c1 (protonated)
[NH-]C(=O)Cc1ccc2cc(C(N)=O)n(C(=O)CCC(=O)[O-])c2c1 (3D coordinates assigned)
[NH-]C(=O)Cc1ccc2cc(C(N)=O)n(C(=O)CCC(=O)[O-])c2c1 (optimized conformer: 71.77597061962443 kcal/mol)

>  <smiles>  (23) 
NC(=O)Cc1ccc2cc(C(N)=O)n(C(=O)CCC(=O)O)c2c1

>  <score_type>  (23) 
oracle

>  <origin>  (23) 
adg

>  <m_score__min__energy>  (23) 
-6.9900000000000002

>  <m_primary>  (23) 
energy

$$$$
23:0
     RDKit          3D

 45 47  0  0  0  0  0  0  0  0999 V2000
  142.5520  161.1640  133.6450 N   0  0  0  0  0  0  0  0  0  0  0  0
  143.9520  161.4170  133.7320 C   0  0  0  0  0  0  0  0  0  0  0  0
  144.3600  162.6060  133.8100 O   0  0  0  0  0  0  0  0  0  0  0  0
  144.9300  160.3110  133.6710 C   0  0  0  0  0  0  0  0  0  0  0  0
  146.3070  160.5100  133.5940 C   0  0  0  0  0  0  0  0  0  0  0  0
  146.8490  159.2540  133.4430 C   0  0  0  0  0  0  0  0  0  0  0  0
  148.1790  158.8620  133.3220 C   0  0  0  0  0  0  0  0  0  0  0  0
  148.4530  157.4900  133.2020 C   0  0  0  0  0  0  0  0  0  0  0  0
  147.4000  156.5410  133.2010 C   0  0  0  0  0  0  0  0  0  0  0  0
  147.7080  155.0730  133.1110 C   0  0  0  0  0  0  0  0  0  0  0  0
  147.7310  154.4660  134.4770 C   0  0  0  0  0  0  0  0  0  0  0  0
  148.2630  153.3400  134.6610 O   0  0  0  0  0  0  0  0  0  0  0  0
  147.1200  155.1210  135.5390 O   0  0  0  0  0  0  0  0  0  0  0  0
  146.0630  156.9750  133.3390 C   0  0  0  0  0  0  0  0  0  0  0  0
  145.8190  158.3500  133.4410 C   0  0  0  0  0  0  0  0  0  0  0  0
  144.6330  158.9830  133.5870 N   0  0  0  0  0  0  0  0  0  0  0  0
  143.3450  158.3580  133.6970 C   0  0  0  0  0  0  0  0  0  0  0  0
  142.6470  158.1680  132.6640 O   0  0  0  0  0  0  0  0  0  0  0  0
  142.8620  157.9870  134.9550 O   0  0  0  0  0  0  0  0  0  0  0  0
  141.7820  158.6470  135.6110 C   0  0  0  0  0  0  0  0  0  0  0  0
  140.4740  158.4750  134.8280 C   0  0  0  0  0  0  0  0  0  0  0  0
  140.1860  159.6070  134.0300 O   0  0  0  0  0  0  0  0  0  0  0  0
  139.9060  159.2470  132.6860 C   0  0  1  0  0  0  0  0  0  0  0  0
  138.7370  158.3090  132.6310 C   0  0  0  0  0  0  0  0  0  0  0  0
  138.0540  158.6960  131.3360 C   0  0  0  0  0  0  0  0  0  0  0  0
  138.3980  160.0210  131.0010 O   0  0  0  0  0  0  0  0  0  0  0  0
  139.3970  160.4430  131.9010 C   0  0  0  0  0  0  0  0  0  0  0  0
  142.1900  160.2030  133.4590 H   0  0  0  0  0  0  0  0  0  0  0  0
  146.8462  161.4675  133.6434 H   0  0  0  0  0  0  0  0  0  0  0  0
  148.9908  159.6043  133.3204 H   0  0  0  0  0  0  0  0  0  0  0  0
  149.4944  157.1485  133.1079 H   0  0  0  0  0  0  0  0  0  0  0  0
  146.9357  154.5761  132.5055 H   0  0  0  0  0  0  0  0  0  0  0  0
  148.6946  154.9411  132.6428 H   0  0  0  0  0  0  0  0  0  0  0  0
  145.2348  156.2515  133.3657 H   0  0  0  0  0  0  0  0  0  0  0  0
  141.6576  158.2199  136.6170 H   0  0  0  0  0  0  0  0  0  0  0  0
  142.0140  159.7205  135.6733 H   0  0  0  0  0  0  0  0  0  0  0  0
  140.5626  157.5933  134.1763 H   0  0  0  0  0  0  0  0  0  0  0  0
  139.6558  158.3508  135.5527 H   0  0  0  0  0  0  0  0  0  0  0  0
  140.8392  158.8239  132.2859 H   0  0  0  0  0  0  0  0  0  0  0  0
  139.0711  157.2613  132.6046 H   0  0  0  0  0  0  0  0  0  0  0  0
  138.0783  158.3835  133.5088 H   0  0  0  0  0  0  0  0  0  0  0  0
  138.3797  158.0184  130.5330 H   0  0  0  0  0  0  0  0  0  0  0  0
  136.9636  158.6205  131.4598 H   0  0  0  0  0  0  0  0  0  0  0  0
  140.2286  160.8952  131.3407 H   0  0  0  0  0  0  0  0  0  0  0  0
  138.9767  161.1861  132.5947 H   0  0  0  0  0  0  0  0  0  0  0  0
  1  2  1  0
  2  3  2  0
  2  4  1  0
  4  5  2  0
  5  6  1  0
  6  7  2  0
  7  8  1  0
  8  9  2  0
  9 10  1  0
 10 11  1  0
 11 12  2  0
 11 13  1  0
  9 14  1  0
 14 15  2  0
 15 16  1  0
 16 17  1  0
 17 18  2  0
 17 19  1  0
 19 20  1  0
 20 21  1  0
 21 22  1  0
 22 23  1  0
 23 24  1  0
 24 25  1  0
 25 26  1  0
 26 27  1  0
 16  4  1  0
 27 23  1  0
 15  6  1  0
  1 28  1  0
  5 29  1  0
  7 30  1  0
  8 31  1  0
 10 32  1  0
 10 33  1  0
 14 34  1  0
 20 35  1  0
 20 36  1  0
 21 37  1  0
 21 38  1  0
 23 39  1  6
 24 40  1  0
 24 41  1  0
 25 42  1  0
 25 43  1  0
 27 44  1  0
 27 45  1  0
M  CHG  2   1  -1  13  -1
M  END
>  <UniqueID>  (24) 
24

>  <SMILES>  (24) 
[NH-]C(=O)c1cc2ccc(CC(=O)[O-])cc2n1C(=O)OCCO[C@H]1CCOC1

>  <Energy>  (24) 
83.66217341177654

>  <Genealogy>  (24) 
[NH-]C(=O)c1cc2ccc(CC(=O)[O-])cc2n1C(=O)OCCOC1CCOC1 (protonated)
[NH-]C(=O)c1cc2ccc(CC(=O)[O-])cc2n1C(=O)OCCO[C@H]1CCOC1 (chirality)
[NH-]C(=O)c1cc2ccc(CC(=O)[O-])cc2n1C(=O)OCCO[C@H]1CCOC1 (3D coordinates assigned)
[NH-]C(=O)c1cc2ccc(CC(=O)[O-])cc2n1C(=O)OCCO[C@H]1CCOC1 (nonaromatic ring conformer: 83.66217341177654 kcal/mol)

>  <smiles>  (24) 
NC(=O)c1cc2ccc(CC(=O)O)cc2n1C(=O)OCCOC1CCOC1

>  <score_type>  (24) 
oracle

>  <origin>  (24) 
adg

>  <m_score__min__energy>  (24) 
-7.3899999999999997

>  <m_primary>  (24) 
energy

$$$$
24:0
     RDKit          3D

 64 66  0  0  0  0  0  0  0  0999 V2000
  141.8980  157.0730  139.2400 C   0  0  0  0  0  0  0  0  0  0  0  0
  141.7820  158.4270  138.8160 O   0  0  0  0  0  0  0  0  0  0  0  0
  141.3490  158.7840  137.5360 C   0  0  0  0  0  0  0  0  0  0  0  0
  140.7290  159.8670  137.3420 O   0  0  0  0  0  0  0  0  0  0  0  0
  141.5810  157.8410  136.3940 C   0  0  0  0  0  0  0  0  0  0  0  0
  140.2730  157.2050  135.9030 C   0  0  0  0  0  0  0  0  0  0  0  0
  139.2660  158.2480  135.4000 C   0  0  0  0  0  0  0  0  0  0  0  0
  138.5070  157.7280  134.3110 O   0  0  0  0  0  0  0  0  0  0  0  0
  139.0690  157.0200  133.2430 C   0  0  0  0  0  0  0  0  0  0  0  0
  139.5470  155.8670  133.4290 O   0  0  0  0  0  0  0  0  0  0  0  0
  139.1080  157.5880  131.8800 C   0  0  0  0  0  0  0  0  0  0  0  0
  139.3270  158.8750  131.5710 C   0  0  0  0  0  0  0  0  0  0  0  0
  139.6020  159.9600  132.5760 C   0  0  0  0  0  0  0  0  0  0  0  0
  140.9770  160.3380  132.5420 O   0  0  0  0  0  0  0  0  0  0  0  0
  141.7990  160.3610  133.6750 C   0  0  0  0  0  0  0  0  0  0  0  0
  141.3700  160.8270  134.7650 O   0  0  0  0  0  0  0  0  0  0  0  0
  143.1430  159.8650  133.5850 N   0  0  0  0  0  0  0  0  0  0  0  0
  144.2990  160.5740  133.7150 C   0  0  0  0  0  0  0  0  0  0  0  0
  144.4080  162.0460  133.7910 C   0  0  0  0  0  0  0  0  0  0  0  0
  143.3060  162.8790  133.4360 N   0  0  0  0  0  0  0  0  0  0  0  0
  145.5020  162.5750  134.1220 O   0  0  0  0  0  0  0  0  0  0  0  0
  145.4010  159.7220  133.6900 C   0  0  0  0  0  0  0  0  0  0  0  0
  144.8810  158.4590  133.5360 C   0  0  0  0  0  0  0  0  0  0  0  0
  145.5280  157.2280  133.4640 C   0  0  0  0  0  0  0  0  0  0  0  0
  144.7370  156.0750  133.3390 C   0  0  0  0  0  0  0  0  0  0  0  0
  143.3200  156.1670  133.2940 C   0  0  0  0  0  0  0  0  0  0  0  0
  142.4720  154.9150  133.1570 C   0  0  0  0  0  0  0  0  0  0  0  0
  141.7580  154.5560  134.4920 C   0  0  0  0  0  0  0  0  0  0  0  0
  142.1260  153.1650  135.0220 C   0  0  0  0  0  0  0  0  0  0  0  0
  141.9880  152.1630  133.9550 N   0  0  0  0  0  0  0  0  0  0  0  0
  141.3800  150.8840  134.2110 C   0  0  0  0  0  0  0  0  0  0  0  0
  140.9870  150.5770  135.3680 O   0  0  0  0  0  0  0  0  0  0  0  0
  141.2220  149.9650  133.1790 O   0  0  0  0  0  0  0  0  0  0  0  0
  142.5320  152.4370  132.6160 C   0  0  0  0  0  0  0  0  0  0  0  0
  143.3130  153.7560  132.5820 C   0  0  0  0  0  0  0  0  0  0  0  0
  142.7030  157.4370  133.3680 C   0  0  0  0  0  0  0  0  0  0  0  0
  143.5160  158.5700  133.4760 C   0  0  0  0  0  0  0  0  0  0  0  0
  141.9015  157.0320  140.3392 H   0  0  0  0  0  0  0  0  0  0  0  0
  141.0462  156.4937  138.8542 H   0  0  0  0  0  0  0  0  0  0  0  0
  142.8359  156.6470  138.8542 H   0  0  0  0  0  0  0  0  0  0  0  0
  142.0410  158.3954  135.5627 H   0  0  0  0  0  0  0  0  0  0  0  0
  142.2413  157.0348  136.7460 H   0  0  0  0  0  0  0  0  0  0  0  0
  140.5044  156.5124  135.0803 H   0  0  0  0  0  0  0  0  0  0  0  0
  139.8150  156.6815  136.7551 H   0  0  0  0  0  0  0  0  0  0  0  0
  138.5841  158.5171  136.2201 H   0  0  0  0  0  0  0  0  0  0  0  0
  139.8168  159.1360  135.0564 H   0  0  0  0  0  0  0  0  0  0  0  0
  138.9426  156.8934  131.0433 H   0  0  0  0  0  0  0  0  0  0  0  0
  139.3038  159.1567  130.5079 H   0  0  0  0  0  0  0  0  0  0  0  0
  138.9801  160.8364  132.3413 H   0  0  0  0  0  0  0  0  0  0  0  0
  139.3625  159.5821  133.5809 H   0  0  0  0  0  0  0  0  0  0  0  0
  142.3240  162.5750  133.6170 H   0  0  0  0  0  0  0  0  0  0  0  0
  146.4617  160.0008  133.7754 H   0  0  0  0  0  0  0  0  0  0  0  0
  146.6252  157.1611  133.5039 H   0  0  0  0  0  0  0  0  0  0  0  0
  145.2200  155.0888  133.2752 H   0  0  0  0  0  0  0  0  0  0  0  0
  141.6648  155.1119  132.4362 H   0  0  0  0  0  0  0  0  0  0  0  0
  142.0375  155.3033  135.2493 H   0  0  0  0  0  0  0  0  0  0  0  0
  140.6763  154.5527  134.2922 H   0  0  0  0  0  0  0  0  0  0  0  0
  143.1666  153.1754  135.3785 H   0  0  0  0  0  0  0  0  0  0  0  0
  141.4488  152.9049  135.8488 H   0  0  0  0  0  0  0  0  0  0  0  0
  143.2057  151.6159  132.3297 H   0  0  0  0  0  0  0  0  0  0  0  0
  141.6899  152.5181  131.9130 H   0  0  0  0  0  0  0  0  0  0  0  0
  144.2296  153.6462  133.1801 H   0  0  0  0  0  0  0  0  0  0  0  0
  143.5595  153.9890  131.5356 H   0  0  0  0  0  0  0  0  0  0  0  0
  141.6074  157.5319  133.3412 H   0  0  0  0  0  0  0  0  0  0  0  0
  1  2  1  0
  2  3  1  0
  3  4  2  0
  3  5  1  0
  5  6  1  0
  6  7  1  0
  7  8  1  0
  8  9  1  0
  9 10  2  0
  9 11  1  0
 11 12  2  3
 12 13  1  0
 13 14  1  0
 14 15  1  0
 15 16  2  0
 15 17  1  0
 17 18  1  0
 18 19  1  0
 19 20  1  0
 19 21  2  0
 18 22  2  0
 22 23  1  0
 23 24  2  0
 24 25  1  0
 25 26  2  0
 26 27  1  0
 27 28  1  0
 28 29  1  0
 29 30  1  0
 30 31  1  0
 31 32  2  0
 31 33  1  0
 30 34  1  0
 34 35  1  0
 26 36  1  0
 36 37  2  0
 37 17  1  0
 37 23  1  0
 35 27  1  0
  1 38  1  0
  1 39  1  0
  1 40  1  0
  5 41  1  0
  5 42  1  0
  6 43  1  0
  6 44  1  0
  7 45  1  0
  7 46  1  0
 11 47  1  0
 12 48  1  0
 13 49  1  0
 13 50  1  0
 20 51  1  0
 22 52  1  0
 24 53  1  0
 25 54  1  0
 27 55  1  0
 28 56  1  0
 28 57  1  0
 29 58  1  0
 29 59  1  0
 34 60  1  0
 34 61  1  0
 35 62  1  0
 35 63  1  0
 36 64  1  0
M  CHG  2  20  -1  33  -1
M  END
>  <UniqueID>  (25) 
25

>  <SMILES>  (25) 
COC(=O)CCCOC(=O)C=CCOC(=O)n1c(C([NH-])=O)cc2ccc(C3CCN(C(=O)[O-])CC3)cc21

>  <Energy>  (25) 
96.51936968145107

>  <Genealogy>  (25) 
COC(=O)CCCOC(=O)C=CCOC(=O)n1c(C([NH-])=O)cc2ccc(C3CCN(C(=O)[O-])CC3)cc21 (protonated)
COC(=O)CCCOC(=O)C=CCOC(=O)n1c(C([NH-])=O)cc2ccc(C3CCN(C(=O)[O-])CC3)cc21 (3D coordinates assigned)
COC(=O)CCCOC(=O)C=CCOC(=O)n1c(C([NH-])=O)cc2ccc(C3CCN(C(=O)[O-])CC3)cc21 (nonaromatic ring conformer: 96.51936968145107 kcal/mol)

>  <smiles>  (25) 
COC(=O)CCCOC(=O)C=CCOC(=O)n1c(C(N)=O)cc2ccc(C3CCN(C(=O)O)CC3)cc21

>  <score_type>  (25) 
oracle

>  <origin>  (25) 
adg

>  <m_score__min__energy>  (25) 
-9.1099999999999994

>  <m_primary>  (25) 
energy

$$$$
25:0
     RDKit          3D

 55 57  0  0  0  0  0  0  0  0999 V2000
  140.1080  150.8390  132.2110 C   0  0  0  0  0  0  0  0  0  0  0  0
  141.0440  151.4250  133.2560 C   0  0  0  0  0  0  0  0  0  0  0  0
  140.6810  152.7770  133.5180 O   0  0  0  0  0  0  0  0  0  0  0  0
  141.4200  153.8860  133.0800 C   0  0  0  0  0  0  0  0  0  0  0  0
  143.0010  153.7470  132.6510 S   0  0  0  0  0  0  0  0  0  0  0  0
  140.7860  155.1690  132.9910 N   0  0  0  0  0  0  0  0  0  0  0  0
  139.3760  155.3730  133.3160 C   0  0  0  0  0  0  0  0  0  0  0  0
  139.1490  156.7680  133.9030 C   0  0  0  0  0  0  0  0  0  0  0  0
  140.3170  157.6690  133.6450 C   0  0  0  0  0  0  0  0  0  0  0  0
  141.2320  158.1190  134.5700 C   0  0  0  0  0  0  0  0  0  0  0  0
  142.1180  158.8580  133.8820 N   0  0  0  0  0  0  0  0  0  0  0  0
  143.3060  159.5150  134.4140 C   0  0  0  0  0  0  0  0  0  0  0  0
  144.5410  158.8270  133.9070 C   0  0  0  0  0  0  0  0  0  0  0  0
  145.5080  159.5540  133.1680 C   0  0  0  0  0  0  0  0  0  0  0  0
  146.6750  158.9250  132.7070 C   0  0  0  0  0  0  0  0  0  0  0  0
  146.8590  157.5800  133.0180 C   0  0  0  0  0  0  0  0  0  0  0  0
  147.8990  156.7340  132.7100 C   0  0  0  0  0  0  0  0  0  0  0  0
  147.5720  155.5160  133.3020 C   0  0  0  0  0  0  0  0  0  0  0  0
  148.4710  154.3440  133.3000 C   0  0  0  0  0  0  0  0  0  0  0  0
  148.3590  153.3320  134.2980 N   0  0  0  0  0  0  0  0  0  0  0  0
  149.3840  154.2600  132.4360 O   0  0  0  0  0  0  0  0  0  0  0  0
  146.3730  155.6030  133.9450 N   0  0  0  0  0  0  0  0  0  0  0  0
  145.6520  154.5500  134.6040 C   0  0  0  0  0  0  0  0  0  0  0  0
  145.5190  153.4290  134.0420 O   0  0  0  0  0  0  0  0  0  0  0  0
  145.1120  154.7720  135.8770 O   0  0  0  0  0  0  0  0  0  0  0  0
  144.8090  153.7240  136.7960 C   0  0  0  0  0  0  0  0  0  0  0  0
  146.0450  153.3310  137.6000 C   0  0  0  0  0  0  0  0  0  0  0  0
  147.1150  153.0770  136.7320 O   0  0  0  0  0  0  0  0  0  0  0  0
  145.9500  156.8730  133.7630 C   0  0  0  0  0  0  0  0  0  0  0  0
  144.7670  157.4680  134.2160 C   0  0  0  0  0  0  0  0  0  0  0  0
  141.7810  158.8400  132.6020 N   0  0  0  0  0  0  0  0  0  0  0  0
  140.6820  158.1190  132.4260 N   0  0  0  0  0  0  0  0  0  0  0  0
  139.2781  150.3194  132.7123 H   0  0  0  0  0  0  0  0  0  0  0  0
  139.7078  151.6481  131.5823 H   0  0  0  0  0  0  0  0  0  0  0  0
  140.6610  150.1255  131.5823 H   0  0  0  0  0  0  0  0  0  0  0  0
  140.9691  150.8394  134.1841 H   0  0  0  0  0  0  0  0  0  0  0  0
  142.0776  151.3903  132.8812 H   0  0  0  0  0  0  0  0  0  0  0  0
  141.3230  155.9750  132.5990 H   0  0  0  0  0  0  0  0  0  0  0  0
  138.7758  155.2651  132.4005 H   0  0  0  0  0  0  0  0  0  0  0  0
  139.0746  154.6234  134.0625 H   0  0  0  0  0  0  0  0  0  0  0  0
  138.2508  157.2070  133.4442 H   0  0  0  0  0  0  0  0  0  0  0  0
  139.0240  156.6682  134.9913 H   0  0  0  0  0  0  0  0  0  0  0  0
  141.2366  157.9152  135.6509 H   0  0  0  0  0  0  0  0  0  0  0  0
  143.3162  160.5668  134.0920 H   0  0  0  0  0  0  0  0  0  0  0  0
  143.2875  159.4626  135.5126 H   0  0  0  0  0  0  0  0  0  0  0  0
  145.3423  160.6202  132.9540 H   0  0  0  0  0  0  0  0  0  0  0  0
  147.4217  159.4777  132.1179 H   0  0  0  0  0  0  0  0  0  0  0  0
  148.7979  156.9692  132.1213 H   0  0  0  0  0  0  0  0  0  0  0  0
  147.4250  152.9730  134.5950 H   0  0  0  0  0  0  0  0  0  0  0  0
  144.0240  154.0661  137.4864 H   0  0  0  0  0  0  0  0  0  0  0  0
  144.4654  152.8468  136.2281 H   0  0  0  0  0  0  0  0  0  0  0  0
  146.3141  154.1521  138.2808 H   0  0  0  0  0  0  0  0  0  0  0  0
  145.8262  152.4235  138.1819 H   0  0  0  0  0  0  0  0  0  0  0  0
  146.7780  153.2720  135.8190 H   0  0  0  0  0  0  0  0  0  0  0  0
  144.0324  156.8918  134.7977 H   0  0  0  0  0  0  0  0  0  0  0  0
  1  2  1  0
  2  3  1  0
  3  4  1  0
  4  5  2  0
  4  6  1  0
  6  7  1  0
  7  8  1  0
  8  9  1  0
  9 10  2  0
 10 11  1  0
 11 12  1  0
 12 13  1  0
 13 14  2  0
 14 15  1  0
 15 16  2  0
 16 17  1  0
 17 18  2  0
 18 19  1  0
 19 20  1  0
 19 21  2  0
 18 22  1  0
 22 23  1  0
 23 24  2  0
 23 25  1  0
 25 26  1  0
 26 27  1  0
 27 28  1  0
 22 29  1  0
 29 30  2  0
 11 31  1  0
 31 32  2  0
 32  9  1  0
 30 13  1  0
 29 16  1  0
  1 33  1  0
  1 34  1  0
  1 35  1  0
  2 36  1  0
  2 37  1  0
  6 38  1  0
  7 39  1  0
  7 40  1  0
  8 41  1  0
  8 42  1  0
 10 43  1  0
 12 44  1  0
 12 45  1  0
 14 46  1  0
 15 47  1  0
 17 48  1  0
 20 49  1  0
 26 50  1  0
 26 51  1  0
 27 52  1  0
 27 53  1  0
 28 54  1  0
 30 55  1  0
M  CHG  1  20  -1
M  END
>  <UniqueID>  (26) 
26

>  <SMILES>  (26) 
CCOC(=S)NCCc1cn(Cc2ccc3cc(C([NH-])=O)n(C(=O)OCCO)c3c2)nn1

>  <Energy>  (26) 
109.10278316192456

>  <Genealogy>  (26) 
CCOC(=S)NCCc1cn(Cc2ccc3cc(C([NH-])=O)n(C(=O)OCCO)c3c2)nn1 (protonated)
CCOC(=S)NCCc1cn(Cc2ccc3cc(C([NH-])=O)n(C(=O)OCCO)c3c2)nn1 (3D coordinates assigned)
CCOC(=S)NCCc1cn(Cc2ccc3cc(C([NH-])=O)n(C(=O)OCCO)c3c2)nn1 (optimized conformer: 109.10278316192456 kcal/mol)

>  <smiles>  (26) 
CCOC(=S)NCCc1cn(Cc2ccc3cc(C(N)=O)n(C(=O)OCCO)c3c2)nn1

>  <score_type>  (26) 
oracle

>  <origin>  (26) 
adg

>  <m_score__min__energy>  (26) 
-7.04

>  <m_primary>  (26) 
energy

$$$$
26:0
     RDKit          3D

 25 26  0  0  0  0  0  0  0  0999 V2000
  148.1170  161.2360  131.8400 N   0  0  0  0  0  0  0  0  0  0  0  0
  148.8410  160.0120  131.7080 C   0  0  0  0  0  0  0  0  0  0  0  0
  149.9570  160.0170  131.1220 O   0  0  0  0  0  0  0  0  0  0  0  0
  148.3410  158.7580  132.3030 C   0  0  0  0  0  0  0  0  0  0  0  0
  149.0420  157.5570  132.2590 C   0  0  0  0  0  0  0  0  0  0  0  0
  148.2780  156.6650  132.9740 C   0  0  0  0  0  0  0  0  0  0  0  0
  148.4890  155.3140  133.2290 C   0  0  0  0  0  0  0  0  0  0  0  0
  147.5100  154.6190  133.9590 C   0  0  0  0  0  0  0  0  0  0  0  0
  146.3470  155.2840  134.4270 C   0  0  0  0  0  0  0  0  0  0  0  0
  145.2750  154.5120  135.1540 C   0  0  0  0  0  0  0  0  0  0  0  0
  144.7570  153.5480  134.3090 F   0  0  0  0  0  0  0  0  0  0  0  0
  145.7930  153.8950  136.2790 F   0  0  0  0  0  0  0  0  0  0  0  0
  144.2540  155.3550  135.5550 F   0  0  0  0  0  0  0  0  0  0  0  0
  146.1580  156.6520  134.1240 C   0  0  0  0  0  0  0  0  0  0  0  0
  147.1590  157.3250  133.4140 C   0  0  0  0  0  0  0  0  0  0  0  0
  147.1810  158.6150  133.0050 N   0  0  0  0  0  0  0  0  0  0  0  0
  146.1360  159.5900  133.1670 C   0  0  0  0  0  0  0  0  0  0  0  0
  144.9790  159.3670  132.7220 O   0  0  0  0  0  0  0  0  0  0  0  0
  146.3940  160.7930  133.8120 O   0  0  0  0  0  0  0  0  0  0  0  0
  148.4680  162.1050  131.3820 H   0  0  0  0  0  0  0  0  0  0  0  0
  147.2780  161.3000  132.4580 H   0  0  0  0  0  0  0  0  0  0  0  0
  150.0023  157.3626  131.7590 H   0  0  0  0  0  0  0  0  0  0  0  0
  149.3954  154.8047  132.8698 H   0  0  0  0  0  0  0  0  0  0  0  0
  147.6465  153.5481  134.1699 H   0  0  0  0  0  0  0  0  0  0  0  0
  145.2438  157.1762  134.4395 H   0  0  0  0  0  0  0  0  0  0  0  0
  1  2  1  0
  2  3  2  0
  2  4  1  0
  4  5  2  0
  5  6  1  0
  6  7  2  0
  7  8  1  0
  8  9  2  0
  9 10  1  0
 10 11  1  0
 10 12  1  0
 10 13  1  0
  9 14  1  0
 14 15  2  0
 15 16  1  0
 16 17  1  0
 17 18  2  0
 17 19  1  0
 16  4  1  0
 15  6  1  0
  1 20  1  0
  1 21  1  0
  5 22  1  0
  7 23  1  0
  8 24  1  0
 14 25  1  0
M  CHG  1  19  -1
M  END
>  <UniqueID>  (27) 
27

>  <SMILES>  (27) 
NC(=O)c1cc2ccc(C(F)(F)F)cc2n1C(=O)[O-]

>  <Energy>  (27) 
66.269420212568

>  <Genealogy>  (27) 
NC(=O)c1cc2ccc(C(F)(F)F)cc2n1C(=O)[O-] (protonated)
NC(=O)c1cc2ccc(C(F)(F)F)cc2n1C(=O)[O-] (3D coordinates assigned)
NC(=O)c1cc2ccc(C(F)(F)F)cc2n1C(=O)[O-] (optimized conformer: 66.269420212568 kcal/mol)

>  <smiles>  (27) 
NC(=O)c1cc2ccc(C(F)(F)F)cc2n1C(=O)O

>  <score_type>  (27) 
oracle

>  <origin>  (27) 
adg

>  <m_score__min__energy>  (27) 
-5.3200000000000003

>  <m_primary>  (27) 
energy

$$$$
27:0
     RDKit          3D

 42 44  0  0  0  0  0  0  0  0999 V2000
  143.2020  161.3980  133.6900 N   0  0  0  0  0  0  0  0  0  0  0  0
  144.6160  161.4520  133.8530 C   0  0  0  0  0  0  0  0  0  0  0  0
  145.1460  162.5040  134.3030 O   0  0  0  0  0  0  0  0  0  0  0  0
  145.4620  160.2780  133.5540 C   0  0  0  0  0  0  0  0  0  0  0  0
  146.8390  160.3530  133.3640 C   0  0  0  0  0  0  0  0  0  0  0  0
  147.2590  159.0510  133.2130 C   0  0  0  0  0  0  0  0  0  0  0  0
  148.5340  158.5410  132.9900 C   0  0  0  0  0  0  0  0  0  0  0  0
  148.6720  157.1500  132.8480 C   0  0  0  0  0  0  0  0  0  0  0  0
  147.5410  156.2950  132.9250 C   0  0  0  0  0  0  0  0  0  0  0  0
  147.6970  154.8280  132.7640 C   0  0  0  0  0  0  0  0  0  0  0  0
  146.5700  153.9840  132.7600 C   0  0  0  0  0  0  0  0  0  0  0  0
  146.7180  152.6020  132.6070 C   0  0  0  0  0  0  0  0  0  0  0  0
  145.6230  151.8020  132.6100 F   0  0  0  0  0  0  0  0  0  0  0  0
  147.9910  152.0460  132.4560 C   0  0  0  0  0  0  0  0  0  0  0  0
  148.1330  150.7060  132.3080 F   0  0  0  0  0  0  0  0  0  0  0  0
  149.1180  152.8730  132.4580 C   0  0  0  0  0  0  0  0  0  0  0  0
  150.3540  152.3350  132.3060 F   0  0  0  0  0  0  0  0  0  0  0  0
  148.9740  154.2550  132.6100 C   0  0  0  0  0  0  0  0  0  0  0  0
  146.2610  156.8550  133.1510 C   0  0  0  0  0  0  0  0  0  0  0  0
  146.1580  158.2420  133.3070 C   0  0  0  0  0  0  0  0  0  0  0  0
  145.0440  158.9800  133.5110 N   0  0  0  0  0  0  0  0  0  0  0  0
  143.7000  158.4830  133.5910 C   0  0  0  0  0  0  0  0  0  0  0  0
  143.2090  157.8390  132.6250 O   0  0  0  0  0  0  0  0  0  0  0  0
  142.9520  158.6970  134.7550 O   0  0  0  0  0  0  0  0  0  0  0  0
  141.6050  158.2540  134.9160 C   0  0  0  0  0  0  0  0  0  0  0  0
  140.6080  159.3670  134.5660 C   0  0  0  0  0  0  0  0  0  0  0  0
  140.2090  159.3540  133.0880 C   0  0  0  0  0  0  0  0  0  0  0  0
  141.2860  159.7690  132.2940 O   0  0  0  0  0  0  0  0  0  0  0  0
  142.6870  160.4910  133.7540 H   0  0  0  0  0  0  0  0  0  0  0  0
  147.4600  161.2606  133.3397 H   0  0  0  0  0  0  0  0  0  0  0  0
  149.4075  159.2065  132.9268 H   0  0  0  0  0  0  0  0  0  0  0  0
  149.6687  156.7179  132.6750 H   0  0  0  0  0  0  0  0  0  0  0  0
  145.5650  154.4153  132.8782 H   0  0  0  0  0  0  0  0  0  0  0  0
  149.8651  154.8999  132.6093 H   0  0  0  0  0  0  0  0  0  0  0  0
  145.3679  156.2150  133.2028 H   0  0  0  0  0  0  0  0  0  0  0  0
  141.4289  157.3935  134.2537 H   0  0  0  0  0  0  0  0  0  0  0  0
  141.4553  157.9712  135.9684 H   0  0  0  0  0  0  0  0  0  0  0  0
  139.7028  159.2345  135.1768 H   0  0  0  0  0  0  0  0  0  0  0  0
  141.0974  160.3305  134.7713 H   0  0  0  0  0  0  0  0  0  0  0  0
  139.9163  158.3337  132.7993 H   0  0  0  0  0  0  0  0  0  0  0  0
  139.3647  160.0429  132.9374 H   0  0  0  0  0  0  0  0  0  0  0  0
  142.0950  159.6930  132.8650 H   0  0  0  0  0  0  0  0  0  0  0  0
  1  2  1  0
  2  3  2  0
  2  4  1  0
  4  5  2  0
  5  6  1  0
  6  7  2  0
  7  8  1  0
  8  9  2  0
  9 10  1  0
 10 11  2  0
 11 12  1  0
 12 13  1  0
 12 14  2  0
 14 15  1  0
 14 16  1  0
 16 17  1  0
 16 18  2  0
  9 19  1  0
 19 20  2  0
 20 21  1  0
 21 22  1  0
 22 23  2  0
 22 24  1  0
 24 25  1  0
 25 26  1  0
 26 27  1  0
 27 28  1  0
 21  4  1  0
 20  6  1  0
 18 10  1  0
  1 29  1  0
  5 30  1  0
  7 31  1  0
  8 32  1  0
 11 33  1  0
 18 34  1  0
 19 35  1  0
 25 36  1  0
 25 37  1  0
 26 38  1  0
 26 39  1  0
 27 40  1  0
 27 41  1  0
 28 42  1  0
M  CHG  1   1  -1
M  END
>  <UniqueID>  (28) 
28

>  <SMILES>  (28) 
[NH-]C(=O)c1cc2ccc(-c3cc(F)c(F)c(F)c3)cc2n1C(=O)OCCCO

>  <Energy>  (28) 
83.29101697238443

>  <Genealogy>  (28) 
[NH-]C(=O)c1cc2ccc(-c3cc(F)c(F)c(F)c3)cc2n1C(=O)OCCCO (protonated)
[NH-]C(=O)c1cc2ccc(-c3cc(F)c(F)c(F)c3)cc2n1C(=O)OCCCO (3D coordinates assigned)
[NH-]C(=O)c1cc2ccc(-c3cc(F)c(F)c(F)c3)cc2n1C(=O)OCCCO (optimized conformer: 83.29101697238443 kcal/mol)

>  <smiles>  (28) 
NC(=O)c1cc2ccc(-c3cc(F)c(F)c(F)c3)cc2n1C(=O)OCCCO

>  <score_type>  (28) 
oracle

>  <origin>  (28) 
adg

>  <m_score__min__energy>  (28) 
-6.6100000000000003

>  <m_primary>  (28) 
energy

$$$$
28:0
     RDKit          3D

 54 56  0  0  0  0  0  0  0  0999 V2000
  140.9820  158.9940  137.0490 C   0  0  0  0  0  0  0  0  0  0  0  0
  140.4190  158.1000  135.9860 C   0  0  0  0  0  0  0  0  0  0  0  0
  140.4670  156.8540  136.1500 O   0  0  0  0  0  0  0  0  0  0  0  0
  139.7920  158.6130  134.8030 N   0  0  0  0  0  0  0  0  0  0  0  0
  140.4710  159.1370  133.6170 C   0  0  2  0  0  0  0  0  0  0  0  0
  141.4410  160.2830  133.9720 C   0  0  0  0  0  0  0  0  0  0  0  0
  142.8950  159.9100  133.8070 C   0  0  0  0  0  0  0  0  0  0  0  0
  143.8910  160.9190  133.7990 C   0  0  0  0  0  0  0  0  0  0  0  0
  145.2470  160.5860  133.6530 C   0  0  0  0  0  0  0  0  0  0  0  0
  145.5760  159.2440  133.4950 C   0  0  0  0  0  0  0  0  0  0  0  0
  146.8040  158.6500  133.3150 C   0  0  0  0  0  0  0  0  0  0  0  0
  146.5350  157.2930  133.1660 C   0  0  0  0  0  0  0  0  0  0  0  0
  147.5730  156.2990  132.8280 C   0  0  0  0  0  0  0  0  0  0  0  0
  147.3270  155.2790  131.8590 N   0  0  0  0  0  0  0  0  0  0  0  0
  148.7140  156.3910  133.3540 O   0  0  0  0  0  0  0  0  0  0  0  0
  145.1980  157.0490  133.2760 N   0  0  0  0  0  0  0  0  0  0  0  0
  144.5230  155.7790  133.2350 C   0  0  0  0  0  0  0  0  0  0  0  0
  144.4870  155.1260  132.1570 O   0  0  0  0  0  0  0  0  0  0  0  0
  143.8650  155.2120  134.4670 C   0  0  0  0  0  0  0  0  0  0  0  0
  142.4060  154.7850  134.2120 C   0  0  0  0  0  0  0  0  0  0  0  0
  141.6710  155.8490  133.3780 C   0  0  0  0  0  0  0  0  0  0  0  0
  140.2180  155.4120  133.0790 C   0  0  0  0  0  0  0  0  0  0  0  0
  139.9730  154.0420  133.3550 O   0  0  0  0  0  0  0  0  0  0  0  0
  140.9780  153.2410  132.7680 C   0  0  0  0  0  0  0  0  0  0  0  0
  142.3160  153.4100  133.5120 C   0  0  0  0  0  0  0  0  0  0  0  0
  144.6240  158.2570  133.4730 C   0  0  0  0  0  0  0  0  0  0  0  0
  143.2680  158.5550  133.6530 C   0  0  0  0  0  0  0  0  0  0  0  0
  139.4470  159.5880  132.6110 C   0  0  0  0  0  0  0  0  0  0  0  0
  139.4180  160.9410  132.1600 N   0  0  0  0  0  0  0  0  0  0  0  0
  138.6300  158.7550  132.1350 O   0  0  0  0  0  0  0  0  0  0  0  0
  140.7278  158.5903  138.0401 H   0  0  0  0  0  0  0  0  0  0  0  0
  142.0757  159.0453  136.9435 H   0  0  0  0  0  0  0  0  0  0  0  0
  140.5557  160.0025  136.9435 H   0  0  0  0  0  0  0  0  0  0  0  0
  141.0782  158.3310  133.1792 H   0  0  0  0  0  0  0  0  0  0  0  0
  141.2240  161.1393  133.3165 H   0  0  0  0  0  0  0  0  0  0  0  0
  141.2856  160.5231  135.0342 H   0  0  0  0  0  0  0  0  0  0  0  0
  143.5983  161.9737  133.9083 H   0  0  0  0  0  0  0  0  0  0  0  0
  146.0256  161.3629  133.6633 H   0  0  0  0  0  0  0  0  0  0  0  0
  147.7874  159.1423  133.2935 H   0  0  0  0  0  0  0  0  0  0  0  0
  146.4550  155.2770  131.2860 H   0  0  0  0  0  0  0  0  0  0  0  0
  148.0600  154.5630  131.6560 H   0  0  0  0  0  0  0  0  0  0  0  0
  144.4369  154.3333  134.7999 H   0  0  0  0  0  0  0  0  0  0  0  0
  143.8538  156.0008  135.2336 H   0  0  0  0  0  0  0  0  0  0  0  0
  141.9197  154.6917  135.1943 H   0  0  0  0  0  0  0  0  0  0  0  0
  141.6540  156.7960  133.9374 H   0  0  0  0  0  0  0  0  0  0  0  0
  142.2027  155.9750  132.4233 H   0  0  0  0  0  0  0  0  0  0  0  0
  139.5378  156.0187  133.6948 H   0  0  0  0  0  0  0  0  0  0  0  0
  140.0493  155.5613  132.0023 H   0  0  0  0  0  0  0  0  0  0  0  0
  140.6707  152.1858  132.8137 H   0  0  0  0  0  0  0  0  0  0  0  0
  141.1136  153.5553  131.7226 H   0  0  0  0  0  0  0  0  0  0  0  0
  142.4065  152.6171  134.2690 H   0  0  0  0  0  0  0  0  0  0  0  0
  143.1306  153.3439  132.7758 H   0  0  0  0  0  0  0  0  0  0  0  0
  142.5125  157.7558  133.6741 H   0  0  0  0  0  0  0  0  0  0  0  0
  138.6900  161.6050  132.5030 H   0  0  0  0  0  0  0  0  0  0  0  0
  1  2  1  0
  2  3  2  0
  2  4  1  0
  4  5  1  0
  5  6  1  0
  6  7  1  0
  7  8  2  0
  8  9  1  0
  9 10  2  0
 10 11  1  0
 11 12  2  0
 12 13  1  0
 13 14  1  0
 13 15  2  0
 12 16  1  0
 16 17  1  0
 17 18  2  0
 17 19  1  0
 19 20  1  0
 20 21  1  0
 21 22  1  0
 22 23  1  0
 23 24  1  0
 24 25  1  0
 16 26  1  0
 26 27  2  0
  5 28  1  0
 28 29  1  0
 28 30  2  0
 27  7  1  0
 26 10  1  0
 25 20  1  0
  1 31  1  0
  1 32  1  0
  1 33  1  0
  5 34  1  6
  6 35  1  0
  6 36  1  0
  8 37  1  0
  9 38  1  0
 11 39  1  0
 14 40  1  0
 14 41  1  0
 19 42  1  0
 19 43  1  0
 20 44  1  0
 21 45  1  0
 21 46  1  0
 22 47  1  0
 22 48  1  0
 24 49  1  0
 24 50  1  0
 25 51  1  0
 25 52  1  0
 27 53  1  0
 29 54  1  0
M  CHG  2   4  -1  29  -1
M  END
>  <UniqueID>  (29) 
29

>  <SMILES>  (29) 
CC(=O)[N-][C@H](Cc1ccc2cc(C(N)=O)n(C(=O)CC3CCOCC3)c2c1)C([NH-])=O

>  <Energy>  (29) 
93.13563891908926

>  <Genealogy>  (29) 
CC(=O)[N-]C(Cc1ccc2cc(C(N)=O)n(C(=O)CC3CCOCC3)c2c1)C([NH-])=O (protonated)
CC(=O)[N-][C@H](Cc1ccc2cc(C(N)=O)n(C(=O)CC3CCOCC3)c2c1)C([NH-])=O (chirality)
CC(=O)[N-][C@H](Cc1ccc2cc(C(N)=O)n(C(=O)CC3CCOCC3)c2c1)C([NH-])=O (3D coordinates assigned)
CC(=O)[N-][C@H](Cc1ccc2cc(C(N)=O)n(C(=O)CC3CCOCC3)c2c1)C([NH-])=O (nonaromatic ring conformer: 93.13563891908926 kcal/mol)

>  <smiles>  (29) 
CC(=O)NC(Cc1ccc2cc(C(N)=O)n(C(=O)CC3CCOCC3)c2c1)C(N)=O

>  <score_type>  (29) 
oracle

>  <origin>  (29) 
adg

>  <m_score__min__energy>  (29) 
-9.6099999999999994

>  <m_primary>  (29) 
energy

$$$$
29:0
     RDKit          3D

 40 41  0  0  0  0  0  0  0  0999 V2000
  142.0700  150.8610  139.3550 C   0  0  0  0  0  0  0  0  0  0  0  0
  140.8800  151.5780  138.6990 C   0  0  2  0  0  0  0  0  0  0  0  0
  140.1750  150.7380  137.6660 C   0  0  0  0  0  0  0  0  0  0  0  0
  139.1100  150.1250  137.9480 O   0  0  0  0  0  0  0  0  0  0  0  0
  140.6540  150.6990  136.3630 O   0  0  0  0  0  0  0  0  0  0  0  0
  141.2790  152.8850  138.1340 N   0  0  0  0  0  0  0  0  0  0  0  0
  142.1160  152.9210  136.9310 C   0  0  0  0  0  0  0  0  0  0  0  0
  140.8130  154.1490  138.6590 C   0  0  0  0  0  0  0  0  0  0  0  0
  139.5930  154.2810  138.9500 O   0  0  0  0  0  0  0  0  0  0  0  0
  141.7180  155.3380  138.8290 C   0  0  0  0  0  0  0  0  0  0  0  0
  141.3700  156.4020  137.8250 C   0  0  0  0  0  0  0  0  0  0  0  0
  141.3560  157.7660  138.2090 C   0  0  0  0  0  0  0  0  0  0  0  0
  141.0110  158.7660  137.2860 C   0  0  0  0  0  0  0  0  0  0  0  0
  140.6710  158.3720  135.9950 C   0  0  0  0  0  0  0  0  0  0  0  0
  140.3170  159.1320  134.9040 C   0  0  0  0  0  0  0  0  0  0  0  0
  140.0880  158.2190  133.8760 C   0  0  0  0  0  0  0  0  0  0  0  0
  139.5930  158.5980  132.5340 C   0  0  0  0  0  0  0  0  0  0  0  0
  138.7330  157.7250  131.8010 N   0  0  0  0  0  0  0  0  0  0  0  0
  139.9540  159.6860  132.0110 O   0  0  0  0  0  0  0  0  0  0  0  0
  140.2950  156.9440  134.3140 N   0  0  0  0  0  0  0  0  0  0  0  0
  140.2300  155.7330  133.5410 C   0  0  0  0  0  0  0  0  0  0  0  0
  141.2640  155.0380  133.3590 O   0  0  0  0  0  0  0  0  0  0  0  0
  139.0300  155.3270  132.9700 O   0  0  0  0  0  0  0  0  0  0  0  0
  140.6510  157.0560  135.6140 C   0  0  0  0  0  0  0  0  0  0  0  0
  141.0090  156.0400  136.5080 C   0  0  0  0  0  0  0  0  0  0  0  0
  141.9747  150.9184  140.4494 H   0  0  0  0  0  0  0  0  0  0  0  0
  142.0801  149.8063  139.0426 H   0  0  0  0  0  0  0  0  0  0  0  0
  143.0072  151.3449  139.0426 H   0  0  0  0  0  0  0  0  0  0  0  0
  140.1539  151.7548  139.5062 H   0  0  0  0  0  0  0  0  0  0  0  0
  143.1756  152.9666  137.2228 H   0  0  0  0  0  0  0  0  0  0  0  0
  141.9388  152.0144  136.3338 H   0  0  0  0  0  0  0  0  0  0  0  0
  141.8616  153.8090  136.3338 H   0  0  0  0  0  0  0  0  0  0  0  0
  141.5986  155.7435  139.8445 H   0  0  0  0  0  0  0  0  0  0  0  0
  142.7598  155.0221  138.6713 H   0  0  0  0  0  0  0  0  0  0  0  0
  141.6181  158.0440  139.2405 H   0  0  0  0  0  0  0  0  0  0  0  0
  141.0094  159.8276  137.5740 H   0  0  0  0  0  0  0  0  0  0  0  0
  140.2326  160.2276  134.8538 H   0  0  0  0  0  0  0  0  0  0  0  0
  138.4210  157.9830  130.8370 H   0  0  0  0  0  0  0  0  0  0  0  0
  138.3690  156.8430  132.2230 H   0  0  0  0  0  0  0  0  0  0  0  0
  141.0092  154.9861  136.1929 H   0  0  0  0  0  0  0  0  0  0  0  0
  1  2  1  0
  2  3  1  0
  3  4  2  0
  3  5  1  0
  2  6  1  0
  6  7  1  0
  6  8  1  0
  8  9  2  0
  8 10  1  0
 10 11  1  0
 11 12  2  0
 12 13  1  0
 13 14  2  0
 14 15  1  0
 15 16  2  0
 16 17  1  0
 17 18  1  0
 17 19  2  0
 16 20  1  0
 20 21  1  0
 21 22  2  0
 21 23  1  0
 20 24  1  0
 24 25  2  0
 25 11  1  0
 24 14  1  0
  1 26  1  0
  1 27  1  0
  1 28  1  0
  2 29  1  1
  7 30  1  0
  7 31  1  0
  7 32  1  0
 10 33  1  0
 10 34  1  0
 12 35  1  0
 13 36  1  0
 15 37  1  0
 18 38  1  0
 18 39  1  0
 25 40  1  0
M  CHG  2   5  -1  23  -1
M  END
>  <UniqueID>  (30) 
30

>  <SMILES>  (30) 
C[C@H](C(=O)[O-])N(C)C(=O)Cc1ccc2cc(C(N)=O)n(C(=O)[O-])c2c1

>  <Energy>  (30) 
79.4033190015136

>  <Genealogy>  (30) 
CC(C(=O)[O-])N(C)C(=O)Cc1ccc2cc(C(N)=O)n(C(=O)[O-])c2c1 (protonated)
C[C@H](C(=O)[O-])N(C)C(=O)Cc1ccc2cc(C(N)=O)n(C(=O)[O-])c2c1 (chirality)
C[C@H](C(=O)[O-])N(C)C(=O)Cc1ccc2cc(C(N)=O)n(C(=O)[O-])c2c1 (3D coordinates assigned)
C[C@H](C(=O)[O-])N(C)C(=O)Cc1ccc2cc(C(N)=O)n(C(=O)[O-])c2c1 (optimized conformer: 79.4033190015136 kcal/mol)

>  <smiles>  (30) 
CC(C(=O)O)N(C)C(=O)Cc1ccc2cc(C(N)=O)n(C(=O)O)c2c1

>  <score_type>  (30) 
oracle

>  <origin>  (30) 
adg

>  <m_score__min__energy>  (30) 
-7.7400000000000002

>  <m_primary>  (30) 
energy

$$$$
30:0
     RDKit          3D

 40 42  0  0  0  0  0  0  0  0999 V2000
  140.6120  152.3310  138.4190 N   0  0  0  0  0  0  0  0  0  0  0  0
  141.0010  153.5810  138.9840 C   0  0  0  0  0  0  0  0  0  0  0  0
  141.2630  153.6460  140.2140 O   0  0  0  0  0  0  0  0  0  0  0  0
  141.1380  154.7690  138.1150 C   0  0  0  0  0  0  0  0  0  0  0  0
  140.6040  156.0160  138.4350 C   0  0  0  0  0  0  0  0  0  0  0  0
  140.8570  156.8120  137.3430 C   0  0  0  0  0  0  0  0  0  0  0  0
  140.5430  158.1500  137.1210 C   0  0  0  0  0  0  0  0  0  0  0  0
  140.9410  158.7250  135.9030 C   0  0  0  0  0  0  0  0  0  0  0  0
  141.6510  157.9630  134.9420 C   0  0  0  0  0  0  0  0  0  0  0  0
  142.0380  158.5810  133.6270 C   0  0  0  0  0  0  0  0  0  0  0  0
  141.1120  159.7210  133.3060 C   0  0  0  0  0  0  0  0  0  0  0  0
  141.3910  160.8670  133.7530 O   0  0  0  0  0  0  0  0  0  0  0  0
  139.9660  159.5560  132.4490 N   0  0  0  0  0  0  0  0  0  0  0  0
  139.2840  160.6900  131.8530 C   0  0  0  0  0  0  0  0  0  0  0  0
  138.3470  160.1040  130.8050 C   0  0  0  0  0  0  0  0  0  0  0  0
  138.1880  158.6300  131.1660 C   0  0  0  0  0  0  0  0  0  0  0  0
  139.4020  158.2780  132.0300 C   0  0  2  0  0  0  0  0  0  0  0  0
  138.9950  157.4470  133.2170 C   0  0  0  0  0  0  0  0  0  0  0  0
  138.4710  157.9970  134.2210 O   0  0  0  0  0  0  0  0  0  0  0  0
  139.2410  156.0790  133.2340 O   0  0  0  0  0  0  0  0  0  0  0  0
  141.9450  156.6060  135.2000 C   0  0  0  0  0  0  0  0  0  0  0  0
  141.5220  156.0530  136.4150 C   0  0  0  0  0  0  0  0  0  0  0  0
  141.7070  154.7960  136.8760 N   0  0  0  0  0  0  0  0  0  0  0  0
  142.4220  153.7380  136.2150 C   0  0  0  0  0  0  0  0  0  0  0  0
  141.7960  152.8140  135.6320 O   0  0  0  0  0  0  0  0  0  0  0  0
  143.8110  153.7380  136.1890 O   0  0  0  0  0  0  0  0  0  0  0  0
  140.9270  152.0530  137.4630 H   0  0  0  0  0  0  0  0  0  0  0  0
  140.0894  156.3025  139.3640 H   0  0  0  0  0  0  0  0  0  0  0  0
  140.0004  158.7382  137.8757 H   0  0  0  0  0  0  0  0  0  0  0  0
  140.6992  159.7773  135.6929 H   0  0  0  0  0  0  0  0  0  0  0  0
  143.0702  158.9560  133.6898 H   0  0  0  0  0  0  0  0  0  0  0  0
  141.9662  157.8215  132.8345 H   0  0  0  0  0  0  0  0  0  0  0  0
  138.7113  161.2374  132.6162 H   0  0  0  0  0  0  0  0  0  0  0  0
  139.9942  161.4030  131.4089 H   0  0  0  0  0  0  0  0  0  0  0  0
  137.3723  160.6130  130.8354 H   0  0  0  0  0  0  0  0  0  0  0  0
  138.7474  160.2306  129.7883 H   0  0  0  0  0  0  0  0  0  0  0  0
  137.2574  158.4724  131.7309 H   0  0  0  0  0  0  0  0  0  0  0  0
  138.1335  157.9972  130.2679 H   0  0  0  0  0  0  0  0  0  0  0  0
  140.1366  157.6765  131.4745 H   0  0  0  0  0  0  0  0  0  0  0  0
  142.4928  155.9984  134.4646 H   0  0  0  0  0  0  0  0  0  0  0  0
  1  2  1  0
  2  3  2  0
  2  4  1  0
  4  5  2  0
  5  6  1  0
  6  7  2  0
  7  8  1  0
  8  9  2  0
  9 10  1  0
 10 11  1  0
 11 12  2  0
 11 13  1  0
 13 14  1  0
 14 15  1  0
 15 16  1  0
 16 17  1  0
 17 18  1  0
 18 19  2  0
 18 20  1  0
  9 21  1  0
 21 22  2  0
 22 23  1  0
 23 24  1  0
 24 25  2  0
 24 26  1  0
 23  4  1  0
 22  6  1  0
 17 13  1  0
  1 27  1  0
  5 28  1  0
  7 29  1  0
  8 30  1  0
 10 31  1  0
 10 32  1  0
 14 33  1  0
 14 34  1  0
 15 35  1  0
 15 36  1  0
 16 37  1  0
 16 38  1  0
 17 39  1  6
 21 40  1  0
M  CHG  3   1  -1  20  -1  26  -1
M  END
>  <UniqueID>  (31) 
31

>  <SMILES>  (31) 
[NH-]C(=O)c1cc2ccc(CC(=O)N3CCC[C@@H]3C(=O)[O-])cc2n1C(=O)[O-]

>  <Energy>  (31) 
80.0509176652124

>  <Genealogy>  (31) 
[NH-]C(=O)c1cc2ccc(CC(=O)N3CCC[C@@H]3C(=O)[O-])cc2n1C(=O)[O-] (protonated)
[NH-]C(=O)c1cc2ccc(CC(=O)N3CCC[C@@H]3C(=O)[O-])cc2n1C(=O)[O-] (3D coordinates assigned)
[NH-]C(=O)c1cc2ccc(CC(=O)N3CCC[C@@H]3C(=O)[O-])cc2n1C(=O)[O-] (nonaromatic ring conformer: 80.0509176652124 kcal/mol)

>  <smiles>  (31) 
NC(=O)c1cc2ccc(CC(=O)N3CCC[C@@H]3C(=O)O)cc2n1C(=O)O

>  <score_type>  (31) 
oracle

>  <origin>  (31) 
adg

>  <m_score__min__energy>  (31) 
-7.7000000000000002

>  <m_primary>  (31) 
energy

$$$$
31:0
     RDKit          3D

 37 38  0  0  0  0  0  0  0  0999 V2000
  146.5430  160.7970  133.4210 N   0  0  0  0  0  0  0  0  0  0  0  0
  145.5740  159.7560  133.2920 C   0  0  0  0  0  0  0  0  0  0  0  0
  144.3840  160.0530  133.0050 O   0  0  0  0  0  0  0  0  0  0  0  0
  145.9560  158.3360  133.4210 C   0  0  0  0  0  0  0  0  0  0  0  0
  145.0420  157.3190  133.6800 C   0  0  0  0  0  0  0  0  0  0  0  0
  145.7770  156.1570  133.6580 C   0  0  0  0  0  0  0  0  0  0  0  0
  145.3750  154.8420  133.8740 C   0  0  0  0  0  0  0  0  0  0  0  0
  146.3550  153.8380  133.8330 C   0  0  0  0  0  0  0  0  0  0  0  0
  147.7120  154.1630  133.5830 C   0  0  0  0  0  0  0  0  0  0  0  0
  148.7630  153.0830  133.5940 C   0  0  0  0  0  0  0  0  0  0  0  0
  149.2210  152.7230  132.1750 C   0  0  0  0  0  0  0  0  0  0  0  0
  148.8740  151.3080  131.8290 C   0  0  0  0  0  0  0  0  0  0  0  0
  147.7050  150.8820  132.0350 O   0  0  0  0  0  0  0  0  0  0  0  0
  149.8420  150.4900  131.2340 O   0  0  0  0  0  0  0  0  0  0  0  0
  150.3860  150.7280  129.9370 C   0  0  0  0  0  0  0  0  0  0  0  0
  151.0030  149.4540  129.3630 C   0  0  0  0  0  0  0  0  0  0  0  0
  150.7510  148.3890  130.2060 F   0  0  0  0  0  0  0  0  0  0  0  0
  150.4760  149.1830  128.1140 F   0  0  0  0  0  0  0  0  0  0  0  0
  152.3720  149.6200  129.2440 F   0  0  0  0  0  0  0  0  0  0  0  0
  148.0840  155.5100  133.3790 C   0  0  0  0  0  0  0  0  0  0  0  0
  147.0830  156.4900  133.4030 C   0  0  0  0  0  0  0  0  0  0  0  0
  147.2100  157.8290  133.2590 N   0  0  0  0  0  0  0  0  0  0  0  0
  148.4340  158.5670  133.1020 C   0  0  0  0  0  0  0  0  0  0  0  0
  149.1390  158.4230  132.0690 O   0  0  0  0  0  0  0  0  0  0  0  0
  148.8570  159.4430  134.0950 O   0  0  0  0  0  0  0  0  0  0  0  0
  147.5620  160.5790  133.4930 H   0  0  0  0  0  0  0  0  0  0  0  0
  146.2490  161.7970  133.3610 H   0  0  0  0  0  0  0  0  0  0  0  0
  143.9623  157.4225  133.8632 H   0  0  0  0  0  0  0  0  0  0  0  0
  144.3209  154.5970  134.0709 H   0  0  0  0  0  0  0  0  0  0  0  0
  146.0673  152.7889  133.9964 H   0  0  0  0  0  0  0  0  0  0  0  0
  149.6311  153.4361  134.1700 H   0  0  0  0  0  0  0  0  0  0  0  0
  148.3257  152.1835  134.0519 H   0  0  0  0  0  0  0  0  0  0  0  0
  148.7287  153.3972  131.4587 H   0  0  0  0  0  0  0  0  0  0  0  0
  150.3145  152.8319  132.1271 H   0  0  0  0  0  0  0  0  0  0  0  0
  149.5841  151.0730  129.2678 H   0  0  0  0  0  0  0  0  0  0  0  0
  151.1722  151.4928  130.0204 H   0  0  0  0  0  0  0  0  0  0  0  0
  149.1352  155.7834  133.2053 H   0  0  0  0  0  0  0  0  0  0  0  0
  1  2  1  0
  2  3  2  0
  2  4  1  0
  4  5  2  0
  5  6  1  0
  6  7  2  0
  7  8  1  0
  8  9  2  0
  9 10  1  0
 10 11  1  0
 11 12  1  0
 12 13  2  0
 12 14  1  0
 14 15  1  0
 15 16  1  0
 16 17  1  0
 16 18  1  0
 16 19  1  0
  9 20  1  0
 20 21  2  0
 21 22  1  0
 22 23  1  0
 23 24  2  0
 23 25  1  0
 22  4  1  0
 21  6  1  0
  1 26  1  0
  1 27  1  0
  5 28  1  0
  7 29  1  0
  8 30  1  0
 10 31  1  0
 10 32  1  0
 11 33  1  0
 11 34  1  0
 15 35  1  0
 15 36  1  0
 20 37  1  0
M  CHG  1  25  -1
M  END
>  <UniqueID>  (32) 
32

>  <SMILES>  (32) 
NC(=O)c1cc2ccc(CCC(=O)OCC(F)(F)F)cc2n1C(=O)[O-]

>  <Energy>  (32) 
69.96360870253207

>  <Genealogy>  (32) 
NC(=O)c1cc2ccc(CCC(=O)OCC(F)(F)F)cc2n1C(=O)[O-] (protonated)
NC(=O)c1cc2ccc(CCC(=O)OCC(F)(F)F)cc2n1C(=O)[O-] (3D coordinates assigned)
NC(=O)c1cc2ccc(CCC(=O)OCC(F)(F)F)cc2n1C(=O)[O-] (optimized conformer: 69.96360870253207 kcal/mol)

>  <smiles>  (32) 
NC(=O)c1cc2ccc(CCC(=O)OCC(F)(F)F)cc2n1C(=O)O

>  <score_type>  (32) 
oracle

>  <origin>  (32) 
adg

>  <m_score__min__energy>  (32) 
-6.2300000000000004

>  <m_primary>  (32) 
energy

$$$$
32:0
     RDKit          3D

 43 45  0  0  0  0  0  0  0  0999 V2000
  148.1090  153.3310  134.1920 N   0  0  0  0  0  0  0  0  0  0  0  0
  148.4910  154.2290  133.1530 C   0  0  0  0  0  0  0  0  0  0  0  0
  149.2500  153.8250  132.2340 O   0  0  0  0  0  0  0  0  0  0  0  0
  148.0310  155.6290  133.1830 C   0  0  0  0  0  0  0  0  0  0  0  0
  148.8330  156.7180  132.8470 C   0  0  0  0  0  0  0  0  0  0  0  0
  148.0110  157.8190  132.9410 C   0  0  0  0  0  0  0  0  0  0  0  0
  148.2890  159.1680  132.7400 C   0  0  0  0  0  0  0  0  0  0  0  0
  147.2480  160.0910  132.9460 C   0  0  0  0  0  0  0  0  0  0  0  0
  145.9590  159.6520  133.3390 C   0  0  0  0  0  0  0  0  0  0  0  0
  144.8680  160.6530  133.6060 C   0  0  0  0  0  0  0  0  0  0  0  0
  143.6530  159.9650  134.2400 C   0  0  0  0  0  0  0  0  0  0  0  0
  142.3330  160.5530  133.7340 C   0  0  0  0  0  0  0  0  0  0  0  0
  141.8360  159.8060  132.6560 O   0  0  0  0  0  0  0  0  0  0  0  0
  145.7190  158.2750  133.5420 C   0  0  0  0  0  0  0  0  0  0  0  0
  146.7700  157.3810  133.3220 C   0  0  0  0  0  0  0  0  0  0  0  0
  146.7680  156.0420  133.4780 N   0  0  0  0  0  0  0  0  0  0  0  0
  145.6700  155.2600  133.9740 C   0  0  0  0  0  0  0  0  0  0  0  0
  145.7450  154.7590  135.1270 O   0  0  0  0  0  0  0  0  0  0  0  0
  144.4860  154.9270  133.0950 C   0  0  0  0  0  0  0  0  0  0  0  0
  143.0650  155.3280  133.5390 C   0  0  0  0  0  0  0  0  0  0  0  0
  142.7980  156.7770  133.2790 C   0  0  0  0  0  0  0  0  0  0  0  0
  143.2570  157.3300  132.2450 O   0  0  0  0  0  0  0  0  0  0  0  0
  142.0220  157.5120  134.1650 O   0  0  0  0  0  0  0  0  0  0  0  0
  144.5920  153.5730  132.4020 C   0  0  0  0  0  0  0  0  0  0  0  0
  144.7330  154.8530  131.5900 C   0  0  0  0  0  0  0  0  0  0  0  0
  147.1040  153.1890  134.4370 H   0  0  0  0  0  0  0  0  0  0  0  0
  149.8965  156.7017  132.5664 H   0  0  0  0  0  0  0  0  0  0  0  0
  149.2904  159.5014  132.4301 H   0  0  0  0  0  0  0  0  0  0  0  0
  147.4362  161.1650  132.8006 H   0  0  0  0  0  0  0  0  0  0  0  0
  145.2454  161.4258  134.2918 H   0  0  0  0  0  0  0  0  0  0  0  0
  144.5620  161.1092  132.6530 H   0  0  0  0  0  0  0  0  0  0  0  0
  143.6825  158.8935  133.9930 H   0  0  0  0  0  0  0  0  0  0  0  0
  143.7013  160.1238  135.3274 H   0  0  0  0  0  0  0  0  0  0  0  0
  141.5964  160.5414  134.5509 H   0  0  0  0  0  0  0  0  0  0  0  0
  142.5130  161.5840  133.3954 H   0  0  0  0  0  0  0  0  0  0  0  0
  142.3810  158.9780  132.6020 H   0  0  0  0  0  0  0  0  0  0  0  0
  144.7307  157.9159  133.8648 H   0  0  0  0  0  0  0  0  0  0  0  0
  142.3329  154.7242  132.9827 H   0  0  0  0  0  0  0  0  0  0  0  0
  142.9782  155.1497  134.6210 H   0  0  0  0  0  0  0  0  0  0  0  0
  145.4698  152.9334  132.5766 H   0  0  0  0  0  0  0  0  0  0  0  0
  143.9529  152.6799  132.3398 H   0  0  0  0  0  0  0  0  0  0  0  0
  145.7125  155.1383  131.1787 H   0  0  0  0  0  0  0  0  0  0  0  0
  144.2382  155.2675  130.6993 H   0  0  0  0  0  0  0  0  0  0  0  0
  1  2  1  0
  2  3  2  0
  2  4  1  0
  4  5  2  0
  5  6  1  0
  6  7  2  0
  7  8  1  0
  8  9  2  0
  9 10  1  0
 10 11  1  0
 11 12  1  0
 12 13  1  0
  9 14  1  0
 14 15  2  0
 15 16  1  0
 16 17  1  0
 17 18  2  0
 17 19  1  0
 19 20  1  0
 20 21  1  0
 21 22  2  0
 21 23  1  0
 19 24  1  0
 24 25  1  0
 16  4  1  0
 25 19  1  0
 15  6  1  0
  1 26  1  0
  5 27  1  0
  7 28  1  0
  8 29  1  0
 10 30  1  0
 10 31  1  0
 11 32  1  0
 11 33  1  0
 12 34  1  0
 12 35  1  0
 13 36  1  0
 14 37  1  0
 20 38  1  0
 20 39  1  0
 24 40  1  0
 24 41  1  0
 25 42  1  0
 25 43  1  0
M  CHG  2   1  -1  23  -1
M  END
>  <UniqueID>  (33) 
33

>  <SMILES>  (33) 
[NH-]C(=O)c1cc2ccc(CCCO)cc2n1C(=O)C1(CC(=O)[O-])CC1

>  <Energy>  (33) 
344.049492050141

>  <Genealogy>  (33) 
[NH-]C(=O)c1cc2ccc(CCCO)cc2n1C(=O)C1(CC(=O)[O-])CC1 (protonated)
[NH-]C(=O)c1cc2ccc(CCCO)cc2n1C(=O)C1(CC(=O)[O-])CC1 (3D coordinates assigned)
[NH-]C(=O)c1cc2ccc(CCCO)cc2n1C(=O)C1(CC(=O)[O-])CC1 (nonaromatic ring conformer: 344.049492050141 kcal/mol)

>  <smiles>  (33) 
NC(=O)c1cc2ccc(CCCO)cc2n1C(=O)C1(CC(=O)O)CC1

>  <score_type>  (33) 
oracle

>  <origin>  (33) 
adg

>  <m_score__min__energy>  (33) 
-7.0899999999999999

>  <m_primary>  (33) 
energy

$$$$
33:0
     RDKit          3D

 51 53  0  0  0  0  0  0  0  0999 V2000
  146.8130  155.2830  132.5630 C   0  0  0  0  0  0  0  0  0  0  0  0
  145.4050  155.0920  133.1560 C   0  0  0  0  0  0  0  0  0  0  0  0
  145.4690  155.3230  134.6730 C   0  0  0  0  0  0  0  0  0  0  0  0
  144.8940  153.6620  132.8920 C   0  0  0  0  0  0  0  0  0  0  0  0
  144.4940  156.0620  132.6180 O   0  0  0  0  0  0  0  0  0  0  0  0
  143.3840  156.6140  133.2740 C   0  0  0  0  0  0  0  0  0  0  0  0
  142.4530  155.8790  133.7030 O   0  0  0  0  0  0  0  0  0  0  0  0
  143.2950  158.0380  133.4340 N   0  0  0  0  0  0  0  0  0  0  0  0
  142.1770  158.7830  133.6630 C   0  0  0  0  0  0  0  0  0  0  0  0
  140.7840  158.2900  133.6240 C   0  0  0  0  0  0  0  0  0  0  0  0
  140.3810  157.3010  132.6800 N   0  0  0  0  0  0  0  0  0  0  0  0
  139.9250  158.7840  134.4040 O   0  0  0  0  0  0  0  0  0  0  0  0
  142.5120  160.1180  133.8680 C   0  0  0  0  0  0  0  0  0  0  0  0
  143.8820  160.1730  133.7510 C   0  0  0  0  0  0  0  0  0  0  0  0
  144.7490  161.2520  133.8770 C   0  0  0  0  0  0  0  0  0  0  0  0
  146.1260  161.0130  133.7380 C   0  0  0  0  0  0  0  0  0  0  0  0
  146.6170  159.7050  133.4830 C   0  0  0  0  0  0  0  0  0  0  0  0
  148.1180  159.4810  133.3480 C   0  0  1  0  0  0  0  0  0  0  0  0
  148.4660  158.0150  133.4460 C   0  0  0  0  0  0  0  0  0  0  0  0
  148.2610  157.4030  134.4820 O   0  0  0  0  0  0  0  0  0  0  0  0
  148.7520  160.1240  132.0800 C   0  0  1  0  0  0  0  0  0  0  0  0
  149.8990  159.3700  131.4370 C   0  0  0  0  0  0  0  0  0  0  0  0
  149.9130  159.8900  130.0060 C   0  0  0  0  0  0  0  0  0  0  0  0
  148.5890  160.4490  129.7050 N   0  0  0  0  0  0  0  0  0  0  0  0
  147.7850  160.3280  130.9220 C   0  0  0  0  0  0  0  0  0  0  0  0
  145.6970  158.6320  133.3700 C   0  0  0  0  0  0  0  0  0  0  0  0
  144.3310  158.9050  133.4900 C   0  0  0  0  0  0  0  0  0  0  0  0
  147.5441  155.3822  133.3789 H   0  0  0  0  0  0  0  0  0  0  0  0
  147.0711  154.4117  131.9432 H   0  0  0  0  0  0  0  0  0  0  0  0
  146.8297  156.1916  131.9432 H   0  0  0  0  0  0  0  0  0  0  0  0
  145.2108  154.3909  135.1970 H   0  0  0  0  0  0  0  0  0  0  0  0
  146.4866  155.6320  134.9542 H   0  0  0  0  0  0  0  0  0  0  0  0
  144.7555  156.1115  134.9542 H   0  0  0  0  0  0  0  0  0  0  0  0
  144.7127  153.1545  133.8510 H   0  0  0  0  0  0  0  0  0  0  0  0
  143.9566  153.7077  132.3183 H   0  0  0  0  0  0  0  0  0  0  0  0
  145.6481  153.1032  132.3183 H   0  0  0  0  0  0  0  0  0  0  0  0
  141.0810  156.6690  132.2340 H   0  0  0  0  0  0  0  0  0  0  0  0
  141.8269  160.9524  134.0789 H   0  0  0  0  0  0  0  0  0  0  0  0
  144.3678  162.2637  134.0797 H   0  0  0  0  0  0  0  0  0  0  0  0
  146.8338  161.8503  133.8279 H   0  0  0  0  0  0  0  0  0  0  0  0
  148.5663  160.0112  134.2012 H   0  0  0  0  0  0  0  0  0  0  0  0
  148.9057  157.4969  132.5810 H   0  0  0  0  0  0  0  0  0  0  0  0
  149.0988  161.0662  132.5294 H   0  0  0  0  0  0  0  0  0  0  0  0
  150.8490  159.5927  131.9449 H   0  0  0  0  0  0  0  0  0  0  0  0
  149.7773  158.2782  131.4935 H   0  0  0  0  0  0  0  0  0  0  0  0
  150.6793  160.6723  129.9021 H   0  0  0  0  0  0  0  0  0  0  0  0
  150.1464  159.0724  129.3082 H   0  0  0  0  0  0  0  0  0  0  0  0
  148.7020  161.4680  129.4870 H   0  0  0  0  0  0  0  0  0  0  0  0
  147.1973  161.2446  131.0784 H   0  0  0  0  0  0  0  0  0  0  0  0
  147.0834  159.4843  130.8450 H   0  0  0  0  0  0  0  0  0  0  0  0
  146.0507  157.6058  133.1916 H   0  0  0  0  0  0  0  0  0  0  0  0
  1  2  1  0
  2  3  1  0
  2  4  1  0
  2  5  1  0
  5  6  1  0
  6  7  2  0
  6  8  1  0
  8  9  1  0
  9 10  1  0
 10 11  1  0
 10 12  2  0
  9 13  2  0
 13 14  1  0
 14 15  2  0
 15 16  1  0
 16 17  2  0
 17 18  1  0
 18 19  1  0
 19 20  2  0
 18 21  1  0
 21 22  1  0
 22 23  1  0
 23 24  1  0
 24 25  1  0
 17 26  1  0
 26 27  2  0
 27  8  1  0
 27 14  1  0
 25 21  1  0
  1 28  1  0
  1 29  1  0
  1 30  1  0
  3 31  1  0
  3 32  1  0
  3 33  1  0
  4 34  1  0
  4 35  1  0
  4 36  1  0
 11 37  1  0
 13 38  1  0
 15 39  1  0
 16 40  1  0
 18 41  1  1
 19 42  1  0
 21 43  1  1
 22 44  1  0
 22 45  1  0
 23 46  1  0
 23 47  1  0
 24 48  1  0
 25 49  1  0
 25 50  1  0
 26 51  1  0
M  CHG  1  11  -1
M  END
>  <UniqueID>  (34) 
34

>  <SMILES>  (34) 
CC(C)(C)OC(=O)n1c(C([NH-])=O)cc2ccc([C@@H](C=O)[C@H]3CCNC3)cc21

>  <Energy>  (34) 
88.67055865188227

>  <Genealogy>  (34) 
CC(C)(C)OC(=O)n1c(C([NH-])=O)cc2ccc(C(C=O)C3CCNC3)cc21 (protonated)
CC(C)(C)OC(=O)n1c(C([NH-])=O)cc2ccc([C@@H](C=O)[C@H]3CCNC3)cc21 (chirality)
CC(C)(C)OC(=O)n1c(C([NH-])=O)cc2ccc([C@@H](C=O)[C@H]3CCNC3)cc21 (3D coordinates assigned)
CC(C)(C)OC(=O)n1c(C([NH-])=O)cc2ccc([C@@H](C=O)[C@H]3CCNC3)cc21 (nonaromatic ring conformer: 88.67055865188227 kcal/mol)

>  <smiles>  (34) 
CC(C)(C)OC(=O)n1c(C(N)=O)cc2ccc(C(C=O)C3CCNC3)cc21

>  <score_type>  (34) 
oracle

>  <origin>  (34) 
adg

>  <m_score__min__energy>  (34) 
-8.1699999999999999

>  <m_primary>  (34) 
energy

$$$$
34:0
     RDKit          3D

 38 40  0  0  0  0  0  0  0  0999 V2000
  141.3990  155.6070  133.7760 C   0  0  0  0  0  0  0  0  0  0  0  0
  142.3850  156.3970  134.5760 C   0  0  0  0  0  0  0  0  0  0  0  0
  142.9970  155.8380  135.5260 O   0  0  0  0  0  0  0  0  0  0  0  0
  142.6510  157.7740  134.2670 N   0  0  0  0  0  0  0  0  0  0  0  0
  141.7940  158.8280  134.3750 C   0  0  0  0  0  0  0  0  0  0  0  0
  140.3550  158.7480  134.7070 C   0  0  0  0  0  0  0  0  0  0  0  0
  139.9190  158.5980  136.0560 N   0  0  0  0  0  0  0  0  0  0  0  0
  139.4990  158.7800  133.7830 O   0  0  0  0  0  0  0  0  0  0  0  0
  142.4480  160.0220  134.0700 C   0  0  0  0  0  0  0  0  0  0  0  0
  143.7420  159.6620  133.7700 C   0  0  0  0  0  0  0  0  0  0  0  0
  144.8330  160.4530  133.4220 C   0  0  0  0  0  0  0  0  0  0  0  0
  146.0670  159.8160  133.2080 C   0  0  0  0  0  0  0  0  0  0  0  0
  146.1860  158.4100  133.3430 C   0  0  0  0  0  0  0  0  0  0  0  0
  147.5200  157.7430  133.1610 C   0  0  0  0  0  0  0  0  0  0  0  0
  148.5280  158.7370  132.6690 C   0  0  0  0  0  0  0  0  0  0  0  0
  148.8680  159.6980  133.4120 O   0  0  0  0  0  0  0  0  0  0  0  0
  149.0680  158.6200  131.3480 N   0  0  0  0  0  0  0  0  0  0  0  0
  149.9730  159.6280  130.8020 C   0  0  0  0  0  0  0  0  0  0  0  0
  149.3520  161.0060  130.6630 C   0  0  0  0  0  0  0  0  0  0  0  0
  149.5500  160.1330  129.4330 C   0  0  0  0  0  0  0  0  0  0  0  0
  145.0580  157.6410  133.7090 C   0  0  0  0  0  0  0  0  0  0  0  0
  143.8390  158.3000  133.8980 C   0  0  0  0  0  0  0  0  0  0  0  0
  140.7243  155.0664  134.4561 H   0  0  0  0  0  0  0  0  0  0  0  0
  140.8121  156.2877  133.1417 H   0  0  0  0  0  0  0  0  0  0  0  0
  141.9353  154.8858  133.1417 H   0  0  0  0  0  0  0  0  0  0  0  0
  139.0220  159.0210  136.3810 H   0  0  0  0  0  0  0  0  0  0  0  0
  142.0204  161.0355  134.0694 H   0  0  0  0  0  0  0  0  0  0  0  0
  144.7323  161.5434  133.3177 H   0  0  0  0  0  0  0  0  0  0  0  0
  146.9486  160.4138  132.9332 H   0  0  0  0  0  0  0  0  0  0  0  0
  147.8553  157.3306  134.1240 H   0  0  0  0  0  0  0  0  0  0  0  0
  147.4210  156.9338  132.4224 H   0  0  0  0  0  0  0  0  0  0  0  0
  148.7270  157.8570  130.7220 H   0  0  0  0  0  0  0  0  0  0  0  0
  150.9023  159.2369  131.2419 H   0  0  0  0  0  0  0  0  0  0  0  0
  148.3384  161.1938  131.0468 H   0  0  0  0  0  0  0  0  0  0  0  0
  149.6492  162.0257  130.9492 H   0  0  0  0  0  0  0  0  0  0  0  0
  148.6798  159.6890  128.9274 H   0  0  0  0  0  0  0  0  0  0  0  0
  150.0497  160.2590  128.4612 H   0  0  0  0  0  0  0  0  0  0  0  0
  145.1369  156.5519  133.8418 H   0  0  0  0  0  0  0  0  0  0  0  0
  1  2  1  0
  2  3  2  0
  2  4  1  0
  4  5  1  0
  5  6  1  0
  6  7  1  0
  6  8  2  0
  5  9  2  0
  9 10  1  0
 10 11  2  0
 11 12  1  0
 12 13  2  0
 13 14  1  0
 14 15  1  0
 15 16  2  0
 15 17  1  0
 17 18  1  0
 18 19  1  0
 19 20  1  0
 13 21  1  0
 21 22  2  0
 22  4  1  0
 22 10  1  0
 20 18  1  0
  1 23  1  0
  1 24  1  0
  1 25  1  0
  7 26  1  0
  9 27  1  0
 11 28  1  0
 12 29  1  0
 14 30  1  0
 14 31  1  0
 17 32  1  0
 18 33  1  0
 19 34  1  0
 19 35  1  0
 20 36  1  0
 20 37  1  0
 21 38  1  0
M  CHG  1   7  -1
M  END
>  <UniqueID>  (35) 
35

>  <SMILES>  (35) 
CC(=O)n1c(C([NH-])=O)cc2ccc(CC(=O)NC3CC3)cc21

>  <Energy>  (35) 
337.98423277908927

>  <Genealogy>  (35) 
CC(=O)n1c(C([NH-])=O)cc2ccc(CC(=O)NC3CC3)cc21 (protonated)
CC(=O)n1c(C([NH-])=O)cc2ccc(CC(=O)NC3CC3)cc21 (3D coordinates assigned)
CC(=O)n1c(C([NH-])=O)cc2ccc(CC(=O)NC3CC3)cc21 (nonaromatic ring conformer: 337.98423277908927 kcal/mol)

>  <smiles>  (35) 
CC(=O)n1c(C(N)=O)cc2ccc(CC(=O)NC3CC3)cc21

>  <score_type>  (35) 
oracle

>  <origin>  (35) 
adg

>  <m_score__min__energy>  (35) 
-7.7999999999999998

>  <m_primary>  (35) 
energy

$$$$
35:0
     RDKit          3D

 55 57  0  0  0  0  0  0  0  0999 V2000
  149.1820  152.7530  139.8140 C   0  0  0  0  0  0  0  0  0  0  0  0
  149.5520  153.4220  138.5600 N   0  0  0  0  0  0  0  0  0  0  0  0
  149.4440  154.8760  138.7200 C   0  0  0  0  0  0  0  0  0  0  0  0
  148.4830  152.9060  137.2810 S   0  0  0  0  0  0  0  0  0  0  0  0
  149.2360  152.0620  136.2890 O   0  0  0  0  0  0  0  0  0  0  0  0
  147.3550  152.0980  137.8520 O   0  0  0  0  0  0  0  0  0  0  0  0
  147.7910  154.3190  136.4420 C   0  0  0  0  0  0  0  0  0  0  0  0
  146.7180  153.8750  135.4100 C   0  0  0  0  0  0  0  0  0  0  0  0
  147.1830  153.5660  134.0290 N   0  0  0  0  0  0  0  0  0  0  0  0
  146.5060  154.3330  132.9730 C   0  0  0  0  0  0  0  0  0  0  0  0
  147.7940  155.0700  132.5740 C   0  0  0  0  0  0  0  0  0  0  0  0
  147.7090  156.5690  132.8060 C   0  0  0  0  0  0  0  0  0  0  0  0
  148.8060  157.4480  132.5580 C   0  0  0  0  0  0  0  0  0  0  0  0
  148.6780  158.8330  132.7570 C   0  0  0  0  0  0  0  0  0  0  0  0
  147.4310  159.3200  133.1620 C   0  0  0  0  0  0  0  0  0  0  0  0
  147.0070  160.6160  133.3440 C   0  0  0  0  0  0  0  0  0  0  0  0
  145.6460  160.5250  133.6230 C   0  0  0  0  0  0  0  0  0  0  0  0
  144.7860  161.6950  133.9310 C   0  0  0  0  0  0  0  0  0  0  0  0
  143.3680  161.6490  133.7380 N   0  0  0  0  0  0  0  0  0  0  0  0
  145.3060  162.7400  134.4110 O   0  0  0  0  0  0  0  0  0  0  0  0
  145.2480  159.2200  133.6170 N   0  0  0  0  0  0  0  0  0  0  0  0
  143.9120  158.7030  133.7200 C   0  0  0  0  0  0  0  0  0  0  0  0
  143.2690  158.8430  134.7960 O   0  0  0  0  0  0  0  0  0  0  0  0
  143.3240  158.0780  132.6160 O   0  0  0  0  0  0  0  0  0  0  0  0
  142.0520  157.4290  132.6840 C   0  0  0  0  0  0  0  0  0  0  0  0
  140.9620  158.4700  132.9110 C   0  0  0  0  0  0  0  0  0  0  0  0
  141.4400  159.7480  132.6000 O   0  0  0  0  0  0  0  0  0  0  0  0
  146.3540  158.4970  133.3450 C   0  0  0  0  0  0  0  0  0  0  0  0
  146.4590  157.1140  133.1680 C   0  0  0  0  0  0  0  0  0  0  0  0
  148.4530  154.1990  133.6490 C   0  0  0  0  0  0  0  0  0  0  0  0
  149.5182  153.3609  140.6669 H   0  0  0  0  0  0  0  0  0  0  0  0
  148.0894  152.6332  139.8571 H   0  0  0  0  0  0  0  0  0  0  0  0
  149.6613  151.7639  139.8571 H   0  0  0  0  0  0  0  0  0  0  0  0
  149.4254  155.1267  139.7909 H   0  0  0  0  0  0  0  0  0  0  0  0
  150.3085  155.3624  138.2445 H   0  0  0  0  0  0  0  0  0  0  0  0
  148.5171  155.2294  138.2445 H   0  0  0  0  0  0  0  0  0  0  0  0
  147.3254  154.9860  137.1824 H   0  0  0  0  0  0  0  0  0  0  0  0
  148.5978  154.8435  135.9092 H   0  0  0  0  0  0  0  0  0  0  0  0
  146.2340  152.9699  135.8057 H   0  0  0  0  0  0  0  0  0  0  0  0
  146.0582  154.7478  135.2964 H   0  0  0  0  0  0  0  0  0  0  0  0
  146.0954  153.7035  132.1698 H   0  0  0  0  0  0  0  0  0  0  0  0
  145.6158  154.9240  133.2343 H   0  0  0  0  0  0  0  0  0  0  0  0
  148.2166  155.1258  131.5599 H   0  0  0  0  0  0  0  0  0  0  0  0
  149.7635  157.0359  132.2067 H   0  0  0  0  0  0  0  0  0  0  0  0
  149.5296  159.5112  132.5996 H   0  0  0  0  0  0  0  0  0  0  0  0
  147.6148  161.5308  133.2822 H   0  0  0  0  0  0  0  0  0  0  0  0
  142.8230  160.7740  133.9180 H   0  0  0  0  0  0  0  0  0  0  0  0
  141.8606  156.8975  131.7401 H   0  0  0  0  0  0  0  0  0  0  0  0
  142.0513  156.7099  133.5164 H   0  0  0  0  0  0  0  0  0  0  0  0
  140.0996  158.2387  132.2686 H   0  0  0  0  0  0  0  0  0  0  0  0
  140.6601  158.4479  133.9685 H   0  0  0  0  0  0  0  0  0  0  0  0
  142.2590  159.8800  133.1440 H   0  0  0  0  0  0  0  0  0  0  0  0
  145.5834  156.4631  133.3084 H   0  0  0  0  0  0  0  0  0  0  0  0
  149.1905  153.4900  133.2449 H   0  0  0  0  0  0  0  0  0  0  0  0
  149.0544  154.6877  134.4297 H   0  0  0  0  0  0  0  0  0  0  0  0
  1  2  1  0
  2  3  1  0
  2  4  1  0
  4  5  2  0
  4  6  2  0
  4  7  1  0
  7  8  1  0
  8  9  1  0
  9 10  1  0
 10 11  1  0
 11 12  1  0
 12 13  2  0
 13 14  1  0
 14 15  2  0
 15 16  1  0
 16 17  2  0
 17 18  1  0
 18 19  1  0
 18 20  2  0
 17 21  1  0
 21 22  1  0
 22 23  2  0
 22 24  1  0
 24 25  1  0
 25 26  1  0
 26 27  1  0
 21 28  1  0
 28 29  2  0
 11 30  1  0
 30  9  1  0
 29 12  1  0
 28 15  1  0
  1 31  1  0
  1 32  1  0
  1 33  1  0
  3 34  1  0
  3 35  1  0
  3 36  1  0
  7 37  1  0
  7 38  1  0
  8 39  1  0
  8 40  1  0
 10 41  1  0
 10 42  1  0
 11 43  1  0
 13 44  1  0
 14 45  1  0
 16 46  1  0
 19 47  1  0
 25 48  1  0
 25 49  1  0
 26 50  1  0
 26 51  1  0
 27 52  1  0
 29 53  1  0
 30 54  1  0
 30 55  1  0
M  CHG  1  19  -1
M  END
>  <UniqueID>  (36) 
36

>  <SMILES>  (36) 
CN(C)S(=O)(=O)CCN1CC(c2ccc3cc(C([NH-])=O)n(C(=O)OCCO)c3c2)C1

>  <Energy>  (36) 
162.2041952406741

>  <Genealogy>  (36) 
CN(C)S(=O)(=O)CCN1CC(c2ccc3cc(C([NH-])=O)n(C(=O)OCCO)c3c2)C1 (protonated)
CN(C)S(=O)(=O)CCN1CC(c2ccc3cc(C([NH-])=O)n(C(=O)OCCO)c3c2)C1 (3D coordinates assigned)
CN(C)S(=O)(=O)CCN1CC(c2ccc3cc(C([NH-])=O)n(C(=O)OCCO)c3c2)C1 (nonaromatic ring conformer: 162.2041952406741 kcal/mol)

>  <smiles>  (36) 
CN(C)S(=O)(=O)CCN1CC(c2ccc3cc(C(N)=O)n(C(=O)OCCO)c3c2)C1

>  <score_type>  (36) 
oracle

>  <origin>  (36) 
adg

>  <m_score__min__energy>  (36) 
-7.7000000000000002

>  <m_primary>  (36) 
energy

$$$$
36:0
     RDKit          3D

 42 44  0  0  0  0  0  0  0  0999 V2000
  141.7610  154.1610  133.5340 C   0  0  0  0  0  0  0  0  0  0  0  0
  143.1150  154.6770  133.2680 N   0  0  2  0  0  0  0  0  0  0  0  0
  143.6880  154.1070  132.0340 C   0  0  0  0  0  0  0  0  0  0  0  0
  145.1500  153.7420  132.3170 C   0  0  0  0  0  0  0  0  0  0  0  0
  145.2580  153.5990  133.8280 C   0  0  1  0  0  0  0  0  0  0  0  0
  146.4300  154.2590  134.3050 O   0  0  0  0  0  0  0  0  0  0  0  0
  147.7140  153.9940  133.8160 C   0  0  0  0  0  0  0  0  0  0  0  0
  148.4770  153.1810  134.4070 O   0  0  0  0  0  0  0  0  0  0  0  0
  148.2050  154.7400  132.6190 C   0  0  0  0  0  0  0  0  0  0  0  0
  147.8440  156.1930  132.7490 C   0  0  0  0  0  0  0  0  0  0  0  0
  148.8580  157.1830  132.7460 C   0  0  0  0  0  0  0  0  0  0  0  0
  148.5360  158.5380  132.9350 C   0  0  0  0  0  0  0  0  0  0  0  0
  147.1990  158.8690  133.1280 C   0  0  0  0  0  0  0  0  0  0  0  0
  146.6180  160.0920  133.3750 C   0  0  0  0  0  0  0  0  0  0  0  0
  145.2560  159.8320  133.5160 C   0  0  0  0  0  0  0  0  0  0  0  0
  144.2450  160.8910  133.7140 C   0  0  0  0  0  0  0  0  0  0  0  0
  142.8780  160.6750  133.3720 N   0  0  0  0  0  0  0  0  0  0  0  0
  144.6000  162.0210  134.1460 O   0  0  0  0  0  0  0  0  0  0  0  0
  145.0050  158.4990  133.3710 N   0  0  0  0  0  0  0  0  0  0  0  0
  143.7530  157.8140  133.5380 C   0  0  0  0  0  0  0  0  0  0  0  0
  142.9060  157.8010  132.6060 O   0  0  0  0  0  0  0  0  0  0  0  0
  143.4530  157.1840  134.7390 O   0  0  0  0  0  0  0  0  0  0  0  0
  146.2040  157.9250  133.1290 C   0  0  0  0  0  0  0  0  0  0  0  0
  146.4980  156.5670  132.9570 C   0  0  0  0  0  0  0  0  0  0  0  0
  144.0300  154.2870  134.2990 C   0  0  0  0  0  0  0  0  0  0  0  0
  143.8260  154.5370  135.4790 O   0  0  0  0  0  0  0  0  0  0  0  0
  141.5990  154.0992  134.6202 H   0  0  0  0  0  0  0  0  0  0  0  0
  141.0167  154.8385  133.0902 H   0  0  0  0  0  0  0  0  0  0  0  0
  141.6564  153.1600  133.0902 H   0  0  0  0  0  0  0  0  0  0  0  0
  143.0920  155.7220  133.2090 H   0  0  0  0  0  0  0  0  0  0  0  0
  143.1276  153.2062  131.7433 H   0  0  0  0  0  0  0  0  0  0  0  0
  143.6275  154.8354  131.2119 H   0  0  0  0  0  0  0  0  0  0  0  0
  145.4104  152.7942  131.8232 H   0  0  0  0  0  0  0  0  0  0  0  0
  145.8396  154.5082  131.9331 H   0  0  0  0  0  0  0  0  0  0  0  0
  145.3366  152.5586  134.1763 H   0  0  0  0  0  0  0  0  0  0  0  0
  149.2980  154.6391  132.5475 H   0  0  0  0  0  0  0  0  0  0  0  0
  147.7376  154.3265  131.7132 H   0  0  0  0  0  0  0  0  0  0  0  0
  149.9069  156.8882  132.5944 H   0  0  0  0  0  0  0  0  0  0  0  0
  149.3171  159.3125  132.9304 H   0  0  0  0  0  0  0  0  0  0  0  0
  147.1216  161.0674  133.4460 H   0  0  0  0  0  0  0  0  0  0  0  0
  142.6120  159.9770  132.6420 H   0  0  0  0  0  0  0  0  0  0  0  0
  145.7004  155.8100  132.9832 H   0  0  0  0  0  0  0  0  0  0  0  0
  1  2  1  0
  2  3  1  0
  3  4  1  0
  4  5  1  0
  5  6  1  0
  6  7  1  0
  7  8  2  0
  7  9  1  0
  9 10  1  0
 10 11  2  0
 11 12  1  0
 12 13  2  0
 13 14  1  0
 14 15  2  0
 15 16  1  0
 16 17  1  0
 16 18  2  0
 15 19  1  0
 19 20  1  0
 20 21  2  0
 20 22  1  0
 19 23  1  0
 23 24  2  0
  5 25  1  0
 25 26  2  0
 25  2  1  0
 24 10  1  0
 23 13  1  0
  1 27  1  0
  1 28  1  0
  1 29  1  0
  2 30  1  6
  3 31  1  0
  3 32  1  0
  4 33  1  0
  4 34  1  0
  5 35  1  6
  9 36  1  0
  9 37  1  0
 11 38  1  0
 12 39  1  0
 14 40  1  0
 17 41  1  0
 24 42  1  0
M  CHG  3   2   1  17  -1  22  -1
M  END
>  <UniqueID>  (37) 
37

>  <SMILES>  (37) 
C[N@@H+]1CC[C@@H](OC(=O)Cc2ccc3cc(C([NH-])=O)n(C(=O)[O-])c3c2)C1=O

>  <Energy>  (37) 
82.5830805347365

>  <Genealogy>  (37) 
C[NH+]1CCC(OC(=O)Cc2ccc3cc(C([NH-])=O)n(C(=O)[O-])c3c2)C1=O (protonated)
C[N@@H+]1CC[C@@H](OC(=O)Cc2ccc3cc(C([NH-])=O)n(C(=O)[O-])c3c2)C1=O (chirality)
C[N@@H+]1CC[C@@H](OC(=O)Cc2ccc3cc(C([NH-])=O)n(C(=O)[O-])c3c2)C1=O (3D coordinates assigned)
C[N@@H+]1CC[C@@H](OC(=O)Cc2ccc3cc(C([NH-])=O)n(C(=O)[O-])c3c2)C1=O (nonaromatic ring conformer: 82.5830805347365 kcal/mol)

>  <smiles>  (37) 
CN1CCC(OC(=O)Cc2ccc3cc(C(N)=O)n(C(=O)O)c3c2)C1=O

>  <score_type>  (37) 
oracle

>  <origin>  (37) 
adg

>  <m_score__min__energy>  (37) 
-5.7999999999999998

>  <m_primary>  (37) 
energy

$$$$
37:0
     RDKit          3D

 52 54  0  0  0  0  0  0  0  0999 V2000
  141.7040  152.9920  133.3730 C   0  0  0  0  0  0  0  0  0  0  0  0
  143.0970  153.3500  132.9750 C   0  0  0  0  0  0  0  0  0  0  0  0
  143.4520  154.5140  132.4080 N   0  0  0  0  0  0  0  0  0  0  0  0
  144.7600  154.4720  132.2030 N   0  0  0  0  0  0  0  0  0  0  0  0
  145.1570  153.2700  132.6670 C   0  0  0  0  0  0  0  0  0  0  0  0
  146.5680  152.7740  132.6110 C   0  0  0  0  0  0  0  0  0  0  0  0
  147.2300  153.0590  133.8390 O   0  0  0  0  0  0  0  0  0  0  0  0
  147.5670  154.3570  134.2420 C   0  0  0  0  0  0  0  0  0  0  0  0
  147.2990  154.7600  135.4080 O   0  0  0  0  0  0  0  0  0  0  0  0
  148.3100  155.2480  133.2990 C   0  0  0  0  0  0  0  0  0  0  0  0
  147.6620  156.6050  133.2770 C   0  0  0  0  0  0  0  0  0  0  0  0
  148.4550  157.7710  133.4270 C   0  0  0  0  0  0  0  0  0  0  0  0
  147.8550  159.0420  133.4740 C   0  0  0  0  0  0  0  0  0  0  0  0
  146.4650  159.1120  133.3870 C   0  0  0  0  0  0  0  0  0  0  0  0
  145.6300  160.2060  133.4210 C   0  0  0  0  0  0  0  0  0  0  0  0
  144.3400  159.6920  133.3090 C   0  0  0  0  0  0  0  0  0  0  0  0
  143.1200  160.5230  133.4140 C   0  0  0  0  0  0  0  0  0  0  0  0
  141.8520  159.9670  133.0730 N   0  0  0  0  0  0  0  0  0  0  0  0
  143.1870  161.7310  133.7720 O   0  0  0  0  0  0  0  0  0  0  0  0
  144.3790  158.3320  133.1990 N   0  0  0  0  0  0  0  0  0  0  0  0
  143.2760  157.4300  133.0000 C   0  0  0  0  0  0  0  0  0  0  0  0
  142.6360  157.4510  131.9120 O   0  0  0  0  0  0  0  0  0  0  0  0
  142.9470  156.5120  134.0110 O   0  0  0  0  0  0  0  0  0  0  0  0
  141.8510  156.6140  134.9290 C   0  0  0  0  0  0  0  0  0  0  0  0
  141.9270  155.5020  135.9970 C   0  0  0  0  0  0  0  0  0  0  0  0
  140.5050  156.5550  134.1790 C   0  0  0  0  0  0  0  0  0  0  0  0
  141.9720  157.9790  135.6270 C   0  0  0  0  0  0  0  0  0  0  0  0
  145.6860  157.9930  133.2550 C   0  0  0  0  0  0  0  0  0  0  0  0
  146.2570  156.7160  133.1860 C   0  0  0  0  0  0  0  0  0  0  0  0
  144.1460  152.5760  133.1410 O   0  0  0  0  0  0  0  0  0  0  0  0
  141.6296  152.9729  134.4703 H   0  0  0  0  0  0  0  0  0  0  0  0
  141.0042  153.7395  132.9710 H   0  0  0  0  0  0  0  0  0  0  0  0
  141.4513  151.9997  132.9710 H   0  0  0  0  0  0  0  0  0  0  0  0
  142.8300  155.3160  132.1610 H   0  0  0  0  0  0  0  0  0  0  0  0
  146.5663  151.6872  132.4410 H   0  0  0  0  0  0  0  0  0  0  0  0
  147.0970  153.2777  131.7885 H   0  0  0  0  0  0  0  0  0  0  0  0
  149.3539  155.3454  133.6319 H   0  0  0  0  0  0  0  0  0  0  0  0
  148.2867  154.8138  132.2886 H   0  0  0  0  0  0  0  0  0  0  0  0
  149.5483  157.6806  133.5073 H   0  0  0  0  0  0  0  0  0  0  0  0
  148.4633  159.9528  133.5762 H   0  0  0  0  0  0  0  0  0  0  0  0
  145.9201  161.2627  133.5165 H   0  0  0  0  0  0  0  0  0  0  0  0
  141.7400  159.3780  132.2200 H   0  0  0  0  0  0  0  0  0  0  0  0
  141.8961  155.9537  136.9995 H   0  0  0  0  0  0  0  0  0  0  0  0
  141.0735  154.8187  135.8763 H   0  0  0  0  0  0  0  0  0  0  0  0
  142.8656  154.9412  135.8763 H   0  0  0  0  0  0  0  0  0  0  0  0
  139.6810  156.5189  134.9068 H   0  0  0  0  0  0  0  0  0  0  0  0
  140.3976  157.4493  133.5476 H   0  0  0  0  0  0  0  0  0  0  0  0
  140.4762  155.6547  133.5476 H   0  0  0  0  0  0  0  0  0  0  0  0
  141.9593  157.8356  136.7175 H   0  0  0  0  0  0  0  0  0  0  0  0
  142.9163  158.4596  135.3314 H   0  0  0  0  0  0  0  0  0  0  0  0
  141.1270  158.6182  135.3314 H   0  0  0  0  0  0  0  0  0  0  0  0
  145.6273  155.8224  133.0641 H   0  0  0  0  0  0  0  0  0  0  0  0
  1  2  1  0
  2  3  2  0
  3  4  1  0
  4  5  2  0
  5  6  1  0
  6  7  1  0
  7  8  1  0
  8  9  2  0
  8 10  1  0
 10 11  1  0
 11 12  2  0
 12 13  1  0
 13 14  2  0
 14 15  1  0
 15 16  2  0
 16 17  1  0
 17 18  1  0
 17 19  2  0
 16 20  1  0
 20 21  1  0
 21 22  2  0
 21 23  1  0
 23 24  1  0
 24 25  1  0
 24 26  1  0
 24 27  1  0
 20 28  1  0
 28 29  2  0
  5 30  1  0
 30  2  1  0
 29 11  1  0
 28 14  1  0
  1 31  1  0
  1 32  1  0
  1 33  1  0
  3 34  1  0
  6 35  1  0
  6 36  1  0
 10 37  1  0
 10 38  1  0
 12 39  1  0
 13 40  1  0
 15 41  1  0
 18 42  1  0
 25 43  1  0
 25 44  1  0
 25 45  1  0
 26 46  1  0
 26 47  1  0
 26 48  1  0
 27 49  1  0
 27 50  1  0
 27 51  1  0
 29 52  1  0
M  CHG  2   3   1  18  -1
M  END
>  <UniqueID>  (38) 
38

>  <SMILES>  (38) 
Cc1[nH+]nc(COC(=O)Cc2ccc3cc(C([NH-])=O)n(C(=O)OC(C)(C)C)c3c2)o1

>  <Energy>  (38) 
116.04582117730901

>  <Genealogy>  (38) 
Cc1[nH+]nc(COC(=O)Cc2ccc3cc(C([NH-])=O)n(C(=O)OC(C)(C)C)c3c2)o1 (protonated)
Cc1[nH+]nc(COC(=O)Cc2ccc3cc(C([NH-])=O)n(C(=O)OC(C)(C)C)c3c2)o1 (3D coordinates assigned)
Cc1[nH+]nc(COC(=O)Cc2ccc3cc(C([NH-])=O)n(C(=O)OC(C)(C)C)c3c2)o1 (optimized conformer: 116.04582117730901 kcal/mol)

>  <smiles>  (38) 
Cc1nnc(COC(=O)Cc2ccc3cc(C(N)=O)n(C(=O)OC(C)(C)C)c3c2)o1

>  <score_type>  (38) 
oracle

>  <origin>  (38) 
adg

>  <m_score__min__energy>  (38) 
-7.4299999999999997

>  <m_primary>  (38) 
energy

$$$$
38:0
     RDKit          3D

 46 47  0  0  0  0  0  0  0  0999 V2000
  138.8060  147.7450  130.1570 C   0  0  0  0  0  0  0  0  0  0  0  0
  139.5740  148.4060  131.1400 O   0  0  0  0  0  0  0  0  0  0  0  0
  139.8740  149.7260  130.7220 C   0  0  0  0  0  0  0  0  0  0  0  0
  139.7100  150.7090  131.8490 C   0  0  0  0  0  0  0  0  0  0  0  0
  138.5490  150.9700  132.2660 O   0  0  0  0  0  0  0  0  0  0  0  0
  140.8440  151.3490  132.4610 N   0  0  0  0  0  0  0  0  0  0  0  0
  142.0490  150.7830  132.7500 C   0  0  0  0  0  0  0  0  0  0  0  0
  142.4490  149.4010  132.4020 C   0  0  0  0  0  0  0  0  0  0  0  0
  141.5800  148.2970  132.6640 N   0  0  0  0  0  0  0  0  0  0  0  0
  143.5770  149.1820  131.8830 O   0  0  0  0  0  0  0  0  0  0  0  0
  142.8880  151.7090  133.3680 C   0  0  0  0  0  0  0  0  0  0  0  0
  142.1510  152.8670  133.4570 C   0  0  0  0  0  0  0  0  0  0  0  0
  142.4940  154.1060  133.9870 C   0  0  0  0  0  0  0  0  0  0  0  0
  141.5250  155.1230  133.9670 C   0  0  0  0  0  0  0  0  0  0  0  0
  140.2330  154.8850  133.4360 C   0  0  0  0  0  0  0  0  0  0  0  0
  139.2660  155.9540  133.4400 N   0  0  0  0  0  0  0  0  0  0  0  0
  139.4950  157.2410  134.1000 C   0  0  0  0  0  0  0  0  0  0  0  0
  139.3500  158.3740  133.1220 C   0  0  0  0  0  0  0  0  0  0  0  0
  138.7140  158.1860  132.0510 O   0  0  0  0  0  0  0  0  0  0  0  0
  139.9470  159.6560  133.3580 N   0  0  0  0  0  0  0  0  0  0  0  0
  141.3830  159.9090  133.3630 C   0  0  0  0  0  0  0  0  0  0  0  0
  141.9670  159.4080  134.6410 C   0  0  0  0  0  0  0  0  0  0  0  0
  141.4290  159.7260  135.7390 O   0  0  0  0  0  0  0  0  0  0  0  0
  143.0800  158.5600  134.6100 O   0  0  0  0  0  0  0  0  0  0  0  0
  143.5940  158.0180  133.3980 C   0  0  0  0  0  0  0  0  0  0  0  0
  139.9210  153.6080  132.9080 C   0  0  0  0  0  0  0  0  0  0  0  0
  140.9170  152.6230  132.9120 C   0  0  0  0  0  0  0  0  0  0  0  0
  138.0592  147.1022  130.6461 H   0  0  0  0  0  0  0  0  0  0  0  0
  138.2943  148.4896  129.5295 H   0  0  0  0  0  0  0  0  0  0  0  0
  139.4661  147.1281  129.5295 H   0  0  0  0  0  0  0  0  0  0  0  0
  140.9139  149.7608  130.3651 H   0  0  0  0  0  0  0  0  0  0  0  0
  139.1760  150.0016  129.9177 H   0  0  0  0  0  0  0  0  0  0  0  0
  140.6230  148.4390  133.0540 H   0  0  0  0  0  0  0  0  0  0  0  0
  141.8750  147.3300  132.4050 H   0  0  0  0  0  0  0  0  0  0  0  0
  143.9205  151.5478  133.7116 H   0  0  0  0  0  0  0  0  0  0  0  0
  143.4940  154.2844  134.4092 H   0  0  0  0  0  0  0  0  0  0  0  0
  141.7724  156.1167  134.3687 H   0  0  0  0  0  0  0  0  0  0  0  0
  138.3730  155.8080  132.9130 H   0  0  0  0  0  0  0  0  0  0  0  0
  138.7612  157.3670  134.9097 H   0  0  0  0  0  0  0  0  0  0  0  0
  140.5174  157.2531  134.5057 H   0  0  0  0  0  0  0  0  0  0  0  0
  141.8511  159.3870  132.5155 H   0  0  0  0  0  0  0  0  0  0  0  0
  141.5673  160.9896  133.2721 H   0  0  0  0  0  0  0  0  0  0  0  0
  144.3339  157.2378  133.6300 H   0  0  0  0  0  0  0  0  0  0  0  0
  142.7709  157.5807  132.8138 H   0  0  0  0  0  0  0  0  0  0  0  0
  144.0743  158.8168  132.8138 H   0  0  0  0  0  0  0  0  0  0  0  0
  138.9202  153.3949  132.5044 H   0  0  0  0  0  0  0  0  0  0  0  0
  1  2  1  0
  2  3  1  0
  3  4  1  0
  4  5  2  0
  4  6  1  0
  6  7  1  0
  7  8  1  0
  8  9  1  0
  8 10  2  0
  7 11  2  0
 11 12  1  0
 12 13  2  0
 13 14  1  0
 14 15  2  0
 15 16  1  0
 16 17  1  0
 17 18  1  0
 18 19  2  0
 18 20  1  0
 20 21  1  0
 21 22  1  0
 22 23  2  0
 22 24  1  0
 24 25  1  0
 15 26  1  0
 26 27  2  0
 27  6  1  0
 27 12  1  0
  1 28  1  0
  1 29  1  0
  1 30  1  0
  3 31  1  0
  3 32  1  0
  9 33  1  0
  9 34  1  0
 11 35  1  0
 13 36  1  0
 14 37  1  0
 16 38  1  0
 17 39  1  0
 17 40  1  0
 21 41  1  0
 21 42  1  0
 25 43  1  0
 25 44  1  0
 25 45  1  0
 26 46  1  0
M  CHG  1  20  -1
M  END
>  <UniqueID>  (39) 
39

>  <SMILES>  (39) 
COCC(=O)n1c(C(N)=O)cc2ccc(NCC(=O)[N-]CC(=O)OC)cc21

>  <Energy>  (39) 
79.46084073183319

>  <Genealogy>  (39) 
COCC(=O)n1c(C(N)=O)cc2ccc(NCC(=O)[N-]CC(=O)OC)cc21 (protonated)
COCC(=O)n1c(C(N)=O)cc2ccc(NCC(=O)[N-]CC(=O)OC)cc21 (3D coordinates assigned)
COCC(=O)n1c(C(N)=O)cc2ccc(NCC(=O)[N-]CC(=O)OC)cc21 (optimized conformer: 79.46084073183319 kcal/mol)

>  <smiles>  (39) 
COCC(=O)n1c(C(N)=O)cc2ccc(NCC(=O)NCC(=O)OC)cc21

>  <score_type>  (39) 
oracle

>  <origin>  (39) 
adg

>  <m_score__min__energy>  (39) 
-6.9100000000000001

>  <m_primary>  (39) 
energy

$$$$
39:0
     RDKit          3D

 61 62  0  0  0  0  0  0  0  0999 V2000
  139.2220  156.4940  133.1020 C   0  0  0  0  0  0  0  0  0  0  0  0
  139.4310  157.7720  133.7860 N   0  0  0  0  0  0  0  0  0  0  0  0
  139.2740  157.8680  135.2440 C   0  0  0  0  0  0  0  0  0  0  0  0
  140.6000  158.2420  135.9210 C   0  0  0  0  0  0  0  0  0  0  0  0
  141.6880  157.2590  135.5750 C   0  0  0  0  0  0  0  0  0  0  0  0
  141.6370  155.9340  136.0770 C   0  0  0  0  0  0  0  0  0  0  0  0
  142.6820  155.0330  135.8240 C   0  0  0  0  0  0  0  0  0  0  0  0
  143.7630  155.4820  135.0700 C   0  0  0  0  0  0  0  0  0  0  0  0
  144.9230  154.8340  134.7140 C   0  0  0  0  0  0  0  0  0  0  0  0
  145.6600  155.7670  133.9880 C   0  0  0  0  0  0  0  0  0  0  0  0
  146.9560  155.4720  133.3360 C   0  0  0  0  0  0  0  0  0  0  0  0
  147.2130  155.8990  131.9960 N   0  0  0  0  0  0  0  0  0  0  0  0
  147.8600  154.8670  133.9700 O   0  0  0  0  0  0  0  0  0  0  0  0
  144.9820  156.9450  133.9000 N   0  0  0  0  0  0  0  0  0  0  0  0
  145.4360  158.1710  133.3030 C   0  0  0  0  0  0  0  0  0  0  0  0
  144.7400  159.2160  133.4160 O   0  0  0  0  0  0  0  0  0  0  0  0
  146.6600  158.1910  132.6180 O   0  0  0  0  0  0  0  0  0  0  0  0
  147.7940  159.0160  132.9260 C   0  0  0  0  0  0  0  0  0  0  0  0
  148.7820  158.8820  131.7580 C   0  0  0  0  0  0  0  0  0  0  0  0
  147.3720  160.4930  133.0530 C   0  0  0  0  0  0  0  0  0  0  0  0
  148.4820  158.5340  134.2170 C   0  0  0  0  0  0  0  0  0  0  0  0
  143.8230  156.7560  134.5670 C   0  0  0  0  0  0  0  0  0  0  0  0
  142.8020  157.6800  134.8170 C   0  0  0  0  0  0  0  0  0  0  0  0
  139.8170  158.9220  133.0110 C   0  0  0  0  0  0  0  0  0  0  0  0
  141.0400  159.1620  132.8110 O   0  0  0  0  0  0  0  0  0  0  0  0
  138.8250  159.7620  132.4810 O   0  0  0  0  0  0  0  0  0  0  0  0
  138.3670  159.7830  131.1220 C   0  0  0  0  0  0  0  0  0  0  0  0
  139.0550  158.6170  130.3940 C   0  0  0  0  0  0  0  0  0  0  0  0
  138.7660  161.1030  130.4360 C   0  0  0  0  0  0  0  0  0  0  0  0
  136.8410  159.5760  131.0600 C   0  0  0  0  0  0  0  0  0  0  0  0
  139.0915  155.6960  133.8478 H   0  0  0  0  0  0  0  0  0  0  0  0
  138.3224  156.5580  132.4722 H   0  0  0  0  0  0  0  0  0  0  0  0
  140.0951  156.2681  132.4722 H   0  0  0  0  0  0  0  0  0  0  0  0
  138.5236  158.6386  135.4742 H   0  0  0  0  0  0  0  0  0  0  0  0
  138.9523  156.8876  135.6253 H   0  0  0  0  0  0  0  0  0  0  0  0
  140.9032  159.2448  135.5855 H   0  0  0  0  0  0  0  0  0  0  0  0
  140.4503  158.2247  137.0106 H   0  0  0  0  0  0  0  0  0  0  0  0
  140.7696  155.6094  136.6706 H   0  0  0  0  0  0  0  0  0  0  0  0
  142.6485  154.0033  136.2095 H   0  0  0  0  0  0  0  0  0  0  0  0
  145.2082  153.7986  134.9521 H   0  0  0  0  0  0  0  0  0  0  0  0
  148.1430  155.7150  131.5590 H   0  0  0  0  0  0  0  0  0  0  0  0
  146.4720  156.3550  131.4210 H   0  0  0  0  0  0  0  0  0  0  0  0
  149.7995  158.7440  132.1525 H   0  0  0  0  0  0  0  0  0  0  0  0
  148.5064  158.0130  131.1425 H   0  0  0  0  0  0  0  0  0  0  0  0
  148.7478  159.7930  131.1425 H   0  0  0  0  0  0  0  0  0  0  0  0
  147.2951  160.7622  134.1168 H   0  0  0  0  0  0  0  0  0  0  0  0
  148.1234  161.1322  132.5664 H   0  0  0  0  0  0  0  0  0  0  0  0
  146.3963  160.6387  132.5664 H   0  0  0  0  0  0  0  0  0  0  0  0
  147.9338  158.9180  135.0899 H   0  0  0  0  0  0  0  0  0  0  0  0
  148.4864  157.4343  134.2415 H   0  0  0  0  0  0  0  0  0  0  0  0
  149.5171  158.9054  134.2415 H   0  0  0  0  0  0  0  0  0  0  0  0
  142.8660  158.7086  134.4324 H   0  0  0  0  0  0  0  0  0  0  0  0
  139.4687  157.9159  131.1338 H   0  0  0  0  0  0  0  0  0  0  0  0
  138.3208  158.0940  129.7636 H   0  0  0  0  0  0  0  0  0  0  0  0
  139.8678  159.0068  129.7636 H   0  0  0  0  0  0  0  0  0  0  0  0
  138.9946  161.8594  131.2012 H   0  0  0  0  0  0  0  0  0  0  0  0
  139.6539  160.9363  129.8084 H   0  0  0  0  0  0  0  0  0  0  0  0
  137.9344  161.4560  129.8084 H   0  0  0  0  0  0  0  0  0  0  0  0
  136.4366  159.5212  132.0815 H   0  0  0  0  0  0  0  0  0  0  0  0
  136.3779  160.4196  130.5271 H   0  0  0  0  0  0  0  0  0  0  0  0
  136.6194  158.6396  130.5271 H   0  0  0  0  0  0  0  0  0  0  0  0
  1  2  1  0
  2  3  1  0
  3  4  1  0
  4  5  1  0
  5  6  2  0
  6  7  1  0
  7  8  2  0
  8  9  1  0
  9 10  2  0
 10 11  1  0
 11 12  1  0
 11 13  2  0
 10 14  1  0
 14 15  1  0
 15 16  2  0
 15 17  1  0
 17 18  1  0
 18 19  1  0
 18 20  1  0
 18 21  1  0
 14 22  1  0
 22 23  2  0
  2 24  1  0
 24 25  2  0
 24 26  1  0
 26 27  1  0
 27 28  1  0
 27 29  1  0
 27 30  1  0
 23  5  1  0
 22  8  1  0
  1 31  1  0
  1 32  1  0
  1 33  1  0
  3 34  1  0
  3 35  1  0
  4 36  1  0
  4 37  1  0
  6 38  1  0
  7 39  1  0
  9 40  1  0
 12 41  1  0
 12 42  1  0
 19 43  1  0
 19 44  1  0
 19 45  1  0
 20 46  1  0
 20 47  1  0
 20 48  1  0
 21 49  1  0
 21 50  1  0
 21 51  1  0
 23 52  1  0
 28 53  1  0
 28 54  1  0
 28 55  1  0
 29 56  1  0
 29 57  1  0
 29 58  1  0
 30 59  1  0
 30 60  1  0
 30 61  1  0
M  END
>  <UniqueID>  (40) 
40

>  <SMILES>  (40) 
CN(CCc1ccc2cc(C(N)=O)n(C(=O)OC(C)(C)C)c2c1)C(=O)OC(C)(C)C

>  <Energy>  (40) 
81.78835532684698

>  <Genealogy>  (40) 
CN(CCc1ccc2cc(C(N)=O)n(C(=O)OC(C)(C)C)c2c1)C(=O)OC(C)(C)C (3D coordinates assigned)
CN(CCc1ccc2cc(C(N)=O)n(C(=O)OC(C)(C)C)c2c1)C(=O)OC(C)(C)C (optimized conformer: 81.78835532684698 kcal/mol)

>  <smiles>  (40) 
CN(CCc1ccc2cc(C(N)=O)n(C(=O)OC(C)(C)C)c2c1)C(=O)OC(C)(C)C

>  <score_type>  (40) 
oracle

>  <origin>  (40) 
adg

>  <m_score__min__energy>  (40) 
-8.1999999999999993

>  <m_primary>  (40) 
energy

$$$$
40:0
     RDKit          3D

 48 50  0  0  0  0  0  0  0  0999 V2000
  150.0640  151.1100  133.0170 C   0  0  0  0  0  0  0  0  0  0  0  0
  149.2680  152.1090  133.6130 O   0  0  0  0  0  0  0  0  0  0  0  0
  148.5820  152.8150  132.5990 C   0  0  0  0  0  0  0  0  0  0  0  0
  147.4740  153.6690  133.1330 C   0  0  0  0  0  0  0  0  0  0  0  0
  148.1170  154.9630  132.8400 N   0  0  0  0  0  0  0  0  0  0  0  0
  147.8070  156.3500  132.9750 C   0  0  0  0  0  0  0  0  0  0  0  0
  148.8440  157.3120  132.9530 C   0  0  0  0  0  0  0  0  0  0  0  0
  148.5550  158.6770  133.1140 C   0  0  0  0  0  0  0  0  0  0  0  0
  147.2230  159.0450  133.2900 C   0  0  0  0  0  0  0  0  0  0  0  0
  146.6660  160.2840  133.5110 C   0  0  0  0  0  0  0  0  0  0  0  0
  145.2970  160.0550  133.6440 C   0  0  0  0  0  0  0  0  0  0  0  0
  144.3050  161.1340  133.8370 C   0  0  0  0  0  0  0  0  0  0  0  0
  142.9070  160.8780  133.7200 N   0  0  0  0  0  0  0  0  0  0  0  0
  144.7000  162.3060  134.0780 O   0  0  0  0  0  0  0  0  0  0  0  0
  145.0210  158.7280  133.5130 N   0  0  0  0  0  0  0  0  0  0  0  0
  143.7570  158.0690  133.6650 C   0  0  0  0  0  0  0  0  0  0  0  0
  142.8640  158.2170  132.7880 O   0  0  0  0  0  0  0  0  0  0  0  0
  143.5290  157.2090  134.7870 N   0  0  0  0  0  0  0  0  0  0  0  0
  142.1950  156.8510  135.2610 C   0  0  0  0  0  0  0  0  0  0  0  0
  141.4190  158.0800  135.6620 C   0  0  0  0  0  0  0  0  0  0  0  0
  140.8690  158.7740  134.7610 O   0  0  0  0  0  0  0  0  0  0  0  0
  141.2430  158.4480  137.0470 N   0  0  0  0  0  0  0  0  0  0  0  0
  141.6420  157.5350  138.1240 C   0  0  0  0  0  0  0  0  0  0  0  0
  140.6370  159.7420  137.3690 C   0  0  0  0  0  0  0  0  0  0  0  0
  146.2080  158.1230  133.2940 C   0  0  0  0  0  0  0  0  0  0  0  0
  146.4690  156.7570  133.1510 C   0  0  0  0  0  0  0  0  0  0  0  0
  149.2230  154.1380  132.3190 C   0  0  0  0  0  0  0  0  0  0  0  0
  150.5443  150.5072  133.8018 H   0  0  0  0  0  0  0  0  0  0  0  0
  149.4320  150.4619  132.3920 H   0  0  0  0  0  0  0  0  0  0  0  0
  150.8369  151.5813  132.3920 H   0  0  0  0  0  0  0  0  0  0  0  0
  148.4366  152.0162  131.8569 H   0  0  0  0  0  0  0  0  0  0  0  0
  146.5300  153.5306  132.5856 H   0  0  0  0  0  0  0  0  0  0  0  0
  147.1603  153.4899  134.1720 H   0  0  0  0  0  0  0  0  0  0  0  0
  149.8853  156.9883  132.8086 H   0  0  0  0  0  0  0  0  0  0  0  0
  149.3552  159.4317  133.1015 H   0  0  0  0  0  0  0  0  0  0  0  0
  147.1895  161.2496  133.5701 H   0  0  0  0  0  0  0  0  0  0  0  0
  142.5030  159.9610  134.0110 H   0  0  0  0  0  0  0  0  0  0  0  0
  141.6546  156.3303  134.4567 H   0  0  0  0  0  0  0  0  0  0  0  0
  142.2978  156.1978  136.1400 H   0  0  0  0  0  0  0  0  0  0  0  0
  141.4369  158.0044  139.0974 H   0  0  0  0  0  0  0  0  0  0  0  0
  141.0712  156.5984  138.0410 H   0  0  0  0  0  0  0  0  0  0  0  0
  142.7171  157.3177  138.0410 H   0  0  0  0  0  0  0  0  0  0  0  0
  140.5820  159.8595  138.4613 H   0  0  0  0  0  0  0  0  0  0  0  0
  141.2503  160.5501  136.9438 H   0  0  0  0  0  0  0  0  0  0  0  0
  139.6236  159.7883  136.9438 H   0  0  0  0  0  0  0  0  0  0  0  0
  145.6527  156.0201  133.1752 H   0  0  0  0  0  0  0  0  0  0  0  0
  149.4063  154.3023  131.2469 H   0  0  0  0  0  0  0  0  0  0  0  0
  150.2212  154.3110  132.7476 H   0  0  0  0  0  0  0  0  0  0  0  0
  1  2  1  0
  2  3  1  0
  3  4  1  0
  4  5  1  0
  5  6  1  0
  6  7  2  0
  7  8  1  0
  8  9  2  0
  9 10  1  0
 10 11  2  0
 11 12  1  0
 12 13  1  0
 12 14  2  0
 11 15  1  0
 15 16  1  0
 16 17  2  0
 16 18  1  0
 18 19  1  0
 19 20  1  0
 20 21  2  0
 20 22  1  0
 22 23  1  0
 22 24  1  0
 15 25  1  0
 25 26  2  0
  5 27  1  0
 27  3  1  0
 26  6  1  0
 25  9  1  0
  1 28  1  0
  1 29  1  0
  1 30  1  0
  3 31  1  0
  4 32  1  0
  4 33  1  0
  7 34  1  0
  8 35  1  0
 10 36  1  0
 13 37  1  0
 19 38  1  0
 19 39  1  0
 23 40  1  0
 23 41  1  0
 23 42  1  0
 24 43  1  0
 24 44  1  0
 24 45  1  0
 26 46  1  0
 27 47  1  0
 27 48  1  0
M  CHG  2  13  -1  18  -1
M  END
>  <UniqueID>  (41) 
41

>  <SMILES>  (41) 
COC1CN(c2ccc3cc(C([NH-])=O)n(C(=O)[N-]CC(=O)N(C)C)c3c2)C1

>  <Energy>  (41) 
128.81663749381912

>  <Genealogy>  (41) 
COC1CN(c2ccc3cc(C([NH-])=O)n(C(=O)[N-]CC(=O)N(C)C)c3c2)C1 (protonated)
COC1CN(c2ccc3cc(C([NH-])=O)n(C(=O)[N-]CC(=O)N(C)C)c3c2)C1 (3D coordinates assigned)
COC1CN(c2ccc3cc(C([NH-])=O)n(C(=O)[N-]CC(=O)N(C)C)c3c2)C1 (nonaromatic ring conformer: 128.81663749381912 kcal/mol)

>  <smiles>  (41) 
COC1CN(c2ccc3cc(C(N)=O)n(C(=O)NCC(=O)N(C)C)c3c2)C1

>  <score_type>  (41) 
oracle

>  <origin>  (41) 
adg

>  <m_score__min__energy>  (41) 
-7.6699999999999999

>  <m_primary>  (41) 
energy

$$$$
41:0
     RDKit          3D

 43 44  0  0  0  0  0  0  0  0999 V2000
  141.0070  159.0560  137.0750 C   0  0  0  0  0  0  0  0  0  0  0  0
  140.8300  159.8960  135.9390 O   0  0  0  0  0  0  0  0  0  0  0  0
  141.2700  159.5370  134.6620 C   0  0  0  0  0  0  0  0  0  0  0  0
  140.8400  160.1380  133.6390 O   0  0  0  0  0  0  0  0  0  0  0  0
  142.2990  158.4630  134.5150 C   0  0  0  0  0  0  0  0  0  0  0  0
  143.6190  159.0690  134.1270 C   0  0  0  0  0  0  0  0  0  0  0  0
  143.7780  160.4780  134.1060 C   0  0  0  0  0  0  0  0  0  0  0  0
  145.0010  161.0530  133.7230 C   0  0  0  0  0  0  0  0  0  0  0  0
  146.0360  160.1990  133.3510 C   0  0  0  0  0  0  0  0  0  0  0  0
  147.3220  160.4870  132.9540 C   0  0  0  0  0  0  0  0  0  0  0  0
  147.9150  159.2510  132.7010 C   0  0  0  0  0  0  0  0  0  0  0  0
  149.2820  159.1030  132.1570 C   0  0  0  0  0  0  0  0  0  0  0  0
  149.8370  157.8140  131.9090 N   0  0  0  0  0  0  0  0  0  0  0  0
  149.9520  160.1290  131.8650 O   0  0  0  0  0  0  0  0  0  0  0  0
  147.0340  158.2400  132.9420 N   0  0  0  0  0  0  0  0  0  0  0  0
  147.2680  156.8260  132.8710 C   0  0  0  0  0  0  0  0  0  0  0  0
  147.2830  156.2510  131.7490 O   0  0  0  0  0  0  0  0  0  0  0  0
  147.5050  156.1100  134.0530 O   0  0  0  0  0  0  0  0  0  0  0  0
  147.4400  154.6850  134.2130 C   0  0  0  0  0  0  0  0  0  0  0  0
  148.4490  153.9870  133.2820 C   0  0  0  0  0  0  0  0  0  0  0  0
  147.6940  154.2940  135.6820 C   0  0  0  0  0  0  0  0  0  0  0  0
  146.0190  154.2520  133.8240 C   0  0  0  0  0  0  0  0  0  0  0  0
  145.8880  158.8370  133.3360 C   0  0  0  0  0  0  0  0  0  0  0  0
  144.6880  158.2340  133.7340 C   0  0  0  0  0  0  0  0  0  0  0  0
  140.8820  159.6493  137.9928 H   0  0  0  0  0  0  0  0  0  0  0  0
  140.2590  158.2497  137.0549 H   0  0  0  0  0  0  0  0  0  0  0  0
  142.0167  158.6201  137.0549 H   0  0  0  0  0  0  0  0  0  0  0  0
  142.4092  157.9301  135.4710 H   0  0  0  0  0  0  0  0  0  0  0  0
  141.9792  157.7596  133.7320 H   0  0  0  0  0  0  0  0  0  0  0  0
  142.9365  161.1261  134.3921 H   0  0  0  0  0  0  0  0  0  0  0  0
  145.1370  162.1445  133.7171 H   0  0  0  0  0  0  0  0  0  0  0  0
  147.7836  161.4808  132.8570 H   0  0  0  0  0  0  0  0  0  0  0  0
  149.2670  157.0590  131.4690 H   0  0  0  0  0  0  0  0  0  0  0  0
  149.2048  153.4642  133.8865 H   0  0  0  0  0  0  0  0  0  0  0  0
  147.9205  153.2605  132.6473 H   0  0  0  0  0  0  0  0  0  0  0  0
  148.9424  154.7378  132.6473 H   0  0  0  0  0  0  0  0  0  0  0  0
  147.2159  155.0299  136.3452 H   0  0  0  0  0  0  0  0  0  0  0  0
  147.2705  153.2972  135.8746 H   0  0  0  0  0  0  0  0  0  0  0  0
  148.7769  154.2758  135.8746 H   0  0  0  0  0  0  0  0  0  0  0  0
  145.4284  154.0720  134.7344 H   0  0  0  0  0  0  0  0  0  0  0  0
  145.5436  155.0460  133.2295 H   0  0  0  0  0  0  0  0  0  0  0  0
  146.0671  153.3278  133.2295 H   0  0  0  0  0  0  0  0  0  0  0  0
  144.5811  157.1392  133.7403 H   0  0  0  0  0  0  0  0  0  0  0  0
  1  2  1  0
  2  3  1  0
  3  4  2  0
  3  5  1  0
  5  6  1  0
  6  7  2  0
  7  8  1  0
  8  9  2  0
  9 10  1  0
 10 11  2  0
 11 12  1  0
 12 13  1  0
 12 14  2  0
 11 15  1  0
 15 16  1  0
 16 17  2  0
 16 18  1  0
 18 19  1  0
 19 20  1  0
 19 21  1  0
 19 22  1  0
 15 23  1  0
 23 24  2  0
 24  6  1  0
 23  9  1  0
  1 25  1  0
  1 26  1  0
  1 27  1  0
  5 28  1  0
  5 29  1  0
  7 30  1  0
  8 31  1  0
 10 32  1  0
 13 33  1  0
 20 34  1  0
 20 35  1  0
 20 36  1  0
 21 37  1  0
 21 38  1  0
 21 39  1  0
 22 40  1  0
 22 41  1  0
 22 42  1  0
 24 43  1  0
M  CHG  1  13  -1
M  END
>  <UniqueID>  (42) 
42

>  <SMILES>  (42) 
COC(=O)Cc1ccc2cc(C([NH-])=O)n(C(=O)OC(C)(C)C)c2c1

>  <Energy>  (42) 
72.60994576391177

>  <Genealogy>  (42) 
COC(=O)Cc1ccc2cc(C([NH-])=O)n(C(=O)OC(C)(C)C)c2c1 (protonated)
COC(=O)Cc1ccc2cc(C([NH-])=O)n(C(=O)OC(C)(C)C)c2c1 (3D coordinates assigned)
COC(=O)Cc1ccc2cc(C([NH-])=O)n(C(=O)OC(C)(C)C)c2c1 (optimized conformer: 72.60994576391177 kcal/mol)

>  <smiles>  (42) 
COC(=O)Cc1ccc2cc(C(N)=O)n(C(=O)OC(C)(C)C)c2c1

>  <score_type>  (42) 
oracle

>  <origin>  (42) 
adg

>  <m_score__min__energy>  (42) 
-6.54

>  <m_primary>  (42) 
energy

$$$$
42:0
     RDKit          3D

 53 54  0  0  0  0  0  0  0  0999 V2000
  141.3660  158.9230  137.5230 C   0  0  0  0  0  0  0  0  0  0  0  0
  140.6170  159.4360  136.4290 O   0  0  0  0  0  0  0  0  0  0  0  0
  139.8720  158.6170  135.5730 C   0  0  0  0  0  0  0  0  0  0  0  0
  138.7260  158.2180  135.9240 O   0  0  0  0  0  0  0  0  0  0  0  0
  140.4220  158.2120  134.2160 C   0  0  0  0  0  0  0  0  0  0  0  0
  140.6100  156.6810  134.1470 C   0  0  0  0  0  0  0  0  0  0  0  0
  139.3960  158.6530  133.1830 C   0  0  0  0  0  0  0  0  0  0  0  0
  138.2320  158.1620  133.2060 O   0  0  0  0  0  0  0  0  0  0  0  0
  139.7590  159.5430  132.1640 O   0  0  0  0  0  0  0  0  0  0  0  0
  138.8990  159.8540  131.0740 C   0  0  0  0  0  0  0  0  0  0  0  0
  141.7940  158.8540  133.9580 C   0  0  0  0  0  0  0  0  0  0  0  0
  141.9360  160.2710  133.8810 C   0  0  0  0  0  0  0  0  0  0  0  0
  143.1980  160.8680  133.7360 C   0  0  0  0  0  0  0  0  0  0  0  0
  144.3120  160.0390  133.6890 C   0  0  0  0  0  0  0  0  0  0  0  0
  145.6480  160.3580  133.6080 C   0  0  0  0  0  0  0  0  0  0  0  0
  146.3190  159.1390  133.6400 C   0  0  0  0  0  0  0  0  0  0  0  0
  147.7860  159.0100  133.5230 C   0  0  0  0  0  0  0  0  0  0  0  0
  148.4930  157.9650  134.1930 N   0  0  0  0  0  0  0  0  0  0  0  0
  148.4180  159.8060  132.7810 O   0  0  0  0  0  0  0  0  0  0  0  0
  145.4340  158.1090  133.7520 N   0  0  0  0  0  0  0  0  0  0  0  0
  145.7280  156.7140  133.9150 C   0  0  0  0  0  0  0  0  0  0  0  0
  145.0320  156.0140  134.6990 O   0  0  0  0  0  0  0  0  0  0  0  0
  146.7910  156.1490  133.1940 O   0  0  0  0  0  0  0  0  0  0  0  0
  147.4190  154.8850  133.4530 C   0  0  0  0  0  0  0  0  0  0  0  0
  146.4380  153.7930  133.0000 C   0  0  0  0  0  0  0  0  0  0  0  0
  147.6910  154.7170  134.9590 C   0  0  0  0  0  0  0  0  0  0  0  0
  148.7220  154.7490  132.6430 C   0  0  0  0  0  0  0  0  0  0  0  0
  144.2090  158.6770  133.7780 C   0  0  0  0  0  0  0  0  0  0  0  0
  142.9680  158.0550  133.9500 C   0  0  0  0  0  0  0  0  0  0  0  0
  140.9007  159.2417  138.4674 H   0  0  0  0  0  0  0  0  0  0  0  0
  141.3809  157.8242  137.4740 H   0  0  0  0  0  0  0  0  0  0  0  0
  142.3959  159.3062  137.4740 H   0  0  0  0  0  0  0  0  0  0  0  0
  140.6603  156.2714  135.1667 H   0  0  0  0  0  0  0  0  0  0  0  0
  139.7604  156.2310  133.6126 H   0  0  0  0  0  0  0  0  0  0  0  0
  141.5433  156.4499  133.6126 H   0  0  0  0  0  0  0  0  0  0  0  0
  137.9302  160.2043  131.4597 H   0  0  0  0  0  0  0  0  0  0  0  0
  139.3564  160.6437  130.4598 H   0  0  0  0  0  0  0  0  0  0  0  0
  138.7455  158.9544  130.4598 H   0  0  0  0  0  0  0  0  0  0  0  0
  141.0405  160.9074  133.9362 H   0  0  0  0  0  0  0  0  0  0  0  0
  143.3021  161.9605  133.6617 H   0  0  0  0  0  0  0  0  0  0  0  0
  146.0911  161.3621  133.5338 H   0  0  0  0  0  0  0  0  0  0  0  0
  149.5350  157.9180  134.1350 H   0  0  0  0  0  0  0  0  0  0  0  0
  147.9860  157.1880  134.6700 H   0  0  0  0  0  0  0  0  0  0  0  0
  145.9995  153.3049  133.8829 H   0  0  0  0  0  0  0  0  0  0  0  0
  145.6379  154.2463  132.3964 H   0  0  0  0  0  0  0  0  0  0  0  0
  146.9742  153.0459  132.3964 H   0  0  0  0  0  0  0  0  0  0  0  0
  146.8927  155.2101  135.5330 H   0  0  0  0  0  0  0  0  0  0  0  0
  147.7153  153.6463  135.2100 H   0  0  0  0  0  0  0  0  0  0  0  0
  148.6593  155.1746  135.2100 H   0  0  0  0  0  0  0  0  0  0  0  0
  149.5746  154.6600  133.3323 H   0  0  0  0  0  0  0  0  0  0  0  0
  148.6677  153.8516  132.0091 H   0  0  0  0  0  0  0  0  0  0  0  0
  148.8542  155.6382  132.0091 H   0  0  0  0  0  0  0  0  0  0  0  0
  142.9025  156.9643  134.0770 H   0  0  0  0  0  0  0  0  0  0  0  0
  1  2  1  0
  2  3  1  0
  3  4  2  0
  3  5  1  0
  5  6  1  0
  5  7  1  0
  7  8  2  0
  7  9  1  0
  9 10  1  0
  5 11  1  0
 11 12  2  0
 12 13  1  0
 13 14  2  0
 14 15  1  0
 15 16  2  0
 16 17  1  0
 17 18  1  0
 17 19  2  0
 16 20  1  0
 20 21  1  0
 21 22  2  0
 21 23  1  0
 23 24  1  0
 24 25  1  0
 24 26  1  0
 24 27  1  0
 20 28  1  0
 28 29  2  0
 29 11  1  0
 28 14  1  0
  1 30  1  0
  1 31  1  0
  1 32  1  0
  6 33  1  0
  6 34  1  0
  6 35  1  0
 10 36  1  0
 10 37  1  0
 10 38  1  0
 12 39  1  0
 13 40  1  0
 15 41  1  0
 18 42  1  0
 18 43  1  0
 25 44  1  0
 25 45  1  0
 25 46  1  0
 26 47  1  0
 26 48  1  0
 26 49  1  0
 27 50  1  0
 27 51  1  0
 27 52  1  0
 29 53  1  0
M  END
>  <UniqueID>  (43) 
43

>  <SMILES>  (43) 
COC(=O)C(C)(C(=O)OC)c1ccc2cc(C(N)=O)n(C(=O)OC(C)(C)C)c2c1

>  <Energy>  (43) 
86.29131681658316

>  <Genealogy>  (43) 
COC(=O)C(C)(C(=O)OC)c1ccc2cc(C(N)=O)n(C(=O)OC(C)(C)C)c2c1 (3D coordinates assigned)
COC(=O)C(C)(C(=O)OC)c1ccc2cc(C(N)=O)n(C(=O)OC(C)(C)C)c2c1 (optimized conformer: 86.29131681658316 kcal/mol)

>  <smiles>  (43) 
COC(=O)C(C)(C(=O)OC)c1ccc2cc(C(N)=O)n(C(=O)OC(C)(C)C)c2c1

>  <score_type>  (43) 
oracle

>  <origin>  (43) 
adg

>  <m_score__min__energy>  (43) 
-7.5999999999999996

>  <m_primary>  (43) 
energy

$$$$
43:0
     RDKit          3D

 51 52  0  0  0  0  0  0  0  0999 V2000
  144.5720  155.0260  135.4510 C   0  0  0  0  0  0  0  0  0  0  0  0
  144.6310  156.2380  134.5250 C   0  0  0  0  0  0  0  0  0  0  0  0
  143.3470  156.4560  133.8060 N   0  0  0  0  0  0  0  0  0  0  0  0
  143.4460  157.6850  132.9780 C   0  0  0  0  0  0  0  0  0  0  0  0
  143.9830  158.8390  133.8200 C   0  0  0  0  0  0  0  0  0  0  0  0
  143.0220  155.2600  132.9880 C   0  0  0  0  0  0  0  0  0  0  0  0
  141.9190  154.4000  133.5610 C   0  0  0  0  0  0  0  0  0  0  0  0
  140.6140  154.6980  133.6220 C   0  0  0  0  0  0  0  0  0  0  0  0
  139.9750  155.9440  133.1600 C   0  0  0  0  0  0  0  0  0  0  0  0
  139.1110  155.8470  132.2500 O   0  0  0  0  0  0  0  0  0  0  0  0
  140.2400  157.2320  133.7530 N   0  0  0  0  0  0  0  0  0  0  0  0
  140.0650  158.4500  133.1670 C   0  0  0  0  0  0  0  0  0  0  0  0
  139.5770  158.6800  131.7970 C   0  0  0  0  0  0  0  0  0  0  0  0
  138.3580  158.0900  131.3500 N   0  0  0  0  0  0  0  0  0  0  0  0
  140.2090  159.4560  131.0330 O   0  0  0  0  0  0  0  0  0  0  0  0
  140.4380  159.4760  134.0270 C   0  0  0  0  0  0  0  0  0  0  0  0
  140.8200  158.8480  135.1890 C   0  0  0  0  0  0  0  0  0  0  0  0
  141.2630  159.3930  136.3900 C   0  0  0  0  0  0  0  0  0  0  0  0
  141.5560  158.5130  137.4430 C   0  0  0  0  0  0  0  0  0  0  0  0
  141.3820  157.1120  137.2900 C   0  0  0  0  0  0  0  0  0  0  0  0
  141.6940  156.1620  138.4280 C   0  0  1  0  0  0  0  0  0  0  0  0
  141.5710  156.8710  139.7820 C   0  0  0  0  0  0  0  0  0  0  0  0
  140.8180  154.9400  138.3580 C   0  0  0  0  0  0  0  0  0  0  0  0
  141.1810  153.9480  137.6710 O   0  0  0  0  0  0  0  0  0  0  0  0
  139.5850  154.9090  139.0000 O   0  0  0  0  0  0  0  0  0  0  0  0
  140.9270  156.6000  136.0530 C   0  0  0  0  0  0  0  0  0  0  0  0
  140.6770  157.4960  135.0070 C   0  0  0  0  0  0  0  0  0  0  0  0
  144.5884  155.3633  136.4979 H   0  0  0  0  0  0  0  0  0  0  0  0
  143.6455  154.4643  135.2612 H   0  0  0  0  0  0  0  0  0  0  0  0
  145.4396  154.3770  135.2612 H   0  0  0  0  0  0  0  0  0  0  0  0
  144.8579  157.1318  135.1247 H   0  0  0  0  0  0  0  0  0  0  0  0
  145.4127  156.0525  133.7736 H   0  0  0  0  0  0  0  0  0  0  0  0
  144.1273  157.5019  132.1340 H   0  0  0  0  0  0  0  0  0  0  0  0
  142.4468  157.9477  132.6003 H   0  0  0  0  0  0  0  0  0  0  0  0
  143.8706  158.5975  134.8873 H   0  0  0  0  0  0  0  0  0  0  0  0
  145.0470  158.9967  133.5898 H   0  0  0  0  0  0  0  0  0  0  0  0
  143.4184  159.7546  133.5898 H   0  0  0  0  0  0  0  0  0  0  0  0
  142.7114  155.5992  131.9888 H   0  0  0  0  0  0  0  0  0  0  0  0
  143.9285  154.6374  132.9634 H   0  0  0  0  0  0  0  0  0  0  0  0
  142.2198  153.4250  133.9720 H   0  0  0  0  0  0  0  0  0  0  0  0
  139.9528  153.9364  134.0609 H   0  0  0  0  0  0  0  0  0  0  0  0
  137.7520  157.5510  132.0090 H   0  0  0  0  0  0  0  0  0  0  0  0
  138.0290  158.2390  130.3710 H   0  0  0  0  0  0  0  0  0  0  0  0
  140.4295  160.5568  133.8223 H   0  0  0  0  0  0  0  0  0  0  0  0
  141.3799  160.4801  136.5104 H   0  0  0  0  0  0  0  0  0  0  0  0
  141.9250  158.9134  138.3988 H   0  0  0  0  0  0  0  0  0  0  0  0
  142.7372  155.8284  138.3255 H   0  0  0  0  0  0  0  0  0  0  0  0
  141.6981  156.1382  140.5925 H   0  0  0  0  0  0  0  0  0  0  0  0
  142.3482  157.6452  139.8624 H   0  0  0  0  0  0  0  0  0  0  0  0
  140.5784  157.3382  139.8624 H   0  0  0  0  0  0  0  0  0  0  0  0
  140.7726  155.5196  135.9154 H   0  0  0  0  0  0  0  0  0  0  0  0
  1  2  1  0
  2  3  1  0
  3  4  1  0
  4  5  1  0
  3  6  1  0
  6  7  1  0
  7  8  2  3
  8  9  1  0
  9 10  2  0
  9 11  1  0
 11 12  1  0
 12 13  1  0
 13 14  1  0
 13 15  2  0
 12 16  2  0
 16 17  1  0
 17 18  2  0
 18 19  1  0
 19 20  2  0
 20 21  1  0
 21 22  1  0
 21 23  1  0
 23 24  2  0
 23 25  1  0
 20 26  1  0
 26 27  2  0
 27 11  1  0
 27 17  1  0
  1 28  1  0
  1 29  1  0
  1 30  1  0
  2 31  1  0
  2 32  1  0
  4 33  1  0
  4 34  1  0
  5 35  1  0
  5 36  1  0
  5 37  1  0
  6 38  1  0
  6 39  1  0
  7 40  1  0
  8 41  1  0
 14 42  1  0
 14 43  1  0
 16 44  1  0
 18 45  1  0
 19 46  1  0
 21 47  1  6
 22 48  1  0
 22 49  1  0
 22 50  1  0
 26 51  1  0
M  CHG  1  25  -1
M  END
>  <UniqueID>  (44) 
44

>  <SMILES>  (44) 
CCN(CC)CC=CC(=O)n1c(C(N)=O)cc2ccc([C@@H](C)C(=O)[O-])cc21

>  <Energy>  (44) 
93.09002128944783

>  <Genealogy>  (44) 
CCN(CC)CC=CC(=O)n1c(C(N)=O)cc2ccc(C(C)C(=O)[O-])cc21 (protonated)
CCN(CC)CC=CC(=O)n1c(C(N)=O)cc2ccc([C@@H](C)C(=O)[O-])cc21 (chirality)
CCN(CC)CC=CC(=O)n1c(C(N)=O)cc2ccc([C@@H](C)C(=O)[O-])cc21 (3D coordinates assigned)
CCN(CC)CC=CC(=O)n1c(C(N)=O)cc2ccc([C@@H](C)C(=O)[O-])cc21 (optimized conformer: 93.09002128944783 kcal/mol)

>  <smiles>  (44) 
CCN(CC)CC=CC(=O)n1c(C(N)=O)cc2ccc(C(C)C(=O)O)cc21

>  <score_type>  (44) 
oracle

>  <origin>  (44) 
adg

>  <m_score__min__energy>  (44) 
-8.4900000000000002

>  <m_primary>  (44) 
energy

$$$$
44:0
     RDKit          3D

 56 59  0  0  0  0  0  0  0  0999 V2000
  137.2330  160.0930  130.7650 C   0  0  0  0  0  0  0  0  0  0  0  0
  138.0880  159.8470  131.8750 O   0  0  0  0  0  0  0  0  0  0  0  0
  139.0460  158.8260  131.8800 C   0  0  0  0  0  0  0  0  0  0  0  0
  138.7690  157.7020  131.3760 O   0  0  0  0  0  0  0  0  0  0  0  0
  140.3440  159.0540  132.4620 N   0  0  0  0  0  0  0  0  0  0  0  0
  140.6930  160.3640  133.0290 C   0  0  0  0  0  0  0  0  0  0  0  0
  141.3760  160.2100  134.3980 C   0  0  0  0  0  0  0  0  0  0  0  0
  142.3730  159.0170  134.4740 C   0  0  0  0  0  0  0  0  0  0  0  0
  141.9580  157.9470  135.4750 C   0  0  0  0  0  0  0  0  0  0  0  0
  140.8110  158.1020  136.3030 C   0  0  0  0  0  0  0  0  0  0  0  0
  140.4100  157.0790  137.1790 C   0  0  0  0  0  0  0  0  0  0  0  0
  141.1510  155.9030  137.1900 C   0  0  0  0  0  0  0  0  0  0  0  0
  140.9840  154.7550  137.9310 C   0  0  0  0  0  0  0  0  0  0  0  0
  142.0010  153.8960  137.5170 C   0  0  0  0  0  0  0  0  0  0  0  0
  142.1620  152.5150  138.0210 C   0  0  0  0  0  0  0  0  0  0  0  0
  143.3240  152.1290  138.7500 N   0  0  0  0  0  0  0  0  0  0  0  0
  141.2730  151.6550  137.7790 O   0  0  0  0  0  0  0  0  0  0  0  0
  142.7600  154.4890  136.5530 N   0  0  0  0  0  0  0  0  0  0  0  0
  143.9350  153.9670  135.9130 C   0  0  0  0  0  0  0  0  0  0  0  0
  144.8370  153.4420  136.6200 O   0  0  0  0  0  0  0  0  0  0  0  0
  144.1420  154.0970  134.4510 C   0  0  0  0  0  0  0  0  0  0  0  0
  145.3310  154.6810  133.9910 C   0  0  0  0  0  0  0  0  0  0  0  0
  145.5770  154.7950  132.6250 C   0  0  0  0  0  0  0  0  0  0  0  0
  144.6410  154.3020  131.7190 C   0  0  0  0  0  0  0  0  0  0  0  0
  143.4990  153.7170  132.1660 N   0  0  0  0  0  0  0  0  0  0  0  0
  143.2160  153.6110  133.4970 C   0  0  0  0  0  0  0  0  0  0  0  0
  141.7070  152.7520  133.9830 S   0  0  0  0  0  0  0  0  0  0  0  0
  140.5920  154.0420  133.3440 C   0  0  0  0  0  0  0  0  0  0  0  0
  142.2370  155.7210  136.3760 C   0  0  0  0  0  0  0  0  0  0  0  0
  142.6800  156.7320  135.5180 C   0  0  0  0  0  0  0  0  0  0  0  0
  142.6600  158.3920  133.0940 C   0  0  0  0  0  0  0  0  0  0  0  0
  141.3670  158.0000  132.3660 C   0  0  0  0  0  0  0  0  0  0  0  0
  136.2349  160.3802  131.1275 H   0  0  0  0  0  0  0  0  0  0  0  0
  137.6498  160.9077  130.1546 H   0  0  0  0  0  0  0  0  0  0  0  0
  137.1531  159.1814  130.1546 H   0  0  0  0  0  0  0  0  0  0  0  0
  141.3782  160.8820  132.3418 H   0  0  0  0  0  0  0  0  0  0  0  0
  139.7683  160.9444  133.1630 H   0  0  0  0  0  0  0  0  0  0  0  0
  141.9271  161.1366  134.6164 H   0  0  0  0  0  0  0  0  0  0  0  0
  140.5809  160.0092  135.1311 H   0  0  0  0  0  0  0  0  0  0  0  0
  143.3107  159.4576  134.8436 H   0  0  0  0  0  0  0  0  0  0  0  0
  140.2305  159.0352  136.2567 H   0  0  0  0  0  0  0  0  0  0  0  0
  139.5366  157.2050  137.8358 H   0  0  0  0  0  0  0  0  0  0  0  0
  140.2118  154.5573  138.6891 H   0  0  0  0  0  0  0  0  0  0  0  0
  144.2800  152.3550  138.3980 H   0  0  0  0  0  0  0  0  0  0  0  0
  146.0736  155.0512  134.7132 H   0  0  0  0  0  0  0  0  0  0  0  0
  146.5016  155.2698  132.2650 H   0  0  0  0  0  0  0  0  0  0  0  0
  144.8269  154.3865  130.6381 H   0  0  0  0  0  0  0  0  0  0  0  0
  142.8240  153.3390  131.4640 H   0  0  0  0  0  0  0  0  0  0  0  0
  140.1295  154.5771  134.1865 H   0  0  0  0  0  0  0  0  0  0  0  0
  141.1660  154.7514  132.7298 H   0  0  0  0  0  0  0  0  0  0  0  0
  139.8070  153.5768  132.7298 H   0  0  0  0  0  0  0  0  0  0  0  0
  143.5710  156.5854  134.8899 H   0  0  0  0  0  0  0  0  0  0  0  0
  143.2074  159.1218  132.4794 H   0  0  0  0  0  0  0  0  0  0  0  0
  143.2553  157.4800  133.2487 H   0  0  0  0  0  0  0  0  0  0  0  0
  141.5959  157.8217  131.3050 H   0  0  0  0  0  0  0  0  0  0  0  0
  140.9682  157.0924  132.8426 H   0  0  0  0  0  0  0  0  0  0  0  0
  1  2  1  0
  2  3  1  0
  3  4  2  0
  3  5  1  0
  5  6  1  0
  6  7  1  0
  7  8  1  0
  8  9  1  0
  9 10  2  0
 10 11  1  0
 11 12  2  0
 12 13  1  0
 13 14  2  0
 14 15  1  0
 15 16  1  0
 15 17  2  0
 14 18  1  0
 18 19  1  0
 19 20  2  0
 19 21  1  0
 21 22  2  0
 22 23  1  0
 23 24  2  0
 24 25  1  0
 25 26  2  0
 26 27  1  0
 27 28  1  0
 18 29  1  0
 29 30  2  0
  8 31  1  0
 31 32  1  0
 32  5  1  0
 30  9  1  0
 29 12  1  0
 26 21  1  0
  1 33  1  0
  1 34  1  0
  1 35  1  0
  6 36  1  0
  6 37  1  0
  7 38  1  0
  7 39  1  0
  8 40  1  0
 10 41  1  0
 11 42  1  0
 13 43  1  0
 16 44  1  0
 22 45  1  0
 23 46  1  0
 24 47  1  0
 25 48  1  0
 28 49  1  0
 28 50  1  0
 28 51  1  0
 30 52  1  0
 31 53  1  0
 31 54  1  0
 32 55  1  0
 32 56  1  0
M  CHG  2  16  -1  25   1
M  END
>  <UniqueID>  (45) 
45

>  <SMILES>  (45) 
COC(=O)N1CCC(c2ccc3cc(C([NH-])=O)n(C(=O)c4ccc[nH+]c4SC)c3c2)CC1

>  <Energy>  (45) 
100.27857018278881

>  <Genealogy>  (45) 
COC(=O)N1CCC(c2ccc3cc(C([NH-])=O)n(C(=O)c4ccc[nH+]c4SC)c3c2)CC1 (protonated)
COC(=O)N1CCC(c2ccc3cc(C([NH-])=O)n(C(=O)c4ccc[nH+]c4SC)c3c2)CC1 (3D coordinates assigned)
COC(=O)N1CCC(c2ccc3cc(C([NH-])=O)n(C(=O)c4ccc[nH+]c4SC)c3c2)CC1 (nonaromatic ring conformer: 100.27857018278881 kcal/mol)

>  <smiles>  (45) 
COC(=O)N1CCC(c2ccc3cc(C(N)=O)n(C(=O)c4cccnc4SC)c3c2)CC1

>  <score_type>  (45) 
oracle

>  <origin>  (45) 
adg

>  <m_score__min__energy>  (45) 
-8.1699999999999999

>  <m_primary>  (45) 
energy

$$$$
45:0
     RDKit          3D

 52 54  0  0  0  0  0  0  0  0999 V2000
  136.6500  160.1170  130.6050 C   0  0  0  0  0  0  0  0  0  0  0  0
  137.9640  160.0660  130.3690 C   0  0  0  0  0  0  0  0  0  0  0  0
  138.7400  158.7980  130.5640 C   0  0  0  0  0  0  0  0  0  0  0  0
  138.5390  158.3120  131.8870 O   0  0  0  0  0  0  0  0  0  0  0  0
  139.5490  157.6760  132.6170 C   0  0  0  0  0  0  0  0  0  0  0  0
  139.6000  156.4130  132.6610 O   0  0  0  0  0  0  0  0  0  0  0  0
  140.5220  158.5170  133.4110 C   0  0  0  0  0  0  0  0  0  0  0  0
  140.3740  159.9760  132.9420 C   0  0  0  0  0  0  0  0  0  0  0  0
  140.2300  158.3970  134.9220 C   0  0  0  0  0  0  0  0  0  0  0  0
  141.8390  158.0220  133.1250 O   0  0  0  0  0  0  0  0  0  0  0  0
  143.0040  158.2770  133.8640 C   0  0  0  0  0  0  0  0  0  0  0  0
  143.1130  159.3230  134.5590 O   0  0  0  0  0  0  0  0  0  0  0  0
  144.0940  157.3400  133.8140 N   0  0  0  0  0  0  0  0  0  0  0  0
  144.0480  155.9970  134.0420 C   0  0  0  0  0  0  0  0  0  0  0  0
  142.8170  155.1990  134.2360 C   0  0  0  0  0  0  0  0  0  0  0  0
  141.7000  155.3580  133.3590 N   0  0  0  0  0  0  0  0  0  0  0  0
  142.7300  154.3920  135.1990 O   0  0  0  0  0  0  0  0  0  0  0  0
  145.3270  155.4460  133.9720 C   0  0  0  0  0  0  0  0  0  0  0  0
  146.1640  156.5000  133.6890 C   0  0  0  0  0  0  0  0  0  0  0  0
  147.5450  156.5250  133.5290 C   0  0  0  0  0  0  0  0  0  0  0  0
  148.1570  157.7640  133.2740 C   0  0  0  0  0  0  0  0  0  0  0  0
  147.3800  158.9440  133.1790 C   0  0  0  0  0  0  0  0  0  0  0  0
  148.0460  160.2720  132.9530 C   0  0  0  0  0  0  0  0  0  0  0  0
  148.7930  160.2440  131.7010 N   0  0  0  0  0  0  0  0  0  0  0  0
  148.3580  160.6990  130.5110 C   0  0  0  0  0  0  0  0  0  0  0  0
  149.3240  160.4250  129.5660 C   0  0  0  0  0  0  0  0  0  0  0  0
  150.3290  159.7830  130.2650 C   0  0  0  0  0  0  0  0  0  0  0  0
  149.9800  159.6750  131.5620 N   0  0  0  0  0  0  0  0  0  0  0  0
  145.9810  158.8820  133.3580 C   0  0  0  0  0  0  0  0  0  0  0  0
  145.3960  157.6330  133.5970 C   0  0  0  0  0  0  0  0  0  0  0  0
  136.1004  161.0580  130.4553 H   0  0  0  0  0  0  0  0  0  0  0  0
  136.1177  159.2180  130.9490 H   0  0  0  0  0  0  0  0  0  0  0  0
  138.4862  160.9710  130.0253 H   0  0  0  0  0  0  0  0  0  0  0  0
  138.3960  158.0437  129.8410 H   0  0  0  0  0  0  0  0  0  0  0  0
  139.8103  158.9978  130.4076 H   0  0  0  0  0  0  0  0  0  0  0  0
  140.3069  160.6377  133.8181 H   0  0  0  0  0  0  0  0  0  0  0  0
  141.2482  160.2570  132.3364 H   0  0  0  0  0  0  0  0  0  0  0  0
  139.4611  160.0757  132.3364 H   0  0  0  0  0  0  0  0  0  0  0  0
  141.0996  158.7544  135.4930 H   0  0  0  0  0  0  0  0  0  0  0  0
  139.3498  159.0063  135.1749 H   0  0  0  0  0  0  0  0  0  0  0  0
  140.0325  157.3448  135.1749 H   0  0  0  0  0  0  0  0  0  0  0  0
  141.7520  155.9750  132.5210 H   0  0  0  0  0  0  0  0  0  0  0  0
  140.8220  154.8170  133.5270 H   0  0  0  0  0  0  0  0  0  0  0  0
  145.6072  154.3917  134.1132 H   0  0  0  0  0  0  0  0  0  0  0  0
  148.1404  155.6028  133.5999 H   0  0  0  0  0  0  0  0  0  0  0  0
  149.2483  157.8177  133.1472 H   0  0  0  0  0  0  0  0  0  0  0  0
  147.2807  161.0606  132.9039 H   0  0  0  0  0  0  0  0  0  0  0  0
  148.7374  160.4773  133.7836 H   0  0  0  0  0  0  0  0  0  0  0  0
  147.3978  161.2024  130.3247 H   0  0  0  0  0  0  0  0  0  0  0  0
  149.3002  160.6645  128.4926 H   0  0  0  0  0  0  0  0  0  0  0  0
  151.2700  159.4163  129.8290 H   0  0  0  0  0  0  0  0  0  0  0  0
  145.3659  159.7927  133.3108 H   0  0  0  0  0  0  0  0  0  0  0  0
  1  2  2  0
  2  3  1  0
  3  4  1  0
  4  5  1  0
  5  6  2  0
  5  7  1  0
  7  8  1  0
  7  9  1  0
  7 10  1  0
 10 11  1  0
 11 12  2  0
 11 13  1  0
 13 14  1  0
 14 15  1  0
 15 16  1  0
 15 17  2  0
 14 18  2  0
 18 19  1  0
 19 20  2  0
 20 21  1  0
 21 22  2  0
 22 23  1  0
 23 24  1  0
 24 25  1  0
 25 26  2  0
 26 27  1  0
 27 28  2  0
 22 29  1  0
 29 30  2  0
 30 13  1  0
 30 19  1  0
 28 24  1  0
  1 31  1  0
  1 32  1  0
  2 33  1  0
  3 34  1  0
  3 35  1  0
  8 36  1  0
  8 37  1  0
  8 38  1  0
  9 39  1  0
  9 40  1  0
  9 41  1  0
 16 42  1  0
 16 43  1  0
 18 44  1  0
 20 45  1  0
 21 46  1  0
 23 47  1  0
 23 48  1  0
 25 49  1  0
 26 50  1  0
 27 51  1  0
 29 52  1  0
M  END
>  <UniqueID>  (46) 
46

>  <SMILES>  (46) 
C=CCOC(=O)C(C)(C)OC(=O)n1c(C(N)=O)cc2ccc(Cn3cccn3)cc21

>  <Energy>  (46) 
110.18619231524303

>  <Genealogy>  (46) 
C=CCOC(=O)C(C)(C)OC(=O)n1c(C(N)=O)cc2ccc(Cn3cccn3)cc21 (3D coordinates assigned)
C=CCOC(=O)C(C)(C)OC(=O)n1c(C(N)=O)cc2ccc(Cn3cccn3)cc21 (optimized conformer: 110.18619231524303 kcal/mol)

>  <smiles>  (46) 
C=CCOC(=O)C(C)(C)OC(=O)n1c(C(N)=O)cc2ccc(Cn3cccn3)cc21

>  <score_type>  (46) 
oracle

>  <origin>  (46) 
adg

>  <m_score__min__energy>  (46) 
-8.6199999999999992

>  <m_primary>  (46) 
energy

$$$$
46:0
     RDKit          3D

 53 56  0  0  0  0  0  0  0  0999 V2000
  148.4310  161.2490  131.5800 N   0  0  0  0  0  0  0  0  0  0  0  0
  149.2170  160.0750  131.7650 C   0  0  0  0  0  0  0  0  0  0  0  0
  150.4470  160.1070  131.4890 O   0  0  0  0  0  0  0  0  0  0  0  0
  148.6030  158.8140  132.2280 C   0  0  0  0  0  0  0  0  0  0  0  0
  149.2410  157.5750  132.1640 C   0  0  0  0  0  0  0  0  0  0  0  0
  148.3210  156.6650  132.6330 C   0  0  0  0  0  0  0  0  0  0  0  0
  148.4330  155.2900  132.8200 C   0  0  0  0  0  0  0  0  0  0  0  0
  147.3380  154.6100  133.3790 C   0  0  0  0  0  0  0  0  0  0  0  0
  146.1610  155.3130  133.7420 C   0  0  0  0  0  0  0  0  0  0  0  0
  145.0220  154.5830  134.4070 C   0  0  0  0  0  0  0  0  0  0  0  0
  144.1870  153.7610  133.4070 C   0  0  0  0  0  0  0  0  0  0  0  0
  142.8230  154.3190  133.1940 N   0  0  1  0  0  0  0  0  0  0  0  0
  141.7110  153.3720  133.0410 C   0  0  2  0  0  0  0  0  0  0  0  0
  140.4690  154.2820  132.9830 C   0  0  0  0  0  0  0  0  0  0  0  0
  140.8730  155.4930  133.8250 C   0  0  0  0  0  0  0  0  0  0  0  0
  142.3000  155.1500  134.2830 C   0  0  1  0  0  0  0  0  0  0  0  0
  142.2300  154.3380  135.6150 C   0  0  0  0  0  0  0  0  0  0  0  0
  142.2460  152.9230  135.4590 O   0  0  0  0  0  0  0  0  0  0  0  0
  141.6070  152.4370  134.2850 C   0  0  0  0  0  0  0  0  0  0  0  0
  146.0820  156.7060  133.5300 C   0  0  0  0  0  0  0  0  0  0  0  0
  147.1820  157.3530  132.9590 C   0  0  0  0  0  0  0  0  0  0  0  0
  147.3400  158.6720  132.7170 N   0  0  0  0  0  0  0  0  0  0  0  0
  146.3970  159.7050  133.0340 C   0  0  0  0  0  0  0  0  0  0  0  0
  146.7580  160.6880  133.7360 O   0  0  0  0  0  0  0  0  0  0  0  0
  145.0920  159.6280  132.5340 O   0  0  0  0  0  0  0  0  0  0  0  0
  143.9350  159.5190  133.3610 C   0  0  0  0  0  0  0  0  0  0  0  0
  143.7100  160.8040  134.1620 C   0  0  0  0  0  0  0  0  0  0  0  0
  144.2570  161.9090  133.4950 O   0  0  0  0  0  0  0  0  0  0  0  0
  147.7120  161.5310  132.2830 H   0  0  0  0  0  0  0  0  0  0  0  0
  150.2629  157.3690  131.8130 H   0  0  0  0  0  0  0  0  0  0  0  0
  149.3506  154.7525  132.5388 H   0  0  0  0  0  0  0  0  0  0  0  0
  147.3941  153.5228  133.5365 H   0  0  0  0  0  0  0  0  0  0  0  0
  145.4343  153.9022  135.1663 H   0  0  0  0  0  0  0  0  0  0  0  0
  144.3590  155.3361  134.8578 H   0  0  0  0  0  0  0  0  0  0  0  0
  144.7136  153.7432  132.4414 H   0  0  0  0  0  0  0  0  0  0  0  0
  144.0685  152.7515  133.8276 H   0  0  0  0  0  0  0  0  0  0  0  0
  142.8730  154.9220  132.3360 H   0  0  0  0  0  0  0  0  0  0  0  0
  141.8288  152.7237  132.1602 H   0  0  0  0  0  0  0  0  0  0  0  0
  140.2478  154.5795  131.9474 H   0  0  0  0  0  0  0  0  0  0  0  0
  139.5586  153.7878  133.3530 H   0  0  0  0  0  0  0  0  0  0  0  0
  140.8639  156.4125  133.2214 H   0  0  0  0  0  0  0  0  0  0  0  0
  140.1866  155.6804  134.6639 H   0  0  0  0  0  0  0  0  0  0  0  0
  142.9292  156.0317  134.4745 H   0  0  0  0  0  0  0  0  0  0  0  0
  143.0936  154.6228  136.2340 H   0  0  0  0  0  0  0  0  0  0  0  0
  141.2620  154.5855  136.0752 H   0  0  0  0  0  0  0  0  0  0  0  0
  142.0627  151.4704  134.0241 H   0  0  0  0  0  0  0  0  0  0  0  0
  140.5361  152.3651  134.5260 H   0  0  0  0  0  0  0  0  0  0  0  0
  145.1781  157.2683  133.8069 H   0  0  0  0  0  0  0  0  0  0  0  0
  143.0559  159.3319  132.7268 H   0  0  0  0  0  0  0  0  0  0  0  0
  144.0854  158.6883  134.0662 H   0  0  0  0  0  0  0  0  0  0  0  0
  142.6295  160.9616  134.2948 H   0  0  0  0  0  0  0  0  0  0  0  0
  144.2051  160.7015  135.1389 H   0  0  0  0  0  0  0  0  0  0  0  0
  145.0000  161.5680  132.9330 H   0  0  0  0  0  0  0  0  0  0  0  0
  1  2  1  0
  2  3  2  0
  2  4  1  0
  4  5  2  0
  5  6  1  0
  6  7  2  0
  7  8  1  0
  8  9  2  0
  9 10  1  0
 10 11  1  0
 11 12  1  0
 12 13  1  0
 13 14  1  0
 14 15  1  0
 15 16  1  0
 16 17  1  0
 17 18  1  0
 18 19  1  0
  9 20  1  0
 20 21  2  0
 21 22  1  0
 22 23  1  0
 23 24  2  0
 23 25  1  0
 25 26  1  0
 26 27  1  0
 27 28  1  0
 22  4  1  0
 21  6  1  0
 16 12  1  0
 19 13  1  0
  1 29  1  0
  5 30  1  0
  7 31  1  0
  8 32  1  0
 10 33  1  0
 10 34  1  0
 11 35  1  0
 11 36  1  0
 12 37  1  6
 13 38  1  6
 14 39  1  0
 14 40  1  0
 15 41  1  0
 15 42  1  0
 16 43  1  1
 17 44  1  0
 17 45  1  0
 19 46  1  0
 19 47  1  0
 20 48  1  0
 26 49  1  0
 26 50  1  0
 27 51  1  0
 27 52  1  0
 28 53  1  0
M  CHG  2   1  -1  12   1
M  END
>  <UniqueID>  (47) 
47

>  <SMILES>  (47) 
[NH-]C(=O)c1cc2ccc(CC[N@H+]3[C@@H]4CC[C@H]3COC4)cc2n1C(=O)OCCO

>  <Energy>  (47) 
121.33084766718537

>  <Genealogy>  (47) 
[NH-]C(=O)c1cc2ccc(CC[NH+]3[C@@H]4CC[C@H]3COC4)cc2n1C(=O)OCCO (protonated)
[NH-]C(=O)c1cc2ccc(CC[N@H+]3[C@@H]4CC[C@H]3COC4)cc2n1C(=O)OCCO (chirality)
[NH-]C(=O)c1cc2ccc(CC[N@H+]3[C@@H]4CC[C@H]3COC4)cc2n1C(=O)OCCO (3D coordinates assigned)
[NH-]C(=O)c1cc2ccc(CC[N@H+]3[C@@H]4CC[C@H]3COC4)cc2n1C(=O)OCCO (nonaromatic ring conformer: 121.33084766718537 kcal/mol)

>  <smiles>  (47) 
NC(=O)c1cc2ccc(CCN3[C@@H]4CC[C@H]3COC4)cc2n1C(=O)OCCO

>  <score_type>  (47) 
oracle

>  <origin>  (47) 
adg

>  <m_score__min__energy>  (47) 
-6.5

>  <m_primary>  (47) 
energy

$$$$
47:0
     RDKit          3D

 57 59  0  0  0  0  0  0  0  0999 V2000
  144.2380  154.0410  132.6700 C   0  0  0  0  0  0  0  0  0  0  0  0
  143.8730  153.8370  133.9350 C   0  0  0  0  0  0  0  0  0  0  0  0
  144.5010  154.5460  135.0640 C   0  0  0  0  0  0  0  0  0  0  0  0
  144.1170  154.3440  136.2500 O   0  0  0  0  0  0  0  0  0  0  0  0
  145.5780  155.4550  134.8090 N   0  0  0  0  0  0  0  0  0  0  0  0
  146.9110  155.1890  134.8690 C   0  0  0  0  0  0  0  0  0  0  0  0
  147.5180  153.9440  135.3830 C   0  0  0  0  0  0  0  0  0  0  0  0
  146.9950  153.3390  136.5650 N   0  0  0  0  0  0  0  0  0  0  0  0
  148.4720  153.3900  134.7770 O   0  0  0  0  0  0  0  0  0  0  0  0
  147.6450  156.2900  134.4240 C   0  0  0  0  0  0  0  0  0  0  0  0
  146.7050  157.2420  134.0930 C   0  0  0  0  0  0  0  0  0  0  0  0
  146.8720  158.5140  133.5570 C   0  0  0  0  0  0  0  0  0  0  0  0
  145.7190  159.2750  133.2950 C   0  0  0  0  0  0  0  0  0  0  0  0
  144.4290  158.7620  133.5960 C   0  0  0  0  0  0  0  0  0  0  0  0
  143.2010  159.6130  133.3520 C   0  0  0  0  0  0  0  0  0  0  0  0
  142.0520  159.2830  134.2740 C   0  0  0  0  0  0  0  0  0  0  0  0
  142.0600  159.7300  135.4570 O   0  0  0  0  0  0  0  0  0  0  0  0
  140.9070  158.5180  133.8260 N   0  0  0  0  0  0  0  0  0  0  0  0
  139.8720  159.1420  132.9980 C   0  0  1  0  0  0  0  0  0  0  0  0
  140.3090  159.1490  131.5320 C   0  0  0  0  0  0  0  0  0  0  0  0
  138.6080  158.3090  133.2170 C   0  0  0  0  0  0  0  0  0  0  0  0
  139.0910  156.9600  133.7280 C   0  0  0  0  0  0  0  0  0  0  0  0
  140.4630  157.2270  134.3840 C   0  0  1  0  0  0  0  0  0  0  0  0
  141.4350  156.0880  134.0090 C   0  0  0  0  0  0  0  0  0  0  0  0
  140.2850  157.3430  135.8840 C   0  0  0  0  0  0  0  0  0  0  0  0
  139.1380  157.5750  136.3600 O   0  0  0  0  0  0  0  0  0  0  0  0
  141.3680  157.1130  136.7470 O   0  0  0  0  0  0  0  0  0  0  0  0
  141.6340  155.8340  137.3250 C   0  0  0  0  0  0  0  0  0  0  0  0
  140.6740  155.5640  138.4790 C   0  0  0  0  0  0  0  0  0  0  0  0
  144.2980  157.4490  134.1140 C   0  0  0  0  0  0  0  0  0  0  0  0
  145.4630  156.7150  134.3470 C   0  0  0  0  0  0  0  0  0  0  0  0
  143.7413  153.4891  131.8584 H   0  0  0  0  0  0  0  0  0  0  0  0
  145.0361  154.7614  132.4372 H   0  0  0  0  0  0  0  0  0  0  0  0
  143.0727  153.1120  134.1446 H   0  0  0  0  0  0  0  0  0  0  0  0
  146.0270  153.5350  136.8980 H   0  0  0  0  0  0  0  0  0  0  0  0
  148.7391  156.3787  134.3528 H   0  0  0  0  0  0  0  0  0  0  0  0
  147.8750  158.9127  133.3445 H   0  0  0  0  0  0  0  0  0  0  0  0
  145.8169  160.2774  132.8526 H   0  0  0  0  0  0  0  0  0  0  0  0
  143.4734  160.6687  133.4979 H   0  0  0  0  0  0  0  0  0  0  0  0
  142.8630  159.4098  132.3251 H   0  0  0  0  0  0  0  0  0  0  0  0
  139.6917  160.1925  133.2698 H   0  0  0  0  0  0  0  0  0  0  0  0
  141.4075  159.1666  131.4769 H   0  0  0  0  0  0  0  0  0  0  0  0
  139.9313  158.2447  131.0325 H   0  0  0  0  0  0  0  0  0  0  0  0
  139.9025  160.0407  131.0325 H   0  0  0  0  0  0  0  0  0  0  0  0
  137.9551  158.7899  133.9603 H   0  0  0  0  0  0  0  0  0  0  0  0
  138.0217  158.2078  132.2918 H   0  0  0  0  0  0  0  0  0  0  0  0
  138.3847  156.5551  134.4678 H   0  0  0  0  0  0  0  0  0  0  0  0
  139.1667  156.2222  132.9157 H   0  0  0  0  0  0  0  0  0  0  0  0
  141.8294  155.6258  134.9259 H   0  0  0  0  0  0  0  0  0  0  0  0
  140.9009  155.3302  133.4169 H   0  0  0  0  0  0  0  0  0  0  0  0
  142.2673  156.4963  133.4169 H   0  0  0  0  0  0  0  0  0  0  0  0
  141.5072  155.0558  136.5580 H   0  0  0  0  0  0  0  0  0  0  0  0
  142.6653  155.8220  137.7075 H   0  0  0  0  0  0  0  0  0  0  0  0
  141.1986  155.7115  139.4345 H   0  0  0  0  0  0  0  0  0  0  0  0
  139.8223  156.2575  138.4174 H   0  0  0  0  0  0  0  0  0  0  0  0
  140.3087  154.5283  138.4174 H   0  0  0  0  0  0  0  0  0  0  0  0
  143.3073  157.0207  134.3263 H   0  0  0  0  0  0  0  0  0  0  0  0
  1  2  2  0
  2  3  1  0
  3  4  2  0
  3  5  1  0
  5  6  1  0
  6  7  1  0
  7  8  1  0
  7  9  2  0
  6 10  2  0
 10 11  1  0
 11 12  2  0
 12 13  1  0
 13 14  2  0
 14 15  1  0
 15 16  1  0
 16 17  2  0
 16 18  1  0
 18 19  1  0
 19 20  1  0
 19 21  1  0
 21 22  1  0
 22 23  1  0
 23 24  1  1
 23 25  1  0
 25 26  2  0
 25 27  1  0
 27 28  1  0
 28 29  1  0
 14 30  1  0
 30 31  2  0
 31  5  1  0
 31 11  1  0
 23 18  1  0
  1 32  1  0
  1 33  1  0
  2 34  1  0
  8 35  1  0
 10 36  1  0
 12 37  1  0
 13 38  1  0
 15 39  1  0
 15 40  1  0
 19 41  1  1
 20 42  1  0
 20 43  1  0
 20 44  1  0
 21 45  1  0
 21 46  1  0
 22 47  1  0
 22 48  1  0
 24 49  1  0
 24 50  1  0
 24 51  1  0
 28 52  1  0
 28 53  1  0
 29 54  1  0
 29 55  1  0
 29 56  1  0
 30 57  1  0
M  CHG  1   8  -1
M  END
>  <UniqueID>  (48) 
48

>  <SMILES>  (48) 
C=CC(=O)n1c(C([NH-])=O)cc2ccc(CC(=O)N3[C@@H](C)CC[C@]3(C)C(=O)OCC)cc21

>  <Energy>  (48) 
95.77785570302196

>  <Genealogy>  (48) 
C=CC(=O)n1c(C([NH-])=O)cc2ccc(CC(=O)N3C(C)CCC3(C)C(=O)OCC)cc21 (protonated)
C=CC(=O)n1c(C([NH-])=O)cc2ccc(CC(=O)N3[C@@H](C)CC[C@]3(C)C(=O)OCC)cc21 (chirality)
C=CC(=O)n1c(C([NH-])=O)cc2ccc(CC(=O)N3[C@@H](C)CC[C@]3(C)C(=O)OCC)cc21 (3D coordinates assigned)
C=CC(=O)n1c(C([NH-])=O)cc2ccc(CC(=O)N3[C@@H](C)CC[C@]3(C)C(=O)OCC)cc21 (nonaromatic ring conformer: 95.77785570302196 kcal/mol)

>  <smiles>  (48) 
C=CC(=O)n1c(C(N)=O)cc2ccc(CC(=O)N3C(C)CCC3(C)C(=O)OCC)cc21

>  <score_type>  (48) 
oracle

>  <origin>  (48) 
adg

>  <m_score__min__energy>  (48) 
-8.0700000000000003

>  <m_primary>  (48) 
energy

$$$$
48:0
     RDKit          3D

 71 73  0  0  0  0  0  0  0  0999 V2000
  142.9780  153.2520  138.5330 C   0  0  0  0  0  0  0  0  0  0  0  0
  144.1950  153.3890  137.6770 C   0  0  0  0  0  0  0  0  0  0  0  0
  145.4120  153.0790  138.0560 O   0  0  0  0  0  0  0  0  0  0  0  0
  146.1850  153.3350  137.0250 C   0  0  0  0  0  0  0  0  0  0  0  0
  147.4310  153.1580  137.0260 O   0  0  0  0  0  0  0  0  0  0  0  0
  145.5160  153.7950  135.9930 O   0  0  0  0  0  0  0  0  0  0  0  0
  144.2600  153.8410  136.3710 C   0  0  0  0  0  0  0  0  0  0  0  0
  143.1300  154.2990  135.5010 C   0  0  0  0  0  0  0  0  0  0  0  0
  141.9790  153.4900  135.7170 O   0  0  0  0  0  0  0  0  0  0  0  0
  141.6450  152.3910  134.9130 C   0  0  0  0  0  0  0  0  0  0  0  0
  141.3440  151.2860  135.4440 O   0  0  0  0  0  0  0  0  0  0  0  0
  141.7160  152.5320  133.4040 C   0  0  0  0  0  0  0  0  0  0  0  0
  141.2510  153.9520  133.0120 C   0  0  0  0  0  0  0  0  0  0  0  0
  140.8000  151.5000  132.7070 C   0  0  0  0  0  0  0  0  0  0  0  0
  143.1800  152.2960  132.9690 C   0  0  0  0  0  0  0  0  0  0  0  0
  143.8450  153.5340  132.7360 O   0  0  0  0  0  0  0  0  0  0  0  0
  145.2080  153.7200  132.9770 C   0  0  0  0  0  0  0  0  0  0  0  0
  145.9950  152.7360  133.0150 O   0  0  0  0  0  0  0  0  0  0  0  0
  145.7040  155.0420  133.2100 N   0  0  0  0  0  0  0  0  0  0  0  0
  146.9700  155.4210  133.5400 C   0  0  0  0  0  0  0  0  0  0  0  0
  148.1450  154.5280  133.6360 C   0  0  0  0  0  0  0  0  0  0  0  0
  148.1280  153.3820  134.4840 N   0  0  0  0  0  0  0  0  0  0  0  0
  149.1670  154.7610  132.9360 O   0  0  0  0  0  0  0  0  0  0  0  0
  147.0320  156.8040  133.7120 C   0  0  0  0  0  0  0  0  0  0  0  0
  145.7530  157.2600  133.4730 C   0  0  0  0  0  0  0  0  0  0  0  0
  145.2350  158.5510  133.5230 C   0  0  0  0  0  0  0  0  0  0  0  0
  143.8620  158.7180  133.2700 C   0  0  0  0  0  0  0  0  0  0  0  0
  143.0390  157.6010  132.9760 C   0  0  0  0  0  0  0  0  0  0  0  0
  141.5570  157.7880  132.7800 C   0  0  0  0  0  0  0  0  0  0  0  0
  141.0900  159.1660  133.2670 C   0  0  0  0  0  0  0  0  0  0  0  0
  139.9730  159.0580  134.2010 N   0  0  0  0  0  0  0  0  0  0  0  0
  139.5080  157.8150  134.7300 C   0  0  0  0  0  0  0  0  0  0  0  0
  138.9790  156.9790  133.9500 O   0  0  0  0  0  0  0  0  0  0  0  0
  139.6510  157.5420  136.0990 O   0  0  0  0  0  0  0  0  0  0  0  0
  140.8630  157.6290  136.8610 C   0  0  0  0  0  0  0  0  0  0  0  0
  140.7460  156.6210  138.0140 C   0  0  0  0  0  0  0  0  0  0  0  0
  142.0750  157.2470  135.9910 C   0  0  0  0  0  0  0  0  0  0  0  0
  141.0370  159.0430  137.4440 C   0  0  0  0  0  0  0  0  0  0  0  0
  143.6050  156.3080  132.9250 C   0  0  0  0  0  0  0  0  0  0  0  0
  144.9750  156.1740  133.1710 C   0  0  0  0  0  0  0  0  0  0  0  0
  143.2698  153.2848  139.5931 H   0  0  0  0  0  0  0  0  0  0  0  0
  142.2837  154.0777  138.3180 H   0  0  0  0  0  0  0  0  0  0  0  0
  142.4846  152.2926  138.3180 H   0  0  0  0  0  0  0  0  0  0  0  0
  142.8883  155.3449  135.7412 H   0  0  0  0  0  0  0  0  0  0  0  0
  143.4336  154.2140  134.4471 H   0  0  0  0  0  0  0  0  0  0  0  0
  141.0587  154.5392  133.9221 H   0  0  0  0  0  0  0  0  0  0  0  0
  142.0351  154.4435  132.4174 H   0  0  0  0  0  0  0  0  0  0  0  0
  140.3280  153.8845  132.4174 H   0  0  0  0  0  0  0  0  0  0  0  0
  140.2723  150.9055  133.4674 H   0  0  0  0  0  0  0  0  0  0  0  0
  140.0662  152.0263  132.0788 H   0  0  0  0  0  0  0  0  0  0  0  0
  141.4097  150.8339  132.0788 H   0  0  0  0  0  0  0  0  0  0  0  0
  143.7079  151.7470  133.7627 H   0  0  0  0  0  0  0  0  0  0  0  0
  143.1807  151.7146  132.0352 H   0  0  0  0  0  0  0  0  0  0  0  0
  147.2290  152.9850  134.8370 H   0  0  0  0  0  0  0  0  0  0  0  0
  147.9141  157.4035  133.9812 H   0  0  0  0  0  0  0  0  0  0  0  0
  145.8789  159.4127  133.7530 H   0  0  0  0  0  0  0  0  0  0  0  0
  143.4216  159.7255  133.3004 H   0  0  0  0  0  0  0  0  0  0  0  0
  141.3238  157.6903  131.7095 H   0  0  0  0  0  0  0  0  0  0  0  0
  141.0335  157.0205  133.3689 H   0  0  0  0  0  0  0  0  0  0  0  0
  141.9285  159.6693  133.7706 H   0  0  0  0  0  0  0  0  0  0  0  0
  140.7521  159.7424  132.3932 H   0  0  0  0  0  0  0  0  0  0  0  0
  140.8078  157.1537  138.9744 H   0  0  0  0  0  0  0  0  0  0  0  0
  139.7810  156.0973  137.9467 H   0  0  0  0  0  0  0  0  0  0  0  0
  141.5653  155.8901  137.9467 H   0  0  0  0  0  0  0  0  0  0  0  0
  142.9223  156.9799  136.6396 H   0  0  0  0  0  0  0  0  0  0  0  0
  141.8142  156.3875  135.3560 H   0  0  0  0  0  0  0  0  0  0  0  0
  142.3542  158.1007  135.3560 H   0  0  0  0  0  0  0  0  0  0  0  0
  141.0305  158.9900  138.5427 H   0  0  0  0  0  0  0  0  0  0  0  0
  141.9939  159.4650  137.1030 H   0  0  0  0  0  0  0  0  0  0  0  0
  140.2110  159.6844  137.1030 H   0  0  0  0  0  0  0  0  0  0  0  0
  142.9841  155.4290  132.6976 H   0  0  0  0  0  0  0  0  0  0  0  0
  1  2  1  0
  2  3  1  0
  3  4  1  0
  4  5  2  0
  4  6  1  0
  6  7  1  0
  7  8  1  0
  8  9  1  0
  9 10  1  0
 10 11  2  0
 10 12  1  0
 12 13  1  0
 12 14  1  0
 12 15  1  0
 15 16  1  0
 16 17  1  0
 17 18  2  0
 17 19  1  0
 19 20  1  0
 20 21  1  0
 21 22  1  0
 21 23  2  0
 20 24  2  0
 24 25  1  0
 25 26  2  0
 26 27  1  0
 27 28  2  0
 28 29  1  0
 29 30  1  0
 30 31  1  0
 31 32  1  0
 32 33  2  0
 32 34  1  0
 34 35  1  0
 35 36  1  0
 35 37  1  0
 35 38  1  0
 28 39  1  0
 39 40  2  0
  7  2  2  0
 40 19  1  0
 40 25  1  0
  1 41  1  0
  1 42  1  0
  1 43  1  0
  8 44  1  0
  8 45  1  0
 13 46  1  0
 13 47  1  0
 13 48  1  0
 14 49  1  0
 14 50  1  0
 14 51  1  0
 15 52  1  0
 15 53  1  0
 22 54  1  0
 24 55  1  0
 26 56  1  0
 27 57  1  0
 29 58  1  0
 29 59  1  0
 30 60  1  0
 30 61  1  0
 36 62  1  0
 36 63  1  0
 36 64  1  0
 37 65  1  0
 37 66  1  0
 37 67  1  0
 38 68  1  0
 38 69  1  0
 38 70  1  0
 39 71  1  0
M  CHG  2  22  -1  31  -1
M  END
>  <UniqueID>  (49) 
49

>  <SMILES>  (49) 
Cc1oc(=O)oc1COC(=O)C(C)(C)COC(=O)n1c(C([NH-])=O)cc2ccc(CC[N-]C(=O)OC(C)(C)C)cc21

>  <Energy>  (49) 
122.99602496535566

>  <Genealogy>  (49) 
Cc1oc(=O)oc1COC(=O)C(C)(C)COC(=O)n1c(C([NH-])=O)cc2ccc(CC[N-]C(=O)OC(C)(C)C)cc21 (protonated)
Cc1oc(=O)oc1COC(=O)C(C)(C)COC(=O)n1c(C([NH-])=O)cc2ccc(CC[N-]C(=O)OC(C)(C)C)cc21 (3D coordinates assigned)
Cc1oc(=O)oc1COC(=O)C(C)(C)COC(=O)n1c(C([NH-])=O)cc2ccc(CC[N-]C(=O)OC(C)(C)C)cc21 (optimized conformer: 122.99602496535566 kcal/mol)

>  <smiles>  (49) 
Cc1oc(=O)oc1COC(=O)C(C)(C)COC(=O)n1c(C(N)=O)cc2ccc(CCNC(=O)OC(C)(C)C)cc21

>  <score_type>  (49) 
oracle

>  <origin>  (49) 
adg

>  <m_score__min__energy>  (49) 
-9.9700000000000006

>  <m_primary>  (49) 
energy

$$$$
49:0
     RDKit          3D

 43 46  0  0  0  0  0  0  0  0999 V2000
  149.2200  159.7510  131.3720 C   0  0  0  0  0  0  0  0  0  0  0  0
  148.4950  159.0570  132.0390 C   0  0  0  0  0  0  0  0  0  0  0  0
  147.6080  158.2120  132.8500 C   0  0  0  0  0  0  0  0  0  0  0  0
  146.2410  158.7340  133.1990 C   0  0  0  0  0  0  0  0  0  0  0  0
  145.9420  160.1090  133.0310 C   0  0  0  0  0  0  0  0  0  0  0  0
  144.6770  160.6120  133.3760 C   0  0  0  0  0  0  0  0  0  0  0  0
  143.7440  159.7250  133.9030 C   0  0  0  0  0  0  0  0  0  0  0  0
  142.4450  159.9400  134.3050 C   0  0  0  0  0  0  0  0  0  0  0  0
  141.9840  158.7020  134.7490 C   0  0  0  0  0  0  0  0  0  0  0  0
  140.6510  158.4980  135.3550 C   0  0  0  0  0  0  0  0  0  0  0  0
  139.7800  157.4990  134.8300 N   0  0  0  0  0  0  0  0  0  0  0  0
  140.2590  159.2210  136.3080 O   0  0  0  0  0  0  0  0  0  0  0  0
  142.9580  157.7560  134.6170 N   0  0  0  0  0  0  0  0  0  0  0  0
  142.8690  156.3530  134.9090 C   0  0  0  0  0  0  0  0  0  0  0  0
  141.9750  155.9280  135.6920 O   0  0  0  0  0  0  0  0  0  0  0  0
  143.7610  155.4600  134.3040 O   0  0  0  0  0  0  0  0  0  0  0  0
  143.4050  154.6200  133.2100 C   0  0  0  0  0  0  0  0  0  0  0  0
  141.9150  154.4840  133.1260 C   0  0  0  0  0  0  0  0  0  0  0  0
  141.0790  155.4960  133.1190 O   0  0  0  0  0  0  0  0  0  0  0  0
  139.8790  154.9700  133.0320 C   0  0  0  0  0  0  0  0  0  0  0  0
  138.8190  155.6490  132.9990 O   0  0  0  0  0  0  0  0  0  0  0  0
  139.9040  153.6580  132.9830 O   0  0  0  0  0  0  0  0  0  0  0  0
  141.1710  153.3210  133.0410 C   0  0  0  0  0  0  0  0  0  0  0  0
  141.6780  151.9170  133.0150 C   0  0  0  0  0  0  0  0  0  0  0  0
  144.0290  158.3990  134.1030 C   0  0  0  0  0  0  0  0  0  0  0  0
  145.2750  157.8660  133.7520 C   0  0  0  0  0  0  0  0  0  0  0  0
  147.7360  156.7110  132.6280 C   0  0  0  0  0  0  0  0  0  0  0  0
  148.2980  157.3440  133.8940 C   0  0  0  0  0  0  0  0  0  0  0  0
  149.8818  160.3845  130.7631 H   0  0  0  0  0  0  0  0  0  0  0  0
  146.7072  160.7881  132.6269 H   0  0  0  0  0  0  0  0  0  0  0  0
  144.4315  161.6748  133.2339 H   0  0  0  0  0  0  0  0  0  0  0  0
  141.8885  160.8885  134.2809 H   0  0  0  0  0  0  0  0  0  0  0  0
  140.1330  156.5420  134.6100 H   0  0  0  0  0  0  0  0  0  0  0  0
  143.7830  155.0604  132.2756 H   0  0  0  0  0  0  0  0  0  0  0  0
  143.8484  153.6249  133.3622 H   0  0  0  0  0  0  0  0  0  0  0  0
  141.8086  151.5552  134.0455 H   0  0  0  0  0  0  0  0  0  0  0  0
  140.9547  151.2756  132.4901 H   0  0  0  0  0  0  0  0  0  0  0  0
  142.6442  151.8857  132.4901 H   0  0  0  0  0  0  0  0  0  0  0  0
  145.4954  156.7990  133.9032 H   0  0  0  0  0  0  0  0  0  0  0  0
  146.8446  156.0689  132.6832 H   0  0  0  0  0  0  0  0  0  0  0  0
  148.1447  156.0750  131.8290 H   0  0  0  0  0  0  0  0  0  0  0  0
  147.8125  157.1592  134.8636 H   0  0  0  0  0  0  0  0  0  0  0  0
  149.2807  157.3547  134.3881 H   0  0  0  0  0  0  0  0  0  0  0  0
  1  2  3  0
  2  3  1  0
  3  4  1  0
  4  5  2  0
  5  6  1  0
  6  7  2  0
  7  8  1  0
  8  9  2  0
  9 10  1  0
 10 11  1  0
 10 12  2  0
  9 13  1  0
 13 14  1  0
 14 15  2  0
 14 16  1  0
 16 17  1  0
 17 18  1  0
 18 19  1  0
 19 20  1  0
 20 21  2  0
 20 22  1  0
 22 23  1  0
 23 24  1  0
 13 25  1  0
 25 26  2  0
  3 27  1  0
 27 28  1  0
 28  3  1  0
 26  4  1  0
 25  7  1  0
 23 18  2  0
  1 29  1  0
  5 30  1  0
  6 31  1  0
  8 32  1  0
 11 33  1  0
 17 34  1  0
 17 35  1  0
 24 36  1  0
 24 37  1  0
 24 38  1  0
 26 39  1  0
 27 40  1  0
 27 41  1  0
 28 42  1  0
 28 43  1  0
M  CHG  1  11  -1
M  END
>  <UniqueID>  (50) 
50

>  <SMILES>  (50) 
C#CC1(c2ccc3cc(C([NH-])=O)n(C(=O)OCc4oc(=O)oc4C)c3c2)CC1

>  <Energy>  (50) 
378.7497012556043

>  <Genealogy>  (50) 
C#CC1(c2ccc3cc(C([NH-])=O)n(C(=O)OCc4oc(=O)oc4C)c3c2)CC1 (protonated)
C#CC1(c2ccc3cc(C([NH-])=O)n(C(=O)OCc4oc(=O)oc4C)c3c2)CC1 (3D coordinates assigned)
C#CC1(c2ccc3cc(C([NH-])=O)n(C(=O)OCc4oc(=O)oc4C)c3c2)CC1 (nonaromatic ring conformer: 378.7497012556043 kcal/mol)

>  <smiles>  (50) 
C#CC1(c2ccc3cc(C(N)=O)n(C(=O)OCc4oc(=O)oc4C)c3c2)CC1

>  <score_type>  (50) 
oracle

>  <origin>  (50) 
adg

>  <m_score__min__energy>  (50) 
-7.7800000000000002

>  <m_primary>  (50) 
energy

$$$$
50:0
     RDKit          3D

 42 44  0  0  0  0  0  0  0  0999 V2000
  140.5750  159.7590  134.4420 N   0  0  0  0  0  0  0  0  0  0  0  0
  141.0000  159.0790  133.2630 C   0  0  0  0  0  0  0  0  0  0  0  0
  140.2600  159.0880  132.2450 O   0  0  0  0  0  0  0  0  0  0  0  0
  142.3190  158.4140  133.2350 C   0  0  0  0  0  0  0  0  0  0  0  0
  142.4830  157.0520  132.9880 C   0  0  0  0  0  0  0  0  0  0  0  0
  143.8290  156.8110  133.1440 C   0  0  0  0  0  0  0  0  0  0  0  0
  144.5460  155.6270  133.0160 C   0  0  0  0  0  0  0  0  0  0  0  0
  145.9350  155.6720  133.2170 C   0  0  0  0  0  0  0  0  0  0  0  0
  146.5800  156.8960  133.5200 C   0  0  0  0  0  0  0  0  0  0  0  0
  148.0630  156.9280  133.7620 C   0  0  0  0  0  0  0  0  0  0  0  0
  148.6440  158.1930  133.2080 C   0  0  0  0  0  0  0  0  0  0  0  0
  148.8700  159.1630  133.9820 O   0  0  0  0  0  0  0  0  0  0  0  0
  148.8890  158.3150  131.7990 N   0  0  0  0  0  0  0  0  0  0  0  0
  149.4080  159.5490  131.2010 C   0  0  0  0  0  0  0  0  0  0  0  0
  148.4390  160.7170  131.4400 C   0  0  0  0  0  0  0  0  0  0  0  0
  148.9410  162.0020  130.7400 C   0  0  0  0  0  0  0  0  0  0  0  0
  149.9800  161.7640  129.8020 O   0  0  0  0  0  0  0  0  0  0  0  0
  149.6230  160.7010  128.9380 C   0  0  0  0  0  0  0  0  0  0  0  0
  149.6430  159.3580  129.6890 C   0  0  0  0  0  0  0  0  0  0  0  0
  145.8180  158.0800  133.6490 C   0  0  0  0  0  0  0  0  0  0  0  0
  144.4320  158.0000  133.4660 C   0  0  0  0  0  0  0  0  0  0  0  0
  143.5180  158.9960  133.5230 N   0  0  0  0  0  0  0  0  0  0  0  0
  143.7840  160.3880  133.7700 C   0  0  0  0  0  0  0  0  0  0  0  0
  142.8560  161.2370  133.6900 O   0  0  0  0  0  0  0  0  0  0  0  0
  145.0590  160.8070  134.1320 O   0  0  0  0  0  0  0  0  0  0  0  0
  141.0850  160.6020  134.7910 H   0  0  0  0  0  0  0  0  0  0  0  0
  141.7019  156.3238  132.7242 H   0  0  0  0  0  0  0  0  0  0  0  0
  144.0404  154.6830  132.7648 H   0  0  0  0  0  0  0  0  0  0  0  0
  146.5274  154.7485  133.1384 H   0  0  0  0  0  0  0  0  0  0  0  0
  148.2569  156.8809  134.8437 H   0  0  0  0  0  0  0  0  0  0  0  0
  148.5297  156.0664  133.2622 H   0  0  0  0  0  0  0  0  0  0  0  0
  148.6480  157.5050  131.1830 H   0  0  0  0  0  0  0  0  0  0  0  0
  150.3684  159.7858  131.6823 H   0  0  0  0  0  0  0  0  0  0  0  0
  147.4494  160.4518  131.0396 H   0  0  0  0  0  0  0  0  0  0  0  0
  148.3772  160.9070  132.5217 H   0  0  0  0  0  0  0  0  0  0  0  0
  148.0942  162.4651  130.2123 H   0  0  0  0  0  0  0  0  0  0  0  0
  149.3528  162.6577  131.5213 H   0  0  0  0  0  0  0  0  0  0  0  0
  148.6113  160.8797  128.5450 H   0  0  0  0  0  0  0  0  0  0  0  0
  150.3506  160.6559  128.1143 H   0  0  0  0  0  0  0  0  0  0  0  0
  148.8513  158.7107  129.2838 H   0  0  0  0  0  0  0  0  0  0  0  0
  150.6339  158.9011  129.5501 H   0  0  0  0  0  0  0  0  0  0  0  0
  146.3014  159.0390  133.8869 H   0  0  0  0  0  0  0  0  0  0  0  0
  1  2  1  0
  2  3  2  0
  2  4  1  0
  4  5  2  0
  5  6  1  0
  6  7  2  0
  7  8  1  0
  8  9  2  0
  9 10  1  0
 10 11  1  0
 11 12  2  0
 11 13  1  0
 13 14  1  0
 14 15  1  0
 15 16  1  0
 16 17  1  0
 17 18  1  0
 18 19  1  0
  9 20  1  0
 20 21  2  0
 21 22  1  0
 22 23  1  0
 23 24  2  0
 23 25  1  0
 22  4  1  0
 21  6  1  0
 19 14  1  0
  1 26  1  0
  5 27  1  0
  7 28  1  0
  8 29  1  0
 10 30  1  0
 10 31  1  0
 13 32  1  0
 14 33  1  0
 15 34  1  0
 15 35  1  0
 16 36  1  0
 16 37  1  0
 18 38  1  0
 18 39  1  0
 19 40  1  0
 19 41  1  0
 20 42  1  0
M  CHG  2   1  -1  25  -1
M  END
>  <UniqueID>  (51) 
51

>  <SMILES>  (51) 
[NH-]C(=O)c1cc2ccc(CC(=O)NC3CCOCC3)cc2n1C(=O)[O-]

>  <Energy>  (51) 
84.61126400313991

>  <Genealogy>  (51) 
[NH-]C(=O)c1cc2ccc(CC(=O)NC3CCOCC3)cc2n1C(=O)[O-] (protonated)
[NH-]C(=O)c1cc2ccc(CC(=O)NC3CCOCC3)cc2n1C(=O)[O-] (3D coordinates assigned)
[NH-]C(=O)c1cc2ccc(CC(=O)NC3CCOCC3)cc2n1C(=O)[O-] (nonaromatic ring conformer: 84.61126400313991 kcal/mol)

>  <smiles>  (51) 
NC(=O)c1cc2ccc(CC(=O)NC3CCOCC3)cc2n1C(=O)O

>  <score_type>  (51) 
oracle

>  <origin>  (51) 
adg

>  <m_score__min__energy>  (51) 
-8.4399999999999995

>  <m_primary>  (51) 
energy

$$$$
51:0
     RDKit          3D

 40 41  0  0  0  0  0  0  0  0999 V2000
  144.2570  155.4820  132.0760 N   0  0  0  0  0  0  0  0  0  0  0  0
  144.6930  156.2120  133.2190 C   0  0  0  0  0  0  0  0  0  0  0  0
  145.0360  155.5670  134.2450 O   0  0  0  0  0  0  0  0  0  0  0  0
  144.6870  157.6580  133.2280 N   0  0  0  0  0  0  0  0  0  0  0  0
  145.7720  158.4830  133.1270 C   0  0  0  0  0  0  0  0  0  0  0  0
  147.1460  158.0720  132.7930 C   0  0  0  0  0  0  0  0  0  0  0  0
  147.3860  156.9160  131.9900 N   0  0  0  0  0  0  0  0  0  0  0  0
  148.1140  158.7930  133.1520 O   0  0  0  0  0  0  0  0  0  0  0  0
  145.4190  159.8090  133.3370 C   0  0  0  0  0  0  0  0  0  0  0  0
  144.0610  159.7930  133.5350 C   0  0  0  0  0  0  0  0  0  0  0  0
  143.1850  160.8560  133.7330 C   0  0  0  0  0  0  0  0  0  0  0  0
  141.8160  160.5690  133.8350 C   0  0  0  0  0  0  0  0  0  0  0  0
  141.3480  159.2380  133.7230 C   0  0  0  0  0  0  0  0  0  0  0  0
  139.8690  158.9560  133.7460 C   0  0  0  0  0  0  0  0  0  0  0  0
  139.4780  157.9600  132.6860 C   0  0  0  0  0  0  0  0  0  0  0  0
  138.5600  158.2620  131.8790 O   0  0  0  0  0  0  0  0  0  0  0  0
  140.0940  156.6690  132.5710 N   0  0  0  0  0  0  0  0  0  0  0  0
  139.6410  155.4350  133.2090 C   0  0  0  0  0  0  0  0  0  0  0  0
  140.8400  154.6290  133.7370 C   0  0  2  0  0  0  0  0  0  0  0  0
  142.0100  155.4000  133.6470 O   0  0  0  0  0  0  0  0  0  0  0  0
  141.0230  153.3420  132.9230 C   0  0  0  0  0  0  0  0  0  0  0  0
  142.1730  153.4260  132.1240 O   0  0  0  0  0  0  0  0  0  0  0  0
  142.2710  158.1800  133.5560 C   0  0  0  0  0  0  0  0  0  0  0  0
  143.6370  158.4880  133.4630 C   0  0  0  0  0  0  0  0  0  0  0  0
  143.2410  155.3670  131.8640 H   0  0  0  0  0  0  0  0  0  0  0  0
  148.3620  156.6300  131.7560 H   0  0  0  0  0  0  0  0  0  0  0  0
  146.5890  156.3710  131.5930 H   0  0  0  0  0  0  0  0  0  0  0  0
  146.0848  160.6846  133.3434 H   0  0  0  0  0  0  0  0  0  0  0  0
  143.5548  161.8893  133.8072 H   0  0  0  0  0  0  0  0  0  0  0  0
  141.0992  161.3861  134.0037 H   0  0  0  0  0  0  0  0  0  0  0  0
  139.5979  158.5522  134.7326 H   0  0  0  0  0  0  0  0  0  0  0  0
  139.3361  159.8974  133.5469 H   0  0  0  0  0  0  0  0  0  0  0  0
  138.9752  155.6848  134.0482 H   0  0  0  0  0  0  0  0  0  0  0  0
  139.1037  154.8273  132.4660 H   0  0  0  0  0  0  0  0  0  0  0  0
  140.6461  154.3669  134.7876 H   0  0  0  0  0  0  0  0  0  0  0  0
  142.1300  155.6310  132.6880 H   0  0  0  0  0  0  0  0  0  0  0  0
  141.1216  152.4894  133.6110 H   0  0  0  0  0  0  0  0  0  0  0  0
  140.1467  153.2046  132.2724 H   0  0  0  0  0  0  0  0  0  0  0  0
  142.4760  154.3720  132.1600 H   0  0  0  0  0  0  0  0  0  0  0  0
  141.9255  157.1371  133.5001 H   0  0  0  0  0  0  0  0  0  0  0  0
  1  2  1  0
  2  3  2  0
  2  4  1  0
  4  5  1  0
  5  6  1  0
  6  7  1  0
  6  8  2  0
  5  9  2  0
  9 10  1  0
 10 11  2  0
 11 12  1  0
 12 13  2  0
 13 14  1  0
 14 15  1  0
 15 16  2  0
 15 17  1  0
 17 18  1  0
 18 19  1  0
 19 20  1  0
 19 21  1  0
 21 22  1  0
 13 23  1  0
 23 24  2  0
 24  4  1  0
 24 10  1  0
  1 25  1  0
  7 26  1  0
  7 27  1  0
  9 28  1  0
 11 29  1  0
 12 30  1  0
 14 31  1  0
 14 32  1  0
 18 33  1  0
 18 34  1  0
 19 35  1  1
 20 36  1  0
 21 37  1  0
 21 38  1  0
 22 39  1  0
 23 40  1  0
M  CHG  2   1  -1  17  -1
M  END
>  <UniqueID>  (52) 
52

>  <SMILES>  (52) 
[NH-]C(=O)n1c(C(N)=O)cc2ccc(CC(=O)[N-]C[C@H](O)CO)cc21

>  <Energy>  (52) 
74.3761236432182

>  <Genealogy>  (52) 
[NH-]C(=O)n1c(C(N)=O)cc2ccc(CC(=O)[N-]CC(O)CO)cc21 (protonated)
[NH-]C(=O)n1c(C(N)=O)cc2ccc(CC(=O)[N-]C[C@H](O)CO)cc21 (chirality)
[NH-]C(=O)n1c(C(N)=O)cc2ccc(CC(=O)[N-]C[C@H](O)CO)cc21 (3D coordinates assigned)
[NH-]C(=O)n1c(C(N)=O)cc2ccc(CC(=O)[N-]C[C@H](O)CO)cc21 (optimized conformer: 74.3761236432182 kcal/mol)

>  <smiles>  (52) 
NC(=O)c1cc2ccc(CC(=O)NCC(O)CO)cc2n1C(N)=O

>  <score_type>  (52) 
oracle

>  <origin>  (52) 
adg

>  <m_score__min__energy>  (52) 
-6.71

>  <m_primary>  (52) 
energy

$$$$
52:0
     RDKit          3D

 58 60  0  0  0  0  0  0  0  0999 V2000
  139.3840  158.6380  133.0890 C   0  0  0  0  0  0  0  0  0  0  0  0
  139.3790  157.7900  134.2950 N   0  0  0  0  0  0  0  0  0  0  0  0
  139.9600  158.4980  135.4670 C   0  0  0  0  0  0  0  0  0  0  0  0
  141.4060  158.0760  135.7970 C   0  0  0  0  0  0  0  0  0  0  0  0
  142.1040  157.6580  134.5780 N   0  0  0  0  0  0  0  0  0  0  0  0
  143.2810  158.3490  134.1160 C   0  0  0  0  0  0  0  0  0  0  0  0
  143.2730  159.7590  133.9760 C   0  0  0  0  0  0  0  0  0  0  0  0
  144.4290  160.4480  133.5720 C   0  0  0  0  0  0  0  0  0  0  0  0
  145.5770  159.7020  133.3150 C   0  0  0  0  0  0  0  0  0  0  0  0
  146.8410  160.1140  132.9590 C   0  0  0  0  0  0  0  0  0  0  0  0
  147.6000  158.9460  132.8740 C   0  0  0  0  0  0  0  0  0  0  0  0
  149.0140  158.9220  132.4440 C   0  0  0  0  0  0  0  0  0  0  0  0
  149.6950  157.6880  132.2260 N   0  0  0  0  0  0  0  0  0  0  0  0
  149.6180  160.0070  132.2250 O   0  0  0  0  0  0  0  0  0  0  0  0
  146.8350  157.8590  133.1720 N   0  0  0  0  0  0  0  0  0  0  0  0
  147.2530  156.4900  133.2850 C   0  0  0  0  0  0  0  0  0  0  0  0
  147.6850  155.8790  132.2680 O   0  0  0  0  0  0  0  0  0  0  0  0
  147.1390  155.8260  134.5140 O   0  0  0  0  0  0  0  0  0  0  0  0
  147.6850  154.5290  134.7520 C   0  0  0  0  0  0  0  0  0  0  0  0
  146.7980  153.7400  135.6650 C   0  0  0  0  0  0  0  0  0  0  0  0
  147.2170  153.3960  136.8050 O   0  0  0  0  0  0  0  0  0  0  0  0
  145.5210  153.3730  135.2320 O   0  0  0  0  0  0  0  0  0  0  0  0
  144.5940  154.3100  134.6930 C   0  0  0  0  0  0  0  0  0  0  0  0
  144.6470  154.2660  133.2010 C   0  0  0  0  0  0  0  0  0  0  0  0
  143.7230  154.8060  132.5310 O   0  0  0  0  0  0  0  0  0  0  0  0
  145.7540  153.6830  132.5610 O   0  0  0  0  0  0  0  0  0  0  0  0
  145.9230  152.2740  132.3930 C   0  0  0  0  0  0  0  0  0  0  0  0
  147.4110  151.9050  132.3110 C   0  0  0  0  0  0  0  0  0  0  0  0
  148.2170  153.0540  132.2850 O   0  0  0  0  0  0  0  0  0  0  0  0
  145.6000  158.3370  133.4360 C   0  0  0  0  0  0  0  0  0  0  0  0
  144.4670  157.6280  133.8510 C   0  0  0  0  0  0  0  0  0  0  0  0
  141.5110  156.5930  133.7620 C   0  0  0  0  0  0  0  0  0  0  0  0
  140.0020  156.4710  134.0480 C   0  0  0  0  0  0  0  0  0  0  0  0
  139.3903  159.6972  133.3856 H   0  0  0  0  0  0  0  0  0  0  0  0
  140.2809  158.4194  132.4908 H   0  0  0  0  0  0  0  0  0  0  0  0
  138.4846  158.4300  132.4908 H   0  0  0  0  0  0  0  0  0  0  0  0
  139.9534  159.5779  135.2577 H   0  0  0  0  0  0  0  0  0  0  0  0
  139.3430  158.2334  136.3384 H   0  0  0  0  0  0  0  0  0  0  0  0
  141.9388  158.9268  136.2467 H   0  0  0  0  0  0  0  0  0  0  0  0
  141.3807  157.2323  136.5023 H   0  0  0  0  0  0  0  0  0  0  0  0
  142.3509  160.3208  134.1861 H   0  0  0  0  0  0  0  0  0  0  0  0
  144.4275  161.5425  133.4621 H   0  0  0  0  0  0  0  0  0  0  0  0
  147.1807  161.1447  132.7796 H   0  0  0  0  0  0  0  0  0  0  0  0
  149.3600  157.0100  131.5050 H   0  0  0  0  0  0  0  0  0  0  0  0
  147.7820  153.9968  133.7942 H   0  0  0  0  0  0  0  0  0  0  0  0
  148.6704  154.6422  135.2275 H   0  0  0  0  0  0  0  0  0  0  0  0
  143.5785  154.0559  135.0308 H   0  0  0  0  0  0  0  0  0  0  0  0
  144.8547  155.3214  135.0380 H   0  0  0  0  0  0  0  0  0  0  0  0
  145.4696  151.7526  133.2489 H   0  0  0  0  0  0  0  0  0  0  0  0
  145.4344  151.9715  131.4551 H   0  0  0  0  0  0  0  0  0  0  0  0
  147.6793  151.2980  133.1883 H   0  0  0  0  0  0  0  0  0  0  0  0
  147.5796  151.3395  131.3827 H   0  0  0  0  0  0  0  0  0  0  0  0
  147.6800  153.7640  131.8420 H   0  0  0  0  0  0  0  0  0  0  0  0
  144.4990  156.5347  133.9682 H   0  0  0  0  0  0  0  0  0  0  0  0
  141.6599  156.8270  132.6975 H   0  0  0  0  0  0  0  0  0  0  0  0
  141.9988  155.6394  134.0124 H   0  0  0  0  0  0  0  0  0  0  0  0
  139.5124  156.0032  133.1812 H   0  0  0  0  0  0  0  0  0  0  0  0
  139.8749  155.8590  134.9532 H   0  0  0  0  0  0  0  0  0  0  0  0
  1  2  1  0
  2  3  1  0
  3  4  1  0
  4  5  1  0
  5  6  1  0
  6  7  2  0
  7  8  1  0
  8  9  2  0
  9 10  1  0
 10 11  2  0
 11 12  1  0
 12 13  1  0
 12 14  2  0
 11 15  1  0
 15 16  1  0
 16 17  2  0
 16 18  1  0
 18 19  1  0
 19 20  1  0
 20 21  2  0
 20 22  1  0
 22 23  1  0
 23 24  1  0
 24 25  2  0
 24 26  1  0
 26 27  1  0
 27 28  1  0
 28 29  1  0
 15 30  1  0
 30 31  2  0
  5 32  1  0
 32 33  1  0
 33  2  1  0
 31  6  1  0
 30  9  1  0
  1 34  1  0
  1 35  1  0
  1 36  1  0
  3 37  1  0
  3 38  1  0
  4 39  1  0
  4 40  1  0
  7 41  1  0
  8 42  1  0
 10 43  1  0
 13 44  1  0
 19 45  1  0
 19 46  1  0
 23 47  1  0
 23 48  1  0
 27 49  1  0
 27 50  1  0
 28 51  1  0
 28 52  1  0
 29 53  1  0
 31 54  1  0
 32 55  1  0
 32 56  1  0
 33 57  1  0
 33 58  1  0
M  CHG  1  13  -1
M  END
>  <UniqueID>  (53) 
53

>  <SMILES>  (53) 
CN1CCN(c2ccc3cc(C([NH-])=O)n(C(=O)OCC(=O)OCC(=O)OCCO)c3c2)CC1

>  <Energy>  (53) 
100.3205892733213

>  <Genealogy>  (53) 
CN1CCN(c2ccc3cc(C([NH-])=O)n(C(=O)OCC(=O)OCC(=O)OCCO)c3c2)CC1 (protonated)
CN1CCN(c2ccc3cc(C([NH-])=O)n(C(=O)OCC(=O)OCC(=O)OCCO)c3c2)CC1 (3D coordinates assigned)
CN1CCN(c2ccc3cc(C([NH-])=O)n(C(=O)OCC(=O)OCC(=O)OCCO)c3c2)CC1 (nonaromatic ring conformer: 100.3205892733213 kcal/mol)

>  <smiles>  (53) 
CN1CCN(c2ccc3cc(C(N)=O)n(C(=O)OCC(=O)OCC(=O)OCCO)c3c2)CC1

>  <score_type>  (53) 
oracle

>  <origin>  (53) 
adg

>  <m_score__min__energy>  (53) 
-7.3399999999999999

>  <m_primary>  (53) 
energy

$$$$
53:0
     RDKit          3D

 46 48  0  0  0  0  0  0  0  0999 V2000
  141.7250  160.0790  132.9690 N   0  0  0  0  0  0  0  0  0  0  0  0
  142.6180  159.6540  133.9950 C   0  0  0  0  0  0  0  0  0  0  0  0
  142.1790  159.4840  135.1630 O   0  0  0  0  0  0  0  0  0  0  0  0
  144.0570  159.4590  133.7180 C   0  0  0  0  0  0  0  0  0  0  0  0
  144.9780  160.5020  133.6540 C   0  0  0  0  0  0  0  0  0  0  0  0
  146.1690  159.9160  133.2890 C   0  0  0  0  0  0  0  0  0  0  0  0
  147.4240  160.4840  133.0850 C   0  0  0  0  0  0  0  0  0  0  0  0
  148.4830  159.6300  132.7340 C   0  0  0  0  0  0  0  0  0  0  0  0
  148.2710  158.2360  132.6000 C   0  0  0  0  0  0  0  0  0  0  0  0
  149.3590  157.3770  132.2510 N   0  0  0  0  0  0  0  0  0  0  0  0
  146.9850  157.6950  132.8140 C   0  0  0  0  0  0  0  0  0  0  0  0
  145.9470  158.5710  133.1490 C   0  0  0  0  0  0  0  0  0  0  0  0
  144.6580  158.2730  133.4140 N   0  0  0  0  0  0  0  0  0  0  0  0
  144.0830  156.9590  133.4450 C   0  0  0  0  0  0  0  0  0  0  0  0
  144.4870  156.0840  132.6300 O   0  0  0  0  0  0  0  0  0  0  0  0
  143.0830  156.6330  134.4180 N   0  0  0  0  0  0  0  0  0  0  0  0
  142.4480  155.3190  134.4880 C   0  0  0  0  0  0  0  0  0  0  0  0
  141.6930  155.1640  135.8240 C   0  0  0  0  0  0  0  0  0  0  0  0
  141.5700  156.4150  136.6050 N   0  0  0  0  0  0  0  0  0  0  0  0
  140.4780  157.2950  136.1300 C   0  0  0  0  0  0  0  0  0  0  0  0
  140.2230  158.4810  137.0860 C   0  0  0  0  0  0  0  0  0  0  0  0
  141.4440  158.7650  137.9670 C   0  0  0  0  0  0  0  0  0  0  0  0
  141.8320  157.5270  138.7960 C   0  0  0  0  0  0  0  0  0  0  0  0
  141.5310  156.2060  138.0640 C   0  0  0  0  0  0  0  0  0  0  0  0
  141.8540  159.7650  131.9810 H   0  0  0  0  0  0  0  0  0  0  0  0
  144.7929  161.5679  133.8529 H   0  0  0  0  0  0  0  0  0  0  0  0
  147.5812  161.5671  133.1952 H   0  0  0  0  0  0  0  0  0  0  0  0
  149.4859  160.0478  132.5617 H   0  0  0  0  0  0  0  0  0  0  0  0
  149.9930  156.9920  132.9870 H   0  0  0  0  0  0  0  0  0  0  0  0
  149.5390  157.1200  131.2540 H   0  0  0  0  0  0  0  0  0  0  0  0
  146.8039  156.6141  132.7199 H   0  0  0  0  0  0  0  0  0  0  0  0
  142.7720  157.3710  135.0910 H   0  0  0  0  0  0  0  0  0  0  0  0
  141.7377  155.2136  133.6547 H   0  0  0  0  0  0  0  0  0  0  0  0
  143.2230  154.5413  134.4208 H   0  0  0  0  0  0  0  0  0  0  0  0
  140.6805  154.7934  135.6061 H   0  0  0  0  0  0  0  0  0  0  0  0
  142.2816  154.4668  136.4384 H   0  0  0  0  0  0  0  0  0  0  0  0
  140.7479  157.6906  135.1397 H   0  0  0  0  0  0  0  0  0  0  0  0
  139.5573  156.6947  136.0855 H   0  0  0  0  0  0  0  0  0  0  0  0
  139.9957  159.3775  136.4905 H   0  0  0  0  0  0  0  0  0  0  0  0
  139.3782  158.2210  137.7407 H   0  0  0  0  0  0  0  0  0  0  0  0
  142.2917  159.0473  137.3253 H   0  0  0  0  0  0  0  0  0  0  0  0
  141.1922  159.5825  138.6585 H   0  0  0  0  0  0  0  0  0  0  0  0
  142.9094  157.5719  139.0131 H   0  0  0  0  0  0  0  0  0  0  0  0
  141.2315  157.5415  139.7175 H   0  0  0  0  0  0  0  0  0  0  0  0
  142.2843  155.4549  138.3442 H   0  0  0  0  0  0  0  0  0  0  0  0
  140.5285  155.8557  138.3509 H   0  0  0  0  0  0  0  0  0  0  0  0
  1  2  1  0
  2  3  2  0
  2  4  1  0
  4  5  2  0
  5  6  1  0
  6  7  2  0
  7  8  1  0
  8  9  2  0
  9 10  1  0
  9 11  1  0
 11 12  2  0
 12 13  1  0
 13 14  1  0
 14 15  2  0
 14 16  1  0
 16 17  1  0
 17 18  1  0
 18 19  1  0
 19 20  1  0
 20 21  1  0
 21 22  1  0
 22 23  1  0
 23 24  1  0
 13  4  1  0
 24 19  1  0
 12  6  1  0
  1 25  1  0
  5 26  1  0
  7 27  1  0
  8 28  1  0
 10 29  1  0
 10 30  1  0
 11 31  1  0
 16 32  1  0
 17 33  1  0
 17 34  1  0
 18 35  1  0
 18 36  1  0
 20 37  1  0
 20 38  1  0
 21 39  1  0
 21 40  1  0
 22 41  1  0
 22 42  1  0
 23 43  1  0
 23 44  1  0
 24 45  1  0
 24 46  1  0
M  CHG  1   1  -1
M  END
>  <UniqueID>  (54) 
54

>  <SMILES>  (54) 
[NH-]C(=O)c1cc2ccc(N)cc2n1C(=O)NCCN1CCCCC1

>  <Energy>  (54) 
89.87016258370559

>  <Genealogy>  (54) 
[NH-]C(=O)c1cc2ccc(N)cc2n1C(=O)NCCN1CCCCC1 (protonated)
[NH-]C(=O)c1cc2ccc(N)cc2n1C(=O)NCCN1CCCCC1 (3D coordinates assigned)
[NH-]C(=O)c1cc2ccc(N)cc2n1C(=O)NCCN1CCCCC1 (nonaromatic ring conformer: 89.87016258370559 kcal/mol)

>  <smiles>  (54) 
NC(=O)c1cc2ccc(N)cc2n1C(=O)NCCN1CCCCC1

>  <score_type>  (54) 
oracle

>  <origin>  (54) 
adg

>  <m_score__min__energy>  (54) 
-8.2899999999999991

>  <m_primary>  (54) 
energy

$$$$
54:0
     RDKit          3D

 40 42  0  0  0  0  0  0  0  0999 V2000
  140.2410  150.1010  137.0150 N   0  0  0  0  0  0  0  0  0  0  0  0
  140.9530  150.9720  137.8890 C   0  0  0  0  0  0  0  0  0  0  0  0
  141.3940  150.5260  138.9810 O   0  0  0  0  0  0  0  0  0  0  0  0
  141.2300  152.3720  137.5060 C   0  0  0  0  0  0  0  0  0  0  0  0
  141.8880  152.7270  136.3310 C   0  0  0  0  0  0  0  0  0  0  0  0
  141.8830  154.1010  136.3100 C   0  0  0  0  0  0  0  0  0  0  0  0
  142.4400  154.9830  135.3880 C   0  0  0  0  0  0  0  0  0  0  0  0
  142.3510  156.3590  135.6570 C   0  0  0  0  0  0  0  0  0  0  0  0
  141.7120  156.8250  136.8340 C   0  0  0  0  0  0  0  0  0  0  0  0
  141.7650  158.2850  137.1890 C   0  0  0  0  0  0  0  0  0  0  0  0
  141.1070  159.0610  136.0960 C   0  0  0  0  0  0  0  0  0  0  0  0
  139.8510  159.1750  136.0730 O   0  0  0  0  0  0  0  0  0  0  0  0
  141.8980  159.5570  135.0140 N   0  0  0  0  0  0  0  0  0  0  0  0
  141.3620  160.4500  133.9960 C   0  0  0  0  0  0  0  0  0  0  0  0
  140.3770  159.6960  133.1420 C   0  0  0  0  0  0  0  0  0  0  0  0
  140.3250  158.2930  133.1910 C   0  0  0  0  0  0  0  0  0  0  0  0
  139.4700  157.5900  132.3370 C   0  0  0  0  0  0  0  0  0  0  0  0
  138.6630  158.2790  131.4290 C   0  0  0  0  0  0  0  0  0  0  0  0
  138.7140  159.6750  131.3680 C   0  0  0  0  0  0  0  0  0  0  0  0
  137.9110  160.3590  130.4630 O   0  0  0  0  0  0  0  0  0  0  0  0
  139.5770  160.3820  132.2130 C   0  0  0  0  0  0  0  0  0  0  0  0
  141.1580  155.8990  137.7450 C   0  0  0  0  0  0  0  0  0  0  0  0
  141.2450  154.5350  137.4430 C   0  0  0  0  0  0  0  0  0  0  0  0
  140.8390  153.4840  138.1910 N   0  0  0  0  0  0  0  0  0  0  0  0
  140.2160  153.5530  139.4840 C   0  0  0  0  0  0  0  0  0  0  0  0
  140.6180  152.8180  140.4240 O   0  0  0  0  0  0  0  0  0  0  0  0
  139.1790  154.4480  139.7160 O   0  0  0  0  0  0  0  0  0  0  0  0
  139.8370  149.2030  137.3640 H   0  0  0  0  0  0  0  0  0  0  0  0
  142.3203  152.0506  135.5789 H   0  0  0  0  0  0  0  0  0  0  0  0
  142.9344  154.6140  134.4773 H   0  0  0  0  0  0  0  0  0  0  0  0
  142.7810  157.0817  134.9479 H   0  0  0  0  0  0  0  0  0  0  0  0
  141.2343  158.4561  138.1372 H   0  0  0  0  0  0  0  0  0  0  0  0
  142.8102  158.6077  137.3047 H   0  0  0  0  0  0  0  0  0  0  0  0
  140.8551  161.2975  134.4805 H   0  0  0  0  0  0  0  0  0  0  0  0
  142.1822  160.8270  133.3674 H   0  0  0  0  0  0  0  0  0  0  0  0
  140.9592  157.7456  133.9038 H   0  0  0  0  0  0  0  0  0  0  0  0
  139.4328  156.4915  132.3804 H   0  0  0  0  0  0  0  0  0  0  0  0
  137.9873  157.7236  130.7619 H   0  0  0  0  0  0  0  0  0  0  0  0
  139.6291  161.4789  132.1495 H   0  0  0  0  0  0  0  0  0  0  0  0
  140.6700  156.2413  138.6695 H   0  0  0  0  0  0  0  0  0  0  0  0
  1  2  1  0
  2  3  2  0
  2  4  1  0
  4  5  2  0
  5  6  1  0
  6  7  2  0
  7  8  1  0
  8  9  2  0
  9 10  1  0
 10 11  1  0
 11 12  2  0
 11 13  1  0
 13 14  1  0
 14 15  1  0
 15 16  2  0
 16 17  1  0
 17 18  2  0
 18 19  1  0
 19 20  1  0
 19 21  2  0
  9 22  1  0
 22 23  2  0
 23 24  1  0
 24 25  1  0
 25 26  2  0
 25 27  1  0
 24  4  1  0
 23  6  1  0
 21 15  1  0
  1 28  1  0
  5 29  1  0
  7 30  1  0
  8 31  1  0
 10 32  1  0
 10 33  1  0
 14 34  1  0
 14 35  1  0
 16 36  1  0
 17 37  1  0
 18 38  1  0
 21 39  1  0
 22 40  1  0
M  CHG  4   1  -1  13  -1  20  -1  27  -1
M  END
>  <UniqueID>  (55) 
55

>  <SMILES>  (55) 
[NH-]C(=O)c1cc2ccc(CC(=O)[N-]Cc3cccc([O-])c3)cc2n1C(=O)[O-]

>  <Energy>  (55) 
74.7583229442883

>  <Genealogy>  (55) 
[NH-]C(=O)c1cc2ccc(CC(=O)[N-]Cc3cccc([O-])c3)cc2n1C(=O)[O-] (protonated)
[NH-]C(=O)c1cc2ccc(CC(=O)[N-]Cc3cccc([O-])c3)cc2n1C(=O)[O-] (3D coordinates assigned)
[NH-]C(=O)c1cc2ccc(CC(=O)[N-]Cc3cccc([O-])c3)cc2n1C(=O)[O-] (optimized conformer: 74.7583229442883 kcal/mol)

>  <smiles>  (55) 
NC(=O)c1cc2ccc(CC(=O)NCc3cccc(O)c3)cc2n1C(=O)O

>  <score_type>  (55) 
oracle

>  <origin>  (55) 
adg

>  <m_score__min__energy>  (55) 
-8.1199999999999992

>  <m_primary>  (55) 
energy

$$$$
55:0
     RDKit          3D

 42 43  0  0  0  0  0  0  0  0999 V2000
  139.4160  155.3020  132.9890 C   0  0  0  0  0  0  0  0  0  0  0  0
  140.8020  155.0890  133.1350 O   0  0  0  0  0  0  0  0  0  0  0  0
  141.1170  153.7170  132.9750 C   0  0  0  0  0  0  0  0  0  0  0  0
  142.6460  153.4890  132.9930 C   0  0  0  0  0  0  0  0  0  0  0  0
  143.4760  154.7090  133.1670 N   0  0  1  0  0  0  0  0  0  0  0  0
  143.8810  154.9530  134.5620 C   0  0  0  0  0  0  0  0  0  0  0  0
  144.6240  154.7280  132.2760 C   0  0  0  0  0  0  0  0  0  0  0  0
  144.4810  154.5650  131.0720 O   0  0  0  0  0  0  0  0  0  0  0  0
  146.0120  154.9470  132.8190 C   0  0  0  0  0  0  0  0  0  0  0  0
  146.3010  156.4180  132.9270 C   0  0  0  0  0  0  0  0  0  0  0  0
  147.6180  156.9050  132.7250 C   0  0  0  0  0  0  0  0  0  0  0  0
  147.9030  158.2730  132.8640 C   0  0  0  0  0  0  0  0  0  0  0  0
  146.8610  159.1240  133.2180 C   0  0  0  0  0  0  0  0  0  0  0  0
  146.8580  160.4880  133.4050 C   0  0  0  0  0  0  0  0  0  0  0  0
  145.5470  160.8100  133.7490 C   0  0  0  0  0  0  0  0  0  0  0  0
  145.1180  162.1730  134.1260 C   0  0  0  0  0  0  0  0  0  0  0  0
  145.9300  162.9570  134.9970 N   0  0  0  0  0  0  0  0  0  0  0  0
  144.0220  162.6410  133.7160 O   0  0  0  0  0  0  0  0  0  0  0  0
  144.7670  159.6920  133.7670 N   0  0  0  0  0  0  0  0  0  0  0  0
  143.3520  159.6090  134.0070 C   0  0  0  0  0  0  0  0  0  0  0  0
  142.8890  158.7370  134.7890 O   0  0  0  0  0  0  0  0  0  0  0  0
  142.4790  160.4720  133.3570 O   0  0  0  0  0  0  0  0  0  0  0  0
  145.5880  158.6670  133.4420 C   0  0  0  0  0  0  0  0  0  0  0  0
  145.2700  157.3130  133.2910 C   0  0  0  0  0  0  0  0  0  0  0  0
  138.9494  155.3737  133.9825 H   0  0  0  0  0  0  0  0  0  0  0  0
  139.2450  156.2370  132.4353 H   0  0  0  0  0  0  0  0  0  0  0  0
  138.9722  154.4615  132.4353 H   0  0  0  0  0  0  0  0  0  0  0  0
  140.6593  153.1456  133.7960 H   0  0  0  0  0  0  0  0  0  0  0  0
  140.7259  153.3807  132.0034 H   0  0  0  0  0  0  0  0  0  0  0  0
  142.8759  152.8026  133.8212 H   0  0  0  0  0  0  0  0  0  0  0  0
  142.9020  153.0905  132.0002 H   0  0  0  0  0  0  0  0  0  0  0  0
  142.8580  155.5140  132.9040 H   0  0  0  0  0  0  0  0  0  0  0  0
  143.1405  154.5069  135.2422 H   0  0  0  0  0  0  0  0  0  0  0  0
  144.8660  154.4979  134.7428 H   0  0  0  0  0  0  0  0  0  0  0  0
  143.9390  156.0365  134.7428 H   0  0  0  0  0  0  0  0  0  0  0  0
  146.0890  154.4875  133.8154 H   0  0  0  0  0  0  0  0  0  0  0  0
  146.7413  154.4871  132.1359 H   0  0  0  0  0  0  0  0  0  0  0  0
  148.4230  156.2049  132.4571 H   0  0  0  0  0  0  0  0  0  0  0  0
  148.9192  158.6599  132.6980 H   0  0  0  0  0  0  0  0  0  0  0  0
  147.7096  161.1770  133.3042 H   0  0  0  0  0  0  0  0  0  0  0  0
  146.9620  163.0220  134.8540 H   0  0  0  0  0  0  0  0  0  0  0  0
  144.2427  156.9540  133.4517 H   0  0  0  0  0  0  0  0  0  0  0  0
  1  2  1  0
  2  3  1  0
  3  4  1  0
  4  5  1  0
  5  6  1  0
  5  7  1  0
  7  8  2  0
  7  9  1  0
  9 10  1  0
 10 11  2  0
 11 12  1  0
 12 13  2  0
 13 14  1  0
 14 15  2  0
 15 16  1  0
 16 17  1  0
 16 18  2  0
 15 19  1  0
 19 20  1  0
 20 21  2  0
 20 22  1  0
 19 23  1  0
 23 24  2  0
 24 10  1  0
 23 13  1  0
  1 25  1  0
  1 26  1  0
  1 27  1  0
  3 28  1  0
  3 29  1  0
  4 30  1  0
  4 31  1  0
  5 32  1  6
  6 33  1  0
  6 34  1  0
  6 35  1  0
  9 36  1  0
  9 37  1  0
 11 38  1  0
 12 39  1  0
 14 40  1  0
 17 41  1  0
 24 42  1  0
M  CHG  3   5   1  17  -1  22  -1
M  END
>  <UniqueID>  (56) 
56

>  <SMILES>  (56) 
COCC[N@@H+](C)C(=O)Cc1ccc2cc(C([NH-])=O)n(C(=O)[O-])c2c1

>  <Energy>  (56) 
85.27759437961642

>  <Genealogy>  (56) 
COCC[NH+](C)C(=O)Cc1ccc2cc(C([NH-])=O)n(C(=O)[O-])c2c1 (protonated)
COCC[N@@H+](C)C(=O)Cc1ccc2cc(C([NH-])=O)n(C(=O)[O-])c2c1 (chirality)
COCC[N@@H+](C)C(=O)Cc1ccc2cc(C([NH-])=O)n(C(=O)[O-])c2c1 (3D coordinates assigned)
COCC[N@@H+](C)C(=O)Cc1ccc2cc(C([NH-])=O)n(C(=O)[O-])c2c1 (optimized conformer: 85.27759437961642 kcal/mol)

>  <smiles>  (56) 
COCCN(C)C(=O)Cc1ccc2cc(C(N)=O)n(C(=O)O)c2c1

>  <score_type>  (56) 
oracle

>  <origin>  (56) 
adg

>  <m_score__min__energy>  (56) 
-6.3399999999999999

>  <m_primary>  (56) 
energy

$$$$
56:0
     RDKit          3D

 52 54  0  0  0  0  0  0  0  0999 V2000
  148.0610  159.7630  131.8520 C   0  0  0  0  0  0  0  0  0  0  0  0
  147.5050  160.0290  133.0360 C   0  0  0  0  0  0  0  0  0  0  0  0
  146.1060  159.5950  133.3730 C   0  0  0  0  0  0  0  0  0  0  0  0
  146.1120  158.2530  133.8550 O   0  0  0  0  0  0  0  0  0  0  0  0
  145.3190  157.2370  133.3100 C   0  0  0  0  0  0  0  0  0  0  0  0
  144.1030  157.4490  133.0490 O   0  0  0  0  0  0  0  0  0  0  0  0
  145.8870  155.9400  133.0730 N   0  0  0  0  0  0  0  0  0  0  0  0
  147.1990  155.5830  133.1600 C   0  0  0  0  0  0  0  0  0  0  0  0
  148.3320  156.5190  133.3210 C   0  0  0  0  0  0  0  0  0  0  0  0
  148.4180  157.3770  134.4610 N   0  0  0  0  0  0  0  0  0  0  0  0
  149.2540  156.5480  132.4620 O   0  0  0  0  0  0  0  0  0  0  0  0
  147.3390  154.2040  133.0080 C   0  0  0  0  0  0  0  0  0  0  0  0
  146.0610  153.7240  132.8320 C   0  0  0  0  0  0  0  0  0  0  0  0
  145.6080  152.4160  132.6900 C   0  0  0  0  0  0  0  0  0  0  0  0
  144.2220  152.2040  132.6150 C   0  0  0  0  0  0  0  0  0  0  0  0
  143.3160  153.2910  132.6940 C   0  0  0  0  0  0  0  0  0  0  0  0
  141.8280  153.0310  132.6750 C   0  0  0  0  0  0  0  0  0  0  0  0
  141.4510  151.8370  133.5130 C   0  0  0  0  0  0  0  0  0  0  0  0
  141.9210  151.7340  134.6780 O   0  0  0  0  0  0  0  0  0  0  0  0
  140.6040  150.7960  132.9920 N   0  0  0  0  0  0  0  0  0  0  0  0
  140.8580  149.3980  133.3460 C   0  0  0  0  0  0  0  0  0  0  0  0
  140.8540  148.5400  132.0720 C   0  0  0  0  0  0  0  0  0  0  0  0
  139.7180  148.8260  131.1520 N   0  0  0  0  0  0  0  0  0  0  0  0
  140.1880  149.1460  129.7930 C   0  0  0  0  0  0  0  0  0  0  0  0
  138.7580  149.8380  131.6490 C   0  0  0  0  0  0  0  0  0  0  0  0
  139.4620  151.1180  132.1270 C   0  0  0  0  0  0  0  0  0  0  0  0
  143.8190  154.6100  132.7920 C   0  0  0  0  0  0  0  0  0  0  0  0
  145.2040  154.7920  132.8690 C   0  0  0  0  0  0  0  0  0  0  0  0
  149.0876  160.0959  131.6392 H   0  0  0  0  0  0  0  0  0  0  0  0
  147.4926  159.2109  131.0891 H   0  0  0  0  0  0  0  0  0  0  0  0
  148.0879  160.5821  133.7872 H   0  0  0  0  0  0  0  0  0  0  0  0
  145.6962  160.2584  134.1489 H   0  0  0  0  0  0  0  0  0  0  0  0
  145.4841  159.6495  132.4673 H   0  0  0  0  0  0  0  0  0  0  0  0
  149.2420  158.0060  134.5820 H   0  0  0  0  0  0  0  0  0  0  0  0
  147.6480  157.4250  135.1630 H   0  0  0  0  0  0  0  0  0  0  0  0
  148.2728  153.6229  133.0251 H   0  0  0  0  0  0  0  0  0  0  0  0
  146.3140  151.5740  132.6381 H   0  0  0  0  0  0  0  0  0  0  0  0
  143.8346  151.1817  132.4934 H   0  0  0  0  0  0  0  0  0  0  0  0
  141.3079  153.9177  133.0665 H   0  0  0  0  0  0  0  0  0  0  0  0
  141.5336  152.8223  131.6359 H   0  0  0  0  0  0  0  0  0  0  0  0
  141.8374  149.3167  133.8401 H   0  0  0  0  0  0  0  0  0  0  0  0
  140.0726  149.0437  134.0299 H   0  0  0  0  0  0  0  0  0  0  0  0
  141.7931  148.7227  131.5291 H   0  0  0  0  0  0  0  0  0  0  0  0
  140.7471  147.4935  132.3937 H   0  0  0  0  0  0  0  0  0  0  0  0
  141.0958  149.7641  129.8550 H   0  0  0  0  0  0  0  0  0  0  0  0
  140.4150  148.2140  129.2546 H   0  0  0  0  0  0  0  0  0  0  0  0
  139.4041  149.6988  129.2546 H   0  0  0  0  0  0  0  0  0  0  0  0
  138.0638  150.0976  130.8361 H   0  0  0  0  0  0  0  0  0  0  0  0
  138.2237  149.4048  132.5074 H   0  0  0  0  0  0  0  0  0  0  0  0
  139.8202  151.6802  131.2520 H   0  0  0  0  0  0  0  0  0  0  0  0
  138.7437  151.7201  132.7028 H   0  0  0  0  0  0  0  0  0  0  0  0
  143.1366  155.4726  132.8073 H   0  0  0  0  0  0  0  0  0  0  0  0
  1  2  2  0
  2  3  1  0
  3  4  1  0
  4  5  1  0
  5  6  2  0
  5  7  1  0
  7  8  1  0
  8  9  1  0
  9 10  1  0
  9 11  2  0
  8 12  2  0
 12 13  1  0
 13 14  2  0
 14 15  1  0
 15 16  2  0
 16 17  1  0
 17 18  1  0
 18 19  2  0
 18 20  1  0
 20 21  1  0
 21 22  1  0
 22 23  1  0
 23 24  1  0
 23 25  1  0
 25 26  1  0
 16 27  1  0
 27 28  2  0
 28  7  1  0
 28 13  1  0
 26 20  1  0
  1 29  1  0
  1 30  1  0
  2 31  1  0
  3 32  1  0
  3 33  1  0
 10 34  1  0
 10 35  1  0
 12 36  1  0
 14 37  1  0
 15 38  1  0
 17 39  1  0
 17 40  1  0
 21 41  1  0
 21 42  1  0
 22 43  1  0
 22 44  1  0
 24 45  1  0
 24 46  1  0
 24 47  1  0
 25 48  1  0
 25 49  1  0
 26 50  1  0
 26 51  1  0
 27 52  1  0
M  END
>  <UniqueID>  (57) 
57

>  <SMILES>  (57) 
C=CCOC(=O)n1c(C(N)=O)cc2ccc(CC(=O)N3CCN(C)CC3)cc21

>  <Energy>  (57) 
91.64741526137

>  <Genealogy>  (57) 
C=CCOC(=O)n1c(C(N)=O)cc2ccc(CC(=O)N3CCN(C)CC3)cc21 (3D coordinates assigned)
C=CCOC(=O)n1c(C(N)=O)cc2ccc(CC(=O)N3CCN(C)CC3)cc21 (nonaromatic ring conformer: 91.64741526137 kcal/mol)

>  <smiles>  (57) 
C=CCOC(=O)n1c(C(N)=O)cc2ccc(CC(=O)N3CCN(C)CC3)cc21

>  <score_type>  (57) 
oracle

>  <origin>  (57) 
adg

>  <m_score__min__energy>  (57) 
-8.6699999999999999

>  <m_primary>  (57) 
energy

$$$$
57:0
     RDKit          3D

 41 42  0  0  0  0  0  0  0  0999 V2000
  138.9620  159.7350  131.0760 C   0  0  0  0  0  0  0  0  0  0  0  0
  139.2190  159.6550  132.4720 O   0  0  0  0  0  0  0  0  0  0  0  0
  140.5080  159.7360  133.0050 C   0  0  0  0  0  0  0  0  0  0  0  0
  141.0000  160.8500  133.3360 O   0  0  0  0  0  0  0  0  0  0  0  0
  141.3280  158.4890  133.1470 C   0  0  0  0  0  0  0  0  0  0  0  0
  142.2340  158.5490  134.3830 C   0  0  0  0  0  0  0  0  0  0  0  0
  143.5990  159.0910  134.0470 C   0  0  0  0  0  0  0  0  0  0  0  0
  143.8430  160.4880  134.1000 C   0  0  0  0  0  0  0  0  0  0  0  0
  145.1030  161.0070  133.7570 C   0  0  0  0  0  0  0  0  0  0  0  0
  146.0900  160.1120  133.3560 C   0  0  0  0  0  0  0  0  0  0  0  0
  147.3910  160.3390  132.9650 C   0  0  0  0  0  0  0  0  0  0  0  0
  147.9100  159.0830  132.6560 C   0  0  0  0  0  0  0  0  0  0  0  0
  149.2560  158.8700  132.0870 C   0  0  0  0  0  0  0  0  0  0  0  0
  149.7470  157.5440  131.9000 N   0  0  0  0  0  0  0  0  0  0  0  0
  149.9930  159.8480  131.7940 O   0  0  0  0  0  0  0  0  0  0  0  0
  146.9710  158.1170  132.8620 N   0  0  0  0  0  0  0  0  0  0  0  0
  147.1120  156.6960  132.7080 C   0  0  0  0  0  0  0  0  0  0  0  0
  146.9810  156.1760  131.5670 O   0  0  0  0  0  0  0  0  0  0  0  0
  147.3310  155.8100  133.9030 C   0  0  0  0  0  0  0  0  0  0  0  0
  148.0100  154.4940  133.5120 C   0  0  0  0  0  0  0  0  0  0  0  0
  148.7950  154.6580  132.2910 N   0  0  0  0  0  0  0  0  0  0  0  0
  145.8630  158.7620  133.2800 C   0  0  0  0  0  0  0  0  0  0  0  0
  144.6240  158.2150  133.6270 C   0  0  0  0  0  0  0  0  0  0  0  0
  137.9234  160.0583  130.9123 H   0  0  0  0  0  0  0  0  0  0  0  0
  139.6488  160.4618  130.6178 H   0  0  0  0  0  0  0  0  0  0  0  0
  139.1149  158.7467  130.6178 H   0  0  0  0  0  0  0  0  0  0  0  0
  140.6525  157.6259  133.2407 H   0  0  0  0  0  0  0  0  0  0  0  0
  141.9660  158.3925  132.2561 H   0  0  0  0  0  0  0  0  0  0  0  0
  141.7670  159.2007  135.1361 H   0  0  0  0  0  0  0  0  0  0  0  0
  142.3564  157.5261  134.7687 H   0  0  0  0  0  0  0  0  0  0  0  0
  143.0388  161.1705  134.4123 H   0  0  0  0  0  0  0  0  0  0  0  0
  145.3029  162.0877  133.8041 H   0  0  0  0  0  0  0  0  0  0  0  0
  147.9106  161.3069  132.9085 H   0  0  0  0  0  0  0  0  0  0  0  0
  149.1030  156.7670  131.6320 H   0  0  0  0  0  0  0  0  0  0  0  0
  147.9677  156.3387  134.6276 H   0  0  0  0  0  0  0  0  0  0  0  0
  146.3499  155.5742  134.3410 H   0  0  0  0  0  0  0  0  0  0  0  0
  148.6750  154.1749  134.3281 H   0  0  0  0  0  0  0  0  0  0  0  0
  147.2331  153.7362  133.3325 H   0  0  0  0  0  0  0  0  0  0  0  0
  148.1960  154.3960  131.4760 H   0  0  0  0  0  0  0  0  0  0  0  0
  149.0050  155.6760  132.1830 H   0  0  0  0  0  0  0  0  0  0  0  0
  144.4519  157.1298  133.5742 H   0  0  0  0  0  0  0  0  0  0  0  0
  1  2  1  0
  2  3  1  0
  3  4  2  0
  3  5  1  0
  5  6  1  0
  6  7  1  0
  7  8  2  0
  8  9  1  0
  9 10  2  0
 10 11  1  0
 11 12  2  0
 12 13  1  0
 13 14  1  0
 13 15  2  0
 12 16  1  0
 16 17  1  0
 17 18  2  0
 17 19  1  0
 19 20  1  0
 20 21  1  0
 16 22  1  0
 22 23  2  0
 23  7  1  0
 22 10  1  0
  1 24  1  0
  1 25  1  0
  1 26  1  0
  5 27  1  0
  5 28  1  0
  6 29  1  0
  6 30  1  0
  8 31  1  0
  9 32  1  0
 11 33  1  0
 14 34  1  0
 19 35  1  0
 19 36  1  0
 20 37  1  0
 20 38  1  0
 21 39  1  0
 21 40  1  0
 23 41  1  0
M  CHG  1  14  -1
M  END
>  <UniqueID>  (58) 
58

>  <SMILES>  (58) 
COC(=O)CCc1ccc2cc(C([NH-])=O)n(C(=O)CCN)c2c1

>  <Energy>  (58) 
69.44892322709471

>  <Genealogy>  (58) 
COC(=O)CCc1ccc2cc(C([NH-])=O)n(C(=O)CCN)c2c1 (protonated)
COC(=O)CCc1ccc2cc(C([NH-])=O)n(C(=O)CCN)c2c1 (3D coordinates assigned)
COC(=O)CCc1ccc2cc(C([NH-])=O)n(C(=O)CCN)c2c1 (optimized conformer: 69.44892322709471 kcal/mol)

>  <smiles>  (58) 
COC(=O)CCc1ccc2cc(C(N)=O)n(C(=O)CCN)c2c1

>  <score_type>  (58) 
oracle

>  <origin>  (58) 
adg

>  <m_score__min__energy>  (58) 
-6.29

>  <m_primary>  (58) 
energy

$$$$
58:0
     RDKit          3D

 52 54  0  0  0  0  0  0  0  0999 V2000
  137.3220  160.0560  130.7340 C   0  0  0  0  0  0  0  0  0  0  0  0
  138.7540  159.5860  130.9890 C   0  0  0  0  0  0  0  0  0  0  0  0
  139.4880  160.4680  132.0050 C   0  0  0  0  0  0  0  0  0  0  0  0
  140.6860  159.7630  132.5210 N   0  0  0  0  0  0  0  0  0  0  0  0
  141.4090  160.5680  133.5330 C   0  0  0  0  0  0  0  0  0  0  0  0
  142.4600  159.7450  134.3070 C   0  0  0  0  0  0  0  0  0  0  0  0
  142.7630  158.4880  133.6110 N   0  0  0  0  0  0  0  0  0  0  0  0
  144.1260  158.0550  133.4310 C   0  0  0  0  0  0  0  0  0  0  0  0
  145.1450  159.0020  133.1560 C   0  0  0  0  0  0  0  0  0  0  0  0
  146.4770  158.5920  132.9740 C   0  0  0  0  0  0  0  0  0  0  0  0
  146.7590  157.2330  133.0600 C   0  0  0  0  0  0  0  0  0  0  0  0
  147.9580  156.5680  132.9450 C   0  0  0  0  0  0  0  0  0  0  0  0
  147.6520  155.2200  133.1200 C   0  0  0  0  0  0  0  0  0  0  0  0
  148.6480  154.1360  132.9860 C   0  0  0  0  0  0  0  0  0  0  0  0
  148.4800  152.9250  133.7210 N   0  0  0  0  0  0  0  0  0  0  0  0
  149.6630  154.2780  132.2550 O   0  0  0  0  0  0  0  0  0  0  0  0
  146.3160  155.0590  133.3430 N   0  0  0  0  0  0  0  0  0  0  0  0
  145.6090  153.8400  133.6200 C   0  0  0  0  0  0  0  0  0  0  0  0
  145.0050  153.2370  132.6920 O   0  0  0  0  0  0  0  0  0  0  0  0
  145.6200  153.3130  134.9160 O   0  0  0  0  0  0  0  0  0  0  0  0
  145.6240  154.1170  136.0940 C   0  0  0  0  0  0  0  0  0  0  0  0
  147.0050  154.1090  136.7450 C   0  0  0  0  0  0  0  0  0  0  0  0
  147.7220  152.9910  136.3040 O   0  0  0  0  0  0  0  0  0  0  0  0
  145.7830  156.2990  133.2990 C   0  0  0  0  0  0  0  0  0  0  0  0
  144.4520  156.6800  133.5030 C   0  0  0  0  0  0  0  0  0  0  0  0
  141.6530  157.6190  133.1950 C   0  0  0  0  0  0  0  0  0  0  0  0
  140.3590  158.4250  133.0470 C   0  0  0  0  0  0  0  0  0  0  0  0
  136.8141  160.2227  131.6954 H   0  0  0  0  0  0  0  0  0  0  0  0
  137.3408  160.9951  130.1615 H   0  0  0  0  0  0  0  0  0  0  0  0
  136.7806  159.2884  130.1615 H   0  0  0  0  0  0  0  0  0  0  0  0
  138.7242  158.5555  131.3727 H   0  0  0  0  0  0  0  0  0  0  0  0
  139.3008  159.6467  130.0365 H   0  0  0  0  0  0  0  0  0  0  0  0
  139.7986  161.4036  131.5170 H   0  0  0  0  0  0  0  0  0  0  0  0
  138.8118  160.6896  132.8439 H   0  0  0  0  0  0  0  0  0  0  0  0
  141.9182  161.3993  133.0234 H   0  0  0  0  0  0  0  0  0  0  0  0
  140.6682  160.9304  134.2610 H   0  0  0  0  0  0  0  0  0  0  0  0
  143.3829  160.3364  134.3991 H   0  0  0  0  0  0  0  0  0  0  0  0
  142.0541  159.5055  135.3009 H   0  0  0  0  0  0  0  0  0  0  0  0
  144.8901  160.0697  133.0843 H   0  0  0  0  0  0  0  0  0  0  0  0
  147.2723  159.3239  132.7697 H   0  0  0  0  0  0  0  0  0  0  0  0
  148.9484  157.0074  132.7551 H   0  0  0  0  0  0  0  0  0  0  0  0
  147.5560  152.6740  134.1380 H   0  0  0  0  0  0  0  0  0  0  0  0
  145.3558  155.1500  135.8276 H   0  0  0  0  0  0  0  0  0  0  0  0
  144.8936  153.7061  136.8065 H   0  0  0  0  0  0  0  0  0  0  0  0
  147.5468  155.0251  136.4670 H   0  0  0  0  0  0  0  0  0  0  0  0
  146.8947  154.0659  137.8386 H   0  0  0  0  0  0  0  0  0  0  0  0
  147.7180  153.0350  135.3120 H   0  0  0  0  0  0  0  0  0  0  0  0
  143.6774  155.9282  133.7144 H   0  0  0  0  0  0  0  0  0  0  0  0
  141.9010  157.1541  132.2294 H   0  0  0  0  0  0  0  0  0  0  0  0
  141.5020  156.8467  133.9636 H   0  0  0  0  0  0  0  0  0  0  0  0
  139.6811  157.9101  132.3503 H   0  0  0  0  0  0  0  0  0  0  0  0
  139.8657  158.5201  134.0256 H   0  0  0  0  0  0  0  0  0  0  0  0
  1  2  1  0
  2  3  1  0
  3  4  1  0
  4  5  1  0
  5  6  1  0
  6  7  1  0
  7  8  1  0
  8  9  2  0
  9 10  1  0
 10 11  2  0
 11 12  1  0
 12 13  2  0
 13 14  1  0
 14 15  1  0
 14 16  2  0
 13 17  1  0
 17 18  1  0
 18 19  2  0
 18 20  1  0
 20 21  1  0
 21 22  1  0
 22 23  1  0
 17 24  1  0
 24 25  2  0
  7 26  1  0
 26 27  1  0
 27  4  1  0
 25  8  1  0
 24 11  1  0
  1 28  1  0
  1 29  1  0
  1 30  1  0
  2 31  1  0
  2 32  1  0
  3 33  1  0
  3 34  1  0
  5 35  1  0
  5 36  1  0
  6 37  1  0
  6 38  1  0
  9 39  1  0
 10 40  1  0
 12 41  1  0
 15 42  1  0
 21 43  1  0
 21 44  1  0
 22 45  1  0
 22 46  1  0
 23 47  1  0
 25 48  1  0
 26 49  1  0
 26 50  1  0
 27 51  1  0
 27 52  1  0
M  CHG  1  15  -1
M  END
>  <UniqueID>  (59) 
59

>  <SMILES>  (59) 
CCCN1CCN(c2ccc3cc(C([NH-])=O)n(C(=O)OCCO)c3c2)CC1

>  <Energy>  (59) 
94.9496074856736

>  <Genealogy>  (59) 
CCCN1CCN(c2ccc3cc(C([NH-])=O)n(C(=O)OCCO)c3c2)CC1 (protonated)
CCCN1CCN(c2ccc3cc(C([NH-])=O)n(C(=O)OCCO)c3c2)CC1 (3D coordinates assigned)
CCCN1CCN(c2ccc3cc(C([NH-])=O)n(C(=O)OCCO)c3c2)CC1 (nonaromatic ring conformer: 94.9496074856736 kcal/mol)

>  <smiles>  (59) 
CCCN1CCN(c2ccc3cc(C(N)=O)n(C(=O)OCCO)c3c2)CC1

>  <score_type>  (59) 
oracle

>  <origin>  (59) 
adg

>  <m_score__min__energy>  (59) 
-7.4299999999999997

>  <m_primary>  (59) 
energy

$$$$
59:0
     RDKit          3D

 40 41  0  0  0  0  0  0  0  0999 V2000
  150.2690  160.1160  129.4360 C   0  0  0  0  0  0  0  0  0  0  0  0
  149.4410  160.8050  130.4320 N   0  0  0  0  0  0  0  0  0  0  0  0
  149.2640  162.2590  130.3540 C   0  0  0  0  0  0  0  0  0  0  0  0
  148.8120  160.0850  131.5160 C   0  0  0  0  0  0  0  0  0  0  0  0
  148.2620  160.7280  132.4530 O   0  0  0  0  0  0  0  0  0  0  0  0
  148.7410  158.5770  131.5570 C   0  0  0  0  0  0  0  0  0  0  0  0
  148.7850  158.0490  132.9980 C   0  0  0  0  0  0  0  0  0  0  0  0
  148.0810  156.6940  133.1430 C   0  0  0  0  0  0  0  0  0  0  0  0
  146.6000  156.8860  133.3260 C   0  0  0  0  0  0  0  0  0  0  0  0
  145.7340  155.7640  133.3500 C   0  0  0  0  0  0  0  0  0  0  0  0
  144.3530  155.9300  133.5410 C   0  0  0  0  0  0  0  0  0  0  0  0
  143.8700  157.2230  133.7220 C   0  0  0  0  0  0  0  0  0  0  0  0
  142.5820  157.6690  133.9050 C   0  0  0  0  0  0  0  0  0  0  0  0
  142.6830  159.0540  134.0270 C   0  0  0  0  0  0  0  0  0  0  0  0
  141.5290  159.9270  134.3220 C   0  0  0  0  0  0  0  0  0  0  0  0
  141.0520  160.8650  133.3610 N   0  0  0  0  0  0  0  0  0  0  0  0
  140.9850  159.8800  135.4580 O   0  0  0  0  0  0  0  0  0  0  0  0
  143.9830  159.4500  133.9160 N   0  0  0  0  0  0  0  0  0  0  0  0
  144.4990  160.7910  133.9010 C   0  0  0  0  0  0  0  0  0  0  0  0
  143.7290  161.7660  133.6940 O   0  0  0  0  0  0  0  0  0  0  0  0
  145.8550  161.0230  134.0920 O   0  0  0  0  0  0  0  0  0  0  0  0
  144.6980  158.3180  133.7320 C   0  0  0  0  0  0  0  0  0  0  0  0
  146.0760  158.1820  133.5250 C   0  0  0  0  0  0  0  0  0  0  0  0
  151.0172  159.4934  129.9485 H   0  0  0  0  0  0  0  0  0  0  0  0
  149.6309  159.4786  128.8063 H   0  0  0  0  0  0  0  0  0  0  0  0
  150.7798  160.8594  128.8063 H   0  0  0  0  0  0  0  0  0  0  0  0
  149.2131  162.6772  131.3701 H   0  0  0  0  0  0  0  0  0  0  0  0
  150.1147  162.7036  129.8167 H   0  0  0  0  0  0  0  0  0  0  0  0
  148.3315  162.4866  129.8167 H   0  0  0  0  0  0  0  0  0  0  0  0
  147.8022  158.2507  131.0856 H   0  0  0  0  0  0  0  0  0  0  0  0
  149.6114  158.1764  131.0167 H   0  0  0  0  0  0  0  0  0  0  0  0
  149.8363  157.9357  133.3013 H   0  0  0  0  0  0  0  0  0  0  0  0
  148.2581  158.7723  133.6377 H   0  0  0  0  0  0  0  0  0  0  0  0
  148.2591  156.0949  132.2378 H   0  0  0  0  0  0  0  0  0  0  0  0
  148.4842  156.1765  134.0260 H   0  0  0  0  0  0  0  0  0  0  0  0
  146.1480  154.7535  133.2177 H   0  0  0  0  0  0  0  0  0  0  0  0
  143.6736  155.0649  133.5474 H   0  0  0  0  0  0  0  0  0  0  0  0
  141.6660  157.0614  133.9464 H   0  0  0  0  0  0  0  0  0  0  0  0
  141.6560  161.6480  133.0290 H   0  0  0  0  0  0  0  0  0  0  0  0
  146.7343  159.0632  133.5176 H   0  0  0  0  0  0  0  0  0  0  0  0
  1  2  1  0
  2  3  1  0
  2  4  1  0
  4  5  2  0
  4  6  1  0
  6  7  1  0
  7  8  1  0
  8  9  1  0
  9 10  2  0
 10 11  1  0
 11 12  2  0
 12 13  1  0
 13 14  2  0
 14 15  1  0
 15 16  1  0
 15 17  2  0
 14 18  1  0
 18 19  1  0
 19 20  2  0
 19 21  1  0
 18 22  1  0
 22 23  2  0
 23  9  1  0
 22 12  1  0
  1 24  1  0
  1 25  1  0
  1 26  1  0
  3 27  1  0
  3 28  1  0
  3 29  1  0
  6 30  1  0
  6 31  1  0
  7 32  1  0
  7 33  1  0
  8 34  1  0
  8 35  1  0
 10 36  1  0
 11 37  1  0
 13 38  1  0
 16 39  1  0
 23 40  1  0
M  CHG  2  16  -1  21  -1
M  END
>  <UniqueID>  (60) 
60

>  <SMILES>  (60) 
CN(C)C(=O)CCCc1ccc2cc(C([NH-])=O)n(C(=O)[O-])c2c1

>  <Energy>  (60) 
72.66845372130186

>  <Genealogy>  (60) 
CN(C)C(=O)CCCc1ccc2cc(C([NH-])=O)n(C(=O)[O-])c2c1 (protonated)
CN(C)C(=O)CCCc1ccc2cc(C([NH-])=O)n(C(=O)[O-])c2c1 (3D coordinates assigned)
CN(C)C(=O)CCCc1ccc2cc(C([NH-])=O)n(C(=O)[O-])c2c1 (optimized conformer: 72.66845372130186 kcal/mol)

>  <smiles>  (60) 
CN(C)C(=O)CCCc1ccc2cc(C(N)=O)n(C(=O)O)c2c1

>  <score_type>  (60) 
oracle

>  <origin>  (60) 
adg

>  <m_score__min__energy>  (60) 
-7.0899999999999999

>  <m_primary>  (60) 
energy

$$$$
60:0
     RDKit          3D

 73 75  0  0  0  0  0  0  0  0999 V2000
  139.1070  146.6110  129.6810 C   0  0  0  0  0  0  0  0  0  0  0  0
  139.8360  147.2670  130.7120 O   0  0  0  0  0  0  0  0  0  0  0  0
  140.1040  148.6390  130.6880 C   0  0  0  0  0  0  0  0  0  0  0  0
  140.5360  149.1860  129.6360 O   0  0  0  0  0  0  0  0  0  0  0  0
  139.9190  149.4480  131.9420 C   0  0  2  0  0  0  0  0  0  0  0  0
  138.6850  150.3570  131.8470 C   0  0  0  0  0  0  0  0  0  0  0  0
  141.1820  150.2290  132.2530 C   0  0  0  0  0  0  0  0  0  0  0  0
  142.4650  149.6340  132.1120 C   0  0  0  0  0  0  0  0  0  0  0  0
  143.6300  150.3520  132.4230 C   0  0  0  0  0  0  0  0  0  0  0  0
  143.4890  151.6540  132.8930 C   0  0  0  0  0  0  0  0  0  0  0  0
  144.4490  152.5620  133.2740 C   0  0  0  0  0  0  0  0  0  0  0  0
  143.7450  153.6910  133.6870 C   0  0  0  0  0  0  0  0  0  0  0  0
  144.4040  154.8720  134.2820 C   0  0  0  0  0  0  0  0  0  0  0  0
  144.0700  155.3200  135.5940 N   0  0  0  0  0  0  0  0  0  0  0  0
  145.3160  155.4620  133.6450 O   0  0  0  0  0  0  0  0  0  0  0  0
  142.4000  153.4970  133.5500 N   0  0  0  0  0  0  0  0  0  0  0  0
  141.3420  154.4330  133.8250 C   0  0  0  0  0  0  0  0  0  0  0  0
  141.1990  154.9010  134.9890 O   0  0  0  0  0  0  0  0  0  0  0  0
  140.4820  154.8350  132.7990 O   0  0  0  0  0  0  0  0  0  0  0  0
  139.2180  155.4510  133.0360 C   0  0  0  0  0  0  0  0  0  0  0  0
  139.4150  156.8880  133.5270 C   0  0  0  0  0  0  0  0  0  0  0  0
  139.8070  157.8220  132.3540 C   0  0  0  0  0  0  0  0  0  0  0  0
  141.1400  158.4850  132.4480 N   0  0  0  0  0  0  0  0  0  0  0  0
  141.1400  159.7820  133.1540 C   0  0  0  0  0  0  0  0  0  0  0  0
  140.9540  159.6350  134.6630 C   0  0  0  0  0  0  0  0  0  0  0  0
  141.5920  158.4190  135.1850 N   0  0  0  0  0  0  0  0  0  0  0  0
  141.4050  158.0860  136.5750 C   0  0  0  0  0  0  0  0  0  0  0  0
  140.6320  158.7810  137.2870 O   0  0  0  0  0  0  0  0  0  0  0  0
  142.0860  156.9890  137.1270 O   0  0  0  0  0  0  0  0  0  0  0  0
  141.6740  156.2150  138.2640 C   0  0  0  0  0  0  0  0  0  0  0  0
  140.1580  155.9460  138.2140 C   0  0  0  0  0  0  0  0  0  0  0  0
  142.4220  154.8750  138.1940 C   0  0  0  0  0  0  0  0  0  0  0  0
  142.0580  156.9300  139.5750 C   0  0  0  0  0  0  0  0  0  0  0  0
  142.5830  157.6750  134.3930 C   0  0  0  0  0  0  0  0  0  0  0  0
  142.2540  157.6090  132.8810 C   0  0  0  0  0  0  0  0  0  0  0  0
  142.2620  152.2400  133.0660 C   0  0  0  0  0  0  0  0  0  0  0  0
  141.0830  151.5560  132.7350 C   0  0  0  0  0  0  0  0  0  0  0  0
  138.3606  145.9393  130.1301 H   0  0  0  0  0  0  0  0  0  0  0  0
  138.5977  147.3609  129.0579 H   0  0  0  0  0  0  0  0  0  0  0  0
  139.7992  146.0256  129.0579 H   0  0  0  0  0  0  0  0  0  0  0  0
  139.7349  148.7587  132.7792 H   0  0  0  0  0  0  0  0  0  0  0  0
  138.3387  150.6121  132.8594 H   0  0  0  0  0  0  0  0  0  0  0  0
  138.9488  151.2782  131.3068 H   0  0  0  0  0  0  0  0  0  0  0  0
  137.8835  149.8319  131.3068 H   0  0  0  0  0  0  0  0  0  0  0  0
  142.5459  148.5969  131.7543 H   0  0  0  0  0  0  0  0  0  0  0  0
  144.6247  149.8991  132.2989 H   0  0  0  0  0  0  0  0  0  0  0  0
  145.5404  152.4258  133.2564 H   0  0  0  0  0  0  0  0  0  0  0  0
  143.0840  155.5520  135.8470 H   0  0  0  0  0  0  0  0  0  0  0  0
  138.6382  155.4625  132.1013 H   0  0  0  0  0  0  0  0  0  0  0  0
  138.6782  154.8792  133.8052 H   0  0  0  0  0  0  0  0  0  0  0  0
  138.4773  157.2473  133.9761 H   0  0  0  0  0  0  0  0  0  0  0  0
  140.2248  156.8982  134.2713 H   0  0  0  0  0  0  0  0  0  0  0  0
  139.7961  157.2227  131.4316 H   0  0  0  0  0  0  0  0  0  0  0  0
  139.0725  158.6406  132.3757 H   0  0  0  0  0  0  0  0  0  0  0  0
  141.3640  158.7410  131.4540 H   0  0  0  0  0  0  0  0  0  0  0  0
  142.1002  160.2846  132.9656 H   0  0  0  0  0  0  0  0  0  0  0  0
  140.2909  160.3672  132.7713 H   0  0  0  0  0  0  0  0  0  0  0  0
  141.3974  160.5096  135.1614 H   0  0  0  0  0  0  0  0  0  0  0  0
  139.8750  159.5635  134.8648 H   0  0  0  0  0  0  0  0  0  0  0  0
  139.7640  155.8761  139.2386 H   0  0  0  0  0  0  0  0  0  0  0  0
  139.6568  156.7692  137.6838 H   0  0  0  0  0  0  0  0  0  0  0  0
  139.9707  155.0006  137.6838 H   0  0  0  0  0  0  0  0  0  0  0  0
  142.6236  154.5139  139.2133 H   0  0  0  0  0  0  0  0  0  0  0  0
  141.8048  154.1380  137.6593 H   0  0  0  0  0  0  0  0  0  0  0  0
  143.3732  155.0136  137.6593 H   0  0  0  0  0  0  0  0  0  0  0  0
  141.7321  156.3232  140.4326 H   0  0  0  0  0  0  0  0  0  0  0  0
  143.1492  157.0635  139.6138 H   0  0  0  0  0  0  0  0  0  0  0  0
  141.5667  157.9134  139.6138 H   0  0  0  0  0  0  0  0  0  0  0  0
  143.5610  158.1637  134.5139 H   0  0  0  0  0  0  0  0  0  0  0  0
  142.5798  156.6404  134.7667 H   0  0  0  0  0  0  0  0  0  0  0  0
  143.1554  157.9002  132.3218 H   0  0  0  0  0  0  0  0  0  0  0  0
  141.9322  156.5767  132.6792 H   0  0  0  0  0  0  0  0  0  0  0  0
  140.1020  152.0408  132.8477 H   0  0  0  0  0  0  0  0  0  0  0  0
  1  2  1  0
  2  3  1  0
  3  4  2  0
  3  5  1  0
  5  6  1  0
  5  7  1  0
  7  8  2  0
  8  9  1  0
  9 10  2  0
 10 11  1  0
 11 12  2  0
 12 13  1  0
 13 14  1  0
 13 15  2  0
 12 16  1  0
 16 17  1  0
 17 18  2  0
 17 19  1  0
 19 20  1  0
 20 21  1  0
 21 22  1  0
 22 23  1  0
 23 24  1  0
 24 25  1  0
 25 26  1  0
 26 27  1  0
 27 28  2  0
 27 29  1  0
 29 30  1  0
 30 31  1  0
 30 32  1  0
 30 33  1  0
 26 34  1  0
 34 35  1  0
 16 36  1  0
 36 37  2  0
 37  7  1  0
 36 10  1  0
 35 23  1  0
  1 38  1  0
  1 39  1  0
  1 40  1  0
  5 41  1  1
  6 42  1  0
  6 43  1  0
  6 44  1  0
  8 45  1  0
  9 46  1  0
 11 47  1  0
 14 48  1  0
 20 49  1  0
 20 50  1  0
 21 51  1  0
 21 52  1  0
 22 53  1  0
 22 54  1  0
 23 55  1  0
 24 56  1  0
 24 57  1  0
 25 58  1  0
 25 59  1  0
 31 60  1  0
 31 61  1  0
 31 62  1  0
 32 63  1  0
 32 64  1  0
 32 65  1  0
 33 66  1  0
 33 67  1  0
 33 68  1  0
 34 69  1  0
 34 70  1  0
 35 71  1  0
 35 72  1  0
 37 73  1  0
M  CHG  2  14  -1  23   1
M  END
>  <UniqueID>  (61) 
61

>  <SMILES>  (61) 
COC(=O)[C@H](C)c1ccc2cc(C([NH-])=O)n(C(=O)OCCC[NH+]3CCN(C(=O)OC(C)(C)C)CC3)c2c1

>  <Energy>  (61) 
113.98058930709101

>  <Genealogy>  (61) 
COC(=O)C(C)c1ccc2cc(C([NH-])=O)n(C(=O)OCCC[NH+]3CCN(C(=O)OC(C)(C)C)CC3)c2c1 (protonated)
COC(=O)[C@H](C)c1ccc2cc(C([NH-])=O)n(C(=O)OCCC[NH+]3CCN(C(=O)OC(C)(C)C)CC3)c2c1 (chirality)
COC(=O)[C@H](C)c1ccc2cc(C([NH-])=O)n(C(=O)OCCC[NH+]3CCN(C(=O)OC(C)(C)C)CC3)c2c1 (3D coordinates assigned)
COC(=O)[C@H](C)c1ccc2cc(C([NH-])=O)n(C(=O)OCCC[NH+]3CCN(C(=O)OC(C)(C)C)CC3)c2c1 (nonaromatic ring conformer: 113.98058930709101 kcal/mol)

>  <smiles>  (61) 
COC(=O)C(C)c1ccc2cc(C(N)=O)n(C(=O)OCCCN3CCN(C(=O)OC(C)(C)C)CC3)c2c1

>  <score_type>  (61) 
oracle

>  <origin>  (61) 
adg

>  <m_score__min__energy>  (61) 
-8.3399999999999999

>  <m_primary>  (61) 
energy

$$$$
61:0
     RDKit          3D

 58 59  0  0  0  0  0  0  0  0999 V2000
  141.1670  155.9490  132.6600 H   0  0  0  0  0  0  0  0  0  0  0  0
  140.4090  156.5970  132.9740 N   0  0  0  0  0  0  0  0  0  0  0  0
  140.7020  157.9360  133.3720 C   0  0  0  0  0  0  0  0  0  0  0  0
  139.7610  158.6950  133.7250 O   0  0  0  0  0  0  0  0  0  0  0  0
  142.0960  158.4330  133.4010 C   0  0  0  0  0  0  0  0  0  0  0  0
  142.4340  159.7800  133.5470 C   0  0  0  0  0  0  0  0  0  0  0  0
  141.7467  160.6368  133.6057 H   0  0  0  0  0  0  0  0  0  0  0  0
  143.8100  159.8090  133.6020 C   0  0  0  0  0  0  0  0  0  0  0  0
  144.6830  160.8840  133.7410 C   0  0  0  0  0  0  0  0  0  0  0  0
  144.3048  161.9116  133.8460 H   0  0  0  0  0  0  0  0  0  0  0  0
  146.0630  160.6160  133.7430 C   0  0  0  0  0  0  0  0  0  0  0  0
  146.7762  161.4436  133.8713 H   0  0  0  0  0  0  0  0  0  0  0  0
  146.5480  159.2940  133.5820 C   0  0  0  0  0  0  0  0  0  0  0  0
  148.0480  159.0480  133.5650 C   0  0  2  0  0  0  0  0  0  0  0  0
  148.5434  159.9859  133.8565 H   0  0  0  0  0  0  0  0  0  0  0  0
  148.5560  158.7390  132.1640 C   0  0  0  0  0  0  0  0  0  0  0  0
  148.8630  157.5460  131.8640 O   0  0  0  0  0  0  0  0  0  0  0  0
  148.6490  159.7700  131.1520 N   0  0  0  0  0  0  0  0  0  0  0  0
  148.5390  161.1890  131.5030 C   0  0  0  0  0  0  0  0  0  0  0  0
  148.5307  161.2963  132.5977 H   0  0  0  0  0  0  0  0  0  0  0  0
  149.3973  161.7371  131.0873 H   0  0  0  0  0  0  0  0  0  0  0  0
  147.6064  161.5983  131.0873 H   0  0  0  0  0  0  0  0  0  0  0  0
  148.8860  159.3780  129.7570 C   0  0  0  0  0  0  0  0  0  0  0  0
  149.4550  158.4369  129.7322 H   0  0  0  0  0  0  0  0  0  0  0  0
  147.9217  159.2370  129.2469 H   0  0  0  0  0  0  0  0  0  0  0  0
  149.4589  160.1664  129.2469 H   0  0  0  0  0  0  0  0  0  0  0  0
  148.4770  158.0090  134.6310 C   0  0  0  0  0  0  0  0  0  0  0  0
  148.0485  158.3112  135.5980 H   0  0  0  0  0  0  0  0  0  0  0  0
  149.5769  157.9982  134.6340 H   0  0  0  0  0  0  0  0  0  0  0  0
  148.0350  156.6020  134.3400 C   0  0  0  0  0  0  0  0  0  0  0  0
  147.9245  156.2679  133.2978 H   0  0  0  0  0  0  0  0  0  0  0  0
  147.7830  155.7790  135.3120 N   0  0  0  0  0  0  0  0  0  0  0  0
  147.3820  154.4170  135.1290 C   0  0  0  0  0  0  0  0  0  0  0  0
  147.0470  153.7060  136.1150 O   0  0  0  0  0  0  0  0  0  0  0  0
  147.3720  153.8880  133.8340 O   0  0  0  0  0  0  0  0  0  0  0  0
  148.5500  153.6680  133.0650 C   0  0  0  0  0  0  0  0  0  0  0  0
  149.4149  154.0935  133.5950 H   0  0  0  0  0  0  0  0  0  0  0  0
  148.4351  154.1534  132.0846 H   0  0  0  0  0  0  0  0  0  0  0  0
  148.7680  152.1940  132.8610 C   0  0  0  0  0  0  0  0  0  0  0  0
  147.9109  151.5096  132.9443 H   0  0  0  0  0  0  0  0  0  0  0  0
  149.9760  151.6930  132.5810 C   0  0  0  0  0  0  0  0  0  0  0  0
  150.1024  150.6098  132.4374 H   0  0  0  0  0  0  0  0  0  0  0  0
  150.8432  152.3642  132.4943 H   0  0  0  0  0  0  0  0  0  0  0  0
  145.6250  158.2260  133.4550 C   0  0  0  0  0  0  0  0  0  0  0  0
  145.9762  157.1902  133.3378 H   0  0  0  0  0  0  0  0  0  0  0  0
  144.2600  158.5180  133.4820 C   0  0  0  0  0  0  0  0  0  0  0  0
  143.2220  157.6670  133.3620 N   0  0  0  0  0  0  0  0  0  0  0  0
  143.3200  156.2470  133.2100 C   0  0  0  0  0  0  0  0  0  0  0  0
  142.7760  155.4830  134.0550 O   0  0  0  0  0  0  0  0  0  0  0  0
  144.0130  155.7210  132.1150 O   0  0  0  0  0  0  0  0  0  0  0  0
  145.0310  154.7280  132.2260 C   0  0  0  0  0  0  0  0  0  0  0  0
  145.6634  154.7611  131.3266 H   0  0  0  0  0  0  0  0  0  0  0  0
  145.6251  154.9390  133.1274 H   0  0  0  0  0  0  0  0  0  0  0  0
  144.4380  153.3480  132.3590 C   0  0  0  0  0  0  0  0  0  0  0  0
  143.3487  153.2428  132.4698 H   0  0  0  0  0  0  0  0  0  0  0  0
  145.1980  152.2500  132.3460 C   0  0  0  0  0  0  0  0  0  0  0  0
  144.7330  151.2581  132.4453 H   0  0  0  0  0  0  0  0  0  0  0  0
  146.2890  152.3375  132.2360 H   0  0  0  0  0  0  0  0  0  0  0  0
  1  2  1  0
  2  3  1  0
  3  4  2  0
  3  5  1  0
  5  6  2  0
  6  7  1  0
  6  8  1  0
  8  9  2  0
  9 10  1  0
  9 11  1  0
 11 12  1  0
 11 13  2  0
 13 14  1  0
 14 15  1  1
 14 16  1  0
 16 17  2  0
 16 18  1  0
 18 19  1  0
 19 20  1  0
 19 21  1  0
 19 22  1  0
 18 23  1  0
 23 24  1  0
 23 25  1  0
 23 26  1  0
 14 27  1  0
 27 28  1  0
 27 29  1  0
 27 30  1  0
 30 31  1  0
 30 32  2  0
 32 33  1  0
 33 34  2  0
 33 35  1  0
 35 36  1  0
 36 37  1  0
 36 38  1  0
 36 39  1  0
 39 40  1  0
 39 41  2  0
 41 42  1  0
 41 43  1  0
 13 44  1  0
 44 45  1  0
 44 46  2  0
 46 47  1  0
 47 48  1  0
 48 49  2  0
 48 50  1  0
 50 51  1  0
 51 52  1  0
 51 53  1  0
 51 54  1  0
 54 55  1  0
 54 56  2  0
 56 57  1  0
 56 58  1  0
 47  5  1  0
 46  8  1  0
M  CHG  1   2  -1
M  END
>  <UniqueID>  (62) 
62

>  <SMILES>  (62) 
C=CCOC(=O)/N=C/C[C@@H](C(=O)N(C)C)c1ccc2cc(C([NH-])=O)n(C(=O)OCC=C)c2c1

>  <Energy>  (62) 
83.74429330398124

>  <Genealogy>  (62) 
C=CCOC(=O)/N=C/C[C@@H](C(=O)N(C)C)c1ccc2cc(C([NH-])=O)n(C(=O)OCC=C)c2c1 (protonated)
C=CCOC(=O)/N=C/C[C@@H](C(=O)N(C)C)c1ccc2cc(C([NH-])=O)n(C(=O)OCC=C)c2c1 (cis-trans isomerization)
C=CCOC(=O)/N=C/C[C@@H](C(=O)N(C)C)c1ccc2cc(C([NH-])=O)n(C(=O)OCC=C)c2c1 (3D coordinates assigned)
C=CCOC(=O)/N=C/C[C@@H](C(=O)N(C)C)c1ccc2cc(C([NH-])=O)n(C(=O)OCC=C)c2c1 (optimized conformer: 83.74429330398124 kcal/mol)

>  <smiles>  (62) 
C=CCOC(=O)/N=C/C[C@@H](C(=O)N(C)C)c1ccc2cc(C(N)=O)n(C(=O)OCC=C)c2c1

>  <score_type>  (62) 
oracle

>  <origin>  (62) 
adg

>  <m_score__min__energy>  (62) 
-8.1899999999999995

>  <m_primary>  (62) 
energy

$$$$
62:0
     RDKit          3D

 50 51  0  0  0  0  0  0  0  0999 V2000
  143.2821  152.8876  132.8094 H   0  0  0  0  0  0  0  0  0  0  0  0
  142.3120  153.2030  133.2210 C   0  0  0  0  0  0  0  0  0  0  0  0
  141.4100  152.2700  133.5570 C   0  0  0  0  0  0  0  0  0  0  0  0
  140.4408  152.5837  133.9720 H   0  0  0  0  0  0  0  0  0  0  0  0
  141.6940  150.8030  133.3790 C   0  0  0  0  0  0  0  0  0  0  0  0
  142.4794  150.6764  132.6193 H   0  0  0  0  0  0  0  0  0  0  0  0
  142.0251  150.3865  134.3418 H   0  0  0  0  0  0  0  0  0  0  0  0
  140.4760  150.0860  132.9430 N   0  0  0  0  0  0  0  0  0  0  0  0
  139.5750  150.9870  132.2010 C   0  0  0  0  0  0  0  0  0  0  0  0
  138.9819  151.5801  132.9127 H   0  0  0  0  0  0  0  0  0  0  0  0
  140.1705  151.6616  131.5684 H   0  0  0  0  0  0  0  0  0  0  0  0
  138.9004  150.3915  131.5684 H   0  0  0  0  0  0  0  0  0  0  0  0
  140.8390  148.9470  132.0890 C   0  0  0  0  0  0  0  0  0  0  0  0
  141.1127  148.0884  132.7198 H   0  0  0  0  0  0  0  0  0  0  0  0
  139.9823  148.6772  131.4539 H   0  0  0  0  0  0  0  0  0  0  0  0
  141.6938  149.2227  131.4539 H   0  0  0  0  0  0  0  0  0  0  0  0
  142.0300  154.6720  133.3930 C   0  0  0  0  0  0  0  0  0  0  0  0
  142.2172  155.1903  132.4410 H   0  0  0  0  0  0  0  0  0  0  0  0
  142.6889  155.0708  134.1783 H   0  0  0  0  0  0  0  0  0  0  0  0
  140.6730  154.8790  133.7810 O   0  0  0  0  0  0  0  0  0  0  0  0
  139.8890  155.9500  133.3300 C   0  0  0  0  0  0  0  0  0  0  0  0
  138.9820  155.7500  132.4740 O   0  0  0  0  0  0  0  0  0  0  0  0
  140.1170  157.2750  133.8510 N   0  0  0  0  0  0  0  0  0  0  0  0
  140.0430  158.4510  133.1610 C   0  0  0  0  0  0  0  0  0  0  0  0
  139.5710  158.6110  131.7750 C   0  0  0  0  0  0  0  0  0  0  0  0
  140.2210  159.3410  130.9780 O   0  0  0  0  0  0  0  0  0  0  0  0
  138.3620  157.9930  131.3340 N   0  0  0  0  0  0  0  0  0  0  0  0
  137.7360  157.5030  132.0070 H   0  0  0  0  0  0  0  0  0  0  0  0
  138.0630  158.0770  130.3390 H   0  0  0  0  0  0  0  0  0  0  0  0
  140.4020  159.5240  133.9680 C   0  0  0  0  0  0  0  0  0  0  0  0
  140.4557  160.5850  133.6826 H   0  0  0  0  0  0  0  0  0  0  0  0
  140.6750  158.9780  135.1960 C   0  0  0  0  0  0  0  0  0  0  0  0
  141.0610  159.6000  136.3800 C   0  0  0  0  0  0  0  0  0  0  0  0
  141.1934  160.6909  136.4303 H   0  0  0  0  0  0  0  0  0  0  0  0
  141.2760  158.7930  137.5070 C   0  0  0  0  0  0  0  0  0  0  0  0
  141.5755  159.2556  138.4590 H   0  0  0  0  0  0  0  0  0  0  0  0
  141.1110  157.3870  137.4310 C   0  0  0  0  0  0  0  0  0  0  0  0
  141.3750  156.5310  138.6420 C   0  0  0  0  0  0  0  0  0  0  0  0
  140.7353  156.8676  139.4712 H   0  0  0  0  0  0  0  0  0  0  0  0
  142.4344  156.6241  138.9230 H   0  0  0  0  0  0  0  0  0  0  0  0
  141.0750  155.0960  138.3370 C   0  0  0  0  0  0  0  0  0  0  0  0
  141.7880  154.4730  137.5040 O   0  0  0  0  0  0  0  0  0  0  0  0
  140.0120  154.4600  138.9820 O   0  0  0  0  0  0  0  0  0  0  0  0
  139.8410  154.4750  140.3970 C   0  0  0  0  0  0  0  0  0  0  0  0
  140.8226  154.3889  140.8859 H   0  0  0  0  0  0  0  0  0  0  0  0
  139.3627  155.4186  140.6986 H   0  0  0  0  0  0  0  0  0  0  0  0
  139.2057  153.6291  140.6986 H   0  0  0  0  0  0  0  0  0  0  0  0
  140.7430  156.7860  136.2090 C   0  0  0  0  0  0  0  0  0  0  0  0
  140.6464  155.6935  136.1244 H   0  0  0  0  0  0  0  0  0  0  0  0
  140.5030  157.6180  135.1030 C   0  0  0  0  0  0  0  0  0  0  0  0
  1  2  1  0
  2  3  2  0
  3  4  1  0
  3  5  1  0
  5  6  1  0
  5  7  1  0
  5  8  1  0
  8  9  1  0
  9 10  1  0
  9 11  1  0
  9 12  1  0
  8 13  1  0
 13 14  1  0
 13 15  1  0
 13 16  1  0
  2 17  1  0
 17 18  1  0
 17 19  1  0
 17 20  1  0
 20 21  1  0
 21 22  2  0
 21 23  1  0
 23 24  1  0
 24 25  1  0
 25 26  2  0
 25 27  1  0
 27 28  1  0
 27 29  1  0
 24 30  2  0
 30 31  1  0
 30 32  1  0
 32 33  2  0
 33 34  1  0
 33 35  1  0
 35 36  1  0
 35 37  2  0
 37 38  1  0
 38 39  1  0
 38 40  1  0
 38 41  1  0
 41 42  2  0
 41 43  1  0
 43 44  1  0
 44 45  1  0
 44 46  1  0
 44 47  1  0
 37 48  1  0
 48 49  1  0
 48 50  2  0
 50 23  1  0
 50 32  1  0
M  END
>  <UniqueID>  (63) 
63

>  <SMILES>  (63) 
COC(=O)Cc1ccc2cc(C(N)=O)n(C(=O)OC/C=C/CN(C)C)c2c1

>  <Energy>  (63) 
80.12403762479283

>  <Genealogy>  (63) 
COC(=O)Cc1ccc2cc(C(N)=O)n(C(=O)OC/C=C/CN(C)C)c2c1 (cis-trans isomerization)
COC(=O)Cc1ccc2cc(C(N)=O)n(C(=O)OC/C=C/CN(C)C)c2c1 (3D coordinates assigned)
COC(=O)Cc1ccc2cc(C(N)=O)n(C(=O)OC/C=C/CN(C)C)c2c1 (optimized conformer: 80.12403762479283 kcal/mol)

>  <smiles>  (63) 
COC(=O)Cc1ccc2cc(C(N)=O)n(C(=O)OC/C=C/CN(C)C)c2c1

>  <score_type>  (63) 
oracle

>  <origin>  (63) 
adg

>  <m_score__min__energy>  (63) 
-7.8600000000000003

>  <m_primary>  (63) 
energy

$$$$
63:0
     RDKit          3D

 43 45  0  0  0  0  0  0  0  0999 V2000
  143.3690  161.5400  133.7110 N   0  0  0  0  0  0  0  0  0  0  0  0
  144.7680  161.5540  133.9800 C   0  0  0  0  0  0  0  0  0  0  0  0
  145.3070  162.6170  134.3870 O   0  0  0  0  0  0  0  0  0  0  0  0
  145.6020  160.3580  133.7340 C   0  0  0  0  0  0  0  0  0  0  0  0
  146.9830  160.4110  133.5610 C   0  0  0  0  0  0  0  0  0  0  0  0
  147.3650  159.1230  133.2730 C   0  0  0  0  0  0  0  0  0  0  0  0
  148.6300  158.5990  133.0200 C   0  0  0  0  0  0  0  0  0  0  0  0
  148.7370  157.2180  132.7860 C   0  0  0  0  0  0  0  0  0  0  0  0
  147.5890  156.3870  132.8230 C   0  0  0  0  0  0  0  0  0  0  0  0
  147.7190  154.8990  132.5980 C   0  0  0  0  0  0  0  0  0  0  0  0
  148.2240  154.0990  133.8400 C   0  0  1  0  0  0  0  0  0  0  0  0
  147.4620  154.5740  135.0600 C   0  0  0  0  0  0  0  0  0  0  0  0
  147.6720  155.7150  135.5480 O   0  0  0  0  0  0  0  0  0  0  0  0
  146.5480  153.7280  135.6750 O   0  0  0  0  0  0  0  0  0  0  0  0
  148.1710  152.6080  133.6770 N   0  0  0  0  0  0  0  0  0  0  0  0
  149.2580  151.9380  134.4460 C   0  0  0  0  0  0  0  0  0  0  0  0
  149.5500  150.5300  133.8970 C   0  0  0  0  0  0  0  0  0  0  0  0
  149.9940  150.5180  132.5490 O   0  0  0  0  0  0  0  0  0  0  0  0
  149.5760  151.6540  131.8090 C   0  0  0  0  0  0  0  0  0  0  0  0
  148.1980  152.1890  132.2420 C   0  0  0  0  0  0  0  0  0  0  0  0
  146.3200  156.9590  133.0670 C   0  0  0  0  0  0  0  0  0  0  0  0
  146.2400  158.3390  133.2820 C   0  0  0  0  0  0  0  0  0  0  0  0
  145.1470  159.0820  133.5680 N   0  0  0  0  0  0  0  0  0  0  0  0
  143.8100  158.5900  133.7530 C   0  0  0  0  0  0  0  0  0  0  0  0
  143.2070  158.7810  134.8410 O   0  0  0  0  0  0  0  0  0  0  0  0
  143.1800  157.8760  132.7410 O   0  0  0  0  0  0  0  0  0  0  0  0
  142.7740  160.7320  134.0000 H   0  0  0  0  0  0  0  0  0  0  0  0
  147.6308  161.2966  133.6386 H   0  0  0  0  0  0  0  0  0  0  0  0
  149.5188  159.2469  133.0039 H   0  0  0  0  0  0  0  0  0  0  0  0
  149.7217  156.7769  132.5718 H   0  0  0  0  0  0  0  0  0  0  0  0
  146.7312  154.5066  132.3148 H   0  0  0  0  0  0  0  0  0  0  0  0
  148.4759  154.7662  131.8109 H   0  0  0  0  0  0  0  0  0  0  0  0
  149.2970  154.3075  133.9629 H   0  0  0  0  0  0  0  0  0  0  0  0
  147.2700  152.2670  134.0880 H   0  0  0  0  0  0  0  0  0  0  0  0
  150.1722  152.5457  134.3765 H   0  0  0  0  0  0  0  0  0  0  0  0
  148.9320  151.8405  135.4921 H   0  0  0  0  0  0  0  0  0  0  0  0
  150.3291  150.0694  134.5222 H   0  0  0  0  0  0  0  0  0  0  0  0
  148.6015  149.9737  133.9252 H   0  0  0  0  0  0  0  0  0  0  0  0
  150.3196  152.4530  131.9458 H   0  0  0  0  0  0  0  0  0  0  0  0
  149.4898  151.3443  130.7570 H   0  0  0  0  0  0  0  0  0  0  0  0
  147.9443  153.0573  131.6162 H   0  0  0  0  0  0  0  0  0  0  0  0
  147.4694  151.3742  132.1182 H   0  0  0  0  0  0  0  0  0  0  0  0
  145.4156  156.3333  133.0874 H   0  0  0  0  0  0  0  0  0  0  0  0
  1  2  1  0
  2  3  2  0
  2  4  1  0
  4  5  2  0
  5  6  1  0
  6  7  2  0
  7  8  1  0
  8  9  2  0
  9 10  1  0
 10 11  1  0
 11 12  1  0
 12 13  2  0
 12 14  1  0
 11 15  1  0
 15 16  1  0
 16 17  1  0
 17 18  1  0
 18 19  1  0
 19 20  1  0
  9 21  1  0
 21 22  2  0
 22 23  1  0
 23 24  1  0
 24 25  2  0
 24 26  1  0
 23  4  1  0
 22  6  1  0
 20 15  1  0
  1 27  1  0
  5 28  1  0
  7 29  1  0
  8 30  1  0
 10 31  1  0
 10 32  1  0
 11 33  1  1
 15 34  1  0
 16 35  1  0
 16 36  1  0
 17 37  1  0
 17 38  1  0
 19 39  1  0
 19 40  1  0
 20 41  1  0
 20 42  1  0
 21 43  1  0
M  CHG  4   1  -1  14  -1  15   1  26  -1
M  END
>  <UniqueID>  (64) 
64

>  <SMILES>  (64) 
[NH-]C(=O)c1cc2ccc(C[C@@H](C(=O)[O-])[NH+]3CCOCC3)cc2n1C(=O)[O-]

>  <Energy>  (64) 
104.21427324234375

>  <Genealogy>  (64) 
[NH-]C(=O)c1cc2ccc(C[C@@H](C(=O)[O-])[NH+]3CCOCC3)cc2n1C(=O)[O-] (protonated)
[NH-]C(=O)c1cc2ccc(C[C@@H](C(=O)[O-])[NH+]3CCOCC3)cc2n1C(=O)[O-] (3D coordinates assigned)
[NH-]C(=O)c1cc2ccc(C[C@@H](C(=O)[O-])[NH+]3CCOCC3)cc2n1C(=O)[O-] (nonaromatic ring conformer: 104.21427324234375 kcal/mol)

>  <smiles>  (64) 
NC(=O)c1cc2ccc(C[C@@H](C(=O)O)N3CCOCC3)cc2n1C(=O)O

>  <score_type>  (64) 
oracle

>  <origin>  (64) 
adg

>  <m_score__min__energy>  (64) 
-7.3899999999999997

>  <m_primary>  (64) 
energy

$$$$
64:0
     RDKit          3D

 29 30  0  0  0  0  0  0  0  0999 V2000
  149.4660  160.1600  129.7820 C   0  0  0  0  0  0  0  0  0  0  0  0
  149.4390  160.6370  131.0290 C   0  0  0  0  0  0  0  0  0  0  0  0
  149.5470  159.7320  132.2240 C   0  0  0  0  0  0  0  0  0  0  0  0
  148.1870  159.2520  132.6540 C   0  0  0  0  0  0  0  0  0  0  0  0
  147.8710  157.8720  132.5920 C   0  0  0  0  0  0  0  0  0  0  0  0
  146.5930  157.4140  132.9500 C   0  0  0  0  0  0  0  0  0  0  0  0
  145.6540  158.3540  133.3650 C   0  0  0  0  0  0  0  0  0  0  0  0
  144.3390  158.1870  133.7280 C   0  0  0  0  0  0  0  0  0  0  0  0
  143.8740  159.4650  134.0250 C   0  0  0  0  0  0  0  0  0  0  0  0
  142.5120  159.7360  134.5240 C   0  0  0  0  0  0  0  0  0  0  0  0
  141.6280  160.6100  133.8220 N   0  0  0  0  0  0  0  0  0  0  0  0
  142.1420  159.2350  135.6200 O   0  0  0  0  0  0  0  0  0  0  0  0
  144.8570  160.3910  133.8420 N   0  0  0  0  0  0  0  0  0  0  0  0
  144.7320  161.8210  133.9260 C   0  0  0  0  0  0  0  0  0  0  0  0
  145.6150  162.5070  134.5060 O   0  0  0  0  0  0  0  0  0  0  0  0
  143.6370  162.4630  133.3610 O   0  0  0  0  0  0  0  0  0  0  0  0
  145.9440  159.6930  133.4390 C   0  0  0  0  0  0  0  0  0  0  0  0
  147.2060  160.1790  133.0710 C   0  0  0  0  0  0  0  0  0  0  0  0
  149.3847  160.8484  128.9279 H   0  0  0  0  0  0  0  0  0  0  0  0
  149.5695  159.0787  129.6089 H   0  0  0  0  0  0  0  0  0  0  0  0
  149.3350  161.7208  131.1857 H   0  0  0  0  0  0  0  0  0  0  0  0
  150.1705  158.8639  131.9640 H   0  0  0  0  0  0  0  0  0  0  0  0
  150.0013  160.2945  133.0530 H   0  0  0  0  0  0  0  0  0  0  0  0
  148.6343  157.1527  132.2602 H   0  0  0  0  0  0  0  0  0  0  0  0
  146.3413  156.3442  132.9039 H   0  0  0  0  0  0  0  0  0  0  0  0
  143.7742  157.2442  133.7740 H   0  0  0  0  0  0  0  0  0  0  0  0
  141.9590  161.1690  133.0040 H   0  0  0  0  0  0  0  0  0  0  0  0
  140.6550  160.7630  134.1700 H   0  0  0  0  0  0  0  0  0  0  0  0
  147.4272  161.2560  133.1060 H   0  0  0  0  0  0  0  0  0  0  0  0
  1  2  2  0
  2  3  1  0
  3  4  1  0
  4  5  2  0
  5  6  1  0
  6  7  2  0
  7  8  1  0
  8  9  2  0
  9 10  1  0
 10 11  1  0
 10 12  2  0
  9 13  1  0
 13 14  1  0
 14 15  2  0
 14 16  1  0
 13 17  1  0
 17 18  2  0
 18  4  1  0
 17  7  1  0
  1 19  1  0
  1 20  1  0
  2 21  1  0
  3 22  1  0
  3 23  1  0
  5 24  1  0
  6 25  1  0
  8 26  1  0
 11 27  1  0
 11 28  1  0
 18 29  1  0
M  CHG  1  16  -1
M  END
>  <UniqueID>  (65) 
65

>  <SMILES>  (65) 
C=CCc1ccc2cc(C(N)=O)n(C(=O)[O-])c2c1

>  <Energy>  (65) 
65.9519390889194

>  <Genealogy>  (65) 
C=CCc1ccc2cc(C(N)=O)n(C(=O)[O-])c2c1 (protonated)
C=CCc1ccc2cc(C(N)=O)n(C(=O)[O-])c2c1 (3D coordinates assigned)
C=CCc1ccc2cc(C(N)=O)n(C(=O)[O-])c2c1 (optimized conformer: 65.9519390889194 kcal/mol)

>  <smiles>  (65) 
C=CCc1ccc2cc(C(N)=O)n(C(=O)O)c2c1

>  <score_type>  (65) 
oracle

>  <origin>  (65) 
adg

>  <m_score__min__energy>  (65) 
-6.2300000000000004

>  <m_primary>  (65) 
energy

$$$$
65:0
     RDKit          3D

 63 64  0  0  0  0  0  0  0  0999 V2000
  138.6530  159.6340  131.4590 C   0  0  0  0  0  0  0  0  0  0  0  0
  139.7700  158.8780  132.1890 C   0  0  1  0  0  0  0  0  0  0  0  0
  140.9610  159.7210  132.3090 N   0  0  0  0  0  0  0  0  0  0  0  0
  139.2910  158.4620  133.5480 C   0  0  0  0  0  0  0  0  0  0  0  0
  138.3250  157.6540  133.6590 O   0  0  0  0  0  0  0  0  0  0  0  0
  139.9650  158.9320  134.6840 O   0  0  0  0  0  0  0  0  0  0  0  0
  140.3390  158.0930  135.7760 C   0  0  0  0  0  0  0  0  0  0  0  0
  141.8450  158.1680  136.0080 C   0  0  0  0  0  0  0  0  0  0  0  0
  142.4320  159.0580  135.0650 O   0  0  0  0  0  0  0  0  0  0  0  0
  143.1080  158.6250  133.9240 C   0  0  0  0  0  0  0  0  0  0  0  0
  142.5500  157.8420  133.1070 O   0  0  0  0  0  0  0  0  0  0  0  0
  144.4450  159.0810  133.6840 N   0  0  0  0  0  0  0  0  0  0  0  0
  144.8990  160.3650  133.6300 C   0  0  0  0  0  0  0  0  0  0  0  0
  144.0670  161.5810  133.7440 C   0  0  0  0  0  0  0  0  0  0  0  0
  142.6490  161.4860  133.6350 N   0  0  0  0  0  0  0  0  0  0  0  0
  144.5940  162.7040  133.9600 O   0  0  0  0  0  0  0  0  0  0  0  0
  146.2710  160.3840  133.3800 C   0  0  0  0  0  0  0  0  0  0  0  0
  146.6430  159.0630  133.2750 C   0  0  0  0  0  0  0  0  0  0  0  0
  147.8940  158.4950  133.0530 C   0  0  0  0  0  0  0  0  0  0  0  0
  147.9900  157.0930  133.0410 C   0  0  0  0  0  0  0  0  0  0  0  0
  146.8420  156.2890  133.2600 C   0  0  0  0  0  0  0  0  0  0  0  0
  146.9610  154.7890  133.2990 C   0  0  0  0  0  0  0  0  0  0  0  0
  145.6110  154.1530  133.3660 C   0  0  0  0  0  0  0  0  0  0  0  0
  144.8450  154.4010  134.3370 O   0  0  0  0  0  0  0  0  0  0  0  0
  145.2240  153.2680  132.3570 O   0  0  0  0  0  0  0  0  0  0  0  0
  145.0380  151.8750  132.5780 C   0  0  0  0  0  0  0  0  0  0  0  0
  143.5910  151.5990  132.9720 C   0  0  0  0  0  0  0  0  0  0  0  0
  142.7280  152.6170  132.4660 O   0  0  0  0  0  0  0  0  0  0  0  0
  141.6680  153.1670  133.1990 C   0  0  0  0  0  0  0  0  0  0  0  0
  140.6600  152.4670  133.4990 O   0  0  0  0  0  0  0  0  0  0  0  0
  141.7120  154.6160  133.6010 C   0  0  2  0  0  0  0  0  0  0  0  0
  140.3950  155.3020  133.2230 C   0  0  0  0  0  0  0  0  0  0  0  0
  142.8530  155.2920  132.9710 N   0  0  0  0  0  0  0  0  0  0  0  0
  145.5860  156.9010  133.4670 C   0  0  0  0  0  0  0  0  0  0  0  0
  145.5200  158.2980  133.4610 C   0  0  0  0  0  0  0  0  0  0  0  0
  137.9771  160.0914  132.1966 H   0  0  0  0  0  0  0  0  0  0  0  0
  139.0938  160.4202  130.8284 H   0  0  0  0  0  0  0  0  0  0  0  0
  138.0869  158.9326  130.8284 H   0  0  0  0  0  0  0  0  0  0  0  0
  140.0353  157.9818  131.6090 H   0  0  0  0  0  0  0  0  0  0  0  0
  141.7240  159.2970  131.7300 H   0  0  0  0  0  0  0  0  0  0  0  0
  141.2940  159.6660  133.2990 H   0  0  0  0  0  0  0  0  0  0  0  0
  140.0579  157.0541  135.5486 H   0  0  0  0  0  0  0  0  0  0  0  0
  139.8192  158.4332  136.6838 H   0  0  0  0  0  0  0  0  0  0  0  0
  142.2838  157.1665  135.8878 H   0  0  0  0  0  0  0  0  0  0  0  0
  142.0388  158.5365  137.0262 H   0  0  0  0  0  0  0  0  0  0  0  0
  142.1810  160.5570  133.5430 H   0  0  0  0  0  0  0  0  0  0  0  0
  146.9189  161.2680  133.2865 H   0  0  0  0  0  0  0  0  0  0  0  0
  148.7813  159.1248  132.8917 H   0  0  0  0  0  0  0  0  0  0  0  0
  148.9640  156.6148  132.8602 H   0  0  0  0  0  0  0  0  0  0  0  0
  147.5424  154.4960  134.1856 H   0  0  0  0  0  0  0  0  0  0  0  0
  147.4658  154.4507  132.3821 H   0  0  0  0  0  0  0  0  0  0  0  0
  145.7057  151.5419  133.3863 H   0  0  0  0  0  0  0  0  0  0  0  0
  145.2713  151.3279  131.6527 H   0  0  0  0  0  0  0  0  0  0  0  0
  143.5141  151.5726  134.0690 H   0  0  0  0  0  0  0  0  0  0  0  0
  143.2862  150.6322  132.5450 H   0  0  0  0  0  0  0  0  0  0  0  0
  141.8411  154.6797  134.6915 H   0  0  0  0  0  0  0  0  0  0  0  0
  139.8530  155.5843  134.1376 H   0  0  0  0  0  0  0  0  0  0  0  0
  140.6082  156.2036  132.6300 H   0  0  0  0  0  0  0  0  0  0  0  0
  139.7784  154.6105  132.6300 H   0  0  0  0  0  0  0  0  0  0  0  0
  142.5140  155.8810  132.1760 H   0  0  0  0  0  0  0  0  0  0  0  0
  143.3570  155.8960  133.6600 H   0  0  0  0  0  0  0  0  0  0  0  0
  143.5190  154.5820  132.5900 H   0  0  0  0  0  0  0  0  0  0  0  0
  144.6828  156.2944  133.6288 H   0  0  0  0  0  0  0  0  0  0  0  0
  1  2  1  0
  2  3  1  0
  2  4  1  0
  4  5  2  0
  4  6  1  0
  6  7  1  0
  7  8  1  0
  8  9  1  0
  9 10  1  0
 10 11  2  0
 10 12  1  0
 12 13  1  0
 13 14  1  0
 14 15  1  0
 14 16  2  0
 13 17  2  0
 17 18  1  0
 18 19  2  0
 19 20  1  0
 20 21  2  0
 21 22  1  0
 22 23  1  0
 23 24  2  0
 23 25  1  0
 25 26  1  0
 26 27  1  0
 27 28  1  0
 28 29  1  0
 29 30  2  0
 29 31  1  0
 31 32  1  0
 31 33  1  0
 21 34  1  0
 34 35  2  0
 35 12  1  0
 35 18  1  0
  1 36  1  0
  1 37  1  0
  1 38  1  0
  2 39  1  6
  3 40  1  0
  3 41  1  0
  7 42  1  0
  7 43  1  0
  8 44  1  0
  8 45  1  0
 15 46  1  0
 17 47  1  0
 19 48  1  0
 20 49  1  0
 22 50  1  0
 22 51  1  0
 26 52  1  0
 26 53  1  0
 27 54  1  0
 27 55  1  0
 31 56  1  1
 32 57  1  0
 32 58  1  0
 32 59  1  0
 33 60  1  0
 33 61  1  0
 33 62  1  0
 34 63  1  0
M  CHG  2  15  -1  33   1
M  END
>  <UniqueID>  (66) 
66

>  <SMILES>  (66) 
C[C@H]([NH3+])C(=O)OCCOC(=O)Cc1ccc2cc(C([NH-])=O)n(C(=O)OCCOC(=O)[C@@H](C)N)c2c1

>  <Energy>  (66) 
78.14438939642693

>  <Genealogy>  (66) 
CC(N)C(=O)OCCOC(=O)n1c(C([NH-])=O)cc2ccc(CC(=O)OCCOC(=O)C(C)[NH3+])cc21 (protonated)
C[C@H]([NH3+])C(=O)OCCOC(=O)Cc1ccc2cc(C([NH-])=O)n(C(=O)OCCOC(=O)[C@@H](C)N)c2c1 (chirality)
C[C@H]([NH3+])C(=O)OCCOC(=O)Cc1ccc2cc(C([NH-])=O)n(C(=O)OCCOC(=O)[C@@H](C)N)c2c1 (3D coordinates assigned)
C[C@H]([NH3+])C(=O)OCCOC(=O)Cc1ccc2cc(C([NH-])=O)n(C(=O)OCCOC(=O)[C@@H](C)N)c2c1 (optimized conformer: 78.14438939642693 kcal/mol)

>  <smiles>  (66) 
CC(N)C(=O)OCCOC(=O)Cc1ccc2cc(C(N)=O)n(C(=O)OCCOC(=O)C(C)N)c2c1

>  <score_type>  (66) 
oracle

>  <origin>  (66) 
adg

>  <m_score__min__energy>  (66) 
-5.3700000000000001

>  <m_primary>  (66) 
energy

$$$$
66:0
     RDKit          3D

 46 47  0  0  0  0  0  0  0  0999 V2000
  149.3650  153.3050  132.1650 C   0  0  0  0  0  0  0  0  0  0  0  0
  148.8500  153.4400  133.4840 O   0  0  0  0  0  0  0  0  0  0  0  0
  147.7940  154.2990  133.7980 C   0  0  0  0  0  0  0  0  0  0  0  0
  147.7780  154.9100  134.9040 O   0  0  0  0  0  0  0  0  0  0  0  0
  146.7150  154.5400  132.7770 C   0  0  1  0  0  0  0  0  0  0  0  0
  145.7730  153.3370  132.6390 C   0  0  0  0  0  0  0  0  0  0  0  0
  145.9400  155.8010  133.1060 C   0  0  0  0  0  0  0  0  0  0  0  0
  144.5710  155.7170  133.4750 C   0  0  0  0  0  0  0  0  0  0  0  0
  143.8460  156.8700  133.8180 C   0  0  0  0  0  0  0  0  0  0  0  0
  144.5100  158.0920  133.7810 C   0  0  0  0  0  0  0  0  0  0  0  0
  144.0550  159.3560  134.0820 C   0  0  0  0  0  0  0  0  0  0  0  0
  145.1440  160.2000  133.8670 C   0  0  0  0  0  0  0  0  0  0  0  0
  145.0690  161.6740  133.9500 C   0  0  0  0  0  0  0  0  0  0  0  0
  146.2160  162.4390  134.3300 N   0  0  0  0  0  0  0  0  0  0  0  0
  143.9810  162.2650  133.7160 O   0  0  0  0  0  0  0  0  0  0  0  0
  146.2300  159.4850  133.4550 N   0  0  0  0  0  0  0  0  0  0  0  0
  147.5550  159.9690  133.1730 C   0  0  0  0  0  0  0  0  0  0  0  0
  148.3800  160.1140  134.1130 O   0  0  0  0  0  0  0  0  0  0  0  0
  147.9670  160.3400  131.7730 C   0  0  0  0  0  0  0  0  0  0  0  0
  148.8200  159.2350  131.1130 C   0  0  0  0  0  0  0  0  0  0  0  0
  149.8070  159.8520  130.1170 C   0  0  0  0  0  0  0  0  0  0  0  0
  149.5730  158.4080  132.1640 C   0  0  0  0  0  0  0  0  0  0  0  0
  145.8240  158.1980  133.4070 C   0  0  0  0  0  0  0  0  0  0  0  0
  146.5760  157.0660  133.0780 C   0  0  0  0  0  0  0  0  0  0  0  0
  150.4280  153.0263  132.2132 H   0  0  0  0  0  0  0  0  0  0  0  0
  148.8049  152.5233  131.6309 H   0  0  0  0  0  0  0  0  0  0  0  0
  149.2604  154.2609  131.6309 H   0  0  0  0  0  0  0  0  0  0  0  0
  147.2084  154.6761  131.8033 H   0  0  0  0  0  0  0  0  0  0  0  0
  145.4903  152.9760  133.6389 H   0  0  0  0  0  0  0  0  0  0  0  0
  144.8695  153.6399  132.0896 H   0  0  0  0  0  0  0  0  0  0  0  0
  146.2837  152.5325  132.0896 H   0  0  0  0  0  0  0  0  0  0  0  0
  144.0723  154.7367  133.4924 H   0  0  0  0  0  0  0  0  0  0  0  0
  142.7864  156.8087  134.1068 H   0  0  0  0  0  0  0  0  0  0  0  0
  143.0474  159.6397  134.4200 H   0  0  0  0  0  0  0  0  0  0  0  0
  146.1500  163.4780  134.4090 H   0  0  0  0  0  0  0  0  0  0  0  0
  147.1610  161.9960  134.4210 H   0  0  0  0  0  0  0  0  0  0  0  0
  147.0632  160.5014  131.1671 H   0  0  0  0  0  0  0  0  0  0  0  0
  148.5759  161.2545  131.8274 H   0  0  0  0  0  0  0  0  0  0  0  0
  148.1403  158.5587  130.5738 H   0  0  0  0  0  0  0  0  0  0  0  0
  150.6150  160.3571  130.6666 H   0  0  0  0  0  0  0  0  0  0  0  0
  150.2335  159.0594  129.4846 H   0  0  0  0  0  0  0  0  0  0  0  0
  149.2813  160.5826  129.4846 H   0  0  0  0  0  0  0  0  0  0  0  0
  149.2748  158.7356  133.1709 H   0  0  0  0  0  0  0  0  0  0  0  0
  149.3279  157.3432  132.0372 H   0  0  0  0  0  0  0  0  0  0  0  0
  150.6561  158.5525  132.0372 H   0  0  0  0  0  0  0  0  0  0  0  0
  147.6374  157.1560  132.8037 H   0  0  0  0  0  0  0  0  0  0  0  0
  1  2  1  0
  2  3  1  0
  3  4  2  0
  3  5  1  0
  5  6  1  0
  5  7  1  0
  7  8  2  0
  8  9  1  0
  9 10  2  0
 10 11  1  0
 11 12  2  0
 12 13  1  0
 13 14  1  0
 13 15  2  0
 12 16  1  0
 16 17  1  0
 17 18  2  0
 17 19  1  0
 19 20  1  0
 20 21  1  0
 20 22  1  0
 16 23  1  0
 23 24  2  0
 24  7  1  0
 23 10  1  0
  1 25  1  0
  1 26  1  0
  1 27  1  0
  5 28  1  6
  6 29  1  0
  6 30  1  0
  6 31  1  0
  8 32  1  0
  9 33  1  0
 11 34  1  0
 14 35  1  0
 14 36  1  0
 19 37  1  0
 19 38  1  0
 20 39  1  0
 21 40  1  0
 21 41  1  0
 21 42  1  0
 22 43  1  0
 22 44  1  0
 22 45  1  0
 24 46  1  0
M  END
>  <UniqueID>  (67) 
67

>  <SMILES>  (67) 
COC(=O)[C@@H](C)c1ccc2cc(C(N)=O)n(C(=O)CC(C)C)c2c1

>  <Energy>  (67) 
74.38707326976771

>  <Genealogy>  (67) 
COC(=O)[C@@H](C)c1ccc2cc(C(N)=O)n(C(=O)CC(C)C)c2c1 (chirality)
COC(=O)[C@@H](C)c1ccc2cc(C(N)=O)n(C(=O)CC(C)C)c2c1 (3D coordinates assigned)
COC(=O)[C@@H](C)c1ccc2cc(C(N)=O)n(C(=O)CC(C)C)c2c1 (optimized conformer: 74.38707326976771 kcal/mol)

>  <smiles>  (67) 
COC(=O)C(C)c1ccc2cc(C(N)=O)n(C(=O)CC(C)C)c2c1

>  <score_type>  (67) 
oracle

>  <origin>  (67) 
adg

>  <m_score__min__energy>  (67) 
-7.3899999999999997

>  <m_primary>  (67) 
energy

$$$$
67:0
     RDKit          3D

 64 68  0  0  0  0  0  0  0  0999 V2000
  149.4200  157.4470  131.8320 N   0  0  0  0  0  0  0  0  0  0  0  0
  149.0990  158.7700  132.2640 C   0  0  0  0  0  0  0  0  0  0  0  0
  149.9850  159.6630  132.2110 O   0  0  0  0  0  0  0  0  0  0  0  0
  147.7580  159.0850  132.8030 C   0  0  0  0  0  0  0  0  0  0  0  0
  147.2460  160.3770  132.9020 C   0  0  0  0  0  0  0  0  0  0  0  0
  145.9550  160.2260  133.3510 C   0  0  0  0  0  0  0  0  0  0  0  0
  144.9890  161.1870  133.6340 C   0  0  0  0  0  0  0  0  0  0  0  0
  143.7440  160.7470  134.1100 C   0  0  0  0  0  0  0  0  0  0  0  0
  143.4860  159.3660  134.2940 C   0  0  0  0  0  0  0  0  0  0  0  0
  142.1500  158.9160  134.8240 C   0  0  0  0  0  0  0  0  0  0  0  0
  141.0310  159.2020  133.8510 C   0  0  0  0  0  0  0  0  0  0  0  0
  140.8730  160.3730  133.4120 O   0  0  0  0  0  0  0  0  0  0  0  0
  140.0730  158.2000  133.4820 N   0  0  0  0  0  0  0  0  0  0  0  0
  139.1230  157.5510  134.3810 C   0  0  0  0  0  0  0  0  0  0  0  0
  139.1420  158.2060  135.7610 C   0  0  0  0  0  0  0  0  0  0  0  0
  139.8360  157.3860  136.6970 O   0  0  0  0  0  0  0  0  0  0  0  0
  140.8410  157.8780  137.5330 C   0  0  0  0  0  0  0  0  0  0  0  0
  140.9570  159.1170  137.7380 O   0  0  0  0  0  0  0  0  0  0  0  0
  141.7290  156.9560  138.1680 N   0  0  0  0  0  0  0  0  0  0  0  0
  141.3660  155.6210  138.5320 C   0  0  0  0  0  0  0  0  0  0  0  0
  140.7870  155.3730  139.7910 C   0  0  0  0  0  0  0  0  0  0  0  0
  140.4210  154.0640  140.1680 C   0  0  0  0  0  0  0  0  0  0  0  0
  140.6110  152.9890  139.2860 C   0  0  0  0  0  0  0  0  0  0  0  0
  141.1680  153.2560  138.0360 C   0  0  0  0  0  0  0  0  0  0  0  0
  141.5310  154.5330  137.6600 C   0  0  0  0  0  0  0  0  0  0  0  0
  141.9460  154.4650  136.2570 C   0  0  0  0  0  0  0  0  0  0  0  0
  142.2170  155.4530  135.5230 O   0  0  0  0  0  0  0  0  0  0  0  0
  141.9010  153.1110  135.7870 N   0  0  0  0  0  0  0  0  0  0  0  0
  141.8810  152.6680  134.3880 C   0  0  1  0  0  0  0  0  0  0  0  0
  141.8280  151.1300  134.3250 C   0  0  0  0  0  0  0  0  0  0  0  0
  141.6990  150.6280  132.8830 C   0  0  0  0  0  0  0  0  0  0  0  0
  140.5050  151.2490  132.2180 C   0  0  0  0  0  0  0  0  0  0  0  0
  139.9020  150.6330  131.2990 O   0  0  0  0  0  0  0  0  0  0  0  0
  140.0770  152.5610  132.5880 N   0  0  0  0  0  0  0  0  0  0  0  0
  140.7210  153.2820  133.6420 C   0  0  0  0  0  0  0  0  0  0  0  0
  140.3540  154.4590  133.8980 O   0  0  0  0  0  0  0  0  0  0  0  0
  141.3840  152.3730  136.8970 C   0  0  0  0  0  0  0  0  0  0  0  0
  141.1160  151.1430  136.8650 O   0  0  0  0  0  0  0  0  0  0  0  0
  144.4950  158.4190  134.0060 C   0  0  0  0  0  0  0  0  0  0  0  0
  145.7220  158.8850  133.5140 C   0  0  0  0  0  0  0  0  0  0  0  0
  146.8200  158.1690  133.1810 N   0  0  0  0  0  0  0  0  0  0  0  0
  146.9730  156.7430  133.2740 C   0  0  0  0  0  0  0  0  0  0  0  0
  146.0790  155.9760  132.8290 O   0  0  0  0  0  0  0  0  0  0  0  0
  148.1170  156.1950  133.8420 O   0  0  0  0  0  0  0  0  0  0  0  0
  150.3820  157.2250  131.4900 H   0  0  0  0  0  0  0  0  0  0  0  0
  148.6970  156.6940  131.8110 H   0  0  0  0  0  0  0  0  0  0  0  0
  147.7648  161.3188  132.6700 H   0  0  0  0  0  0  0  0  0  0  0  0
  145.1947  162.2578  133.4892 H   0  0  0  0  0  0  0  0  0  0  0  0
  142.9599  161.4825  134.3428 H   0  0  0  0  0  0  0  0  0  0  0  0
  142.1890  157.8329  135.0123 H   0  0  0  0  0  0  0  0  0  0  0  0
  141.9462  159.4733  135.7502 H   0  0  0  0  0  0  0  0  0  0  0  0
  138.1115  157.6344  133.9569 H   0  0  0  0  0  0  0  0  0  0  0  0
  139.4086  156.4943  134.4900 H   0  0  0  0  0  0  0  0  0  0  0  0
  139.6464  159.1810  135.6912 H   0  0  0  0  0  0  0  0  0  0  0  0
  138.1055  158.3369  136.1052 H   0  0  0  0  0  0  0  0  0  0  0  0
  140.6185  156.2078  140.4872 H   0  0  0  0  0  0  0  0  0  0  0  0
  139.9833  153.8843  141.1610 H   0  0  0  0  0  0  0  0  0  0  0  0
  140.3286  151.9652  139.5726 H   0  0  0  0  0  0  0  0  0  0  0  0
  142.8054  153.0077  133.8981 H   0  0  0  0  0  0  0  0  0  0  0  0
  142.7511  150.7229  134.7634 H   0  0  0  0  0  0  0  0  0  0  0  0
  140.9442  150.7932  134.8866 H   0  0  0  0  0  0  0  0  0  0  0  0
  142.6067  150.8971  132.3229 H   0  0  0  0  0  0  0  0  0  0  0  0
  141.5727  149.5354  132.8953 H   0  0  0  0  0  0  0  0  0  0  0  0
  144.3218  157.3443  134.1639 H   0  0  0  0  0  0  0  0  0  0  0  0
  1  2  1  0
  2  3  2  0
  2  4  1  0
  4  5  2  0
  5  6  1  0
  6  7  2  0
  7  8  1  0
  8  9  2  0
  9 10  1  0
 10 11  1  0
 11 12  2  0
 11 13  1  0
 13 14  1  0
 14 15  1  0
 15 16  1  0
 16 17  1  0
 17 18  2  0
 17 19  1  0
 19 20  1  0
 20 21  2  0
 21 22  1  0
 22 23  2  0
 23 24  1  0
 24 25  2  0
 25 26  1  0
 26 27  2  0
 26 28  1  0
 28 29  1  0
 29 30  1  0
 30 31  1  0
 31 32  1  0
 32 33  2  0
 32 34  1  0
 34 35  1  0
 35 36  2  0
 28 37  1  0
 37 38  2  0
  9 39  1  0
 39 40  2  0
 40 41  1  0
 41 42  1  0
 42 43  2  0
 42 44  1  0
 41  4  1  0
 40  6  1  0
 25 20  1  0
 35 29  1  0
 37 24  1  0
  1 45  1  0
  1 46  1  0
  5 47  1  0
  7 48  1  0
  8 49  1  0
 10 50  1  0
 10 51  1  0
 14 52  1  0
 14 53  1  0
 15 54  1  0
 15 55  1  0
 21 56  1  0
 22 57  1  0
 23 58  1  0
 29 59  1  6
 30 60  1  0
 30 61  1  0
 31 62  1  0
 31 63  1  0
 39 64  1  0
M  CHG  4  13  -1  19  -1  34  -1  44  -1
M  END
>  <UniqueID>  (68) 
68

>  <SMILES>  (68) 
NC(=O)c1cc2ccc(CC(=O)[N-]CCOC(=O)[N-]c3cccc4c3C(=O)N([C@H]3CCC(=O)[N-]C3=O)C4=O)cc2n1C(=O)[O-]

>  <Energy>  (68) 
138.98561041632965

>  <Genealogy>  (68) 
NC(=O)c1cc2ccc(CC(=O)[N-]CCOC(=O)[N-]c3cccc4c3C(=O)N(C3CCC(=O)[N-]C3=O)C4=O)cc2n1C(=O)[O-] (protonated)
NC(=O)c1cc2ccc(CC(=O)[N-]CCOC(=O)[N-]c3cccc4c3C(=O)N([C@H]3CCC(=O)[N-]C3=O)C4=O)cc2n1C(=O)[O-] (chirality)
NC(=O)c1cc2ccc(CC(=O)[N-]CCOC(=O)[N-]c3cccc4c3C(=O)N([C@H]3CCC(=O)[N-]C3=O)C4=O)cc2n1C(=O)[O-] (3D coordinates assigned)
NC(=O)c1cc2ccc(CC(=O)[N-]CCOC(=O)[N-]c3cccc4c3C(=O)N([C@H]3CCC(=O)[N-]C3=O)C4=O)cc2n1C(=O)[O-] (nonaromatic ring conformer: 138.98561041632965 kcal/mol)

>  <smiles>  (68) 
NC(=O)c1cc2ccc(CC(=O)NCCOC(=O)Nc3cccc4c3C(=O)N(C3CCC(=O)NC3=O)C4=O)cc2n1C(=O)O

>  <score_type>  (68) 
oracle

>  <origin>  (68) 
adg

>  <m_score__min__energy>  (68) 
-11.19

>  <m_primary>  (68) 
energy

$$$$
68:0
     RDKit          3D

 32 33  0  0  0  0  0  0  0  0999 V2000
  150.0140  150.7740  131.2850 C   0  0  0  0  0  0  0  0  0  0  0  0
  150.4540  151.2410  132.5410 O   0  0  0  0  0  0  0  0  0  0  0  0
  149.4820  152.0900  133.1210 C   0  0  0  0  0  0  0  0  0  0  0  0
  149.6450  153.5180  132.5930 C   0  0  0  0  0  0  0  0  0  0  0  0
  148.3990  154.3230  132.8440 C   0  0  0  0  0  0  0  0  0  0  0  0
  147.1530  153.6680  133.0130 C   0  0  0  0  0  0  0  0  0  0  0  0
  145.9750  154.4100  133.2040 C   0  0  0  0  0  0  0  0  0  0  0  0
  146.0740  155.7980  133.2210 C   0  0  0  0  0  0  0  0  0  0  0  0
  145.0930  156.7540  133.3540 C   0  0  0  0  0  0  0  0  0  0  0  0
  145.7570  157.9760  133.2790 C   0  0  0  0  0  0  0  0  0  0  0  0
  145.0840  159.2770  133.4550 C   0  0  0  0  0  0  0  0  0  0  0  0
  145.6400  160.4770  132.9140 N   0  0  0  0  0  0  0  0  0  0  0  0
  144.0290  159.3420  134.1400 O   0  0  0  0  0  0  0  0  0  0  0  0
  147.0940  157.7850  133.0910 N   0  0  0  0  0  0  0  0  0  0  0  0
  148.1000  158.7790  132.8400 C   0  0  0  0  0  0  0  0  0  0  0  0
  148.2620  159.7320  133.6460 O   0  0  0  0  0  0  0  0  0  0  0  0
  149.1850  158.6500  131.4040 S   0  0  0  0  0  0  0  0  0  0  0  0
  147.2720  156.4460  133.0640 C   0  0  0  0  0  0  0  0  0  0  0  0
  148.4580  155.7340  132.8540 C   0  0  0  0  0  0  0  0  0  0  0  0
  149.2663  149.9804  131.4303 H   0  0  0  0  0  0  0  0  0  0  0  0
  149.5626  151.6046  130.7226 H   0  0  0  0  0  0  0  0  0  0  0  0
  150.8700  150.3728  130.7226 H   0  0  0  0  0  0  0  0  0  0  0  0
  148.4779  151.7205  132.8656 H   0  0  0  0  0  0  0  0  0  0  0  0
  149.6141  152.0937  134.2130 H   0  0  0  0  0  0  0  0  0  0  0  0
  150.4934  153.9971  133.1035 H   0  0  0  0  0  0  0  0  0  0  0  0
  149.8265  153.4758  131.5089 H   0  0  0  0  0  0  0  0  0  0  0  0
  147.1080  152.5691  132.9945 H   0  0  0  0  0  0  0  0  0  0  0  0
  145.0046  153.9092  133.3360 H   0  0  0  0  0  0  0  0  0  0  0  0
  144.0142  156.5883  133.4905 H   0  0  0  0  0  0  0  0  0  0  0  0
  145.1310  161.3830  133.0150 H   0  0  0  0  0  0  0  0  0  0  0  0
  146.5890  160.4840  132.4800 H   0  0  0  0  0  0  0  0  0  0  0  0
  149.4119  156.2598  132.7006 H   0  0  0  0  0  0  0  0  0  0  0  0
  1  2  1  0
  2  3  1  0
  3  4  1  0
  4  5  1  0
  5  6  2  0
  6  7  1  0
  7  8  2  0
  8  9  1  0
  9 10  2  0
 10 11  1  0
 11 12  1  0
 11 13  2  0
 10 14  1  0
 14 15  1  0
 15 16  2  0
 15 17  1  0
 14 18  1  0
 18 19  2  0
 19  5  1  0
 18  8  1  0
  1 20  1  0
  1 21  1  0
  1 22  1  0
  3 23  1  0
  3 24  1  0
  4 25  1  0
  4 26  1  0
  6 27  1  0
  7 28  1  0
  9 29  1  0
 12 30  1  0
 12 31  1  0
 19 32  1  0
M  CHG  1  17  -1
M  END
>  <UniqueID>  (69) 
69

>  <SMILES>  (69) 
COCCc1ccc2cc(C(N)=O)n(C(=O)[S-])c2c1

>  <Energy>  (69) 
72.32314272835255

>  <Genealogy>  (69) 
COCCc1ccc2cc(C(N)=O)n(C(=O)[S-])c2c1 (protonated)
COCCc1ccc2cc(C(N)=O)n(C(=O)[S-])c2c1 (3D coordinates assigned)
COCCc1ccc2cc(C(N)=O)n(C(=O)[S-])c2c1 (optimized conformer: 72.32314272835255 kcal/mol)

>  <smiles>  (69) 
COCCc1ccc2cc(C(N)=O)n(C(=O)S)c2c1

>  <score_type>  (69) 
oracle

>  <origin>  (69) 
adg

>  <m_score__min__energy>  (69) 
-5.9500000000000002

>  <m_primary>  (69) 
energy

$$$$
69:0
     RDKit          3D

 57 60  0  0  0  0  0  0  0  0999 V2000
  138.3200  157.7340  133.3570 N   0  0  0  0  0  0  0  0  0  0  0  0
  139.1430  158.1390  134.4470 C   0  0  0  0  0  0  0  0  0  0  0  0
  138.6430  158.2200  135.6010 O   0  0  0  0  0  0  0  0  0  0  0  0
  140.5770  158.4310  134.2460 C   0  0  0  0  0  0  0  0  0  0  0  0
  141.1340  159.7060  134.3430 C   0  0  0  0  0  0  0  0  0  0  0  0
  142.4760  159.5380  134.0850 C   0  0  0  0  0  0  0  0  0  0  0  0
  143.4910  160.4800  133.9670 C   0  0  0  0  0  0  0  0  0  0  0  0
  144.7650  160.0360  133.5700 C   0  0  0  0  0  0  0  0  0  0  0  0
  145.0080  158.6570  133.2810 C   0  0  0  0  0  0  0  0  0  0  0  0
  146.2960  158.1450  132.8160 N   0  0  1  0  0  0  0  0  0  0  0  0
  147.1340  159.2250  132.2640 C   0  0  0  0  0  0  0  0  0  0  0  0
  148.5900  158.7820  132.3770 C   0  0  0  0  0  0  0  0  0  0  0  0
  148.5710  157.5360  133.2460 C   0  0  0  0  0  0  0  0  0  0  0  0
  147.1630  157.5030  133.8250 C   0  0  2  0  0  0  0  0  0  0  0  0
  146.7460  156.0940  134.1690 C   0  0  0  0  0  0  0  0  0  0  0  0
  147.0700  155.5680  135.2660 O   0  0  0  0  0  0  0  0  0  0  0  0
  145.9280  155.3930  133.2920 O   0  0  0  0  0  0  0  0  0  0  0  0
  143.9520  157.7340  133.4830 C   0  0  0  0  0  0  0  0  0  0  0  0
  142.6950  158.2080  133.8630 C   0  0  0  0  0  0  0  0  0  0  0  0
  141.5410  157.5130  133.9590 N   0  0  0  0  0  0  0  0  0  0  0  0
  141.3620  156.1460  133.5710 C   0  0  0  0  0  0  0  0  0  0  0  0
  140.3010  155.7940  132.9880 O   0  0  0  0  0  0  0  0  0  0  0  0
  142.3320  155.1980  133.9200 O   0  0  0  0  0  0  0  0  0  0  0  0
  142.1330  154.2010  134.9220 C   0  0  0  0  0  0  0  0  0  0  0  0
  142.1030  152.7960  134.3000 C   0  0  0  0  0  0  0  0  0  0  0  0
  141.7410  152.8270  132.8120 C   0  0  0  0  0  0  0  0  0  0  0  0
  141.3030  151.5080  132.3560 N   0  0  0  0  0  0  0  0  0  0  0  0
  139.9110  151.1160  132.2330 C   0  0  0  0  0  0  0  0  0  0  0  0
  139.9200  149.6060  131.9310 C   0  0  0  0  0  0  0  0  0  0  0  0
  141.3570  149.1080  132.1480 C   0  0  0  0  0  0  0  0  0  0  0  0
  142.1210  150.3550  132.3380 C   0  0  0  0  0  0  0  0  0  0  0  0
  143.3690  150.3900  132.5100 O   0  0  0  0  0  0  0  0  0  0  0  0
  138.3570  156.7570  132.9900 H   0  0  0  0  0  0  0  0  0  0  0  0
  140.6122  160.6459  134.5761 H   0  0  0  0  0  0  0  0  0  0  0  0
  143.3031  161.5431  134.1782 H   0  0  0  0  0  0  0  0  0  0  0  0
  145.5874  160.7610  133.4804 H   0  0  0  0  0  0  0  0  0  0  0  0
  146.1090  157.4680  132.0370 H   0  0  0  0  0  0  0  0  0  0  0  0
  146.8754  159.3986  131.2090 H   0  0  0  0  0  0  0  0  0  0  0  0
  146.9709  160.1618  132.8170 H   0  0  0  0  0  0  0  0  0  0  0  0
  148.9993  158.5505  131.3826 H   0  0  0  0  0  0  0  0  0  0  0  0
  149.2233  159.5706  132.8095 H   0  0  0  0  0  0  0  0  0  0  0  0
  148.7654  156.6370  132.6426 H   0  0  0  0  0  0  0  0  0  0  0  0
  149.3461  157.5558  134.0263 H   0  0  0  0  0  0  0  0  0  0  0  0
  147.0930  158.0477  134.7781 H   0  0  0  0  0  0  0  0  0  0  0  0
  144.1207  156.6562  133.3420 H   0  0  0  0  0  0  0  0  0  0  0  0
  142.9547  154.2544  135.6513 H   0  0  0  0  0  0  0  0  0  0  0  0
  141.1679  154.3871  135.4159 H   0  0  0  0  0  0  0  0  0  0  0  0
  143.0966  152.3378  134.4129 H   0  0  0  0  0  0  0  0  0  0  0  0
  141.3302  152.2130  134.8224 H   0  0  0  0  0  0  0  0  0  0  0  0
  140.9285  153.5514  132.6536 H   0  0  0  0  0  0  0  0  0  0  0  0
  142.6327  153.1200  132.2384 H   0  0  0  0  0  0  0  0  0  0  0  0
  139.3736  151.3147  133.1720 H   0  0  0  0  0  0  0  0  0  0  0  0
  139.4017  151.6824  131.4394 H   0  0  0  0  0  0  0  0  0  0  0  0
  139.2326  149.0815  132.6110 H   0  0  0  0  0  0  0  0  0  0  0  0
  139.5911  149.4121  130.8994 H   0  0  0  0  0  0  0  0  0  0  0  0
  141.4217  148.4662  133.0390 H   0  0  0  0  0  0  0  0  0  0  0  0
  141.7316  148.4954  131.3147 H   0  0  0  0  0  0  0  0  0  0  0  0
  1  2  1  0
  2  3  2  0
  2  4  1  0
  4  5  2  0
  5  6  1  0
  6  7  2  0
  7  8  1  0
  8  9  2  0
  9 10  1  0
 10 11  1  0
 11 12  1  0
 12 13  1  0
 13 14  1  0
 14 15  1  0
 15 16  2  0
 15 17  1  0
  9 18  1  0
 18 19  2  0
 19 20  1  0
 20 21  1  0
 21 22  2  0
 21 23  1  0
 23 24  1  0
 24 25  1  0
 25 26  1  0
 26 27  1  0
 27 28  1  0
 28 29  1  0
 29 30  1  0
 30 31  1  0
 31 32  2  0
 20  4  1  0
 31 27  1  0
 19  6  1  0
 14 10  1  0
  1 33  1  0
  5 34  1  0
  7 35  1  0
  8 36  1  0
 10 37  1  6
 11 38  1  0
 11 39  1  0
 12 40  1  0
 12 41  1  0
 13 42  1  0
 13 43  1  0
 14 44  1  1
 18 45  1  0
 24 46  1  0
 24 47  1  0
 25 48  1  0
 25 49  1  0
 26 50  1  0
 26 51  1  0
 28 52  1  0
 28 53  1  0
 29 54  1  0
 29 55  1  0
 30 56  1  0
 30 57  1  0
M  CHG  3   1  -1  10   1  17  -1
M  END
>  <UniqueID>  (70) 
70

>  <SMILES>  (70) 
[NH-]C(=O)c1cc2ccc([N@H+]3CCC[C@@H]3C(=O)[O-])cc2n1C(=O)OCCCN1CCCC1=O

>  <Energy>  (70) 
108.89729681676546

>  <Genealogy>  (70) 
[NH-]C(=O)c1cc2ccc([NH+]3CCCC3C(=O)[O-])cc2n1C(=O)OCCCN1CCCC1=O (protonated)
[NH-]C(=O)c1cc2ccc([N@H+]3CCC[C@@H]3C(=O)[O-])cc2n1C(=O)OCCCN1CCCC1=O (chirality)
[NH-]C(=O)c1cc2ccc([N@H+]3CCC[C@@H]3C(=O)[O-])cc2n1C(=O)OCCCN1CCCC1=O (3D coordinates assigned)
[NH-]C(=O)c1cc2ccc([N@H+]3CCC[C@@H]3C(=O)[O-])cc2n1C(=O)OCCCN1CCCC1=O (nonaromatic ring conformer: 108.89729681676546 kcal/mol)

>  <smiles>  (70) 
NC(=O)c1cc2ccc(N3CCCC3C(=O)O)cc2n1C(=O)OCCCN1CCCC1=O

>  <score_type>  (70) 
oracle

>  <origin>  (70) 
adg

>  <m_score__min__energy>  (70) 
-8.6699999999999999

>  <m_primary>  (70) 
energy

$$$$
70:0
     RDKit          3D

 41 43  0  0  0  0  0  0  0  0999 V2000
  148.9280  158.9950  129.9510 C   0  0  0  0  0  0  0  0  0  0  0  0
  148.7560  159.7600  131.2720 C   0  0  0  0  0  0  0  0  0  0  0  0
  149.6110  159.0790  132.3570 C   0  0  0  0  0  0  0  0  0  0  0  0
  149.2010  161.2210  131.0650 C   0  0  0  0  0  0  0  0  0  0  0  0
  147.3650  159.7000  131.6160 O   0  0  0  0  0  0  0  0  0  0  0  0
  146.8200  159.7990  132.9050 C   0  0  0  0  0  0  0  0  0  0  0  0
  147.2600  160.6420  133.7330 O   0  0  0  0  0  0  0  0  0  0  0  0
  145.7650  158.9060  133.2930 N   0  0  0  0  0  0  0  0  0  0  0  0
  144.5160  159.2230  133.7360 C   0  0  0  0  0  0  0  0  0  0  0  0
  143.9200  160.5740  133.7650 C   0  0  0  0  0  0  0  0  0  0  0  0
  144.7340  161.7310  133.9480 N   0  0  0  0  0  0  0  0  0  0  0  0
  142.6820  160.7150  133.5800 O   0  0  0  0  0  0  0  0  0  0  0  0
  143.8180  158.0700  134.0910 C   0  0  0  0  0  0  0  0  0  0  0  0
  144.6820  157.0280  133.8390 C   0  0  0  0  0  0  0  0  0  0  0  0
  144.5120  155.6600  134.0180 C   0  0  0  0  0  0  0  0  0  0  0  0
  145.5870  154.8130  133.7000 C   0  0  0  0  0  0  0  0  0  0  0  0
  146.8140  155.3430  133.2170 C   0  0  0  0  0  0  0  0  0  0  0  0
  147.9480  154.4410  132.8910 C   0  0  0  0  0  0  0  0  0  0  0  0
  149.2590  154.7920  132.6110 C   0  0  0  0  0  0  0  0  0  0  0  0
  149.9510  153.6670  132.3690 N   0  0  0  0  0  0  0  0  0  0  0  0
  149.1460  152.6540  132.4840 O   0  0  0  0  0  0  0  0  0  0  0  0
  147.9360  153.0570  132.7950 C   0  0  0  0  0  0  0  0  0  0  0  0
  146.9450  156.7430  133.0530 C   0  0  0  0  0  0  0  0  0  0  0  0
  145.8490  157.5590  133.3590 C   0  0  0  0  0  0  0  0  0  0  0  0
  149.1647  157.9423  130.1651 H   0  0  0  0  0  0  0  0  0  0  0  0
  147.9950  159.0504  129.3710 H   0  0  0  0  0  0  0  0  0  0  0  0
  149.7475  159.4445  129.3710 H   0  0  0  0  0  0  0  0  0  0  0  0
  149.2431  159.3721  133.3513 H   0  0  0  0  0  0  0  0  0  0  0  0
  149.5407  157.9867  132.2473 H   0  0  0  0  0  0  0  0  0  0  0  0
  150.6599  159.3918  132.2473 H   0  0  0  0  0  0  0  0  0  0  0  0
  149.3475  161.7018  132.0435 H   0  0  0  0  0  0  0  0  0  0  0  0
  150.1458  161.2403  130.5019 H   0  0  0  0  0  0  0  0  0  0  0  0
  148.4274  161.7636  130.5019 H   0  0  0  0  0  0  0  0  0  0  0  0
  145.5620  161.9070  133.3380 H   0  0  0  0  0  0  0  0  0  0  0  0
  142.7942  158.0061  134.4882 H   0  0  0  0  0  0  0  0  0  0  0  0
  143.5634  155.2524  134.3976 H   0  0  0  0  0  0  0  0  0  0  0  0
  145.4775  153.7258  133.8265 H   0  0  0  0  0  0  0  0  0  0  0  0
  149.6628  155.8150  132.5905 H   0  0  0  0  0  0  0  0  0  0  0  0
  150.9650  153.6000  132.1250 H   0  0  0  0  0  0  0  0  0  0  0  0
  147.0618  152.4082  132.9526 H   0  0  0  0  0  0  0  0  0  0  0  0
  147.8878  157.1805  132.6928 H   0  0  0  0  0  0  0  0  0  0  0  0
  1  2  1  0
  2  3  1  0
  2  4  1  0
  2  5  1  0
  5  6  1  0
  6  7  2  0
  6  8  1  0
  8  9  1  0
  9 10  1  0
 10 11  1  0
 10 12  2  0
  9 13  2  0
 13 14  1  0
 14 15  2  0
 15 16  1  0
 16 17  2  0
 17 18  1  0
 18 19  1  0
 19 20  2  0
 20 21  1  0
 21 22  1  0
 17 23  1  0
 23 24  2  0
 24  8  1  0
 24 14  1  0
 22 18  2  0
  1 25  1  0
  1 26  1  0
  1 27  1  0
  3 28  1  0
  3 29  1  0
  3 30  1  0
  4 31  1  0
  4 32  1  0
  4 33  1  0
 11 34  1  0
 13 35  1  0
 15 36  1  0
 16 37  1  0
 19 38  1  0
 20 39  1  0
 22 40  1  0
 23 41  1  0
M  CHG  2  11  -1  20   1
M  END
>  <UniqueID>  (71) 
71

>  <SMILES>  (71) 
CC(C)(C)OC(=O)n1c(C([NH-])=O)cc2ccc(-c3c[nH+]oc3)cc21

>  <Energy>  (71) 
110.08475216263245

>  <Genealogy>  (71) 
CC(C)(C)OC(=O)n1c(C([NH-])=O)cc2ccc(-c3c[nH+]oc3)cc21 (protonated)
CC(C)(C)OC(=O)n1c(C([NH-])=O)cc2ccc(-c3c[nH+]oc3)cc21 (3D coordinates assigned)
CC(C)(C)OC(=O)n1c(C([NH-])=O)cc2ccc(-c3c[nH+]oc3)cc21 (optimized conformer: 110.08475216263245 kcal/mol)

>  <smiles>  (71) 
CC(C)(C)OC(=O)n1c(C(N)=O)cc2ccc(-c3cnoc3)cc21

>  <score_type>  (71) 
oracle

>  <origin>  (71) 
adg

>  <m_score__min__energy>  (71) 
-7.5

>  <m_primary>  (71) 
energy

$$$$
71:0
     RDKit          3D

 62 66  0  0  0  0  0  0  0  0999 V2000
  139.9850  156.7340  137.3470 N   0  0  0  0  0  0  0  0  0  0  0  0
  139.9360  157.5730  136.1970 C   0  0  0  0  0  0  0  0  0  0  0  0
  138.8190  157.9820  135.7830 O   0  0  0  0  0  0  0  0  0  0  0  0
  141.1720  157.9690  135.4910 C   0  0  0  0  0  0  0  0  0  0  0  0
  141.3820  159.2320  134.9360 C   0  0  0  0  0  0  0  0  0  0  0  0
  142.6560  159.1900  134.4090 C   0  0  0  0  0  0  0  0  0  0  0  0
  143.3860  160.1670  133.7440 C   0  0  0  0  0  0  0  0  0  0  0  0
  144.6840  159.8420  133.3120 C   0  0  0  0  0  0  0  0  0  0  0  0
  145.2360  158.5520  133.5520 C   0  0  0  0  0  0  0  0  0  0  0  0
  146.5690  158.2260  133.0960 N   0  0  0  0  0  0  0  0  0  0  0  0
  147.2580  156.9840  133.4180 C   0  0  0  0  0  0  0  0  0  0  0  0
  148.5450  156.9990  132.6070 C   0  0  0  0  0  0  0  0  0  0  0  0
  148.7580  158.4580  132.2010 C   0  0  1  0  0  0  0  0  0  0  0  0
  149.2950  158.5570  130.9080 O   0  0  0  0  0  0  0  0  0  0  0  0
  147.3800  159.1030  132.2640 C   0  0  0  0  0  0  0  0  0  0  0  0
  144.4550  157.5910  134.2420 C   0  0  0  0  0  0  0  0  0  0  0  0
  143.1680  157.9450  134.6520 C   0  0  0  0  0  0  0  0  0  0  0  0
  142.2700  157.1870  135.3110 N   0  0  0  0  0  0  0  0  0  0  0  0
  142.4780  155.8440  135.7670 C   0  0  0  0  0  0  0  0  0  0  0  0
  142.8490  155.6530  136.9570 O   0  0  0  0  0  0  0  0  0  0  0  0
  142.2710  154.7300  134.8740 N   0  0  0  0  0  0  0  0  0  0  0  0
  141.9820  154.9930  133.4550 C   0  0  0  0  0  0  0  0  0  0  0  0
  142.0390  153.7100  132.6210 C   0  0  0  0  0  0  0  0  0  0  0  0
  141.1480  152.6150  133.2440 C   0  0  0  0  0  0  0  0  0  0  0  0
  141.2140  151.3590  132.4490 N   0  0  0  0  0  0  0  0  0  0  0  0
  142.1360  150.3290  132.9870 C   0  0  0  0  0  0  0  0  0  0  0  0
  141.8480  148.9470  132.3790 C   0  0  0  0  0  0  0  0  0  0  0  0
  141.3130  149.0940  131.0810 O   0  0  0  0  0  0  0  0  0  0  0  0
  140.0040  149.6330  131.1490 C   0  0  0  0  0  0  0  0  0  0  0  0
  139.8780  150.8080  132.1440 C   0  0  0  0  0  0  0  0  0  0  0  0
  141.4070  152.4170  134.7720 C   0  0  0  0  0  0  0  0  0  0  0  0
  142.4860  153.3500  135.3360 C   0  0  0  0  0  0  0  0  0  0  0  0
  140.8560  156.2180  137.5990 H   0  0  0  0  0  0  0  0  0  0  0  0
  140.6813  160.0798  134.9218 H   0  0  0  0  0  0  0  0  0  0  0  0
  142.9613  161.1651  133.5609 H   0  0  0  0  0  0  0  0  0  0  0  0
  145.2823  160.5964  132.7802 H   0  0  0  0  0  0  0  0  0  0  0  0
  147.4840  156.9395  134.4936 H   0  0  0  0  0  0  0  0  0  0  0  0
  146.6403  156.1057  133.1791 H   0  0  0  0  0  0  0  0  0  0  0  0
  149.3879  156.6434  133.2177 H   0  0  0  0  0  0  0  0  0  0  0  0
  148.4815  156.3376  131.7304 H   0  0  0  0  0  0  0  0  0  0  0  0
  149.4762  158.9573  132.8680 H   0  0  0  0  0  0  0  0  0  0  0  0
  148.8950  157.8160  130.3830 H   0  0  0  0  0  0  0  0  0  0  0  0
  147.4461  160.1045  132.7141 H   0  0  0  0  0  0  0  0  0  0  0  0
  146.9446  159.2263  131.2614 H   0  0  0  0  0  0  0  0  0  0  0  0
  144.8545  156.5874  134.4501 H   0  0  0  0  0  0  0  0  0  0  0  0
  140.9758  155.4293  133.3705 H   0  0  0  0  0  0  0  0  0  0  0  0
  142.7445  155.6869  133.0714 H   0  0  0  0  0  0  0  0  0  0  0  0
  141.6864  153.9259  131.6016 H   0  0  0  0  0  0  0  0  0  0  0  0
  143.0780  153.3495  132.5969 H   0  0  0  0  0  0  0  0  0  0  0  0
  140.1051  152.9609  133.1911 H   0  0  0  0  0  0  0  0  0  0  0  0
  143.1711  150.6159  132.7496 H   0  0  0  0  0  0  0  0  0  0  0  0
  141.9885  150.2663  134.0753 H   0  0  0  0  0  0  0  0  0  0  0  0
  142.7833  148.3706  132.3246 H   0  0  0  0  0  0  0  0  0  0  0  0
  141.1207  148.4178  133.0122 H   0  0  0  0  0  0  0  0  0  0  0  0
  139.7215  149.9912  130.1481 H   0  0  0  0  0  0  0  0  0  0  0  0
  139.3398  148.8318  131.5052 H   0  0  0  0  0  0  0  0  0  0  0  0
  139.2521  151.5959  131.6995 H   0  0  0  0  0  0  0  0  0  0  0  0
  139.4170  150.4447  133.0743 H   0  0  0  0  0  0  0  0  0  0  0  0
  140.4672  152.6054  135.3117 H   0  0  0  0  0  0  0  0  0  0  0  0
  141.7671  151.3866  134.9081 H   0  0  0  0  0  0  0  0  0  0  0  0
  142.4457  153.3264  136.4350 H   0  0  0  0  0  0  0  0  0  0  0  0
  143.4701  153.0076  134.9836 H   0  0  0  0  0  0  0  0  0  0  0  0
  1  2  1  0
  2  3  2  0
  2  4  1  0
  4  5  2  0
  5  6  1  0
  6  7  2  0
  7  8  1  0
  8  9  2  0
  9 10  1  0
 10 11  1  0
 11 12  1  0
 12 13  1  0
 13 14  1  0
 13 15  1  0
  9 16  1  0
 16 17  2  0
 17 18  1  0
 18 19  1  0
 19 20  2  0
 19 21  1  0
 21 22  1  0
 22 23  1  0
 23 24  1  0
 24 25  1  0
 25 26  1  0
 26 27  1  0
 27 28  1  0
 28 29  1  0
 29 30  1  0
 24 31  1  0
 31 32  1  0
 18  4  1  0
 32 21  1  0
 17  6  1  0
 30 25  1  0
 15 10  1  0
  1 33  1  0
  5 34  1  0
  7 35  1  0
  8 36  1  0
 11 37  1  0
 11 38  1  0
 12 39  1  0
 12 40  1  0
 13 41  1  1
 14 42  1  0
 15 43  1  0
 15 44  1  0
 16 45  1  0
 22 46  1  0
 22 47  1  0
 23 48  1  0
 23 49  1  0
 24 50  1  0
 26 51  1  0
 26 52  1  0
 27 53  1  0
 27 54  1  0
 29 55  1  0
 29 56  1  0
 30 57  1  0
 30 58  1  0
 31 59  1  0
 31 60  1  0
 32 61  1  0
 32 62  1  0
M  CHG  1   1  -1
M  END
>  <UniqueID>  (72) 
72

>  <SMILES>  (72) 
[NH-]C(=O)c1cc2ccc(N3CC[C@@H](O)C3)cc2n1C(=O)N1CCC(N2CCOCC2)CC1

>  <Energy>  (72) 
123.01442177816088

>  <Genealogy>  (72) 
[NH-]C(=O)c1cc2ccc(N3CC[C@@H](O)C3)cc2n1C(=O)N1CCC(N2CCOCC2)CC1 (protonated)
[NH-]C(=O)c1cc2ccc(N3CC[C@@H](O)C3)cc2n1C(=O)N1CCC(N2CCOCC2)CC1 (3D coordinates assigned)
[NH-]C(=O)c1cc2ccc(N3CC[C@@H](O)C3)cc2n1C(=O)N1CCC(N2CCOCC2)CC1 (nonaromatic ring conformer: 123.01442177816088 kcal/mol)

>  <smiles>  (72) 
NC(=O)c1cc2ccc(N3CC[C@@H](O)C3)cc2n1C(=O)N1CCC(N2CCOCC2)CC1

>  <score_type>  (72) 
oracle

>  <origin>  (72) 
adg

>  <m_score__min__energy>  (72) 
-9.9399999999999995

>  <m_primary>  (72) 
energy

$$$$
72:0
     RDKit          3D

 49 50  0  0  0  0  0  0  0  0999 V2000
  137.0040  160.0790  130.6560 C   0  0  0  0  0  0  0  0  0  0  0  0
  138.3830  159.9190  130.9030 O   0  0  0  0  0  0  0  0  0  0  0  0
  138.7010  158.5540  131.1080 C   0  0  0  0  0  0  0  0  0  0  0  0
  139.6880  158.4150  132.2750 C   0  0  0  0  0  0  0  0  0  0  0  0
  140.6690  159.3870  132.1630 F   0  0  0  0  0  0  0  0  0  0  0  0
  140.2940  157.1720  132.2130 F   0  0  0  0  0  0  0  0  0  0  0  0
  138.9960  158.5510  133.6380 C   0  0  0  0  0  0  0  0  0  0  0  0
  139.9500  158.6330  134.6960 O   0  0  0  0  0  0  0  0  0  0  0  0
  139.9470  157.7970  135.8200 C   0  0  0  0  0  0  0  0  0  0  0  0
  139.1670  158.0160  136.7850 O   0  0  0  0  0  0  0  0  0  0  0  0
  140.8360  156.6810  135.8830 N   0  0  0  0  0  0  0  0  0  0  0  0
  141.1090  155.8120  134.7430 C   0  0  0  0  0  0  0  0  0  0  0  0
  142.5980  155.4620  134.6550 C   0  0  0  0  0  0  0  0  0  0  0  0
  143.4160  156.6460  134.2120 C   0  0  0  0  0  0  0  0  0  0  0  0
  142.7790  157.8640  133.8700 C   0  0  0  0  0  0  0  0  0  0  0  0
  143.5290  158.9590  133.4100 C   0  0  0  0  0  0  0  0  0  0  0  0
  144.9090  158.8070  133.3070 C   0  0  0  0  0  0  0  0  0  0  0  0
  145.8640  159.6910  132.8580 C   0  0  0  0  0  0  0  0  0  0  0  0
  147.0720  159.0070  132.9560 C   0  0  0  0  0  0  0  0  0  0  0  0
  148.3770  159.6160  132.6310 C   0  0  0  0  0  0  0  0  0  0  0  0
  149.6020  158.9530  132.9480 N   0  0  0  0  0  0  0  0  0  0  0  0
  148.4130  160.7650  132.1150 O   0  0  0  0  0  0  0  0  0  0  0  0
  146.8760  157.7460  133.4340 N   0  0  0  0  0  0  0  0  0  0  0  0
  147.8570  156.7050  133.5730 C   0  0  0  0  0  0  0  0  0  0  0  0
  148.6100  156.4120  132.6050 O   0  0  0  0  0  0  0  0  0  0  0  0
  147.9760  156.0190  134.7870 O   0  0  0  0  0  0  0  0  0  0  0  0
  147.5150  154.6850  134.9630 C   0  0  0  0  0  0  0  0  0  0  0  0
  145.5440  157.6390  133.6450 C   0  0  0  0  0  0  0  0  0  0  0  0
  144.8180  156.5250  134.0830 C   0  0  0  0  0  0  0  0  0  0  0  0
  136.4650  160.1415  131.6128 H   0  0  0  0  0  0  0  0  0  0  0  0
  136.8391  161.0023  130.0812 H   0  0  0  0  0  0  0  0  0  0  0  0
  136.6321  159.2180  130.0812 H   0  0  0  0  0  0  0  0  0  0  0  0
  137.7816  157.9966  131.3401 H   0  0  0  0  0  0  0  0  0  0  0  0
  139.1619  158.1494  130.1949 H   0  0  0  0  0  0  0  0  0  0  0  0
  138.3807  159.4628  133.6384 H   0  0  0  0  0  0  0  0  0  0  0  0
  138.3709  157.6607  133.8013 H   0  0  0  0  0  0  0  0  0  0  0  0
  140.5285  154.8841  134.8524 H   0  0  0  0  0  0  0  0  0  0  0  0
  140.8220  156.3439  133.8239 H   0  0  0  0  0  0  0  0  0  0  0  0
  142.9480  155.1358  135.6455 H   0  0  0  0  0  0  0  0  0  0  0  0
  142.7214  154.6592  133.9132 H   0  0  0  0  0  0  0  0  0  0  0  0
  141.6868  157.9532  133.9655 H   0  0  0  0  0  0  0  0  0  0  0  0
  143.0411  159.9071  133.1396 H   0  0  0  0  0  0  0  0  0  0  0  0
  145.7060  160.7185  132.4985 H   0  0  0  0  0  0  0  0  0  0  0  0
  149.6120  158.0890  133.5350 H   0  0  0  0  0  0  0  0  0  0  0  0
  150.5140  159.3810  132.6760 H   0  0  0  0  0  0  0  0  0  0  0  0
  147.4381  154.4624  136.0375 H   0  0  0  0  0  0  0  0  0  0  0  0
  146.5263  154.5738  134.4938 H   0  0  0  0  0  0  0  0  0  0  0  0
  148.2241  153.9871  134.4938 H   0  0  0  0  0  0  0  0  0  0  0  0
  145.3263  155.5789  134.3208 H   0  0  0  0  0  0  0  0  0  0  0  0
  1  2  1  0
  2  3  1  0
  3  4  1  0
  4  5  1  0
  4  6  1  0
  4  7  1  0
  7  8  1  0
  8  9  1  0
  9 10  2  0
  9 11  1  0
 11 12  1  0
 12 13  1  0
 13 14  1  0
 14 15  2  0
 15 16  1  0
 16 17  2  0
 17 18  1  0
 18 19  2  0
 19 20  1  0
 20 21  1  0
 20 22  2  0
 19 23  1  0
 23 24  1  0
 24 25  2  0
 24 26  1  0
 26 27  1  0
 23 28  1  0
 28 29  2  0
 29 14  1  0
 28 17  1  0
  1 30  1  0
  1 31  1  0
  1 32  1  0
  3 33  1  0
  3 34  1  0
  7 35  1  0
  7 36  1  0
 12 37  1  0
 12 38  1  0
 13 39  1  0
 13 40  1  0
 15 41  1  0
 16 42  1  0
 18 43  1  0
 21 44  1  0
 21 45  1  0
 27 46  1  0
 27 47  1  0
 27 48  1  0
 29 49  1  0
M  CHG  1  11  -1
M  END
>  <UniqueID>  (73) 
73

>  <SMILES>  (73) 
COCC(F)(F)COC(=O)[N-]CCc1ccc2cc(C(N)=O)n(C(=O)OC)c2c1

>  <Energy>  (73) 
79.86573654454976

>  <Genealogy>  (73) 
COCC(F)(F)COC(=O)[N-]CCc1ccc2cc(C(N)=O)n(C(=O)OC)c2c1 (protonated)
COCC(F)(F)COC(=O)[N-]CCc1ccc2cc(C(N)=O)n(C(=O)OC)c2c1 (3D coordinates assigned)
COCC(F)(F)COC(=O)[N-]CCc1ccc2cc(C(N)=O)n(C(=O)OC)c2c1 (optimized conformer: 79.86573654454976 kcal/mol)

>  <smiles>  (73) 
COCC(F)(F)COC(=O)NCCc1ccc2cc(C(N)=O)n(C(=O)OC)c2c1

>  <score_type>  (73) 
oracle

>  <origin>  (73) 
adg

>  <m_score__min__energy>  (73) 
-6.46

>  <m_primary>  (73) 
energy

$$$$
73:0
     RDKit          3D

 49 50  0  0  0  0  0  0  0  0999 V2000
  148.0040  153.5040  137.4560 C   0  0  0  0  0  0  0  0  0  0  0  0
  146.9860  153.3680  136.4900 O   0  0  0  0  0  0  0  0  0  0  0  0
  145.7110  153.4250  137.1030 C   0  0  0  0  0  0  0  0  0  0  0  0
  144.7020  154.1160  136.1810 C   0  0  0  0  0  0  0  0  0  0  0  0
  145.3420  155.1070  135.3790 O   0  0  0  0  0  0  0  0  0  0  0  0
  145.8980  154.8420  134.1230 C   0  0  0  0  0  0  0  0  0  0  0  0
  145.4770  153.8760  133.4290 O   0  0  0  0  0  0  0  0  0  0  0  0
  146.9330  155.6930  133.6080 N   0  0  0  0  0  0  0  0  0  0  0  0
  148.1510  155.3290  133.1150 C   0  0  0  0  0  0  0  0  0  0  0  0
  148.7360  153.9730  133.1620 C   0  0  0  0  0  0  0  0  0  0  0  0
  148.2380  152.9900  134.0670 N   0  0  0  0  0  0  0  0  0  0  0  0
  149.7200  153.6920  132.4270 O   0  0  0  0  0  0  0  0  0  0  0  0
  148.8300  156.4400  132.6200 C   0  0  0  0  0  0  0  0  0  0  0  0
  147.9880  157.5080  132.8340 C   0  0  0  0  0  0  0  0  0  0  0  0
  148.1500  158.8530  132.5160 C   0  0  0  0  0  0  0  0  0  0  0  0
  147.0980  159.7330  132.8180 C   0  0  0  0  0  0  0  0  0  0  0  0
  145.9120  159.2560  133.4320 C   0  0  0  0  0  0  0  0  0  0  0  0
  144.7690  160.1930  133.7060 C   0  0  0  0  0  0  0  0  0  0  0  0
  143.4990  159.4810  133.5420 C   0  0  0  0  0  0  0  0  0  0  0  0
  142.4660  158.8730  133.4160 C   0  0  0  0  0  0  0  0  0  0  0  0
  141.2190  158.1130  133.2440 C   0  0  0  0  0  0  0  0  0  0  0  0
  141.4870  156.6770  133.0080 N   0  0  0  0  0  0  0  0  0  0  0  0
  142.6110  156.2310  133.8480 C   0  0  0  0  0  0  0  0  0  0  0  0
  140.2960  155.8520  133.2920 C   0  0  0  0  0  0  0  0  0  0  0  0
  145.7820  157.8820  133.7350 C   0  0  0  0  0  0  0  0  0  0  0  0
  146.8520  157.0300  133.4340 C   0  0  0  0  0  0  0  0  0  0  0  0
  147.5645  153.4453  138.4626 H   0  0  0  0  0  0  0  0  0  0  0  0
  148.7398  152.6962  137.3295 H   0  0  0  0  0  0  0  0  0  0  0  0
  148.5019  154.4766  137.3295 H   0  0  0  0  0  0  0  0  0  0  0  0
  145.3657  152.4025  137.3156 H   0  0  0  0  0  0  0  0  0  0  0  0
  145.7911  154.0005  138.0370 H   0  0  0  0  0  0  0  0  0  0  0  0
  144.2403  153.3640  135.5242 H   0  0  0  0  0  0  0  0  0  0  0  0
  143.9367  154.6057  136.8011 H   0  0  0  0  0  0  0  0  0  0  0  0
  147.2410  152.9980  134.3740 H   0  0  0  0  0  0  0  0  0  0  0  0
  149.8274  156.4598  132.1564 H   0  0  0  0  0  0  0  0  0  0  0  0
  149.0741  159.2160  132.0424 H   0  0  0  0  0  0  0  0  0  0  0  0
  147.1948  160.8017  132.5761 H   0  0  0  0  0  0  0  0  0  0  0  0
  144.8456  160.5724  134.7356 H   0  0  0  0  0  0  0  0  0  0  0  0
  144.8095  161.0348  132.9991 H   0  0  0  0  0  0  0  0  0  0  0  0
  140.6083  158.2179  134.1528 H   0  0  0  0  0  0  0  0  0  0  0  0
  140.6889  158.5137  132.3674 H   0  0  0  0  0  0  0  0  0  0  0  0
  141.7600  156.5340  132.0050 H   0  0  0  0  0  0  0  0  0  0  0  0
  142.3409  156.3382  134.9089 H   0  0  0  0  0  0  0  0  0  0  0  0
  142.8346  155.1760  133.6313 H   0  0  0  0  0  0  0  0  0  0  0  0
  143.4971  156.8456  133.6313 H   0  0  0  0  0  0  0  0  0  0  0  0
  140.1642  155.7607  134.3803 H   0  0  0  0  0  0  0  0  0  0  0  0
  139.4068  156.3286  132.8537 H   0  0  0  0  0  0  0  0  0  0  0  0
  140.4296  154.8520  132.8537 H   0  0  0  0  0  0  0  0  0  0  0  0
  144.8629  157.4911  134.1960 H   0  0  0  0  0  0  0  0  0  0  0  0
  1  2  1  0
  2  3  1  0
  3  4  1  0
  4  5  1  0
  5  6  1  0
  6  7  2  0
  6  8  1  0
  8  9  1  0
  9 10  1  0
 10 11  1  0
 10 12  2  0
  9 13  2  0
 13 14  1  0
 14 15  2  0
 15 16  1  0
 16 17  2  0
 17 18  1  0
 18 19  1  0
 19 20  3  0
 20 21  1  0
 21 22  1  0
 22 23  1  0
 22 24  1  0
 17 25  1  0
 25 26  2  0
 26  8  1  0
 26 14  1  0
  1 27  1  0
  1 28  1  0
  1 29  1  0
  3 30  1  0
  3 31  1  0
  4 32  1  0
  4 33  1  0
 11 34  1  0
 13 35  1  0
 15 36  1  0
 16 37  1  0
 18 38  1  0
 18 39  1  0
 21 40  1  0
 21 41  1  0
 22 42  1  0
 23 43  1  0
 23 44  1  0
 23 45  1  0
 24 46  1  0
 24 47  1  0
 24 48  1  0
 25 49  1  0
M  CHG  2  11  -1  22   1
M  END
>  <UniqueID>  (74) 
74

>  <SMILES>  (74) 
COCCOC(=O)n1c(C([NH-])=O)cc2ccc(CC#CC[NH+](C)C)cc21

>  <Energy>  (74) 
80.93944170337107

>  <Genealogy>  (74) 
COCCOC(=O)n1c(C([NH-])=O)cc2ccc(CC#CC[NH+](C)C)cc21 (protonated)
COCCOC(=O)n1c(C([NH-])=O)cc2ccc(CC#CC[NH+](C)C)cc21 (3D coordinates assigned)
COCCOC(=O)n1c(C([NH-])=O)cc2ccc(CC#CC[NH+](C)C)cc21 (optimized conformer: 80.93944170337107 kcal/mol)

>  <smiles>  (74) 
COCCOC(=O)n1c(C(N)=O)cc2ccc(CC#CCN(C)C)cc21

>  <score_type>  (74) 
oracle

>  <origin>  (74) 
adg

>  <m_score__min__energy>  (74) 
-6.3399999999999999

>  <m_primary>  (74) 
energy

$$$$
74:0
     RDKit          3D

 45 47  0  0  0  0  0  0  0  0999 V2000
  138.6280  159.6510  131.1310 C   0  0  0  0  0  0  0  0  0  0  0  0
  140.0410  159.3750  131.6350 C   0  0  0  0  0  0  0  0  0  0  0  0
  140.3630  160.2370  132.7240 O   0  0  0  0  0  0  0  0  0  0  0  0
  141.5400  160.1260  133.4740 C   0  0  0  0  0  0  0  0  0  0  0  0
  142.2410  161.1460  133.7160 O   0  0  0  0  0  0  0  0  0  0  0  0
  141.9350  158.8470  133.9920 N   0  0  0  0  0  0  0  0  0  0  0  0
  141.1490  157.9030  134.5820 C   0  0  0  0  0  0  0  0  0  0  0  0
  139.7290  158.0670  134.9620 C   0  0  0  0  0  0  0  0  0  0  0  0
  139.3500  158.2350  136.3270 N   0  0  0  0  0  0  0  0  0  0  0  0
  138.8350  158.0110  134.0770 O   0  0  0  0  0  0  0  0  0  0  0  0
  141.8900  156.7580  134.8670 C   0  0  0  0  0  0  0  0  0  0  0  0
  143.1680  157.0360  134.4400 C   0  0  0  0  0  0  0  0  0  0  0  0
  144.3140  156.2480  134.4740 C   0  0  0  0  0  0  0  0  0  0  0  0
  145.4960  156.7820  133.9370 C   0  0  0  0  0  0  0  0  0  0  0  0
  145.5170  158.0830  133.3680 C   0  0  0  0  0  0  0  0  0  0  0  0
  146.7390  158.6160  132.8120 N   0  0  0  0  0  0  0  0  0  0  0  0
  146.9420  160.0690  132.7300 C   0  0  0  0  0  0  0  0  0  0  0  0
  147.9780  160.4020  131.6520 C   0  0  0  0  0  0  0  0  0  0  0  0
  149.2690  159.7280  131.9110 N   0  0  0  0  0  0  0  0  0  0  0  0
  150.1250  159.7960  130.7160 C   0  0  0  0  0  0  0  0  0  0  0  0
  149.1540  158.3340  132.4160 C   0  0  0  0  0  0  0  0  0  0  0  0
  147.7550  157.7240  132.2370 C   0  0  0  0  0  0  0  0  0  0  0  0
  144.3280  158.8510  133.3560 C   0  0  0  0  0  0  0  0  0  0  0  0
  143.1690  158.3010  133.9150 C   0  0  0  0  0  0  0  0  0  0  0  0
  137.9520  159.7830  131.9887 H   0  0  0  0  0  0  0  0  0  0  0  0
  138.6287  160.5660  130.5204 H   0  0  0  0  0  0  0  0  0  0  0  0
  138.2843  158.8030  130.5204 H   0  0  0  0  0  0  0  0  0  0  0  0
  140.1075  158.3293  131.9698 H   0  0  0  0  0  0  0  0  0  0  0  0
  140.7517  159.5583  130.8157 H   0  0  0  0  0  0  0  0  0  0  0  0
  139.4770  159.1520  136.8100 H   0  0  0  0  0  0  0  0  0  0  0  0
  141.5299  155.8294  135.3340 H   0  0  0  0  0  0  0  0  0  0  0  0
  144.2945  155.2376  134.9083 H   0  0  0  0  0  0  0  0  0  0  0  0
  146.4191  156.1842  133.9572 H   0  0  0  0  0  0  0  0  0  0  0  0
  145.9878  160.5549  132.4784 H   0  0  0  0  0  0  0  0  0  0  0  0
  147.3068  160.4343  133.7013 H   0  0  0  0  0  0  0  0  0  0  0  0
  147.5941  160.0745  130.6746 H   0  0  0  0  0  0  0  0  0  0  0  0
  148.1488  161.4886  131.6628 H   0  0  0  0  0  0  0  0  0  0  0  0
  151.1778  159.8797  131.0234 H   0  0  0  0  0  0  0  0  0  0  0  0
  149.9897  158.8843  130.1156 H   0  0  0  0  0  0  0  0  0  0  0  0
  149.8474  160.6749  130.1156 H   0  0  0  0  0  0  0  0  0  0  0  0
  149.8776  157.7077  131.8737 H   0  0  0  0  0  0  0  0  0  0  0  0
  149.3537  158.3670  133.4972 H   0  0  0  0  0  0  0  0  0  0  0  0
  147.5528  157.5854  131.1647 H   0  0  0  0  0  0  0  0  0  0  0  0
  147.7162  156.7534  132.7532 H   0  0  0  0  0  0  0  0  0  0  0  0
  144.3153  159.8593  132.9164 H   0  0  0  0  0  0  0  0  0  0  0  0
  1  2  1  0
  2  3  1  0
  3  4  1  0
  4  5  2  0
  4  6  1  0
  6  7  1  0
  7  8  1  0
  8  9  1  0
  8 10  2  0
  7 11  2  0
 11 12  1  0
 12 13  2  0
 13 14  1  0
 14 15  2  0
 15 16  1  0
 16 17  1  0
 17 18  1  0
 18 19  1  0
 19 20  1  0
 19 21  1  0
 21 22  1  0
 15 23  1  0
 23 24  2  0
 24  6  1  0
 24 12  1  0
 22 16  1  0
  1 25  1  0
  1 26  1  0
  1 27  1  0
  2 28  1  0
  2 29  1  0
  9 30  1  0
 11 31  1  0
 13 32  1  0
 14 33  1  0
 17 34  1  0
 17 35  1  0
 18 36  1  0
 18 37  1  0
 20 38  1  0
 20 39  1  0
 20 40  1  0
 21 41  1  0
 21 42  1  0
 22 43  1  0
 22 44  1  0
 23 45  1  0
M  CHG  1   9  -1
M  END
>  <UniqueID>  (75) 
75

>  <SMILES>  (75) 
CCOC(=O)n1c(C([NH-])=O)cc2ccc(N3CCN(C)CC3)cc21

>  <Energy>  (75) 
90.55321208084567

>  <Genealogy>  (75) 
CCOC(=O)n1c(C([NH-])=O)cc2ccc(N3CCN(C)CC3)cc21 (protonated)
CCOC(=O)n1c(C([NH-])=O)cc2ccc(N3CCN(C)CC3)cc21 (3D coordinates assigned)
CCOC(=O)n1c(C([NH-])=O)cc2ccc(N3CCN(C)CC3)cc21 (nonaromatic ring conformer: 90.55321208084567 kcal/mol)

>  <smiles>  (75) 
CCOC(=O)n1c(C(N)=O)cc2ccc(N3CCN(C)CC3)cc21

>  <score_type>  (75) 
oracle

>  <origin>  (75) 
adg

>  <m_score__min__energy>  (75) 
-7.3600000000000003

>  <m_primary>  (75) 
energy

$$$$
75:0
     RDKit          3D

 45 46  0  0  0  0  0  0  0  0999 V2000
  147.7760  154.1610  132.9840 C   0  0  0  0  0  0  0  0  0  0  0  0
  147.5790  155.6320  132.6250 C   0  0  0  0  0  0  0  0  0  0  0  0
  148.4460  156.4990  133.4570 N   0  0  0  0  0  0  0  0  0  0  0  0
  147.8250  156.6950  134.7820 C   0  0  0  0  0  0  0  0  0  0  0  0
  148.6680  157.8030  132.7850 C   0  0  0  0  0  0  0  0  0  0  0  0
  148.4830  159.0100  133.7290 C   0  0  0  0  0  0  0  0  0  0  0  0
  147.6730  160.1640  133.1200 C   0  0  0  0  0  0  0  0  0  0  0  0
  146.1970  160.0310  133.3940 C   0  0  0  0  0  0  0  0  0  0  0  0
  145.4390  161.1660  133.7770 C   0  0  0  0  0  0  0  0  0  0  0  0
  144.0740  161.0430  134.0870 C   0  0  0  0  0  0  0  0  0  0  0  0
  143.4960  159.7800  133.9970 C   0  0  0  0  0  0  0  0  0  0  0  0
  142.2140  159.3710  134.2850 C   0  0  0  0  0  0  0  0  0  0  0  0
  142.2010  157.9980  134.0480 C   0  0  0  0  0  0  0  0  0  0  0  0
  140.9920  157.1580  134.1880 C   0  0  0  0  0  0  0  0  0  0  0  0
  140.7380  156.0760  133.2960 N   0  0  0  0  0  0  0  0  0  0  0  0
  140.1520  157.4210  135.0900 O   0  0  0  0  0  0  0  0  0  0  0  0
  143.4280  157.5760  133.6280 N   0  0  0  0  0  0  0  0  0  0  0  0
  143.8460  156.2290  133.3550 C   0  0  0  0  0  0  0  0  0  0  0  0
  143.6080  155.7090  132.2320 O   0  0  0  0  0  0  0  0  0  0  0  0
  144.7110  155.2710  134.6010 S   0  0  0  0  0  0  0  0  0  0  0  0
  143.2060  154.9590  135.5720 C   0  0  0  0  0  0  0  0  0  0  0  0
  144.2090  158.6780  133.6030 C   0  0  0  0  0  0  0  0  0  0  0  0
  145.5710  158.7690  133.3020 C   0  0  0  0  0  0  0  0  0  0  0  0
  147.7909  154.0494  134.0782 H   0  0  0  0  0  0  0  0  0  0  0  0
  146.9493  153.5677  132.5662 H   0  0  0  0  0  0  0  0  0  0  0  0
  148.7297  153.8061  132.5662 H   0  0  0  0  0  0  0  0  0  0  0  0
  147.8315  155.7811  131.5648 H   0  0  0  0  0  0  0  0  0  0  0  0
  146.5290  155.9021  132.8111 H   0  0  0  0  0  0  0  0  0  0  0  0
  148.5584  156.4635  135.5685 H   0  0  0  0  0  0  0  0  0  0  0  0
  147.4973  157.7403  134.8823 H   0  0  0  0  0  0  0  0  0  0  0  0
  146.9566  156.0273  134.8823 H   0  0  0  0  0  0  0  0  0  0  0  0
  149.6940  157.8225  132.3888 H   0  0  0  0  0  0  0  0  0  0  0  0
  147.9164  157.8927  131.9868 H   0  0  0  0  0  0  0  0  0  0  0  0
  147.9637  158.6637  134.6348 H   0  0  0  0  0  0  0  0  0  0  0  0
  149.4879  159.4046  133.9400 H   0  0  0  0  0  0  0  0  0  0  0  0
  148.0290  161.1119  133.5497 H   0  0  0  0  0  0  0  0  0  0  0  0
  147.8174  160.1391  132.0298 H   0  0  0  0  0  0  0  0  0  0  0  0
  145.9237  162.1519  133.8320 H   0  0  0  0  0  0  0  0  0  0  0  0
  143.4806  161.9178  134.3914 H   0  0  0  0  0  0  0  0  0  0  0  0
  141.3767  159.9958  134.6294 H   0  0  0  0  0  0  0  0  0  0  0  0
  141.4630  155.7600  132.6130 H   0  0  0  0  0  0  0  0  0  0  0  0
  143.4448  155.0085  136.6446 H   0  0  0  0  0  0  0  0  0  0  0  0
  142.4490  155.7193  135.3295 H   0  0  0  0  0  0  0  0  0  0  0  0
  142.8136  153.9604  135.3295 H   0  0  0  0  0  0  0  0  0  0  0  0
  146.1416  157.8782  133.0005 H   0  0  0  0  0  0  0  0  0  0  0  0
  1  2  1  0
  2  3  1  0
  3  4  1  0
  3  5  1  0
  5  6  1  0
  6  7  1  0
  7  8  1  0
  8  9  2  0
  9 10  1  0
 10 11  2  0
 11 12  1  0
 12 13  2  0
 13 14  1  0
 14 15  1  0
 14 16  2  0
 13 17  1  0
 17 18  1  0
 18 19  2  0
 18 20  1  0
 20 21  1  0
 17 22  1  0
 22 23  2  0
 23  8  1  0
 22 11  1  0
  1 24  1  0
  1 25  1  0
  1 26  1  0
  2 27  1  0
  2 28  1  0
  4 29  1  0
  4 30  1  0
  4 31  1  0
  5 32  1  0
  5 33  1  0
  6 34  1  0
  6 35  1  0
  7 36  1  0
  7 37  1  0
  9 38  1  0
 10 39  1  0
 12 40  1  0
 15 41  1  0
 21 42  1  0
 21 43  1  0
 21 44  1  0
 23 45  1  0
M  CHG  1  15  -1
M  END
>  <UniqueID>  (76) 
76

>  <SMILES>  (76) 
CCN(C)CCCc1ccc2cc(C([NH-])=O)n(C(=O)SC)c2c1

>  <Energy>  (76) 
74.49216345567

>  <Genealogy>  (76) 
CCN(C)CCCc1ccc2cc(C([NH-])=O)n(C(=O)SC)c2c1 (protonated)
CCN(C)CCCc1ccc2cc(C([NH-])=O)n(C(=O)SC)c2c1 (3D coordinates assigned)
CCN(C)CCCc1ccc2cc(C([NH-])=O)n(C(=O)SC)c2c1 (optimized conformer: 74.49216345567 kcal/mol)

>  <smiles>  (76) 
CCN(C)CCCc1ccc2cc(C(N)=O)n(C(=O)SC)c2c1

>  <score_type>  (76) 
oracle

>  <origin>  (76) 
adg

>  <m_score__min__energy>  (76) 
-7.2800000000000002

>  <m_primary>  (76) 
energy

$$$$
76:0
     RDKit          3D

 50 53  0  0  0  0  0  0  0  0999 V2000
  146.6260  155.7510  134.1690 C   0  0  0  0  0  0  0  0  0  0  0  0
  146.8160  156.6040  132.9550 C   0  0  0  0  0  0  0  0  0  0  0  0
  147.0620  156.0530  131.8500 O   0  0  0  0  0  0  0  0  0  0  0  0
  146.7010  158.0350  133.0280 N   0  0  0  0  0  0  0  0  0  0  0  0
  147.7070  158.9470  132.9120 C   0  0  0  0  0  0  0  0  0  0  0  0
  149.1070  158.6470  132.5470 C   0  0  0  0  0  0  0  0  0  0  0  0
  149.4930  157.3520  132.0830 N   0  0  0  0  0  0  0  0  0  0  0  0
  149.9690  159.5640  132.5990 O   0  0  0  0  0  0  0  0  0  0  0  0
  147.2370  160.2320  133.1670 C   0  0  0  0  0  0  0  0  0  0  0  0
  145.8980  160.0820  133.4410 C   0  0  0  0  0  0  0  0  0  0  0  0
  144.9440  161.0340  133.7870 C   0  0  0  0  0  0  0  0  0  0  0  0
  143.6410  160.5900  134.0650 C   0  0  0  0  0  0  0  0  0  0  0  0
  143.3150  159.2100  134.0080 C   0  0  0  0  0  0  0  0  0  0  0  0
  141.9360  158.7510  134.3160 C   0  0  0  0  0  0  0  0  0  0  0  0
  141.5850  158.3730  135.6230 C   0  0  0  0  0  0  0  0  0  0  0  0
  140.2910  157.9310  135.9060 C   0  0  0  0  0  0  0  0  0  0  0  0
  139.3300  157.8770  134.8950 C   0  0  0  0  0  0  0  0  0  0  0  0
  139.6500  158.2800  133.5880 C   0  0  0  0  0  0  0  0  0  0  0  0
  138.5980  158.2410  132.4940 C   0  0  0  0  0  0  0  0  0  0  0  0
  137.9930  159.5580  132.1670 N   0  0  0  0  0  0  0  0  0  0  0  0
  138.9730  160.6150  131.8940 C   0  0  0  0  0  0  0  0  0  0  0  0
  139.0680  160.7870  130.3840 C   0  0  0  0  0  0  0  0  0  0  0  0
  137.8410  160.0960  129.8130 C   0  0  0  0  0  0  0  0  0  0  0  0
  137.0890  159.5290  131.0100 C   0  0  0  0  0  0  0  0  0  0  0  0
  140.9630  158.6900  133.3020 C   0  0  0  0  0  0  0  0  0  0  0  0
  144.3160  158.2740  133.6580 C   0  0  0  0  0  0  0  0  0  0  0  0
  145.5990  158.7470  133.3570 C   0  0  0  0  0  0  0  0  0  0  0  0
  146.7624  156.3635  135.0725 H   0  0  0  0  0  0  0  0  0  0  0  0
  145.6113  155.3264  134.1636 H   0  0  0  0  0  0  0  0  0  0  0  0
  147.3646  154.9359  134.1636 H   0  0  0  0  0  0  0  0  0  0  0  0
  148.7800  156.6270  131.8450 H   0  0  0  0  0  0  0  0  0  0  0  0
  150.4960  157.1470  131.8800 H   0  0  0  0  0  0  0  0  0  0  0  0
  147.8140  161.1684  133.1524 H   0  0  0  0  0  0  0  0  0  0  0  0
  145.2025  162.1018  133.8411 H   0  0  0  0  0  0  0  0  0  0  0  0
  142.8632  161.3212  134.3303 H   0  0  0  0  0  0  0  0  0  0  0  0
  142.3334  158.4255  136.4274 H   0  0  0  0  0  0  0  0  0  0  0  0
  140.0280  157.6243  136.9291 H   0  0  0  0  0  0  0  0  0  0  0  0
  138.3160  157.5167  135.1232 H   0  0  0  0  0  0  0  0  0  0  0  0
  139.0669  157.8434  131.5818 H   0  0  0  0  0  0  0  0  0  0  0  0
  137.7807  157.6089  132.8714 H   0  0  0  0  0  0  0  0  0  0  0  0
  138.6453  161.5572  132.3575 H   0  0  0  0  0  0  0  0  0  0  0  0
  139.9543  160.3446  132.3112 H   0  0  0  0  0  0  0  0  0  0  0  0
  139.0651  161.8545  130.1187 H   0  0  0  0  0  0  0  0  0  0  0  0
  139.9985  160.3574  129.9844 H   0  0  0  0  0  0  0  0  0  0  0  0
  137.2116  160.8182  129.2723 H   0  0  0  0  0  0  0  0  0  0  0  0
  138.1169  159.3072  129.0977 H   0  0  0  0  0  0  0  0  0  0  0  0
  136.1987  160.1413  131.2161 H   0  0  0  0  0  0  0  0  0  0  0  0
  136.7632  158.4987  130.8044 H   0  0  0  0  0  0  0  0  0  0  0  0
  141.2335  158.9668  132.2723 H   0  0  0  0  0  0  0  0  0  0  0  0
  144.0914  157.1977  133.6231 H   0  0  0  0  0  0  0  0  0  0  0  0
  1  2  1  0
  2  3  2  0
  2  4  1  0
  4  5  1  0
  5  6  1  0
  6  7  1  0
  6  8  2  0
  5  9  2  0
  9 10  1  0
 10 11  2  0
 11 12  1  0
 12 13  2  0
 13 14  1  0
 14 15  2  0
 15 16  1  0
 16 17  2  0
 17 18  1  0
 18 19  1  0
 19 20  1  0
 20 21  1  0
 21 22  1  0
 22 23  1  0
 23 24  1  0
 18 25  2  0
 13 26  1  0
 26 27  2  0
 27  4  1  0
 27 10  1  0
 25 14  1  0
 24 20  1  0
  1 28  1  0
  1 29  1  0
  1 30  1  0
  7 31  1  0
  7 32  1  0
  9 33  1  0
 11 34  1  0
 12 35  1  0
 15 36  1  0
 16 37  1  0
 17 38  1  0
 19 39  1  0
 19 40  1  0
 21 41  1  0
 21 42  1  0
 22 43  1  0
 22 44  1  0
 23 45  1  0
 23 46  1  0
 24 47  1  0
 24 48  1  0
 25 49  1  0
 26 50  1  0
M  END
>  <UniqueID>  (77) 
77

>  <SMILES>  (77) 
CC(=O)n1c(C(N)=O)cc2ccc(-c3cccc(CN4CCCC4)c3)cc21

>  <Energy>  (77) 
102.49016699740092

>  <Genealogy>  (77) 
CC(=O)n1c(C(N)=O)cc2ccc(-c3cccc(CN4CCCC4)c3)cc21 (3D coordinates assigned)
CC(=O)n1c(C(N)=O)cc2ccc(-c3cccc(CN4CCCC4)c3)cc21 (nonaromatic ring conformer: 102.49016699740092 kcal/mol)

>  <smiles>  (77) 
CC(=O)n1c(C(N)=O)cc2ccc(-c3cccc(CN4CCCC4)c3)cc21

>  <score_type>  (77) 
oracle

>  <origin>  (77) 
adg

>  <m_score__min__energy>  (77) 
-9.9100000000000001

>  <m_primary>  (77) 
energy

$$$$
77:0
     RDKit          3D

 30 31  0  0  0  0  0  0  0  0999 V2000
  141.7500  153.1890  137.1330 C   0  0  0  0  0  0  0  0  0  0  0  0
  141.2820  152.1880  138.1990 C   0  0  1  0  0  0  0  0  0  0  0  0
  140.4690  151.0710  137.6020 C   0  0  0  0  0  0  0  0  0  0  0  0
  140.6130  150.7400  136.3950 O   0  0  0  0  0  0  0  0  0  0  0  0
  139.5860  150.3600  138.4040 O   0  0  0  0  0  0  0  0  0  0  0  0
  142.4540  151.6360  138.9860 C   0  0  0  0  0  0  0  0  0  0  0  0
  142.2420  150.6080  139.9390 C   0  0  0  0  0  0  0  0  0  0  0  0
  143.3090  150.0940  140.6930 C   0  0  0  0  0  0  0  0  0  0  0  0
  144.5780  150.6170  140.4690 C   0  0  0  0  0  0  0  0  0  0  0  0
  145.7740  150.3230  141.0820 C   0  0  0  0  0  0  0  0  0  0  0  0
  146.7110  151.1560  140.4760 C   0  0  0  0  0  0  0  0  0  0  0  0
  148.1520  151.1220  140.7960 C   0  0  0  0  0  0  0  0  0  0  0  0
  148.9780  152.2720  140.6050 N   0  0  0  0  0  0  0  0  0  0  0  0
  148.6740  150.0450  141.1880 O   0  0  0  0  0  0  0  0  0  0  0  0
  146.1190  151.9440  139.5350 N   0  0  0  0  0  0  0  0  0  0  0  0
  146.7280  153.0110  138.7860 C   0  0  0  0  0  0  0  0  0  0  0  0
  147.0670  154.0800  139.3570 O   0  0  0  0  0  0  0  0  0  0  0  0
  146.9540  152.8700  137.4220 O   0  0  0  0  0  0  0  0  0  0  0  0
  144.8110  151.5990  139.5410 C   0  0  0  0  0  0  0  0  0  0  0  0
  143.7620  152.1460  138.7910 C   0  0  0  0  0  0  0  0  0  0  0  0
  142.1667  154.0803  137.6248 H   0  0  0  0  0  0  0  0  0  0  0  0
  142.5229  152.7215  136.5052 H   0  0  0  0  0  0  0  0  0  0  0  0
  140.8957  153.4823  136.5052 H   0  0  0  0  0  0  0  0  0  0  0  0
  140.6298  152.7391  138.8925 H   0  0  0  0  0  0  0  0  0  0  0  0
  141.2285  150.2079  140.0896 H   0  0  0  0  0  0  0  0  0  0  0  0
  143.1462  149.3016  141.4384 H   0  0  0  0  0  0  0  0  0  0  0  0
  145.9520  149.5873  141.8801 H   0  0  0  0  0  0  0  0  0  0  0  0
  148.6130  153.1240  140.1270 H   0  0  0  0  0  0  0  0  0  0  0  0
  149.9880  152.2410  140.8690 H   0  0  0  0  0  0  0  0  0  0  0  0
  143.9491  152.9529  138.0672 H   0  0  0  0  0  0  0  0  0  0  0  0
  1  2  1  0
  2  3  1  0
  3  4  2  0
  3  5  1  0
  2  6  1  0
  6  7  2  0
  7  8  1  0
  8  9  2  0
  9 10  1  0
 10 11  2  0
 11 12  1  0
 12 13  1  0
 12 14  2  0
 11 15  1  0
 15 16  1  0
 16 17  2  0
 16 18  1  0
 15 19  1  0
 19 20  2  0
 20  6  1  0
 19  9  1  0
  1 21  1  0
  1 22  1  0
  1 23  1  0
  2 24  1  1
  7 25  1  0
  8 26  1  0
 10 27  1  0
 13 28  1  0
 13 29  1  0
 20 30  1  0
M  CHG  2   5  -1  18  -1
M  END
>  <UniqueID>  (78) 
78

>  <SMILES>  (78) 
C[C@@H](C(=O)[O-])c1ccc2cc(C(N)=O)n(C(=O)[O-])c2c1

>  <Energy>  (78) 
69.12183466556951

>  <Genealogy>  (78) 
CC(C(=O)[O-])c1ccc2cc(C(N)=O)n(C(=O)[O-])c2c1 (protonated)
C[C@@H](C(=O)[O-])c1ccc2cc(C(N)=O)n(C(=O)[O-])c2c1 (chirality)
C[C@@H](C(=O)[O-])c1ccc2cc(C(N)=O)n(C(=O)[O-])c2c1 (3D coordinates assigned)
C[C@@H](C(=O)[O-])c1ccc2cc(C(N)=O)n(C(=O)[O-])c2c1 (optimized conformer: 69.12183466556951 kcal/mol)

>  <smiles>  (78) 
CC(C(=O)O)c1ccc2cc(C(N)=O)n(C(=O)O)c2c1

>  <score_type>  (78) 
oracle

>  <origin>  (78) 
adg

>  <m_score__min__energy>  (78) 
-6.96

>  <m_primary>  (78) 
energy

$$$$
78:0
     RDKit          3D

 43 44  0  0  0  0  0  0  0  0999 V2000
  150.2670  150.3760  130.9610 C   0  0  0  0  0  0  0  0  0  0  0  0
  150.1670  151.0870  132.1900 O   0  0  0  0  0  0  0  0  0  0  0  0
  149.4820  152.3000  132.3020 C   0  0  0  0  0  0  0  0  0  0  0  0
  149.9870  153.3670  131.8570 O   0  0  0  0  0  0  0  0  0  0  0  0
  148.1230  152.3250  132.9290 C   0  0  0  0  0  0  0  0  0  0  0  0
  147.7800  153.7060  133.4980 C   0  0  0  0  0  0  0  0  0  0  0  0
  147.9410  154.7520  132.4850 N   0  0  0  0  0  0  0  0  0  0  0  0
  147.6350  156.1440  132.6910 C   0  0  0  0  0  0  0  0  0  0  0  0
  148.6830  157.0940  132.6090 C   0  0  0  0  0  0  0  0  0  0  0  0
  148.4330  158.4650  132.7940 C   0  0  0  0  0  0  0  0  0  0  0  0
  147.1250  158.8570  133.0600 C   0  0  0  0  0  0  0  0  0  0  0  0
  146.6110  160.1090  133.3070 C   0  0  0  0  0  0  0  0  0  0  0  0
  145.2510  159.9120  133.5330 C   0  0  0  0  0  0  0  0  0  0  0  0
  144.2950  161.0150  133.7570 C   0  0  0  0  0  0  0  0  0  0  0  0
  142.9320  160.8960  133.3570 N   0  0  0  0  0  0  0  0  0  0  0  0
  144.6980  162.0970  134.2620 O   0  0  0  0  0  0  0  0  0  0  0  0
  144.9380  158.5880  133.4380 N   0  0  0  0  0  0  0  0  0  0  0  0
  143.6720  157.9660  133.7130 C   0  0  0  0  0  0  0  0  0  0  0  0
  143.4940  157.3540  134.8010 O   0  0  0  0  0  0  0  0  0  0  0  0
  142.6360  158.0600  132.7770 O   0  0  0  0  0  0  0  0  0  0  0  0
  141.3540  157.4630  132.9610 C   0  0  0  0  0  0  0  0  0  0  0  0
  140.2460  158.4910  132.7440 C   0  0  0  0  0  0  0  0  0  0  0  0
  140.7560  159.5820  132.0290 O   0  0  0  0  0  0  0  0  0  0  0  0
  146.0960  157.9560  133.1440 C   0  0  0  0  0  0  0  0  0  0  0  0
  146.3210  156.5840  132.9830 C   0  0  0  0  0  0  0  0  0  0  0  0
  150.4175  149.3061  131.1675 H   0  0  0  0  0  0  0  0  0  0  0  0
  149.3410  150.5111  130.3828 H   0  0  0  0  0  0  0  0  0  0  0  0
  151.1198  150.7613  130.3828 H   0  0  0  0  0  0  0  0  0  0  0  0
  147.3753  152.0587  132.1674 H   0  0  0  0  0  0  0  0  0  0  0  0
  148.1181  151.6039  133.7596 H   0  0  0  0  0  0  0  0  0  0  0  0
  146.7366  153.7014  133.8461 H   0  0  0  0  0  0  0  0  0  0  0  0
  148.4662  153.9195  134.3308 H   0  0  0  0  0  0  0  0  0  0  0  0
  148.1290  154.4300  131.5080 H   0  0  0  0  0  0  0  0  0  0  0  0
  149.7074  156.7537  132.3974 H   0  0  0  0  0  0  0  0  0  0  0  0
  149.2454  159.2039  132.7305 H   0  0  0  0  0  0  0  0  0  0  0  0
  147.1581  161.0631  133.3227 H   0  0  0  0  0  0  0  0  0  0  0  0
  142.6490  160.2250  132.6080 H   0  0  0  0  0  0  0  0  0  0  0  0
  141.2310  156.6414  132.2400 H   0  0  0  0  0  0  0  0  0  0  0  0
  141.2857  157.0800  133.9899 H   0  0  0  0  0  0  0  0  0  0  0  0
  139.4250  158.0308  132.1747 H   0  0  0  0  0  0  0  0  0  0  0  0
  139.8684  158.8348  133.7183 H   0  0  0  0  0  0  0  0  0  0  0  0
  141.7410  159.5480  132.1430 H   0  0  0  0  0  0  0  0  0  0  0  0
  145.4956  155.8635  133.0811 H   0  0  0  0  0  0  0  0  0  0  0  0
  1  2  1  0
  2  3  1  0
  3  4  2  0
  3  5  1  0
  5  6  1  0
  6  7  1  0
  7  8  1  0
  8  9  2  0
  9 10  1  0
 10 11  2  0
 11 12  1  0
 12 13  2  0
 13 14  1  0
 14 15  1  0
 14 16  2  0
 13 17  1  0
 17 18  1  0
 18 19  2  0
 18 20  1  0
 20 21  1  0
 21 22  1  0
 22 23  1  0
 17 24  1  0
 24 25  2  0
 25  8  1  0
 24 11  1  0
  1 26  1  0
  1 27  1  0
  1 28  1  0
  5 29  1  0
  5 30  1  0
  6 31  1  0
  6 32  1  0
  7 33  1  0
  9 34  1  0
 10 35  1  0
 12 36  1  0
 15 37  1  0
 21 38  1  0
 21 39  1  0
 22 40  1  0
 22 41  1  0
 23 42  1  0
 25 43  1  0
M  CHG  1  15  -1
M  END
>  <UniqueID>  (79) 
79

>  <SMILES>  (79) 
COC(=O)CCNc1ccc2cc(C([NH-])=O)n(C(=O)OCCO)c2c1

>  <Energy>  (79) 
72.00667609720551

>  <Genealogy>  (79) 
COC(=O)CCNc1ccc2cc(C([NH-])=O)n(C(=O)OCCO)c2c1 (protonated)
COC(=O)CCNc1ccc2cc(C([NH-])=O)n(C(=O)OCCO)c2c1 (3D coordinates assigned)
COC(=O)CCNc1ccc2cc(C([NH-])=O)n(C(=O)OCCO)c2c1 (optimized conformer: 72.00667609720551 kcal/mol)

>  <smiles>  (79) 
COC(=O)CCNc1ccc2cc(C(N)=O)n(C(=O)OCCO)c2c1

>  <score_type>  (79) 
oracle

>  <origin>  (79) 
adg

>  <m_score__min__energy>  (79) 
-5.9500000000000002

>  <m_primary>  (79) 
energy

$$$$
79:0
     RDKit          3D

 33 34  0  0  0  0  0  0  0  0999 V2000
  147.3290  155.8660  133.8480 C   0  0  0  0  0  0  0  0  0  0  0  0
  147.7520  156.9950  134.6030 O   0  0  0  0  0  0  0  0  0  0  0  0
  147.9550  158.2540  134.0260 C   0  0  0  0  0  0  0  0  0  0  0  0
  148.8570  159.0190  134.4650 O   0  0  0  0  0  0  0  0  0  0  0  0
  147.1350  158.6820  132.8400 C   0  0  2  0  0  0  0  0  0  0  0  0
  147.8350  159.7870  132.0390 C   0  0  0  0  0  0  0  0  0  0  0  0
  145.7520  159.1170  133.2790 C   0  0  0  0  0  0  0  0  0  0  0  0
  145.4220  160.4940  133.3900 C   0  0  0  0  0  0  0  0  0  0  0  0
  144.1430  160.8970  133.8060 C   0  0  0  0  0  0  0  0  0  0  0  0
  143.2100  159.9080  134.0970 C   0  0  0  0  0  0  0  0  0  0  0  0
  141.9130  160.0190  134.5430 C   0  0  0  0  0  0  0  0  0  0  0  0
  141.4550  158.7100  134.6760 C   0  0  0  0  0  0  0  0  0  0  0  0
  140.0670  158.3710  135.0510 C   0  0  0  0  0  0  0  0  0  0  0  0
  139.7000  158.1840  136.4160 N   0  0  0  0  0  0  0  0  0  0  0  0
  139.2030  158.1930  134.1510 O   0  0  0  0  0  0  0  0  0  0  0  0
  142.4320  157.8230  134.3340 N   0  0  0  0  0  0  0  0  0  0  0  0
  142.3880  156.3900  134.4260 C   0  0  0  0  0  0  0  0  0  0  0  0
  141.4880  155.7420  133.8310 O   0  0  0  0  0  0  0  0  0  0  0  0
  143.3540  155.7030  135.1520 O   0  0  0  0  0  0  0  0  0  0  0  0
  143.5000  158.5730  133.9790 C   0  0  0  0  0  0  0  0  0  0  0  0
  144.7720  158.1420  133.5840 C   0  0  0  0  0  0  0  0  0  0  0  0
  147.0268  155.0596  134.5324 H   0  0  0  0  0  0  0  0  0  0  0  0
  146.4755  156.1478  133.2139 H   0  0  0  0  0  0  0  0  0  0  0  0
  148.1576  155.5176  133.2139 H   0  0  0  0  0  0  0  0  0  0  0  0
  147.0287  157.8142  132.1725 H   0  0  0  0  0  0  0  0  0  0  0  0
  148.2922  160.5087  132.7320 H   0  0  0  0  0  0  0  0  0  0  0  0
  148.6161  159.3418  131.4053 H   0  0  0  0  0  0  0  0  0  0  0  0
  147.0987  160.3030  131.4053 H   0  0  0  0  0  0  0  0  0  0  0  0
  146.1784  161.2547  133.1468 H   0  0  0  0  0  0  0  0  0  0  0  0
  143.8869  161.9627  133.8989 H   0  0  0  0  0  0  0  0  0  0  0  0
  141.3561  160.9446  134.7505 H   0  0  0  0  0  0  0  0  0  0  0  0
  139.4700  158.9990  137.0260 H   0  0  0  0  0  0  0  0  0  0  0  0
  145.0049  157.0693  133.5122 H   0  0  0  0  0  0  0  0  0  0  0  0
  1  2  1  0
  2  3  1  0
  3  4  2  0
  3  5  1  0
  5  6  1  0
  5  7  1  0
  7  8  2  0
  8  9  1  0
  9 10  2  0
 10 11  1  0
 11 12  2  0
 12 13  1  0
 13 14  1  0
 13 15  2  0
 12 16  1  0
 16 17  1  0
 17 18  2  0
 17 19  1  0
 16 20  1  0
 20 21  2  0
 21  7  1  0
 20 10  1  0
  1 22  1  0
  1 23  1  0
  1 24  1  0
  5 25  1  6
  6 26  1  0
  6 27  1  0
  6 28  1  0
  8 29  1  0
  9 30  1  0
 11 31  1  0
 14 32  1  0
 21 33  1  0
M  CHG  2  14  -1  19  -1
M  END
>  <UniqueID>  (80) 
80

>  <SMILES>  (80) 
COC(=O)[C@H](C)c1ccc2cc(C([NH-])=O)n(C(=O)[O-])c2c1

>  <Energy>  (80) 
69.04504480657617

>  <Genealogy>  (80) 
COC(=O)C(C)c1ccc2cc(C([NH-])=O)n(C(=O)[O-])c2c1 (protonated)
COC(=O)[C@H](C)c1ccc2cc(C([NH-])=O)n(C(=O)[O-])c2c1 (chirality)
COC(=O)[C@H](C)c1ccc2cc(C([NH-])=O)n(C(=O)[O-])c2c1 (3D coordinates assigned)
COC(=O)[C@H](C)c1ccc2cc(C([NH-])=O)n(C(=O)[O-])c2c1 (optimized conformer: 69.04504480657617 kcal/mol)

>  <smiles>  (80) 
COC(=O)C(C)c1ccc2cc(C(N)=O)n(C(=O)O)c2c1

>  <score_type>  (80) 
oracle

>  <origin>  (80) 
adg

>  <m_score__min__energy>  (80) 
-6.3200000000000003

>  <m_primary>  (80) 
energy

$$$$
80:0
     RDKit          3D

 52 54  0  0  0  0  0  0  0  0999 V2000
  139.0350  157.8370  134.8010 C   0  0  0  0  0  0  0  0  0  0  0  0
  139.4860  158.4270  133.5050 C   0  0  0  0  0  0  0  0  0  0  0  0
  138.8580  159.3840  132.8650 O   0  0  0  0  0  0  0  0  0  0  0  0
  139.5660  159.6180  131.7850 C   0  0  0  0  0  0  0  0  0  0  0  0
  139.2640  160.4860  130.9260 O   0  0  0  0  0  0  0  0  0  0  0  0
  140.6300  158.8520  131.7000 O   0  0  0  0  0  0  0  0  0  0  0  0
  140.6090  158.0900  132.7680 C   0  0  0  0  0  0  0  0  0  0  0  0
  141.6310  157.0390  133.0750 C   0  0  0  0  0  0  0  0  0  0  0  0
  142.9310  157.5070  132.7270 O   0  0  0  0  0  0  0  0  0  0  0  0
  144.0290  157.4300  133.5910 C   0  0  0  0  0  0  0  0  0  0  0  0
  144.0160  156.6370  134.5710 O   0  0  0  0  0  0  0  0  0  0  0  0
  145.1700  158.2720  133.3650 N   0  0  0  0  0  0  0  0  0  0  0  0
  145.2180  159.6350  133.3540 C   0  0  0  0  0  0  0  0  0  0  0  0
  144.1030  160.5450  133.6900 C   0  0  0  0  0  0  0  0  0  0  0  0
  142.7570  160.1170  133.4960 N   0  0  0  0  0  0  0  0  0  0  0  0
  144.3240  161.7120  134.1130 O   0  0  0  0  0  0  0  0  0  0  0  0
  146.5120  160.0740  133.0780 C   0  0  0  0  0  0  0  0  0  0  0  0
  147.2620  158.9290  132.9280 C   0  0  0  0  0  0  0  0  0  0  0  0
  148.6180  158.7750  132.6540 C   0  0  0  0  0  0  0  0  0  0  0  0
  149.1240  157.4670  132.5490 C   0  0  0  0  0  0  0  0  0  0  0  0
  148.2680  156.3460  132.7020 C   0  0  0  0  0  0  0  0  0  0  0  0
  148.8270  154.9550  132.5970 C   0  0  0  0  0  0  0  0  0  0  0  0
  148.3780  154.1210  133.7540 C   0  0  0  0  0  0  0  0  0  0  0  0
  147.9820  154.6810  134.8110 O   0  0  0  0  0  0  0  0  0  0  0  0
  148.4040  152.7250  133.6480 O   0  0  0  0  0  0  0  0  0  0  0  0
  149.5690  151.9910  133.2720 C   0  0  0  0  0  0  0  0  0  0  0  0
  149.3320  151.1850  131.9850 C   0  0  2  0  0  0  0  0  0  0  0  0
  148.4480  149.9740  132.2780 C   0  0  0  0  0  0  0  0  0  0  0  0
  150.5780  150.7230  131.4590 O   0  0  0  0  0  0  0  0  0  0  0  0
  150.7590  150.3890  130.1290 N   0  0  0  0  0  0  0  0  0  0  0  0
  149.9470  150.7590  129.2530 O   0  0  0  0  0  0  0  0  0  0  0  0
  151.8010  149.5590  129.7780 O   0  0  0  0  0  0  0  0  0  0  0  0
  146.8990  156.5420  132.9890 C   0  0  0  0  0  0  0  0  0  0  0  0
  146.4280  157.8550  133.1060 C   0  0  0  0  0  0  0  0  0  0  0  0
  139.4708  158.4071  135.6347 H   0  0  0  0  0  0  0  0  0  0  0  0
  137.9375  157.8802  134.8613 H   0  0  0  0  0  0  0  0  0  0  0  0
  139.3646  156.7893  134.8613 H   0  0  0  0  0  0  0  0  0  0  0  0
  141.6031  156.8067  134.1498 H   0  0  0  0  0  0  0  0  0  0  0  0
  141.4049  156.1342  132.4918 H   0  0  0  0  0  0  0  0  0  0  0  0
  142.4740  159.6210  132.6220 H   0  0  0  0  0  0  0  0  0  0  0  0
  146.8601  161.1144  132.9972 H   0  0  0  0  0  0  0  0  0  0  0  0
  149.2732  159.6489  132.5237 H   0  0  0  0  0  0  0  0  0  0  0  0
  150.1939  157.3116  132.3462 H   0  0  0  0  0  0  0  0  0  0  0  0
  148.4774  154.4941  131.6614 H   0  0  0  0  0  0  0  0  0  0  0  0
  149.9255  155.0117  132.6047 H   0  0  0  0  0  0  0  0  0  0  0  0
  150.3977  152.6951  133.1060 H   0  0  0  0  0  0  0  0  0  0  0  0
  149.8115  151.2872  134.0819 H   0  0  0  0  0  0  0  0  0  0  0  0
  148.8367  151.8399  131.2530 H   0  0  0  0  0  0  0  0  0  0  0  0
  148.3531  149.8440  133.3662 H   0  0  0  0  0  0  0  0  0  0  0  0
  147.4518  150.1326  131.8394 H   0  0  0  0  0  0  0  0  0  0  0  0
  148.9026  149.0735  131.8394 H   0  0  0  0  0  0  0  0  0  0  0  0
  146.2208  155.6855  133.1172 H   0  0  0  0  0  0  0  0  0  0  0  0
  1  2  1  0
  2  3  1  0
  3  4  1  0
  4  5  2  0
  4  6  1  0
  6  7  1  0
  7  8  1  0
  8  9  1  0
  9 10  1  0
 10 11  2  0
 10 12  1  0
 12 13  1  0
 13 14  1  0
 14 15  1  0
 14 16  2  0
 13 17  2  0
 17 18  1  0
 18 19  2  0
 19 20  1  0
 20 21  2  0
 21 22  1  0
 22 23  1  0
 23 24  2  0
 23 25  1  0
 25 26  1  0
 26 27  1  0
 27 28  1  0
 27 29  1  0
 29 30  1  0
 30 31  2  0
 30 32  1  0
 21 33  1  0
 33 34  2  0
  7  2  2  0
 34 12  1  0
 34 18  1  0
  1 35  1  0
  1 36  1  0
  1 37  1  0
  8 38  1  0
  8 39  1  0
 15 40  1  0
 17 41  1  0
 19 42  1  0
 20 43  1  0
 22 44  1  0
 22 45  1  0
 26 46  1  0
 26 47  1  0
 27 48  1  6
 28 49  1  0
 28 50  1  0
 28 51  1  0
 33 52  1  0
M  CHG  3  15  -1  30   1  32  -1
M  END
>  <UniqueID>  (81) 
81

>  <SMILES>  (81) 
Cc1oc(=O)oc1COC(=O)n1c(C([NH-])=O)cc2ccc(CC(=O)OC[C@H](C)O[N+](=O)[O-])cc21

>  <Energy>  (81) 
112.55400320020036

>  <Genealogy>  (81) 
Cc1oc(=O)oc1COC(=O)n1c(C([NH-])=O)cc2ccc(CC(=O)OC[C@H](C)O[N+](=O)[O-])cc21 (protonated)
Cc1oc(=O)oc1COC(=O)n1c(C([NH-])=O)cc2ccc(CC(=O)OC[C@H](C)O[N+](=O)[O-])cc21 (3D coordinates assigned)
Cc1oc(=O)oc1COC(=O)n1c(C([NH-])=O)cc2ccc(CC(=O)OC[C@H](C)O[N+](=O)[O-])cc21 (optimized conformer: 112.55400320020036 kcal/mol)

>  <smiles>  (81) 
Cc1oc(=O)oc1COC(=O)n1c(C(N)=O)cc2ccc(CC(=O)OC[C@H](C)O[N+](=O)[O-])cc21

>  <score_type>  (81) 
oracle

>  <origin>  (81) 
adg

>  <m_score__min__energy>  (81) 
-8.5999999999999996

>  <m_primary>  (81) 
energy

$$$$
81:0
     RDKit          3D

 40 42  0  0  0  0  0  0  0  0999 V2000
  149.2730  161.6660  130.6570 C   0  0  0  0  0  0  0  0  0  0  0  0
  149.6270  160.5130  130.0790 C   0  0  0  0  0  0  0  0  0  0  0  0
  149.0090  159.2100  130.4920 C   0  0  0  0  0  0  0  0  0  0  0  0
  148.0780  159.4460  131.5460 O   0  0  0  0  0  0  0  0  0  0  0  0
  148.1320  158.7700  132.7690 C   0  0  0  0  0  0  0  0  0  0  0  0
  149.0240  159.0530  133.6180 O   0  0  0  0  0  0  0  0  0  0  0  0
  147.1550  157.7560  133.0630 N   0  0  0  0  0  0  0  0  0  0  0  0
  145.8850  157.9390  133.5300 C   0  0  0  0  0  0  0  0  0  0  0  0
  145.1780  159.2340  133.6490 C   0  0  0  0  0  0  0  0  0  0  0  0
  145.7830  160.4460  133.1970 N   0  0  0  0  0  0  0  0  0  0  0  0
  144.0040  159.2670  134.1130 O   0  0  0  0  0  0  0  0  0  0  0  0
  145.2910  156.7150  133.8230 C   0  0  0  0  0  0  0  0  0  0  0  0
  146.2410  155.7670  133.5150 C   0  0  0  0  0  0  0  0  0  0  0  0
  146.1930  154.3860  133.6440 C   0  0  0  0  0  0  0  0  0  0  0  0
  147.3400  153.6530  133.2990 C   0  0  0  0  0  0  0  0  0  0  0  0
  148.5040  154.3080  132.8280 C   0  0  0  0  0  0  0  0  0  0  0  0
  149.7320  153.5030  132.4880 C   0  0  0  0  0  0  0  0  0  0  0  0
  149.5010  152.0040  132.7480 C   0  0  0  0  0  0  0  0  0  0  0  0
  149.6140  151.4880  134.1210 C   0  0  0  0  0  0  0  0  0  0  0  0
  149.7070  151.0830  135.2020 N   0  0  0  0  0  0  0  0  0  0  0  0
  149.9830  151.0400  131.6690 C   0  0  0  0  0  0  0  0  0  0  0  0
  148.4910  151.2940  131.8560 C   0  0  0  0  0  0  0  0  0  0  0  0
  148.5160  155.7140  132.7100 C   0  0  0  0  0  0  0  0  0  0  0  0
  147.3560  156.4200  133.0560 C   0  0  0  0  0  0  0  0  0  0  0  0
  149.7410  162.6084  130.3363 H   0  0  0  0  0  0  0  0  0  0  0  0
  148.5139  161.6719  131.4531 H   0  0  0  0  0  0  0  0  0  0  0  0
  150.3873  160.5203  129.2841 H   0  0  0  0  0  0  0  0  0  0  0  0
  148.4872  158.7618  129.6336 H   0  0  0  0  0  0  0  0  0  0  0  0
  149.7941  158.5222  130.8394 H   0  0  0  0  0  0  0  0  0  0  0  0
  146.3090  160.4870  132.2880 H   0  0  0  0  0  0  0  0  0  0  0  0
  144.2786  156.5418  134.2167 H   0  0  0  0  0  0  0  0  0  0  0  0
  145.2848  153.8813  134.0052 H   0  0  0  0  0  0  0  0  0  0  0  0
  147.3343  152.5573  133.3957 H   0  0  0  0  0  0  0  0  0  0  0  0
  149.9752  153.6501  131.4253 H   0  0  0  0  0  0  0  0  0  0  0  0
  150.5612  153.8445  133.1251 H   0  0  0  0  0  0  0  0  0  0  0  0
  150.4993  151.4255  130.7775 H   0  0  0  0  0  0  0  0  0  0  0  0
  150.6245  150.1465  131.6537 H   0  0  0  0  0  0  0  0  0  0  0  0
  147.9308  151.8624  131.0989 H   0  0  0  0  0  0  0  0  0  0  0  0
  147.6101  150.6589  132.0312 H   0  0  0  0  0  0  0  0  0  0  0  0
  149.4132  156.2425  132.3554 H   0  0  0  0  0  0  0  0  0  0  0  0
  1  2  2  0
  2  3  1  0
  3  4  1  0
  4  5  1  0
  5  6  2  0
  5  7  1  0
  7  8  1  0
  8  9  1  0
  9 10  1  0
  9 11  2  0
  8 12  2  0
 12 13  1  0
 13 14  2  0
 14 15  1  0
 15 16  2  0
 16 17  1  0
 17 18  1  0
 18 19  1  0
 19 20  3  0
 18 21  1  0
 21 22  1  0
 16 23  1  0
 23 24  2  0
 24  7  1  0
 24 13  1  0
 22 18  1  0
  1 25  1  0
  1 26  1  0
  2 27  1  0
  3 28  1  0
  3 29  1  0
 10 30  1  0
 12 31  1  0
 14 32  1  0
 15 33  1  0
 17 34  1  0
 17 35  1  0
 21 36  1  0
 21 37  1  0
 22 38  1  0
 22 39  1  0
 23 40  1  0
M  CHG  1  10  -1
M  END
>  <UniqueID>  (82) 
82

>  <SMILES>  (82) 
C=CCOC(=O)n1c(C([NH-])=O)cc2ccc(CC3(C#N)CC3)cc21

>  <Energy>  (82) 
340.069998278842

>  <Genealogy>  (82) 
C=CCOC(=O)n1c(C([NH-])=O)cc2ccc(CC3(C#N)CC3)cc21 (protonated)
C=CCOC(=O)n1c(C([NH-])=O)cc2ccc(CC3(C#N)CC3)cc21 (3D coordinates assigned)
C=CCOC(=O)n1c(C([NH-])=O)cc2ccc(CC3(C#N)CC3)cc21 (nonaromatic ring conformer: 340.069998278842 kcal/mol)

>  <smiles>  (82) 
C=CCOC(=O)n1c(C(N)=O)cc2ccc(CC3(C#N)CC3)cc21

>  <score_type>  (82) 
oracle

>  <origin>  (82) 
adg

>  <m_score__min__energy>  (82) 
-7.8499999999999996

>  <m_primary>  (82) 
energy

$$$$
82:0
     RDKit          3D

 39 41  0  0  0  0  0  0  0  0999 V2000
  148.9860  154.1290  132.5970 C   0  0  0  0  0  0  0  0  0  0  0  0
  147.8220  154.4330  133.5340 C   0  0  0  0  0  0  0  0  0  0  0  0
  147.6030  155.8400  133.6230 O   0  0  0  0  0  0  0  0  0  0  0  0
  146.4570  156.4750  133.1320 C   0  0  0  0  0  0  0  0  0  0  0  0
  145.5310  155.8000  132.6060 O   0  0  0  0  0  0  0  0  0  0  0  0
  146.3320  157.9030  133.2340 N   0  0  0  0  0  0  0  0  0  0  0  0
  147.2650  158.8430  132.9080 C   0  0  0  0  0  0  0  0  0  0  0  0
  148.6670  158.5750  132.5310 C   0  0  0  0  0  0  0  0  0  0  0  0
  149.0350  157.3700  131.8570 N   0  0  0  0  0  0  0  0  0  0  0  0
  149.5620  159.3980  132.8560 O   0  0  0  0  0  0  0  0  0  0  0  0
  146.7350  160.1240  133.0290 C   0  0  0  0  0  0  0  0  0  0  0  0
  145.4400  159.9430  133.4550 C   0  0  0  0  0  0  0  0  0  0  0  0
  144.4470  160.8810  133.7260 C   0  0  0  0  0  0  0  0  0  0  0  0
  143.1840  160.4080  134.1180 C   0  0  0  0  0  0  0  0  0  0  0  0
  142.9370  159.0190  134.2210 C   0  0  0  0  0  0  0  0  0  0  0  0
  141.6440  158.5510  134.6070 N   0  0  0  0  0  0  0  0  0  0  0  0
  141.0710  157.4040  135.3380 C   0  0  0  0  0  0  0  0  0  0  0  0
  139.6450  157.8250  135.1980 C   0  0  0  0  0  0  0  0  0  0  0  0
  139.0850  158.2040  136.4250 O   0  0  0  0  0  0  0  0  0  0  0  0
  140.2410  158.9800  134.4580 C   0  0  0  0  0  0  0  0  0  0  0  0
  143.9640  158.0950  133.9380 C   0  0  0  0  0  0  0  0  0  0  0  0
  145.2200  158.5930  133.5710 C   0  0  0  0  0  0  0  0  0  0  0  0
  149.8825  153.8949  133.1899 H   0  0  0  0  0  0  0  0  0  0  0  0
  148.7306  153.2674  131.9626 H   0  0  0  0  0  0  0  0  0  0  0  0
  149.1845  155.0054  131.9626 H   0  0  0  0  0  0  0  0  0  0  0  0
  146.9122  153.9492  133.1490 H   0  0  0  0  0  0  0  0  0  0  0  0
  148.0633  154.0477  134.5357 H   0  0  0  0  0  0  0  0  0  0  0  0
  150.0250  157.2170  131.5610 H   0  0  0  0  0  0  0  0  0  0  0  0
  148.3510  156.5920  131.7290 H   0  0  0  0  0  0  0  0  0  0  0  0
  147.2436  161.0782  132.8269 H   0  0  0  0  0  0  0  0  0  0  0  0
  144.6457  161.9591  133.6358 H   0  0  0  0  0  0  0  0  0  0  0  0
  142.3804  161.1235  134.3468 H   0  0  0  0  0  0  0  0  0  0  0  0
  141.2797  156.4412  134.8486 H   0  0  0  0  0  0  0  0  0  0  0  0
  141.4426  157.2228  136.3574 H   0  0  0  0  0  0  0  0  0  0  0  0
  138.8437  157.1857  134.7991 H   0  0  0  0  0  0  0  0  0  0  0  0
  139.1390  159.1940  136.4510 H   0  0  0  0  0  0  0  0  0  0  0  0
  139.9191  159.0230  133.4070 H   0  0  0  0  0  0  0  0  0  0  0  0
  139.9845  159.9893  134.8124 H   0  0  0  0  0  0  0  0  0  0  0  0
  143.7832  157.0120  134.0038 H   0  0  0  0  0  0  0  0  0  0  0  0
  1  2  1  0
  2  3  1  0
  3  4  1  0
  4  5  2  0
  4  6  1  0
  6  7  1  0
  7  8  1  0
  8  9  1  0
  8 10  2  0
  7 11  2  0
 11 12  1  0
 12 13  2  0
 13 14  1  0
 14 15  2  0
 15 16  1  0
 16 17  1  0
 17 18  1  0
 18 19  1  0
 18 20  1  0
 15 21  1  0
 21 22  2  0
 22  6  1  0
 22 12  1  0
 20 16  1  0
  1 23  1  0
  1 24  1  0
  1 25  1  0
  2 26  1  0
  2 27  1  0
  9 28  1  0
  9 29  1  0
 11 30  1  0
 13 31  1  0
 14 32  1  0
 17 33  1  0
 17 34  1  0
 18 35  1  0
 19 36  1  0
 20 37  1  0
 20 38  1  0
 21 39  1  0
M  END
>  <UniqueID>  (83) 
83

>  <SMILES>  (83) 
CCOC(=O)n1c(C(N)=O)cc2ccc(N3CC(O)C3)cc21

>  <Energy>  (83) 
119.12209700303646

>  <Genealogy>  (83) 
CCOC(=O)n1c(C(N)=O)cc2ccc(N3CC(O)C3)cc21 (3D coordinates assigned)
CCOC(=O)n1c(C(N)=O)cc2ccc(N3CC(O)C3)cc21 (nonaromatic ring conformer: 119.12209700303646 kcal/mol)

>  <smiles>  (83) 
CCOC(=O)n1c(C(N)=O)cc2ccc(N3CC(O)C3)cc21

>  <score_type>  (83) 
oracle

>  <origin>  (83) 
adg

>  <m_score__min__energy>  (83) 
-6.8799999999999999

>  <m_primary>  (83) 
energy

$$$$
83:0
     RDKit          3D

 43 44  0  0  0  0  0  0  0  0999 V2000
  148.5990  157.5300  131.8520 N   0  0  0  0  0  0  0  0  0  0  0  0
  148.3000  158.4670  132.8880 C   0  0  0  0  0  0  0  0  0  0  0  0
  149.2440  158.9630  133.5580 O   0  0  0  0  0  0  0  0  0  0  0  0
  146.8990  158.8270  133.1980 C   0  0  0  0  0  0  0  0  0  0  0  0
  146.4470  160.1370  133.3480 C   0  0  0  0  0  0  0  0  0  0  0  0
  145.0870  160.0380  133.5250 C   0  0  0  0  0  0  0  0  0  0  0  0
  144.1350  161.0330  133.7240 C   0  0  0  0  0  0  0  0  0  0  0  0
  142.7980  160.6420  133.8980 C   0  0  0  0  0  0  0  0  0  0  0  0
  142.4390  159.2710  133.8800 C   0  0  0  0  0  0  0  0  0  0  0  0
  141.0000  158.8580  134.0540 C   0  0  0  0  0  0  0  0  0  0  0  0
  140.1250  159.2830  132.8610 C   0  0  0  0  0  0  0  0  0  0  0  0
  139.1330  158.1990  132.3760 C   0  0  1  0  0  0  0  0  0  0  0  0
  138.2440  157.8840  133.4180 O   0  0  0  0  0  0  0  0  0  0  0  0
  138.3150  158.6340  131.1500 C   0  0  0  0  0  0  0  0  0  0  0  0
  136.9920  158.9370  131.5050 O   0  0  0  0  0  0  0  0  0  0  0  0
  143.4320  158.2880  133.6750 C   0  0  0  0  0  0  0  0  0  0  0  0
  144.7540  158.7090  133.4840 C   0  0  0  0  0  0  0  0  0  0  0  0
  145.8560  157.9510  133.2830 N   0  0  0  0  0  0  0  0  0  0  0  0
  145.9070  156.5160  133.2280 C   0  0  0  0  0  0  0  0  0  0  0  0
  146.4140  155.9440  132.2250 O   0  0  0  0  0  0  0  0  0  0  0  0
  145.4160  155.7630  134.3000 O   0  0  0  0  0  0  0  0  0  0  0  0
  146.0860  154.6250  134.8410 C   0  0  0  0  0  0  0  0  0  0  0  0
  147.5750  154.9070  135.0280 C   0  0  0  0  0  0  0  0  0  0  0  0
  148.2460  154.6410  133.8480 F   0  0  0  0  0  0  0  0  0  0  0  0
  148.0970  154.1090  136.0280 F   0  0  0  0  0  0  0  0  0  0  0  0
  147.7630  156.2370  135.3610 F   0  0  0  0  0  0  0  0  0  0  0  0
  147.8510  157.1400  131.2390 H   0  0  0  0  0  0  0  0  0  0  0  0
  149.5900  157.2520  131.6680 H   0  0  0  0  0  0  0  0  0  0  0  0
  147.0509  161.0562  133.3288 H   0  0  0  0  0  0  0  0  0  0  0  0
  144.4216  162.0948  133.7444 H   0  0  0  0  0  0  0  0  0  0  0  0
  142.0219  161.4066  134.0497 H   0  0  0  0  0  0  0  0  0  0  0  0
  140.9552  157.7635  134.1541 H   0  0  0  0  0  0  0  0  0  0  0  0
  140.6113  159.3584  134.9532 H   0  0  0  0  0  0  0  0  0  0  0  0
  139.5466  160.1703  133.1577 H   0  0  0  0  0  0  0  0  0  0  0  0
  140.8106  159.4777  132.0231 H   0  0  0  0  0  0  0  0  0  0  0  0
  139.7346  157.3267  132.0808 H   0  0  0  0  0  0  0  0  0  0  0  0
  137.4550  157.4460  133.0020 H   0  0  0  0  0  0  0  0  0  0  0  0
  138.7807  159.5261  130.7059 H   0  0  0  0  0  0  0  0  0  0  0  0
  138.3009  157.8042  130.4281 H   0  0  0  0  0  0  0  0  0  0  0  0
  136.6410  158.1530  132.0030 H   0  0  0  0  0  0  0  0  0  0  0  0
  143.1737  157.2188  133.6656 H   0  0  0  0  0  0  0  0  0  0  0  0
  145.6416  154.3752  135.8157 H   0  0  0  0  0  0  0  0  0  0  0  0
  145.9728  153.7846  134.1403 H   0  0  0  0  0  0  0  0  0  0  0  0
  1  2  1  0
  2  3  2  0
  2  4  1  0
  4  5  2  0
  5  6  1  0
  6  7  2  0
  7  8  1  0
  8  9  2  0
  9 10  1  0
 10 11  1  0
 11 12  1  0
 12 13  1  0
 12 14  1  0
 14 15  1  0
  9 16  1  0
 16 17  2  0
 17 18  1  0
 18 19  1  0
 19 20  2  0
 19 21  1  0
 21 22  1  0
 22 23  1  0
 23 24  1  0
 23 25  1  0
 23 26  1  0
 18  4  1  0
 17  6  1  0
  1 27  1  0
  1 28  1  0
  5 29  1  0
  7 30  1  0
  8 31  1  0
 10 32  1  0
 10 33  1  0
 11 34  1  0
 11 35  1  0
 12 36  1  6
 13 37  1  0
 14 38  1  0
 14 39  1  0
 15 40  1  0
 16 41  1  0
 22 42  1  0
 22 43  1  0
M  END
>  <UniqueID>  (84) 
84

>  <SMILES>  (84) 
NC(=O)c1cc2ccc(CC[C@@H](O)CO)cc2n1C(=O)OCC(F)(F)F

>  <Energy>  (84) 
73.70003218388788

>  <Genealogy>  (84) 
NC(=O)c1cc2ccc(CC[C@@H](O)CO)cc2n1C(=O)OCC(F)(F)F (3D coordinates assigned)
NC(=O)c1cc2ccc(CC[C@@H](O)CO)cc2n1C(=O)OCC(F)(F)F (optimized conformer: 73.70003218388788 kcal/mol)

>  <smiles>  (84) 
NC(=O)c1cc2ccc(CC[C@@H](O)CO)cc2n1C(=O)OCC(F)(F)F

>  <score_type>  (84) 
oracle

>  <origin>  (84) 
adg

>  <m_score__min__energy>  (84) 
-6.9400000000000004

>  <m_primary>  (84) 
energy

$$$$
84:0
     RDKit          3D

 66 67  0  0  0  0  0  0  0  0999 V2000
  139.3370  150.3560  131.8240 C   0  0  0  0  0  0  0  0  0  0  0  0
  140.6960  150.5320  132.4520 C   0  0  0  0  0  0  0  0  0  0  0  0
  141.6480  149.3610  132.5220 C   0  0  0  0  0  0  0  0  0  0  0  0
  141.0300  151.7440  132.9430 C   0  0  0  0  0  0  0  0  0  0  0  0
  142.3610  152.0330  133.5980 C   0  0  0  0  0  0  0  0  0  0  0  0
  142.7530  153.5020  133.4440 C   0  0  0  0  0  0  0  0  0  0  0  0
  141.8730  154.3210  134.2080 O   0  0  0  0  0  0  0  0  0  0  0  0
  141.1120  155.3490  133.6410 C   0  0  0  0  0  0  0  0  0  0  0  0
  140.0720  155.0740  132.9830 O   0  0  0  0  0  0  0  0  0  0  0  0
  141.5140  156.7170  133.8210 N   0  0  0  0  0  0  0  0  0  0  0  0
  140.7010  157.7960  134.0100 C   0  0  0  0  0  0  0  0  0  0  0  0
  139.2500  157.7510  134.2710 C   0  0  0  0  0  0  0  0  0  0  0  0
  138.3510  157.1410  133.3440 N   0  0  0  0  0  0  0  0  0  0  0  0
  138.8020  158.2000  135.3600 O   0  0  0  0  0  0  0  0  0  0  0  0
  141.4360  158.9780  133.9940 C   0  0  0  0  0  0  0  0  0  0  0  0
  142.7410  158.5900  133.8050 C   0  0  0  0  0  0  0  0  0  0  0  0
  143.8960  159.3640  133.7040 C   0  0  0  0  0  0  0  0  0  0  0  0
  145.1150  158.7000  133.4860 C   0  0  0  0  0  0  0  0  0  0  0  0
  145.1510  157.2920  133.3620 C   0  0  0  0  0  0  0  0  0  0  0  0
  146.4060  156.6260  133.1430 C   0  0  0  0  0  0  0  0  0  0  0  0
  147.4570  156.0630  132.9660 C   0  0  0  0  0  0  0  0  0  0  0  0
  148.7300  155.3710  132.7540 C   0  0  0  0  0  0  0  0  0  0  0  0
  148.4870  154.2070  132.0040 O   0  0  0  0  0  0  0  0  0  0  0  0
  147.8510  152.9520  133.0220 Si  0  0  0  0  0  4  0  0  0  0  0  0
  146.0220  152.7270  132.6760 C   0  0  0  0  0  0  0  0  0  0  0  0
  148.0590  153.3770  134.8370 C   0  0  0  0  0  0  0  0  0  0  0  0
  148.7920  151.3510  132.6170 C   0  0  0  0  0  0  0  0  0  0  0  0
  149.6020  150.9180  133.8520 C   0  0  0  0  0  0  0  0  0  0  0  0
  149.7430  151.5750  131.4280 C   0  0  0  0  0  0  0  0  0  0  0  0
  147.7780  150.2490  132.2630 C   0  0  0  0  0  0  0  0  0  0  0  0
  143.9640  156.5380  133.4600 C   0  0  0  0  0  0  0  0  0  0  0  0
  142.7650  157.2220  133.7010 C   0  0  0  0  0  0  0  0  0  0  0  0
  138.5780  150.2577  132.6141 H   0  0  0  0  0  0  0  0  0  0  0  0
  139.1053  151.2316  131.1998 H   0  0  0  0  0  0  0  0  0  0  0  0
  139.3360  149.4502  131.1998 H   0  0  0  0  0  0  0  0  0  0  0  0
  141.8487  149.1141  133.5750 H   0  0  0  0  0  0  0  0  0  0  0  0
  141.1973  148.4916  132.0210 H   0  0  0  0  0  0  0  0  0  0  0  0
  142.5911  149.6247  132.0210 H   0  0  0  0  0  0  0  0  0  0  0  0
  140.2980  152.5611  132.8625 H   0  0  0  0  0  0  0  0  0  0  0  0
  142.2923  151.7916  134.6690 H   0  0  0  0  0  0  0  0  0  0  0  0
  143.1287  151.4173  133.1066 H   0  0  0  0  0  0  0  0  0  0  0  0
  143.7842  153.6436  133.7999 H   0  0  0  0  0  0  0  0  0  0  0  0
  142.6834  153.7863  132.3837 H   0  0  0  0  0  0  0  0  0  0  0  0
  138.7060  156.6350  132.5020 H   0  0  0  0  0  0  0  0  0  0  0  0
  137.3270  157.1040  133.5530 H   0  0  0  0  0  0  0  0  0  0  0  0
  141.0542  160.0033  134.1082 H   0  0  0  0  0  0  0  0  0  0  0  0
  143.8544  160.4597  133.7922 H   0  0  0  0  0  0  0  0  0  0  0  0
  146.0472  159.2792  133.4113 H   0  0  0  0  0  0  0  0  0  0  0  0
  149.4221  156.0274  132.2061 H   0  0  0  0  0  0  0  0  0  0  0  0
  149.1809  155.1076  133.7221 H   0  0  0  0  0  0  0  0  0  0  0  0
  145.4744  152.6596  133.6276 H   0  0  0  0  0  0  0  0  0  0  0  0
  145.6496  153.5861  132.0987 H   0  0  0  0  0  0  0  0  0  0  0  0
  145.8690  151.8033  132.0987 H   0  0  0  0  0  0  0  0  0  0  0  0
  147.6585  152.5587  135.4534 H   0  0  0  0  0  0  0  0  0  0  0  0
  149.1270  153.5159  135.0610 H   0  0  0  0  0  0  0  0  0  0  0  0
  147.5135  154.3056  135.0610 H   0  0  0  0  0  0  0  0  0  0  0  0
  149.0611  151.2072  134.7651 H   0  0  0  0  0  0  0  0  0  0  0  0
  149.7385  149.8266  133.8368 H   0  0  0  0  0  0  0  0  0  0  0  0
  150.5853  151.4108  133.8368 H   0  0  0  0  0  0  0  0  0  0  0  0
  150.7495  151.8121  131.8031 H   0  0  0  0  0  0  0  0  0  0  0  0
  149.7855  150.6623  130.8155 H   0  0  0  0  0  0  0  0  0  0  0  0
  149.3737  152.4107  130.8155 H   0  0  0  0  0  0  0  0  0  0  0  0
  147.3748  149.8108  133.1879 H   0  0  0  0  0  0  0  0  0  0  0  0
  146.9562  150.6823  131.6740 H   0  0  0  0  0  0  0  0  0  0  0  0
  148.2781  149.4660  131.6740 H   0  0  0  0  0  0  0  0  0  0  0  0
  143.9786  155.4436  133.3504 H   0  0  0  0  0  0  0  0  0  0  0  0
  1  2  1  0
  2  3  1  0
  2  4  2  3
  4  5  1  0
  5  6  1  0
  6  7  1  0
  7  8  1  0
  8  9  2  0
  8 10  1  0
 10 11  1  0
 11 12  1  0
 12 13  1  0
 12 14  2  0
 11 15  2  0
 15 16  1  0
 16 17  2  0
 17 18  1  0
 18 19  2  0
 19 20  1  0
 20 21  3  0
 21 22  1  0
 22 23  1  0
 23 24  1  0
 24 25  1  0
 24 26  1  0
 24 27  1  0
 27 28  1  0
 27 29  1  0
 27 30  1  0
 19 31  1  0
 31 32  2  0
 32 10  1  0
 32 16  1  0
  1 33  1  0
  1 34  1  0
  1 35  1  0
  3 36  1  0
  3 37  1  0
  3 38  1  0
  4 39  1  0
  5 40  1  0
  5 41  1  0
  6 42  1  0
  6 43  1  0
 13 44  1  0
 13 45  1  0
 15 46  1  0
 17 47  1  0
 18 48  1  0
 22 49  1  0
 22 50  1  0
 25 51  1  0
 25 52  1  0
 25 53  1  0
 26 54  1  0
 26 55  1  0
 26 56  1  0
 28 57  1  0
 28 58  1  0
 28 59  1  0
 29 60  1  0
 29 61  1  0
 29 62  1  0
 30 63  1  0
 30 64  1  0
 30 65  1  0
 31 66  1  0
M  END
>  <UniqueID>  (85) 
85

>  <SMILES>  (85) 
CC(C)=CCCOC(=O)n1c(C(N)=O)cc2ccc(C#CCO[Si](C)(C)C(C)(C)C)cc21

>  <Energy>  (85) 
72.26729653290278

>  <Genealogy>  (85) 
CC(C)=CCCOC(=O)n1c(C(N)=O)cc2ccc(C#CCO[Si](C)(C)C(C)(C)C)cc21 (3D coordinates assigned)
CC(C)=CCCOC(=O)n1c(C(N)=O)cc2ccc(C#CCO[Si](C)(C)C(C)(C)C)cc21 (optimized conformer: 72.26729653290278 kcal/mol)

>  <smiles>  (85) 
CC(C)=CCCOC(=O)n1c(C(N)=O)cc2ccc(C#CCO[Si](C)(C)C(C)(C)C)cc21

>  <score_type>  (85) 
oracle

>  <origin>  (85) 
adg

>  <m_score__min__energy>  (85) 
-9.8100000000000005

>  <m_primary>  (85) 
energy

$$$$
85:0
     RDKit          3D

 37 39  0  0  0  0  0  0  0  0999 V2000
  138.3200  158.6530  131.9820 C   0  0  0  0  0  0  0  0  0  0  0  0
  138.3240  158.0110  133.2510 O   0  0  0  0  0  0  0  0  0  0  0  0
  139.3380  158.2050  134.1930 C   0  0  0  0  0  0  0  0  0  0  0  0
  140.6010  158.6220  133.7660 C   0  0  0  0  0  0  0  0  0  0  0  0
  141.6270  158.8230  134.7050 C   0  0  0  0  0  0  0  0  0  0  0  0
  142.9760  159.2670  134.2700 C   0  0  0  0  0  0  0  0  0  0  0  0
  143.2600  160.6490  134.1090 C   0  0  0  0  0  0  0  0  0  0  0  0
  144.5310  161.0800  133.6910 C   0  0  0  0  0  0  0  0  0  0  0  0
  145.5000  160.1120  133.4440 C   0  0  0  0  0  0  0  0  0  0  0  0
  146.8040  160.2470  133.0250 C   0  0  0  0  0  0  0  0  0  0  0  0
  147.3050  158.9470  132.9490 C   0  0  0  0  0  0  0  0  0  0  0  0
  148.7110  158.6130  132.6280 C   0  0  0  0  0  0  0  0  0  0  0  0
  149.0310  157.4580  131.8510 N   0  0  0  0  0  0  0  0  0  0  0  0
  149.6440  159.3620  133.0230 O   0  0  0  0  0  0  0  0  0  0  0  0
  146.3430  158.0490  133.3010 N   0  0  0  0  0  0  0  0  0  0  0  0
  146.4380  156.6150  133.3210 C   0  0  0  0  0  0  0  0  0  0  0  0
  146.5410  155.9820  132.2370 O   0  0  0  0  0  0  0  0  0  0  0  0
  146.4610  155.8760  134.5920 C   0  0  0  0  0  0  0  0  0  0  0  0
  145.3870  155.4980  135.1290 O   0  0  0  0  0  0  0  0  0  0  0  0
  147.6710  155.6060  135.2180 O   0  0  0  0  0  0  0  0  0  0  0  0
  145.2480  158.7750  133.6060 C   0  0  0  0  0  0  0  0  0  0  0  0
  143.9910  158.3160  134.0100 C   0  0  0  0  0  0  0  0  0  0  0  0
  141.3520  158.5950  136.0640 C   0  0  0  0  0  0  0  0  0  0  0  0
  140.0780  158.1760  136.4510 C   0  0  0  0  0  0  0  0  0  0  0  0
  139.1080  157.9920  135.5190 N   0  0  0  0  0  0  0  0  0  0  0  0
  138.3132  159.7439  132.1230 H   0  0  0  0  0  0  0  0  0  0  0  0
  139.2200  158.3614  131.4207 H   0  0  0  0  0  0  0  0  0  0  0  0
  137.4237  158.3502  131.4207 H   0  0  0  0  0  0  0  0  0  0  0  0
  140.7922  158.7928  132.6963 H   0  0  0  0  0  0  0  0  0  0  0  0
  142.4751  161.3919  134.3140 H   0  0  0  0  0  0  0  0  0  0  0  0
  144.7530  162.1497  133.5630 H   0  0  0  0  0  0  0  0  0  0  0  0
  147.3380  161.1816  132.7981 H   0  0  0  0  0  0  0  0  0  0  0  0
  150.0250  157.2540  131.6020 H   0  0  0  0  0  0  0  0  0  0  0  0
  148.2970  156.7770  131.5590 H   0  0  0  0  0  0  0  0  0  0  0  0
  143.7952  157.2395  134.1233 H   0  0  0  0  0  0  0  0  0  0  0  0
  142.1372  158.7460  136.8195 H   0  0  0  0  0  0  0  0  0  0  0  0
  139.8594  157.9944  137.5137 H   0  0  0  0  0  0  0  0  0  0  0  0
  1  2  1  0
  2  3  1  0
  3  4  2  0
  4  5  1  0
  5  6  1  0
  6  7  2  0
  7  8  1  0
  8  9  2  0
  9 10  1  0
 10 11  2  0
 11 12  1  0
 12 13  1  0
 12 14  2  0
 11 15  1  0
 15 16  1  0
 16 17  2  0
 16 18  1  0
 18 19  2  0
 18 20  1  0
 15 21  1  0
 21 22  2  0
  5 23  2  0
 23 24  1  0
 24 25  2  0
 25  3  1  0
 22  6  1  0
 21  9  1  0
  1 26  1  0
  1 27  1  0
  1 28  1  0
  4 29  1  0
  7 30  1  0
  8 31  1  0
 10 32  1  0
 13 33  1  0
 13 34  1  0
 22 35  1  0
 23 36  1  0
 24 37  1  0
M  CHG  1  20  -1
M  END
>  <UniqueID>  (86) 
86

>  <SMILES>  (86) 
COc1cc(-c2ccc3cc(C(N)=O)n(C(=O)C(=O)[O-])c3c2)ccn1

>  <Energy>  (86) 
82.68695166081952

>  <Genealogy>  (86) 
COc1cc(-c2ccc3cc(C(N)=O)n(C(=O)C(=O)[O-])c3c2)ccn1 (protonated)
COc1cc(-c2ccc3cc(C(N)=O)n(C(=O)C(=O)[O-])c3c2)ccn1 (3D coordinates assigned)
COc1cc(-c2ccc3cc(C(N)=O)n(C(=O)C(=O)[O-])c3c2)ccn1 (optimized conformer: 82.68695166081952 kcal/mol)

>  <smiles>  (86) 
COc1cc(-c2ccc3cc(C(N)=O)n(C(=O)C(=O)O)c3c2)ccn1

>  <score_type>  (86) 
oracle

>  <origin>  (86) 
adg

>  <m_score__min__energy>  (86) 
-7.4100000000000001

>  <m_primary>  (86) 
energy

$$$$
86:0
     RDKit          3D

 50 52  0  0  0  0  0  0  0  0999 V2000
  148.4060  152.9910  134.9400 N   0  0  0  0  0  0  0  0  0  0  0  0
  148.4980  153.5290  133.6230 C   0  0  0  0  0  0  0  0  0  0  0  0
  148.7970  152.7690  132.6650 O   0  0  0  0  0  0  0  0  0  0  0  0
  148.2010  154.9580  133.3890 C   0  0  0  0  0  0  0  0  0  0  0  0
  149.0030  155.7950  132.6150 C   0  0  0  0  0  0  0  0  0  0  0  0
  148.4330  157.0420  132.7180 C   0  0  0  0  0  0  0  0  0  0  0  0
  148.8140  158.2500  132.1430 C   0  0  0  0  0  0  0  0  0  0  0  0
  148.0210  159.3800  132.4000 C   0  0  0  0  0  0  0  0  0  0  0  0
  146.8620  159.2810  133.2100 C   0  0  0  0  0  0  0  0  0  0  0  0
  146.0360  160.5060  133.4970 C   0  0  0  0  0  0  0  0  0  0  0  0
  144.6470  160.1340  134.0240 C   0  0  0  0  0  0  0  0  0  0  0  0
  143.9280  159.4090  133.0610 O   0  0  0  0  0  0  0  0  0  0  0  0
  146.5100  158.0380  133.7830 C   0  0  0  0  0  0  0  0  0  0  0  0
  147.3290  156.9320  133.5250 C   0  0  0  0  0  0  0  0  0  0  0  0
  147.1720  155.6590  133.9430 N   0  0  0  0  0  0  0  0  0  0  0  0
  146.0830  155.1420  134.7220 C   0  0  0  0  0  0  0  0  0  0  0  0
  145.4650  155.8990  135.5210 O   0  0  0  0  0  0  0  0  0  0  0  0
  145.6960  153.8070  134.5730 O   0  0  0  0  0  0  0  0  0  0  0  0
  145.0290  153.3220  133.4100 C   0  0  0  0  0  0  0  0  0  0  0  0
  145.2680  154.2700  132.2360 C   0  0  0  0  0  0  0  0  0  0  0  0
  143.9830  154.9970  131.8220 C   0  0  0  0  0  0  0  0  0  0  0  0
  143.2670  155.5380  133.0230 C   0  0  0  0  0  0  0  0  0  0  0  0
  143.3960  156.7280  133.4320 N   0  0  0  0  0  0  0  0  0  0  0  0
  142.5530  156.9290  134.5740 C   0  0  1  0  0  0  0  0  0  0  0  0
  141.3200  158.2160  134.2120 P   0  0  1  0  0  0  0  0  0  0  0  0
  139.9500  157.7440  134.6460 O   0  0  0  0  0  0  0  0  0  0  0  0
  141.7190  159.6290  135.0540 O   0  0  0  0  0  0  0  0  0  0  0  0
  141.3020  158.5380  132.5500 O   0  0  0  0  0  0  0  0  0  0  0  0
  141.8950  155.7040  134.8580 O   0  0  0  0  0  0  0  0  0  0  0  0
  142.3020  154.7980  133.8520 C   0  0  0  0  0  0  0  0  0  0  0  0
  147.5020  153.0030  135.4600 H   0  0  0  0  0  0  0  0  0  0  0  0
  149.9008  155.5171  132.0434 H   0  0  0  0  0  0  0  0  0  0  0  0
  149.7087  158.3179  131.5067 H   0  0  0  0  0  0  0  0  0  0  0  0
  148.3021  160.3519  131.9683 H   0  0  0  0  0  0  0  0  0  0  0  0
  146.5529  161.1172  134.2514 H   0  0  0  0  0  0  0  0  0  0  0  0
  145.9110  161.0663  132.5587 H   0  0  0  0  0  0  0  0  0  0  0  0
  144.7572  159.5200  134.9300 H   0  0  0  0  0  0  0  0  0  0  0  0
  144.0970  161.0585  134.2536 H   0  0  0  0  0  0  0  0  0  0  0  0
  143.2040  158.9320  133.5440 H   0  0  0  0  0  0  0  0  0  0  0  0
  145.6153  157.9418  134.4157 H   0  0  0  0  0  0  0  0  0  0  0  0
  145.4170  152.3243  133.1572 H   0  0  0  0  0  0  0  0  0  0  0  0
  143.9493  153.2627  133.6118 H   0  0  0  0  0  0  0  0  0  0  0  0
  146.0212  155.0164  132.5284 H   0  0  0  0  0  0  0  0  0  0  0  0
  145.6151  153.6736  131.3794 H   0  0  0  0  0  0  0  0  0  0  0  0
  144.2399  155.8292  131.1501 H   0  0  0  0  0  0  0  0  0  0  0  0
  143.3224  154.2817  131.3102 H   0  0  0  0  0  0  0  0  0  0  0  0
  143.1539  157.2500  135.4376 H   0  0  0  0  0  0  0  0  0  0  0  0
  142.2070  158.2880  132.2340 H   0  0  0  0  0  0  0  0  0  0  0  0
  142.7790  153.9142  134.3008 H   0  0  0  0  0  0  0  0  0  0  0  0
  141.4488  154.4358  133.2597 H   0  0  0  0  0  0  0  0  0  0  0  0
  1  2  1  0
  2  3  2  0
  2  4  1  0
  4  5  2  0
  5  6  1  0
  6  7  2  0
  7  8  1  0
  8  9  2  0
  9 10  1  0
 10 11  1  0
 11 12  1  0
  9 13  1  0
 13 14  2  0
 14 15  1  0
 15 16  1  0
 16 17  2  0
 16 18  1  0
 18 19  1  0
 19 20  1  0
 20 21  1  0
 21 22  1  0
 22 23  2  0
 23 24  1  0
 24 25  1  0
 25 26  2  0
 25 27  1  1
 25 28  1  0
 24 29  1  0
 29 30  1  0
 15  4  1  0
 30 22  1  0
 14  6  1  0
  1 31  1  0
  5 32  1  0
  7 33  1  0
  8 34  1  0
 10 35  1  0
 10 36  1  0
 11 37  1  0
 11 38  1  0
 12 39  1  0
 13 40  1  0
 19 41  1  0
 19 42  1  0
 20 43  1  0
 20 44  1  0
 21 45  1  0
 21 46  1  0
 24 47  1  1
 28 48  1  0
 30 49  1  0
 30 50  1  0
M  CHG  2   1  -1  27  -1
M  END
>  <UniqueID>  (87) 
87

>  <SMILES>  (87) 
[NH-]C(=O)c1cc2ccc(CCO)cc2n1C(=O)OCCCC1=N[C@@H]([P@@](=O)([O-])O)OC1

>  <Energy>  (87) 
80.17894135956202

>  <Genealogy>  (87) 
[NH-]C(=O)c1cc2ccc(CCO)cc2n1C(=O)OCCCC1=NC(P(=O)([O-])O)OC1 (protonated)
[NH-]C(=O)c1cc2ccc(CCO)cc2n1C(=O)OCCCC1=N[C@@H]([P@@](=O)([O-])O)OC1 (chirality)
[NH-]C(=O)c1cc2ccc(CCO)cc2n1C(=O)OCCCC1=N[C@@H]([P@@](=O)([O-])O)OC1 (3D coordinates assigned)
[NH-]C(=O)c1cc2ccc(CCO)cc2n1C(=O)OCCCC1=N[C@@H]([P@@](=O)([O-])O)OC1 (nonaromatic ring conformer: 80.17894135956202 kcal/mol)

>  <smiles>  (87) 
NC(=O)c1cc2ccc(CCO)cc2n1C(=O)OCCCC1=NC(P(=O)(O)O)OC1

>  <score_type>  (87) 
oracle

>  <origin>  (87) 
adg

>  <m_score__min__energy>  (87) 
-7.4800000000000004

>  <m_primary>  (87) 
energy

$$$$
87:0
     RDKit          3D

 30 32  0  0  0  0  0  0  0  0999 V2000
  138.7440  155.2170  132.9660 N   0  0  0  0  0  0  0  0  0  0  0  0
  140.1080  154.9020  133.2330 C   0  0  0  0  0  0  0  0  0  0  0  0
  140.4430  153.6970  133.3830 O   0  0  0  0  0  0  0  0  0  0  0  0
  141.1250  155.9670  133.3660 C   0  0  0  0  0  0  0  0  0  0  0  0
  142.5000  155.7320  133.3370 C   0  0  0  0  0  0  0  0  0  0  0  0
  143.0840  156.9630  133.5360 C   0  0  0  0  0  0  0  0  0  0  0  0
  144.4290  157.3200  133.5870 C   0  0  0  0  0  0  0  0  0  0  0  0
  144.7430  158.6770  133.7780 C   0  0  0  0  0  0  0  0  0  0  0  0
  143.7150  159.6450  133.9080 C   0  0  0  0  0  0  0  0  0  0  0  0
  144.0540  161.0950  134.1020 C   0  0  0  0  0  0  0  0  0  0  0  0
  145.3470  161.3320  133.6730 F   0  0  0  0  0  0  0  0  0  0  0  0
  143.1800  161.8800  133.3710 F   0  0  0  0  0  0  0  0  0  0  0  0
  142.3620  159.2440  133.8470 C   0  0  0  0  0  0  0  0  0  0  0  0
  142.0810  157.8850  133.6730 C   0  0  0  0  0  0  0  0  0  0  0  0
  140.8740  157.2890  133.5760 N   0  0  0  0  0  0  0  0  0  0  0  0
  139.5990  157.9460  133.6040 C   0  0  0  0  0  0  0  0  0  0  0  0
  138.8210  157.7560  134.5780 O   0  0  0  0  0  0  0  0  0  0  0  0
  139.1900  158.8420  132.5090 C   0  0  0  0  0  0  0  0  0  0  0  0
  138.2440  158.5980  131.5390 C   0  0  0  0  0  0  0  0  0  0  0  0
  138.1540  159.6750  130.7360 N   0  0  0  0  0  0  0  0  0  0  0  0
  139.0060  160.5940  131.1640 N   0  0  0  0  0  0  0  0  0  0  0  0
  139.6500  160.1130  132.2450 C   0  0  0  0  0  0  0  0  0  0  0  0
  138.3640  156.1690  133.1650 H   0  0  0  0  0  0  0  0  0  0  0  0
  143.0091  154.7685  133.1871 H   0  0  0  0  0  0  0  0  0  0  0  0
  145.2210  156.5640  133.4812 H   0  0  0  0  0  0  0  0  0  0  0  0
  145.7961  158.9908  133.8271 H   0  0  0  0  0  0  0  0  0  0  0  0
  143.9683  161.3453  135.1697 H   0  0  0  0  0  0  0  0  0  0  0  0
  141.5504  159.9814  133.9341 H   0  0  0  0  0  0  0  0  0  0  0  0
  137.6570  157.6734  131.4366 H   0  0  0  0  0  0  0  0  0  0  0  0
  140.4180  160.6482  132.8227 H   0  0  0  0  0  0  0  0  0  0  0  0
  1  2  1  0
  2  3  2  0
  2  4  1  0
  4  5  2  0
  5  6  1  0
  6  7  2  0
  7  8  1  0
  8  9  2  0
  9 10  1  0
 10 11  1  0
 10 12  1  0
  9 13  1  0
 13 14  2  0
 14 15  1  0
 15 16  1  0
 16 17  2  0
 16 18  1  0
 18 19  1  0
 19 20  2  0
 20 21  1  0
 21 22  1  0
 15  4  1  0
 22 18  2  0
 14  6  1  0
  1 23  1  0
  5 24  1  0
  7 25  1  0
  8 26  1  0
 10 27  1  0
 13 28  1  0
 19 29  1  0
 22 30  1  0
M  CHG  2   1  -1  21  -1
M  END
>  <UniqueID>  (88) 
88

>  <SMILES>  (88) 
[NH-]C(=O)c1cc2ccc(C(F)F)cc2n1C(=O)c1cn[n-]c1

>  <Energy>  (88) 
101.072083901923

>  <Genealogy>  (88) 
[NH-]C(=O)c1cc2ccc(C(F)F)cc2n1C(=O)c1cn[n-]c1 (protonated)
[NH-]C(=O)c1cc2ccc(C(F)F)cc2n1C(=O)c1cn[n-]c1 (3D coordinates assigned)
[NH-]C(=O)c1cc2ccc(C(F)F)cc2n1C(=O)c1cn[n-]c1 (optimized conformer: 101.072083901923 kcal/mol)

>  <smiles>  (88) 
NC(=O)c1cc2ccc(C(F)F)cc2n1C(=O)c1cn[nH]c1

>  <score_type>  (88) 
oracle

>  <origin>  (88) 
adg

>  <m_score__min__energy>  (88) 
-6.2800000000000002

>  <m_primary>  (88) 
energy

$$$$
88:0
     RDKit          3D

 56 57  0  0  0  0  0  0  0  0999 V2000
  149.2690  161.6690  130.4270 C   0  0  0  0  0  0  0  0  0  0  0  0
  149.2250  160.3410  130.2880 C   0  0  0  0  0  0  0  0  0  0  0  0
  148.5030  159.4750  131.2730 C   0  0  0  0  0  0  0  0  0  0  0  0
  147.3230  160.1350  131.7190 O   0  0  0  0  0  0  0  0  0  0  0  0
  146.9580  160.2040  133.0660 C   0  0  0  0  0  0  0  0  0  0  0  0
  147.8240  160.4600  133.9480 O   0  0  0  0  0  0  0  0  0  0  0  0
  145.5950  159.9610  133.4500 N   0  0  0  0  0  0  0  0  0  0  0  0
  144.6650  160.8780  133.8400 C   0  0  0  0  0  0  0  0  0  0  0  0
  144.9180  162.3100  134.1060 C   0  0  0  0  0  0  0  0  0  0  0  0
  146.0740  162.7010  134.8450 N   0  0  0  0  0  0  0  0  0  0  0  0
  144.1470  163.1950  133.6520 O   0  0  0  0  0  0  0  0  0  0  0  0
  143.4330  160.2640  134.0530 C   0  0  0  0  0  0  0  0  0  0  0  0
  143.6390  158.9300  133.7880 C   0  0  0  0  0  0  0  0  0  0  0  0
  142.7530  157.8610  133.8370 C   0  0  0  0  0  0  0  0  0  0  0  0
  143.2340  156.5890  133.4930 C   0  0  0  0  0  0  0  0  0  0  0  0
  144.5880  156.3980  133.0990 C   0  0  0  0  0  0  0  0  0  0  0  0
  145.0710  155.0760  132.7550 N   0  0  0  0  0  0  0  0  0  0  0  0
  146.5130  154.7980  132.7870 C   0  0  0  0  0  0  0  0  0  0  0  0
  144.1460  154.0050  132.3420 C   0  0  0  0  0  0  0  0  0  0  0  0
  143.9710  152.9580  133.4500 C   0  0  0  0  0  0  0  0  0  0  0  0
  142.6040  152.9810  133.9910 N   0  0  0  0  0  0  0  0  0  0  0  0
  142.3420  153.5500  135.3150 C   0  0  0  0  0  0  0  0  0  0  0  0
  141.5060  152.4330  133.2410 C   0  0  0  0  0  0  0  0  0  0  0  0
  140.6910  153.1970  132.6540 O   0  0  0  0  0  0  0  0  0  0  0  0
  141.3440  151.0450  133.1660 O   0  0  0  0  0  0  0  0  0  0  0  0
  142.3680  150.1690  132.7030 C   0  0  0  0  0  0  0  0  0  0  0  0
  141.9590  149.5330  131.5150 O   0  0  0  0  0  0  0  0  0  0  0  0
  140.2680  149.3070  131.5620 P   0  0  2  0  0  0  0  0  0  0  0  0
  139.8660  148.9060  132.9620 O   0  0  0  0  0  0  0  0  0  0  0  0
  139.8190  148.0790  130.4870 O   0  0  0  0  0  0  0  0  0  0  0  0
  139.4670  150.7410  131.1470 O   0  0  0  0  0  0  0  0  0  0  0  0
  145.4540  157.5200  133.0570 C   0  0  0  0  0  0  0  0  0  0  0  0
  144.9510  158.7720  133.4250 C   0  0  0  0  0  0  0  0  0  0  0  0
  149.8067  162.2818  129.6885 H   0  0  0  0  0  0  0  0  0  0  0  0
  148.7676  162.1496  131.2800 H   0  0  0  0  0  0  0  0  0  0  0  0
  149.7307  159.8732  129.4304 H   0  0  0  0  0  0  0  0  0  0  0  0
  148.2303  158.5239  130.7924 H   0  0  0  0  0  0  0  0  0  0  0  0
  149.1583  159.2795  132.1346 H   0  0  0  0  0  0  0  0  0  0  0  0
  147.0220  162.3550  134.5770 H   0  0  0  0  0  0  0  0  0  0  0  0
  142.4943  160.7441  134.3666 H   0  0  0  0  0  0  0  0  0  0  0  0
  141.7049  158.0078  134.1368 H   0  0  0  0  0  0  0  0  0  0  0  0
  142.5537  155.7254  133.5284 H   0  0  0  0  0  0  0  0  0  0  0  0
  146.8508  154.7329  133.8318 H   0  0  0  0  0  0  0  0  0  0  0  0
  146.7140  153.8446  132.2766 H   0  0  0  0  0  0  0  0  0  0  0  0
  147.0541  155.6084  132.2766 H   0  0  0  0  0  0  0  0  0  0  0  0
  143.1662  154.4480  132.1103 H   0  0  0  0  0  0  0  0  0  0  0  0
  144.5677  153.5055  131.4573 H   0  0  0  0  0  0  0  0  0  0  0  0
  144.1766  151.9597  133.0363 H   0  0  0  0  0  0  0  0  0  0  0  0
  144.6724  153.1917  134.2645 H   0  0  0  0  0  0  0  0  0  0  0  0
  142.6685  152.8409  136.0900 H   0  0  0  0  0  0  0  0  0  0  0  0
  142.8962  154.4939  135.4247 H   0  0  0  0  0  0  0  0  0  0  0  0
  141.2645  153.7425  135.4247 H   0  0  0  0  0  0  0  0  0  0  0  0
  143.2827  150.7485  132.5093 H   0  0  0  0  0  0  0  0  0  0  0  0
  142.5643  149.4063  133.4710 H   0  0  0  0  0  0  0  0  0  0  0  0
  140.0380  151.4650  131.5090 H   0  0  0  0  0  0  0  0  0  0  0  0
  146.5016  157.4078  132.7410 H   0  0  0  0  0  0  0  0  0  0  0  0
  1  2  2  0
  2  3  1  0
  3  4  1  0
  4  5  1  0
  5  6  2  0
  5  7  1  0
  7  8  1  0
  8  9  1  0
  9 10  1  0
  9 11  2  0
  8 12  2  0
 12 13  1  0
 13 14  2  0
 14 15  1  0
 15 16  2  0
 16 17  1  0
 17 18  1  0
 17 19  1  0
 19 20  1  0
 20 21  1  0
 21 22  1  0
 21 23  1  0
 23 24  2  0
 23 25  1  0
 25 26  1  0
 26 27  1  0
 27 28  1  0
 28 29  2  0
 28 30  1  6
 28 31  1  0
 16 32  1  0
 32 33  2  0
 33  7  1  0
 33 13  1  0
  1 34  1  0
  1 35  1  0
  2 36  1  0
  3 37  1  0
  3 38  1  0
 10 39  1  0
 12 40  1  0
 14 41  1  0
 15 42  1  0
 18 43  1  0
 18 44  1  0
 18 45  1  0
 19 46  1  0
 19 47  1  0
 20 48  1  0
 20 49  1  0
 22 50  1  0
 22 51  1  0
 22 52  1  0
 26 53  1  0
 26 54  1  0
 31 55  1  0
 32 56  1  0
M  CHG  2  10  -1  30  -1
M  END
>  <UniqueID>  (89) 
89

>  <SMILES>  (89) 
C=CCOC(=O)n1c(C([NH-])=O)cc2ccc(N(C)CCN(C)C(=O)OCO[P@](=O)([O-])O)cc21

>  <Energy>  (89) 
80.65909391457764

>  <Genealogy>  (89) 
C=CCOC(=O)n1c(C([NH-])=O)cc2ccc(N(C)CCN(C)C(=O)OCOP(=O)([O-])O)cc21 (protonated)
C=CCOC(=O)n1c(C([NH-])=O)cc2ccc(N(C)CCN(C)C(=O)OCO[P@](=O)([O-])O)cc21 (chirality)
C=CCOC(=O)n1c(C([NH-])=O)cc2ccc(N(C)CCN(C)C(=O)OCO[P@](=O)([O-])O)cc21 (3D coordinates assigned)
C=CCOC(=O)n1c(C([NH-])=O)cc2ccc(N(C)CCN(C)C(=O)OCO[P@](=O)([O-])O)cc21 (optimized conformer: 80.65909391457764 kcal/mol)

>  <smiles>  (89) 
C=CCOC(=O)n1c(C(N)=O)cc2ccc(N(C)CCN(C)C(=O)OCOP(=O)(O)O)cc21

>  <score_type>  (89) 
oracle

>  <origin>  (89) 
adg

>  <m_score__min__energy>  (89) 
-6.9400000000000004

>  <m_primary>  (89) 
energy

$$$$
89:0
     RDKit          3D

 33 34  0  0  0  0  0  0  0  0999 V2000
  146.5110  155.7340  132.2690 N   0  0  0  0  0  0  0  0  0  0  0  0
  146.2860  156.5190  133.4370 C   0  0  0  0  0  0  0  0  0  0  0  0
  146.2390  155.9550  134.5640 O   0  0  0  0  0  0  0  0  0  0  0  0
  146.1240  157.9450  133.3380 N   0  0  0  0  0  0  0  0  0  0  0  0
  147.0930  158.8700  133.0870 C   0  0  0  0  0  0  0  0  0  0  0  0
  148.4910  158.5810  132.7090 C   0  0  0  0  0  0  0  0  0  0  0  0
  148.8140  157.4810  131.8570 N   0  0  0  0  0  0  0  0  0  0  0  0
  149.4090  159.3490  133.1010 O   0  0  0  0  0  0  0  0  0  0  0  0
  146.5790  160.1600  133.1910 C   0  0  0  0  0  0  0  0  0  0  0  0
  145.2510  159.9980  133.5060 C   0  0  0  0  0  0  0  0  0  0  0  0
  144.2650  160.9530  133.7410 C   0  0  0  0  0  0  0  0  0  0  0  0
  142.9810  160.5030  134.0880 C   0  0  0  0  0  0  0  0  0  0  0  0
  142.7090  159.1170  134.2070 C   0  0  0  0  0  0  0  0  0  0  0  0
  141.3270  158.6410  134.5750 C   0  0  0  0  0  0  0  0  0  0  0  0
  140.6320  157.9530  133.3930 C   0  0  0  0  0  0  0  0  0  0  0  0
  140.6400  158.7960  132.1970 N   0  0  0  0  0  0  0  0  0  0  0  0
  139.4320  159.3410  131.6570 C   0  0  0  0  0  0  0  0  0  0  0  0
  138.3220  159.1050  132.2030 O   0  0  0  0  0  0  0  0  0  0  0  0
  139.4820  160.1390  130.5220 O   0  0  0  0  0  0  0  0  0  0  0  0
  143.7350  158.1770  133.9610 C   0  0  0  0  0  0  0  0  0  0  0  0
  144.9990  158.6520  133.5920 C   0  0  0  0  0  0  0  0  0  0  0  0
  146.2930  156.1110  131.3190 H   0  0  0  0  0  0  0  0  0  0  0  0
  148.0680  156.9330  131.3760 H   0  0  0  0  0  0  0  0  0  0  0  0
  149.8120  157.2660  131.6360 H   0  0  0  0  0  0  0  0  0  0  0  0
  147.1206  161.1071  133.0509 H   0  0  0  0  0  0  0  0  0  0  0  0
  144.4854  162.0274  133.6573 H   0  0  0  0  0  0  0  0  0  0  0  0
  142.1785  161.2331  134.2692 H   0  0  0  0  0  0  0  0  0  0  0  0
  141.4057  157.9265  135.4076 H   0  0  0  0  0  0  0  0  0  0  0  0
  140.7274  159.5170  134.8635 H   0  0  0  0  0  0  0  0  0  0  0  0
  141.1560  157.0119  133.1697 H   0  0  0  0  0  0  0  0  0  0  0  0
  139.5852  157.7637  133.6729 H   0  0  0  0  0  0  0  0  0  0  0  0
  141.5380  159.0240  131.7160 H   0  0  0  0  0  0  0  0  0  0  0  0
  143.5450  157.0978  134.0572 H   0  0  0  0  0  0  0  0  0  0  0  0
  1  2  1  0
  2  3  2  0
  2  4  1  0
  4  5  1  0
  5  6  1  0
  6  7  1  0
  6  8  2  0
  5  9  2  0
  9 10  1  0
 10 11  2  0
 11 12  1  0
 12 13  2  0
 13 14  1  0
 14 15  1  0
 15 16  1  0
 16 17  1  0
 17 18  2  0
 17 19  1  0
 13 20  1  0
 20 21  2  0
 21  4  1  0
 21 10  1  0
  1 22  1  0
  7 23  1  0
  7 24  1  0
  9 25  1  0
 11 26  1  0
 12 27  1  0
 14 28  1  0
 14 29  1  0
 15 30  1  0
 15 31  1  0
 16 32  1  0
 20 33  1  0
M  CHG  2   1  -1  19  -1
M  END
>  <UniqueID>  (90) 
90

>  <SMILES>  (90) 
[NH-]C(=O)n1c(C(N)=O)cc2ccc(CCNC(=O)[O-])cc21

>  <Energy>  (90) 
68.06530413333672

>  <Genealogy>  (90) 
[NH-]C(=O)n1c(C(N)=O)cc2ccc(CCNC(=O)[O-])cc21 (protonated)
[NH-]C(=O)n1c(C(N)=O)cc2ccc(CCNC(=O)[O-])cc21 (3D coordinates assigned)
[NH-]C(=O)n1c(C(N)=O)cc2ccc(CCNC(=O)[O-])cc21 (optimized conformer: 68.06530413333672 kcal/mol)

>  <smiles>  (90) 
NC(=O)c1cc2ccc(CCNC(=O)O)cc2n1C(N)=O

>  <score_type>  (90) 
oracle

>  <origin>  (90) 
adg

>  <m_score__min__energy>  (90) 
-7.3099999999999996

>  <m_primary>  (90) 
energy

$$$$
90:0
     RDKit          3D

 58 60  0  0  0  0  0  0  0  0999 V2000
  148.8760  160.1570  130.3050 C   0  0  0  0  0  0  0  0  0  0  0  0
  149.1370  160.0630  131.8050 C   0  0  0  0  0  0  0  0  0  0  0  0
  149.0710  158.7090  132.2470 O   0  0  0  0  0  0  0  0  0  0  0  0
  148.3250  158.2960  133.3560 C   0  0  0  0  0  0  0  0  0  0  0  0
  148.5280  158.8030  134.4940 O   0  0  0  0  0  0  0  0  0  0  0  0
  147.2600  157.2540  133.1810 C   0  0  0  0  0  0  0  0  0  0  0  0
  145.9430  157.6470  133.8650 C   0  0  0  0  0  0  0  0  0  0  0  0
  145.2930  158.8380  133.2100 C   0  0  0  0  0  0  0  0  0  0  0  0
  145.9280  159.4900  132.3360 O   0  0  0  0  0  0  0  0  0  0  0  0
  143.9730  159.2610  133.5940 N   0  0  0  0  0  0  0  0  0  0  0  0
  143.5590  160.5210  133.9150 C   0  0  0  0  0  0  0  0  0  0  0  0
  144.3740  161.7550  133.8530 C   0  0  0  0  0  0  0  0  0  0  0  0
  145.7780  161.7280  134.0890 N   0  0  0  0  0  0  0  0  0  0  0  0
  143.8210  162.8510  133.5680 O   0  0  0  0  0  0  0  0  0  0  0  0
  142.2160  160.5110  134.2930 C   0  0  0  0  0  0  0  0  0  0  0  0
  141.8200  159.1970  134.2020 C   0  0  0  0  0  0  0  0  0  0  0  0
  140.5890  158.6130  134.4830 C   0  0  0  0  0  0  0  0  0  0  0  0
  140.4730  157.2200  134.3390 C   0  0  0  0  0  0  0  0  0  0  0  0
  141.5840  156.4390  133.9310 C   0  0  0  0  0  0  0  0  0  0  0  0
  141.4520  154.9710  133.7840 C   0  0  0  0  0  0  0  0  0  0  0  0
  140.3590  154.4180  133.0910 C   0  0  0  0  0  0  0  0  0  0  0  0
  139.4340  155.2200  132.5030 F   0  0  0  0  0  0  0  0  0  0  0  0
  140.2250  153.0310  132.9720 C   0  0  0  0  0  0  0  0  0  0  0  0
  141.1780  152.1680  133.5390 C   0  0  0  0  0  0  0  0  0  0  0  0
  141.0280  150.6990  133.4200 C   0  0  0  0  0  0  0  0  0  0  0  0
  140.9900  149.9800  134.4590 O   0  0  0  0  0  0  0  0  0  0  0  0
  140.9420  150.0860  132.1290 N   0  0  0  0  0  0  0  0  0  0  0  0
  139.8710  149.1800  131.7210 C   0  0  1  0  0  0  0  0  0  0  0  0
  138.5650  149.9650  131.5330 C   0  0  0  0  0  0  0  0  0  0  0  0
  140.2810  148.4620  130.4280 C   0  0  0  0  0  0  0  0  0  0  0  0
  139.4540  148.8600  129.3940 F   0  0  0  0  0  0  0  0  0  0  0  0
  141.5860  148.7840  130.0980 F   0  0  0  0  0  0  0  0  0  0  0  0
  140.1770  147.0910  130.5810 F   0  0  0  0  0  0  0  0  0  0  0  0
  142.2720  152.7230  134.2240 C   0  0  0  0  0  0  0  0  0  0  0  0
  142.4090  154.1080  134.3490 C   0  0  0  0  0  0  0  0  0  0  0  0
  143.4590  154.6040  135.0530 F   0  0  0  0  0  0  0  0  0  0  0  0
  142.8190  157.0700  133.6580 C   0  0  0  0  0  0  0  0  0  0  0  0
  142.8990  158.4620  133.7840 C   0  0  0  0  0  0  0  0  0  0  0  0
  147.8538  160.5251  130.1330 H   0  0  0  0  0  0  0  0  0  0  0  0
  149.5973  160.8518  129.8501 H   0  0  0  0  0  0  0  0  0  0  0  0
  148.9887  159.1618  129.8501 H   0  0  0  0  0  0  0  0  0  0  0  0
  150.1375  160.4650  132.0228 H   0  0  0  0  0  0  0  0  0  0  0  0
  148.3671  160.6442  132.3337 H   0  0  0  0  0  0  0  0  0  0  0  0
  147.0729  157.1164  132.1058 H   0  0  0  0  0  0  0  0  0  0  0  0
  147.6180  156.3248  133.6484 H   0  0  0  0  0  0  0  0  0  0  0  0
  145.2502  156.7940  133.8156 H   0  0  0  0  0  0  0  0  0  0  0  0
  146.1718  157.9182  134.9062 H   0  0  0  0  0  0  0  0  0  0  0  0
  146.4360  161.3450  133.3740 H   0  0  0  0  0  0  0  0  0  0  0  0
  141.6035  161.3719  134.5991 H   0  0  0  0  0  0  0  0  0  0  0  0
  139.7330  159.2228  134.8078 H   0  0  0  0  0  0  0  0  0  0  0  0
  139.5099  156.7301  134.5450 H   0  0  0  0  0  0  0  0  0  0  0  0
  139.3651  152.6115  132.4292 H   0  0  0  0  0  0  0  0  0  0  0  0
  139.7006  148.4242  132.5019 H   0  0  0  0  0  0  0  0  0  0  0  0
  138.1443  150.2179  132.5174 H   0  0  0  0  0  0  0  0  0  0  0  0
  138.7702  150.8896  130.9735 H   0  0  0  0  0  0  0  0  0  0  0  0
  137.8448  149.3500  130.9735 H   0  0  0  0  0  0  0  0  0  0  0  0
  143.0294  152.0596  134.6670 H   0  0  0  0  0  0  0  0  0  0  0  0
  143.6968  156.4811  133.3537 H   0  0  0  0  0  0  0  0  0  0  0  0
  1  2  1  0
  2  3  1  0
  3  4  1  0
  4  5  2  0
  4  6  1  0
  6  7  1  0
  7  8  1  0
  8  9  2  0
  8 10  1  0
 10 11  1  0
 11 12  1  0
 12 13  1  0
 12 14  2  0
 11 15  2  0
 15 16  1  0
 16 17  2  0
 17 18  1  0
 18 19  2  0
 19 20  1  0
 20 21  2  0
 21 22  1  0
 21 23  1  0
 23 24  2  0
 24 25  1  0
 25 26  2  0
 25 27  1  0
 27 28  1  0
 28 29  1  0
 28 30  1  0
 30 31  1  0
 30 32  1  0
 30 33  1  0
 24 34  1  0
 34 35  2  0
 35 36  1  0
 19 37  1  0
 37 38  2  0
 38 10  1  0
 38 16  1  0
 35 20  1  0
  1 39  1  0
  1 40  1  0
  1 41  1  0
  2 42  1  0
  2 43  1  0
  6 44  1  0
  6 45  1  0
  7 46  1  0
  7 47  1  0
 13 48  1  0
 15 49  1  0
 17 50  1  0
 18 51  1  0
 23 52  1  0
 28 53  1  1
 29 54  1  0
 29 55  1  0
 29 56  1  0
 34 57  1  0
 37 58  1  0
M  CHG  2  13  -1  27  -1
M  END
>  <UniqueID>  (91) 
91

>  <SMILES>  (91) 
CCOC(=O)CCC(=O)n1c(C([NH-])=O)cc2ccc(-c3c(F)cc(C(=O)[N-][C@@H](C)C(F)(F)F)cc3F)cc21

>  <Energy>  (91) 
93.90024204952145

>  <Genealogy>  (91) 
CCOC(=O)CCC(=O)n1c(C([NH-])=O)cc2ccc(-c3c(F)cc(C(=O)[N-][C@@H](C)C(F)(F)F)cc3F)cc21 (protonated)
CCOC(=O)CCC(=O)n1c(C([NH-])=O)cc2ccc(-c3c(F)cc(C(=O)[N-][C@@H](C)C(F)(F)F)cc3F)cc21 (3D coordinates assigned)
CCOC(=O)CCC(=O)n1c(C([NH-])=O)cc2ccc(-c3c(F)cc(C(=O)[N-][C@@H](C)C(F)(F)F)cc3F)cc21 (optimized conformer: 93.90024204952145 kcal/mol)

>  <smiles>  (91) 
CCOC(=O)CCC(=O)n1c(C(N)=O)cc2ccc(-c3c(F)cc(C(=O)N[C@@H](C)C(F)(F)F)cc3F)cc21

>  <score_type>  (91) 
oracle

>  <origin>  (91) 
adg

>  <m_score__min__energy>  (91) 
-9.2200000000000006

>  <m_primary>  (91) 
energy

$$$$
91:0
     RDKit          3D

 39 40  0  0  0  0  0  0  0  0999 V2000
  149.9370  150.7830  133.5880 C   0  0  0  0  0  0  0  0  0  0  0  0
  150.2290  151.3860  132.2790 N   0  0  0  0  0  0  0  0  0  0  0  0
  150.3850  150.3670  131.2300 C   0  0  0  0  0  0  0  0  0  0  0  0
  149.3190  152.4970  131.9120 C   0  0  0  0  0  0  0  0  0  0  0  0
  149.6040  153.8570  132.5920 C   0  0  0  0  0  0  0  0  0  0  0  0
  148.3640  154.6690  132.8560 C   0  0  0  0  0  0  0  0  0  0  0  0
  147.1390  154.0230  133.1590 C   0  0  0  0  0  0  0  0  0  0  0  0
  145.9820  154.7710  133.4350 C   0  0  0  0  0  0  0  0  0  0  0  0
  146.0780  156.1590  133.3920 C   0  0  0  0  0  0  0  0  0  0  0  0
  145.1350  157.1240  133.6680 C   0  0  0  0  0  0  0  0  0  0  0  0
  145.7930  158.3410  133.4980 C   0  0  0  0  0  0  0  0  0  0  0  0
  145.1380  159.6550  133.6690 C   0  0  0  0  0  0  0  0  0  0  0  0
  145.7700  160.8620  133.2380 N   0  0  0  0  0  0  0  0  0  0  0  0
  143.9830  159.7090  134.1670 O   0  0  0  0  0  0  0  0  0  0  0  0
  147.0910  158.1360  133.1410 N   0  0  0  0  0  0  0  0  0  0  0  0
  148.1400  159.1070  133.0150 C   0  0  0  0  0  0  0  0  0  0  0  0
  148.2380  160.0340  133.8620 O   0  0  0  0  0  0  0  0  0  0  0  0
  149.0420  159.1020  131.8220 C   0  0  0  0  0  0  0  0  0  0  0  0
  148.6280  160.4750  130.7660 Cl  0  0  0  0  0  0  0  0  0  0  0  0
  147.2480  156.7980  133.0750 C   0  0  0  0  0  0  0  0  0  0  0  0
  148.4170  156.0800  132.8030 C   0  0  0  0  0  0  0  0  0  0  0  0
  150.2666  151.4635  134.3869 H   0  0  0  0  0  0  0  0  0  0  0  0
  148.8546  150.6087  133.6781 H   0  0  0  0  0  0  0  0  0  0  0  0
  150.4713  149.8257  133.6781 H   0  0  0  0  0  0  0  0  0  0  0  0
  150.5358  149.3818  131.6954 H   0  0  0  0  0  0  0  0  0  0  0  0
  149.4801  150.3426  130.6050 H   0  0  0  0  0  0  0  0  0  0  0  0
  151.2557  150.6145  130.6050 H   0  0  0  0  0  0  0  0  0  0  0  0
  149.3876  152.6433  130.8239 H   0  0  0  0  0  0  0  0  0  0  0  0
  148.3216  152.1926  132.2620 H   0  0  0  0  0  0  0  0  0  0  0  0
  150.1068  153.6676  133.5518 H   0  0  0  0  0  0  0  0  0  0  0  0
  150.2303  154.4393  131.9001 H   0  0  0  0  0  0  0  0  0  0  0  0
  147.0938  152.9241  133.1782 H   0  0  0  0  0  0  0  0  0  0  0  0
  145.0304  154.2754  133.6774 H   0  0  0  0  0  0  0  0  0  0  0  0
  144.0861  156.9677  133.9603 H   0  0  0  0  0  0  0  0  0  0  0  0
  145.3140  161.7840  133.4230 H   0  0  0  0  0  0  0  0  0  0  0  0
  146.6350  160.8440  132.6570 H   0  0  0  0  0  0  0  0  0  0  0  0
  150.0875  159.1939  132.1514 H   0  0  0  0  0  0  0  0  0  0  0  0
  148.9158  158.1599  131.2683 H   0  0  0  0  0  0  0  0  0  0  0  0
  149.3536  156.6004  132.5542 H   0  0  0  0  0  0  0  0  0  0  0  0
  1  2  1  0
  2  3  1  0
  2  4  1  0
  4  5  1  0
  5  6  1  0
  6  7  2  0
  7  8  1  0
  8  9  2  0
  9 10  1  0
 10 11  2  0
 11 12  1  0
 12 13  1  0
 12 14  2  0
 11 15  1  0
 15 16  1  0
 16 17  2  0
 16 18  1  0
 18 19  1  0
 15 20  1  0
 20 21  2  0
 21  6  1  0
 20  9  1  0
  1 22  1  0
  1 23  1  0
  1 24  1  0
  3 25  1  0
  3 26  1  0
  3 27  1  0
  4 28  1  0
  4 29  1  0
  5 30  1  0
  5 31  1  0
  7 32  1  0
  8 33  1  0
 10 34  1  0
 13 35  1  0
 13 36  1  0
 18 37  1  0
 18 38  1  0
 21 39  1  0
M  END
>  <UniqueID>  (92) 
92

>  <SMILES>  (92) 
CN(C)CCc1ccc2cc(C(N)=O)n(C(=O)CCl)c2c1

>  <Energy>  (92) 
80.22661536481495

>  <Genealogy>  (92) 
CN(C)CCc1ccc2cc(C(N)=O)n(C(=O)CCl)c2c1 (3D coordinates assigned)
CN(C)CCc1ccc2cc(C(N)=O)n(C(=O)CCl)c2c1 (optimized conformer: 80.22661536481495 kcal/mol)

>  <smiles>  (92) 
CN(C)CCc1ccc2cc(C(N)=O)n(C(=O)CCl)c2c1

>  <score_type>  (92) 
oracle

>  <origin>  (92) 
adg

>  <m_score__min__energy>  (92) 
-7.2400000000000002

>  <m_primary>  (92) 
energy

$$$$
92:0
     RDKit          3D

 41 42  0  0  0  0  0  0  0  0999 V2000
  140.8480  156.8960  132.9360 N   0  0  0  0  0  0  0  0  0  0  0  0
  141.2210  158.0350  133.7120 C   0  0  0  0  0  0  0  0  0  0  0  0
  140.3450  158.6320  134.3920 O   0  0  0  0  0  0  0  0  0  0  0  0
  142.6000  158.5640  133.6820 C   0  0  0  0  0  0  0  0  0  0  0  0
  142.9120  159.9060  133.8790 C   0  0  0  0  0  0  0  0  0  0  0  0
  144.2790  159.9860  133.7350 C   0  0  0  0  0  0  0  0  0  0  0  0
  145.1300  161.0800  133.8630 C   0  0  0  0  0  0  0  0  0  0  0  0
  146.5100  160.8620  133.7210 C   0  0  0  0  0  0  0  0  0  0  0  0
  147.0120  159.5640  133.4570 C   0  0  0  0  0  0  0  0  0  0  0  0
  148.4950  159.3340  133.3600 C   0  0  0  0  0  0  0  0  0  0  0  0
  148.9560  159.4770  131.9420 C   0  0  0  0  0  0  0  0  0  0  0  0
  149.2230  160.5780  131.4860 O   0  0  0  0  0  0  0  0  0  0  0  0
  146.1190  158.4750  133.3450 C   0  0  0  0  0  0  0  0  0  0  0  0
  144.7480  158.7240  133.4700 C   0  0  0  0  0  0  0  0  0  0  0  0
  143.7270  157.8390  133.4350 N   0  0  0  0  0  0  0  0  0  0  0  0
  143.8360  156.4110  133.3230 C   0  0  0  0  0  0  0  0  0  0  0  0
  143.5650  155.8440  132.2300 O   0  0  0  0  0  0  0  0  0  0  0  0
  144.2550  155.6610  134.4280 O   0  0  0  0  0  0  0  0  0  0  0  0
  144.3420  154.2360  134.4320 C   0  0  0  0  0  0  0  0  0  0  0  0
  142.9520  153.6000  134.5520 C   0  0  0  0  0  0  0  0  0  0  0  0
  142.4910  152.9390  133.2450 C   0  0  0  0  0  0  0  0  0  0  0  0
  140.9970  153.1550  132.9900 C   0  0  0  0  0  0  0  0  0  0  0  0
  140.7390  154.4930  132.6550 O   0  0  0  0  0  0  0  0  0  0  0  0
  141.5000  156.4840  132.2340 H   0  0  0  0  0  0  0  0  0  0  0  0
  139.8800  156.5110  133.0050 H   0  0  0  0  0  0  0  0  0  0  0  0
  142.2152  160.7274  134.1021 H   0  0  0  0  0  0  0  0  0  0  0  0
  144.7335  162.0851  134.0692 H   0  0  0  0  0  0  0  0  0  0  0  0
  147.2077  161.7072  133.8156 H   0  0  0  0  0  0  0  0  0  0  0  0
  149.0176  160.0716  133.9867 H   0  0  0  0  0  0  0  0  0  0  0  0
  148.7205  158.3146  133.7065 H   0  0  0  0  0  0  0  0  0  0  0  0
  149.0547  158.5842  131.3071 H   0  0  0  0  0  0  0  0  0  0  0  0
  146.4925  157.4563  133.1640 H   0  0  0  0  0  0  0  0  0  0  0  0
  144.8106  153.9017  133.4946 H   0  0  0  0  0  0  0  0  0  0  0  0
  144.9453  153.9246  135.2975 H   0  0  0  0  0  0  0  0  0  0  0  0
  142.9813  152.8355  135.3424 H   0  0  0  0  0  0  0  0  0  0  0  0
  142.2378  154.4020  134.7901 H   0  0  0  0  0  0  0  0  0  0  0  0
  143.0602  153.3706  132.4085 H   0  0  0  0  0  0  0  0  0  0  0  0
  142.6686  151.8568  133.3301 H   0  0  0  0  0  0  0  0  0  0  0  0
  140.6747  152.5069  132.1617 H   0  0  0  0  0  0  0  0  0  0  0  0
  140.4424  152.9069  133.9070 H   0  0  0  0  0  0  0  0  0  0  0  0
  141.6190  154.9400  132.5580 H   0  0  0  0  0  0  0  0  0  0  0  0
  1  2  1  0
  2  3  2  0
  2  4  1  0
  4  5  2  0
  5  6  1  0
  6  7  2  0
  7  8  1  0
  8  9  2  0
  9 10  1  0
 10 11  1  0
 11 12  2  0
  9 13  1  0
 13 14  2  0
 14 15  1  0
 15 16  1  0
 16 17  2  0
 16 18  1  0
 18 19  1  0
 19 20  1  0
 20 21  1  0
 21 22  1  0
 22 23  1  0
 15  4  1  0
 14  6  1  0
  1 24  1  0
  1 25  1  0
  5 26  1  0
  7 27  1  0
  8 28  1  0
 10 29  1  0
 10 30  1  0
 11 31  1  0
 13 32  1  0
 19 33  1  0
 19 34  1  0
 20 35  1  0
 20 36  1  0
 21 37  1  0
 21 38  1  0
 22 39  1  0
 22 40  1  0
 23 41  1  0
M  END
>  <UniqueID>  (93) 
93

>  <SMILES>  (93) 
NC(=O)c1cc2ccc(CC=O)cc2n1C(=O)OCCCCO

>  <Energy>  (93) 
71.65415906206437

>  <Genealogy>  (93) 
NC(=O)c1cc2ccc(CC=O)cc2n1C(=O)OCCCCO (3D coordinates assigned)
NC(=O)c1cc2ccc(CC=O)cc2n1C(=O)OCCCCO (optimized conformer: 71.65415906206437 kcal/mol)

>  <smiles>  (93) 
NC(=O)c1cc2ccc(CC=O)cc2n1C(=O)OCCCCO

>  <score_type>  (93) 
oracle

>  <origin>  (93) 
adg

>  <m_score__min__energy>  (93) 
-6.6500000000000004

>  <m_primary>  (93) 
energy

$$$$
93:0
     RDKit          3D

 58 60  0  0  0  0  0  0  0  0999 V2000
  143.7250  153.0640  138.0190 C   0  0  0  0  0  0  0  0  0  0  0  0
  142.2490  153.3610  137.7160 C   0  0  1  0  0  0  0  0  0  0  0  0
  141.4410  152.0950  137.8280 C   0  0  0  0  0  0  0  0  0  0  0  0
  141.2360  151.5730  138.9540 O   0  0  0  0  0  0  0  0  0  0  0  0
  140.9450  151.4730  136.6880 O   0  0  0  0  0  0  0  0  0  0  0  0
  141.6670  154.4570  138.6410 C   0  0  0  0  0  0  0  0  0  0  0  0
  142.5620  154.7440  139.6620 F   0  0  0  0  0  0  0  0  0  0  0  0
  140.5040  153.9850  139.2310 F   0  0  0  0  0  0  0  0  0  0  0  0
  141.3340  155.7120  137.8610 C   0  0  0  0  0  0  0  0  0  0  0  0
  141.4140  156.9970  138.4650 C   0  0  0  0  0  0  0  0  0  0  0  0
  141.1260  158.1580  137.7280 C   0  0  0  0  0  0  0  0  0  0  0  0
  140.7720  158.0110  136.3900 C   0  0  0  0  0  0  0  0  0  0  0  0
  140.4420  158.9580  135.4440 C   0  0  0  0  0  0  0  0  0  0  0  0
  140.1850  158.2390  134.2770 C   0  0  0  0  0  0  0  0  0  0  0  0
  139.8090  158.8610  132.9890 C   0  0  0  0  0  0  0  0  0  0  0  0
  138.5500  158.5860  132.3810 N   0  0  0  0  0  0  0  0  0  0  0  0
  140.6130  159.6440  132.4150 O   0  0  0  0  0  0  0  0  0  0  0  0
  140.3550  156.9070  134.4950 N   0  0  0  0  0  0  0  0  0  0  0  0
  140.1630  155.8320  133.5630 C   0  0  0  0  0  0  0  0  0  0  0  0
  139.0990  155.8000  132.8870 O   0  0  0  0  0  0  0  0  0  0  0  0
  141.1820  154.8200  133.3810 N   0  0  0  0  0  0  0  0  0  0  0  0
  140.7130  153.4720  132.9900 C   0  0  0  0  0  0  0  0  0  0  0  0
  141.7870  152.3800  133.0060 C   0  0  0  0  0  0  0  0  0  0  0  0
  142.8090  152.6260  134.1010 C   0  0  0  0  0  0  0  0  0  0  0  0
  143.5360  153.9220  133.7930 C   0  0  0  0  0  0  0  0  0  0  0  0
  142.5760  155.1340  133.7980 C   0  0  1  0  0  0  0  0  0  0  0  0
  143.1770  156.3210  132.9910 C   0  0  0  0  0  0  0  0  0  0  0  0
  143.8450  157.3260  133.8500 N   0  0  0  0  0  0  0  0  0  0  0  0
  143.5270  158.7000  133.4280 C   0  0  0  0  0  0  0  0  0  0  0  0
  145.3030  157.1280  133.8180 C   0  0  0  0  0  0  0  0  0  0  0  0
  140.7100  156.7830  135.7890 C   0  0  0  0  0  0  0  0  0  0  0  0
  140.9850  155.6110  136.4960 C   0  0  0  0  0  0  0  0  0  0  0  0
  143.8768  153.0334  139.1080 H   0  0  0  0  0  0  0  0  0  0  0  0
  144.0005  152.0924  137.5830 H   0  0  0  0  0  0  0  0  0  0  0  0
  144.3549  153.8534  137.5830 H   0  0  0  0  0  0  0  0  0  0  0  0
  142.1915  153.7466  136.6874 H   0  0  0  0  0  0  0  0  0  0  0  0
  141.7050  157.0830  139.5223 H   0  0  0  0  0  0  0  0  0  0  0  0
  141.1787  159.1529  138.1943 H   0  0  0  0  0  0  0  0  0  0  0  0
  140.3921  160.0483  135.5806 H   0  0  0  0  0  0  0  0  0  0  0  0
  138.0750  157.6670  132.5200 H   0  0  0  0  0  0  0  0  0  0  0  0
  139.9141  153.1743  133.6851 H   0  0  0  0  0  0  0  0  0  0  0  0
  140.3769  153.5556  131.9460 H   0  0  0  0  0  0  0  0  0  0  0  0
  141.3051  151.4063  133.1781 H   0  0  0  0  0  0  0  0  0  0  0  0
  142.3075  152.3914  132.0370 H   0  0  0  0  0  0  0  0  0  0  0  0
  142.3003  152.7070  135.0730 H   0  0  0  0  0  0  0  0  0  0  0  0
  143.5246  151.7918  134.1454 H   0  0  0  0  0  0  0  0  0  0  0  0
  144.3156  154.0821  134.5524 H   0  0  0  0  0  0  0  0  0  0  0  0
  143.9747  153.8374  132.7878 H   0  0  0  0  0  0  0  0  0  0  0  0
  142.4833  155.4386  134.8509 H   0  0  0  0  0  0  0  0  0  0  0  0
  143.9148  155.9227  132.2789 H   0  0  0  0  0  0  0  0  0  0  0  0
  142.3442  156.8265  132.4801 H   0  0  0  0  0  0  0  0  0  0  0  0
  143.3807  159.3319  134.3164 H   0  0  0  0  0  0  0  0  0  0  0  0
  144.3563  159.0999  132.8261 H   0  0  0  0  0  0  0  0  0  0  0  0
  142.6063  158.6949  132.8261 H   0  0  0  0  0  0  0  0  0  0  0  0
  145.6886  157.0756  134.8469 H   0  0  0  0  0  0  0  0  0  0  0  0
  145.5342  156.1902  133.2916 H   0  0  0  0  0  0  0  0  0  0  0  0
  145.7759  157.9702  133.2916 H   0  0  0  0  0  0  0  0  0  0  0  0
  140.9311  154.6302  136.0008 H   0  0  0  0  0  0  0  0  0  0  0  0
  1  2  1  0
  2  3  1  0
  3  4  2  0
  3  5  1  0
  2  6  1  0
  6  7  1  0
  6  8  1  0
  6  9  1  0
  9 10  2  0
 10 11  1  0
 11 12  2  0
 12 13  1  0
 13 14  2  0
 14 15  1  0
 15 16  1  0
 15 17  2  0
 14 18  1  0
 18 19  1  0
 19 20  2  0
 19 21  1  0
 21 22  1  0
 22 23  1  0
 23 24  1  0
 24 25  1  0
 25 26  1  0
 26 27  1  0
 27 28  1  0
 28 29  1  0
 28 30  1  0
 18 31  1  0
 31 32  2  0
 32  9  1  0
 31 12  1  0
 26 21  1  0
  1 33  1  0
  1 34  1  0
  1 35  1  0
  2 36  1  6
 10 37  1  0
 11 38  1  0
 13 39  1  0
 16 40  1  0
 22 41  1  0
 22 42  1  0
 23 43  1  0
 23 44  1  0
 24 45  1  0
 24 46  1  0
 25 47  1  0
 25 48  1  0
 26 49  1  1
 27 50  1  0
 27 51  1  0
 29 52  1  0
 29 53  1  0
 29 54  1  0
 30 55  1  0
 30 56  1  0
 30 57  1  0
 32 58  1  0
M  CHG  2   5  -1  16  -1
M  END
>  <UniqueID>  (94) 
94

>  <SMILES>  (94) 
C[C@@H](C(=O)[O-])C(F)(F)c1ccc2cc(C([NH-])=O)n(C(=O)N3CCCC[C@H]3CN(C)C)c2c1

>  <Energy>  (94) 
97.51975603227515

>  <Genealogy>  (94) 
CC(C(=O)[O-])C(F)(F)c1ccc2cc(C([NH-])=O)n(C(=O)N3CCCCC3CN(C)C)c2c1 (protonated)
C[C@@H](C(=O)[O-])C(F)(F)c1ccc2cc(C([NH-])=O)n(C(=O)N3CCCC[C@H]3CN(C)C)c2c1 (chirality)
C[C@@H](C(=O)[O-])C(F)(F)c1ccc2cc(C([NH-])=O)n(C(=O)N3CCCC[C@H]3CN(C)C)c2c1 (3D coordinates assigned)
C[C@@H](C(=O)[O-])C(F)(F)c1ccc2cc(C([NH-])=O)n(C(=O)N3CCCC[C@H]3CN(C)C)c2c1 (nonaromatic ring conformer: 97.51975603227515 kcal/mol)

>  <smiles>  (94) 
CC(C(=O)O)C(F)(F)c1ccc2cc(C(N)=O)n(C(=O)N3CCCCC3CN(C)C)c2c1

>  <score_type>  (94) 
oracle

>  <origin>  (94) 
adg

>  <m_score__min__energy>  (94) 
-8.0099999999999998

>  <m_primary>  (94) 
energy

$$$$
94:0
     RDKit          3D

 48 49  0  0  0  0  0  0  0  0999 V2000
  142.1950  151.9920  133.7590 C   0  0  0  0  0  0  0  0  0  0  0  0
  141.4340  153.0810  133.8960 C   0  0  0  0  0  0  0  0  0  0  0  0
  140.2700  153.3420  132.9840 C   0  0  0  0  0  0  0  0  0  0  0  0
  139.6300  154.5720  133.3200 O   0  0  0  0  0  0  0  0  0  0  0  0
  140.2170  155.8250  133.1090 C   0  0  0  0  0  0  0  0  0  0  0  0
  141.4460  156.0010  133.3340 O   0  0  0  0  0  0  0  0  0  0  0  0
  139.4040  156.9060  132.6380 N   0  0  0  0  0  0  0  0  0  0  0  0
  139.9240  158.2640  132.4570 C   0  0  2  0  0  0  0  0  0  0  0  0
  139.9580  158.9920  133.8190 C   0  0  0  0  0  0  0  0  0  0  0  0
  141.0770  158.5010  134.7560 C   0  0  0  0  0  0  0  0  0  0  0  0
  142.4310  159.0410  134.3730 C   0  0  0  0  0  0  0  0  0  0  0  0
  142.6100  160.4330  134.1750 C   0  0  0  0  0  0  0  0  0  0  0  0
  143.8550  160.9440  133.7740 C   0  0  0  0  0  0  0  0  0  0  0  0
  144.9000  160.0440  133.5850 C   0  0  0  0  0  0  0  0  0  0  0  0
  146.1910  160.2650  133.1630 C   0  0  0  0  0  0  0  0  0  0  0  0
  146.7890  159.0070  133.1320 C   0  0  0  0  0  0  0  0  0  0  0  0
  148.2140  158.7930  132.8070 C   0  0  0  0  0  0  0  0  0  0  0  0
  148.6020  158.0760  131.6380 N   0  0  0  0  0  0  0  0  0  0  0  0
  149.1030  159.2070  133.6000 O   0  0  0  0  0  0  0  0  0  0  0  0
  145.8990  158.0450  133.5130 N   0  0  0  0  0  0  0  0  0  0  0  0
  146.0900  156.6220  133.5240 C   0  0  0  0  0  0  0  0  0  0  0  0
  146.7370  156.0650  132.5960 O   0  0  0  0  0  0  0  0  0  0  0  0
  145.5320  155.8550  134.5520 O   0  0  0  0  0  0  0  0  0  0  0  0
  144.5380  154.8660  134.3180 C   0  0  0  0  0  0  0  0  0  0  0  0
  144.7490  158.6980  133.7910 C   0  0  0  0  0  0  0  0  0  0  0  0
  143.5170  158.1590  134.1770 C   0  0  0  0  0  0  0  0  0  0  0  0
  139.0680  158.9870  131.4520 C   0  0  0  0  0  0  0  0  0  0  0  0
  139.5640  159.9040  130.7440 O   0  0  0  0  0  0  0  0  0  0  0  0
  137.7420  158.6170  131.2590 O   0  0  0  0  0  0  0  0  0  0  0  0
  143.0422  151.8238  134.4402 H   0  0  0  0  0  0  0  0  0  0  0  0
  141.9746  151.2633  132.9650 H   0  0  0  0  0  0  0  0  0  0  0  0
  141.6649  153.8021  134.6939 H   0  0  0  0  0  0  0  0  0  0  0  0
  140.6297  153.3943  131.9458 H   0  0  0  0  0  0  0  0  0  0  0  0
  139.5433  152.5239  133.0962 H   0  0  0  0  0  0  0  0  0  0  0  0
  138.3770  156.7360  132.5410 H   0  0  0  0  0  0  0  0  0  0  0  0
  140.9538  158.2356  132.0715 H   0  0  0  0  0  0  0  0  0  0  0  0
  140.1058  160.0664  133.6348 H   0  0  0  0  0  0  0  0  0  0  0  0
  139.0025  158.7796  134.3208 H   0  0  0  0  0  0  0  0  0  0  0  0
  140.8455  158.8249  135.7814 H   0  0  0  0  0  0  0  0  0  0  0  0
  141.1207  157.4047  134.6775 H   0  0  0  0  0  0  0  0  0  0  0  0
  141.7658  161.1194  134.3370 H   0  0  0  0  0  0  0  0  0  0  0  0
  144.0000  162.0226  133.6141 H   0  0  0  0  0  0  0  0  0  0  0  0
  146.6526  161.2296  132.9050 H   0  0  0  0  0  0  0  0  0  0  0  0
  148.2740  157.0980  131.4750 H   0  0  0  0  0  0  0  0  0  0  0  0
  144.1606  154.4905  135.2806 H   0  0  0  0  0  0  0  0  0  0  0  0
  143.7086  155.3078  133.7462 H   0  0  0  0  0  0  0  0  0  0  0  0
  144.9756  154.0344  133.7462 H   0  0  0  0  0  0  0  0  0  0  0  0
  143.3970  157.0755  134.3242 H   0  0  0  0  0  0  0  0  0  0  0  0
  1  2  2  0
  2  3  1  0
  3  4  1  0
  4  5  1  0
  5  6  2  0
  5  7  1  0
  7  8  1  0
  8  9  1  0
  9 10  1  0
 10 11  1  0
 11 12  2  0
 12 13  1  0
 13 14  2  0
 14 15  1  0
 15 16  2  0
 16 17  1  0
 17 18  1  0
 17 19  2  0
 16 20  1  0
 20 21  1  0
 21 22  2  0
 21 23  1  0
 23 24  1  0
 20 25  1  0
 25 26  2  0
  8 27  1  0
 27 28  2  0
 27 29  1  0
 26 11  1  0
 25 14  1  0
  1 30  1  0
  1 31  1  0
  2 32  1  0
  3 33  1  0
  3 34  1  0
  7 35  1  0
  8 36  1  6
  9 37  1  0
  9 38  1  0
 10 39  1  0
 10 40  1  0
 12 41  1  0
 13 42  1  0
 15 43  1  0
 18 44  1  0
 24 45  1  0
 24 46  1  0
 24 47  1  0
 26 48  1  0
M  CHG  2  18  -1  29  -1
M  END
>  <UniqueID>  (95) 
95

>  <SMILES>  (95) 
C=CCOC(=O)N[C@H](CCc1ccc2cc(C([NH-])=O)n(C(=O)OC)c2c1)C(=O)[O-]

>  <Energy>  (95) 
75.56275773404424

>  <Genealogy>  (95) 
C=CCOC(=O)NC(CCc1ccc2cc(C([NH-])=O)n(C(=O)OC)c2c1)C(=O)[O-] (protonated)
C=CCOC(=O)N[C@H](CCc1ccc2cc(C([NH-])=O)n(C(=O)OC)c2c1)C(=O)[O-] (chirality)
C=CCOC(=O)N[C@H](CCc1ccc2cc(C([NH-])=O)n(C(=O)OC)c2c1)C(=O)[O-] (3D coordinates assigned)
C=CCOC(=O)N[C@H](CCc1ccc2cc(C([NH-])=O)n(C(=O)OC)c2c1)C(=O)[O-] (optimized conformer: 75.56275773404424 kcal/mol)

>  <smiles>  (95) 
C=CCOC(=O)NC(CCc1ccc2cc(C(N)=O)n(C(=O)OC)c2c1)C(=O)O

>  <score_type>  (95) 
oracle

>  <origin>  (95) 
adg

>  <m_score__min__energy>  (95) 
-7.75

>  <m_primary>  (95) 
energy

$$$$
95:0
     RDKit          3D

 41 43  0  0  0  0  0  0  0  0999 V2000
  139.4030  160.0570  131.9150 C   0  0  0  0  0  0  0  0  0  0  0  0
  140.3220  158.8820  132.2300 C   0  0  0  0  0  0  0  0  0  0  0  0
  141.3380  159.2690  133.2560 C   0  0  0  0  0  0  0  0  0  0  0  0
  140.9560  159.7300  134.3660 O   0  0  0  0  0  0  0  0  0  0  0  0
  142.6960  159.0710  132.9770 O   0  0  0  0  0  0  0  0  0  0  0  0
  143.6700  158.7250  133.9240 C   0  0  0  0  0  0  0  0  0  0  0  0
  143.3760  158.0150  134.9240 O   0  0  0  0  0  0  0  0  0  0  0  0
  145.0240  159.1690  133.7380 N   0  0  0  0  0  0  0  0  0  0  0  0
  145.4810  160.4520  133.7080 C   0  0  0  0  0  0  0  0  0  0  0  0
  144.6970  161.6610  134.0340 C   0  0  0  0  0  0  0  0  0  0  0  0
  143.3170  161.7530  133.6940 N   0  0  0  0  0  0  0  0  0  0  0  0
  145.2420  162.6060  134.6650 O   0  0  0  0  0  0  0  0  0  0  0  0
  146.8390  160.4800  133.3990 C   0  0  0  0  0  0  0  0  0  0  0  0
  147.2060  159.1630  133.2460 C   0  0  0  0  0  0  0  0  0  0  0  0
  148.4400  158.6090  132.9190 C   0  0  0  0  0  0  0  0  0  0  0  0
  148.5230  157.2140  132.7940 C   0  0  0  0  0  0  0  0  0  0  0  0
  147.3790  156.3960  132.9870 C   0  0  0  0  0  0  0  0  0  0  0  0
  147.4770  154.9210  132.8380 C   0  0  0  0  0  0  0  0  0  0  0  0
  146.3290  154.1160  132.9000 C   0  0  0  0  0  0  0  0  0  0  0  0
  146.4360  152.7320  132.7580 C   0  0  0  0  0  0  0  0  0  0  0  0
  147.6920  152.1600  132.5530 C   0  0  0  0  0  0  0  0  0  0  0  0
  148.8050  152.9440  132.4920 N   0  0  0  0  0  0  0  0  0  0  0  0
  150.0430  152.3750  132.2820 O   0  0  0  0  0  0  0  0  0  0  0  0
  148.7200  154.2980  132.6310 C   0  0  0  0  0  0  0  0  0  0  0  0
  146.1430  156.9980  133.3190 C   0  0  0  0  0  0  0  0  0  0  0  0
  146.0930  158.3900  133.4560 C   0  0  0  0  0  0  0  0  0  0  0  0
  139.0500  160.5084  132.8540 H   0  0  0  0  0  0  0  0  0  0  0  0
  139.9554  160.8085  131.3319 H   0  0  0  0  0  0  0  0  0  0  0  0
  138.5405  159.7019  131.3319 H   0  0  0  0  0  0  0  0  0  0  0  0
  139.7202  158.0454  132.6147 H   0  0  0  0  0  0  0  0  0  0  0  0
  140.8441  158.5833  131.3090 H   0  0  0  0  0  0  0  0  0  0  0  0
  142.6480  160.9960  133.9570 H   0  0  0  0  0  0  0  0  0  0  0  0
  147.4817  161.3671  133.2986 H   0  0  0  0  0  0  0  0  0  0  0  0
  149.3235  159.2455  132.7633 H   0  0  0  0  0  0  0  0  0  0  0  0
  149.4873  156.7480  132.5431 H   0  0  0  0  0  0  0  0  0  0  0  0
  145.3432  154.5769  133.0608 H   0  0  0  0  0  0  0  0  0  0  0  0
  145.5385  152.0978  132.8072 H   0  0  0  0  0  0  0  0  0  0  0  0
  147.7844  151.0697  132.4399 H   0  0  0  0  0  0  0  0  0  0  0  0
  150.6950  152.7580  131.6060 H   0  0  0  0  0  0  0  0  0  0  0  0
  149.6334  154.9088  132.5806 H   0  0  0  0  0  0  0  0  0  0  0  0
  145.2410  156.3858  133.4663 H   0  0  0  0  0  0  0  0  0  0  0  0
  1  2  1  0
  2  3  1  0
  3  4  2  0
  3  5  1  0
  5  6  1  0
  6  7  2  0
  6  8  1  0
  8  9  1  0
  9 10  1  0
 10 11  1  0
 10 12  2  0
  9 13  2  0
 13 14  1  0
 14 15  2  0
 15 16  1  0
 16 17  2  0
 17 18  1  0
 18 19  2  0
 19 20  1  0
 20 21  2  0
 21 22  1  0
 22 23  1  0
 22 24  2  0
 17 25  1  0
 25 26  2  0
 26  8  1  0
 26 14  1  0
 24 18  1  0
  1 27  1  0
  1 28  1  0
  1 29  1  0
  2 30  1  0
  2 31  1  0
 11 32  1  0
 13 33  1  0
 15 34  1  0
 16 35  1  0
 19 36  1  0
 20 37  1  0
 21 38  1  0
 23 39  1  0
 24 40  1  0
 25 41  1  0
M  CHG  2  11  -1  22   1
M  END
>  <UniqueID>  (96) 
96

>  <SMILES>  (96) 
CCC(=O)OC(=O)n1c(C([NH-])=O)cc2ccc(-c3ccc[n+](O)c3)cc21

>  <Energy>  (96) 
84.67618351210211

>  <Genealogy>  (96) 
CCC(=O)OC(=O)n1c(C([NH-])=O)cc2ccc(-c3ccc[n+](O)c3)cc21 (protonated)
CCC(=O)OC(=O)n1c(C([NH-])=O)cc2ccc(-c3ccc[n+](O)c3)cc21 (3D coordinates assigned)
CCC(=O)OC(=O)n1c(C([NH-])=O)cc2ccc(-c3ccc[n+](O)c3)cc21 (optimized conformer: 84.67618351210211 kcal/mol)

>  <smiles>  (96) 
CCC(=O)OC(=O)n1c(C(N)=O)cc2ccc(-c3ccc[n+](O)c3)cc21

>  <score_type>  (96) 
oracle

>  <origin>  (96) 
adg

>  <m_score__min__energy>  (96) 
-7.5999999999999996

>  <m_primary>  (96) 
energy

$$$$
96:0
     RDKit          3D

 37 39  0  0  0  0  0  0  0  0999 V2000
  149.6180  157.8930  131.8650 C   0  0  0  0  0  0  0  0  0  0  0  0
  149.2830  159.2270  131.3730 N   0  0  0  0  0  0  0  0  0  0  0  0
  149.7300  159.7690  130.2270 C   0  0  0  0  0  0  0  0  0  0  0  0
  149.2590  161.0580  130.1480 C   0  0  0  0  0  0  0  0  0  0  0  0
  148.5120  161.3340  131.2350 N   0  0  0  0  0  0  0  0  0  0  0  0
  148.5320  160.1920  131.9580 C   0  0  0  0  0  0  0  0  0  0  0  0
  147.8260  160.0800  133.2500 C   0  0  0  0  0  0  0  0  0  0  0  0
  148.4560  159.6280  134.2440 O   0  0  0  0  0  0  0  0  0  0  0  0
  146.3880  160.4940  133.4150 C   0  0  0  0  0  0  0  0  0  0  0  0
  145.4730  159.2980  133.4180 C   0  0  0  0  0  0  0  0  0  0  0  0
  146.0190  157.9900  133.3860 C   0  0  0  0  0  0  0  0  0  0  0  0
  145.1790  156.8650  133.3700 C   0  0  0  0  0  0  0  0  0  0  0  0
  143.8030  157.0770  133.3680 C   0  0  0  0  0  0  0  0  0  0  0  0
  142.7710  156.1690  133.3830 C   0  0  0  0  0  0  0  0  0  0  0  0
  141.6090  156.9340  133.3830 C   0  0  0  0  0  0  0  0  0  0  0  0
  140.2540  156.3500  133.3320 C   0  0  0  0  0  0  0  0  0  0  0  0
  139.1250  157.1340  132.9410 N   0  0  0  0  0  0  0  0  0  0  0  0
  140.0980  155.1250  133.5810 O   0  0  0  0  0  0  0  0  0  0  0  0
  141.9060  158.2640  133.3810 N   0  0  0  0  0  0  0  0  0  0  0  0
  140.9840  159.3620  133.5020 C   0  0  0  0  0  0  0  0  0  0  0  0
  140.2060  159.6490  132.5550 O   0  0  0  0  0  0  0  0  0  0  0  0
  140.9470  160.1220  134.6650 O   0  0  0  0  0  0  0  0  0  0  0  0
  143.2570  158.3360  133.3700 C   0  0  0  0  0  0  0  0  0  0  0  0
  144.0710  159.4750  133.4070 C   0  0  0  0  0  0  0  0  0  0  0  0
  149.6170  157.8969  132.9650 H   0  0  0  0  0  0  0  0  0  0  0  0
  148.8735  157.1700  131.5003 H   0  0  0  0  0  0  0  0  0  0  0  0
  150.6157  157.6075  131.5003 H   0  0  0  0  0  0  0  0  0  0  0  0
  150.3637  159.2674  129.4808 H   0  0  0  0  0  0  0  0  0  0  0  0
  149.4611  161.7574  129.3233 H   0  0  0  0  0  0  0  0  0  0  0  0
  146.2770  161.0329  134.3675 H   0  0  0  0  0  0  0  0  0  0  0  0
  146.1128  161.1405  132.5687 H   0  0  0  0  0  0  0  0  0  0  0  0
  147.1106  157.8553  133.3736 H   0  0  0  0  0  0  0  0  0  0  0  0
  145.5955  155.8470  133.3594 H   0  0  0  0  0  0  0  0  0  0  0  0
  142.8476  155.0717  133.3929 H   0  0  0  0  0  0  0  0  0  0  0  0
  138.1690  156.7150  132.9450 H   0  0  0  0  0  0  0  0  0  0  0  0
  139.2450  158.1020  132.5700 H   0  0  0  0  0  0  0  0  0  0  0  0
  143.6300  160.4825  133.4270 H   0  0  0  0  0  0  0  0  0  0  0  0
  1  2  1  0
  2  3  1  0
  3  4  2  0
  4  5  1  0
  5  6  2  0
  6  7  1  0
  7  8  2  0
  7  9  1  0
  9 10  1  0
 10 11  2  0
 11 12  1  0
 12 13  2  0
 13 14  1  0
 14 15  2  0
 15 16  1  0
 16 17  1  0
 16 18  2  0
 15 19  1  0
 19 20  1  0
 20 21  2  0
 20 22  1  0
 19 23  1  0
 23 24  2  0
  6  2  1  0
 24 10  1  0
 23 13  1  0
  1 25  1  0
  1 26  1  0
  1 27  1  0
  3 28  1  0
  4 29  1  0
  9 30  1  0
  9 31  1  0
 11 32  1  0
 12 33  1  0
 14 34  1  0
 17 35  1  0
 17 36  1  0
 24 37  1  0
M  CHG  1  22  -1
M  END
>  <UniqueID>  (97) 
97

>  <SMILES>  (97) 
Cn1ccnc1C(=O)Cc1ccc2cc(C(N)=O)n(C(=O)[O-])c2c1

>  <Energy>  (97) 
110.91737533596044

>  <Genealogy>  (97) 
Cn1ccnc1C(=O)Cc1ccc2cc(C(N)=O)n(C(=O)[O-])c2c1 (protonated)
Cn1ccnc1C(=O)Cc1ccc2cc(C(N)=O)n(C(=O)[O-])c2c1 (3D coordinates assigned)
Cn1ccnc1C(=O)Cc1ccc2cc(C(N)=O)n(C(=O)[O-])c2c1 (optimized conformer: 110.91737533596044 kcal/mol)

>  <smiles>  (97) 
Cn1ccnc1C(=O)Cc1ccc2cc(C(N)=O)n(C(=O)O)c2c1

>  <score_type>  (97) 
oracle

>  <origin>  (97) 
adg

>  <m_score__min__energy>  (97) 
-7.4100000000000001

>  <m_primary>  (97) 
energy

$$$$
97:0
     RDKit          3D

 44 46  0  0  0  0  0  0  0  0999 V2000
  139.1680  158.9720  132.4680 C   0  0  0  0  0  0  0  0  0  0  0  0
  139.7650  159.2820  133.7090 O   0  0  0  0  0  0  0  0  0  0  0  0
  139.6560  158.1890  134.6090 C   0  0  0  0  0  0  0  0  0  0  0  0
  139.8310  156.8710  133.8150 C   0  0  0  0  0  0  0  0  0  0  0  0
  141.2500  156.2790  133.8930 C   0  0  0  0  0  0  0  0  0  0  0  0
  142.2540  157.3460  134.0100 N   0  0  0  0  0  0  0  0  0  0  0  0
  143.3040  157.4850  133.0330 C   0  0  0  0  0  0  0  0  0  0  0  0
  143.1900  156.9510  131.8970 O   0  0  0  0  0  0  0  0  0  0  0  0
  144.4740  158.2620  133.3250 N   0  0  0  0  0  0  0  0  0  0  0  0
  144.5640  159.6170  133.4280 C   0  0  0  0  0  0  0  0  0  0  0  0
  143.4300  160.5630  133.3950 C   0  0  0  0  0  0  0  0  0  0  0  0
  142.1240  160.1500  132.9850 N   0  0  0  0  0  0  0  0  0  0  0  0
  143.6060  161.7510  133.7770 O   0  0  0  0  0  0  0  0  0  0  0  0
  145.8950  160.0060  133.5690 C   0  0  0  0  0  0  0  0  0  0  0  0
  146.6210  158.8370  133.5480 C   0  0  0  0  0  0  0  0  0  0  0  0
  147.9950  158.6300  133.6320 C   0  0  0  0  0  0  0  0  0  0  0  0
  148.4700  157.3110  133.5390 C   0  0  0  0  0  0  0  0  0  0  0  0
  147.5740  156.2290  133.3320 C   0  0  0  0  0  0  0  0  0  0  0  0
  148.0950  154.8160  133.2710 C   0  0  0  0  0  0  0  0  0  0  0  0
  149.3080  154.8090  132.6070 F   0  0  0  0  0  0  0  0  0  0  0  0
  148.2750  154.3030  134.5440 F   0  0  0  0  0  0  0  0  0  0  0  0
  147.2060  153.9990  132.5940 F   0  0  0  0  0  0  0  0  0  0  0  0
  146.1830  156.4800  133.2690 C   0  0  0  0  0  0  0  0  0  0  0  0
  145.7400  157.8010  133.3920 C   0  0  0  0  0  0  0  0  0  0  0  0
  142.1340  158.3280  135.1000 C   0  0  0  0  0  0  0  0  0  0  0  0
  140.7250  158.3180  135.7120 C   0  0  0  0  0  0  0  0  0  0  0  0
  138.2038  158.4713  132.6399 H   0  0  0  0  0  0  0  0  0  0  0  0
  139.0036  159.8987  131.8985 H   0  0  0  0  0  0  0  0  0  0  0  0
  139.8314  158.3045  131.8985 H   0  0  0  0  0  0  0  0  0  0  0  0
  138.6674  158.1864  135.0913 H   0  0  0  0  0  0  0  0  0  0  0  0
  139.1239  156.1293  134.2150 H   0  0  0  0  0  0  0  0  0  0  0  0
  139.6417  157.1079  132.7576 H   0  0  0  0  0  0  0  0  0  0  0  0
  141.3186  155.6211  134.7719 H   0  0  0  0  0  0  0  0  0  0  0  0
  141.4459  155.7094  132.9726 H   0  0  0  0  0  0  0  0  0  0  0  0
  141.8870  159.1420  132.8590 H   0  0  0  0  0  0  0  0  0  0  0  0
  141.3560  160.8520  132.9080 H   0  0  0  0  0  0  0  0  0  0  0  0
  146.2828  161.0299  133.6746 H   0  0  0  0  0  0  0  0  0  0  0  0
  148.6879  159.4736  133.7671 H   0  0  0  0  0  0  0  0  0  0  0  0
  149.5486  157.1142  133.6276 H   0  0  0  0  0  0  0  0  0  0  0  0
  145.4676  155.6566  133.1268 H   0  0  0  0  0  0  0  0  0  0  0  0
  142.8662  158.0838  135.8837 H   0  0  0  0  0  0  0  0  0  0  0  0
  142.3241  159.3292  134.6860 H   0  0  0  0  0  0  0  0  0  0  0  0
  140.6367  157.4663  136.4025 H   0  0  0  0  0  0  0  0  0  0  0  0
  140.5658  159.2632  136.2517 H   0  0  0  0  0  0  0  0  0  0  0  0
  1  2  1  0
  2  3  1  0
  3  4  1  0
  4  5  1  0
  5  6  1  0
  6  7  1  0
  7  8  2  0
  7  9  1  0
  9 10  1  0
 10 11  1  0
 11 12  1  0
 11 13  2  0
 10 14  2  0
 14 15  1  0
 15 16  2  0
 16 17  1  0
 17 18  2  0
 18 19  1  0
 19 20  1  0
 19 21  1  0
 19 22  1  0
 18 23  1  0
 23 24  2  0
  6 25  1  0
 25 26  1  0
 26  3  1  0
 24  9  1  0
 24 15  1  0
  1 27  1  0
  1 28  1  0
  1 29  1  0
  3 30  1  0
  4 31  1  0
  4 32  1  0
  5 33  1  0
  5 34  1  0
 12 35  1  0
 12 36  1  0
 14 37  1  0
 16 38  1  0
 17 39  1  0
 23 40  1  0
 25 41  1  0
 25 42  1  0
 26 43  1  0
 26 44  1  0
M  END
>  <UniqueID>  (98) 
98

>  <SMILES>  (98) 
COC1CCN(C(=O)n2c(C(N)=O)cc3ccc(C(F)(F)F)cc32)CC1

>  <Energy>  (98) 
90.48198288290858

>  <Genealogy>  (98) 
COC1CCN(C(=O)n2c(C(N)=O)cc3ccc(C(F)(F)F)cc32)CC1 (3D coordinates assigned)
COC1CCN(C(=O)n2c(C(N)=O)cc3ccc(C(F)(F)F)cc32)CC1 (nonaromatic ring conformer: 90.48198288290858 kcal/mol)

>  <smiles>  (98) 
COC1CCN(C(=O)n2c(C(N)=O)cc3ccc(C(F)(F)F)cc32)CC1

>  <score_type>  (98) 
oracle

>  <origin>  (98) 
adg

>  <m_score__min__energy>  (98) 
-6.7400000000000002

>  <m_primary>  (98) 
energy

$$$$
98:0
     RDKit          3D

 61 63  0  0  0  0  0  0  0  0999 V2000
  141.3460  158.7510  137.7520 C   0  0  0  0  0  0  0  0  0  0  0  0
  140.2770  158.9760  136.6890 C   0  0  0  0  0  0  0  0  0  0  0  0
  139.8780  157.7350  136.1120 O   0  0  0  0  0  0  0  0  0  0  0  0
  139.8040  157.5140  134.7310 C   0  0  0  0  0  0  0  0  0  0  0  0
  138.6830  157.3520  134.1730 O   0  0  0  0  0  0  0  0  0  0  0  0
  141.0650  157.5420  133.8810 C   0  0  2  0  0  0  0  0  0  0  0  0
  141.1240  158.7520  133.1210 O   0  0  0  0  0  0  0  0  0  0  0  0
  140.0310  158.9700  132.2390 C   0  0  0  0  0  0  0  0  0  0  0  0
  139.3990  157.8020  131.8430 F   0  0  0  0  0  0  0  0  0  0  0  0
  139.0990  159.7520  132.8950 F   0  0  0  0  0  0  0  0  0  0  0  0
  140.4550  159.6660  131.1230 F   0  0  0  0  0  0  0  0  0  0  0  0
  141.2110  156.2640  133.0250 C   0  0  0  0  0  0  0  0  0  0  0  0
  141.9030  155.2230  133.9010 C   0  0  0  0  0  0  0  0  0  0  0  0
  142.5560  155.9740  135.0590 C   0  0  0  0  0  0  0  0  0  0  0  0
  142.2820  157.4700  134.8400 C   0  0  1  0  0  0  0  0  0  0  0  0
  143.5030  158.2210  134.3090 C   0  0  0  0  0  0  0  0  0  0  0  0
  143.4600  159.6370  134.2380 C   0  0  0  0  0  0  0  0  0  0  0  0
  144.5300  160.3640  133.6950 C   0  0  0  0  0  0  0  0  0  0  0  0
  145.6300  159.6560  133.2260 C   0  0  0  0  0  0  0  0  0  0  0  0
  146.7790  160.1150  132.6310 C   0  0  0  0  0  0  0  0  0  0  0  0
  147.5140  158.9750  132.3300 C   0  0  0  0  0  0  0  0  0  0  0  0
  148.8160  159.0250  131.6460 C   0  0  0  0  0  0  0  0  0  0  0  0
  149.9790  158.4600  132.2530 N   0  0  0  0  0  0  0  0  0  0  0  0
  148.8890  159.5010  130.4820 O   0  0  0  0  0  0  0  0  0  0  0  0
  146.8680  157.8490  132.7470 N   0  0  0  0  0  0  0  0  0  0  0  0
  147.3850  156.4990  132.7520 C   0  0  0  0  0  0  0  0  0  0  0  0
  148.5870  156.2870  133.0610 O   0  0  0  0  0  0  0  0  0  0  0  0
  146.5580  155.4310  132.3710 O   0  0  0  0  0  0  0  0  0  0  0  0
  146.3430  154.2130  133.0990 C   0  0  0  0  0  0  0  0  0  0  0  0
  147.5650  153.2830  132.9780 C   0  0  0  0  0  0  0  0  0  0  0  0
  145.0670  153.5050  132.6030 C   0  0  0  0  0  0  0  0  0  0  0  0
  146.1560  154.5990  134.5740 C   0  0  0  0  0  0  0  0  0  0  0  0
  145.7020  158.2870  133.2850 C   0  0  0  0  0  0  0  0  0  0  0  0
  144.6390  157.5370  133.8090 C   0  0  0  0  0  0  0  0  0  0  0  0
  140.8954  158.8458  138.7510 H   0  0  0  0  0  0  0  0  0  0  0  0
  141.7720  157.7435  137.6361 H   0  0  0  0  0  0  0  0  0  0  0  0
  142.1420  159.5013  137.6361 H   0  0  0  0  0  0  0  0  0  0  0  0
  139.4028  159.4581  137.1510 H   0  0  0  0  0  0  0  0  0  0  0  0
  140.6910  159.6192  135.8985 H   0  0  0  0  0  0  0  0  0  0  0  0
  140.2201  155.9002  132.7156 H   0  0  0  0  0  0  0  0  0  0  0  0
  141.7942  156.4637  132.1139 H   0  0  0  0  0  0  0  0  0  0  0  0
  141.1655  154.5033  134.2860 H   0  0  0  0  0  0  0  0  0  0  0  0
  142.6538  154.6626  133.3246 H   0  0  0  0  0  0  0  0  0  0  0  0
  142.1202  155.6466  136.0144 H   0  0  0  0  0  0  0  0  0  0  0  0
  143.6373  155.7753  135.0939 H   0  0  0  0  0  0  0  0  0  0  0  0
  142.0594  157.9742  135.7920 H   0  0  0  0  0  0  0  0  0  0  0  0
  142.5756  160.1724  134.6138 H   0  0  0  0  0  0  0  0  0  0  0  0
  144.4991  161.4623  133.6421 H   0  0  0  0  0  0  0  0  0  0  0  0
  147.0578  161.1608  132.4347 H   0  0  0  0  0  0  0  0  0  0  0  0
  150.9000  158.5010  131.7630 H   0  0  0  0  0  0  0  0  0  0  0  0
  149.9160  157.9710  133.1730 H   0  0  0  0  0  0  0  0  0  0  0  0
  147.9207  153.0123  133.9831 H   0  0  0  0  0  0  0  0  0  0  0  0
  147.2795  152.3716  132.4323 H   0  0  0  0  0  0  0  0  0  0  0  0
  148.3674  153.8010  132.4323 H   0  0  0  0  0  0  0  0  0  0  0  0
  144.4716  153.1746  133.4669 H   0  0  0  0  0  0  0  0  0  0  0  0
  144.4736  154.2029  131.9940 H   0  0  0  0  0  0  0  0  0  0  0  0
  145.3451  152.6322  131.9940 H   0  0  0  0  0  0  0  0  0  0  0  0
  146.5455  153.7949  135.2157 H   0  0  0  0  0  0  0  0  0  0  0  0
  146.7026  155.5308  134.7813 H   0  0  0  0  0  0  0  0  0  0  0  0
  145.0860  154.7477  134.7813 H   0  0  0  0  0  0  0  0  0  0  0  0
  144.6862  156.4382  133.8315 H   0  0  0  0  0  0  0  0  0  0  0  0
  1  2  1  0
  2  3  1  0
  3  4  1  0
  4  5  2  0
  4  6  1  0
  6  7  1  6
  7  8  1  0
  8  9  1  0
  8 10  1  0
  8 11  1  0
  6 12  1  0
 12 13  1  0
 13 14  1  0
 14 15  1  0
 15 16  1  0
 16 17  2  0
 17 18  1  0
 18 19  2  0
 19 20  1  0
 20 21  2  0
 21 22  1  0
 22 23  1  0
 22 24  2  0
 21 25  1  0
 25 26  1  0
 26 27  2  0
 26 28  1  0
 28 29  1  0
 29 30  1  0
 29 31  1  0
 29 32  1  0
 25 33  1  0
 33 34  2  0
 15  6  1  0
 34 16  1  0
 33 19  1  0
  1 35  1  0
  1 36  1  0
  1 37  1  0
  2 38  1  0
  2 39  1  0
 12 40  1  0
 12 41  1  0
 13 42  1  0
 13 43  1  0
 14 44  1  0
 14 45  1  0
 15 46  1  1
 17 47  1  0
 18 48  1  0
 20 49  1  0
 23 50  1  0
 23 51  1  0
 30 52  1  0
 30 53  1  0
 30 54  1  0
 31 55  1  0
 31 56  1  0
 31 57  1  0
 32 58  1  0
 32 59  1  0
 32 60  1  0
 34 61  1  0
M  END
>  <UniqueID>  (99) 
99

>  <SMILES>  (99) 
CCOC(=O)[C@]1(OC(F)(F)F)CCC[C@H]1c1ccc2cc(C(N)=O)n(C(=O)OC(C)(C)C)c2c1

>  <Energy>  (99) 
109.74276245863409

>  <Genealogy>  (99) 
CCOC(=O)[C@]1(OC(F)(F)F)CCC[C@H]1c1ccc2cc(C(N)=O)n(C(=O)OC(C)(C)C)c2c1 (chirality)
CCOC(=O)[C@]1(OC(F)(F)F)CCC[C@H]1c1ccc2cc(C(N)=O)n(C(=O)OC(C)(C)C)c2c1 (3D coordinates assigned)
CCOC(=O)[C@]1(OC(F)(F)F)CCC[C@H]1c1ccc2cc(C(N)=O)n(C(=O)OC(C)(C)C)c2c1 (nonaromatic ring conformer: 109.74276245863409 kcal/mol)

>  <smiles>  (99) 
CCOC(=O)C1(OC(F)(F)F)CCCC1c1ccc2cc(C(N)=O)n(C(=O)OC(C)(C)C)c2c1

>  <score_type>  (99) 
oracle

>  <origin>  (99) 
adg

>  <m_score__min__energy>  (99) 
-8.3399999999999999

>  <m_primary>  (99) 
energy

$$$$
99:0
     RDKit          3D

 38 40  0  0  0  0  0  0  0  0999 V2000
  149.8050  160.0780  129.5580 C   0  0  0  0  0  0  0  0  0  0  0  0
  149.2870  159.4750  130.8220 C   0  0  0  0  0  0  0  0  0  0  0  0
  149.3950  160.0240  132.0860 C   0  0  0  0  0  0  0  0  0  0  0  0
  148.8700  159.0560  132.9260 C   0  0  0  0  0  0  0  0  0  0  0  0
  148.8510  159.1280  134.4220 C   0  0  0  0  0  0  0  0  0  0  0  0
  148.4940  157.9890  132.1850 N   0  0  0  0  0  0  0  0  0  0  0  0
  147.9950  156.7020  132.6720 C   0  0  0  0  0  0  0  0  0  0  0  0
  146.5280  156.8000  132.9880 C   0  0  0  0  0  0  0  0  0  0  0  0
  145.7160  155.6390  132.9900 C   0  0  0  0  0  0  0  0  0  0  0  0
  144.3380  155.7300  133.2460 C   0  0  0  0  0  0  0  0  0  0  0  0
  143.8040  156.9900  133.5030 C   0  0  0  0  0  0  0  0  0  0  0  0
  142.5040  157.3650  133.7530 C   0  0  0  0  0  0  0  0  0  0  0  0
  142.5440  158.7470  133.9210 C   0  0  0  0  0  0  0  0  0  0  0  0
  141.3650  159.5560  134.2950 C   0  0  0  0  0  0  0  0  0  0  0  0
  140.8120  160.4770  133.3580 N   0  0  0  0  0  0  0  0  0  0  0  0
  140.8160  159.4150  135.4180 O   0  0  0  0  0  0  0  0  0  0  0  0
  143.8180  159.2110  133.7720 N   0  0  0  0  0  0  0  0  0  0  0  0
  144.2650  160.5770  133.7940 C   0  0  0  0  0  0  0  0  0  0  0  0
  143.4370  161.5200  133.6860 O   0  0  0  0  0  0  0  0  0  0  0  0
  145.6120  160.8720  133.9610 O   0  0  0  0  0  0  0  0  0  0  0  0
  144.5780  158.1220  133.5210 C   0  0  0  0  0  0  0  0  0  0  0  0
  145.9510  158.0620  133.2510 C   0  0  0  0  0  0  0  0  0  0  0  0
  148.7560  158.2420  130.9120 N   0  0  0  0  0  0  0  0  0  0  0  0
  150.5042  160.8920  129.7997 H   0  0  0  0  0  0  0  0  0  0  0  0
  150.3274  159.3079  128.9716 H   0  0  0  0  0  0  0  0  0  0  0  0
  148.9649  160.4783  128.9716 H   0  0  0  0  0  0  0  0  0  0  0  0
  149.8049  161.0067  132.3621 H   0  0  0  0  0  0  0  0  0  0  0  0
  149.1106  158.1441  134.8398 H   0  0  0  0  0  0  0  0  0  0  0  0
  149.5827  159.8755  134.7624 H   0  0  0  0  0  0  0  0  0  0  0  0
  147.8458  159.4173  134.7624 H   0  0  0  0  0  0  0  0  0  0  0  0
  148.1496  155.9359  131.8980 H   0  0  0  0  0  0  0  0  0  0  0  0
  148.5417  156.4276  133.5863 H   0  0  0  0  0  0  0  0  0  0  0  0
  146.1691  154.6570  132.7892 H   0  0  0  0  0  0  0  0  0  0  0  0
  143.7004  154.8336  133.2435 H   0  0  0  0  0  0  0  0  0  0  0  0
  141.6206  156.7119  133.8084 H   0  0  0  0  0  0  0  0  0  0  0  0
  141.3780  161.2760  132.9930 H   0  0  0  0  0  0  0  0  0  0  0  0
  146.5646  158.9749  133.2440 H   0  0  0  0  0  0  0  0  0  0  0  0
  148.6030  157.5730  130.1250 H   0  0  0  0  0  0  0  0  0  0  0  0
  1  2  1  0
  2  3  1  0
  3  4  2  0
  4  5  1  0
  4  6  1  0
  6  7  1  0
  7  8  1  0
  8  9  2  0
  9 10  1  0
 10 11  2  0
 11 12  1  0
 12 13  2  0
 13 14  1  0
 14 15  1  0
 14 16  2  0
 13 17  1  0
 17 18  1  0
 18 19  2  0
 18 20  1  0
 17 21  1  0
 21 22  2  0
  6 23  1  0
 23  2  2  0
 22  8  1  0
 21 11  1  0
  1 24  1  0
  1 25  1  0
  1 26  1  0
  3 27  1  0
  5 28  1  0
  5 29  1  0
  5 30  1  0
  7 31  1  0
  7 32  1  0
  9 33  1  0
 10 34  1  0
 12 35  1  0
 15 36  1  0
 22 37  1  0
 23 38  1  0
M  CHG  3  15  -1  20  -1  23   1
M  END
>  <UniqueID>  (100) 
100

>  <SMILES>  (100) 
Cc1cc(C)n(Cc2ccc3cc(C([NH-])=O)n(C(=O)[O-])c3c2)[nH+]1

>  <Energy>  (100) 
105.58095873651664

>  <Genealogy>  (100) 
Cc1cc(C)n(Cc2ccc3cc(C([NH-])=O)n(C(=O)[O-])c3c2)[nH+]1 (protonated)
Cc1cc(C)n(Cc2ccc3cc(C([NH-])=O)n(C(=O)[O-])c3c2)[nH+]1 (3D coordinates assigned)
Cc1cc(C)n(Cc2ccc3cc(C([NH-])=O)n(C(=O)[O-])c3c2)[nH+]1 (optimized conformer: 105.58095873651664 kcal/mol)

>  <smiles>  (100) 
Cc1cc(C)n(Cc2ccc3cc(C(N)=O)n(C(=O)O)c3c2)n1

>  <score_type>  (100) 
oracle

>  <origin>  (100) 
adg

>  <m_score__min__energy>  (100) 
-7.5

>  <m_primary>  (100) 
energy

$$$$
