0:0
     RDKit          3D

 37 39  0  0  0  0  0  0  0  0999 V2000
  141.4230  159.2730  132.7190 N   0  0  0  0  0  0  0  0  0  0  0  0
  142.4010  159.7400  133.6500 C   0  0  0  0  0  0  0  0  0  0  0  0
  142.0400  160.4860  134.5990 O   0  0  0  0  0  0  0  0  0  0  0  0
  143.8320  159.4110  133.4940 C   0  0  0  0  0  0  0  0  0  0  0  0
  144.8570  160.3460  133.6230 C   0  0  0  0  0  0  0  0  0  0  0  0
  146.0180  159.6480  133.3800 C   0  0  0  0  0  0  0  0  0  0  0  0
  147.3420  160.0790  133.3840 C   0  0  0  0  0  0  0  0  0  0  0  0
  148.3460  159.1300  133.1290 C   0  0  0  0  0  0  0  0  0  0  0  0
  148.0130  157.7700  132.9070 C   0  0  0  0  0  0  0  0  0  0  0  0
  149.0940  156.7660  132.6070 C   0  0  0  0  0  0  0  0  0  0  0  0
  148.6620  155.3520  133.0080 C   0  0  0  0  0  0  0  0  0  0  0  0
  148.1070  154.6660  131.9170 O   0  0  0  0  0  0  0  0  0  0  0  0
  146.6600  157.3690  132.9140 C   0  0  0  0  0  0  0  0  0  0  0  0
  145.6780  158.3430  133.1300 C   0  0  0  0  0  0  0  0  0  0  0  0
  144.3380  158.1840  133.1880 N   0  0  0  0  0  0  0  0  0  0  0  0
  143.6150  156.9480  133.0760 C   0  0  0  0  0  0  0  0  0  0  0  0
  142.4320  156.9540  132.6410 O   0  0  0  0  0  0  0  0  0  0  0  0
  144.2520  155.6720  133.4350 C   0  0  0  0  0  0  0  0  0  0  0  0
  144.1200  154.9830  134.6220 C   0  0  0  0  0  0  0  0  0  0  0  0
  144.8630  153.8610  134.5600 N   0  0  0  0  0  0  0  0  0  0  0  0
  145.4100  153.9260  133.3280 C   0  0  0  0  0  0  0  0  0  0  0  0
  146.2940  152.9330  132.8140 N   0  0  0  0  0  0  0  0  0  0  0  0
  145.0520  154.9910  132.6530 O   0  0  0  0  0  0  0  0  0  0  0  0
  140.4110  159.4720  132.8810 H   0  0  0  0  0  0  0  0  0  0  0  0
  141.7020  158.8220  131.8210 H   0  0  0  0  0  0  0  0  0  0  0  0
  144.7591  161.4141  133.8670 H   0  0  0  0  0  0  0  0  0  0  0  0
  147.5944  161.1314  133.5810 H   0  0  0  0  0  0  0  0  0  0  0  0
  149.3996  159.4449  133.1013 H   0  0  0  0  0  0  0  0  0  0  0  0
  149.3105  156.7830  131.5286 H   0  0  0  0  0  0  0  0  0  0  0  0
  149.9898  157.0345  133.1862 H   0  0  0  0  0  0  0  0  0  0  0  0
  149.5395  154.7978  133.3724 H   0  0  0  0  0  0  0  0  0  0  0  0
  147.8995  155.4297  133.7970 H   0  0  0  0  0  0  0  0  0  0  0  0
  147.1360  154.8710  131.9160 H   0  0  0  0  0  0  0  0  0  0  0  0
  146.3837  156.3164  132.7536 H   0  0  0  0  0  0  0  0  0  0  0  0
  143.5078  155.2981  135.4798 H   0  0  0  0  0  0  0  0  0  0  0  0
  146.7000  153.0320  131.8570 H   0  0  0  0  0  0  0  0  0  0  0  0
  146.5350  152.0970  133.3900 H   0  0  0  0  0  0  0  0  0  0  0  0
  1  2  1  0
  2  3  2  0
  2  4  1  0
  4  5  2  0
  5  6  1  0
  6  7  2  0
  7  8  1  0
  8  9  2  0
  9 10  1  0
 10 11  1  0
 11 12  1  0
  9 13  1  0
 13 14  2  0
 14 15  1  0
 15 16  1  0
 16 17  2  0
 16 18  1  0
 18 19  2  0
 19 20  1  0
 20 21  2  0
 21 22  1  0
 21 23  1  0
 15  4  1  0
 23 18  1  0
 14  6  1  0
  1 24  1  0
  1 25  1  0
  5 26  1  0
  7 27  1  0
  8 28  1  0
 10 29  1  0
 10 30  1  0
 11 31  1  0
 11 32  1  0
 12 33  1  0
 13 34  1  0
 19 35  1  0
 22 36  1  0
 22 37  1  0
M  END
>  <UniqueID>  (1) 
1

>  <SMILES>  (1) 
NC(=O)c1cc2ccc(CCO)cc2n1C(=O)c1cnc(N)o1

>  <Energy>  (1) 
103.8397423986708

>  <Genealogy>  (1) 
NC(=O)c1cc2ccc(CCO)cc2n1C(=O)c1cnc(N)o1 (3D coordinates assigned)
NC(=O)c1cc2ccc(CCO)cc2n1C(=O)c1cnc(N)o1 (optimized conformer: 103.8397423986708 kcal/mol)

>  <smiles>  (1) 
NC(=O)c1cc2ccc(CCO)cc2n1C(=O)c1cnc(N)o1

>  <score_type>  (1) 
oracle

>  <origin>  (1) 
adg

>  <m_score__min__energy>  (1) 
-7.4699999999999998

>  <m_primary>  (1) 
energy

$$$$
1:0
     RDKit          3D

 30 31  0  0  0  0  0  0  0  0999 V2000
  143.8240  163.8750  133.3560 C   0  0  0  0  0  0  0  0  0  0  0  0
  143.7590  162.4220  133.4070 N   0  0  0  0  0  0  0  0  0  0  0  0
  144.7850  161.6220  134.0020 C   0  0  0  0  0  0  0  0  0  0  0  0
  145.6630  162.1600  134.7300 O   0  0  0  0  0  0  0  0  0  0  0  0
  144.8220  160.2070  133.7590 N   0  0  0  0  0  0  0  0  0  0  0  0
  143.8170  159.3020  133.9330 C   0  0  0  0  0  0  0  0  0  0  0  0
  142.4110  159.6170  134.2670 C   0  0  0  0  0  0  0  0  0  0  0  0
  141.4370  159.8020  133.2440 N   0  0  0  0  0  0  0  0  0  0  0  0
  142.0570  159.6810  135.4750 O   0  0  0  0  0  0  0  0  0  0  0  0
  144.2710  158.0110  133.6720 C   0  0  0  0  0  0  0  0  0  0  0  0
  145.5950  158.1530  133.3240 C   0  0  0  0  0  0  0  0  0  0  0  0
  146.5360  157.1910  132.9710 C   0  0  0  0  0  0  0  0  0  0  0  0
  147.8420  157.6200  132.6850 C   0  0  0  0  0  0  0  0  0  0  0  0
  148.1860  158.9930  132.7750 C   0  0  0  0  0  0  0  0  0  0  0  0
  149.5830  159.4430  132.4480 C   0  0  0  0  0  0  0  0  0  0  0  0
  149.6050  160.1210  131.1160 C   0  0  0  0  0  0  0  0  0  0  0  0
  149.6150  161.3780  131.0450 O   0  0  0  0  0  0  0  0  0  0  0  0
  149.6650  159.3660  129.9520 O   0  0  0  0  0  0  0  0  0  0  0  0
  147.2020  159.9420  133.1270 C   0  0  0  0  0  0  0  0  0  0  0  0
  145.9030  159.4880  133.3860 C   0  0  0  0  0  0  0  0  0  0  0  0
  143.8420  164.2774  134.3796 H   0  0  0  0  0  0  0  0  0  0  0  0
  144.7368  164.1828  132.8249 H   0  0  0  0  0  0  0  0  0  0  0  0
  142.9423  164.2631  132.8249 H   0  0  0  0  0  0  0  0  0  0  0  0
  141.6950  159.7190  132.2360 H   0  0  0  0  0  0  0  0  0  0  0  0
  143.6938  157.0765  133.7314 H   0  0  0  0  0  0  0  0  0  0  0  0
  146.2650  156.1262  132.9175 H   0  0  0  0  0  0  0  0  0  0  0  0
  148.6048  156.8850  132.3886 H   0  0  0  0  0  0  0  0  0  0  0  0
  149.9290  160.1461  133.2200 H   0  0  0  0  0  0  0  0  0  0  0  0
  150.2461  158.5659  132.4168 H   0  0  0  0  0  0  0  0  0  0  0  0
  147.4496  161.0116  133.1961 H   0  0  0  0  0  0  0  0  0  0  0  0
  1  2  1  0
  2  3  1  0
  3  4  2  0
  3  5  1  0
  5  6  1  0
  6  7  1  0
  7  8  1  0
  7  9  2  0
  6 10  2  0
 10 11  1  0
 11 12  2  0
 12 13  1  0
 13 14  2  0
 14 15  1  0
 15 16  1  0
 16 17  2  0
 16 18  1  0
 14 19  1  0
 19 20  2  0
 20  5  1  0
 20 11  1  0
  1 21  1  0
  1 22  1  0
  1 23  1  0
  8 24  1  0
 10 25  1  0
 12 26  1  0
 13 27  1  0
 15 28  1  0
 15 29  1  0
 19 30  1  0
M  CHG  3   2  -1   8  -1  18  -1
M  END
>  <UniqueID>  (2) 
2

>  <SMILES>  (2) 
C[N-]C(=O)n1c(C([NH-])=O)cc2ccc(CC(=O)[O-])cc21

>  <Energy>  (2) 
65.75230461987009

>  <Genealogy>  (2) 
C[N-]C(=O)n1c(C([NH-])=O)cc2ccc(CC(=O)[O-])cc21 (protonated)
C[N-]C(=O)n1c(C([NH-])=O)cc2ccc(CC(=O)[O-])cc21 (3D coordinates assigned)
C[N-]C(=O)n1c(C([NH-])=O)cc2ccc(CC(=O)[O-])cc21 (optimized conformer: 65.75230461987009 kcal/mol)

>  <smiles>  (2) 
CNC(=O)n1c(C(N)=O)cc2ccc(CC(=O)O)cc21

>  <score_type>  (2) 
oracle

>  <origin>  (2) 
adg

>  <m_score__min__energy>  (2) 
-6.7400000000000002

>  <m_primary>  (2) 
energy

$$$$
2:0
     RDKit          3D

 56 57  0  0  0  0  0  0  0  0999 V2000
  138.7690  157.8680  133.7590 C   0  0  0  0  0  0  0  0  0  0  0  0
  139.7720  157.6850  132.8960 C   0  0  0  0  0  0  0  0  0  0  0  0
  141.0230  156.9560  133.2940 C   0  0  0  0  0  0  0  0  0  0  0  0
  142.1800  157.6530  132.8340 O   0  0  0  0  0  0  0  0  0  0  0  0
  143.4370  157.5330  133.4360 C   0  0  0  0  0  0  0  0  0  0  0  0
  143.8120  156.4250  133.9130 O   0  0  0  0  0  0  0  0  0  0  0  0
  144.2980  158.6780  133.5240 N   0  0  0  0  0  0  0  0  0  0  0  0
  143.9430  159.9770  133.7380 C   0  0  0  0  0  0  0  0  0  0  0  0
  142.5940  160.4610  134.0980 C   0  0  0  0  0  0  0  0  0  0  0  0
  141.7180  159.6670  134.8950 N   0  0  0  0  0  0  0  0  0  0  0  0
  142.2270  161.6110  133.7370 O   0  0  0  0  0  0  0  0  0  0  0  0
  145.0600  160.8070  133.6650 C   0  0  0  0  0  0  0  0  0  0  0  0
  146.1210  159.9690  133.4090 C   0  0  0  0  0  0  0  0  0  0  0  0
  147.4720  160.2610  133.2420 C   0  0  0  0  0  0  0  0  0  0  0  0
  148.3480  159.1960  132.9740 C   0  0  0  0  0  0  0  0  0  0  0  0
  147.8580  157.8710  132.8580 C   0  0  0  0  0  0  0  0  0  0  0  0
  148.8100  156.7330  132.6060 C   0  0  0  0  0  0  0  0  0  0  0  0
  148.3460  155.4690  133.3520 C   0  0  0  0  0  0  0  0  0  0  0  0
  147.8460  154.4220  132.4340 N   0  0  2  0  0  0  0  0  0  0  0  0
  146.5880  153.8140  132.9070 C   0  0  0  0  0  0  0  0  0  0  0  0
  148.8540  153.4000  132.2830 C   0  0  0  0  0  0  0  0  0  0  0  0
  150.0760  153.7180  132.2460 O   0  0  0  0  0  0  0  0  0  0  0  0
  148.4550  152.0610  132.1460 O   0  0  0  0  0  0  0  0  0  0  0  0
  149.2180  150.9040  132.5180 C   0  0  0  0  0  0  0  0  0  0  0  0
  148.3190  149.6530  132.5630 C   0  0  0  0  0  0  0  0  0  0  0  0
  150.2940  150.7020  131.4390 C   0  0  0  0  0  0  0  0  0  0  0  0
  149.9110  151.1250  133.8760 C   0  0  0  0  0  0  0  0  0  0  0  0
  146.4810  157.6120  133.0420 C   0  0  0  0  0  0  0  0  0  0  0  0
  145.6350  158.6890  133.3290 C   0  0  0  0  0  0  0  0  0  0  0  0
  137.8627  158.4055  133.4431 H   0  0  0  0  0  0  0  0  0  0  0  0
  138.8493  157.4812  134.7856 H   0  0  0  0  0  0  0  0  0  0  0  0
  139.6796  158.0766  131.8722 H   0  0  0  0  0  0  0  0  0  0  0  0
  141.0614  156.8764  134.3905 H   0  0  0  0  0  0  0  0  0  0  0  0
  141.0090  155.9545  132.8393 H   0  0  0  0  0  0  0  0  0  0  0  0
  141.5730  158.6550  134.6880 H   0  0  0  0  0  0  0  0  0  0  0  0
  145.0877  161.9000  133.7862 H   0  0  0  0  0  0  0  0  0  0  0  0
  147.8422  161.2941  133.3176 H   0  0  0  0  0  0  0  0  0  0  0  0
  149.4236  159.3920  132.8531 H   0  0  0  0  0  0  0  0  0  0  0  0
  148.8469  156.5237  131.5267 H   0  0  0  0  0  0  0  0  0  0  0  0
  149.8084  157.0160  132.9709 H   0  0  0  0  0  0  0  0  0  0  0  0
  149.1954  155.0632  133.9210 H   0  0  0  0  0  0  0  0  0  0  0  0
  147.5166  155.7570  134.0147 H   0  0  0  0  0  0  0  0  0  0  0  0
  147.6710  154.8450  131.4910 H   0  0  0  0  0  0  0  0  0  0  0  0
  146.5747  153.8076  134.0069 H   0  0  0  0  0  0  0  0  0  0  0  0
  145.7348  154.3992  132.5334 H   0  0  0  0  0  0  0  0  0  0  0  0
  146.5164  152.7819  132.5334 H   0  0  0  0  0  0  0  0  0  0  0  0
  148.1228  149.3800  133.6104 H   0  0  0  0  0  0  0  0  0  0  0  0
  147.3669  149.8672  132.0554 H   0  0  0  0  0  0  0  0  0  0  0  0
  148.8256  148.8189  132.0554 H   0  0  0  0  0  0  0  0  0  0  0  0
  151.2662  150.5195  131.9203 H   0  0  0  0  0  0  0  0  0  0  0  0
  150.0272  149.8382  130.8123 H   0  0  0  0  0  0  0  0  0  0  0  0
  150.3587  151.6037  130.8123 H   0  0  0  0  0  0  0  0  0  0  0  0
  149.2049  150.8998  134.6889 H   0  0  0  0  0  0  0  0  0  0  0  0
  150.7843  150.4608  133.9544 H   0  0  0  0  0  0  0  0  0  0  0  0
  150.2386  152.1722  133.9544 H   0  0  0  0  0  0  0  0  0  0  0  0
  146.0841  156.5892  132.9616 H   0  0  0  0  0  0  0  0  0  0  0  0
  1  2  2  0
  2  3  1  0
  3  4  1  0
  4  5  1  0
  5  6  2  0
  5  7  1  0
  7  8  1  0
  8  9  1  0
  9 10  1  0
  9 11  2  0
  8 12  2  0
 12 13  1  0
 13 14  2  0
 14 15  1  0
 15 16  2  0
 16 17  1  0
 17 18  1  0
 18 19  1  0
 19 20  1  0
 19 21  1  0
 21 22  2  0
 21 23  1  0
 23 24  1  0
 24 25  1  0
 24 26  1  0
 24 27  1  0
 16 28  1  0
 28 29  2  0
 29  7  1  0
 29 13  1  0
  1 30  1  0
  1 31  1  0
  2 32  1  0
  3 33  1  0
  3 34  1  0
 10 35  1  0
 12 36  1  0
 14 37  1  0
 15 38  1  0
 17 39  1  0
 17 40  1  0
 18 41  1  0
 18 42  1  0
 19 43  1  6
 20 44  1  0
 20 45  1  0
 20 46  1  0
 25 47  1  0
 25 48  1  0
 25 49  1  0
 26 50  1  0
 26 51  1  0
 26 52  1  0
 27 53  1  0
 27 54  1  0
 27 55  1  0
 28 56  1  0
M  CHG  2  10  -1  19   1
M  END
>  <UniqueID>  (3) 
3

>  <SMILES>  (3) 
C=CCOC(=O)n1c(C([NH-])=O)cc2ccc(CC[N@H+](C)C(=O)OC(C)(C)C)cc21

>  <Energy>  (3) 
85.45289881639415

>  <Genealogy>  (3) 
C=CCOC(=O)n1c(C([NH-])=O)cc2ccc(CC[NH+](C)C(=O)OC(C)(C)C)cc21 (protonated)
C=CCOC(=O)n1c(C([NH-])=O)cc2ccc(CC[N@H+](C)C(=O)OC(C)(C)C)cc21 (chirality)
C=CCOC(=O)n1c(C([NH-])=O)cc2ccc(CC[N@H+](C)C(=O)OC(C)(C)C)cc21 (3D coordinates assigned)
C=CCOC(=O)n1c(C([NH-])=O)cc2ccc(CC[N@H+](C)C(=O)OC(C)(C)C)cc21 (optimized conformer: 85.45289881639415 kcal/mol)

>  <smiles>  (3) 
C=CCOC(=O)n1c(C(N)=O)cc2ccc(CCN(C)C(=O)OC(C)(C)C)cc21

>  <score_type>  (3) 
oracle

>  <origin>  (3) 
adg

>  <m_score__min__energy>  (3) 
-7.9500000000000002

>  <m_primary>  (3) 
energy

$$$$
3:0
     RDKit          3D

 34 36  0  0  0  0  0  0  0  0999 V2000
  147.4810  152.9940  133.7240 N   0  0  0  0  0  0  0  0  0  0  0  0
  148.2490  154.0680  133.1820 C   0  0  0  0  0  0  0  0  0  0  0  0
  149.3420  153.8170  132.6080 O   0  0  0  0  0  0  0  0  0  0  0  0
  147.7550  155.4580  133.2230 C   0  0  0  0  0  0  0  0  0  0  0  0
  148.5250  156.5550  132.8470 C   0  0  0  0  0  0  0  0  0  0  0  0
  147.6910  157.6420  132.9640 C   0  0  0  0  0  0  0  0  0  0  0  0
  147.9450  158.9910  132.7380 C   0  0  0  0  0  0  0  0  0  0  0  0
  146.9090  159.9070  132.9820 C   0  0  0  0  0  0  0  0  0  0  0  0
  145.6470  159.4610  133.4440 C   0  0  0  0  0  0  0  0  0  0  0  0
  144.5640  160.4560  133.7560 C   0  0  0  0  0  0  0  0  0  0  0  0
  143.3230  159.7410  134.1820 C   0  0  0  0  0  0  0  0  0  0  0  0
  142.4590  159.0540  133.3500 C   0  0  0  0  0  0  0  0  0  0  0  0
  141.4460  158.5920  134.1640 C   0  0  0  0  0  0  0  0  0  0  0  0
  141.7570  159.0330  135.4370 C   0  0  0  0  0  0  0  0  0  0  0  0
  140.9690  158.7930  136.6510 C   0  0  0  0  0  0  0  0  0  0  0  0
  139.9210  158.0970  136.6040 O   0  0  0  0  0  0  0  0  0  0  0  0
  141.3790  159.3360  137.8610 O   0  0  0  0  0  0  0  0  0  0  0  0
  142.8780  159.7160  135.4180 O   0  0  0  0  0  0  0  0  0  0  0  0
  145.4280  158.0850  133.6770 C   0  0  0  0  0  0  0  0  0  0  0  0
  146.4720  157.1910  133.4060 C   0  0  0  0  0  0  0  0  0  0  0  0
  146.4980  155.8490  133.5740 N   0  0  0  0  0  0  0  0  0  0  0  0
  145.4560  155.0300  134.1340 C   0  0  0  0  0  0  0  0  0  0  0  0
  144.4280  154.7550  133.4620 O   0  0  0  0  0  0  0  0  0  0  0  0
  145.5720  154.5370  135.4280 O   0  0  0  0  0  0  0  0  0  0  0  0
  146.5020  153.1440  134.0560 H   0  0  0  0  0  0  0  0  0  0  0  0
  147.8610  152.0210  133.7180 H   0  0  0  0  0  0  0  0  0  0  0  0
  149.5768  156.5528  132.5248 H   0  0  0  0  0  0  0  0  0  0  0  0
  148.9280  159.3299  132.3789 H   0  0  0  0  0  0  0  0  0  0  0  0
  147.0793  160.9805  132.8127 H   0  0  0  0  0  0  0  0  0  0  0  0
  144.9000  161.1182  134.5675 H   0  0  0  0  0  0  0  0  0  0  0  0
  144.3483  161.0503  132.8558 H   0  0  0  0  0  0  0  0  0  0  0  0
  142.5586  158.9065  132.2645 H   0  0  0  0  0  0  0  0  0  0  0  0
  140.5718  157.9961  133.8629 H   0  0  0  0  0  0  0  0  0  0  0  0
  144.4624  157.7247  134.0614 H   0  0  0  0  0  0  0  0  0  0  0  0
  1  2  1  0
  2  3  2  0
  2  4  1  0
  4  5  2  0
  5  6  1  0
  6  7  2  0
  7  8  1  0
  8  9  2  0
  9 10  1  0
 10 11  1  0
 11 12  2  0
 12 13  1  0
 13 14  2  0
 14 15  1  0
 15 16  2  0
 15 17  1  0
 14 18  1  0
  9 19  1  0
 19 20  2  0
 20 21  1  0
 21 22  1  0
 22 23  2  0
 22 24  1  0
 21  4  1  0
 20  6  1  0
 18 11  1  0
  1 25  1  0
  1 26  1  0
  5 27  1  0
  7 28  1  0
  8 29  1  0
 10 30  1  0
 10 31  1  0
 12 32  1  0
 13 33  1  0
 19 34  1  0
M  CHG  2  17  -1  24  -1
M  END
>  <UniqueID>  (4) 
4

>  <SMILES>  (4) 
NC(=O)c1cc2ccc(Cc3ccc(C(=O)[O-])o3)cc2n1C(=O)[O-]

>  <Energy>  (4) 
99.52349647078772

>  <Genealogy>  (4) 
NC(=O)c1cc2ccc(Cc3ccc(C(=O)[O-])o3)cc2n1C(=O)[O-] (protonated)
NC(=O)c1cc2ccc(Cc3ccc(C(=O)[O-])o3)cc2n1C(=O)[O-] (3D coordinates assigned)
NC(=O)c1cc2ccc(Cc3ccc(C(=O)[O-])o3)cc2n1C(=O)[O-] (optimized conformer: 99.52349647078772 kcal/mol)

>  <smiles>  (4) 
NC(=O)c1cc2ccc(Cc3ccc(C(=O)O)o3)cc2n1C(=O)O

>  <score_type>  (4) 
oracle

>  <origin>  (4) 
adg

>  <m_score__min__energy>  (4) 
-7.7300000000000004

>  <m_primary>  (4) 
energy

$$$$
4:0
     RDKit          3D

 61 63  0  0  0  0  0  0  0  0999 V2000
  140.0150  155.1570  132.9740 C   0  0  0  0  0  0  0  0  0  0  0  0
  138.7870  155.9950  133.3270 C   0  0  0  0  0  0  0  0  0  0  0  0
  139.1190  157.4800  133.6810 C   0  0  2  0  0  0  0  0  0  0  0  0
  139.7660  158.2060  132.4520 C   0  0  0  0  0  0  0  0  0  0  0  0
  138.8190  158.3760  131.2410 C   0  0  0  0  0  0  0  0  0  0  0  0
  138.5020  159.8460  130.8760 C   0  0  0  0  0  0  0  0  0  0  0  0
  139.1310  160.8420  131.8570 C   0  0  0  0  0  0  0  0  0  0  0  0
  136.9960  160.1030  130.7230 C   0  0  0  0  0  0  0  0  0  0  0  0
  139.9940  157.5890  134.8950 N   0  0  0  0  0  0  0  0  0  0  0  0
  140.0170  158.9430  135.4930 C   0  0  0  0  0  0  0  0  0  0  0  0
  140.5920  158.8740  136.9170 C   0  0  0  0  0  0  0  0  0  0  0  0
  141.8200  157.9320  137.0320 C   0  0  0  0  0  0  0  0  0  0  0  0
  141.5560  156.6350  137.7940 C   0  0  0  0  0  0  0  0  0  0  0  0
  141.1110  156.6330  139.1430 C   0  0  0  0  0  0  0  0  0  0  0  0
  140.7960  155.4320  139.7970 C   0  0  0  0  0  0  0  0  0  0  0  0
  140.9260  154.2470  139.0850 C   0  0  0  0  0  0  0  0  0  0  0  0
  140.6850  152.9570  139.4880 C   0  0  0  0  0  0  0  0  0  0  0  0
  141.0080  152.1690  138.3930 C   0  0  0  0  0  0  0  0  0  0  0  0
  140.9740  150.6980  138.4320 C   0  0  0  0  0  0  0  0  0  0  0  0
  140.1780  149.9680  137.5040 N   0  0  0  0  0  0  0  0  0  0  0  0
  141.7150  150.0780  139.2420 O   0  0  0  0  0  0  0  0  0  0  0  0
  141.4080  152.9320  137.3320 N   0  0  0  0  0  0  0  0  0  0  0  0
  141.7030  152.4670  135.9950 C   0  0  0  0  0  0  0  0  0  0  0  0
  142.5250  153.0840  135.2560 O   0  0  0  0  0  0  0  0  0  0  0  0
  141.0490  151.3550  135.4730 O   0  0  0  0  0  0  0  0  0  0  0  0
  141.3570  154.2130  137.7820 C   0  0  0  0  0  0  0  0  0  0  0  0
  141.6720  155.4030  137.1060 C   0  0  0  0  0  0  0  0  0  0  0  0
  142.4300  157.6410  135.6510 C   0  0  0  0  0  0  0  0  0  0  0  0
  141.3860  157.1220  134.6390 C   0  0  0  0  0  0  0  0  0  0  0  0
  140.5076  154.8209  133.8983 H   0  0  0  0  0  0  0  0  0  0  0  0
  139.7045  154.2816  132.3848 H   0  0  0  0  0  0  0  0  0  0  0  0
  140.7170  155.7653  132.3848 H   0  0  0  0  0  0  0  0  0  0  0  0
  138.1029  155.9882  132.4656 H   0  0  0  0  0  0  0  0  0  0  0  0
  138.3378  155.5440  134.2241 H   0  0  0  0  0  0  0  0  0  0  0  0
  138.1710  157.9817  133.9250 H   0  0  0  0  0  0  0  0  0  0  0  0
  140.0939  159.2049  132.7756 H   0  0  0  0  0  0  0  0  0  0  0  0
  140.5982  157.5710  132.1139 H   0  0  0  0  0  0  0  0  0  0  0  0
  139.2883  157.8988  130.3681 H   0  0  0  0  0  0  0  0  0  0  0  0
  137.8632  157.9106  131.5234 H   0  0  0  0  0  0  0  0  0  0  0  0
  138.9653  160.0143  129.8926 H   0  0  0  0  0  0  0  0  0  0  0  0
  138.9271  160.5191  132.8886 H   0  0  0  0  0  0  0  0  0  0  0  0
  140.2180  160.8812  131.6932 H   0  0  0  0  0  0  0  0  0  0  0  0
  138.6992  161.8404  131.6932 H   0  0  0  0  0  0  0  0  0  0  0  0
  136.5345  160.1818  131.7184 H   0  0  0  0  0  0  0  0  0  0  0  0
  136.8384  161.0410  130.1705 H   0  0  0  0  0  0  0  0  0  0  0  0
  136.5362  159.2703  130.1705 H   0  0  0  0  0  0  0  0  0  0  0  0
  140.6451  159.6035  134.8772 H   0  0  0  0  0  0  0  0  0  0  0  0
  138.9916  159.3391  135.5343 H   0  0  0  0  0  0  0  0  0  0  0  0
  140.8974  159.8861  137.2208 H   0  0  0  0  0  0  0  0  0  0  0  0
  139.8048  158.4684  137.5696 H   0  0  0  0  0  0  0  0  0  0  0  0
  142.5494  158.4867  137.6405 H   0  0  0  0  0  0  0  0  0  0  0  0
  141.0119  157.5864  139.6827 H   0  0  0  0  0  0  0  0  0  0  0  0
  140.4560  155.4294  140.8431 H   0  0  0  0  0  0  0  0  0  0  0  0
  140.3154  152.6207  140.4680 H   0  0  0  0  0  0  0  0  0  0  0  0
  140.1710  148.9260  137.5190 H   0  0  0  0  0  0  0  0  0  0  0  0
  139.5800  150.4710  136.8120 H   0  0  0  0  0  0  0  0  0  0  0  0
  142.0039  155.3783  136.0576 H   0  0  0  0  0  0  0  0  0  0  0  0
  142.8709  158.5689  135.2579 H   0  0  0  0  0  0  0  0  0  0  0  0
  143.1884  156.8549  135.7804 H   0  0  0  0  0  0  0  0  0  0  0  0
  141.6828  157.4596  133.6351 H   0  0  0  0  0  0  0  0  0  0  0  0
  141.3722  156.0264  134.7368 H   0  0  0  0  0  0  0  0  0  0  0  0
  1  2  1  0
  2  3  1  0
  3  4  1  0
  4  5  1  0
  5  6  1  0
  6  7  1  0
  6  8  1  0
  3  9  1  0
  9 10  1  0
 10 11  1  0
 11 12  1  0
 12 13  1  0
 13 14  2  0
 14 15  1  0
 15 16  2  0
 16 17  1  0
 17 18  2  0
 18 19  1  0
 19 20  1  0
 19 21  2  0
 18 22  1  0
 22 23  1  0
 23 24  2  0
 23 25  1  0
 22 26  1  0
 26 27  2  0
 12 28  1  0
 28 29  1  0
 29  9  1  0
 27 13  1  0
 26 16  1  0
  1 30  1  0
  1 31  1  0
  1 32  1  0
  2 33  1  0
  2 34  1  0
  3 35  1  1
  4 36  1  0
  4 37  1  0
  5 38  1  0
  5 39  1  0
  6 40  1  0
  7 41  1  0
  7 42  1  0
  7 43  1  0
  8 44  1  0
  8 45  1  0
  8 46  1  0
 10 47  1  0
 10 48  1  0
 11 49  1  0
 11 50  1  0
 12 51  1  0
 14 52  1  0
 15 53  1  0
 17 54  1  0
 20 55  1  0
 20 56  1  0
 27 57  1  0
 28 58  1  0
 28 59  1  0
 29 60  1  0
 29 61  1  0
M  CHG  1  25  -1
M  END
>  <UniqueID>  (5) 
5

>  <SMILES>  (5) 
CC[C@H](CCC(C)C)N1CCC(c2ccc3cc(C(N)=O)n(C(=O)[O-])c3c2)CC1

>  <Energy>  (5) 
112.48085456890546

>  <Genealogy>  (5) 
CCC(CCC(C)C)N1CCC(c2ccc3cc(C(N)=O)n(C(=O)[O-])c3c2)CC1 (protonated)
CC[C@H](CCC(C)C)N1CCC(c2ccc3cc(C(N)=O)n(C(=O)[O-])c3c2)CC1 (chirality)
CC[C@H](CCC(C)C)N1CCC(c2ccc3cc(C(N)=O)n(C(=O)[O-])c3c2)CC1 (3D coordinates assigned)
CC[C@H](CCC(C)C)N1CCC(c2ccc3cc(C(N)=O)n(C(=O)[O-])c3c2)CC1 (nonaromatic ring conformer: 112.48085456890546 kcal/mol)

>  <smiles>  (5) 
CCC(CCC(C)C)N1CCC(c2ccc3cc(C(N)=O)n(C(=O)O)c3c2)CC1

>  <score_type>  (5) 
oracle

>  <origin>  (5) 
adg

>  <m_score__min__energy>  (5) 
-9.1999999999999993

>  <m_primary>  (5) 
energy

$$$$
5:0
     RDKit          3D

 35 36  0  0  0  0  0  0  0  0999 V2000
  149.5760  161.6270  130.3700 C   0  0  0  0  0  0  0  0  0  0  0  0
  149.7430  160.2730  130.9270 N   0  0  0  0  0  0  0  0  0  0  0  0
  149.2220  159.2840  129.9690 C   0  0  0  0  0  0  0  0  0  0  0  0
  149.0480  160.1430  132.2270 C   0  0  0  0  0  0  0  0  0  0  0  0
  148.7770  158.6690  132.5500 C   0  0  0  0  0  0  0  0  0  0  0  0
  147.3410  158.4710  132.9570 C   0  0  0  0  0  0  0  0  0  0  0  0
  146.7940  157.1650  133.0240 C   0  0  0  0  0  0  0  0  0  0  0  0
  145.4500  156.9700  133.3810 C   0  0  0  0  0  0  0  0  0  0  0  0
  144.6750  158.0960  133.6460 C   0  0  0  0  0  0  0  0  0  0  0  0
  143.3590  158.1920  134.0310 C   0  0  0  0  0  0  0  0  0  0  0  0
  143.1090  159.5570  134.1570 C   0  0  0  0  0  0  0  0  0  0  0  0
  141.7760  160.1130  134.4710 C   0  0  0  0  0  0  0  0  0  0  0  0
  141.1080  159.7750  135.6840 N   0  0  0  0  0  0  0  0  0  0  0  0
  141.2440  160.9380  133.6830 O   0  0  0  0  0  0  0  0  0  0  0  0
  144.2310  160.2770  133.8700 N   0  0  0  0  0  0  0  0  0  0  0  0
  144.4120  161.6990  133.9750 C   0  0  0  0  0  0  0  0  0  0  0  0
  143.6330  162.4850  133.3730 O   0  0  0  0  0  0  0  0  0  0  0  0
  145.4640  162.2200  134.7180 O   0  0  0  0  0  0  0  0  0  0  0  0
  145.1810  159.3670  133.5560 C   0  0  0  0  0  0  0  0  0  0  0  0
  146.5210  159.5900  133.2210 C   0  0  0  0  0  0  0  0  0  0  0  0
  149.4865  162.3530  131.1915 H   0  0  0  0  0  0  0  0  0  0  0  0
  150.4498  161.8793  129.7513 H   0  0  0  0  0  0  0  0  0  0  0  0
  148.6671  161.6594  129.7513 H   0  0  0  0  0  0  0  0  0  0  0  0
  148.7777  158.4406  130.5179 H   0  0  0  0  0  0  0  0  0  0  0  0
  148.4549  159.7548  129.3367 H   0  0  0  0  0  0  0  0  0  0  0  0
  150.0441  158.9176  129.3367 H   0  0  0  0  0  0  0  0  0  0  0  0
  149.6774  160.5765  133.0182 H   0  0  0  0  0  0  0  0  0  0  0  0
  148.0872  160.6756  132.1699 H   0  0  0  0  0  0  0  0  0  0  0  0
  148.9876  158.0591  131.6592 H   0  0  0  0  0  0  0  0  0  0  0  0
  149.4271  158.3632  133.3830 H   0  0  0  0  0  0  0  0  0  0  0  0
  147.4283  156.2962  132.7942 H   0  0  0  0  0  0  0  0  0  0  0  0
  145.0225  155.9587  133.4492 H   0  0  0  0  0  0  0  0  0  0  0  0
  142.6529  157.3663  134.2032 H   0  0  0  0  0  0  0  0  0  0  0  0
  140.1340  160.1020  135.8700 H   0  0  0  0  0  0  0  0  0  0  0  0
  146.9256  160.6113  133.1647 H   0  0  0  0  0  0  0  0  0  0  0  0
  1  2  1  0
  2  3  1  0
  2  4  1  0
  4  5  1  0
  5  6  1  0
  6  7  2  0
  7  8  1  0
  8  9  2  0
  9 10  1  0
 10 11  2  0
 11 12  1  0
 12 13  1  0
 12 14  2  0
 11 15  1  0
 15 16  1  0
 16 17  2  0
 16 18  1  0
 15 19  1  0
 19 20  2  0
 20  6  1  0
 19  9  1  0
  1 21  1  0
  1 22  1  0
  1 23  1  0
  3 24  1  0
  3 25  1  0
  3 26  1  0
  4 27  1  0
  4 28  1  0
  5 29  1  0
  5 30  1  0
  7 31  1  0
  8 32  1  0
 10 33  1  0
 13 34  1  0
 20 35  1  0
M  CHG  2  13  -1  18  -1
M  END
>  <UniqueID>  (6) 
6

>  <SMILES>  (6) 
CN(C)CCc1ccc2cc(C([NH-])=O)n(C(=O)[O-])c2c1

>  <Energy>  (6) 
73.15370605569393

>  <Genealogy>  (6) 
CN(C)CCc1ccc2cc(C([NH-])=O)n(C(=O)[O-])c2c1 (protonated)
CN(C)CCc1ccc2cc(C([NH-])=O)n(C(=O)[O-])c2c1 (3D coordinates assigned)
CN(C)CCc1ccc2cc(C([NH-])=O)n(C(=O)[O-])c2c1 (optimized conformer: 73.15370605569393 kcal/mol)

>  <smiles>  (6) 
CN(C)CCc1ccc2cc(C(N)=O)n(C(=O)O)c2c1

>  <score_type>  (6) 
oracle

>  <origin>  (6) 
adg

>  <m_score__min__energy>  (6) 
-7.0700000000000003

>  <m_primary>  (6) 
energy

$$$$
6:0
     RDKit          3D

 44 46  0  0  0  0  0  0  0  0999 V2000
  147.4310  155.9720  134.2040 C   0  0  0  0  0  0  0  0  0  0  0  0
  147.2260  156.7700  132.9550 C   0  0  0  0  0  0  0  0  0  0  0  0
  147.3130  156.1950  131.8370 O   0  0  0  0  0  0  0  0  0  0  0  0
  146.9430  158.1770  133.0150 N   0  0  0  0  0  0  0  0  0  0  0  0
  147.7980  159.2070  132.7530 C   0  0  0  0  0  0  0  0  0  0  0  0
  149.1840  159.0750  132.2560 C   0  0  0  0  0  0  0  0  0  0  0  0
  149.7490  157.7820  132.0620 N   0  0  0  0  0  0  0  0  0  0  0  0
  149.8840  160.0950  132.0230 O   0  0  0  0  0  0  0  0  0  0  0  0
  147.1640  160.4310  132.9610 C   0  0  0  0  0  0  0  0  0  0  0  0
  145.8850  160.1160  133.3610 C   0  0  0  0  0  0  0  0  0  0  0  0
  144.8270  160.9480  133.7100 C   0  0  0  0  0  0  0  0  0  0  0  0
  143.6210  160.3460  134.1080 C   0  0  0  0  0  0  0  0  0  0  0  0
  143.4920  158.9350  134.1590 C   0  0  0  0  0  0  0  0  0  0  0  0
  142.2350  158.3640  134.5770 N   0  0  0  0  0  0  0  0  0  0  0  0
  140.9630  159.1020  134.6200 C   0  0  0  0  0  0  0  0  0  0  0  0
  140.5830  159.6140  133.2190 C   0  0  0  0  0  0  0  0  0  0  0  0
  140.1520  158.4710  132.2780 C   0  0  0  0  0  0  0  0  0  0  0  0
  139.2880  157.4460  132.9170 N   0  0  0  0  0  0  0  0  0  0  0  0
  139.9430  156.1290  132.9860 C   0  0  0  0  0  0  0  0  0  0  0  0
  138.7360  157.8560  134.2240 C   0  0  0  0  0  0  0  0  0  0  0  0
  139.8360  158.2310  135.2330 C   0  0  0  0  0  0  0  0  0  0  0  0
  144.5980  158.1250  133.8040 C   0  0  0  0  0  0  0  0  0  0  0  0
  145.7790  158.7510  133.3880 C   0  0  0  0  0  0  0  0  0  0  0  0
  147.2658  156.6149  135.0811 H   0  0  0  0  0  0  0  0  0  0  0  0
  146.7190  155.1337  134.2245 H   0  0  0  0  0  0  0  0  0  0  0  0
  148.4588  155.5807  134.2245 H   0  0  0  0  0  0  0  0  0  0  0  0
  149.2650  157.0670  131.4740 H   0  0  0  0  0  0  0  0  0  0  0  0
  147.5943  161.4352  132.8327 H   0  0  0  0  0  0  0  0  0  0  0  0
  144.9306  162.0426  133.6757 H   0  0  0  0  0  0  0  0  0  0  0  0
  142.7646  160.9788  134.3840 H   0  0  0  0  0  0  0  0  0  0  0  0
  142.2340  157.3500  134.8350 H   0  0  0  0  0  0  0  0  0  0  0  0
  141.0938  159.9780  135.2723 H   0  0  0  0  0  0  0  0  0  0  0  0
  139.7502  160.3261  133.3159 H   0  0  0  0  0  0  0  0  0  0  0  0
  141.4714  160.0938  132.7825 H   0  0  0  0  0  0  0  0  0  0  0  0
  139.5995  158.9095  131.4339 H   0  0  0  0  0  0  0  0  0  0  0  0
  141.0726  157.9564  131.9654 H   0  0  0  0  0  0  0  0  0  0  0  0
  140.0845  155.8446  134.0391 H   0  0  0  0  0  0  0  0  0  0  0  0
  139.3127  155.3793  132.4852 H   0  0  0  0  0  0  0  0  0  0  0  0
  140.9211  156.1793  132.4852 H   0  0  0  0  0  0  0  0  0  0  0  0
  138.0822  158.7278  134.0737 H   0  0  0  0  0  0  0  0  0  0  0  0
  138.1794  157.0015  134.6363 H   0  0  0  0  0  0  0  0  0  0  0  0
  139.3744  158.7899  136.0604 H   0  0  0  0  0  0  0  0  0  0  0  0
  140.2990  157.2926  135.5723 H   0  0  0  0  0  0  0  0  0  0  0  0
  144.5306  157.0282  133.8540 H   0  0  0  0  0  0  0  0  0  0  0  0
  1  2  1  0
  2  3  2  0
  2  4  1  0
  4  5  1  0
  5  6  1  0
  6  7  1  0
  6  8  2  0
  5  9  2  0
  9 10  1  0
 10 11  2  0
 11 12  1  0
 12 13  2  0
 13 14  1  0
 14 15  1  0
 15 16  1  0
 16 17  1  0
 17 18  1  0
 18 19  1  0
 18 20  1  0
 20 21  1  0
 13 22  1  0
 22 23  2  0
 23  4  1  0
 23 10  1  0
 21 15  1  0
  1 24  1  0
  1 25  1  0
  1 26  1  0
  7 27  1  0
  9 28  1  0
 11 29  1  0
 12 30  1  0
 14 31  1  0
 15 32  1  0
 16 33  1  0
 16 34  1  0
 17 35  1  0
 17 36  1  0
 19 37  1  0
 19 38  1  0
 19 39  1  0
 20 40  1  0
 20 41  1  0
 21 42  1  0
 21 43  1  0
 22 44  1  0
M  CHG  1   7  -1
M  END
>  <UniqueID>  (7) 
7

>  <SMILES>  (7) 
CC(=O)n1c(C([NH-])=O)cc2ccc(NC3CCN(C)CC3)cc21

>  <Energy>  (7) 
92.03426137081648

>  <Genealogy>  (7) 
CC(=O)n1c(C([NH-])=O)cc2ccc(NC3CCN(C)CC3)cc21 (protonated)
CC(=O)n1c(C([NH-])=O)cc2ccc(NC3CCN(C)CC3)cc21 (3D coordinates assigned)
CC(=O)n1c(C([NH-])=O)cc2ccc(NC3CCN(C)CC3)cc21 (nonaromatic ring conformer: 92.03426137081648 kcal/mol)

>  <smiles>  (7) 
CC(=O)n1c(C(N)=O)cc2ccc(NC3CCN(C)CC3)cc21

>  <score_type>  (7) 
oracle

>  <origin>  (7) 
adg

>  <m_score__min__energy>  (7) 
-7.4699999999999998

>  <m_primary>  (7) 
energy

$$$$
7:0
     RDKit          3D

 60 61  0  0  0  0  0  0  0  0999 V2000
  140.8990  156.3350  137.7670 C   0  0  0  0  0  0  0  0  0  0  0  0
  141.4710  157.5400  137.0250 C   0  0  0  0  0  0  0  0  0  0  0  0
  140.3870  158.5290  136.5680 C   0  0  0  0  0  0  0  0  0  0  0  0
  140.9630  159.7200  135.7910 C   0  0  0  0  0  0  0  0  0  0  0  0
  142.2300  159.3900  135.2330 O   0  0  0  0  0  0  0  0  0  0  0  0
  142.7920  160.0590  134.1400 C   0  0  0  0  0  0  0  0  0  0  0  0
  142.0600  160.7130  133.3470 O   0  0  0  0  0  0  0  0  0  0  0  0
  144.2060  159.9720  133.9040 N   0  0  0  0  0  0  0  0  0  0  0  0
  145.1080  160.9920  133.8180 C   0  0  0  0  0  0  0  0  0  0  0  0
  144.8430  162.4160  134.1090 C   0  0  0  0  0  0  0  0  0  0  0  0
  143.8330  163.1340  133.4080 N   0  0  0  0  0  0  0  0  0  0  0  0
  145.4860  162.9950  135.0260 O   0  0  0  0  0  0  0  0  0  0  0  0
  146.3710  160.5000  133.4950 C   0  0  0  0  0  0  0  0  0  0  0  0
  146.2170  159.1350  133.3960 C   0  0  0  0  0  0  0  0  0  0  0  0
  147.1530  158.1480  133.0980 C   0  0  0  0  0  0  0  0  0  0  0  0
  146.7100  156.8150  133.0470 C   0  0  0  0  0  0  0  0  0  0  0  0
  145.3470  156.4970  133.2790 C   0  0  0  0  0  0  0  0  0  0  0  0
  144.8820  155.0670  133.2420 C   0  0  0  0  0  0  0  0  0  0  0  0
  143.5420  154.9330  133.9040 C   0  0  0  0  0  0  0  0  0  0  0  0
  143.4500  155.0520  135.1560 O   0  0  0  0  0  0  0  0  0  0  0  0
  142.3730  154.6560  133.1170 N   0  0  0  0  0  0  0  0  0  0  0  0
  141.0370  154.6600  133.7100 C   0  0  0  0  0  0  0  0  0  0  0  0
  140.6050  156.0910  134.0640 C   0  0  0  0  0  0  0  0  0  0  0  0
  139.8560  156.7840  132.9080 C   0  0  0  0  0  0  0  0  0  0  0  0
  138.9060  157.9070  133.3600 C   0  0  0  0  0  0  0  0  0  0  0  0
  138.4390  158.8330  132.2200 C   0  0  0  0  0  0  0  0  0  0  0  0
  139.5000  159.8810  131.8370 C   0  0  0  0  0  0  0  0  0  0  0  0
  140.5880  159.2600  131.2110 O   0  0  0  0  0  0  0  0  0  0  0  0
  144.4280  157.5260  133.5780 C   0  0  0  0  0  0  0  0  0  0  0  0
  144.9010  158.8430  133.6470 C   0  0  0  0  0  0  0  0  0  0  0  0
  140.9778  156.5010  138.8515 H   0  0  0  0  0  0  0  0  0  0  0  0
  139.8421  156.2030  137.4921 H   0  0  0  0  0  0  0  0  0  0  0  0
  141.4649  155.4327  137.4921 H   0  0  0  0  0  0  0  0  0  0  0  0
  142.1672  158.0666  137.6943 H   0  0  0  0  0  0  0  0  0  0  0  0
  141.9766  157.1637  136.1235 H   0  0  0  0  0  0  0  0  0  0  0  0
  139.6754  157.9967  135.9197 H   0  0  0  0  0  0  0  0  0  0  0  0
  139.8971  158.9256  137.4695 H   0  0  0  0  0  0  0  0  0  0  0  0
  140.2708  159.9913  134.9803 H   0  0  0  0  0  0  0  0  0  0  0  0
  141.0902  160.5659  136.4826 H   0  0  0  0  0  0  0  0  0  0  0  0
  142.9740  162.6520  133.0630 H   0  0  0  0  0  0  0  0  0  0  0  0
  147.2950  161.0790  133.3499 H   0  0  0  0  0  0  0  0  0  0  0  0
  148.2060  158.4035  132.9085 H   0  0  0  0  0  0  0  0  0  0  0  0
  147.4269  156.0108  132.8251 H   0  0  0  0  0  0  0  0  0  0  0  0
  144.8030  154.7390  132.1950 H   0  0  0  0  0  0  0  0  0  0  0  0
  145.6093  154.4423  133.7812 H   0  0  0  0  0  0  0  0  0  0  0  0
  142.4810  154.4710  132.0890 H   0  0  0  0  0  0  0  0  0  0  0  0
  140.3215  154.2341  132.9912 H   0  0  0  0  0  0  0  0  0  0  0  0
  141.0566  154.0583  134.6306 H   0  0  0  0  0  0  0  0  0  0  0  0
  139.9423  156.0528  134.9411 H   0  0  0  0  0  0  0  0  0  0  0  0
  141.5149  156.6738  134.2700 H   0  0  0  0  0  0  0  0  0  0  0  0
  140.6008  157.2160  132.2234 H   0  0  0  0  0  0  0  0  0  0  0  0
  139.2331  156.0154  132.4272 H   0  0  0  0  0  0  0  0  0  0  0  0
  138.0177  157.4454  133.8159 H   0  0  0  0  0  0  0  0  0  0  0  0
  139.4694  158.5337  134.0670 H   0  0  0  0  0  0  0  0  0  0  0  0
  138.2157  158.2182  131.3356 H   0  0  0  0  0  0  0  0  0  0  0  0
  137.5486  159.3737  132.5732 H   0  0  0  0  0  0  0  0  0  0  0  0
  139.0547  160.6144  131.1487 H   0  0  0  0  0  0  0  0  0  0  0  0
  139.8508  160.3869  132.7486 H   0  0  0  0  0  0  0  0  0  0  0  0
  141.4000  159.5550  131.6980 H   0  0  0  0  0  0  0  0  0  0  0  0
  143.3659  157.2992  133.7526 H   0  0  0  0  0  0  0  0  0  0  0  0
  1  2  1  0
  2  3  1  0
  3  4  1  0
  4  5  1  0
  5  6  1  0
  6  7  2  0
  6  8  1  0
  8  9  1  0
  9 10  1  0
 10 11  1  0
 10 12  2  0
  9 13  2  0
 13 14  1  0
 14 15  2  0
 15 16  1  0
 16 17  2  0
 17 18  1  0
 18 19  1  0
 19 20  2  0
 19 21  1  0
 21 22  1  0
 22 23  1  0
 23 24  1  0
 24 25  1  0
 25 26  1  0
 26 27  1  0
 27 28  1  0
 17 29  1  0
 29 30  2  0
 30  8  1  0
 30 14  1  0
  1 31  1  0
  1 32  1  0
  1 33  1  0
  2 34  1  0
  2 35  1  0
  3 36  1  0
  3 37  1  0
  4 38  1  0
  4 39  1  0
 11 40  1  0
 13 41  1  0
 15 42  1  0
 16 43  1  0
 18 44  1  0
 18 45  1  0
 21 46  1  0
 22 47  1  0
 22 48  1  0
 23 49  1  0
 23 50  1  0
 24 51  1  0
 24 52  1  0
 25 53  1  0
 25 54  1  0
 26 55  1  0
 26 56  1  0
 27 57  1  0
 27 58  1  0
 28 59  1  0
 29 60  1  0
M  CHG  1  11  -1
M  END
>  <UniqueID>  (8) 
8

>  <SMILES>  (8) 
CCCCOC(=O)n1c(C([NH-])=O)cc2ccc(CC(=O)NCCCCCCO)cc21

>  <Energy>  (8) 
81.13419510934817

>  <Genealogy>  (8) 
CCCCOC(=O)n1c(C([NH-])=O)cc2ccc(CC(=O)NCCCCCCO)cc21 (protonated)
CCCCOC(=O)n1c(C([NH-])=O)cc2ccc(CC(=O)NCCCCCCO)cc21 (3D coordinates assigned)
CCCCOC(=O)n1c(C([NH-])=O)cc2ccc(CC(=O)NCCCCCCO)cc21 (optimized conformer: 81.13419510934817 kcal/mol)

>  <smiles>  (8) 
CCCCOC(=O)n1c(C(N)=O)cc2ccc(CC(=O)NCCCCCCO)cc21

>  <score_type>  (8) 
oracle

>  <origin>  (8) 
adg

>  <m_score__min__energy>  (8) 
-8.6600000000000001

>  <m_primary>  (8) 
energy

$$$$
8:0
     RDKit          3D

 39 40  0  0  0  0  0  0  0  0999 V2000
  146.0450  155.7880  132.6330 C   0  0  0  0  0  0  0  0  0  0  0  0
  146.3550  156.7740  133.7140 C   0  0  0  0  0  0  0  0  0  0  0  0
  147.0880  156.4190  134.6760 O   0  0  0  0  0  0  0  0  0  0  0  0
  145.8280  158.1100  133.6720 N   0  0  0  0  0  0  0  0  0  0  0  0
  146.5230  159.2640  133.4630 C   0  0  0  0  0  0  0  0  0  0  0  0
  147.9960  159.3670  133.3470 C   0  0  0  0  0  0  0  0  0  0  0  0
  148.8530  158.5960  134.1910 N   0  0  0  0  0  0  0  0  0  0  0  0
  148.5100  160.1270  132.4840 O   0  0  0  0  0  0  0  0  0  0  0  0
  145.6560  160.3570  133.4500 C   0  0  0  0  0  0  0  0  0  0  0  0
  144.4000  159.8310  133.6510 C   0  0  0  0  0  0  0  0  0  0  0  0
  143.1640  160.4670  133.7230 C   0  0  0  0  0  0  0  0  0  0  0  0
  142.0250  159.6690  133.9210 C   0  0  0  0  0  0  0  0  0  0  0  0
  142.1390  158.2600  134.0290 C   0  0  0  0  0  0  0  0  0  0  0  0
  140.9160  157.4160  134.2710 C   0  0  0  0  0  0  0  0  0  0  0  0
  139.6150  158.2310  134.1890 C   0  0  0  0  0  0  0  0  0  0  0  0
  138.7290  157.8600  132.9810 C   0  0  0  0  0  0  0  0  0  0  0  0
  139.1790  158.5580  131.6910 C   0  0  0  0  0  0  0  0  0  0  0  0
  138.7330  159.9860  131.6850 C   0  0  0  0  0  0  0  0  0  0  0  0
  139.4800  160.8840  132.1560 O   0  0  0  0  0  0  0  0  0  0  0  0
  137.5140  160.3320  131.1150 O   0  0  0  0  0  0  0  0  0  0  0  0
  143.4110  157.6510  133.9490 C   0  0  0  0  0  0  0  0  0  0  0  0
  144.5300  158.4720  133.7780 C   0  0  0  0  0  0  0  0  0  0  0  0
  145.7442  154.8312  133.0847 H   0  0  0  0  0  0  0  0  0  0  0  0
  145.2246  156.1732  132.0096 H   0  0  0  0  0  0  0  0  0  0  0  0
  146.9382  155.6344  132.0096 H   0  0  0  0  0  0  0  0  0  0  0  0
  148.4730  158.0050  134.9620 H   0  0  0  0  0  0  0  0  0  0  0  0
  149.8890  158.6510  134.0730 H   0  0  0  0  0  0  0  0  0  0  0  0
  145.9203  161.4154  133.3089 H   0  0  0  0  0  0  0  0  0  0  0  0
  143.0817  161.5598  133.6279 H   0  0  0  0  0  0  0  0  0  0  0  0
  141.0346  160.1422  133.9930 H   0  0  0  0  0  0  0  0  0  0  0  0
  140.8816  156.6188  133.5138 H   0  0  0  0  0  0  0  0  0  0  0  0
  140.9894  157.0035  135.2881 H   0  0  0  0  0  0  0  0  0  0  0  0
  139.0380  158.0586  135.1095 H   0  0  0  0  0  0  0  0  0  0  0  0
  139.9021  159.2858  134.0668 H   0  0  0  0  0  0  0  0  0  0  0  0
  138.7763  156.7716  132.8290 H   0  0  0  0  0  0  0  0  0  0  0  0
  137.7036  158.1913  133.2021 H   0  0  0  0  0  0  0  0  0  0  0  0
  140.2763  158.5212  131.6233 H   0  0  0  0  0  0  0  0  0  0  0  0
  138.7285  158.0409  130.8309 H   0  0  0  0  0  0  0  0  0  0  0  0
  143.5186  156.5585  134.0194 H   0  0  0  0  0  0  0  0  0  0  0  0
  1  2  1  0
  2  3  2  0
  2  4  1  0
  4  5  1  0
  5  6  1  0
  6  7  1  0
  6  8  2  0
  5  9  2  0
  9 10  1  0
 10 11  2  0
 11 12  1  0
 12 13  2  0
 13 14  1  0
 14 15  1  0
 15 16  1  0
 16 17  1  0
 17 18  1  0
 18 19  2  0
 18 20  1  0
 13 21  1  0
 21 22  2  0
 22  4  1  0
 22 10  1  0
  1 23  1  0
  1 24  1  0
  1 25  1  0
  7 26  1  0
  7 27  1  0
  9 28  1  0
 11 29  1  0
 12 30  1  0
 14 31  1  0
 14 32  1  0
 15 33  1  0
 15 34  1  0
 16 35  1  0
 16 36  1  0
 17 37  1  0
 17 38  1  0
 21 39  1  0
M  CHG  1  20  -1
M  END
>  <UniqueID>  (9) 
9

>  <SMILES>  (9) 
CC(=O)n1c(C(N)=O)cc2ccc(CCCCC(=O)[O-])cc21

>  <Energy>  (9) 
70.97673964611565

>  <Genealogy>  (9) 
CC(=O)n1c(C(N)=O)cc2ccc(CCCCC(=O)[O-])cc21 (protonated)
CC(=O)n1c(C(N)=O)cc2ccc(CCCCC(=O)[O-])cc21 (3D coordinates assigned)
CC(=O)n1c(C(N)=O)cc2ccc(CCCCC(=O)[O-])cc21 (optimized conformer: 70.97673964611565 kcal/mol)

>  <smiles>  (9) 
CC(=O)n1c(C(N)=O)cc2ccc(CCCCC(=O)O)cc21

>  <score_type>  (9) 
oracle

>  <origin>  (9) 
adg

>  <m_score__min__energy>  (9) 
-7.2699999999999996

>  <m_primary>  (9) 
energy

$$$$
9:0
     RDKit          3D

 41 43  0  0  0  0  0  0  0  0999 V2000
  146.6320  155.8540  134.4950 C   0  0  0  0  0  0  0  0  0  0  0  0
  146.6380  156.6400  133.2230 C   0  0  0  0  0  0  0  0  0  0  0  0
  146.7030  156.0310  132.1220 O   0  0  0  0  0  0  0  0  0  0  0  0
  146.5010  158.0700  133.2390 N   0  0  0  0  0  0  0  0  0  0  0  0
  147.4640  159.0130  133.0320 C   0  0  0  0  0  0  0  0  0  0  0  0
  148.8540  158.7480  132.6080 C   0  0  0  0  0  0  0  0  0  0  0  0
  149.2910  157.4080  132.4010 N   0  0  0  0  0  0  0  0  0  0  0  0
  149.6720  159.6940  132.4570 O   0  0  0  0  0  0  0  0  0  0  0  0
  146.9350  160.2920  133.1930 C   0  0  0  0  0  0  0  0  0  0  0  0
  145.6060  160.1030  133.4980 C   0  0  0  0  0  0  0  0  0  0  0  0
  144.6050  161.0320  133.7660 C   0  0  0  0  0  0  0  0  0  0  0  0
  143.3210  160.5470  134.0680 C   0  0  0  0  0  0  0  0  0  0  0  0
  143.0640  159.1530  134.0970 C   0  0  0  0  0  0  0  0  0  0  0  0
  141.7140  158.6570  134.4270 C   0  0  0  0  0  0  0  0  0  0  0  0
  141.1270  158.5830  135.6820 C   0  0  0  0  0  0  0  0  0  0  0  0
  141.7460  158.9700  136.9860 C   0  0  0  0  0  0  0  0  0  0  0  0
  139.8550  158.1540  135.5630 N   0  0  0  0  0  0  0  0  0  0  0  0
  139.6210  157.9390  134.2770 N   0  0  0  0  0  0  0  0  0  0  0  0
  138.3270  157.5070  133.7620 C   0  0  0  0  0  0  0  0  0  0  0  0
  140.7280  158.2230  133.5530 C   0  0  0  0  0  0  0  0  0  0  0  0
  140.7860  158.2640  132.0500 C   0  0  0  0  0  0  0  0  0  0  0  0
  140.5610  159.5700  131.5950 O   0  0  0  0  0  0  0  0  0  0  0  0
  144.1060  158.2410  133.8260 C   0  0  0  0  0  0  0  0  0  0  0  0
  145.3700  158.7530  133.5150 C   0  0  0  0  0  0  0  0  0  0  0  0
  146.6373  156.5435  135.3521 H   0  0  0  0  0  0  0  0  0  0  0  0
  145.7290  155.2270  134.5343 H   0  0  0  0  0  0  0  0  0  0  0  0
  147.5253  155.2133  134.5343 H   0  0  0  0  0  0  0  0  0  0  0  0
  148.7270  156.7410  131.8300 H   0  0  0  0  0  0  0  0  0  0  0  0
  147.4669  161.2501  133.0967 H   0  0  0  0  0  0  0  0  0  0  0  0
  144.8123  162.1120  133.7422 H   0  0  0  0  0  0  0  0  0  0  0  0
  142.5078  161.2556  134.2839 H   0  0  0  0  0  0  0  0  0  0  0  0
  141.1306  158.5852  137.8125 H   0  0  0  0  0  0  0  0  0  0  0  0
  142.7577  158.5433  137.0526 H   0  0  0  0  0  0  0  0  0  0  0  0
  141.8054  160.0664  137.0526 H   0  0  0  0  0  0  0  0  0  0  0  0
  137.6542  157.2824  134.6028 H   0  0  0  0  0  0  0  0  0  0  0  0
  137.8909  158.3083  133.1474 H   0  0  0  0  0  0  0  0  0  0  0  0
  138.4597  156.6044  133.1474 H   0  0  0  0  0  0  0  0  0  0  0  0
  141.7783  157.9278  131.7149 H   0  0  0  0  0  0  0  0  0  0  0  0
  140.0087  157.6015  131.6415 H   0  0  0  0  0  0  0  0  0  0  0  0
  141.4540  159.9840  131.4700 H   0  0  0  0  0  0  0  0  0  0  0  0
  143.9290  157.1558  133.8585 H   0  0  0  0  0  0  0  0  0  0  0  0
  1  2  1  0
  2  3  2  0
  2  4  1  0
  4  5  1  0
  5  6  1  0
  6  7  1  0
  6  8  2  0
  5  9  2  0
  9 10  1  0
 10 11  2  0
 11 12  1  0
 12 13  2  0
 13 14  1  0
 14 15  1  0
 15 16  1  0
 15 17  2  0
 17 18  1  0
 18 19  1  0
 18 20  1  0
 20 21  1  0
 21 22  1  0
 13 23  1  0
 23 24  2  0
 24  4  1  0
 24 10  1  0
 20 14  2  0
  1 25  1  0
  1 26  1  0
  1 27  1  0
  7 28  1  0
  9 29  1  0
 11 30  1  0
 12 31  1  0
 16 32  1  0
 16 33  1  0
 16 34  1  0
 19 35  1  0
 19 36  1  0
 19 37  1  0
 21 38  1  0
 21 39  1  0
 22 40  1  0
 23 41  1  0
M  CHG  1   7  -1
M  END
>  <UniqueID>  (10) 
10

>  <SMILES>  (10) 
CC(=O)n1c(C([NH-])=O)cc2ccc(-c3c(C)nn(C)c3CO)cc21

>  <Energy>  (10) 
114.94066101651565

>  <Genealogy>  (10) 
CC(=O)n1c(C([NH-])=O)cc2ccc(-c3c(C)nn(C)c3CO)cc21 (protonated)
CC(=O)n1c(C([NH-])=O)cc2ccc(-c3c(C)nn(C)c3CO)cc21 (3D coordinates assigned)
CC(=O)n1c(C([NH-])=O)cc2ccc(-c3c(C)nn(C)c3CO)cc21 (optimized conformer: 114.94066101651565 kcal/mol)

>  <smiles>  (10) 
CC(=O)n1c(C(N)=O)cc2ccc(-c3c(C)nn(C)c3CO)cc21

>  <score_type>  (10) 
oracle

>  <origin>  (10) 
adg

>  <m_score__min__energy>  (10) 
-7.1200000000000001

>  <m_primary>  (10) 
energy

$$$$
10:0
     RDKit          3D

 41 43  0  0  0  0  0  0  0  0999 V2000
  149.2480  161.6040  130.6230 C   0  0  0  0  0  0  0  0  0  0  0  0
  149.2570  160.5060  131.7010 C   0  0  1  0  0  0  0  0  0  0  0  0
  147.9550  160.4310  132.4910 C   0  0  0  0  0  0  0  0  0  0  0  0
  147.8740  158.9800  132.9650 C   0  0  1  0  0  0  0  0  0  0  0  0
  146.5870  158.3760  132.5880 N   0  0  0  0  0  0  0  0  0  0  0  0
  145.3180  158.7710  133.1450 C   0  0  0  0  0  0  0  0  0  0  0  0
  145.1110  160.1320  133.4880 C   0  0  0  0  0  0  0  0  0  0  0  0
  143.8900  160.5630  134.0280 C   0  0  0  0  0  0  0  0  0  0  0  0
  142.8910  159.6150  134.2240 C   0  0  0  0  0  0  0  0  0  0  0  0
  141.6120  159.7650  134.7080 C   0  0  0  0  0  0  0  0  0  0  0  0
  141.0540  158.4890  134.6770 C   0  0  0  0  0  0  0  0  0  0  0  0
  139.7060  158.1790  135.1980 C   0  0  0  0  0  0  0  0  0  0  0  0
  139.4840  158.1250  136.6050 N   0  0  0  0  0  0  0  0  0  0  0  0
  138.7550  157.9220  134.4130 O   0  0  0  0  0  0  0  0  0  0  0  0
  141.9510  157.5860  134.1870 N   0  0  0  0  0  0  0  0  0  0  0  0
  141.7400  156.1870  133.9340 C   0  0  0  0  0  0  0  0  0  0  0  0
  142.5530  155.3320  134.3740 O   0  0  0  0  0  0  0  0  0  0  0  0
  140.6530  155.7660  133.1780 O   0  0  0  0  0  0  0  0  0  0  0  0
  143.0720  158.2930  133.9160 C   0  0  0  0  0  0  0  0  0  0  0  0
  144.2720  157.8370  133.3580 C   0  0  0  0  0  0  0  0  0  0  0  0
  149.0560  158.2720  132.2800 C   0  0  0  0  0  0  0  0  0  0  0  0
  149.5510  159.1460  131.2070 N   0  0  0  0  0  0  0  0  0  0  0  0
  148.8720  158.8190  129.9360 C   0  0  0  0  0  0  0  0  0  0  0  0
  149.2399  162.5922  131.1062 H   0  0  0  0  0  0  0  0  0  0  0  0
  150.1469  161.5097  129.9961 H   0  0  0  0  0  0  0  0  0  0  0  0
  148.3507  161.4950  129.9961 H   0  0  0  0  0  0  0  0  0  0  0  0
  150.0853  160.8279  132.3493 H   0  0  0  0  0  0  0  0  0  0  0  0
  147.9813  161.1188  133.3490 H   0  0  0  0  0  0  0  0  0  0  0  0
  147.0832  160.7214  131.8864 H   0  0  0  0  0  0  0  0  0  0  0  0
  147.9323  158.8951  134.0602 H   0  0  0  0  0  0  0  0  0  0  0  0
  146.5790  157.6170  131.8680 H   0  0  0  0  0  0  0  0  0  0  0  0
  145.9199  160.8601  133.3282 H   0  0  0  0  0  0  0  0  0  0  0  0
  143.7274  161.6192  134.2887 H   0  0  0  0  0  0  0  0  0  0  0  0
  141.1320  160.6948  135.0473 H   0  0  0  0  0  0  0  0  0  0  0  0
  139.4740  158.9950  137.1800 H   0  0  0  0  0  0  0  0  0  0  0  0
  144.4010  156.7778  133.0906 H   0  0  0  0  0  0  0  0  0  0  0  0
  149.8567  158.0899  133.0120 H   0  0  0  0  0  0  0  0  0  0  0  0
  148.7336  157.3051  131.8662 H   0  0  0  0  0  0  0  0  0  0  0  0
  147.8998  158.3508  130.1496 H   0  0  0  0  0  0  0  0  0  0  0  0
  148.7157  159.7406  129.3561 H   0  0  0  0  0  0  0  0  0  0  0  0
  149.4951  158.1222  129.3561 H   0  0  0  0  0  0  0  0  0  0  0  0
  1  2  1  0
  2  3  1  0
  3  4  1  0
  4  5  1  0
  5  6  1  0
  6  7  2  0
  7  8  1  0
  8  9  2  0
  9 10  1  0
 10 11  2  0
 11 12  1  0
 12 13  1  0
 12 14  2  0
 11 15  1  0
 15 16  1  0
 16 17  2  0
 16 18  1  0
 15 19  1  0
 19 20  2  0
  4 21  1  0
 21 22  1  0
 22 23  1  0
 22  2  1  0
 20  6  1  0
 19  9  1  0
  1 24  1  0
  1 25  1  0
  1 26  1  0
  2 27  1  1
  3 28  1  0
  3 29  1  0
  4 30  1  1
  5 31  1  0
  7 32  1  0
  8 33  1  0
 10 34  1  0
 13 35  1  0
 20 36  1  0
 21 37  1  0
 21 38  1  0
 23 39  1  0
 23 40  1  0
 23 41  1  0
M  CHG  2  13  -1  18  -1
M  END
>  <UniqueID>  (11) 
11

>  <SMILES>  (11) 
C[C@H]1C[C@@H](Nc2ccc3cc(C([NH-])=O)n(C(=O)[O-])c3c2)CN1C

>  <Energy>  (11) 
87.58473125381897

>  <Genealogy>  (11) 
C[C@H]1C[C@@H](Nc2ccc3cc(C([NH-])=O)n(C(=O)[O-])c3c2)CN1C (protonated)
C[C@H]1C[C@@H](Nc2ccc3cc(C([NH-])=O)n(C(=O)[O-])c3c2)CN1C (3D coordinates assigned)
C[C@H]1C[C@@H](Nc2ccc3cc(C([NH-])=O)n(C(=O)[O-])c3c2)CN1C (nonaromatic ring conformer: 87.58473125381897 kcal/mol)

>  <smiles>  (11) 
C[C@H]1C[C@@H](Nc2ccc3cc(C(N)=O)n(C(=O)O)c3c2)CN1C

>  <score_type>  (11) 
oracle

>  <origin>  (11) 
adg

>  <m_score__min__energy>  (11) 
-8.0600000000000005

>  <m_primary>  (11) 
energy

$$$$
11:0
     RDKit          3D

 27 28  0  0  0  0  0  0  0  0999 V2000
  141.7230  161.0070  133.7660 N   0  0  0  0  0  0  0  0  0  0  0  0
  142.5320  160.1100  134.5220 C   0  0  0  0  0  0  0  0  0  0  0  0
  142.0560  159.5780  135.5600 O   0  0  0  0  0  0  0  0  0  0  0  0
  143.8980  159.7580  134.0790 C   0  0  0  0  0  0  0  0  0  0  0  0
  144.2950  158.4550  133.7870 C   0  0  0  0  0  0  0  0  0  0  0  0
  145.5920  158.5610  133.3390 C   0  0  0  0  0  0  0  0  0  0  0  0
  146.4810  157.5700  132.9310 C   0  0  0  0  0  0  0  0  0  0  0  0
  147.7760  157.9620  132.5530 C   0  0  0  0  0  0  0  0  0  0  0  0
  148.1560  159.3270  132.5900 C   0  0  0  0  0  0  0  0  0  0  0  0
  149.5590  159.7280  132.2290 C   0  0  0  0  0  0  0  0  0  0  0  0
  149.5850  160.3250  130.8590 C   0  0  0  0  0  0  0  0  0  0  0  0
  149.6150  161.5760  130.7130 O   0  0  0  0  0  0  0  0  0  0  0  0
  149.6270  159.5010  129.7430 O   0  0  0  0  0  0  0  0  0  0  0  0
  147.2310  160.3030  133.0230 C   0  0  0  0  0  0  0  0  0  0  0  0
  145.9420  159.8860  133.3740 C   0  0  0  0  0  0  0  0  0  0  0  0
  144.9110  160.6350  133.8290 N   0  0  0  0  0  0  0  0  0  0  0  0
  144.9330  162.0500  134.0760 C   0  0  0  0  0  0  0  0  0  0  0  0
  143.9720  162.9020  133.4590 N   0  0  0  0  0  0  0  0  0  0  0  0
  145.8110  162.5460  134.8330 O   0  0  0  0  0  0  0  0  0  0  0  0
  141.9910  162.0100  133.6580 H   0  0  0  0  0  0  0  0  0  0  0  0
  143.6987  157.5367  133.8921 H   0  0  0  0  0  0  0  0  0  0  0  0
  146.1786  156.5127  132.9055 H   0  0  0  0  0  0  0  0  0  0  0  0
  148.5015  157.2029  132.2254 H   0  0  0  0  0  0  0  0  0  0  0  0
  149.9244  160.4685  132.9558 H   0  0  0  0  0  0  0  0  0  0  0  0
  150.2043  158.8373  132.2464 H   0  0  0  0  0  0  0  0  0  0  0  0
  147.5166  161.3636  133.0827 H   0  0  0  0  0  0  0  0  0  0  0  0
  143.0970  162.5130  133.0440 H   0  0  0  0  0  0  0  0  0  0  0  0
  1  2  1  0
  2  3  2  0
  2  4  1  0
  4  5  2  0
  5  6  1  0
  6  7  2  0
  7  8  1  0
  8  9  2  0
  9 10  1  0
 10 11  1  0
 11 12  2  0
 11 13  1  0
  9 14  1  0
 14 15  2  0
 15 16  1  0
 16 17  1  0
 17 18  1  0
 17 19  2  0
 16  4  1  0
 15  6  1  0
  1 20  1  0
  5 21  1  0
  7 22  1  0
  8 23  1  0
 10 24  1  0
 10 25  1  0
 14 26  1  0
 18 27  1  0
M  CHG  3   1  -1  13  -1  18  -1
M  END
>  <UniqueID>  (12) 
12

>  <SMILES>  (12) 
[NH-]C(=O)c1cc2ccc(CC(=O)[O-])cc2n1C([NH-])=O

>  <Energy>  (12) 
65.24841424176263

>  <Genealogy>  (12) 
[NH-]C(=O)c1cc2ccc(CC(=O)[O-])cc2n1C([NH-])=O (protonated)
[NH-]C(=O)c1cc2ccc(CC(=O)[O-])cc2n1C([NH-])=O (3D coordinates assigned)
[NH-]C(=O)c1cc2ccc(CC(=O)[O-])cc2n1C([NH-])=O (optimized conformer: 65.24841424176263 kcal/mol)

>  <smiles>  (12) 
NC(=O)c1cc2ccc(CC(=O)O)cc2n1C(N)=O

>  <score_type>  (12) 
oracle

>  <origin>  (12) 
adg

>  <m_score__min__energy>  (12) 
-6.6799999999999997

>  <m_primary>  (12) 
energy

$$$$
12:0
     RDKit          3D

 29 30  0  0  0  0  0  0  0  0999 V2000
  147.3330  156.0030  134.1430 C   0  0  0  0  0  0  0  0  0  0  0  0
  147.2770  156.8250  132.8960 C   0  0  0  0  0  0  0  0  0  0  0  0
  147.3700  156.2530  131.7770 O   0  0  0  0  0  0  0  0  0  0  0  0
  147.0480  158.2410  132.9550 N   0  0  0  0  0  0  0  0  0  0  0  0
  147.9300  159.2490  132.7010 C   0  0  0  0  0  0  0  0  0  0  0  0
  149.2970  159.0850  132.1660 C   0  0  0  0  0  0  0  0  0  0  0  0
  149.8650  157.7820  132.0530 N   0  0  0  0  0  0  0  0  0  0  0  0
  149.9820  160.0880  131.8340 O   0  0  0  0  0  0  0  0  0  0  0  0
  147.3360  160.4870  132.9350 C   0  0  0  0  0  0  0  0  0  0  0  0
  146.0490  160.2050  133.3360 C   0  0  0  0  0  0  0  0  0  0  0  0
  145.0160  161.0610  133.7090 C   0  0  0  0  0  0  0  0  0  0  0  0
  143.7940  160.4880  134.0980 C   0  0  0  0  0  0  0  0  0  0  0  0
  143.6260  159.0800  134.1040 C   0  0  0  0  0  0  0  0  0  0  0  0
  142.3280  158.4780  134.5640 C   0  0  0  0  0  0  0  0  0  0  0  0
  141.3140  159.5520  134.7870 C   0  0  0  0  0  0  0  0  0  0  0  0
  140.7660  160.1200  133.8050 O   0  0  0  0  0  0  0  0  0  0  0  0
  140.9340  159.8920  136.0790 O   0  0  0  0  0  0  0  0  0  0  0  0
  144.7010  158.2430  133.7300 C   0  0  0  0  0  0  0  0  0  0  0  0
  145.9010  158.8430  133.3360 C   0  0  0  0  0  0  0  0  0  0  0  0
  147.2879  156.6646  135.0206 H   0  0  0  0  0  0  0  0  0  0  0  0
  146.4801  155.3087  134.1631 H   0  0  0  0  0  0  0  0  0  0  0  0
  148.2722  155.4308  134.1631 H   0  0  0  0  0  0  0  0  0  0  0  0
  149.3880  157.0350  131.5030 H   0  0  0  0  0  0  0  0  0  0  0  0
  147.7971  161.4794  132.8232 H   0  0  0  0  0  0  0  0  0  0  0  0
  145.1528  162.1524  133.6993 H   0  0  0  0  0  0  0  0  0  0  0  0
  142.9595  161.1376  134.4008 H   0  0  0  0  0  0  0  0  0  0  0  0
  141.9578  157.7819  133.7969 H   0  0  0  0  0  0  0  0  0  0  0  0
  142.4957  157.9398  135.5085 H   0  0  0  0  0  0  0  0  0  0  0  0
  144.5967  157.1481  133.7483 H   0  0  0  0  0  0  0  0  0  0  0  0
  1  2  1  0
  2  3  2  0
  2  4  1  0
  4  5  1  0
  5  6  1  0
  6  7  1  0
  6  8  2  0
  5  9  2  0
  9 10  1  0
 10 11  2  0
 11 12  1  0
 12 13  2  0
 13 14  1  0
 14 15  1  0
 15 16  2  0
 15 17  1  0
 13 18  1  0
 18 19  2  0
 19  4  1  0
 19 10  1  0
  1 20  1  0
  1 21  1  0
  1 22  1  0
  7 23  1  0
  9 24  1  0
 11 25  1  0
 12 26  1  0
 14 27  1  0
 14 28  1  0
 18 29  1  0
M  CHG  2   7  -1  17  -1
M  END
>  <UniqueID>  (13) 
13

>  <SMILES>  (13) 
CC(=O)n1c(C([NH-])=O)cc2ccc(CC(=O)[O-])cc21

>  <Energy>  (13) 
66.33672001438063

>  <Genealogy>  (13) 
CC(=O)n1c(C([NH-])=O)cc2ccc(CC(=O)[O-])cc21 (protonated)
CC(=O)n1c(C([NH-])=O)cc2ccc(CC(=O)[O-])cc21 (3D coordinates assigned)
CC(=O)n1c(C([NH-])=O)cc2ccc(CC(=O)[O-])cc21 (optimized conformer: 66.33672001438063 kcal/mol)

>  <smiles>  (13) 
CC(=O)n1c(C(N)=O)cc2ccc(CC(=O)O)cc21

>  <score_type>  (13) 
oracle

>  <origin>  (13) 
adg

>  <m_score__min__energy>  (13) 
-6.6500000000000004

>  <m_primary>  (13) 
energy

$$$$
13:0
     RDKit          3D

 31 33  0  0  0  0  0  0  0  0999 V2000
  146.3250  161.5240  134.0890 N   0  0  0  0  0  0  0  0  0  0  0  0
  145.3960  160.5140  133.7080 C   0  0  0  0  0  0  0  0  0  0  0  0
  144.2160  160.8440  133.4090 O   0  0  0  0  0  0  0  0  0  0  0  0
  145.8010  159.0950  133.6270 C   0  0  0  0  0  0  0  0  0  0  0  0
  144.9040  158.0290  133.6640 C   0  0  0  0  0  0  0  0  0  0  0  0
  145.6720  156.8980  133.4960 C   0  0  0  0  0  0  0  0  0  0  0  0
  145.3000  155.5590  133.4420 C   0  0  0  0  0  0  0  0  0  0  0  0
  146.3130  154.6010  133.2610 C   0  0  0  0  0  0  0  0  0  0  0  0
  147.6730  154.9920  133.1600 C   0  0  0  0  0  0  0  0  0  0  0  0
  148.7450  153.9580  132.9220 C   0  0  0  0  0  0  0  0  0  0  0  0
  148.3760  153.0960  131.9030 F   0  0  0  0  0  0  0  0  0  0  0  0
  148.9370  153.2280  134.0810 F   0  0  0  0  0  0  0  0  0  0  0  0
  149.9370  154.5630  132.5670 F   0  0  0  0  0  0  0  0  0  0  0  0
  148.0070  156.3660  133.1950 C   0  0  0  0  0  0  0  0  0  0  0  0
  146.9770  157.2950  133.3670 C   0  0  0  0  0  0  0  0  0  0  0  0
  147.0730  158.6370  133.4520 N   0  0  0  0  0  0  0  0  0  0  0  0
  148.2890  159.3960  133.4080 C   0  0  0  0  0  0  0  0  0  0  0  0
  148.8650  159.7080  134.4850 O   0  0  0  0  0  0  0  0  0  0  0  0
  148.8440  159.8510  132.1230 C   0  0  0  0  0  0  0  0  0  0  0  0
  148.5350  161.0420  131.4770 C   0  0  0  0  0  0  0  0  0  0  0  0
  149.2050  161.1990  130.2570 C   0  0  0  0  0  0  0  0  0  0  0  0
  150.0390  160.1360  129.9370 C   0  0  0  0  0  0  0  0  0  0  0  0
  149.9400  158.9980  131.1710 S   0  0  0  0  0  0  0  0  0  0  0  0
  147.3070  161.2820  134.3460 H   0  0  0  0  0  0  0  0  0  0  0  0
  143.8135  158.0801  133.7988 H   0  0  0  0  0  0  0  0  0  0  0  0
  144.2461  155.2588  133.5379 H   0  0  0  0  0  0  0  0  0  0  0  0
  146.0478  153.5354  133.1969 H   0  0  0  0  0  0  0  0  0  0  0  0
  149.0513  156.6952  133.0895 H   0  0  0  0  0  0  0  0  0  0  0  0
  147.8346  161.7867  131.8830 H   0  0  0  0  0  0  0  0  0  0  0  0
  149.0819  162.0820  129.6126 H   0  0  0  0  0  0  0  0  0  0  0  0
  150.6582  160.0526  129.0316 H   0  0  0  0  0  0  0  0  0  0  0  0
  1  2  1  0
  2  3  2  0
  2  4  1  0
  4  5  2  0
  5  6  1  0
  6  7  2  0
  7  8  1  0
  8  9  2  0
  9 10  1  0
 10 11  1  0
 10 12  1  0
 10 13  1  0
  9 14  1  0
 14 15  2  0
 15 16  1  0
 16 17  1  0
 17 18  2  0
 17 19  1  0
 19 20  2  0
 20 21  1  0
 21 22  2  0
 22 23  1  0
 16  4  1  0
 23 19  1  0
 15  6  1  0
  1 24  1  0
  5 25  1  0
  7 26  1  0
  8 27  1  0
 14 28  1  0
 20 29  1  0
 21 30  1  0
 22 31  1  0
M  CHG  1   1  -1
M  END
>  <UniqueID>  (14) 
14

>  <SMILES>  (14) 
[NH-]C(=O)c1cc2ccc(C(F)(F)F)cc2n1C(=O)c1cccs1

>  <Energy>  (14) 
99.71154539306968

>  <Genealogy>  (14) 
[NH-]C(=O)c1cc2ccc(C(F)(F)F)cc2n1C(=O)c1cccs1 (protonated)
[NH-]C(=O)c1cc2ccc(C(F)(F)F)cc2n1C(=O)c1cccs1 (3D coordinates assigned)
[NH-]C(=O)c1cc2ccc(C(F)(F)F)cc2n1C(=O)c1cccs1 (optimized conformer: 99.71154539306968 kcal/mol)

>  <smiles>  (14) 
NC(=O)c1cc2ccc(C(F)(F)F)cc2n1C(=O)c1cccs1

>  <score_type>  (14) 
oracle

>  <origin>  (14) 
adg

>  <m_score__min__energy>  (14) 
-7.1500000000000004

>  <m_primary>  (14) 
energy

$$$$
14:0
     RDKit          3D

 50 53  0  0  0  0  0  0  0  0999 V2000
  139.9280  158.9830  137.0570 N   0  0  0  0  0  0  0  0  0  0  0  0
  141.1910  158.3150  137.1040 C   0  0  0  0  0  0  0  0  0  0  0  0
  142.1010  158.7720  137.8460 O   0  0  0  0  0  0  0  0  0  0  0  0
  141.4290  157.0730  136.3440 C   0  0  0  0  0  0  0  0  0  0  0  0
  142.3250  156.0850  136.7450 C   0  0  0  0  0  0  0  0  0  0  0  0
  142.2220  155.0950  135.7960 C   0  0  0  0  0  0  0  0  0  0  0  0
  142.8930  153.8790  135.6970 C   0  0  0  0  0  0  0  0  0  0  0  0
  142.6110  153.0600  134.5910 C   0  0  0  0  0  0  0  0  0  0  0  0
  141.6900  153.4790  133.6000 C   0  0  0  0  0  0  0  0  0  0  0  0
  141.3720  152.5840  132.4340 C   0  0  0  0  0  0  0  0  0  0  0  0
  140.6350  151.3270  132.9080 C   0  0  0  0  0  0  0  0  0  0  0  0
  139.7760  150.7990  131.8440 N   0  0  0  0  0  0  0  0  0  0  0  0
  140.1000  149.1070  131.6260 S   0  0  0  0  0  0  0  0  0  0  0  0
  141.5470  148.9010  130.7960 O   0  0  0  0  0  0  0  0  0  0  0  0
  138.7290  148.3280  130.7820 C   0  0  0  0  0  0  0  0  0  0  0  0
  138.7880  148.4200  129.2680 C   0  0  0  0  0  0  0  0  0  0  0  0
  139.1010  147.1040  129.9640 C   0  0  0  0  0  0  0  0  0  0  0  0
  141.0270  154.7180  133.7360 C   0  0  0  0  0  0  0  0  0  0  0  0
  141.3030  155.5010  134.8620 C   0  0  0  0  0  0  0  0  0  0  0  0
  140.8020  156.7140  135.1890 N   0  0  0  0  0  0  0  0  0  0  0  0
  139.8960  157.5200  134.4150 C   0  0  0  0  0  0  0  0  0  0  0  0
  138.7800  157.8380  134.9090 O   0  0  0  0  0  0  0  0  0  0  0  0
  140.2620  158.0310  133.0410 C   0  0  0  0  0  0  0  0  0  0  0  0
  139.0790  158.2190  132.0900 C   0  0  0  0  0  0  0  0  0  0  0  0
  139.3550  159.7140  132.0360 C   0  0  0  0  0  0  0  0  0  0  0  0
  140.5210  159.5380  132.9970 C   0  0  0  0  0  0  0  0  0  0  0  0
  139.0960  158.5310  136.6190 H   0  0  0  0  0  0  0  0  0  0  0  0
  139.7970  159.8900  137.5550 H   0  0  0  0  0  0  0  0  0  0  0  0
  142.9761  156.0945  137.6316 H   0  0  0  0  0  0  0  0  0  0  0  0
  143.6213  153.5693  136.4610 H   0  0  0  0  0  0  0  0  0  0  0  0
  143.1100  152.0845  134.4938 H   0  0  0  0  0  0  0  0  0  0  0  0
  140.7358  153.1297  131.7217 H   0  0  0  0  0  0  0  0  0  0  0  0
  142.3125  152.2835  131.9492 H   0  0  0  0  0  0  0  0  0  0  0  0
  141.3721  150.5610  133.1907 H   0  0  0  0  0  0  0  0  0  0  0  0
  140.0073  151.5893  133.7724 H   0  0  0  0  0  0  0  0  0  0  0  0
  140.0520  151.2710  130.9530 H   0  0  0  0  0  0  0  0  0  0  0  0
  142.0990  148.3400  131.3980 H   0  0  0  0  0  0  0  0  0  0  0  0
  137.9724  148.5513  131.5486 H   0  0  0  0  0  0  0  0  0  0  0  0
  137.8603  148.5279  128.6868 H   0  0  0  0  0  0  0  0  0  0  0  0
  139.3140  149.0635  128.5475 H   0  0  0  0  0  0  0  0  0  0  0  0
  138.3997  146.2601  129.8864 H   0  0  0  0  0  0  0  0  0  0  0  0
  139.9471  146.4012  129.9557 H   0  0  0  0  0  0  0  0  0  0  0  0
  140.3104  155.0596  132.9746 H   0  0  0  0  0  0  0  0  0  0  0  0
  141.0557  157.3091  132.7983 H   0  0  0  0  0  0  0  0  0  0  0  0
  139.1945  157.7064  131.1236 H   0  0  0  0  0  0  0  0  0  0  0  0
  138.0807  157.8481  132.3652 H   0  0  0  0  0  0  0  0  0  0  0  0
  139.6458  160.0806  131.0405 H   0  0  0  0  0  0  0  0  0  0  0  0
  138.5548  160.4348  132.2600 H   0  0  0  0  0  0  0  0  0  0  0  0
  141.4977  159.8130  132.5723 H   0  0  0  0  0  0  0  0  0  0  0  0
  140.5661  160.1213  133.9285 H   0  0  0  0  0  0  0  0  0  0  0  0
  1  2  1  0
  2  3  2  0
  2  4  1  0
  4  5  2  0
  5  6  1  0
  6  7  2  0
  7  8  1  0
  8  9  2  0
  9 10  1  0
 10 11  1  0
 11 12  1  0
 12 13  1  0
 13 14  1  6
 13 15  1  0
 15 16  1  0
 16 17  1  0
  9 18  1  0
 18 19  2  0
 19 20  1  0
 20 21  1  0
 21 22  2  0
 21 23  1  0
 23 24  1  0
 24 25  1  0
 25 26  1  0
 20  4  1  0
 26 23  1  0
 19  6  1  0
 17 15  1  0
  1 27  1  0
  1 28  1  0
  5 29  1  0
  7 30  1  0
  8 31  1  0
 10 32  1  0
 10 33  1  0
 11 34  1  0
 11 35  1  0
 12 36  1  0
 14 37  1  0
 15 38  1  0
 16 39  1  0
 16 40  1  0
 17 41  1  0
 17 42  1  0
 18 43  1  0
 23 44  1  0
 24 45  1  0
 24 46  1  0
 25 47  1  0
 25 48  1  0
 26 49  1  0
 26 50  1  0
M  CHG  1  13   1
M  END
>  <UniqueID>  (15) 
15

>  <SMILES>  (15) 
NC(=O)c1cc2ccc(CCN[S@+](O)C3CC3)cc2n1C(=O)C1CCC1

>  <Energy>  (15) 
407.3157082094633

>  <Genealogy>  (15) 
NC(=O)c1cc2ccc(CCN[S+](O)C3CC3)cc2n1C(=O)C1CCC1 (protonated)
NC(=O)c1cc2ccc(CCN[S@+](O)C3CC3)cc2n1C(=O)C1CCC1 (chirality)
NC(=O)c1cc2ccc(CCN[S@+](O)C3CC3)cc2n1C(=O)C1CCC1 (3D coordinates assigned)
NC(=O)c1cc2ccc(CCN[S@+](O)C3CC3)cc2n1C(=O)C1CCC1 (nonaromatic ring conformer: 407.3157082094633 kcal/mol)

>  <smiles>  (15) 
NC(=O)c1cc2ccc(CCN[S+]([O-])C3CC3)cc2n1C(=O)C1CCC1

>  <score_type>  (15) 
oracle

>  <origin>  (15) 
adg

>  <m_score__min__energy>  (15) 
-9.8699999999999992

>  <m_primary>  (15) 
energy

$$$$
15:0
     RDKit          3D

 35 37  0  0  0  0  0  0  0  0999 V2000
  141.7480  158.9350  135.8190 C   0  0  0  0  0  0  0  0  0  0  0  0
  142.0700  157.4820  135.4860 C   0  0  0  0  0  0  0  0  0  0  0  0
  143.3680  157.3750  134.9040 O   0  0  0  0  0  0  0  0  0  0  0  0
  143.7040  157.9270  133.6620 C   0  0  0  0  0  0  0  0  0  0  0  0
  142.8990  157.8570  132.6940 O   0  0  0  0  0  0  0  0  0  0  0  0
  144.9810  158.5600  133.4870 N   0  0  0  0  0  0  0  0  0  0  0  0
  145.2640  159.8930  133.5410 C   0  0  0  0  0  0  0  0  0  0  0  0
  144.2760  160.9860  133.6410 C   0  0  0  0  0  0  0  0  0  0  0  0
  142.9020  160.7290  133.3560 N   0  0  0  0  0  0  0  0  0  0  0  0
  144.6230  162.1370  134.0120 O   0  0  0  0  0  0  0  0  0  0  0  0
  146.6340  160.1060  133.4030 C   0  0  0  0  0  0  0  0  0  0  0  0
  147.1850  158.8530  133.2570 C   0  0  0  0  0  0  0  0  0  0  0  0
  148.5130  158.4740  133.0970 C   0  0  0  0  0  0  0  0  0  0  0  0
  148.8000  157.1030  132.9990 C   0  0  0  0  0  0  0  0  0  0  0  0
  147.7650  156.1320  133.0720 C   0  0  0  0  0  0  0  0  0  0  0  0
  148.0820  154.6840  132.9800 C   0  0  0  0  0  0  0  0  0  0  0  0
  147.3340  153.6180  133.4510 C   0  0  0  0  0  0  0  0  0  0  0  0
  147.9890  152.4820  133.1580 N   0  0  0  0  0  0  0  0  0  0  0  0
  149.0880  152.7890  132.5390 O   0  0  0  0  0  0  0  0  0  0  0  0
  149.1970  154.0900  132.4040 C   0  0  0  0  0  0  0  0  0  0  0  0
  146.4260  156.5640  133.2370 C   0  0  0  0  0  0  0  0  0  0  0  0
  146.1690  157.9380  133.3120 C   0  0  0  0  0  0  0  0  0  0  0  0
  141.7196  159.0632  136.9111 H   0  0  0  0  0  0  0  0  0  0  0  0
  142.5230  159.5892  135.3930 H   0  0  0  0  0  0  0  0  0  0  0  0
  140.7692  159.2006  135.3930 H   0  0  0  0  0  0  0  0  0  0  0  0
  142.0374  156.8841  136.4087 H   0  0  0  0  0  0  0  0  0  0  0  0
  141.3269  157.1108  134.7649 H   0  0  0  0  0  0  0  0  0  0  0  0
  142.6260  160.0230  132.6380 H   0  0  0  0  0  0  0  0  0  0  0  0
  147.1629  161.0705  133.4094 H   0  0  0  0  0  0  0  0  0  0  0  0
  149.3148  159.2255  133.0486 H   0  0  0  0  0  0  0  0  0  0  0  0
  149.8414  156.7757  132.8637 H   0  0  0  0  0  0  0  0  0  0  0  0
  146.3694  153.6890  133.9750 H   0  0  0  0  0  0  0  0  0  0  0  0
  147.6810  151.5100  133.3860 H   0  0  0  0  0  0  0  0  0  0  0  0
  150.0296  154.6194  131.9176 H   0  0  0  0  0  0  0  0  0  0  0  0
  145.6052  155.8348  133.3048 H   0  0  0  0  0  0  0  0  0  0  0  0
  1  2  1  0
  2  3  1  0
  3  4  1  0
  4  5  2  0
  4  6  1  0
  6  7  1  0
  7  8  1  0
  8  9  1  0
  8 10  2  0
  7 11  2  0
 11 12  1  0
 12 13  2  0
 13 14  1  0
 14 15  2  0
 15 16  1  0
 16 17  1  0
 17 18  2  0
 18 19  1  0
 19 20  1  0
 15 21  1  0
 21 22  2  0
 22  6  1  0
 22 12  1  0
 20 16  2  0
  1 23  1  0
  1 24  1  0
  1 25  1  0
  2 26  1  0
  2 27  1  0
  9 28  1  0
 11 29  1  0
 13 30  1  0
 14 31  1  0
 17 32  1  0
 18 33  1  0
 20 34  1  0
 21 35  1  0
M  CHG  2   9  -1  18   1
M  END
>  <UniqueID>  (16) 
16

>  <SMILES>  (16) 
CCOC(=O)n1c(C([NH-])=O)cc2ccc(-c3c[nH+]oc3)cc21

>  <Energy>  (16) 
105.21494978923447

>  <Genealogy>  (16) 
CCOC(=O)n1c(C([NH-])=O)cc2ccc(-c3c[nH+]oc3)cc21 (protonated)
CCOC(=O)n1c(C([NH-])=O)cc2ccc(-c3c[nH+]oc3)cc21 (3D coordinates assigned)
CCOC(=O)n1c(C([NH-])=O)cc2ccc(-c3c[nH+]oc3)cc21 (optimized conformer: 105.21494978923447 kcal/mol)

>  <smiles>  (16) 
CCOC(=O)n1c(C(N)=O)cc2ccc(-c3cnoc3)cc21

>  <score_type>  (16) 
oracle

>  <origin>  (16) 
adg

>  <m_score__min__energy>  (16) 
-6.6600000000000001

>  <m_primary>  (16) 
energy

$$$$
16:0
     RDKit          3D

 46 48  0  0  0  0  0  0  0  0999 V2000
  139.9400  158.6420  132.2360 C   0  0  0  0  0  0  0  0  0  0  0  0
  138.7100  157.9420  133.3830 S   0  0  0  0  0  0  0  0  0  0  0  0
  139.8600  156.7790  134.2040 C   0  0  0  0  0  0  0  0  0  0  0  0
  140.1190  155.5400  133.3920 C   0  0  0  0  0  0  0  0  0  0  0  0
  139.1740  154.9410  132.8110 O   0  0  0  0  0  0  0  0  0  0  0  0
  141.4320  154.9640  133.3740 N   0  0  0  0  0  0  0  0  0  0  0  0
  142.6260  155.5840  133.5830 C   0  0  0  0  0  0  0  0  0  0  0  0
  142.8330  157.0380  133.7300 C   0  0  0  0  0  0  0  0  0  0  0  0
  143.2040  157.8400  132.6130 N   0  0  0  0  0  0  0  0  0  0  0  0
  142.7160  157.5740  134.8640 O   0  0  0  0  0  0  0  0  0  0  0  0
  143.6630  154.6510  133.5740 C   0  0  0  0  0  0  0  0  0  0  0  0
  143.0600  153.4350  133.3450 C   0  0  0  0  0  0  0  0  0  0  0  0
  143.6110  152.1630  133.2400 C   0  0  0  0  0  0  0  0  0  0  0  0
  142.7410  151.0840  133.0150 C   0  0  0  0  0  0  0  0  0  0  0  0
  141.3380  151.2890  132.9060 C   0  0  0  0  0  0  0  0  0  0  0  0
  140.3970  150.1230  132.6600 C   0  0  0  0  0  0  0  0  0  0  0  0
  139.1600  150.5800  131.8600 C   0  0  0  0  0  0  0  0  0  0  0  0
  138.3770  149.3640  131.3480 C   0  0  0  0  0  0  0  0  0  0  0  0
  139.1860  148.4560  130.4910 N   0  0  0  0  0  0  0  0  0  0  0  0
  138.7320  148.4890  129.0920 C   0  0  0  0  0  0  0  0  0  0  0  0
  140.6480  148.6840  130.5550 C   0  0  0  0  0  0  0  0  0  0  0  0
  141.1150  148.9170  131.9980 C   0  0  0  0  0  0  0  0  0  0  0  0
  140.8190  152.6000  133.0110 C   0  0  0  0  0  0  0  0  0  0  0  0
  141.7130  153.6540  133.2270 C   0  0  0  0  0  0  0  0  0  0  0  0
  140.7551  159.1059  132.8108 H   0  0  0  0  0  0  0  0  0  0  0  0
  140.3481  157.8408  131.6023 H   0  0  0  0  0  0  0  0  0  0  0  0
  139.4596  159.4020  131.6023 H   0  0  0  0  0  0  0  0  0  0  0  0
  140.8173  157.2935  134.3741 H   0  0  0  0  0  0  0  0  0  0  0  0
  139.3915  156.4629  135.1477 H   0  0  0  0  0  0  0  0  0  0  0  0
  142.4820  158.3220  132.0330 H   0  0  0  0  0  0  0  0  0  0  0  0
  144.7358  154.8458  133.7192 H   0  0  0  0  0  0  0  0  0  0  0  0
  144.6960  152.0064  133.3305 H   0  0  0  0  0  0  0  0  0  0  0  0
  143.1500  150.0671  132.9218 H   0  0  0  0  0  0  0  0  0  0  0  0
  140.0465  149.7642  133.6390 H   0  0  0  0  0  0  0  0  0  0  0  0
  138.5094  151.1826  132.5109 H   0  0  0  0  0  0  0  0  0  0  0  0
  139.4922  151.1794  130.9996 H   0  0  0  0  0  0  0  0  0  0  0  0
  138.0143  148.7929  132.2154 H   0  0  0  0  0  0  0  0  0  0  0  0
  137.5536  149.7470  130.7272 H   0  0  0  0  0  0  0  0  0  0  0  0
  137.6352  148.5687  129.0642 H   0  0  0  0  0  0  0  0  0  0  0  0
  139.1758  149.3573  128.5829 H   0  0  0  0  0  0  0  0  0  0  0  0
  139.0455  147.5657  128.5829 H   0  0  0  0  0  0  0  0  0  0  0  0
  141.1659  147.8026  130.1490 H   0  0  0  0  0  0  0  0  0  0  0  0
  140.8848  149.5817  129.9650 H   0  0  0  0  0  0  0  0  0  0  0  0
  140.9056  148.0127  132.5883 H   0  0  0  0  0  0  0  0  0  0  0  0
  142.1922  149.1384  131.9723 H   0  0  0  0  0  0  0  0  0  0  0  0
  139.7384  152.7866  132.9249 H   0  0  0  0  0  0  0  0  0  0  0  0
  1  2  1  0
  2  3  1  0
  3  4  1  0
  4  5  2  0
  4  6  1  0
  6  7  1  0
  7  8  1  0
  8  9  1  0
  8 10  2  0
  7 11  2  0
 11 12  1  0
 12 13  2  0
 13 14  1  0
 14 15  2  0
 15 16  1  0
 16 17  1  0
 17 18  1  0
 18 19  1  0
 19 20  1  0
 19 21  1  0
 21 22  1  0
 15 23  1  0
 23 24  2  0
 24  6  1  0
 24 12  1  0
 22 16  1  0
  1 25  1  0
  1 26  1  0
  1 27  1  0
  3 28  1  0
  3 29  1  0
  9 30  1  0
 11 31  1  0
 13 32  1  0
 14 33  1  0
 16 34  1  0
 17 35  1  0
 17 36  1  0
 18 37  1  0
 18 38  1  0
 20 39  1  0
 20 40  1  0
 20 41  1  0
 21 42  1  0
 21 43  1  0
 22 44  1  0
 22 45  1  0
 23 46  1  0
M  CHG  1   9  -1
M  END
>  <UniqueID>  (17) 
17

>  <SMILES>  (17) 
CSCC(=O)n1c(C([NH-])=O)cc2ccc(C3CCN(C)CC3)cc21

>  <Energy>  (17) 
93.20600983993765

>  <Genealogy>  (17) 
CSCC(=O)n1c(C([NH-])=O)cc2ccc(C3CCN(C)CC3)cc21 (protonated)
CSCC(=O)n1c(C([NH-])=O)cc2ccc(C3CCN(C)CC3)cc21 (3D coordinates assigned)
CSCC(=O)n1c(C([NH-])=O)cc2ccc(C3CCN(C)CC3)cc21 (nonaromatic ring conformer: 93.20600983993765 kcal/mol)

>  <smiles>  (17) 
CSCC(=O)n1c(C(N)=O)cc2ccc(C3CCN(C)CC3)cc21

>  <score_type>  (17) 
oracle

>  <origin>  (17) 
adg

>  <m_score__min__energy>  (17) 
-8.4399999999999995

>  <m_primary>  (17) 
energy

$$$$
17:0
     RDKit          3D

 36 38  0  0  0  0  0  0  0  0999 V2000
  149.5340  161.8420  130.3390 C   0  0  0  0  0  0  0  0  0  0  0  0
  149.1820  160.4170  130.4410 N   0  0  0  0  0  0  0  0  0  0  0  0
  147.8790  160.2280  131.0970 C   0  0  0  0  0  0  0  0  0  0  0  0
  148.5020  159.5630  132.3180 C   0  0  0  0  0  0  0  0  0  0  0  0
  148.0930  158.0970  132.6060 C   0  0  0  0  0  0  0  0  0  0  0  0
  146.6760  157.8810  133.0940 C   0  0  0  0  0  0  0  0  0  0  0  0
  146.1900  156.5670  133.3160 C   0  0  0  0  0  0  0  0  0  0  0  0
  144.8710  156.3520  133.7460 C   0  0  0  0  0  0  0  0  0  0  0  0
  144.0580  157.4640  133.9380 C   0  0  0  0  0  0  0  0  0  0  0  0
  142.7380  157.5400  134.3190 C   0  0  0  0  0  0  0  0  0  0  0  0
  142.4340  158.8990  134.3270 C   0  0  0  0  0  0  0  0  0  0  0  0
  141.1300  159.4360  134.7700 C   0  0  0  0  0  0  0  0  0  0  0  0
  140.8210  159.5600  136.1570 N   0  0  0  0  0  0  0  0  0  0  0  0
  140.2580  159.7410  133.9150 O   0  0  0  0  0  0  0  0  0  0  0  0
  143.5200  159.6360  133.9560 N   0  0  0  0  0  0  0  0  0  0  0  0
  143.5890  161.0570  133.7520 C   0  0  0  0  0  0  0  0  0  0  0  0
  142.5760  161.6940  133.3610 O   0  0  0  0  0  0  0  0  0  0  0  0
  144.7660  161.7450  134.0140 O   0  0  0  0  0  0  0  0  0  0  0  0
  144.5070  158.7410  133.7240 C   0  0  0  0  0  0  0  0  0  0  0  0
  145.8110  158.9840  133.2760 C   0  0  0  0  0  0  0  0  0  0  0  0
  149.8280  159.7830  131.6010 C   0  0  0  0  0  0  0  0  0  0  0  0
  149.6390  162.2669  131.3482 H   0  0  0  0  0  0  0  0  0  0  0  0
  150.4850  161.9468  129.7963 H   0  0  0  0  0  0  0  0  0  0  0  0
  148.7412  162.3776  129.7963 H   0  0  0  0  0  0  0  0  0  0  0  0
  147.3645  161.1724  131.3281 H   0  0  0  0  0  0  0  0  0  0  0  0
  147.0832  159.6982  130.5528 H   0  0  0  0  0  0  0  0  0  0  0  0
  148.3152  159.9088  133.3454 H   0  0  0  0  0  0  0  0  0  0  0  0
  148.2180  157.5248  131.6749 H   0  0  0  0  0  0  0  0  0  0  0  0
  148.7416  157.7675  133.4311 H   0  0  0  0  0  0  0  0  0  0  0  0
  146.8544  155.7063  133.1493 H   0  0  0  0  0  0  0  0  0  0  0  0
  144.4921  155.3351  133.9256 H   0  0  0  0  0  0  0  0  0  0  0  0
  142.0658  156.7048  134.5650 H   0  0  0  0  0  0  0  0  0  0  0  0
  139.8510  159.7820  136.4730 H   0  0  0  0  0  0  0  0  0  0  0  0
  146.1542  160.0087  133.0706 H   0  0  0  0  0  0  0  0  0  0  0  0
  150.5117  160.4539  132.1418 H   0  0  0  0  0  0  0  0  0  0  0  0
  150.4899  158.9205  131.4337 H   0  0  0  0  0  0  0  0  0  0  0  0
  1  2  1  0
  2  3  1  0
  3  4  1  0
  4  5  1  0
  5  6  1  0
  6  7  2  0
  7  8  1  0
  8  9  2  0
  9 10  1  0
 10 11  2  0
 11 12  1  0
 12 13  1  0
 12 14  2  0
 11 15  1  0
 15 16  1  0
 16 17  2  0
 16 18  1  0
 15 19  1  0
 19 20  2  0
  4 21  1  0
 21  2  1  0
 20  6  1  0
 19  9  1  0
  1 22  1  0
  1 23  1  0
  1 24  1  0
  3 25  1  0
  3 26  1  0
  4 27  1  0
  5 28  1  0
  5 29  1  0
  7 30  1  0
  8 31  1  0
 10 32  1  0
 13 33  1  0
 20 34  1  0
 21 35  1  0
 21 36  1  0
M  CHG  2  13  -1  18  -1
M  END
>  <UniqueID>  (18) 
18

>  <SMILES>  (18) 
CN1CC(Cc2ccc3cc(C([NH-])=O)n(C(=O)[O-])c3c2)C1

>  <Energy>  (18) 
148.63344893551124

>  <Genealogy>  (18) 
CN1CC(Cc2ccc3cc(C([NH-])=O)n(C(=O)[O-])c3c2)C1 (protonated)
CN1CC(Cc2ccc3cc(C([NH-])=O)n(C(=O)[O-])c3c2)C1 (3D coordinates assigned)
CN1CC(Cc2ccc3cc(C([NH-])=O)n(C(=O)[O-])c3c2)C1 (nonaromatic ring conformer: 148.63344893551124 kcal/mol)

>  <smiles>  (18) 
CN1CC(Cc2ccc3cc(C(N)=O)n(C(=O)O)c3c2)C1

>  <score_type>  (18) 
oracle

>  <origin>  (18) 
adg

>  <m_score__min__energy>  (18) 
-7.2699999999999996

>  <m_primary>  (18) 
energy

$$$$
18:0
     RDKit          3D

 37 39  0  0  0  0  0  0  0  0999 V2000
  139.1010  146.6580  129.7680 C   0  0  0  0  0  0  0  0  0  0  0  0
  138.7630  147.5640  130.8140 O   0  0  0  0  0  0  0  0  0  0  0  0
  139.5760  148.6270  131.2340 C   0  0  0  0  0  0  0  0  0  0  0  0
  140.9630  148.4860  131.4300 C   0  0  0  0  0  0  0  0  0  0  0  0
  141.7290  149.5770  131.8500 C   0  0  0  0  0  0  0  0  0  0  0  0
  141.1260  150.8180  132.0980 C   0  0  0  0  0  0  0  0  0  0  0  0
  141.9390  151.9310  132.5060 N   0  0  0  0  0  0  0  0  0  0  0  0
  142.0250  152.4230  133.8550 C   0  0  0  0  0  0  0  0  0  0  0  0
  142.8030  153.5740  134.1230 C   0  0  0  0  0  0  0  0  0  0  0  0
  142.9380  154.0610  135.4340 C   0  0  0  0  0  0  0  0  0  0  0  0
  142.2900  153.3730  136.4550 C   0  0  0  0  0  0  0  0  0  0  0  0
  142.2780  153.6080  137.8100 C   0  0  0  0  0  0  0  0  0  0  0  0
  141.4880  152.5980  138.3540 C   0  0  0  0  0  0  0  0  0  0  0  0
  141.1400  152.5210  139.7890 C   0  0  0  0  0  0  0  0  0  0  0  0
  141.4240  151.3330  140.5240 N   0  0  0  0  0  0  0  0  0  0  0  0
  140.6290  153.5070  140.3820 O   0  0  0  0  0  0  0  0  0  0  0  0
  141.0370  151.7640  137.3730 N   0  0  0  0  0  0  0  0  0  0  0  0
  140.2470  150.5720  137.5190 C   0  0  0  0  0  0  0  0  0  0  0  0
  140.2060  149.7170  136.5970 O   0  0  0  0  0  0  0  0  0  0  0  0
  139.5000  150.3640  138.6730 O   0  0  0  0  0  0  0  0  0  0  0  0
  141.5340  152.2550  136.2160 C   0  0  0  0  0  0  0  0  0  0  0  0
  141.4010  151.7370  134.9230 C   0  0  0  0  0  0  0  0  0  0  0  0
  139.7450  150.9630  131.8790 C   0  0  0  0  0  0  0  0  0  0  0  0
  138.9780  149.8720  131.4590 C   0  0  0  0  0  0  0  0  0  0  0  0
  139.4542  145.7113  130.2028 H   0  0  0  0  0  0  0  0  0  0  0  0
  138.2134  146.4676  129.1468 H   0  0  0  0  0  0  0  0  0  0  0  0
  139.8964  147.0955  129.1468 H   0  0  0  0  0  0  0  0  0  0  0  0
  141.4456  147.5137  131.2519 H   0  0  0  0  0  0  0  0  0  0  0  0
  142.8142  149.4609  131.9871 H   0  0  0  0  0  0  0  0  0  0  0  0
  142.5090  152.4130  131.7750 H   0  0  0  0  0  0  0  0  0  0  0  0
  143.3080  154.0936  133.2954 H   0  0  0  0  0  0  0  0  0  0  0  0
  143.5375  154.9585  135.6466 H   0  0  0  0  0  0  0  0  0  0  0  0
  142.7849  154.4214  138.3499 H   0  0  0  0  0  0  0  0  0  0  0  0
  140.8850  150.4550  140.3520 H   0  0  0  0  0  0  0  0  0  0  0  0
  140.8247  150.8178  134.7414 H   0  0  0  0  0  0  0  0  0  0  0  0
  139.2653  151.9399  132.0389 H   0  0  0  0  0  0  0  0  0  0  0  0
  137.8957  149.9933  131.3042 H   0  0  0  0  0  0  0  0  0  0  0  0
  1  2  1  0
  2  3  1  0
  3  4  2  0
  4  5  1  0
  5  6  2  0
  6  7  1  0
  7  8  1  0
  8  9  2  0
  9 10  1  0
 10 11  2  0
 11 12  1  0
 12 13  2  0
 13 14  1  0
 14 15  1  0
 14 16  2  0
 13 17  1  0
 17 18  1  0
 18 19  2  0
 18 20  1  0
 17 21  1  0
 21 22  2  0
  6 23  1  0
 23 24  2  0
 24  3  1  0
 22  8  1  0
 21 11  1  0
  1 25  1  0
  1 26  1  0
  1 27  1  0
  4 28  1  0
  5 29  1  0
  7 30  1  0
  9 31  1  0
 10 32  1  0
 12 33  1  0
 15 34  1  0
 22 35  1  0
 23 36  1  0
 24 37  1  0
M  CHG  2  15  -1  20  -1
M  END
>  <UniqueID>  (19) 
19

>  <SMILES>  (19) 
COc1ccc(Nc2ccc3cc(C([NH-])=O)n(C(=O)[O-])c3c2)cc1

>  <Energy>  (19) 
83.58796632233917

>  <Genealogy>  (19) 
COc1ccc(Nc2ccc3cc(C([NH-])=O)n(C(=O)[O-])c3c2)cc1 (protonated)
COc1ccc(Nc2ccc3cc(C([NH-])=O)n(C(=O)[O-])c3c2)cc1 (3D coordinates assigned)
COc1ccc(Nc2ccc3cc(C([NH-])=O)n(C(=O)[O-])c3c2)cc1 (optimized conformer: 83.58796632233917 kcal/mol)

>  <smiles>  (19) 
COc1ccc(Nc2ccc3cc(C(N)=O)n(C(=O)O)c3c2)cc1

>  <score_type>  (19) 
oracle

>  <origin>  (19) 
adg

>  <m_score__min__energy>  (19) 
-7.3300000000000001

>  <m_primary>  (19) 
energy

$$$$
19:0
     RDKit          3D

 34 35  0  0  0  0  0  0  0  0999 V2000
  147.9910  160.4890  130.1940 C   0  0  0  0  0  0  0  0  0  0  0  0
  149.3670  160.4470  130.8910 C   0  0  0  0  0  0  0  0  0  0  0  0
  150.3780  159.7390  129.9730 C   0  0  0  0  0  0  0  0  0  0  0  0
  149.8260  161.7650  131.0790 O   0  0  0  0  0  0  0  0  0  0  0  0
  149.2860  159.7420  132.2750 C   0  0  0  0  0  0  0  0  0  0  0  0
  147.8900  159.3290  132.6820 C   0  0  0  0  0  0  0  0  0  0  0  0
  147.5190  157.9610  132.6720 C   0  0  0  0  0  0  0  0  0  0  0  0
  146.2250  157.5660  133.0500 C   0  0  0  0  0  0  0  0  0  0  0  0
  145.3250  158.5580  133.4260 C   0  0  0  0  0  0  0  0  0  0  0  0
  144.0220  158.4510  133.8570 C   0  0  0  0  0  0  0  0  0  0  0  0
  143.6090  159.7590  134.1060 C   0  0  0  0  0  0  0  0  0  0  0  0
  142.2300  160.1100  134.5050 C   0  0  0  0  0  0  0  0  0  0  0  0
  141.4420  160.9980  133.7170 N   0  0  0  0  0  0  0  0  0  0  0  0
  141.7220  159.5800  135.5290 O   0  0  0  0  0  0  0  0  0  0  0  0
  144.6180  160.6380  133.8490 N   0  0  0  0  0  0  0  0  0  0  0  0
  144.6220  162.0580  134.0660 C   0  0  0  0  0  0  0  0  0  0  0  0
  143.8200  162.8000  133.4410 O   0  0  0  0  0  0  0  0  0  0  0  0
  145.5310  162.6300  134.9490 O   0  0  0  0  0  0  0  0  0  0  0  0
  145.6600  159.8870  133.4310 C   0  0  0  0  0  0  0  0  0  0  0  0
  146.9490  160.3070  133.0790 C   0  0  0  0  0  0  0  0  0  0  0  0
  147.1958  160.5133  130.9536 H   0  0  0  0  0  0  0  0  0  0  0  0
  147.9255  161.3896  129.5657 H   0  0  0  0  0  0  0  0  0  0  0  0
  147.8707  159.5941  129.5657 H   0  0  0  0  0  0  0  0  0  0  0  0
  151.1260  159.2152  130.5863 H   0  0  0  0  0  0  0  0  0  0  0  0
  149.8503  159.0121  129.3381 H   0  0  0  0  0  0  0  0  0  0  0  0
  150.8807  160.4834  129.3381 H   0  0  0  0  0  0  0  0  0  0  0  0
  150.7210  161.8430  130.6570 H   0  0  0  0  0  0  0  0  0  0  0  0
  149.9154  158.8406  132.2398 H   0  0  0  0  0  0  0  0  0  0  0  0
  149.6283  160.4736  133.0217 H   0  0  0  0  0  0  0  0  0  0  0  0
  148.2522  157.2006  132.3650 H   0  0  0  0  0  0  0  0  0  0  0  0
  145.9325  156.5056  133.0488 H   0  0  0  0  0  0  0  0  0  0  0  0
  143.4327  157.5302  133.9789 H   0  0  0  0  0  0  0  0  0  0  0  0
  141.8340  161.9020  133.3720 H   0  0  0  0  0  0  0  0  0  0  0  0
  147.2227  161.3719  133.1106 H   0  0  0  0  0  0  0  0  0  0  0  0
  1  2  1  0
  2  3  1  0
  2  4  1  0
  2  5  1  0
  5  6  1  0
  6  7  2  0
  7  8  1  0
  8  9  2  0
  9 10  1  0
 10 11  2  0
 11 12  1  0
 12 13  1  0
 12 14  2  0
 11 15  1  0
 15 16  1  0
 16 17  2  0
 16 18  1  0
 15 19  1  0
 19 20  2  0
 20  6  1  0
 19  9  1  0
  1 21  1  0
  1 22  1  0
  1 23  1  0
  3 24  1  0
  3 25  1  0
  3 26  1  0
  4 27  1  0
  5 28  1  0
  5 29  1  0
  7 30  1  0
  8 31  1  0
 10 32  1  0
 13 33  1  0
 20 34  1  0
M  CHG  2  13  -1  18  -1
M  END
>  <UniqueID>  (20) 
20

>  <SMILES>  (20) 
CC(C)(O)Cc1ccc2cc(C([NH-])=O)n(C(=O)[O-])c2c1

>  <Energy>  (20) 
70.89050129514403

>  <Genealogy>  (20) 
CC(C)(O)Cc1ccc2cc(C([NH-])=O)n(C(=O)[O-])c2c1 (protonated)
CC(C)(O)Cc1ccc2cc(C([NH-])=O)n(C(=O)[O-])c2c1 (3D coordinates assigned)
CC(C)(O)Cc1ccc2cc(C([NH-])=O)n(C(=O)[O-])c2c1 (optimized conformer: 70.89050129514403 kcal/mol)

>  <smiles>  (20) 
CC(C)(O)Cc1ccc2cc(C(N)=O)n(C(=O)O)c2c1

>  <score_type>  (20) 
oracle

>  <origin>  (20) 
adg

>  <m_score__min__energy>  (20) 
-7.3200000000000003

>  <m_primary>  (20) 
energy

$$$$
20:0
     RDKit          3D

 44 45  0  0  0  0  0  0  0  0999 V2000
  140.0650  150.8340  132.2140 C   0  0  0  0  0  0  0  0  0  0  0  0
  141.1580  151.7460  132.2160 O   0  0  0  0  0  0  0  0  0  0  0  0
  141.1340  152.9500  132.9280 C   0  0  0  0  0  0  0  0  0  0  0  0
  140.2850  153.8400  132.6530 O   0  0  0  0  0  0  0  0  0  0  0  0
  142.1500  153.1900  134.0030 C   0  0  0  0  0  0  0  0  0  0  0  0
  143.1010  152.1850  133.9550 F   0  0  0  0  0  0  0  0  0  0  0  0
  141.5440  153.1370  135.2480 F   0  0  0  0  0  0  0  0  0  0  0  0
  142.7900  154.5460  133.8100 C   0  0  0  0  0  0  0  0  0  0  0  0
  144.1680  154.6630  133.4810 C   0  0  0  0  0  0  0  0  0  0  0  0
  144.7630  155.9270  133.3170 C   0  0  0  0  0  0  0  0  0  0  0  0
  143.9640  157.0510  133.4880 C   0  0  0  0  0  0  0  0  0  0  0  0
  144.2800  158.3910  133.4170 C   0  0  0  0  0  0  0  0  0  0  0  0
  143.0930  159.0690  133.6950 C   0  0  0  0  0  0  0  0  0  0  0  0
  142.9870  160.5450  133.7510 C   0  0  0  0  0  0  0  0  0  0  0  0
  141.7180  161.1970  133.7270 N   0  0  0  0  0  0  0  0  0  0  0  0
  144.0370  161.2440  133.8080 O   0  0  0  0  0  0  0  0  0  0  0  0
  142.0920  158.1810  133.9480 N   0  0  0  0  0  0  0  0  0  0  0  0
  140.7180  158.4510  134.2590 C   0  0  0  0  0  0  0  0  0  0  0  0
  140.4370  159.0200  135.3490 O   0  0  0  0  0  0  0  0  0  0  0  0
  139.6740  158.1950  133.2950 N   0  0  0  0  0  0  0  0  0  0  0  0
  139.1130  156.8480  133.1940 C   0  0  0  0  0  0  0  0  0  0  0  0
  139.2270  159.2040  132.3140 C   0  0  0  0  0  0  0  0  0  0  0  0
  137.7970  158.9240  131.8320 C   0  0  0  0  0  0  0  0  0  0  0  0
  140.2060  159.3300  131.1360 C   0  0  0  0  0  0  0  0  0  0  0  0
  142.6330  156.9540  133.7950 C   0  0  0  0  0  0  0  0  0  0  0  0
  142.0080  155.7130  133.9370 C   0  0  0  0  0  0  0  0  0  0  0  0
  139.7824  150.5982  133.2506 H   0  0  0  0  0  0  0  0  0  0  0  0
  139.2086  151.2892  131.6949 H   0  0  0  0  0  0  0  0  0  0  0  0
  140.3594  149.9099  131.6949 H   0  0  0  0  0  0  0  0  0  0  0  0
  144.7757  153.7550  133.3533 H   0  0  0  0  0  0  0  0  0  0  0  0
  145.8285  156.0228  133.0611 H   0  0  0  0  0  0  0  0  0  0  0  0
  145.2614  158.8326  133.1891 H   0  0  0  0  0  0  0  0  0  0  0  0
  140.9200  160.8470  134.2990 H   0  0  0  0  0  0  0  0  0  0  0  0
  138.9448  156.4442  134.2033 H   0  0  0  0  0  0  0  0  0  0  0  0
  138.1570  156.8887  132.6514 H   0  0  0  0  0  0  0  0  0  0  0  0
  139.8153  156.1981  132.6514 H   0  0  0  0  0  0  0  0  0  0  0  0
  139.2171  160.1755  132.8298 H   0  0  0  0  0  0  0  0  0  0  0  0
  137.1358  158.7945  132.7015 H   0  0  0  0  0  0  0  0  0  0  0  0
  137.4426  159.7698  131.2245 H   0  0  0  0  0  0  0  0  0  0  0  0
  137.7878  158.0070  131.2245 H   0  0  0  0  0  0  0  0  0  0  0  0
  141.2280  159.4615  131.5210 H   0  0  0  0  0  0  0  0  0  0  0  0
  140.1600  158.4185  130.5219 H   0  0  0  0  0  0  0  0  0  0  0  0
  139.9307  160.2001  130.5219 H   0  0  0  0  0  0  0  0  0  0  0  0
  140.9295  155.6472  134.1434 H   0  0  0  0  0  0  0  0  0  0  0  0
  1  2  1  0
  2  3  1  0
  3  4  2  0
  3  5  1  0
  5  6  1  0
  5  7  1  0
  5  8  1  0
  8  9  2  0
  9 10  1  0
 10 11  2  0
 11 12  1  0
 12 13  2  0
 13 14  1  0
 14 15  1  0
 14 16  2  0
 13 17  1  0
 17 18  1  0
 18 19  2  0
 18 20  1  0
 20 21  1  0
 20 22  1  0
 22 23  1  0
 22 24  1  0
 17 25  1  0
 25 26  2  0
 26  8  1  0
 25 11  1  0
  1 27  1  0
  1 28  1  0
  1 29  1  0
  9 30  1  0
 10 31  1  0
 12 32  1  0
 15 33  1  0
 21 34  1  0
 21 35  1  0
 21 36  1  0
 22 37  1  0
 23 38  1  0
 23 39  1  0
 23 40  1  0
 24 41  1  0
 24 42  1  0
 24 43  1  0
 26 44  1  0
M  CHG  1  15  -1
M  END
>  <UniqueID>  (21) 
21

>  <SMILES>  (21) 
COC(=O)C(F)(F)c1ccc2cc(C([NH-])=O)n(C(=O)N(C)C(C)C)c2c1

>  <Energy>  (21) 
79.38009623421125

>  <Genealogy>  (21) 
COC(=O)C(F)(F)c1ccc2cc(C([NH-])=O)n(C(=O)N(C)C(C)C)c2c1 (protonated)
COC(=O)C(F)(F)c1ccc2cc(C([NH-])=O)n(C(=O)N(C)C(C)C)c2c1 (3D coordinates assigned)
COC(=O)C(F)(F)c1ccc2cc(C([NH-])=O)n(C(=O)N(C)C(C)C)c2c1 (optimized conformer: 79.38009623421125 kcal/mol)

>  <smiles>  (21) 
COC(=O)C(F)(F)c1ccc2cc(C(N)=O)n(C(=O)N(C)C(C)C)c2c1

>  <score_type>  (21) 
oracle

>  <origin>  (21) 
adg

>  <m_score__min__energy>  (21) 
-6.6100000000000003

>  <m_primary>  (21) 
energy

$$$$
21:0
     RDKit          3D

 38 39  0  0  0  0  0  0  0  0999 V2000
  139.0970  157.9170  132.5990 C   0  0  0  0  0  0  0  0  0  0  0  0
  139.5360  156.7840  133.5280 C   0  0  0  0  0  0  0  0  0  0  0  0
  139.2870  157.1500  134.8400 F   0  0  0  0  0  0  0  0  0  0  0  0
  138.7870  155.6570  133.2370 F   0  0  0  0  0  0  0  0  0  0  0  0
  141.0230  156.4420  133.3680 C   0  0  0  0  0  0  0  0  0  0  0  0
  141.4270  155.4400  134.3010 O   0  0  0  0  0  0  0  0  0  0  0  0
  142.2600  155.6880  135.3990 C   0  0  0  0  0  0  0  0  0  0  0  0
  143.5140  155.7220  135.2570 O   0  0  0  0  0  0  0  0  0  0  0  0
  141.6820  155.9320  136.6890 N   0  0  0  0  0  0  0  0  0  0  0  0
  141.4470  157.1360  137.2830 C   0  0  0  0  0  0  0  0  0  0  0  0
  141.5830  158.4610  136.6430 C   0  0  0  0  0  0  0  0  0  0  0  0
  142.3900  158.6340  135.4810 N   0  0  0  0  0  0  0  0  0  0  0  0
  140.9430  159.4450  137.1020 O   0  0  0  0  0  0  0  0  0  0  0  0
  140.9780  156.9550  138.5830 C   0  0  0  0  0  0  0  0  0  0  0  0
  140.9260  155.5930  138.7670 C   0  0  0  0  0  0  0  0  0  0  0  0
  140.5420  154.8530  139.8820 C   0  0  0  0  0  0  0  0  0  0  0  0
  140.6190  153.4530  139.8000 C   0  0  0  0  0  0  0  0  0  0  0  0
  141.0900  152.8230  138.6220 C   0  0  0  0  0  0  0  0  0  0  0  0
  141.1530  151.3190  138.5390 C   0  0  0  0  0  0  0  0  0  0  0  0
  139.8950  150.7420  137.8840 C   0  0  0  0  0  0  0  0  0  0  0  0
  140.2220  150.0250  136.7240 O   0  0  0  0  0  0  0  0  0  0  0  0
  141.4630  153.6060  137.5070 C   0  0  0  0  0  0  0  0  0  0  0  0
  141.3580  154.9980  137.6100 C   0  0  0  0  0  0  0  0  0  0  0  0
  138.7642  158.7760  133.2002 H   0  0  0  0  0  0  0  0  0  0  0  0
  139.9430  158.2194  131.9644 H   0  0  0  0  0  0  0  0  0  0  0  0
  138.2681  157.5705  131.9644 H   0  0  0  0  0  0  0  0  0  0  0  0
  141.1980  156.0725  132.3468 H   0  0  0  0  0  0  0  0  0  0  0  0
  141.6114  157.3517  133.5583 H   0  0  0  0  0  0  0  0  0  0  0  0
  142.8840  157.8240  135.0450 H   0  0  0  0  0  0  0  0  0  0  0  0
  140.7068  157.7362  139.3084 H   0  0  0  0  0  0  0  0  0  0  0  0
  140.1894  155.3491  140.7983 H   0  0  0  0  0  0  0  0  0  0  0  0
  140.3104  152.8395  140.6593 H   0  0  0  0  0  0  0  0  0  0  0  0
  142.0313  151.0300  137.9431 H   0  0  0  0  0  0  0  0  0  0  0  0
  141.2256  150.9188  139.5610 H   0  0  0  0  0  0  0  0  0  0  0  0
  139.3946  150.0685  138.5953 H   0  0  0  0  0  0  0  0  0  0  0  0
  139.2280  151.5724  137.6091 H   0  0  0  0  0  0  0  0  0  0  0  0
  139.7290  149.1650  136.7700 H   0  0  0  0  0  0  0  0  0  0  0  0
  141.8264  153.1342  136.5821 H   0  0  0  0  0  0  0  0  0  0  0  0
  1  2  1  0
  2  3  1  0
  2  4  1  0
  2  5  1  0
  5  6  1  0
  6  7  1  0
  7  8  2  0
  7  9  1  0
  9 10  1  0
 10 11  1  0
 11 12  1  0
 11 13  2  0
 10 14  2  0
 14 15  1  0
 15 16  2  0
 16 17  1  0
 17 18  2  0
 18 19  1  0
 19 20  1  0
 20 21  1  0
 18 22  1  0
 22 23  2  0
 23  9  1  0
 23 15  1  0
  1 24  1  0
  1 25  1  0
  1 26  1  0
  5 27  1  0
  5 28  1  0
 12 29  1  0
 14 30  1  0
 16 31  1  0
 17 32  1  0
 19 33  1  0
 19 34  1  0
 20 35  1  0
 20 36  1  0
 21 37  1  0
 22 38  1  0
M  CHG  1  12  -1
M  END
>  <UniqueID>  (22) 
22

>  <SMILES>  (22) 
CC(F)(F)COC(=O)n1c(C([NH-])=O)cc2ccc(CCO)cc21

>  <Energy>  (22) 
69.9049902282886

>  <Genealogy>  (22) 
CC(F)(F)COC(=O)n1c(C([NH-])=O)cc2ccc(CCO)cc21 (protonated)
CC(F)(F)COC(=O)n1c(C([NH-])=O)cc2ccc(CCO)cc21 (3D coordinates assigned)
CC(F)(F)COC(=O)n1c(C([NH-])=O)cc2ccc(CCO)cc21 (optimized conformer: 69.9049902282886 kcal/mol)

>  <smiles>  (22) 
CC(F)(F)COC(=O)n1c(C(N)=O)cc2ccc(CCO)cc21

>  <score_type>  (22) 
oracle

>  <origin>  (22) 
adg

>  <m_score__min__energy>  (22) 
-6.1399999999999997

>  <m_primary>  (22) 
energy

$$$$
22:0
     RDKit          3D

 43 46  0  0  0  0  0  0  0  0999 V2000
  138.2650  159.7770  131.4720 C   0  0  0  0  0  0  0  0  0  0  0  0
  137.9510  158.5430  132.1820 N   0  0  0  0  0  0  0  0  0  0  0  0
  138.9680  157.7570  132.8060 C   0  0  0  0  0  0  0  0  0  0  0  0
  139.2610  156.4840  132.4370 N   0  0  0  0  0  0  0  0  0  0  0  0
  140.2660  155.9930  133.2020 C   0  0  0  0  0  0  0  0  0  0  0  0
  140.7770  154.7480  133.0630 N   0  0  0  0  0  0  0  0  0  0  0  0
  141.7920  154.3390  133.8770 C   0  0  0  0  0  0  0  0  0  0  0  0
  142.3020  155.1750  134.8460 N   0  0  0  0  0  0  0  0  0  0  0  0
  143.4210  154.7080  135.6790 C   0  0  0  0  0  0  0  0  0  0  0  0
  144.7300  155.1730  135.1000 C   0  0  0  0  0  0  0  0  0  0  0  0
  145.8900  154.3640  135.2090 C   0  0  0  0  0  0  0  0  0  0  0  0
  147.1250  154.8120  134.7120 C   0  0  0  0  0  0  0  0  0  0  0  0
  147.1700  156.0680  134.1140 C   0  0  0  0  0  0  0  0  0  0  0  0
  148.2330  156.7570  133.5720 C   0  0  0  0  0  0  0  0  0  0  0  0
  147.7030  157.9680  133.1330 C   0  0  0  0  0  0  0  0  0  0  0  0
  148.4870  158.9880  132.4060 C   0  0  0  0  0  0  0  0  0  0  0  0
  148.9420  158.7540  131.0770 N   0  0  0  0  0  0  0  0  0  0  0  0
  148.7930  160.0670  132.9810 O   0  0  0  0  0  0  0  0  0  0  0  0
  146.3690  158.0300  133.4030 N   0  0  0  0  0  0  0  0  0  0  0  0
  145.4690  159.1290  133.1900 C   0  0  0  0  0  0  0  0  0  0  0  0
  145.7990  160.4980  133.6950 C   0  0  0  0  0  0  0  0  0  0  0  0
  144.3550  158.9280  132.6380 O   0  0  0  0  0  0  0  0  0  0  0  0
  146.0570  156.8600  133.9970 C   0  0  0  0  0  0  0  0  0  0  0  0
  144.8170  156.4450  134.4920 C   0  0  0  0  0  0  0  0  0  0  0  0
  141.7960  156.4460  134.9920 C   0  0  0  0  0  0  0  0  0  0  0  0
  142.2530  157.2370  135.8620 O   0  0  0  0  0  0  0  0  0  0  0  0
  140.7630  156.8500  134.1570 C   0  0  0  0  0  0  0  0  0  0  0  0
  139.9370  158.3120  134.0830 S   0  0  0  0  0  0  0  0  0  0  0  0
  138.4685  160.5768  132.1992 H   0  0  0  0  0  0  0  0  0  0  0  0
  139.1521  159.6211  130.8405 H   0  0  0  0  0  0  0  0  0  0  0  0
  137.4113  160.0641  130.8405 H   0  0  0  0  0  0  0  0  0  0  0  0
  136.9570  158.2260  132.2370 H   0  0  0  0  0  0  0  0  0  0  0  0
  142.2090  153.3281  133.7582 H   0  0  0  0  0  0  0  0  0  0  0  0
  143.3099  155.1117  136.6962 H   0  0  0  0  0  0  0  0  0  0  0  0
  143.4121  153.6084  135.7081 H   0  0  0  0  0  0  0  0  0  0  0  0
  145.8217  153.3759  135.6875 H   0  0  0  0  0  0  0  0  0  0  0  0
  148.0284  154.1896  134.7929 H   0  0  0  0  0  0  0  0  0  0  0  0
  149.2783  156.4219  133.5011 H   0  0  0  0  0  0  0  0  0  0  0  0
  148.9470  157.7910  130.6720 H   0  0  0  0  0  0  0  0  0  0  0  0
  145.7978  160.4932  134.7950 H   0  0  0  0  0  0  0  0  0  0  0  0
  146.7940  160.7932  133.3307 H   0  0  0  0  0  0  0  0  0  0  0  0
  145.0478  161.2142  133.3307 H   0  0  0  0  0  0  0  0  0  0  0  0
  143.9317  157.0926  134.4101 H   0  0  0  0  0  0  0  0  0  0  0  0
  1  2  1  0
  2  3  1  0
  3  4  2  0
  4  5  1  0
  5  6  1  0
  6  7  2  0
  7  8  1  0
  8  9  1  0
  9 10  1  0
 10 11  2  0
 11 12  1  0
 12 13  2  0
 13 14  1  0
 14 15  2  0
 15 16  1  0
 16 17  1  0
 16 18  2  0
 15 19  1  0
 19 20  1  0
 20 21  1  0
 20 22  2  0
 19 23  1  0
 23 24  2  0
  8 25  1  0
 25 26  2  0
 25 27  1  0
 27 28  1  0
 28  3  1  0
 27  5  2  0
 24 10  1  0
 23 13  1  0
  1 29  1  0
  1 30  1  0
  1 31  1  0
  2 32  1  0
  7 33  1  0
  9 34  1  0
  9 35  1  0
 11 36  1  0
 12 37  1  0
 14 38  1  0
 17 39  1  0
 21 40  1  0
 21 41  1  0
 21 42  1  0
 24 43  1  0
M  CHG  1  17  -1
M  END
>  <UniqueID>  (23) 
23

>  <SMILES>  (23) 
CNc1nc2ncn(Cc3ccc4cc(C([NH-])=O)n(C(C)=O)c4c3)c(=O)c2s1

>  <Energy>  (23) 
120.85660768759169

>  <Genealogy>  (23) 
CNc1nc2ncn(Cc3ccc4cc(C([NH-])=O)n(C(C)=O)c4c3)c(=O)c2s1 (protonated)
CNc1nc2ncn(Cc3ccc4cc(C([NH-])=O)n(C(C)=O)c4c3)c(=O)c2s1 (3D coordinates assigned)
CNc1nc2ncn(Cc3ccc4cc(C([NH-])=O)n(C(C)=O)c4c3)c(=O)c2s1 (optimized conformer: 120.85660768759169 kcal/mol)

>  <smiles>  (23) 
CNc1nc2ncn(Cc3ccc4cc(C(N)=O)n(C(C)=O)c4c3)c(=O)c2s1

>  <score_type>  (23) 
oracle

>  <origin>  (23) 
adg

>  <m_score__min__energy>  (23) 
-9.0199999999999996

>  <m_primary>  (23) 
energy

$$$$
23:0
     RDKit          3D

 29 30  0  0  0  0  0  0  0  0999 V2000
  144.5120  154.8470  131.8840 C   0  0  0  0  0  0  0  0  0  0  0  0
  145.5340  155.6140  132.5090 O   0  0  0  0  0  0  0  0  0  0  0  0
  145.3000  156.4060  133.6370 C   0  0  0  0  0  0  0  0  0  0  0  0
  145.2320  155.8780  134.7800 O   0  0  0  0  0  0  0  0  0  0  0  0
  145.1520  157.8290  133.4920 N   0  0  0  0  0  0  0  0  0  0  0  0
  146.1230  158.7350  133.1830 C   0  0  0  0  0  0  0  0  0  0  0  0
  147.5060  158.4050  132.7720 C   0  0  0  0  0  0  0  0  0  0  0  0
  147.7610  157.3220  131.8750 N   0  0  0  0  0  0  0  0  0  0  0  0
  148.4770  159.0570  133.2370 O   0  0  0  0  0  0  0  0  0  0  0  0
  145.6090  160.0290  133.2120 C   0  0  0  0  0  0  0  0  0  0  0  0
  144.2830  159.8890  133.5490 C   0  0  0  0  0  0  0  0  0  0  0  0
  143.3000  160.8570  133.7360 C   0  0  0  0  0  0  0  0  0  0  0  0
  142.0170  160.4280  134.1140 C   0  0  0  0  0  0  0  0  0  0  0  0
  141.7410  159.0510  134.2930 C   0  0  0  0  0  0  0  0  0  0  0  0
  140.3800  158.6100  134.7450 C   0  0  0  0  0  0  0  0  0  0  0  0
  139.3190  158.0860  133.2130 Br  0  0  0  0  0  0  0  0  0  0  0  0
  142.7660  158.0980  134.1070 C   0  0  0  0  0  0  0  0  0  0  0  0
  144.0310  158.5510  133.7130 C   0  0  0  0  0  0  0  0  0  0  0  0
  143.8841  154.3758  132.6545 H   0  0  0  0  0  0  0  0  0  0  0  0
  143.8917  155.5044  131.2571 H   0  0  0  0  0  0  0  0  0  0  0  0
  144.9699  154.0677  131.2571 H   0  0  0  0  0  0  0  0  0  0  0  0
  146.9810  156.7930  131.4270 H   0  0  0  0  0  0  0  0  0  0  0  0
  148.7430  157.0730  131.6220 H   0  0  0  0  0  0  0  0  0  0  0  0
  146.1494  160.9652  133.0084 H   0  0  0  0  0  0  0  0  0  0  0  0
  143.5212  161.9249  133.5921 H   0  0  0  0  0  0  0  0  0  0  0  0
  141.2194  161.1687  134.2724 H   0  0  0  0  0  0  0  0  0  0  0  0
  140.4816  157.7544  135.4288 H   0  0  0  0  0  0  0  0  0  0  0  0
  139.8822  159.4421  135.2644 H   0  0  0  0  0  0  0  0  0  0  0  0
  142.5756  157.0266  134.2676 H   0  0  0  0  0  0  0  0  0  0  0  0
  1  2  1  0
  2  3  1  0
  3  4  2  0
  3  5  1  0
  5  6  1  0
  6  7  1  0
  7  8  1  0
  7  9  2  0
  6 10  2  0
 10 11  1  0
 11 12  2  0
 12 13  1  0
 13 14  2  0
 14 15  1  0
 15 16  1  0
 14 17  1  0
 17 18  2  0
 18  5  1  0
 18 11  1  0
  1 19  1  0
  1 20  1  0
  1 21  1  0
  8 22  1  0
  8 23  1  0
 10 24  1  0
 12 25  1  0
 13 26  1  0
 15 27  1  0
 15 28  1  0
 17 29  1  0
M  END
>  <UniqueID>  (24) 
24

>  <SMILES>  (24) 
COC(=O)n1c(C(N)=O)cc2ccc(CBr)cc21

>  <Energy>  (24) 
64.73840704680818

>  <Genealogy>  (24) 
COC(=O)n1c(C(N)=O)cc2ccc(CBr)cc21 (3D coordinates assigned)
COC(=O)n1c(C(N)=O)cc2ccc(CBr)cc21 (optimized conformer: 64.73840704680818 kcal/mol)

>  <smiles>  (24) 
COC(=O)n1c(C(N)=O)cc2ccc(CBr)cc21

>  <score_type>  (24) 
oracle

>  <origin>  (24) 
adg

>  <m_score__min__energy>  (24) 
-6.6799999999999997

>  <m_primary>  (24) 
energy

$$$$
24:0
     RDKit          3D

 35 36  0  0  0  0  0  0  0  0999 V2000
  142.7610  154.3670  137.1910 C   0  0  0  0  0  0  0  0  0  0  0  0
  141.3600  154.3830  137.4320 O   0  0  0  0  0  0  0  0  0  0  0  0
  140.7550  155.3040  138.2920 C   0  0  0  0  0  0  0  0  0  0  0  0
  139.6670  155.0280  138.8710 O   0  0  0  0  0  0  0  0  0  0  0  0
  141.3770  156.6480  138.4870 C   0  0  0  0  0  0  0  0  0  0  0  0
  141.1320  157.5070  137.2770 C   0  0  0  0  0  0  0  0  0  0  0  0
  141.2500  158.9150  137.3680 C   0  0  0  0  0  0  0  0  0  0  0  0
  141.0020  159.7280  136.2490 C   0  0  0  0  0  0  0  0  0  0  0  0
  140.6200  159.1060  135.0630 C   0  0  0  0  0  0  0  0  0  0  0  0
  140.3350  159.6490  133.8320 C   0  0  0  0  0  0  0  0  0  0  0  0
  140.0100  158.5670  133.0150 C   0  0  0  0  0  0  0  0  0  0  0  0
  139.5450  158.7000  131.6180 C   0  0  0  0  0  0  0  0  0  0  0  0
  138.3540  158.0420  131.1790 N   0  0  0  0  0  0  0  0  0  0  0  0
  140.2140  159.3710  130.7890 O   0  0  0  0  0  0  0  0  0  0  0  0
  140.0930  157.4000  133.7160 N   0  0  0  0  0  0  0  0  0  0  0  0
  139.8850  156.0650  133.2260 C   0  0  0  0  0  0  0  0  0  0  0  0
  139.1070  155.8640  132.2550 O   0  0  0  0  0  0  0  0  0  0  0  0
  140.5610  154.9940  133.8210 O   0  0  0  0  0  0  0  0  0  0  0  0
  140.8560  153.7900  133.1220 C   0  0  0  0  0  0  0  0  0  0  0  0
  140.4680  157.7470  134.9680 C   0  0  0  0  0  0  0  0  0  0  0  0
  140.7310  156.9120  136.0600 C   0  0  0  0  0  0  0  0  0  0  0  0
  143.2981  154.3609  138.1509 H   0  0  0  0  0  0  0  0  0  0  0  0
  143.0242  153.4658  136.6178 H   0  0  0  0  0  0  0  0  0  0  0  0
  143.0447  155.2620  136.6178 H   0  0  0  0  0  0  0  0  0  0  0  0
  140.9346  157.1295  139.3715 H   0  0  0  0  0  0  0  0  0  0  0  0
  142.4608  156.5275  138.6316 H   0  0  0  0  0  0  0  0  0  0  0  0
  141.5385  159.3769  138.3237 H   0  0  0  0  0  0  0  0  0  0  0  0
  141.1063  160.8214  136.3080 H   0  0  0  0  0  0  0  0  0  0  0  0
  140.3585  160.7123  133.5513 H   0  0  0  0  0  0  0  0  0  0  0  0
  138.0560  158.1100  130.1800 H   0  0  0  0  0  0  0  0  0  0  0  0
  137.7440  157.5230  131.8480 H   0  0  0  0  0  0  0  0  0  0  0  0
  141.0532  152.9850  133.8453 H   0  0  0  0  0  0  0  0  0  0  0  0
  139.9991  153.5134  132.4902 H   0  0  0  0  0  0  0  0  0  0  0  0
  141.7437  153.9409  132.4902 H   0  0  0  0  0  0  0  0  0  0  0  0
  140.6281  155.8203  135.9729 H   0  0  0  0  0  0  0  0  0  0  0  0
  1  2  1  0
  2  3  1  0
  3  4  2  0
  3  5  1  0
  5  6  1  0
  6  7  2  0
  7  8  1  0
  8  9  2  0
  9 10  1  0
 10 11  2  0
 11 12  1  0
 12 13  1  0
 12 14  2  0
 11 15  1  0
 15 16  1  0
 16 17  2  0
 16 18  1  0
 18 19  1  0
 15 20  1  0
 20 21  2  0
 21  6  1  0
 20  9  1  0
  1 22  1  0
  1 23  1  0
  1 24  1  0
  5 25  1  0
  5 26  1  0
  7 27  1  0
  8 28  1  0
 10 29  1  0
 13 30  1  0
 13 31  1  0
 19 32  1  0
 19 33  1  0
 19 34  1  0
 21 35  1  0
M  END
>  <UniqueID>  (25) 
25

>  <SMILES>  (25) 
COC(=O)Cc1ccc2cc(C(N)=O)n(C(=O)OC)c2c1

>  <Energy>  (25) 
67.35592059466626

>  <Genealogy>  (25) 
COC(=O)Cc1ccc2cc(C(N)=O)n(C(=O)OC)c2c1 (3D coordinates assigned)
COC(=O)Cc1ccc2cc(C(N)=O)n(C(=O)OC)c2c1 (optimized conformer: 67.35592059466626 kcal/mol)

>  <smiles>  (25) 
COC(=O)Cc1ccc2cc(C(N)=O)n(C(=O)OC)c2c1

>  <score_type>  (25) 
oracle

>  <origin>  (25) 
adg

>  <m_score__min__energy>  (25) 
-6.2800000000000002

>  <m_primary>  (25) 
energy

$$$$
25:0
     RDKit          3D

 65 69  0  0  0  0  0  0  0  0999 V2000
  143.5700  158.7610  132.9830 N   0  0  0  0  0  0  0  0  0  0  0  0
  144.6230  157.8840  133.3660 C   0  0  0  0  0  0  0  0  0  0  0  0
  145.7350  158.3680  133.7160 O   0  0  0  0  0  0  0  0  0  0  0  0
  144.4420  156.4180  133.3360 C   0  0  0  0  0  0  0  0  0  0  0  0
  145.4550  155.5280  132.9800 C   0  0  0  0  0  0  0  0  0  0  0  0
  144.8680  154.2850  132.9880 C   0  0  0  0  0  0  0  0  0  0  0  0
  145.4080  153.0390  132.7010 C   0  0  0  0  0  0  0  0  0  0  0  0
  144.5680  151.9180  132.7980 C   0  0  0  0  0  0  0  0  0  0  0  0
  143.2130  152.0510  133.2150 C   0  0  0  0  0  0  0  0  0  0  0  0
  142.2590  150.8680  133.2820 C   0  0  0  0  0  0  0  0  0  0  0  0
  142.7750  149.5750  132.5870 C   0  0  0  0  0  0  0  0  0  0  0  0
  142.1570  149.3870  131.1930 C   0  0  0  0  0  0  0  0  0  0  0  0
  140.5940  149.2310  131.2420 C   0  0  0  0  0  0  0  0  0  0  0  0
  140.2140  147.7120  131.3920 C   0  0  0  0  0  0  0  0  0  0  0  0
  138.9840  147.2870  130.5620 C   0  0  0  0  0  0  0  0  0  0  0  0
  137.9920  148.3670  130.4760 N   0  0  0  0  0  0  0  0  0  0  0  0
  138.5020  149.5420  129.7380 C   0  0  0  0  0  0  0  0  0  0  0  0
  140.0240  149.7620  129.8970 C   0  0  0  0  0  0  0  0  0  0  0  0
  140.0040  150.0680  132.4380 C   0  0  0  0  0  0  0  0  0  0  0  0
  140.8640  151.2930  132.7710 C   0  0  0  0  0  0  0  0  0  0  0  0
  142.7030  153.3450  133.4770 C   0  0  0  0  0  0  0  0  0  0  0  0
  143.5560  154.4450  133.3440 C   0  0  0  0  0  0  0  0  0  0  0  0
  143.2780  155.7490  133.5650 N   0  0  0  0  0  0  0  0  0  0  0  0
  142.0140  156.2840  133.9890 C   0  0  0  0  0  0  0  0  0  0  0  0
  141.2990  156.9220  133.1700 O   0  0  0  0  0  0  0  0  0  0  0  0
  141.5040  156.0310  135.3830 C   0  0  0  0  0  0  0  0  0  0  0  0
  141.2430  157.3470  136.1490 C   0  0  2  0  0  0  0  0  0  0  0  0
  139.8060  157.8020  135.9740 C   0  0  0  0  0  0  0  0  0  0  0  0
  139.8500  158.7220  134.7700 C   0  0  0  0  0  0  0  0  0  0  0  0
  141.1960  159.2930  134.6890 N   0  0  0  0  0  0  0  0  0  0  0  0
  142.0520  158.5220  135.5940 C   0  0  0  0  0  0  0  0  0  0  0  0
  142.5760  158.5230  133.1890 H   0  0  0  0  0  0  0  0  0  0  0  0
  146.5017  155.7695  132.7431 H   0  0  0  0  0  0  0  0  0  0  0  0
  146.4625  152.9329  132.4064 H   0  0  0  0  0  0  0  0  0  0  0  0
  144.9626  150.9221  132.5481 H   0  0  0  0  0  0  0  0  0  0  0  0
  142.1868  150.5819  134.3417 H   0  0  0  0  0  0  0  0  0  0  0  0
  143.8685  149.6382  132.4855 H   0  0  0  0  0  0  0  0  0  0  0  0
  142.4829  148.7151  133.2077 H   0  0  0  0  0  0  0  0  0  0  0  0
  142.4046  150.2637  130.5765 H   0  0  0  0  0  0  0  0  0  0  0  0
  142.5714  148.4616  130.7664 H   0  0  0  0  0  0  0  0  0  0  0  0
  141.0743  147.1069  131.0699 H   0  0  0  0  0  0  0  0  0  0  0  0
  139.9551  147.5519  132.4490 H   0  0  0  0  0  0  0  0  0  0  0  0
  139.3127  147.0221  129.5462 H   0  0  0  0  0  0  0  0  0  0  0  0
  138.5137  146.4258  131.0590 H   0  0  0  0  0  0  0  0  0  0  0  0
  137.1410  148.0080  129.9810 H   0  0  0  0  0  0  0  0  0  0  0  0
  137.6990  148.6450  131.4400 H   0  0  0  0  0  0  0  0  0  0  0  0
  138.2806  149.4040  128.6694 H   0  0  0  0  0  0  0  0  0  0  0  0
  138.0031  150.4276  130.1585 H   0  0  0  0  0  0  0  0  0  0  0  0
  140.5378  149.2445  129.0735 H   0  0  0  0  0  0  0  0  0  0  0  0
  140.1955  150.8484  129.8813 H   0  0  0  0  0  0  0  0  0  0  0  0
  138.9936  150.4082  132.1672 H   0  0  0  0  0  0  0  0  0  0  0  0
  139.9848  149.4189  133.3259 H   0  0  0  0  0  0  0  0  0  0  0  0
  140.9839  151.9053  131.8651 H   0  0  0  0  0  0  0  0  0  0  0  0
  140.3617  151.8693  133.5619 H   0  0  0  0  0  0  0  0  0  0  0  0
  141.6545  153.4829  133.7798 H   0  0  0  0  0  0  0  0  0  0  0  0
  140.5637  155.4637  135.3201 H   0  0  0  0  0  0  0  0  0  0  0  0
  142.2728  155.4653  135.9297 H   0  0  0  0  0  0  0  0  0  0  0  0
  141.5100  157.1163  137.1909 H   0  0  0  0  0  0  0  0  0  0  0  0
  139.1454  156.9431  135.7845 H   0  0  0  0  0  0  0  0  0  0  0  0
  139.4104  158.3012  136.8709 H   0  0  0  0  0  0  0  0  0  0  0  0
  139.6303  158.1516  133.8555 H   0  0  0  0  0  0  0  0  0  0  0  0
  139.1003  159.5207  134.8704 H   0  0  0  0  0  0  0  0  0  0  0  0
  141.5500  159.1800  133.7080 H   0  0  0  0  0  0  0  0  0  0  0  0
  142.9262  158.1432  135.0442 H   0  0  0  0  0  0  0  0  0  0  0  0
  142.3994  159.1618  136.4186 H   0  0  0  0  0  0  0  0  0  0  0  0
  1  2  1  0
  2  3  2  0
  2  4  1  0
  4  5  2  0
  5  6  1  0
  6  7  2  0
  7  8  1  0
  8  9  2  0
  9 10  1  0
 10 11  1  0
 11 12  1  0
 12 13  1  0
 13 14  1  0
 14 15  1  0
 15 16  1  0
 16 17  1  0
 17 18  1  0
 13 19  1  0
 19 20  1  0
  9 21  1  0
 21 22  2  0
 22 23  1  0
 23 24  1  0
 24 25  2  0
 24 26  1  0
 26 27  1  0
 27 28  1  0
 28 29  1  0
 29 30  1  0
 30 31  1  0
 23  4  1  0
 31 27  1  0
 22  6  1  0
 20 10  1  0
 18 13  1  0
  1 32  1  0
  5 33  1  0
  7 34  1  0
  8 35  1  0
 10 36  1  0
 11 37  1  0
 11 38  1  0
 12 39  1  0
 12 40  1  0
 14 41  1  0
 14 42  1  0
 15 43  1  0
 15 44  1  0
 16 45  1  0
 16 46  1  0
 17 47  1  0
 17 48  1  0
 18 49  1  0
 18 50  1  0
 19 51  1  0
 19 52  1  0
 20 53  1  0
 20 54  1  0
 21 55  1  0
 26 56  1  0
 26 57  1  0
 27 58  1  1
 28 59  1  0
 28 60  1  0
 29 61  1  0
 29 62  1  0
 30 63  1  0
 31 64  1  0
 31 65  1  0
M  CHG  2   1  -1  16   1
M  END
>  <UniqueID>  (26) 
26

>  <SMILES>  (26) 
[NH-]C(=O)c1cc2ccc(C3CCC4(CC[NH2+]CC4)CC3)cc2n1C(=O)C[C@@H]1CCNC1

>  <Energy>  (26) 
123.1315293416654

>  <Genealogy>  (26) 
[NH-]C(=O)c1cc2ccc(C3CCC4(CC[NH2+]CC4)CC3)cc2n1C(=O)C[C@@H]1CCNC1 (protonated)
[NH-]C(=O)c1cc2ccc(C3CCC4(CC[NH2+]CC4)CC3)cc2n1C(=O)C[C@@H]1CCNC1 (3D coordinates assigned)
[NH-]C(=O)c1cc2ccc(C3CCC4(CC[NH2+]CC4)CC3)cc2n1C(=O)C[C@@H]1CCNC1 (nonaromatic ring conformer: 123.1315293416654 kcal/mol)

>  <smiles>  (26) 
NC(=O)c1cc2ccc(C3CCC4(CCNCC4)CC3)cc2n1C(=O)C[C@@H]1CCNC1

>  <score_type>  (26) 
oracle

>  <origin>  (26) 
adg

>  <m_score__min__energy>  (26) 
-10.289999999999999

>  <m_primary>  (26) 
energy

$$$$
26:0
     RDKit          3D

 30 31  0  0  0  0  0  0  0  0999 V2000
  140.6210  155.2300  139.0670 C   0  0  0  0  0  0  0  0  0  0  0  0
  141.7000  156.2850  138.7920 C   0  0  2  0  0  0  0  0  0  0  0  0
  141.9910  157.1210  140.0100 C   0  0  0  0  0  0  0  0  0  0  0  0
  142.9990  157.8750  140.0520 O   0  0  0  0  0  0  0  0  0  0  0  0
  141.1670  157.0220  141.1250 O   0  0  0  0  0  0  0  0  0  0  0  0
  141.3240  157.1650  137.6180 C   0  0  0  0  0  0  0  0  0  0  0  0
  141.2950  158.5810  137.7480 C   0  0  0  0  0  0  0  0  0  0  0  0
  140.9570  159.3960  136.6550 C   0  0  0  0  0  0  0  0  0  0  0  0
  140.6420  158.7760  135.4510 C   0  0  0  0  0  0  0  0  0  0  0  0
  140.3050  159.3250  134.2360 C   0  0  0  0  0  0  0  0  0  0  0  0
  140.1080  158.2420  133.3820 C   0  0  0  0  0  0  0  0  0  0  0  0
  139.6540  158.3810  131.9820 C   0  0  0  0  0  0  0  0  0  0  0  0
  140.2360  159.3770  131.1430 N   0  0  0  0  0  0  0  0  0  0  0  0
  138.7360  157.6510  131.5260 O   0  0  0  0  0  0  0  0  0  0  0  0
  140.3190  157.0680  134.0430 N   0  0  0  0  0  0  0  0  0  0  0  0
  140.2720  155.7360  133.5070 C   0  0  0  0  0  0  0  0  0  0  0  0
  139.0550  155.2150  132.9780 N   0  0  0  0  0  0  0  0  0  0  0  0
  141.3060  155.0150  133.5110 O   0  0  0  0  0  0  0  0  0  0  0  0
  140.6440  157.4130  135.3090 C   0  0  0  0  0  0  0  0  0  0  0  0
  140.9970  156.5760  136.3740 C   0  0  0  0  0  0  0  0  0  0  0  0
  140.4960  155.1078  140.1530 H   0  0  0  0  0  0  0  0  0  0  0  0
  139.6687  155.5550  138.6226 H   0  0  0  0  0  0  0  0  0  0  0  0
  140.9245  154.2706  138.6226 H   0  0  0  0  0  0  0  0  0  0  0  0
  142.6203  155.7408  138.5334 H   0  0  0  0  0  0  0  0  0  0  0  0
  141.5401  159.0433  138.7156 H   0  0  0  0  0  0  0  0  0  0  0  0
  140.9420  160.4919  136.7488 H   0  0  0  0  0  0  0  0  0  0  0  0
  140.2109  160.3931  133.9904 H   0  0  0  0  0  0  0  0  0  0  0  0
  141.2720  159.4920  131.0860 H   0  0  0  0  0  0  0  0  0  0  0  0
  138.3150  155.8520  132.6090 H   0  0  0  0  0  0  0  0  0  0  0  0
  141.0196  155.4837  136.2464 H   0  0  0  0  0  0  0  0  0  0  0  0
  1  2  1  0
  2  3  1  0
  3  4  2  0
  3  5  1  0
  2  6  1  0
  6  7  2  0
  7  8  1  0
  8  9  2  0
  9 10  1  0
 10 11  2  0
 11 12  1  0
 12 13  1  0
 12 14  2  0
 11 15  1  0
 15 16  1  0
 16 17  1  0
 16 18  2  0
 15 19  1  0
 19 20  2  0
 20  6  1  0
 19  9  1  0
  1 21  1  0
  1 22  1  0
  1 23  1  0
  2 24  1  6
  7 25  1  0
  8 26  1  0
 10 27  1  0
 13 28  1  0
 17 29  1  0
 20 30  1  0
M  CHG  3   5  -1  13  -1  17  -1
M  END
>  <UniqueID>  (27) 
27

>  <SMILES>  (27) 
C[C@H](C(=O)[O-])c1ccc2cc(C([NH-])=O)n(C([NH-])=O)c2c1

>  <Energy>  (27) 
68.03429348389466

>  <Genealogy>  (27) 
CC(C(=O)[O-])c1ccc2cc(C([NH-])=O)n(C([NH-])=O)c2c1 (protonated)
C[C@H](C(=O)[O-])c1ccc2cc(C([NH-])=O)n(C([NH-])=O)c2c1 (chirality)
C[C@H](C(=O)[O-])c1ccc2cc(C([NH-])=O)n(C([NH-])=O)c2c1 (3D coordinates assigned)
C[C@H](C(=O)[O-])c1ccc2cc(C([NH-])=O)n(C([NH-])=O)c2c1 (optimized conformer: 68.03429348389466 kcal/mol)

>  <smiles>  (27) 
CC(C(=O)O)c1ccc2cc(C(N)=O)n(C(N)=O)c2c1

>  <score_type>  (27) 
oracle

>  <origin>  (27) 
adg

>  <m_score__min__energy>  (27) 
-6.3300000000000001

>  <m_primary>  (27) 
energy

$$$$
27:0
     RDKit          3D

 26 27  0  0  0  0  0  0  0  0999 V2000
  139.0990  147.0080  129.9420 N   0  0  0  0  0  0  0  0  0  0  0  0
  138.8910  147.9340  130.6020 C   0  0  0  0  0  0  0  0  0  0  0  0
  138.6290  149.1100  131.4390 C   0  0  0  0  0  0  0  0  0  0  0  0
  139.9250  149.7580  131.8340 C   0  0  0  0  0  0  0  0  0  0  0  0
  141.1190  148.9950  131.8740 C   0  0  0  0  0  0  0  0  0  0  0  0
  142.3340  149.5860  132.2570 C   0  0  0  0  0  0  0  0  0  0  0  0
  142.3220  150.9330  132.6080 C   0  0  0  0  0  0  0  0  0  0  0  0
  143.3560  151.7540  132.9960 C   0  0  0  0  0  0  0  0  0  0  0  0
  142.7740  153.0000  133.2210 C   0  0  0  0  0  0  0  0  0  0  0  0
  143.5130  154.1700  133.7450 C   0  0  0  0  0  0  0  0  0  0  0  0
  143.4700  155.4250  133.0640 N   0  0  0  0  0  0  0  0  0  0  0  0
  144.2160  154.0620  134.7840 O   0  0  0  0  0  0  0  0  0  0  0  0
  141.4330  152.9520  132.9790 N   0  0  0  0  0  0  0  0  0  0  0  0
  140.4900  154.0360  133.0390 C   0  0  0  0  0  0  0  0  0  0  0  0
  139.2520  153.8080  132.9700 O   0  0  0  0  0  0  0  0  0  0  0  0
  140.9300  155.3440  133.1870 O   0  0  0  0  0  0  0  0  0  0  0  0
  141.1720  151.6800  132.6050 C   0  0  0  0  0  0  0  0  0  0  0  0
  139.9500  151.1200  132.2090 C   0  0  0  0  0  0  0  0  0  0  0  0
  138.0187  149.8303  130.8745 H   0  0  0  0  0  0  0  0  0  0  0  0
  138.0913  148.7955  132.3456 H   0  0  0  0  0  0  0  0  0  0  0  0
  141.0936  147.9294  131.6023 H   0  0  0  0  0  0  0  0  0  0  0  0
  143.2663  149.0026  132.2790 H   0  0  0  0  0  0  0  0  0  0  0  0
  144.4167  151.4840  133.1053 H   0  0  0  0  0  0  0  0  0  0  0  0
  142.8570  155.5700  132.2310 H   0  0  0  0  0  0  0  0  0  0  0  0
  144.0260  156.2330  133.4190 H   0  0  0  0  0  0  0  0  0  0  0  0
  139.0323  151.7262  132.1905 H   0  0  0  0  0  0  0  0  0  0  0  0
  1  2  3  0
  2  3  1  0
  3  4  1  0
  4  5  2  0
  5  6  1  0
  6  7  2  0
  7  8  1  0
  8  9  2  0
  9 10  1  0
 10 11  1  0
 10 12  2  0
  9 13  1  0
 13 14  1  0
 14 15  2  0
 14 16  1  0
 13 17  1  0
 17 18  2  0
 18  4  1  0
 17  7  1  0
  3 19  1  0
  3 20  1  0
  5 21  1  0
  6 22  1  0
  8 23  1  0
 11 24  1  0
 11 25  1  0
 18 26  1  0
M  CHG  1  16  -1
M  END
>  <UniqueID>  (28) 
28

>  <SMILES>  (28) 
N#CCc1ccc2cc(C(N)=O)n(C(=O)[O-])c2c1

>  <Energy>  (28) 
63.84150251120026

>  <Genealogy>  (28) 
N#CCc1ccc2cc(C(N)=O)n(C(=O)[O-])c2c1 (protonated)
N#CCc1ccc2cc(C(N)=O)n(C(=O)[O-])c2c1 (3D coordinates assigned)
N#CCc1ccc2cc(C(N)=O)n(C(=O)[O-])c2c1 (optimized conformer: 63.84150251120026 kcal/mol)

>  <smiles>  (28) 
N#CCc1ccc2cc(C(N)=O)n(C(=O)O)c2c1

>  <score_type>  (28) 
oracle

>  <origin>  (28) 
adg

>  <m_score__min__energy>  (28) 
-6.4100000000000001

>  <m_primary>  (28) 
energy

$$$$
28:0
     RDKit          3D

 36 38  0  0  0  0  0  0  0  0999 V2000
  139.0930  146.6440  129.6870 C   0  0  0  0  0  0  0  0  0  0  0  0
  139.8680  147.1810  130.7350 O   0  0  0  0  0  0  0  0  0  0  0  0
  139.5420  148.5440  130.8990 C   0  0  0  0  0  0  0  0  0  0  0  0
  139.6060  149.1310  132.3300 C   0  0  0  0  0  0  0  0  0  0  0  0
  140.7910  150.0400  132.5280 C   0  0  0  0  0  0  0  0  0  0  0  0
  142.1060  149.5210  132.4450 C   0  0  0  0  0  0  0  0  0  0  0  0
  143.2190  150.3630  132.6030 C   0  0  0  0  0  0  0  0  0  0  0  0
  142.9870  151.7160  132.8280 C   0  0  0  0  0  0  0  0  0  0  0  0
  143.8780  152.7440  133.0310 C   0  0  0  0  0  0  0  0  0  0  0  0
  143.0950  153.8840  133.2050 C   0  0  0  0  0  0  0  0  0  0  0  0
  143.6490  155.2470  133.3580 C   0  0  0  0  0  0  0  0  0  0  0  0
  142.9540  156.3800  132.8350 N   0  0  0  0  0  0  0  0  0  0  0  0
  144.7280  155.4250  133.9820 O   0  0  0  0  0  0  0  0  0  0  0  0
  141.7710  153.5730  133.1150 N   0  0  0  0  0  0  0  0  0  0  0  0
  140.6520  154.4540  133.3030 C   0  0  0  0  0  0  0  0  0  0  0  0
  139.5050  154.1230  132.9010 O   0  0  0  0  0  0  0  0  0  0  0  0
  140.8190  155.6750  133.9470 O   0  0  0  0  0  0  0  0  0  0  0  0
  141.7210  152.2410  132.8850 C   0  0  0  0  0  0  0  0  0  0  0  0
  140.5940  151.4210  132.7510 C   0  0  0  0  0  0  0  0  0  0  0  0
  138.2290  148.8710  130.1860 C   0  0  0  0  0  0  0  0  0  0  0  0
  139.5330  149.4100  129.6350 C   0  0  0  0  0  0  0  0  0  0  0  0
  138.2577  146.0652  130.1081 H   0  0  0  0  0  0  0  0  0  0  0  0
  138.6968  147.4621  129.0676 H   0  0  0  0  0  0  0  0  0  0  0  0
  139.7198  145.9856  129.0676 H   0  0  0  0  0  0  0  0  0  0  0  0
  138.6862  149.7044  132.5176 H   0  0  0  0  0  0  0  0  0  0  0  0
  139.7085  148.2903  133.0319 H   0  0  0  0  0  0  0  0  0  0  0  0
  142.2572  148.4481  132.2550 H   0  0  0  0  0  0  0  0  0  0  0  0
  144.2430  149.9647  132.5504 H   0  0  0  0  0  0  0  0  0  0  0  0
  144.9760  152.6800  133.0517 H   0  0  0  0  0  0  0  0  0  0  0  0
  143.3340  157.3410  132.9820 H   0  0  0  0  0  0  0  0  0  0  0  0
  142.0860  156.2700  132.2660 H   0  0  0  0  0  0  0  0  0  0  0  0
  139.5799  151.8419  132.8178 H   0  0  0  0  0  0  0  0  0  0  0  0
  137.6882  148.0820  129.6429 H   0  0  0  0  0  0  0  0  0  0  0  0
  137.2720  149.3194  130.4910 H   0  0  0  0  0  0  0  0  0  0  0  0
  139.9379  149.0113  128.6931 H   0  0  0  0  0  0  0  0  0  0  0  0
  139.9122  150.4096  129.3761 H   0  0  0  0  0  0  0  0  0  0  0  0
  1  2  1  0
  2  3  1  0
  3  4  1  0
  4  5  1  0
  5  6  2  0
  6  7  1  0
  7  8  2  0
  8  9  1  0
  9 10  2  0
 10 11  1  0
 11 12  1  0
 11 13  2  0
 10 14  1  0
 14 15  1  0
 15 16  2  0
 15 17  1  0
 14 18  1  0
 18 19  2  0
  3 20  1  0
 20 21  1  0
 21  3  1  0
 19  5  1  0
 18  8  1  0
  1 22  1  0
  1 23  1  0
  1 24  1  0
  4 25  1  0
  4 26  1  0
  6 27  1  0
  7 28  1  0
  9 29  1  0
 12 30  1  0
 12 31  1  0
 19 32  1  0
 20 33  1  0
 20 34  1  0
 21 35  1  0
 21 36  1  0
M  CHG  1  17  -1
M  END
>  <UniqueID>  (29) 
29

>  <SMILES>  (29) 
COC1(Cc2ccc3cc(C(N)=O)n(C(=O)[O-])c3c2)CC1

>  <Energy>  (29) 
345.60329138879763

>  <Genealogy>  (29) 
COC1(Cc2ccc3cc(C(N)=O)n(C(=O)[O-])c3c2)CC1 (protonated)
COC1(Cc2ccc3cc(C(N)=O)n(C(=O)[O-])c3c2)CC1 (3D coordinates assigned)
COC1(Cc2ccc3cc(C(N)=O)n(C(=O)[O-])c3c2)CC1 (nonaromatic ring conformer: 345.60329138879763 kcal/mol)

>  <smiles>  (29) 
COC1(Cc2ccc3cc(C(N)=O)n(C(=O)O)c3c2)CC1

>  <score_type>  (29) 
oracle

>  <origin>  (29) 
adg

>  <m_score__min__energy>  (29) 
-7.2599999999999998

>  <m_primary>  (29) 
energy

$$$$
29:0
     RDKit          3D

 38 40  0  0  0  0  0  0  0  0999 V2000
  139.8570  154.5940  133.0050 C   0  0  0  0  0  0  0  0  0  0  0  0
  140.0210  156.0770  133.0960 C   0  0  0  0  0  0  0  0  0  0  0  0
  139.4660  156.9500  132.2330 N   0  0  0  0  0  0  0  0  0  0  0  0
  139.8310  158.1610  132.7090 C   0  0  0  0  0  0  0  0  0  0  0  0
  139.3790  159.4410  132.0780 C   0  0  0  0  0  0  0  0  0  0  0  0
  140.5740  158.0810  133.8380 N   0  0  0  0  0  0  0  0  0  0  0  0
  141.0780  159.1860  134.6610 C   0  0  0  0  0  0  0  0  0  0  0  0
  142.5030  159.5050  134.2970 C   0  0  0  0  0  0  0  0  0  0  0  0
  142.8970  160.8520  134.1050 C   0  0  0  0  0  0  0  0  0  0  0  0
  144.2110  161.1660  133.7230 C   0  0  0  0  0  0  0  0  0  0  0  0
  145.1070  160.1170  133.5470 C   0  0  0  0  0  0  0  0  0  0  0  0
  146.4220  160.1390  133.1430 C   0  0  0  0  0  0  0  0  0  0  0  0
  146.8220  158.8060  133.1230 C   0  0  0  0  0  0  0  0  0  0  0  0
  148.1990  158.3780  132.8040 C   0  0  0  0  0  0  0  0  0  0  0  0
  148.4480  157.3450  131.8500 N   0  0  0  0  0  0  0  0  0  0  0  0
  149.1660  158.8940  133.4240 O   0  0  0  0  0  0  0  0  0  0  0  0
  145.7950  157.9870  133.4900 N   0  0  0  0  0  0  0  0  0  0  0  0
  145.7800  156.5490  133.4710 C   0  0  0  0  0  0  0  0  0  0  0  0
  146.1940  155.9180  132.4630 O   0  0  0  0  0  0  0  0  0  0  0  0
  145.3100  155.8400  134.5690 O   0  0  0  0  0  0  0  0  0  0  0  0
  144.7510  158.8080  133.7480 C   0  0  0  0  0  0  0  0  0  0  0  0
  143.4420  158.4660  134.1140 C   0  0  0  0  0  0  0  0  0  0  0  0
  140.6900  156.7620  134.0870 C   0  0  0  0  0  0  0  0  0  0  0  0
  141.5320  156.0470  135.4560 Cl  0  0  0  0  0  0  0  0  0  0  0  0
  139.8098  154.1675  134.0179 H   0  0  0  0  0  0  0  0  0  0  0  0
  138.9275  154.3603  132.4651 H   0  0  0  0  0  0  0  0  0  0  0  0
  140.7129  154.1629  132.4651 H   0  0  0  0  0  0  0  0  0  0  0  0
  139.1227  160.1667  132.8639 H   0  0  0  0  0  0  0  0  0  0  0  0
  140.1880  159.8475  131.4532 H   0  0  0  0  0  0  0  0  0  0  0  0
  138.4942  159.2494  131.4532 H   0  0  0  0  0  0  0  0  0  0  0  0
  140.4535  160.0761  134.4941 H   0  0  0  0  0  0  0  0  0  0  0  0
  141.0385  158.8889  135.7194 H   0  0  0  0  0  0  0  0  0  0  0  0
  142.1662  161.6600  134.2567 H   0  0  0  0  0  0  0  0  0  0  0  0
  144.5222  162.2096  133.5677 H   0  0  0  0  0  0  0  0  0  0  0  0
  147.0278  161.0216  132.8899 H   0  0  0  0  0  0  0  0  0  0  0  0
  149.4290  157.0800  131.6090 H   0  0  0  0  0  0  0  0  0  0  0  0
  147.6660  156.7880  131.4400 H   0  0  0  0  0  0  0  0  0  0  0  0
  143.1530  157.4141  134.2553 H   0  0  0  0  0  0  0  0  0  0  0  0
  1  2  1  0
  2  3  1  0
  3  4  2  0
  4  5  1  0
  4  6  1  0
  6  7  1  0
  7  8  1  0
  8  9  2  0
  9 10  1  0
 10 11  2  0
 11 12  1  0
 12 13  2  0
 13 14  1  0
 14 15  1  0
 14 16  2  0
 13 17  1  0
 17 18  1  0
 18 19  2  0
 18 20  1  0
 17 21  1  0
 21 22  2  0
  6 23  1  0
 23 24  1  0
 23  2  2  0
 22  8  1  0
 21 11  1  0
  1 25  1  0
  1 26  1  0
  1 27  1  0
  5 28  1  0
  5 29  1  0
  5 30  1  0
  7 31  1  0
  7 32  1  0
  9 33  1  0
 10 34  1  0
 12 35  1  0
 15 36  1  0
 15 37  1  0
 22 38  1  0
M  CHG  1  20  -1
M  END
>  <UniqueID>  (30) 
30

>  <SMILES>  (30) 
Cc1nc(C)n(Cc2ccc3cc(C(N)=O)n(C(=O)[O-])c3c2)c1Cl

>  <Energy>  (30) 
106.42485268796091

>  <Genealogy>  (30) 
Cc1nc(C)n(Cc2ccc3cc(C(N)=O)n(C(=O)[O-])c3c2)c1Cl (protonated)
Cc1nc(C)n(Cc2ccc3cc(C(N)=O)n(C(=O)[O-])c3c2)c1Cl (3D coordinates assigned)
Cc1nc(C)n(Cc2ccc3cc(C(N)=O)n(C(=O)[O-])c3c2)c1Cl (optimized conformer: 106.42485268796091 kcal/mol)

>  <smiles>  (30) 
Cc1nc(C)n(Cc2ccc3cc(C(N)=O)n(C(=O)O)c3c2)c1Cl

>  <score_type>  (30) 
oracle

>  <origin>  (30) 
adg

>  <m_score__min__energy>  (30) 
-7.3700000000000001

>  <m_primary>  (30) 
energy

$$$$
30:0
     RDKit          3D

 32 33  0  0  0  0  0  0  0  0999 V2000
  141.3980  160.3410  133.7570 N   0  0  0  0  0  0  0  0  0  0  0  0
  142.2460  159.4390  134.4700 C   0  0  0  0  0  0  0  0  0  0  0  0
  141.7700  158.7720  135.4270 O   0  0  0  0  0  0  0  0  0  0  0  0
  143.6500  159.2290  134.0660 C   0  0  0  0  0  0  0  0  0  0  0  0
  144.2300  157.9680  133.9440 C   0  0  0  0  0  0  0  0  0  0  0  0
  145.5020  158.1990  133.4710 C   0  0  0  0  0  0  0  0  0  0  0  0
  146.5230  157.3020  133.1710 C   0  0  0  0  0  0  0  0  0  0  0  0
  147.7480  157.8240  132.7250 C   0  0  0  0  0  0  0  0  0  0  0  0
  147.9340  159.2230  132.5970 C   0  0  0  0  0  0  0  0  0  0  0  0
  149.2460  159.7740  132.1020 C   0  0  0  0  0  0  0  0  0  0  0  0
  149.0510  160.9590  131.1420 C   0  0  0  0  0  0  0  0  0  0  0  0
  149.3970  160.6210  129.6890 C   0  0  0  0  0  0  0  0  0  0  0  0
  150.6910  160.0930  129.6080 O   0  0  0  0  0  0  0  0  0  0  0  0
  146.8740  160.1030  132.9060 C   0  0  0  0  0  0  0  0  0  0  0  0
  145.6580  159.5540  133.3320 C   0  0  0  0  0  0  0  0  0  0  0  0
  144.5310  160.2010  133.6980 N   0  0  0  0  0  0  0  0  0  0  0  0
  144.3630  161.6240  133.7950 C   0  0  0  0  0  0  0  0  0  0  0  0
  143.3140  162.1690  133.3620 O   0  0  0  0  0  0  0  0  0  0  0  0
  145.6700  162.6620  134.4820 S   0  0  0  0  0  0  0  0  0  0  0  0
  141.7120  160.7860  132.8670 H   0  0  0  0  0  0  0  0  0  0  0  0
  140.4190  160.5050  134.0800 H   0  0  0  0  0  0  0  0  0  0  0  0
  143.7700  156.9961  134.1760 H   0  0  0  0  0  0  0  0  0  0  0  0
  146.3749  156.2175  133.2799 H   0  0  0  0  0  0  0  0  0  0  0  0
  148.5716  157.1400  132.4724 H   0  0  0  0  0  0  0  0  0  0  0  0
  149.8375  160.1112  132.9659 H   0  0  0  0  0  0  0  0  0  0  0  0
  149.7630  158.9741  131.5517 H   0  0  0  0  0  0  0  0  0  0  0  0
  147.9984  161.2754  131.1863 H   0  0  0  0  0  0  0  0  0  0  0  0
  149.7360  161.7571  131.4642 H   0  0  0  0  0  0  0  0  0  0  0  0
  148.6784  159.8806  129.3076 H   0  0  0  0  0  0  0  0  0  0  0  0
  149.3470  161.5398  129.0862 H   0  0  0  0  0  0  0  0  0  0  0  0
  151.1770  160.4320  130.4040 H   0  0  0  0  0  0  0  0  0  0  0  0
  147.0000  161.1919  132.8145 H   0  0  0  0  0  0  0  0  0  0  0  0
  1  2  1  0
  2  3  2  0
  2  4  1  0
  4  5  2  0
  5  6  1  0
  6  7  2  0
  7  8  1  0
  8  9  2  0
  9 10  1  0
 10 11  1  0
 11 12  1  0
 12 13  1  0
  9 14  1  0
 14 15  2  0
 15 16  1  0
 16 17  1  0
 17 18  2  0
 17 19  1  0
 16  4  1  0
 15  6  1  0
  1 20  1  0
  1 21  1  0
  5 22  1  0
  7 23  1  0
  8 24  1  0
 10 25  1  0
 10 26  1  0
 11 27  1  0
 11 28  1  0
 12 29  1  0
 12 30  1  0
 13 31  1  0
 14 32  1  0
M  CHG  1  19  -1
M  END
>  <UniqueID>  (31) 
31

>  <SMILES>  (31) 
NC(=O)c1cc2ccc(CCCO)cc2n1C(=O)[S-]

>  <Energy>  (31) 
68.20795611630172

>  <Genealogy>  (31) 
NC(=O)c1cc2ccc(CCCO)cc2n1C(=O)[S-] (protonated)
NC(=O)c1cc2ccc(CCCO)cc2n1C(=O)[S-] (3D coordinates assigned)
NC(=O)c1cc2ccc(CCCO)cc2n1C(=O)[S-] (optimized conformer: 68.20795611630172 kcal/mol)

>  <smiles>  (31) 
NC(=O)c1cc2ccc(CCCO)cc2n1C(=O)S

>  <score_type>  (31) 
oracle

>  <origin>  (31) 
adg

>  <m_score__min__energy>  (31) 
-6.2599999999999998

>  <m_primary>  (31) 
energy

$$$$
31:0
     RDKit          3D

 30 32  0  0  0  0  0  0  0  0999 V2000
  148.9280  158.3370  131.8670 N   0  0  0  0  0  0  0  0  0  0  0  0
  148.4200  158.7930  133.1180 C   0  0  0  0  0  0  0  0  0  0  0  0
  149.2230  159.0280  134.0600 O   0  0  0  0  0  0  0  0  0  0  0  0
  146.9780  159.0490  133.3050 C   0  0  0  0  0  0  0  0  0  0  0  0
  146.4460  160.3230  133.5000 C   0  0  0  0  0  0  0  0  0  0  0  0
  145.0820  160.1470  133.5340 C   0  0  0  0  0  0  0  0  0  0  0  0
  144.0650  161.0780  133.7200 C   0  0  0  0  0  0  0  0  0  0  0  0
  142.7400  160.6100  133.7430 C   0  0  0  0  0  0  0  0  0  0  0  0
  142.4580  159.2320  133.5820 C   0  0  0  0  0  0  0  0  0  0  0  0
  141.0580  158.7520  133.6360 C   0  0  0  0  0  0  0  0  0  0  0  0
  140.3620  158.5160  132.4400 C   0  0  0  0  0  0  0  0  0  0  0  0
  139.0380  158.0800  132.4720 C   0  0  0  0  0  0  0  0  0  0  0  0
  138.4150  157.8740  133.7010 C   0  0  0  0  0  0  0  0  0  0  0  0
  139.1000  158.0910  134.8540 N   0  0  0  0  0  0  0  0  0  0  0  0
  140.3910  158.5200  134.8590 C   0  0  0  0  0  0  0  0  0  0  0  0
  141.1990  158.7030  136.4110 Cl  0  0  0  0  0  0  0  0  0  0  0  0
  143.5190  158.3140  133.4100 C   0  0  0  0  0  0  0  0  0  0  0  0
  144.8270  158.8090  133.3700 C   0  0  0  0  0  0  0  0  0  0  0  0
  145.9820  158.1200  133.2320 N   0  0  0  0  0  0  0  0  0  0  0  0
  146.1170  156.6940  133.1290 C   0  0  0  0  0  0  0  0  0  0  0  0
  145.4310  155.9360  133.8630 O   0  0  0  0  0  0  0  0  0  0  0  0
  147.0280  156.1380  132.2400 O   0  0  0  0  0  0  0  0  0  0  0  0
  148.5810  157.4510  131.4370 H   0  0  0  0  0  0  0  0  0  0  0  0
  146.9993  161.2679  133.6045 H   0  0  0  0  0  0  0  0  0  0  0  0
  144.2910  162.1472  133.8452 H   0  0  0  0  0  0  0  0  0  0  0  0
  141.9137  161.3216  133.8875 H   0  0  0  0  0  0  0  0  0  0  0  0
  140.8631  158.6757  131.4739 H   0  0  0  0  0  0  0  0  0  0  0  0
  138.4902  157.9003  131.5352 H   0  0  0  0  0  0  0  0  0  0  0  0
  137.3689  157.5358  133.7378 H   0  0  0  0  0  0  0  0  0  0  0  0
  143.3211  157.2366  133.3100 H   0  0  0  0  0  0  0  0  0  0  0  0
  1  2  1  0
  2  3  2  0
  2  4  1  0
  4  5  2  0
  5  6  1  0
  6  7  2  0
  7  8  1  0
  8  9  2  0
  9 10  1  0
 10 11  2  0
 11 12  1  0
 12 13  2  0
 13 14  1  0
 14 15  2  0
 15 16  1  0
  9 17  1  0
 17 18  2  0
 18 19  1  0
 19 20  1  0
 20 21  2  0
 20 22  1  0
 19  4  1  0
 18  6  1  0
 15 10  1  0
  1 23  1  0
  5 24  1  0
  7 25  1  0
  8 26  1  0
 11 27  1  0
 12 28  1  0
 13 29  1  0
 17 30  1  0
M  CHG  2   1  -1  22  -1
M  END
>  <UniqueID>  (32) 
32

>  <SMILES>  (32) 
[NH-]C(=O)c1cc2ccc(-c3cccnc3Cl)cc2n1C(=O)[O-]

>  <Energy>  (32) 
81.01922122724037

>  <Genealogy>  (32) 
[NH-]C(=O)c1cc2ccc(-c3cccnc3Cl)cc2n1C(=O)[O-] (protonated)
[NH-]C(=O)c1cc2ccc(-c3cccnc3Cl)cc2n1C(=O)[O-] (3D coordinates assigned)
[NH-]C(=O)c1cc2ccc(-c3cccnc3Cl)cc2n1C(=O)[O-] (optimized conformer: 81.01922122724037 kcal/mol)

>  <smiles>  (32) 
NC(=O)c1cc2ccc(-c3cccnc3Cl)cc2n1C(=O)O

>  <score_type>  (32) 
oracle

>  <origin>  (32) 
adg

>  <m_score__min__energy>  (32) 
-7.4199999999999999

>  <m_primary>  (32) 
energy

$$$$
32:0
     RDKit          3D

 50 52  0  0  0  0  0  0  0  0999 V2000
  141.9340  159.6880  134.0010 C   0  0  0  0  0  0  0  0  0  0  0  0
  141.0440  158.5890  133.4350 C   0  0  0  0  0  0  0  0  0  0  0  0
  140.2860  157.9020  134.5330 C   0  0  0  0  0  0  0  0  0  0  0  0
  139.0620  158.1540  134.6970 O   0  0  0  0  0  0  0  0  0  0  0  0
  140.9480  156.9850  135.4170 N   0  0  0  0  0  0  0  0  0  0  0  0
  141.2920  157.1830  136.7200 C   0  0  0  0  0  0  0  0  0  0  0  0
  141.1420  158.4450  137.4770 C   0  0  0  0  0  0  0  0  0  0  0  0
  140.3810  159.5310  136.9550 N   0  0  0  0  0  0  0  0  0  0  0  0
  141.7170  158.5760  138.5900 O   0  0  0  0  0  0  0  0  0  0  0  0
  141.8620  156.0270  137.2530 C   0  0  0  0  0  0  0  0  0  0  0  0
  141.8520  155.1080  136.2280 C   0  0  0  0  0  0  0  0  0  0  0  0
  142.2890  153.7870  136.2030 C   0  0  0  0  0  0  0  0  0  0  0  0
  142.1290  153.0640  135.0080 C   0  0  0  0  0  0  0  0  0  0  0  0
  141.5240  153.6650  133.8760 C   0  0  0  0  0  0  0  0  0  0  0  0
  141.3830  152.8890  132.5940 C   0  0  0  0  0  0  0  0  0  0  0  0
  142.1810  151.5830  132.6640 C   0  0  0  0  0  0  0  0  0  0  0  0
  141.2740  150.4360  132.8850 N   0  0  0  0  0  0  0  0  0  0  0  0
  141.7730  149.2320  132.1830 C   0  0  0  0  0  0  0  0  0  0  0  0
  140.6800  148.1610  132.0720 C   0  0  0  0  0  0  0  0  0  0  0  0
  139.4920  148.6400  131.3220 N   0  0  0  0  0  0  0  0  0  0  0  0
  139.4400  148.0620  129.9700 C   0  0  0  0  0  0  0  0  0  0  0  0
  139.3870  150.1150  131.2540 C   0  0  0  0  0  0  0  0  0  0  0  0
  139.8590  150.7660  132.5610 C   0  0  0  0  0  0  0  0  0  0  0  0
  141.1020  155.0100  133.9360 C   0  0  0  0  0  0  0  0  0  0  0  0
  141.2930  155.7110  135.1310 C   0  0  0  0  0  0  0  0  0  0  0  0
  141.9057  159.6531  135.1001 H   0  0  0  0  0  0  0  0  0  0  0  0
  142.9675  159.5371  133.6558 H   0  0  0  0  0  0  0  0  0  0  0  0
  141.5715  160.6675  133.6558 H   0  0  0  0  0  0  0  0  0  0  0  0
  140.3296  159.0324  132.7257 H   0  0  0  0  0  0  0  0  0  0  0  0
  141.6777  157.8481  132.9256 H   0  0  0  0  0  0  0  0  0  0  0  0
  139.4820  159.3640  136.4510 H   0  0  0  0  0  0  0  0  0  0  0  0
  142.2396  155.8806  138.2758 H   0  0  0  0  0  0  0  0  0  0  0  0
  142.7451  153.3233  137.0901 H   0  0  0  0  0  0  0  0  0  0  0  0
  142.4767  152.0219  134.9510 H   0  0  0  0  0  0  0  0  0  0  0  0
  140.3210  152.6554  132.4277 H   0  0  0  0  0  0  0  0  0  0  0  0
  141.7726  153.4988  131.7655 H   0  0  0  0  0  0  0  0  0  0  0  0
  142.7239  151.4388  131.7182 H   0  0  0  0  0  0  0  0  0  0  0  0
  142.8910  151.6431  133.5020 H   0  0  0  0  0  0  0  0  0  0  0  0
  142.1008  149.5162  131.1721 H   0  0  0  0  0  0  0  0  0  0  0  0
  142.6116  148.8151  132.7600 H   0  0  0  0  0  0  0  0  0  0  0  0
  141.0956  147.2847  131.5530 H   0  0  0  0  0  0  0  0  0  0  0  0
  140.3533  147.9085  133.0916 H   0  0  0  0  0  0  0  0  0  0  0  0
  139.3416  146.9688  130.0421 H   0  0  0  0  0  0  0  0  0  0  0  0
  138.5752  148.4730  129.4285 H   0  0  0  0  0  0  0  0  0  0  0  0
  140.3643  148.3121  129.4285 H   0  0  0  0  0  0  0  0  0  0  0  0
  140.0106  150.4812  130.4252 H   0  0  0  0  0  0  0  0  0  0  0  0
  138.3321  150.3820  131.0931 H   0  0  0  0  0  0  0  0  0  0  0  0
  139.7646  151.8578  132.4652 H   0  0  0  0  0  0  0  0  0  0  0  0
  139.2304  150.3750  133.3746 H   0  0  0  0  0  0  0  0  0  0  0  0
  140.6351  155.4945  133.0658 H   0  0  0  0  0  0  0  0  0  0  0  0
  1  2  1  0
  2  3  1  0
  3  4  2  0
  3  5  1  0
  5  6  1  0
  6  7  1  0
  7  8  1  0
  7  9  2  0
  6 10  2  0
 10 11  1  0
 11 12  2  0
 12 13  1  0
 13 14  2  0
 14 15  1  0
 15 16  1  0
 16 17  1  0
 17 18  1  0
 18 19  1  0
 19 20  1  0
 20 21  1  0
 20 22  1  0
 22 23  1  0
 14 24  1  0
 24 25  2  0
 25  5  1  0
 25 11  1  0
 23 17  1  0
  1 26  1  0
  1 27  1  0
  1 28  1  0
  2 29  1  0
  2 30  1  0
  8 31  1  0
 10 32  1  0
 12 33  1  0
 13 34  1  0
 15 35  1  0
 15 36  1  0
 16 37  1  0
 16 38  1  0
 18 39  1  0
 18 40  1  0
 19 41  1  0
 19 42  1  0
 21 43  1  0
 21 44  1  0
 21 45  1  0
 22 46  1  0
 22 47  1  0
 23 48  1  0
 23 49  1  0
 24 50  1  0
M  CHG  1   8  -1
M  END
>  <UniqueID>  (33) 
33

>  <SMILES>  (33) 
CCC(=O)n1c(C([NH-])=O)cc2ccc(CCN3CCN(C)CC3)cc21

>  <Energy>  (33) 
96.82578280313766

>  <Genealogy>  (33) 
CCC(=O)n1c(C([NH-])=O)cc2ccc(CCN3CCN(C)CC3)cc21 (protonated)
CCC(=O)n1c(C([NH-])=O)cc2ccc(CCN3CCN(C)CC3)cc21 (3D coordinates assigned)
CCC(=O)n1c(C([NH-])=O)cc2ccc(CCN3CCN(C)CC3)cc21 (nonaromatic ring conformer: 96.82578280313766 kcal/mol)

>  <smiles>  (33) 
CCC(=O)n1c(C(N)=O)cc2ccc(CCN3CCN(C)CC3)cc21

>  <score_type>  (33) 
oracle

>  <origin>  (33) 
adg

>  <m_score__min__energy>  (33) 
-8.2699999999999996

>  <m_primary>  (33) 
energy

$$$$
33:0
     RDKit          3D

 28 29  0  0  0  0  0  0  0  0999 V2000
  144.2220  160.3260  133.7220 C   0  0  0  0  0  0  0  0  0  0  0  0
  145.2290  159.7570  132.8940 O   0  0  0  0  0  0  0  0  0  0  0  0
  146.5940  159.8890  133.1680 C   0  0  0  0  0  0  0  0  0  0  0  0
  147.0340  160.9370  133.7130 O   0  0  0  0  0  0  0  0  0  0  0  0
  147.4980  158.8340  132.8060 N   0  0  0  0  0  0  0  0  0  0  0  0
  148.6660  158.9410  132.1110 C   0  0  0  0  0  0  0  0  0  0  0  0
  149.1610  160.1540  131.4280 C   0  0  0  0  0  0  0  0  0  0  0  0
  148.2830  161.2340  131.1240 N   0  0  0  0  0  0  0  0  0  0  0  0
  150.3660  160.2170  131.0620 O   0  0  0  0  0  0  0  0  0  0  0  0
  149.3150  157.7100  132.0520 C   0  0  0  0  0  0  0  0  0  0  0  0
  148.4980  156.8340  132.7300 C   0  0  0  0  0  0  0  0  0  0  0  0
  148.6560  155.4740  132.9790 C   0  0  0  0  0  0  0  0  0  0  0  0
  147.6630  154.8230  133.7290 C   0  0  0  0  0  0  0  0  0  0  0  0
  146.5480  155.5400  134.2360 C   0  0  0  0  0  0  0  0  0  0  0  0
  145.4710  154.8220  135.0070 C   0  0  0  0  0  0  0  0  0  0  0  0
  144.4110  155.6720  135.2750 F   0  0  0  0  0  0  0  0  0  0  0  0
  145.9620  154.3510  136.2130 F   0  0  0  0  0  0  0  0  0  0  0  0
  145.0120  153.7530  134.2590 F   0  0  0  0  0  0  0  0  0  0  0  0
  146.4130  156.9170  133.9420 C   0  0  0  0  0  0  0  0  0  0  0  0
  147.4100  157.5370  133.1760 C   0  0  0  0  0  0  0  0  0  0  0  0
  144.4880  160.1757  134.7787 H   0  0  0  0  0  0  0  0  0  0  0  0
  144.1415  161.4031  133.5138 H   0  0  0  0  0  0  0  0  0  0  0  0
  143.2578  159.8392  133.5138 H   0  0  0  0  0  0  0  0  0  0  0  0
  147.8200  161.7810  131.8830 H   0  0  0  0  0  0  0  0  0  0  0  0
  150.2763  157.4856  131.5667 H   0  0  0  0  0  0  0  0  0  0  0  0
  149.5313  154.9260  132.6002 H   0  0  0  0  0  0  0  0  0  0  0  0
  147.7505  153.7443  133.9259 H   0  0  0  0  0  0  0  0  0  0  0  0
  145.5460  157.4879  134.3059 H   0  0  0  0  0  0  0  0  0  0  0  0
  1  2  1  0
  2  3  1  0
  3  4  2  0
  3  5  1  0
  5  6  1  0
  6  7  1  0
  7  8  1  0
  7  9  2  0
  6 10  2  0
 10 11  1  0
 11 12  2  0
 12 13  1  0
 13 14  2  0
 14 15  1  0
 15 16  1  0
 15 17  1  0
 15 18  1  0
 14 19  1  0
 19 20  2  0
 20  5  1  0
 20 11  1  0
  1 21  1  0
  1 22  1  0
  1 23  1  0
  8 24  1  0
 10 25  1  0
 12 26  1  0
 13 27  1  0
 19 28  1  0
M  CHG  1   8  -1
M  END
>  <UniqueID>  (34) 
34

>  <SMILES>  (34) 
COC(=O)n1c(C([NH-])=O)cc2ccc(C(F)(F)F)cc21

>  <Energy>  (34) 
66.3283842561663

>  <Genealogy>  (34) 
COC(=O)n1c(C([NH-])=O)cc2ccc(C(F)(F)F)cc21 (protonated)
COC(=O)n1c(C([NH-])=O)cc2ccc(C(F)(F)F)cc21 (3D coordinates assigned)
COC(=O)n1c(C([NH-])=O)cc2ccc(C(F)(F)F)cc21 (optimized conformer: 66.3283842561663 kcal/mol)

>  <smiles>  (34) 
COC(=O)n1c(C(N)=O)cc2ccc(C(F)(F)F)cc21

>  <score_type>  (34) 
oracle

>  <origin>  (34) 
adg

>  <m_score__min__energy>  (34) 
-5.1500000000000004

>  <m_primary>  (34) 
energy

$$$$
34:0
     RDKit          3D

 37 39  0  0  0  0  0  0  0  0999 V2000
  140.8390  159.3500  136.4320 C   0  0  0  0  0  0  0  0  0  0  0  0
  141.5500  159.5640  135.1390 C   0  0  0  0  0  0  0  0  0  0  0  0
  140.9140  160.0140  134.1490 O   0  0  0  0  0  0  0  0  0  0  0  0
  142.9240  159.3040  135.0660 O   0  0  0  0  0  0  0  0  0  0  0  0
  143.6150  158.9390  133.9010 C   0  0  0  0  0  0  0  0  0  0  0  0
  143.0510  158.2540  133.0040 O   0  0  0  0  0  0  0  0  0  0  0  0
  144.9890  159.3240  133.7470 N   0  0  0  0  0  0  0  0  0  0  0  0
  145.5080  160.5840  133.7010 C   0  0  0  0  0  0  0  0  0  0  0  0
  144.7710  161.8390  133.9580 C   0  0  0  0  0  0  0  0  0  0  0  0
  143.3660  161.9250  133.7300 N   0  0  0  0  0  0  0  0  0  0  0  0
  145.3800  162.8350  134.4310 O   0  0  0  0  0  0  0  0  0  0  0  0
  146.8780  160.5400  133.4560 C   0  0  0  0  0  0  0  0  0  0  0  0
  147.1900  159.2020  133.3640 C   0  0  0  0  0  0  0  0  0  0  0  0
  148.4110  158.5830  133.1220 C   0  0  0  0  0  0  0  0  0  0  0  0
  148.4360  157.1800  133.0530 C   0  0  0  0  0  0  0  0  0  0  0  0
  147.2470  156.4210  133.2160 C   0  0  0  0  0  0  0  0  0  0  0  0
  147.2810  154.9400  133.1310 C   0  0  0  0  0  0  0  0  0  0  0  0
  146.0910  154.1970  133.0570 C   0  0  0  0  0  0  0  0  0  0  0  0
  146.1460  152.8040  132.9800 C   0  0  0  0  0  0  0  0  0  0  0  0
  147.3470  152.1650  132.9740 N   0  0  0  0  0  0  0  0  0  0  0  0
  148.5170  152.8570  133.0450 C   0  0  0  0  0  0  0  0  0  0  0  0
  148.5060  154.2510  133.1240 C   0  0  0  0  0  0  0  0  0  0  0  0
  146.0250  157.0930  133.4580 C   0  0  0  0  0  0  0  0  0  0  0  0
  146.0330  158.4900  133.5430 C   0  0  0  0  0  0  0  0  0  0  0  0
  141.5254  159.5566  137.2664 H   0  0  0  0  0  0  0  0  0  0  0  0
  139.9747  160.0278  136.4918 H   0  0  0  0  0  0  0  0  0  0  0  0
  140.4924  158.3077  136.4918 H   0  0  0  0  0  0  0  0  0  0  0  0
  142.7530  161.0860  133.8370 H   0  0  0  0  0  0  0  0  0  0  0  0
  147.5653  161.3931  133.3569 H   0  0  0  0  0  0  0  0  0  0  0  0
  149.3294  159.1736  132.9886 H   0  0  0  0  0  0  0  0  0  0  0  0
  149.3893  156.6626  132.8703 H   0  0  0  0  0  0  0  0  0  0  0  0
  145.1186  154.7113  133.0597 H   0  0  0  0  0  0  0  0  0  0  0  0
  145.2148  152.2211  132.9240 H   0  0  0  0  0  0  0  0  0  0  0  0
  147.3720  151.1230  132.9160 H   0  0  0  0  0  0  0  0  0  0  0  0
  149.4748  152.3160  133.0401 H   0  0  0  0  0  0  0  0  0  0  0  0
  149.4528  154.8081  133.1805 H   0  0  0  0  0  0  0  0  0  0  0  0
  145.0882  156.5288  133.5768 H   0  0  0  0  0  0  0  0  0  0  0  0
  1  2  1  0
  2  3  2  0
  2  4  1  0
  4  5  1  0
  5  6  2  0
  5  7  1  0
  7  8  1  0
  8  9  1  0
  9 10  1  0
  9 11  2  0
  8 12  2  0
 12 13  1  0
 13 14  2  0
 14 15  1  0
 15 16  2  0
 16 17  1  0
 17 18  2  0
 18 19  1  0
 19 20  2  0
 20 21  1  0
 21 22  2  0
 16 23  1  0
 23 24  2  0
 24  7  1  0
 24 13  1  0
 22 17  1  0
  1 25  1  0
  1 26  1  0
  1 27  1  0
 10 28  1  0
 12 29  1  0
 14 30  1  0
 15 31  1  0
 18 32  1  0
 19 33  1  0
 20 34  1  0
 21 35  1  0
 22 36  1  0
 23 37  1  0
M  CHG  2  10  -1  20   1
M  END
>  <UniqueID>  (35) 
35

>  <SMILES>  (35) 
CC(=O)OC(=O)n1c(C([NH-])=O)cc2ccc(-c3cc[nH+]cc3)cc21

>  <Energy>  (35) 
83.2699215251515

>  <Genealogy>  (35) 
CC(=O)OC(=O)n1c(C([NH-])=O)cc2ccc(-c3cc[nH+]cc3)cc21 (protonated)
CC(=O)OC(=O)n1c(C([NH-])=O)cc2ccc(-c3cc[nH+]cc3)cc21 (3D coordinates assigned)
CC(=O)OC(=O)n1c(C([NH-])=O)cc2ccc(-c3cc[nH+]cc3)cc21 (optimized conformer: 83.2699215251515 kcal/mol)

>  <smiles>  (35) 
CC(=O)OC(=O)n1c(C(N)=O)cc2ccc(-c3ccncc3)cc21

>  <score_type>  (35) 
oracle

>  <origin>  (35) 
adg

>  <m_score__min__energy>  (35) 
-6.6600000000000001

>  <m_primary>  (35) 
energy

$$$$
35:0
     RDKit          3D

 32 34  0  0  0  0  0  0  0  0999 V2000
  140.6280  158.7780  136.4610 C   0  0  0  0  0  0  0  0  0  0  0  0
  140.3130  158.2580  135.0960 C   0  0  0  0  0  0  0  0  0  0  0  0
  139.1800  157.6750  134.7850 O   0  0  0  0  0  0  0  0  0  0  0  0
  139.1500  157.3370  133.5280 N   0  0  0  0  0  0  0  0  0  0  0  0
  140.3230  157.7150  132.9850 C   0  0  0  0  0  0  0  0  0  0  0  0
  141.1090  158.2990  133.9610 C   0  0  0  0  0  0  0  0  0  0  0  0
  142.4690  158.8560  133.7830 C   0  0  0  0  0  0  0  0  0  0  0  0
  142.7030  160.2510  133.8880 C   0  0  0  0  0  0  0  0  0  0  0  0
  143.9980  160.7750  133.7410 C   0  0  0  0  0  0  0  0  0  0  0  0
  145.0380  159.8860  133.4920 C   0  0  0  0  0  0  0  0  0  0  0  0
  146.3860  160.1190  133.3440 C   0  0  0  0  0  0  0  0  0  0  0  0
  146.9570  158.8630  133.1390 C   0  0  0  0  0  0  0  0  0  0  0  0
  148.3960  158.6560  132.8710 C   0  0  0  0  0  0  0  0  0  0  0  0
  148.8350  157.6970  131.9130 N   0  0  0  0  0  0  0  0  0  0  0  0
  149.2510  159.3620  133.4710 O   0  0  0  0  0  0  0  0  0  0  0  0
  145.9990  157.8950  133.1620 N   0  0  0  0  0  0  0  0  0  0  0  0
  146.1830  156.4740  133.0680 C   0  0  0  0  0  0  0  0  0  0  0  0
  146.8020  155.9010  131.9170 N   0  0  0  0  0  0  0  0  0  0  0  0
  145.7910  155.7250  134.0010 O   0  0  0  0  0  0  0  0  0  0  0  0
  144.8310  158.5370  133.3820 C   0  0  0  0  0  0  0  0  0  0  0  0
  143.5560  157.9840  133.5440 C   0  0  0  0  0  0  0  0  0  0  0  0
  140.2144  158.0953  137.2179 H   0  0  0  0  0  0  0  0  0  0  0  0
  141.7189  158.8454  136.5850 H   0  0  0  0  0  0  0  0  0  0  0  0
  140.1825  159.7761  136.5850 H   0  0  0  0  0  0  0  0  0  0  0  0
  140.6102  157.5804  131.9317 H   0  0  0  0  0  0  0  0  0  0  0  0
  141.8609  160.9302  134.0868 H   0  0  0  0  0  0  0  0  0  0  0  0
  144.1839  161.8563  133.8205 H   0  0  0  0  0  0  0  0  0  0  0  0
  146.9032  161.0892  133.3797 H   0  0  0  0  0  0  0  0  0  0  0  0
  148.2740  157.4980  131.0550 H   0  0  0  0  0  0  0  0  0  0  0  0
  146.9080  154.8660  131.8350 H   0  0  0  0  0  0  0  0  0  0  0  0
  147.1890  156.5120  131.1640 H   0  0  0  0  0  0  0  0  0  0  0  0
  143.4029  156.8962  133.4868 H   0  0  0  0  0  0  0  0  0  0  0  0
  1  2  1  0
  2  3  1  0
  3  4  1  0
  4  5  2  0
  5  6  1  0
  6  7  1  0
  7  8  2  0
  8  9  1  0
  9 10  2  0
 10 11  1  0
 11 12  2  0
 12 13  1  0
 13 14  1  0
 13 15  2  0
 12 16  1  0
 16 17  1  0
 17 18  1  0
 17 19  2  0
 16 20  1  0
 20 21  2  0
  6  2  2  0
 21  7  1  0
 20 10  1  0
  1 22  1  0
  1 23  1  0
  1 24  1  0
  5 25  1  0
  8 26  1  0
  9 27  1  0
 11 28  1  0
 14 29  1  0
 18 30  1  0
 18 31  1  0
 21 32  1  0
M  CHG  1  14  -1
M  END
>  <UniqueID>  (36) 
36

>  <SMILES>  (36) 
Cc1oncc1-c1ccc2cc(C([NH-])=O)n(C(N)=O)c2c1

>  <Energy>  (36) 
106.82740073826886

>  <Genealogy>  (36) 
Cc1oncc1-c1ccc2cc(C([NH-])=O)n(C(N)=O)c2c1 (protonated)
Cc1oncc1-c1ccc2cc(C([NH-])=O)n(C(N)=O)c2c1 (3D coordinates assigned)
Cc1oncc1-c1ccc2cc(C([NH-])=O)n(C(N)=O)c2c1 (optimized conformer: 106.82740073826886 kcal/mol)

>  <smiles>  (36) 
Cc1oncc1-c1ccc2cc(C(N)=O)n(C(N)=O)c2c1

>  <score_type>  (36) 
oracle

>  <origin>  (36) 
adg

>  <m_score__min__energy>  (36) 
-7.3099999999999996

>  <m_primary>  (36) 
energy

$$$$
36:0
     RDKit          3D

 28 29  0  0  0  0  0  0  0  0999 V2000
  140.9700  154.9170  133.3550 C   0  0  0  0  0  0  0  0  0  0  0  0
  139.8960  155.9590  133.3790 C   0  0  0  0  0  0  0  0  0  0  0  0
  138.7390  155.6570  132.9820 O   0  0  0  0  0  0  0  0  0  0  0  0
  140.1730  157.3000  133.8210 N   0  0  0  0  0  0  0  0  0  0  0  0
  139.9890  158.4630  133.1370 C   0  0  0  0  0  0  0  0  0  0  0  0
  139.6280  158.5820  131.7110 C   0  0  0  0  0  0  0  0  0  0  0  0
  138.5090  157.8750  131.1710 N   0  0  0  0  0  0  0  0  0  0  0  0
  140.3470  159.2740  130.9440 O   0  0  0  0  0  0  0  0  0  0  0  0
  140.2480  159.5600  133.9550 C   0  0  0  0  0  0  0  0  0  0  0  0
  140.6170  159.0280  135.1690 C   0  0  0  0  0  0  0  0  0  0  0  0
  140.9640  159.6630  136.3580 C   0  0  0  0  0  0  0  0  0  0  0  0
  141.2620  158.8600  137.4710 C   0  0  0  0  0  0  0  0  0  0  0  0
  141.2200  157.4450  137.3780 C   0  0  0  0  0  0  0  0  0  0  0  0
  141.4830  156.5970  138.5960 C   0  0  0  0  0  0  0  0  0  0  0  0
  142.4610  155.6530  138.3320 F   0  0  0  0  0  0  0  0  0  0  0  0
  140.3340  155.9310  138.9870 F   0  0  0  0  0  0  0  0  0  0  0  0
  141.9090  157.4080  139.6330 F   0  0  0  0  0  0  0  0  0  0  0  0
  140.8390  156.8380  136.1590 C   0  0  0  0  0  0  0  0  0  0  0  0
  140.5640  157.6630  135.0620 C   0  0  0  0  0  0  0  0  0  0  0  0
  141.2451  154.6501  134.3861 H   0  0  0  0  0  0  0  0  0  0  0  0
  140.6018  154.0229  132.8306 H   0  0  0  0  0  0  0  0  0  0  0  0
  141.8526  155.3121  132.8306 H   0  0  0  0  0  0  0  0  0  0  0  0
  138.2410  158.0040  130.1700 H   0  0  0  0  0  0  0  0  0  0  0  0
  137.9960  157.1640  131.7380 H   0  0  0  0  0  0  0  0  0  0  0  0
  140.1735  160.6244  133.6876 H   0  0  0  0  0  0  0  0  0  0  0  0
  141.0036  160.7603  136.4239 H   0  0  0  0  0  0  0  0  0  0  0  0
  141.5312  159.3340  138.4264 H   0  0  0  0  0  0  0  0  0  0  0  0
  140.7606  155.7440  136.0748 H   0  0  0  0  0  0  0  0  0  0  0  0
  1  2  1  0
  2  3  2  0
  2  4  1  0
  4  5  1  0
  5  6  1  0
  6  7  1  0
  6  8  2  0
  5  9  2  0
  9 10  1  0
 10 11  2  0
 11 12  1  0
 12 13  2  0
 13 14  1  0
 14 15  1  0
 14 16  1  0
 14 17  1  0
 13 18  1  0
 18 19  2  0
 19  4  1  0
 19 10  1  0
  1 20  1  0
  1 21  1  0
  1 22  1  0
  7 23  1  0
  7 24  1  0
  9 25  1  0
 11 26  1  0
 12 27  1  0
 18 28  1  0
M  END
>  <UniqueID>  (37) 
37

>  <SMILES>  (37) 
CC(=O)n1c(C(N)=O)cc2ccc(C(F)(F)F)cc21

>  <Energy>  (37) 
68.27677075825846

>  <Genealogy>  (37) 
CC(=O)n1c(C(N)=O)cc2ccc(C(F)(F)F)cc21 (3D coordinates assigned)
CC(=O)n1c(C(N)=O)cc2ccc(C(F)(F)F)cc21 (optimized conformer: 68.27677075825846 kcal/mol)

>  <smiles>  (37) 
CC(=O)n1c(C(N)=O)cc2ccc(C(F)(F)F)cc21

>  <score_type>  (37) 
oracle

>  <origin>  (37) 
adg

>  <m_score__min__energy>  (37) 
-5.71

>  <m_primary>  (37) 
energy

$$$$
37:0
     RDKit          3D

 50 51  0  0  0  0  0  0  0  0999 V2000
  149.6210  161.1370  129.0150 C   0  0  0  0  0  0  0  0  0  0  0  0
  149.8000  159.8290  129.7750 C   0  0  0  0  0  0  0  0  0  0  0  0
  148.7630  159.7640  131.2310 S   0  0  0  0  0  0  0  0  0  0  0  0
  147.3500  160.0990  130.8420 O   0  0  0  0  0  0  0  0  0  0  0  0
  149.2490  160.7870  132.2200 O   0  0  0  0  0  0  0  0  0  0  0  0
  148.7970  158.1560  132.0070 C   0  0  0  0  0  0  0  0  0  0  0  0
  147.9950  158.1540  133.2770 C   0  0  0  0  0  0  0  0  0  0  0  0
  148.4390  158.7630  134.2870 O   0  0  0  0  0  0  0  0  0  0  0  0
  146.7050  157.5230  133.3380 N   0  0  0  0  0  0  0  0  0  0  0  0
  145.4900  158.1310  133.4520 C   0  0  0  0  0  0  0  0  0  0  0  0
  145.2620  159.5980  133.4940 C   0  0  0  0  0  0  0  0  0  0  0  0
  146.3380  160.5160  133.2890 N   0  0  0  0  0  0  0  0  0  0  0  0
  144.1120  160.0530  133.7240 O   0  0  0  0  0  0  0  0  0  0  0  0
  144.4730  157.1770  133.4890 C   0  0  0  0  0  0  0  0  0  0  0  0
  145.1100  155.9600  133.4160 C   0  0  0  0  0  0  0  0  0  0  0  0
  144.5830  154.6740  133.4440 C   0  0  0  0  0  0  0  0  0  0  0  0
  145.4810  153.5940  133.4110 C   0  0  0  0  0  0  0  0  0  0  0  0
  146.8810  153.8120  133.3700 C   0  0  0  0  0  0  0  0  0  0  0  0
  147.7620  152.6710  133.3640 N   0  0  0  0  0  0  0  0  0  0  0  0
  149.2100  152.7350  133.5680 C   0  0  0  0  0  0  0  0  0  0  0  0
  149.9160  151.5120  132.9740 C   0  0  0  0  0  0  0  0  0  0  0  0
  149.0250  150.8280  132.0070 N   0  0  0  0  0  0  0  0  0  0  0  0
  149.7470  150.4880  130.7710 C   0  0  0  0  0  0  0  0  0  0  0  0
  148.4410  149.6080  132.5890 C   0  0  0  0  0  0  0  0  0  0  0  0
  147.3750  155.1390  133.3410 C   0  0  0  0  0  0  0  0  0  0  0  0
  146.4560  156.1950  133.3400 C   0  0  0  0  0  0  0  0  0  0  0  0
  149.5078  161.9645  129.7309 H   0  0  0  0  0  0  0  0  0  0  0  0
  150.5028  161.3173  128.3827 H   0  0  0  0  0  0  0  0  0  0  0  0
  148.7231  161.0737  128.3827 H   0  0  0  0  0  0  0  0  0  0  0  0
  149.5363  158.9921  129.1116 H   0  0  0  0  0  0  0  0  0  0  0  0
  150.8494  159.7601  130.0975 H   0  0  0  0  0  0  0  0  0  0  0  0
  148.3751  157.4132  131.3140 H   0  0  0  0  0  0  0  0  0  0  0  0
  149.8402  157.9067  132.2510 H   0  0  0  0  0  0  0  0  0  0  0  0
  147.2940  160.1920  133.0220 H   0  0  0  0  0  0  0  0  0  0  0  0
  146.1670  161.5430  133.3590 H   0  0  0  0  0  0  0  0  0  0  0  0
  143.3906  157.3593  133.5613 H   0  0  0  0  0  0  0  0  0  0  0  0
  143.4967  154.5071  133.4905 H   0  0  0  0  0  0  0  0  0  0  0  0
  145.0923  152.5650  133.4171 H   0  0  0  0  0  0  0  0  0  0  0  0
  147.3490  151.7260  133.1880 H   0  0  0  0  0  0  0  0  0  0  0  0
  149.5993  153.6426  133.0835 H   0  0  0  0  0  0  0  0  0  0  0  0
  149.4052  152.7540  134.6504 H   0  0  0  0  0  0  0  0  0  0  0  0
  150.8321  151.8358  132.4583 H   0  0  0  0  0  0  0  0  0  0  0  0
  150.1695  150.8138  133.7854 H   0  0  0  0  0  0  0  0  0  0  0  0
  150.7152  150.0321  131.0255 H   0  0  0  0  0  0  0  0  0  0  0  0
  149.1502  149.7763  130.1817 H   0  0  0  0  0  0  0  0  0  0  0  0
  149.9155  151.4014  130.1817 H   0  0  0  0  0  0  0  0  0  0  0  0
  148.4726  149.6739  133.6866 H   0  0  0  0  0  0  0  0  0  0  0  0
  147.3970  149.5071  132.2576 H   0  0  0  0  0  0  0  0  0  0  0  0
  149.0172  148.7315  132.2576 H   0  0  0  0  0  0  0  0  0  0  0  0
  148.4571  155.3356  133.3197 H   0  0  0  0  0  0  0  0  0  0  0  0
  1  2  1  0
  2  3  1  0
  3  4  2  0
  3  5  2  0
  3  6  1  0
  6  7  1  0
  7  8  2  0
  7  9  1  0
  9 10  1  0
 10 11  1  0
 11 12  1  0
 11 13  2  0
 10 14  2  0
 14 15  1  0
 15 16  2  0
 16 17  1  0
 17 18  2  0
 18 19  1  0
 19 20  1  0
 20 21  1  0
 21 22  1  0
 22 23  1  0
 22 24  1  0
 18 25  1  0
 25 26  2  0
 26  9  1  0
 26 15  1  0
  1 27  1  0
  1 28  1  0
  1 29  1  0
  2 30  1  0
  2 31  1  0
  6 32  1  0
  6 33  1  0
 12 34  1  0
 12 35  1  0
 14 36  1  0
 16 37  1  0
 17 38  1  0
 19 39  1  0
 20 40  1  0
 20 41  1  0
 21 42  1  0
 21 43  1  0
 23 44  1  0
 23 45  1  0
 23 46  1  0
 24 47  1  0
 24 48  1  0
 24 49  1  0
 25 50  1  0
M  END
>  <UniqueID>  (38) 
38

>  <SMILES>  (38) 
CCS(=O)(=O)CC(=O)n1c(C(N)=O)cc2ccc(NCCN(C)C)cc21

>  <Energy>  (38) 
75.72958022831371

>  <Genealogy>  (38) 
CCS(=O)(=O)CC(=O)n1c(C(N)=O)cc2ccc(NCCN(C)C)cc21 (3D coordinates assigned)
CCS(=O)(=O)CC(=O)n1c(C(N)=O)cc2ccc(NCCN(C)C)cc21 (optimized conformer: 75.72958022831371 kcal/mol)

>  <smiles>  (38) 
CCS(=O)(=O)CC(=O)n1c(C(N)=O)cc2ccc(NCCN(C)C)cc21

>  <score_type>  (38) 
oracle

>  <origin>  (38) 
adg

>  <m_score__min__energy>  (38) 
-7.7800000000000002

>  <m_primary>  (38) 
energy

$$$$
38:0
     RDKit          3D

 43 44  0  0  0  0  0  0  0  0999 V2000
  146.7170  154.8560  135.1710 C   0  0  0  0  0  0  0  0  0  0  0  0
  145.8400  155.2100  134.1100 O   0  0  0  0  0  0  0  0  0  0  0  0
  146.1750  156.1510  133.1330 C   0  0  0  0  0  0  0  0  0  0  0  0
  146.7410  155.7840  132.0660 O   0  0  0  0  0  0  0  0  0  0  0  0
  145.8760  157.5400  133.3450 N   0  0  0  0  0  0  0  0  0  0  0  0
  146.7580  158.5730  133.4600 C   0  0  0  0  0  0  0  0  0  0  0  0
  148.2280  158.4520  133.5260 C   0  0  0  0  0  0  0  0  0  0  0  0
  148.9520  157.6810  132.5650 N   0  0  0  0  0  0  0  0  0  0  0  0
  148.8500  158.9900  134.4790 O   0  0  0  0  0  0  0  0  0  0  0  0
  146.0840  159.7860  133.5680 C   0  0  0  0  0  0  0  0  0  0  0  0
  144.7470  159.4630  133.5310 C   0  0  0  0  0  0  0  0  0  0  0  0
  143.6270  160.2840  133.6080 C   0  0  0  0  0  0  0  0  0  0  0  0
  142.3610  159.6800  133.5290 C   0  0  0  0  0  0  0  0  0  0  0  0
  142.2380  158.2780  133.3600 C   0  0  0  0  0  0  0  0  0  0  0  0
  140.8740  157.6400  133.3140 C   0  0  0  0  0  0  0  0  0  0  0  0
  139.7430  158.6840  133.3040 C   0  0  0  0  0  0  0  0  0  0  0  0
  138.6840  158.4300  132.2140 C   0  0  0  0  0  0  0  0  0  0  0  0
  138.6180  159.5430  131.2430 N   0  0  0  0  0  0  0  0  0  0  0  0
  139.1410  160.7800  131.8420 C   0  0  0  0  0  0  0  0  0  0  0  0
  137.2390  159.7670  130.7740 C   0  0  0  0  0  0  0  0  0  0  0  0
  143.4000  157.4790  133.2730 C   0  0  0  0  0  0  0  0  0  0  0  0
  144.6480  158.1020  133.3890 C   0  0  0  0  0  0  0  0  0  0  0  0
  146.2253  155.0545  136.1348 H   0  0  0  0  0  0  0  0  0  0  0  0
  146.9660  153.7869  135.0997 H   0  0  0  0  0  0  0  0  0  0  0  0
  147.6384  155.4526  135.0997 H   0  0  0  0  0  0  0  0  0  0  0  0
  148.4540  157.0820  131.8690 H   0  0  0  0  0  0  0  0  0  0  0  0
  149.9930  157.6400  132.6040 H   0  0  0  0  0  0  0  0  0  0  0  0
  146.5259  160.7889  133.6627 H   0  0  0  0  0  0  0  0  0  0  0  0
  143.7293  161.3727  133.7271 H   0  0  0  0  0  0  0  0  0  0  0  0
  141.4560  160.3014  133.5990 H   0  0  0  0  0  0  0  0  0  0  0  0
  140.7996  157.0286  132.4026 H   0  0  0  0  0  0  0  0  0  0  0  0
  140.7581  157.0258  134.2191 H   0  0  0  0  0  0  0  0  0  0  0  0
  139.2448  158.6674  134.2846 H   0  0  0  0  0  0  0  0  0  0  0  0
  140.2037  159.6591  133.0876 H   0  0  0  0  0  0  0  0  0  0  0  0
  138.9399  157.5043  131.6777 H   0  0  0  0  0  0  0  0  0  0  0  0
  137.7027  158.3447  132.7037 H   0  0  0  0  0  0  0  0  0  0  0  0
  139.1069  160.6993  132.9385 H   0  0  0  0  0  0  0  0  0  0  0  0
  140.1809  160.9332  131.5178 H   0  0  0  0  0  0  0  0  0  0  0  0
  138.5264  161.6327  131.5178 H   0  0  0  0  0  0  0  0  0  0  0  0
  136.5701  159.8756  131.6405 H   0  0  0  0  0  0  0  0  0  0  0  0
  137.2028  160.6828  130.1657 H   0  0  0  0  0  0  0  0  0  0  0  0
  136.9148  158.9097  130.1657 H   0  0  0  0  0  0  0  0  0  0  0  0
  143.3256  156.3926  133.1177 H   0  0  0  0  0  0  0  0  0  0  0  0
  1  2  1  0
  2  3  1  0
  3  4  2  0
  3  5  1  0
  5  6  1  0
  6  7  1  0
  7  8  1  0
  7  9  2  0
  6 10  2  0
 10 11  1  0
 11 12  2  0
 12 13  1  0
 13 14  2  0
 14 15  1  0
 15 16  1  0
 16 17  1  0
 17 18  1  0
 18 19  1  0
 18 20  1  0
 14 21  1  0
 21 22  2  0
 22  5  1  0
 22 11  1  0
  1 23  1  0
  1 24  1  0
  1 25  1  0
  8 26  1  0
  8 27  1  0
 10 28  1  0
 12 29  1  0
 13 30  1  0
 15 31  1  0
 15 32  1  0
 16 33  1  0
 16 34  1  0
 17 35  1  0
 17 36  1  0
 19 37  1  0
 19 38  1  0
 19 39  1  0
 20 40  1  0
 20 41  1  0
 20 42  1  0
 21 43  1  0
M  END
>  <UniqueID>  (39) 
39

>  <SMILES>  (39) 
COC(=O)n1c(C(N)=O)cc2ccc(CCCN(C)C)cc21

>  <Energy>  (39) 
75.12247974592675

>  <Genealogy>  (39) 
COC(=O)n1c(C(N)=O)cc2ccc(CCCN(C)C)cc21 (3D coordinates assigned)
COC(=O)n1c(C(N)=O)cc2ccc(CCCN(C)C)cc21 (optimized conformer: 75.12247974592675 kcal/mol)

>  <smiles>  (39) 
COC(=O)n1c(C(N)=O)cc2ccc(CCCN(C)C)cc21

>  <score_type>  (39) 
oracle

>  <origin>  (39) 
adg

>  <m_score__min__energy>  (39) 
-7

>  <m_primary>  (39) 
energy

$$$$
39:0
     RDKit          3D

 43 45  0  0  0  0  0  0  0  0999 V2000
  148.4570  158.4350  134.0930 C   0  0  0  0  0  0  0  0  0  0  0  0
  147.0410  158.5270  134.0130 O   0  0  0  0  0  0  0  0  0  0  0  0
  146.3850  159.6140  133.4280 C   0  0  0  0  0  0  0  0  0  0  0  0
  147.0380  160.4750  132.7760 O   0  0  0  0  0  0  0  0  0  0  0  0
  144.9670  159.7670  133.6000 N   0  0  0  0  0  0  0  0  0  0  0  0
  144.2810  160.8880  133.9630 C   0  0  0  0  0  0  0  0  0  0  0  0
  144.8450  162.2460  134.1070 C   0  0  0  0  0  0  0  0  0  0  0  0
  146.1290  162.4490  134.6910 N   0  0  0  0  0  0  0  0  0  0  0  0
  144.2050  163.2380  133.6640 O   0  0  0  0  0  0  0  0  0  0  0  0
  142.9240  160.6050  134.1050 C   0  0  0  0  0  0  0  0  0  0  0  0
  142.7970  159.2670  133.8050 C   0  0  0  0  0  0  0  0  0  0  0  0
  141.6670  158.4540  133.7940 C   0  0  0  0  0  0  0  0  0  0  0  0
  141.8340  157.0970  133.4700 C   0  0  0  0  0  0  0  0  0  0  0  0
  143.1200  156.5740  133.1720 C   0  0  0  0  0  0  0  0  0  0  0  0
  143.2880  155.1020  132.8430 C   0  0  2  0  0  0  0  0  0  0  0  0
  143.3520  154.2690  134.1320 C   0  0  0  0  0  0  0  0  0  0  0  0
  143.6040  152.8000  133.8160 C   0  0  0  0  0  0  0  0  0  0  0  0
  144.7370  152.6260  132.8420 C   0  0  0  0  0  0  0  0  0  0  0  0
  145.1140  151.4920  132.5830 O   0  0  0  0  0  0  0  0  0  0  0  0
  145.4070  153.7590  132.2340 N   0  0  2  0  0  0  0  0  0  0  0  0
  146.5270  154.2140  133.0770 C   0  0  0  0  0  0  0  0  0  0  0  0
  144.4820  154.8630  131.8660 C   0  0  0  0  0  0  0  0  0  0  0  0
  144.2430  157.4350  133.2030 C   0  0  0  0  0  0  0  0  0  0  0  0
  144.0440  158.7860  133.5060 C   0  0  0  0  0  0  0  0  0  0  0  0
  148.7641  158.4150  135.1491 H   0  0  0  0  0  0  0  0  0  0  0  0
  148.7932  157.5131  133.5959 H   0  0  0  0  0  0  0  0  0  0  0  0
  148.9097  159.3056  133.5959 H   0  0  0  0  0  0  0  0  0  0  0  0
  146.9880  162.0530  134.2510 H   0  0  0  0  0  0  0  0  0  0  0  0
  142.1242  161.3022  134.3951 H   0  0  0  0  0  0  0  0  0  0  0  0
  140.6734  158.8616  134.0318 H   0  0  0  0  0  0  0  0  0  0  0  0
  140.9581  156.4320  133.4469 H   0  0  0  0  0  0  0  0  0  0  0  0
  142.4010  154.7520  132.2947 H   0  0  0  0  0  0  0  0  0  0  0  0
  144.1684  154.6467  134.7651 H   0  0  0  0  0  0  0  0  0  0  0  0
  142.3888  154.3563  134.6560 H   0  0  0  0  0  0  0  0  0  0  0  0
  143.8518  152.2723  134.7488 H   0  0  0  0  0  0  0  0  0  0  0  0
  142.6928  152.3868  133.3589 H   0  0  0  0  0  0  0  0  0  0  0  0
  145.8390  153.4220  131.3390 H   0  0  0  0  0  0  0  0  0  0  0  0
  146.2560  154.1039  134.1374 H   0  0  0  0  0  0  0  0  0  0  0  0
  147.4185  153.6067  132.8614 H   0  0  0  0  0  0  0  0  0  0  0  0
  146.7424  155.2709  132.8614 H   0  0  0  0  0  0  0  0  0  0  0  0
  145.0684  155.7923  131.8158 H   0  0  0  0  0  0  0  0  0  0  0  0
  144.0298  154.5675  130.9077 H   0  0  0  0  0  0  0  0  0  0  0  0
  145.2517  157.0496  132.9931 H   0  0  0  0  0  0  0  0  0  0  0  0
  1  2  1  0
  2  3  1  0
  3  4  2  0
  3  5  1  0
  5  6  1  0
  6  7  1  0
  7  8  1  0
  7  9  2  0
  6 10  2  0
 10 11  1  0
 11 12  2  0
 12 13  1  0
 13 14  2  0
 14 15  1  0
 15 16  1  0
 16 17  1  0
 17 18  1  0
 18 19  2  0
 18 20  1  0
 20 21  1  0
 20 22  1  0
 14 23  1  0
 23 24  2  0
 24  5  1  0
 24 11  1  0
 22 15  1  0
  1 25  1  0
  1 26  1  0
  1 27  1  0
  8 28  1  0
 10 29  1  0
 12 30  1  0
 13 31  1  0
 15 32  1  6
 16 33  1  0
 16 34  1  0
 17 35  1  0
 17 36  1  0
 20 37  1  6
 21 38  1  0
 21 39  1  0
 21 40  1  0
 22 41  1  0
 22 42  1  0
 23 43  1  0
M  CHG  2   8  -1  20   1
M  END
>  <UniqueID>  (40) 
40

>  <SMILES>  (40) 
COC(=O)n1c(C([NH-])=O)cc2ccc([C@@H]3CCC(=O)[N@H+](C)C3)cc21

>  <Energy>  (40) 
89.32002142427054

>  <Genealogy>  (40) 
COC(=O)n1c(C([NH-])=O)cc2ccc(C3CCC(=O)[NH+](C)C3)cc21 (protonated)
COC(=O)n1c(C([NH-])=O)cc2ccc([C@@H]3CCC(=O)[N@H+](C)C3)cc21 (chirality)
COC(=O)n1c(C([NH-])=O)cc2ccc([C@@H]3CCC(=O)[N@H+](C)C3)cc21 (3D coordinates assigned)
COC(=O)n1c(C([NH-])=O)cc2ccc([C@@H]3CCC(=O)[N@H+](C)C3)cc21 (nonaromatic ring conformer: 89.32002142427054 kcal/mol)

>  <smiles>  (40) 
COC(=O)n1c(C(N)=O)cc2ccc(C3CCC(=O)N(C)C3)cc21

>  <score_type>  (40) 
oracle

>  <origin>  (40) 
adg

>  <m_score__min__energy>  (40) 
-7.2999999999999998

>  <m_primary>  (40) 
energy

$$$$
40:0
     RDKit          3D

 42 44  0  0  0  0  0  0  0  0999 V2000
  148.9310  160.3650  130.9210 C   0  0  0  0  0  0  0  0  0  0  0  0
  147.7300  160.0520  131.6150 O   0  0  0  0  0  0  0  0  0  0  0  0
  147.7200  159.3820  132.8430 C   0  0  0  0  0  0  0  0  0  0  0  0
  148.5680  159.6730  133.7310 O   0  0  0  0  0  0  0  0  0  0  0  0
  146.7370  158.3630  133.0920 N   0  0  0  0  0  0  0  0  0  0  0  0
  145.4490  158.5430  133.5030 C   0  0  0  0  0  0  0  0  0  0  0  0
  144.7490  159.8380  133.6100 C   0  0  0  0  0  0  0  0  0  0  0  0
  145.4250  161.0690  133.3560 N   0  0  0  0  0  0  0  0  0  0  0  0
  143.5170  159.8550  133.8780 O   0  0  0  0  0  0  0  0  0  0  0  0
  144.8430  157.3190  133.7710 C   0  0  0  0  0  0  0  0  0  0  0  0
  145.8000  156.3710  133.4960 C   0  0  0  0  0  0  0  0  0  0  0  0
  145.7430  154.9850  133.6090 C   0  0  0  0  0  0  0  0  0  0  0  0
  146.8990  154.2510  133.3010 C   0  0  0  0  0  0  0  0  0  0  0  0
  148.0850  154.9100  132.8930 C   0  0  0  0  0  0  0  0  0  0  0  0
  149.3310  154.1090  132.6040 C   0  0  0  0  0  0  0  0  0  0  0  0
  149.0450  152.6020  132.4830 C   0  0  2  0  0  0  0  0  0  0  0  0
  149.5590  151.8290  133.7260 C   0  0  0  0  0  0  0  0  0  0  0  0
  149.2840  150.3850  133.6270 N   0  0  0  0  0  0  0  0  0  0  0  0
  149.1580  149.9130  132.2400 C   0  0  0  0  0  0  0  0  0  0  0  0
  149.9970  150.7700  131.2820 C   0  0  0  0  0  0  0  0  0  0  0  0
  149.6180  152.1400  131.2640 O   0  0  0  0  0  0  0  0  0  0  0  0
  148.1080  156.3190  132.7930 C   0  0  0  0  0  0  0  0  0  0  0  0
  146.9360  157.0250  133.0880 C   0  0  0  0  0  0  0  0  0  0  0  0
  149.7305  160.5734  131.6472 H   0  0  0  0  0  0  0  0  0  0  0  0
  149.2223  159.5128  130.2895 H   0  0  0  0  0  0  0  0  0  0  0  0
  148.7693  161.2510  130.2895 H   0  0  0  0  0  0  0  0  0  0  0  0
  144.9240  161.9770  133.4750 H   0  0  0  0  0  0  0  0  0  0  0  0
  146.3970  161.0820  132.9720 H   0  0  0  0  0  0  0  0  0  0  0  0
  143.8166  157.1468  134.1271 H   0  0  0  0  0  0  0  0  0  0  0  0
  144.8199  154.4801  133.9300 H   0  0  0  0  0  0  0  0  0  0  0  0
  146.8840  153.1537  133.3771 H   0  0  0  0  0  0  0  0  0  0  0  0
  149.7669  154.4628  131.6581 H   0  0  0  0  0  0  0  0  0  0  0  0
  150.0243  154.2521  133.4459 H   0  0  0  0  0  0  0  0  0  0  0  0
  147.9610  152.4173  132.4549 H   0  0  0  0  0  0  0  0  0  0  0  0
  150.6452  151.9790  133.8141 H   0  0  0  0  0  0  0  0  0  0  0  0
  149.0323  152.2166  134.6105 H   0  0  0  0  0  0  0  0  0  0  0  0
  148.3830  150.1800  134.1210 H   0  0  0  0  0  0  0  0  0  0  0  0
  149.5029  148.8700  132.1835 H   0  0  0  0  0  0  0  0  0  0  0  0
  148.1022  149.9899  131.9412 H   0  0  0  0  0  0  0  0  0  0  0  0
  151.0511  150.7048  131.5896 H   0  0  0  0  0  0  0  0  0  0  0  0
  149.8319  150.3762  130.2682 H   0  0  0  0  0  0  0  0  0  0  0  0
  149.0239  156.8479  132.4909 H   0  0  0  0  0  0  0  0  0  0  0  0
  1  2  1  0
  2  3  1  0
  3  4  2  0
  3  5  1  0
  5  6  1  0
  6  7  1  0
  7  8  1  0
  7  9  2  0
  6 10  2  0
 10 11  1  0
 11 12  2  0
 12 13  1  0
 13 14  2  0
 14 15  1  0
 15 16  1  0
 16 17  1  0
 17 18  1  0
 18 19  1  0
 19 20  1  0
 20 21  1  0
 14 22  1  0
 22 23  2  0
 23  5  1  0
 23 11  1  0
 21 16  1  0
  1 24  1  0
  1 25  1  0
  1 26  1  0
  8 27  1  0
  8 28  1  0
 10 29  1  0
 12 30  1  0
 13 31  1  0
 15 32  1  0
 15 33  1  0
 16 34  1  6
 17 35  1  0
 17 36  1  0
 18 37  1  0
 19 38  1  0
 19 39  1  0
 20 40  1  0
 20 41  1  0
 22 42  1  0
M  END
>  <UniqueID>  (41) 
41

>  <SMILES>  (41) 
COC(=O)n1c(C(N)=O)cc2ccc(C[C@@H]3CNCCO3)cc21

>  <Energy>  (41) 
90.38029008424331

>  <Genealogy>  (41) 
COC(=O)n1c(C(N)=O)cc2ccc(C[C@@H]3CNCCO3)cc21 (3D coordinates assigned)
COC(=O)n1c(C(N)=O)cc2ccc(C[C@@H]3CNCCO3)cc21 (nonaromatic ring conformer: 90.38029008424331 kcal/mol)

>  <smiles>  (41) 
COC(=O)n1c(C(N)=O)cc2ccc(C[C@@H]3CNCCO3)cc21

>  <score_type>  (41) 
oracle

>  <origin>  (41) 
adg

>  <m_score__min__energy>  (41) 
-7.6900000000000004

>  <m_primary>  (41) 
energy

$$$$
41:0
     RDKit          3D

 45 47  0  0  0  0  0  0  0  0999 V2000
  148.0220  155.8900  134.2390 C   0  0  0  0  0  0  0  0  0  0  0  0
  147.5400  156.5460  132.9840 C   0  0  0  0  0  0  0  0  0  0  0  0
  147.5560  155.8960  131.9050 O   0  0  0  0  0  0  0  0  0  0  0  0
  147.1310  157.9220  132.9830 N   0  0  0  0  0  0  0  0  0  0  0  0
  147.8190  159.0050  132.5230 C   0  0  0  0  0  0  0  0  0  0  0  0
  149.2160  159.0010  132.0440 C   0  0  0  0  0  0  0  0  0  0  0  0
  149.9060  157.7650  131.8750 N   0  0  0  0  0  0  0  0  0  0  0  0
  149.8000  160.0790  131.7510 O   0  0  0  0  0  0  0  0  0  0  0  0
  147.0450  160.1590  132.6390 C   0  0  0  0  0  0  0  0  0  0  0  0
  145.8570  159.7470  133.1980 C   0  0  0  0  0  0  0  0  0  0  0  0
  144.7180  160.4760  133.5260 C   0  0  0  0  0  0  0  0  0  0  0  0
  143.6250  159.7810  134.0700 C   0  0  0  0  0  0  0  0  0  0  0  0
  143.6900  158.3800  134.2760 C   0  0  0  0  0  0  0  0  0  0  0  0
  142.4940  157.6440  134.8270 C   0  0  0  0  0  0  0  0  0  0  0  0
  141.2700  157.7340  133.8890 C   0  0  0  0  0  0  0  0  0  0  0  0
  140.6690  156.3490  133.5980 C   0  0  0  0  0  0  0  0  0  0  0  0
  139.4890  156.4580  132.6110 C   0  0  0  0  0  0  0  0  0  0  0  0
  138.6170  157.6400  132.8300 N   0  0  0  0  0  0  0  0  0  0  0  0
  138.7490  158.6450  131.7610 C   0  0  0  0  0  0  0  0  0  0  0  0
  138.7550  158.2410  134.1720 C   0  0  0  0  0  0  0  0  0  0  0  0
  140.1990  158.6810  134.4840 C   0  0  0  0  0  0  0  0  0  0  0  0
  144.8620  157.6720  133.9300 C   0  0  0  0  0  0  0  0  0  0  0  0
  145.9360  158.3930  133.3980 C   0  0  0  0  0  0  0  0  0  0  0  0
  147.6250  156.4304  135.1110 H   0  0  0  0  0  0  0  0  0  0  0  0
  147.6740  154.8468  134.2644 H   0  0  0  0  0  0  0  0  0  0  0  0
  149.1215  155.9104  134.2644 H   0  0  0  0  0  0  0  0  0  0  0  0
  149.4220  156.9310  131.4750 H   0  0  0  0  0  0  0  0  0  0  0  0
  147.3247  161.1817  132.3459 H   0  0  0  0  0  0  0  0  0  0  0  0
  144.6748  161.5632  133.3643 H   0  0  0  0  0  0  0  0  0  0  0  0
  142.7100  160.3292  134.3387 H   0  0  0  0  0  0  0  0  0  0  0  0
  142.7605  156.5852  134.9609 H   0  0  0  0  0  0  0  0  0  0  0  0
  142.2209  158.1124  135.7841 H   0  0  0  0  0  0  0  0  0  0  0  0
  141.6165  158.1490  132.9310 H   0  0  0  0  0  0  0  0  0  0  0  0
  141.4456  155.7039  133.1612 H   0  0  0  0  0  0  0  0  0  0  0  0
  140.2998  155.9206  134.5415 H   0  0  0  0  0  0  0  0  0  0  0  0
  139.8970  156.5150  131.5910 H   0  0  0  0  0  0  0  0  0  0  0  0
  138.8611  155.5691  132.7709 H   0  0  0  0  0  0  0  0  0  0  0  0
  138.8798  159.6413  132.2085 H   0  0  0  0  0  0  0  0  0  0  0  0
  139.6233  158.4051  131.1381 H   0  0  0  0  0  0  0  0  0  0  0  0
  137.8423  158.6390  131.1381 H   0  0  0  0  0  0  0  0  0  0  0  0
  138.0986  159.1216  134.2319 H   0  0  0  0  0  0  0  0  0  0  0  0
  138.4762  157.4733  134.9089 H   0  0  0  0  0  0  0  0  0  0  0  0
  140.3544  159.6880  134.0695 H   0  0  0  0  0  0  0  0  0  0  0  0
  140.3169  158.6600  135.5775 H   0  0  0  0  0  0  0  0  0  0  0  0
  144.9284  156.5836  134.0749 H   0  0  0  0  0  0  0  0  0  0  0  0
  1  2  1  0
  2  3  2  0
  2  4  1  0
  4  5  1  0
  5  6  1  0
  6  7  1  0
  6  8  2  0
  5  9  2  0
  9 10  1  0
 10 11  2  0
 11 12  1  0
 12 13  2  0
 13 14  1  0
 14 15  1  0
 15 16  1  0
 16 17  1  0
 17 18  1  0
 18 19  1  0
 18 20  1  0
 20 21  1  0
 13 22  1  0
 22 23  2  0
 23  4  1  0
 23 10  1  0
 21 15  1  0
  1 24  1  0
  1 25  1  0
  1 26  1  0
  7 27  1  0
  9 28  1  0
 11 29  1  0
 12 30  1  0
 14 31  1  0
 14 32  1  0
 15 33  1  0
 16 34  1  0
 16 35  1  0
 17 36  1  0
 17 37  1  0
 19 38  1  0
 19 39  1  0
 19 40  1  0
 20 41  1  0
 20 42  1  0
 21 43  1  0
 21 44  1  0
 22 45  1  0
M  CHG  1   7  -1
M  END
>  <UniqueID>  (42) 
42

>  <SMILES>  (42) 
CC(=O)n1c(C([NH-])=O)cc2ccc(CC3CCN(C)CC3)cc21

>  <Energy>  (42) 
91.06173848464451

>  <Genealogy>  (42) 
CC(=O)n1c(C([NH-])=O)cc2ccc(CC3CCN(C)CC3)cc21 (protonated)
CC(=O)n1c(C([NH-])=O)cc2ccc(CC3CCN(C)CC3)cc21 (3D coordinates assigned)
CC(=O)n1c(C([NH-])=O)cc2ccc(CC3CCN(C)CC3)cc21 (nonaromatic ring conformer: 91.06173848464451 kcal/mol)

>  <smiles>  (42) 
CC(=O)n1c(C(N)=O)cc2ccc(CC3CCN(C)CC3)cc21

>  <score_type>  (42) 
oracle

>  <origin>  (42) 
adg

>  <m_score__min__energy>  (42) 
-7.9800000000000004

>  <m_primary>  (42) 
energy

$$$$
42:0
     RDKit          3D

 39 41  0  0  0  0  0  0  0  0999 V2000
  149.9120  159.5430  131.7120 C   0  0  0  0  0  0  0  0  0  0  0  0
  149.1940  158.8280  132.7820 N   0  0  0  0  0  0  0  0  0  0  0  0
  148.1240  159.6840  133.3700 C   0  0  0  0  0  0  0  0  0  0  0  0
  146.7190  159.3240  132.8680 C   0  0  0  0  0  0  0  0  0  0  0  0
  146.4440  157.9050  133.1280 N   0  0  0  0  0  0  0  0  0  0  0  0
  145.0940  157.4440  133.3530 C   0  0  0  0  0  0  0  0  0  0  0  0
  144.7500  156.0850  133.1220 C   0  0  0  0  0  0  0  0  0  0  0  0
  143.4390  155.6280  133.3310 C   0  0  0  0  0  0  0  0  0  0  0  0
  142.4910  156.5440  133.7770 C   0  0  0  0  0  0  0  0  0  0  0  0
  141.1510  156.3750  134.0350 C   0  0  0  0  0  0  0  0  0  0  0  0
  140.6920  157.6250  134.4420 C   0  0  0  0  0  0  0  0  0  0  0  0
  139.3080  157.8730  134.8990 C   0  0  0  0  0  0  0  0  0  0  0  0
  139.0590  158.1890  136.2670 N   0  0  0  0  0  0  0  0  0  0  0  0
  138.3460  157.8440  134.0880 O   0  0  0  0  0  0  0  0  0  0  0  0
  141.7090  158.5350  134.4310 N   0  0  0  0  0  0  0  0  0  0  0  0
  141.6410  159.9410  134.7210 C   0  0  0  0  0  0  0  0  0  0  0  0
  142.2030  160.7750  133.9630 O   0  0  0  0  0  0  0  0  0  0  0  0
  140.9770  160.3920  135.8540 O   0  0  0  0  0  0  0  0  0  0  0  0
  142.8050  157.8540  134.0250 C   0  0  0  0  0  0  0  0  0  0  0  0
  144.0990  158.3410  133.8090 C   0  0  0  0  0  0  0  0  0  0  0  0
  147.5640  156.9550  133.1190 C   0  0  0  0  0  0  0  0  0  0  0  0
  148.7190  157.5130  132.2800 C   0  0  0  0  0  0  0  0  0  0  0  0
  150.6242  160.2522  132.1589 H   0  0  0  0  0  0  0  0  0  0  0  0
  150.4576  158.8188  131.0892 H   0  0  0  0  0  0  0  0  0  0  0  0
  149.1901  160.0916  131.0892 H   0  0  0  0  0  0  0  0  0  0  0  0
  149.8960  158.6380  133.5390 H   0  0  0  0  0  0  0  0  0  0  0  0
  148.1450  159.5683  134.4637 H   0  0  0  0  0  0  0  0  0  0  0  0
  148.3266  160.7200  133.0607 H   0  0  0  0  0  0  0  0  0  0  0  0
  145.9749  159.9418  133.3921 H   0  0  0  0  0  0  0  0  0  0  0  0
  146.6619  159.5117  131.7856 H   0  0  0  0  0  0  0  0  0  0  0  0
  145.5211  155.3815  132.7748 H   0  0  0  0  0  0  0  0  0  0  0  0
  143.1693  154.5775  133.1477 H   0  0  0  0  0  0  0  0  0  0  0  0
  140.5656  155.4485  133.9400 H   0  0  0  0  0  0  0  0  0  0  0  0
  139.4520  159.0560  136.6980 H   0  0  0  0  0  0  0  0  0  0  0  0
  144.3378  159.3994  133.9900 H   0  0  0  0  0  0  0  0  0  0  0  0
  147.9096  156.7898  134.1501 H   0  0  0  0  0  0  0  0  0  0  0  0
  147.2268  156.0039  132.6812 H   0  0  0  0  0  0  0  0  0  0  0  0
  149.5555  156.7993  132.3100 H   0  0  0  0  0  0  0  0  0  0  0  0
  148.3514  157.6566  131.2532 H   0  0  0  0  0  0  0  0  0  0  0  0
  1  2  1  0
  2  3  1  0
  3  4  1  0
  4  5  1  0
  5  6  1  0
  6  7  2  0
  7  8  1  0
  8  9  2  0
  9 10  1  0
 10 11  2  0
 11 12  1  0
 12 13  1  0
 12 14  2  0
 11 15  1  0
 15 16  1  0
 16 17  2  0
 16 18  1  0
 15 19  1  0
 19 20  2  0
  5 21  1  0
 21 22  1  0
 22  2  1  0
 20  6  1  0
 19  9  1  0
  1 23  1  0
  1 24  1  0
  1 25  1  0
  2 26  1  0
  3 27  1  0
  3 28  1  0
  4 29  1  0
  4 30  1  0
  7 31  1  0
  8 32  1  0
 10 33  1  0
 13 34  1  0
 20 35  1  0
 21 36  1  0
 21 37  1  0
 22 38  1  0
 22 39  1  0
M  CHG  3   2   1  13  -1  18  -1
M  END
>  <UniqueID>  (43) 
43

>  <SMILES>  (43) 
C[NH+]1CCN(c2ccc3cc(C([NH-])=O)n(C(=O)[O-])c3c2)CC1

>  <Energy>  (43) 
89.4544110429971

>  <Genealogy>  (43) 
C[NH+]1CCN(c2ccc3cc(C([NH-])=O)n(C(=O)[O-])c3c2)CC1 (protonated)
C[NH+]1CCN(c2ccc3cc(C([NH-])=O)n(C(=O)[O-])c3c2)CC1 (3D coordinates assigned)
C[NH+]1CCN(c2ccc3cc(C([NH-])=O)n(C(=O)[O-])c3c2)CC1 (nonaromatic ring conformer: 89.4544110429971 kcal/mol)

>  <smiles>  (43) 
CN1CCN(c2ccc3cc(C(N)=O)n(C(=O)O)c3c2)CC1

>  <score_type>  (43) 
oracle

>  <origin>  (43) 
adg

>  <m_score__min__energy>  (43) 
-6.6699999999999999

>  <m_primary>  (43) 
energy

$$$$
43:0
     RDKit          3D

 47 49  0  0  0  0  0  0  0  0999 V2000
  140.9730  159.2590  137.3060 C   0  0  0  0  0  0  0  0  0  0  0  0
  141.7200  159.0050  136.0740 C   0  0  0  0  0  0  0  0  0  0  0  0
  142.3430  158.8030  135.0630 C   0  0  0  0  0  0  0  0  0  0  0  0
  143.0910  158.5470  133.8610 C   0  0  0  0  0  0  0  0  0  0  0  0
  142.4980  158.0500  132.8680 O   0  0  0  0  0  0  0  0  0  0  0  0
  144.4980  158.8410  133.7910 N   0  0  0  0  0  0  0  0  0  0  0  0
  145.0830  160.0680  133.6790 C   0  0  0  0  0  0  0  0  0  0  0  0
  144.3870  161.3700  133.7600 C   0  0  0  0  0  0  0  0  0  0  0  0
  145.1180  162.5450  134.1030 N   0  0  0  0  0  0  0  0  0  0  0  0
  143.1460  161.4530  133.5610 O   0  0  0  0  0  0  0  0  0  0  0  0
  146.4630  159.9420  133.5410 C   0  0  0  0  0  0  0  0  0  0  0  0
  146.7110  158.5890  133.5750 C   0  0  0  0  0  0  0  0  0  0  0  0
  147.9130  157.8970  133.4550 C   0  0  0  0  0  0  0  0  0  0  0  0
  147.8710  156.4930  133.4870 C   0  0  0  0  0  0  0  0  0  0  0  0
  146.6380  155.8110  133.6390 C   0  0  0  0  0  0  0  0  0  0  0  0
  146.6040  154.3080  133.6400 C   0  0  0  0  0  0  0  0  0  0  0  0
  147.3800  153.7650  134.8050 C   0  0  0  0  0  0  0  0  0  0  0  0
  148.5360  153.3010  134.6200 O   0  0  0  0  0  0  0  0  0  0  0  0
  146.8160  153.7290  136.1190 N   0  0  0  0  0  0  0  0  0  0  0  0
  147.4070  154.3560  137.1700 O   0  0  0  0  0  0  0  0  0  0  0  0
  147.4720  153.4240  138.2270 C   0  0  1  0  0  0  0  0  0  0  0  0
  148.8470  152.7260  138.1910 C   0  0  0  0  0  0  0  0  0  0  0  0
  149.9770  153.7270  138.4670 C   0  0  0  0  0  0  0  0  0  0  0  0
  149.5290  154.8460  139.4160 C   0  0  0  0  0  0  0  0  0  0  0  0
  148.3160  154.4050  140.2490 C   0  0  0  0  0  0  0  0  0  0  0  0
  147.1780  154.0840  139.4590 O   0  0  0  0  0  0  0  0  0  0  0  0
  145.4380  156.5490  133.7480 C   0  0  0  0  0  0  0  0  0  0  0  0
  145.5100  157.9460  133.7270 C   0  0  0  0  0  0  0  0  0  0  0  0
  141.6126  159.0415  138.1741 H   0  0  0  0  0  0  0  0  0  0  0  0
  140.6615  160.3136  137.3351 H   0  0  0  0  0  0  0  0  0  0  0  0
  140.0832  158.6129  137.3351 H   0  0  0  0  0  0  0  0  0  0  0  0
  146.0390  162.7540  133.6560 H   0  0  0  0  0  0  0  0  0  0  0  0
  147.1986  160.7521  133.4287 H   0  0  0  0  0  0  0  0  0  0  0  0
  148.8665  158.4331  133.3387 H   0  0  0  0  0  0  0  0  0  0  0  0
  148.8039  155.9177  133.3932 H   0  0  0  0  0  0  0  0  0  0  0  0
  145.5598  153.9696  133.7114 H   0  0  0  0  0  0  0  0  0  0  0  0
  147.0587  153.9414  132.7079 H   0  0  0  0  0  0  0  0  0  0  0  0
  146.7162  152.6319  138.1207 H   0  0  0  0  0  0  0  0  0  0  0  0
  148.8703  151.9366  138.9567 H   0  0  0  0  0  0  0  0  0  0  0  0
  148.9961  152.2950  137.1900 H   0  0  0  0  0  0  0  0  0  0  0  0
  150.8233  153.1917  138.9223 H   0  0  0  0  0  0  0  0  0  0  0  0
  150.2675  154.1863  137.5106 H   0  0  0  0  0  0  0  0  0  0  0  0
  150.3586  155.0977  140.0931 H   0  0  0  0  0  0  0  0  0  0  0  0
  149.2435  155.7226  138.8159 H   0  0  0  0  0  0  0  0  0  0  0  0
  148.5978  153.5163  140.8327 H   0  0  0  0  0  0  0  0  0  0  0  0
  148.0373  155.2524  140.8927 H   0  0  0  0  0  0  0  0  0  0  0  0
  144.4695  156.0369  133.8471 H   0  0  0  0  0  0  0  0  0  0  0  0
  1  2  1  0
  2  3  3  0
  3  4  1  0
  4  5  2  0
  4  6  1  0
  6  7  1  0
  7  8  1  0
  8  9  1  0
  8 10  2  0
  7 11  2  0
 11 12  1  0
 12 13  2  0
 13 14  1  0
 14 15  2  0
 15 16  1  0
 16 17  1  0
 17 18  2  0
 17 19  1  0
 19 20  1  0
 20 21  1  0
 21 22  1  0
 22 23  1  0
 23 24  1  0
 24 25  1  0
 25 26  1  0
 15 27  1  0
 27 28  2  0
 28  6  1  0
 28 12  1  0
 26 21  1  0
  1 29  1  0
  1 30  1  0
  1 31  1  0
  9 32  1  0
 11 33  1  0
 13 34  1  0
 14 35  1  0
 16 36  1  0
 16 37  1  0
 21 38  1  6
 22 39  1  0
 22 40  1  0
 23 41  1  0
 23 42  1  0
 24 43  1  0
 24 44  1  0
 25 45  1  0
 25 46  1  0
 27 47  1  0
M  CHG  2   9  -1  19  -1
M  END
>  <UniqueID>  (44) 
44

>  <SMILES>  (44) 
CC#CC(=O)n1c(C([NH-])=O)cc2ccc(CC(=O)[N-]O[C@H]3CCCCO3)cc21

>  <Energy>  (44) 
85.76734052738516

>  <Genealogy>  (44) 
CC#CC(=O)n1c(C([NH-])=O)cc2ccc(CC(=O)[N-]OC3CCCCO3)cc21 (protonated)
CC#CC(=O)n1c(C([NH-])=O)cc2ccc(CC(=O)[N-]O[C@H]3CCCCO3)cc21 (chirality)
CC#CC(=O)n1c(C([NH-])=O)cc2ccc(CC(=O)[N-]O[C@H]3CCCCO3)cc21 (3D coordinates assigned)
CC#CC(=O)n1c(C([NH-])=O)cc2ccc(CC(=O)[N-]O[C@H]3CCCCO3)cc21 (nonaromatic ring conformer: 85.76734052738516 kcal/mol)

>  <smiles>  (44) 
CC#CC(=O)n1c(C(N)=O)cc2ccc(CC(=O)NOC3CCCCO3)cc21

>  <score_type>  (44) 
oracle

>  <origin>  (44) 
adg

>  <m_score__min__energy>  (44) 
-8.8900000000000006

>  <m_primary>  (44) 
energy

$$$$
44:0
     RDKit          3D

 26 27  0  0  0  0  0  0  0  0999 V2000
  141.6450  160.8070  133.8440 N   0  0  0  0  0  0  0  0  0  0  0  0
  142.5160  159.9400  134.5680 C   0  0  0  0  0  0  0  0  0  0  0  0
  142.0830  159.3450  135.5900 O   0  0  0  0  0  0  0  0  0  0  0  0
  143.8960  159.6880  134.1050 C   0  0  0  0  0  0  0  0  0  0  0  0
  144.3830  158.4150  133.8110 C   0  0  0  0  0  0  0  0  0  0  0  0
  145.6570  158.6130  133.3320 C   0  0  0  0  0  0  0  0  0  0  0  0
  146.6030  157.6900  132.8960 C   0  0  0  0  0  0  0  0  0  0  0  0
  147.8530  158.1740  132.4770 C   0  0  0  0  0  0  0  0  0  0  0  0
  148.1400  159.5610  132.5200 C   0  0  0  0  0  0  0  0  0  0  0  0
  149.4760  160.0700  132.0520 C   0  0  0  0  0  0  0  0  0  0  0  0
  149.3400  160.7580  130.7290 C   0  0  0  0  0  0  0  0  0  0  0  0
  149.9590  161.7850  130.4990 O   0  0  0  0  0  0  0  0  0  0  0  0
  147.1530  160.4700  132.9600 C   0  0  0  0  0  0  0  0  0  0  0  0
  145.9090  159.9610  133.3520 C   0  0  0  0  0  0  0  0  0  0  0  0
  144.8370  160.6360  133.8270 N   0  0  0  0  0  0  0  0  0  0  0  0
  144.7610  162.0510  134.0660 C   0  0  0  0  0  0  0  0  0  0  0  0
  145.5280  162.5970  134.9020 O   0  0  0  0  0  0  0  0  0  0  0  0
  143.8580  162.8340  133.3590 O   0  0  0  0  0  0  0  0  0  0  0  0
  141.9980  161.6990  133.4310 H   0  0  0  0  0  0  0  0  0  0  0  0
  143.8593  157.4557  133.9357 H   0  0  0  0  0  0  0  0  0  0  0  0
  146.3783  156.6133  132.8800 H   0  0  0  0  0  0  0  0  0  0  0  0
  148.6158  157.4704  132.1123 H   0  0  0  0  0  0  0  0  0  0  0  0
  149.8716  160.7819  132.7914 H   0  0  0  0  0  0  0  0  0  0  0  0
  150.1629  159.2180  131.9414 H   0  0  0  0  0  0  0  0  0  0  0  0
  148.6779  160.3353  129.9590 H   0  0  0  0  0  0  0  0  0  0  0  0
  147.3563  161.5505  132.9939 H   0  0  0  0  0  0  0  0  0  0  0  0
  1  2  1  0
  2  3  2  0
  2  4  1  0
  4  5  2  0
  5  6  1  0
  6  7  2  0
  7  8  1  0
  8  9  2  0
  9 10  1  0
 10 11  1  0
 11 12  2  0
  9 13  1  0
 13 14  2  0
 14 15  1  0
 15 16  1  0
 16 17  2  0
 16 18  1  0
 15  4  1  0
 14  6  1  0
  1 19  1  0
  5 20  1  0
  7 21  1  0
  8 22  1  0
 10 23  1  0
 10 24  1  0
 11 25  1  0
 13 26  1  0
M  CHG  2   1  -1  18  -1
M  END
>  <UniqueID>  (45) 
45

>  <SMILES>  (45) 
[NH-]C(=O)c1cc2ccc(CC=O)cc2n1C(=O)[O-]

>  <Energy>  (45) 
64.49485237842325

>  <Genealogy>  (45) 
[NH-]C(=O)c1cc2ccc(CC=O)cc2n1C(=O)[O-] (protonated)
[NH-]C(=O)c1cc2ccc(CC=O)cc2n1C(=O)[O-] (3D coordinates assigned)
[NH-]C(=O)c1cc2ccc(CC=O)cc2n1C(=O)[O-] (optimized conformer: 64.49485237842325 kcal/mol)

>  <smiles>  (45) 
NC(=O)c1cc2ccc(CC=O)cc2n1C(=O)O

>  <score_type>  (45) 
oracle

>  <origin>  (45) 
adg

>  <m_score__min__energy>  (45) 
-6.0899999999999999

>  <m_primary>  (45) 
energy

$$$$
45:0
     RDKit          3D

 44 46  0  0  0  0  0  0  0  0999 V2000
  141.5350  153.4530  133.7240 C   0  0  0  0  0  0  0  0  0  0  0  0
  142.7720  153.7490  134.5310 C   0  0  0  0  0  0  0  0  0  0  0  0
  143.8470  154.4180  133.9200 C   0  0  0  0  0  0  0  0  0  0  0  0
  145.0180  154.7110  134.6390 C   0  0  0  0  0  0  0  0  0  0  0  0
  146.1440  155.4280  133.9860 C   0  0  0  0  0  0  0  0  0  0  0  0
  147.3170  154.7250  133.6040 C   0  0  0  0  0  0  0  0  0  0  0  0
  148.3910  155.3940  132.9970 C   0  0  0  0  0  0  0  0  0  0  0  0
  148.2660  156.7620  132.7750 C   0  0  0  0  0  0  0  0  0  0  0  0
  149.1620  157.6550  132.2310 C   0  0  0  0  0  0  0  0  0  0  0  0
  148.5170  158.8900  132.2660 C   0  0  0  0  0  0  0  0  0  0  0  0
  149.0960  160.1220  131.6920 C   0  0  0  0  0  0  0  0  0  0  0  0
  148.2650  161.2160  131.3150 N   0  0  0  0  0  0  0  0  0  0  0  0
  150.3370  160.1910  131.4850 O   0  0  0  0  0  0  0  0  0  0  0  0
  147.2760  158.7680  132.8160 N   0  0  0  0  0  0  0  0  0  0  0  0
  146.3400  159.8170  133.1130 C   0  0  0  0  0  0  0  0  0  0  0  0
  146.7170  160.8490  133.7270 O   0  0  0  0  0  0  0  0  0  0  0  0
  145.0180  159.7160  132.6990 O   0  0  0  0  0  0  0  0  0  0  0  0
  147.1370  157.4570  133.1200 C   0  0  0  0  0  0  0  0  0  0  0  0
  146.0580  156.8190  133.7440 C   0  0  0  0  0  0  0  0  0  0  0  0
  145.1090  154.3160  135.9820 C   0  0  0  0  0  0  0  0  0  0  0  0
  144.0530  153.6400  136.5950 C   0  0  0  0  0  0  0  0  0  0  0  0
  142.8800  153.3520  135.8830 C   0  0  0  0  0  0  0  0  0  0  0  0
  141.7970  152.6060  136.5620 C   0  0  0  0  0  0  0  0  0  0  0  0
  141.3410  151.5670  136.0100 O   0  0  0  0  0  0  0  0  0  0  0  0
  141.2630  153.0380  137.8300 N   0  0  0  0  0  0  0  0  0  0  0  0
  141.4830  154.4110  138.3030 C   0  0  0  0  0  0  0  0  0  0  0  0
  140.4150  152.1220  138.5970 C   0  0  0  0  0  0  0  0  0  0  0  0
  140.6935  153.2517  134.4033 H   0  0  0  0  0  0  0  0  0  0  0  0
  141.2951  154.3191  133.0897 H   0  0  0  0  0  0  0  0  0  0  0  0
  141.7131  152.5721  133.0897 H   0  0  0  0  0  0  0  0  0  0  0  0
  143.7702  154.7163  132.8640 H   0  0  0  0  0  0  0  0  0  0  0  0
  147.3848  153.6423  133.7862 H   0  0  0  0  0  0  0  0  0  0  0  0
  149.3037  154.8535  132.7056 H   0  0  0  0  0  0  0  0  0  0  0  0
  150.1712  157.4396  131.8502 H   0  0  0  0  0  0  0  0  0  0  0  0
  147.7260  161.7530  132.0310 H   0  0  0  0  0  0  0  0  0  0  0  0
  145.1634  157.3869  134.0394 H   0  0  0  0  0  0  0  0  0  0  0  0
  146.0198  154.5408  136.5564 H   0  0  0  0  0  0  0  0  0  0  0  0
  144.1418  153.3302  137.6467 H   0  0  0  0  0  0  0  0  0  0  0  0
  141.4851  154.4240  139.4029 H   0  0  0  0  0  0  0  0  0  0  0  0
  142.4512  154.7765  137.9302 H   0  0  0  0  0  0  0  0  0  0  0  0
  140.6775  155.0607  137.9302 H   0  0  0  0  0  0  0  0  0  0  0  0
  140.5716  152.2912  139.6726 H   0  0  0  0  0  0  0  0  0  0  0  0
  139.3593  152.3037  138.3472 H   0  0  0  0  0  0  0  0  0  0  0  0
  140.6774  151.0834  138.3472 H   0  0  0  0  0  0  0  0  0  0  0  0
  1  2  1  0
  2  3  2  0
  3  4  1  0
  4  5  1  0
  5  6  2  0
  6  7  1  0
  7  8  2  0
  8  9  1  0
  9 10  2  0
 10 11  1  0
 11 12  1  0
 11 13  2  0
 10 14  1  0
 14 15  1  0
 15 16  2  0
 15 17  1  0
 14 18  1  0
 18 19  2  0
  4 20  2  0
 20 21  1  0
 21 22  2  0
 22 23  1  0
 23 24  2  0
 23 25  1  0
 25 26  1  0
 25 27  1  0
 22  2  1  0
 19  5  1  0
 18  8  1  0
  1 28  1  0
  1 29  1  0
  1 30  1  0
  3 31  1  0
  6 32  1  0
  7 33  1  0
  9 34  1  0
 12 35  1  0
 19 36  1  0
 20 37  1  0
 21 38  1  0
 26 39  1  0
 26 40  1  0
 26 41  1  0
 27 42  1  0
 27 43  1  0
 27 44  1  0
M  CHG  2  12  -1  17  -1
M  END
>  <UniqueID>  (46) 
46

>  <SMILES>  (46) 
Cc1cc(-c2ccc3cc(C([NH-])=O)n(C(=O)[O-])c3c2)ccc1C(=O)N(C)C

>  <Energy>  (46) 
95.76065780106023

>  <Genealogy>  (46) 
Cc1cc(-c2ccc3cc(C([NH-])=O)n(C(=O)[O-])c3c2)ccc1C(=O)N(C)C (protonated)
Cc1cc(-c2ccc3cc(C([NH-])=O)n(C(=O)[O-])c3c2)ccc1C(=O)N(C)C (3D coordinates assigned)
Cc1cc(-c2ccc3cc(C([NH-])=O)n(C(=O)[O-])c3c2)ccc1C(=O)N(C)C (optimized conformer: 95.76065780106023 kcal/mol)

>  <smiles>  (46) 
Cc1cc(-c2ccc3cc(C(N)=O)n(C(=O)O)c3c2)ccc1C(=O)N(C)C

>  <score_type>  (46) 
oracle

>  <origin>  (46) 
adg

>  <m_score__min__energy>  (46) 
-8.4000000000000004

>  <m_primary>  (46) 
energy

$$$$
46:0
     RDKit          3D

 45 46  0  0  0  0  0  0  0  0999 V2000
  144.4460  154.7320  131.7360 C   0  0  0  0  0  0  0  0  0  0  0  0
  145.4270  155.5660  132.3390 O   0  0  0  0  0  0  0  0  0  0  0  0
  145.1690  156.3310  133.4800 C   0  0  0  0  0  0  0  0  0  0  0  0
  145.0150  155.7700  134.5980 O   0  0  0  0  0  0  0  0  0  0  0  0
  145.0790  157.7620  133.3720 N   0  0  0  0  0  0  0  0  0  0  0  0
  146.0970  158.6360  133.1320 C   0  0  0  0  0  0  0  0  0  0  0  0
  147.4810  158.2730  132.7670 C   0  0  0  0  0  0  0  0  0  0  0  0
  147.7510  157.1920  131.8730 N   0  0  0  0  0  0  0  0  0  0  0  0
  148.4380  158.9620  133.2100 O   0  0  0  0  0  0  0  0  0  0  0  0
  145.6490  159.9500  133.2260 C   0  0  0  0  0  0  0  0  0  0  0  0
  144.3090  159.8560  133.5200 C   0  0  0  0  0  0  0  0  0  0  0  0
  143.3710  160.8570  133.7310 C   0  0  0  0  0  0  0  0  0  0  0  0
  142.0590  160.4750  134.0530 C   0  0  0  0  0  0  0  0  0  0  0  0
  141.6970  159.1030  134.1760 C   0  0  0  0  0  0  0  0  0  0  0  0
  140.3300  158.7330  134.5170 N   0  0  0  0  0  0  0  0  0  0  0  0
  139.9920  158.4560  135.9210 C   0  0  0  0  0  0  0  0  0  0  0  0
  139.2500  158.5850  133.5120 C   0  0  2  0  0  0  0  0  0  0  0  0
  138.8370  157.0990  133.4290 C   0  0  0  0  0  0  0  0  0  0  0  0
  139.6520  159.1640  132.1990 N   0  0  0  0  0  0  0  0  0  0  0  0
  138.9270  158.5470  131.0710 C   0  0  0  0  0  0  0  0  0  0  0  0
  139.3970  160.6180  132.1820 C   0  0  0  0  0  0  0  0  0  0  0  0
  142.6950  158.1180  133.9520 C   0  0  0  0  0  0  0  0  0  0  0  0
  143.9880  158.5280  133.6070 C   0  0  0  0  0  0  0  0  0  0  0  0
  143.8579  154.2320  132.5197 H   0  0  0  0  0  0  0  0  0  0  0  0
  143.7788  155.3436  131.1109 H   0  0  0  0  0  0  0  0  0  0  0  0
  144.9423  153.9751  131.1109 H   0  0  0  0  0  0  0  0  0  0  0  0
  148.7370  156.9240  131.6580 H   0  0  0  0  0  0  0  0  0  0  0  0
  146.9810  156.7110  131.3590 H   0  0  0  0  0  0  0  0  0  0  0  0
  146.2405  160.8679  133.0934 H   0  0  0  0  0  0  0  0  0  0  0  0
  143.6475  161.9185  133.6484 H   0  0  0  0  0  0  0  0  0  0  0  0
  141.2956  161.2506  134.2134 H   0  0  0  0  0  0  0  0  0  0  0  0
  140.6736  159.0146  136.5793 H   0  0  0  0  0  0  0  0  0  0  0  0
  138.9555  158.7677  136.1170 H   0  0  0  0  0  0  0  0  0  0  0  0
  140.0941  157.3784  136.1170 H   0  0  0  0  0  0  0  0  0  0  0  0
  138.3647  159.1589  133.8233 H   0  0  0  0  0  0  0  0  0  0  0  0
  138.7240  156.6925  134.4449 H   0  0  0  0  0  0  0  0  0  0  0  0
  137.8811  157.0136  132.8915 H   0  0  0  0  0  0  0  0  0  0  0  0
  139.6118  156.5326  132.8915 H   0  0  0  0  0  0  0  0  0  0  0  0
  138.1433  157.8801  131.4597 H   0  0  0  0  0  0  0  0  0  0  0  0
  138.4666  159.3345  130.4563 H   0  0  0  0  0  0  0  0  0  0  0  0
  139.6308  157.9666  130.4563 H   0  0  0  0  0  0  0  0  0  0  0  0
  139.3316  160.9909  133.2148 H   0  0  0  0  0  0  0  0  0  0  0  0
  140.2193  161.1284  131.6593 H   0  0  0  0  0  0  0  0  0  0  0  0
  138.4501  160.8181  131.6593 H   0  0  0  0  0  0  0  0  0  0  0  0
  142.4555  157.0487  134.0482 H   0  0  0  0  0  0  0  0  0  0  0  0
  1  2  1  0
  2  3  1  0
  3  4  2  0
  3  5  1  0
  5  6  1  0
  6  7  1  0
  7  8  1  0
  7  9  2  0
  6 10  2  0
 10 11  1  0
 11 12  2  0
 12 13  1  0
 13 14  2  0
 14 15  1  0
 15 16  1  0
 15 17  1  0
 17 18  1  0
 17 19  1  0
 19 20  1  0
 19 21  1  0
 14 22  1  0
 22 23  2  0
 23  5  1  0
 23 11  1  0
  1 24  1  0
  1 25  1  0
  1 26  1  0
  8 27  1  0
  8 28  1  0
 10 29  1  0
 12 30  1  0
 13 31  1  0
 16 32  1  0
 16 33  1  0
 16 34  1  0
 17 35  1  1
 18 36  1  0
 18 37  1  0
 18 38  1  0
 20 39  1  0
 20 40  1  0
 20 41  1  0
 21 42  1  0
 21 43  1  0
 21 44  1  0
 22 45  1  0
M  END
>  <UniqueID>  (47) 
47

>  <SMILES>  (47) 
COC(=O)n1c(C(N)=O)cc2ccc(N(C)[C@H](C)N(C)C)cc21

>  <Energy>  (47) 
88.12960342708921

>  <Genealogy>  (47) 
COC(=O)n1c(C(N)=O)cc2ccc(N(C)[C@H](C)N(C)C)cc21 (chirality)
COC(=O)n1c(C(N)=O)cc2ccc(N(C)[C@H](C)N(C)C)cc21 (3D coordinates assigned)
COC(=O)n1c(C(N)=O)cc2ccc(N(C)[C@H](C)N(C)C)cc21 (optimized conformer: 88.12960342708921 kcal/mol)

>  <smiles>  (47) 
COC(=O)n1c(C(N)=O)cc2ccc(N(C)C(C)N(C)C)cc21

>  <score_type>  (47) 
oracle

>  <origin>  (47) 
adg

>  <m_score__min__energy>  (47) 
-6.79

>  <m_primary>  (47) 
energy

$$$$
47:0
     RDKit          3D

 40 42  0  0  0  0  0  0  0  0999 V2000
  138.7680  158.1910  132.7530 C   0  0  0  0  0  0  0  0  0  0  0  0
  139.6220  157.8960  133.9440 C   0  0  0  0  0  0  0  0  0  0  0  0
  139.1550  158.0860  135.0990 O   0  0  0  0  0  0  0  0  0  0  0  0
  140.9640  157.4100  133.7870 N   0  0  0  0  0  0  0  0  0  0  0  0
  142.1140  158.1410  133.7490 C   0  0  0  0  0  0  0  0  0  0  0  0
  142.2260  159.5950  133.9970 C   0  0  0  0  0  0  0  0  0  0  0  0
  141.3520  160.2560  134.9080 N   0  0  0  0  0  0  0  0  0  0  0  0
  143.1300  160.2580  133.4210 O   0  0  0  0  0  0  0  0  0  0  0  0
  143.2090  157.3170  133.4960 C   0  0  0  0  0  0  0  0  0  0  0  0
  142.6910  156.0470  133.3810 C   0  0  0  0  0  0  0  0  0  0  0  0
  143.3300  154.8420  133.1020 C   0  0  0  0  0  0  0  0  0  0  0  0
  142.5370  153.6870  132.9970 C   0  0  0  0  0  0  0  0  0  0  0  0
  141.1320  153.7580  133.1640 C   0  0  0  0  0  0  0  0  0  0  0  0
  140.2840  152.5260  132.9770 C   0  0  0  0  0  0  0  0  0  0  0  0
  141.1380  151.2520  132.9050 C   0  0  0  0  0  0  0  0  0  0  0  0
  140.4590  150.1670  132.1060 C   0  0  0  0  0  0  0  0  0  0  0  0
  139.0720  150.2230  131.8800 C   0  0  0  0  0  0  0  0  0  0  0  0
  138.4450  149.2460  131.1010 C   0  0  0  0  0  0  0  0  0  0  0  0
  139.1930  148.2100  130.5400 C   0  0  0  0  0  0  0  0  0  0  0  0
  140.5730  148.1490  130.7530 C   0  0  0  0  0  0  0  0  0  0  0  0
  141.2080  149.1240  131.5300 C   0  0  0  0  0  0  0  0  0  0  0  0
  142.5510  149.0550  131.7140 F   0  0  0  0  0  0  0  0  0  0  0  0
  140.5190  155.0000  133.4370 C   0  0  0  0  0  0  0  0  0  0  0  0
  141.3340  156.1310  133.5580 C   0  0  0  0  0  0  0  0  0  0  0  0
  137.7776  158.5331  133.0877 H   0  0  0  0  0  0  0  0  0  0  0  0
  139.2423  158.9774  132.1475 H   0  0  0  0  0  0  0  0  0  0  0  0
  138.6558  157.2795  132.1475 H   0  0  0  0  0  0  0  0  0  0  0  0
  140.4290  159.8400  135.1650 H   0  0  0  0  0  0  0  0  0  0  0  0
  144.2634  157.6177  133.4071 H   0  0  0  0  0  0  0  0  0  0  0  0
  144.4208  154.7957  132.9681 H   0  0  0  0  0  0  0  0  0  0  0  0
  143.0117  152.7181  132.7830 H   0  0  0  0  0  0  0  0  0  0  0  0
  139.5880  152.4407  133.8245 H   0  0  0  0  0  0  0  0  0  0  0  0
  139.7391  152.6268  132.0268 H   0  0  0  0  0  0  0  0  0  0  0  0
  142.1002  151.4946  132.4303 H   0  0  0  0  0  0  0  0  0  0  0  0
  141.2854  150.8807  133.9299 H   0  0  0  0  0  0  0  0  0  0  0  0
  138.4781  151.0388  132.3179 H   0  0  0  0  0  0  0  0  0  0  0  0
  137.3595  149.2940  130.9299 H   0  0  0  0  0  0  0  0  0  0  0  0
  138.6963  147.4411  129.9299 H   0  0  0  0  0  0  0  0  0  0  0  0
  141.1612  147.3325  130.3087 H   0  0  0  0  0  0  0  0  0  0  0  0
  139.4277  155.0768  133.5518 H   0  0  0  0  0  0  0  0  0  0  0  0
  1  2  1  0
  2  3  2  0
  2  4  1  0
  4  5  1  0
  5  6  1  0
  6  7  1  0
  6  8  2  0
  5  9  2  0
  9 10  1  0
 10 11  2  0
 11 12  1  0
 12 13  2  0
 13 14  1  0
 14 15  1  0
 15 16  1  0
 16 17  2  0
 17 18  1  0
 18 19  2  0
 19 20  1  0
 20 21  2  0
 21 22  1  0
 13 23  1  0
 23 24  2  0
 24  4  1  0
 24 10  1  0
 21 16  1  0
  1 25  1  0
  1 26  1  0
  1 27  1  0
  7 28  1  0
  9 29  1  0
 11 30  1  0
 12 31  1  0
 14 32  1  0
 14 33  1  0
 15 34  1  0
 15 35  1  0
 17 36  1  0
 18 37  1  0
 19 38  1  0
 20 39  1  0
 23 40  1  0
M  CHG  1   7  -1
M  END
>  <UniqueID>  (48) 
48

>  <SMILES>  (48) 
CC(=O)n1c(C([NH-])=O)cc2ccc(CCc3ccccc3F)cc21

>  <Energy>  (48) 
77.44886608540082

>  <Genealogy>  (48) 
CC(=O)n1c(C([NH-])=O)cc2ccc(CCc3ccccc3F)cc21 (protonated)
CC(=O)n1c(C([NH-])=O)cc2ccc(CCc3ccccc3F)cc21 (3D coordinates assigned)
CC(=O)n1c(C([NH-])=O)cc2ccc(CCc3ccccc3F)cc21 (optimized conformer: 77.44886608540082 kcal/mol)

>  <smiles>  (48) 
CC(=O)n1c(C(N)=O)cc2ccc(CCc3ccccc3F)cc21

>  <score_type>  (48) 
oracle

>  <origin>  (48) 
adg

>  <m_score__min__energy>  (48) 
-7.96

>  <m_primary>  (48) 
energy

$$$$
48:0
     RDKit          3D

 69 71  0  0  0  0  0  0  0  0999 V2000
  138.3650  149.1690  130.0530 C   0  0  0  0  0  0  0  0  0  0  0  0
  139.6050  148.3870  129.9170 N   0  0  0  0  0  0  0  0  0  0  0  0
  139.2970  146.9510  129.9940 C   0  0  0  0  0  0  0  0  0  0  0  0
  140.5820  148.7610  130.9600 C   0  0  0  0  0  0  0  0  0  0  0  0
  139.8720  149.0000  132.2960 C   0  0  0  0  0  0  0  0  0  0  0  0
  140.6510  149.9130  133.1340 N   0  0  0  0  0  0  0  0  0  0  0  0
  140.7310  151.3110  132.8350 C   0  0  0  0  0  0  0  0  0  0  0  0
  139.7560  151.8700  132.2640 O   0  0  0  0  0  0  0  0  0  0  0  0
  141.9410  152.1090  133.1560 C   0  0  0  0  0  0  0  0  0  0  0  0
  143.2290  151.5440  133.1210 C   0  0  0  0  0  0  0  0  0  0  0  0
  144.3210  152.3140  133.3630 N   0  0  0  0  0  0  0  0  0  0  0  0
  144.2540  153.6400  133.6450 C   0  0  0  0  0  0  0  0  0  0  0  0
  145.4950  154.3690  133.8140 N   0  0  0  0  0  0  0  0  0  0  0  0
  146.0870  154.6320  135.1280 C   0  0  0  0  0  0  0  0  0  0  0  0
  146.2680  154.7070  132.6120 C   0  0  0  0  0  0  0  0  0  0  0  0
  142.9730  154.2520  133.7020 C   0  0  0  0  0  0  0  0  0  0  0  0
  142.7760  155.6980  133.8990 C   0  0  0  0  0  0  0  0  0  0  0  0
  141.5290  156.1890  134.3510 C   0  0  0  0  0  0  0  0  0  0  0  0
  141.3380  157.5630  134.5540 C   0  0  0  0  0  0  0  0  0  0  0  0
  142.3960  158.4170  134.2520 C   0  0  0  0  0  0  0  0  0  0  0  0
  142.4620  159.7830  134.3410 C   0  0  0  0  0  0  0  0  0  0  0  0
  143.7320  160.1200  133.8860 C   0  0  0  0  0  0  0  0  0  0  0  0
  144.2030  161.5190  133.8510 C   0  0  0  0  0  0  0  0  0  0  0  0
  145.5760  161.8090  134.0950 N   0  0  0  0  0  0  0  0  0  0  0  0
  143.4140  162.4550  133.5570 O   0  0  0  0  0  0  0  0  0  0  0  0
  144.4310  159.0100  133.5040 N   0  0  0  0  0  0  0  0  0  0  0  0
  145.6930  158.9650  132.7980 C   0  0  0  0  0  0  0  0  0  0  0  0
  146.0260  159.9100  132.0450 O   0  0  0  0  0  0  0  0  0  0  0  0
  146.5710  157.8880  132.9860 O   0  0  0  0  0  0  0  0  0  0  0  0
  147.9380  157.9720  133.4210 C   0  0  0  0  0  0  0  0  0  0  0  0
  148.3280  159.4310  133.7310 C   0  0  0  0  0  0  0  0  0  0  0  0
  148.1690  157.0700  134.6480 C   0  0  0  0  0  0  0  0  0  0  0  0
  148.8080  157.4650  132.2620 C   0  0  0  0  0  0  0  0  0  0  0  0
  143.5970  157.9670  133.7640 C   0  0  0  0  0  0  0  0  0  0  0  0
  143.8210  156.5890  133.5870 C   0  0  0  0  0  0  0  0  0  0  0  0
  141.8340  153.4700  133.4660 C   0  0  0  0  0  0  0  0  0  0  0  0
  138.1372  149.3127  131.1195 H   0  0  0  0  0  0  0  0  0  0  0  0
  138.4948  150.1490  129.5705 H   0  0  0  0  0  0  0  0  0  0  0  0
  137.5366  148.6296  129.5705 H   0  0  0  0  0  0  0  0  0  0  0  0
  139.2316  146.6461  131.0489 H   0  0  0  0  0  0  0  0  0  0  0  0
  138.3363  146.7548  129.4954 H   0  0  0  0  0  0  0  0  0  0  0  0
  140.0927  146.3781  129.4954 H   0  0  0  0  0  0  0  0  0  0  0  0
  141.3140  147.9486  131.0789 H   0  0  0  0  0  0  0  0  0  0  0  0
  141.0913  149.6874  130.6560 H   0  0  0  0  0  0  0  0  0  0  0  0
  138.8814  149.4390  132.1061 H   0  0  0  0  0  0  0  0  0  0  0  0
  139.7664  148.0386  132.8199 H   0  0  0  0  0  0  0  0  0  0  0  0
  141.0870  149.5440  134.0090 H   0  0  0  0  0  0  0  0  0  0  0  0
  143.3519  150.4742  132.8967 H   0  0  0  0  0  0  0  0  0  0  0  0
  145.3851  154.3202  135.9155 H   0  0  0  0  0  0  0  0  0  0  0  0
  147.0249  154.0659  135.2276 H   0  0  0  0  0  0  0  0  0  0  0  0
  146.2956  155.7074  135.2276 H   0  0  0  0  0  0  0  0  0  0  0  0
  147.2388  155.1315  132.9077 H   0  0  0  0  0  0  0  0  0  0  0  0
  146.4320  153.7984  132.0140 H   0  0  0  0  0  0  0  0  0  0  0  0
  145.7123  155.4443  132.0140 H   0  0  0  0  0  0  0  0  0  0  0  0
  140.7035  155.4882  134.5445 H   0  0  0  0  0  0  0  0  0  0  0  0
  140.3844  157.9535  134.9389 H   0  0  0  0  0  0  0  0  0  0  0  0
  141.6774  160.4671  134.6966 H   0  0  0  0  0  0  0  0  0  0  0  0
  146.3050  161.6150  133.3690 H   0  0  0  0  0  0  0  0  0  0  0  0
  148.3669  159.5765  134.8206 H   0  0  0  0  0  0  0  0  0  0  0  0
  149.3154  159.6468  133.2968 H   0  0  0  0  0  0  0  0  0  0  0  0
  147.5800  160.1107  133.2968 H   0  0  0  0  0  0  0  0  0  0  0  0
  148.0190  157.6556  135.5670 H   0  0  0  0  0  0  0  0  0  0  0  0
  147.4564  156.2323  134.6266 H   0  0  0  0  0  0  0  0  0  0  0  0
  149.1965  156.6780  134.6266 H   0  0  0  0  0  0  0  0  0  0  0  0
  149.6922  156.9497  132.6654 H   0  0  0  0  0  0  0  0  0  0  0  0
  148.2253  156.7650  131.6451 H   0  0  0  0  0  0  0  0  0  0  0  0
  149.1298  158.3170  131.6451 H   0  0  0  0  0  0  0  0  0  0  0  0
  144.7871  156.2175  133.2147 H   0  0  0  0  0  0  0  0  0  0  0  0
  140.8384  153.9339  133.5254 H   0  0  0  0  0  0  0  0  0  0  0  0
  1  2  1  0
  2  3  1  0
  2  4  1  0
  4  5  1  0
  5  6  1  0
  6  7  1  0
  7  8  2  0
  7  9  1  0
  9 10  2  0
 10 11  1  0
 11 12  2  0
 12 13  1  0
 13 14  1  0
 13 15  1  0
 12 16  1  0
 16 17  1  0
 17 18  2  0
 18 19  1  0
 19 20  2  0
 20 21  1  0
 21 22  2  0
 22 23  1  0
 23 24  1  0
 23 25  2  0
 22 26  1  0
 26 27  1  0
 27 28  2  0
 27 29  1  0
 29 30  1  0
 30 31  1  0
 30 32  1  0
 30 33  1  0
 26 34  1  0
 34 35  2  0
 16 36  2  0
 36  9  1  0
 35 17  1  0
 34 20  1  0
  1 37  1  0
  1 38  1  0
  1 39  1  0
  3 40  1  0
  3 41  1  0
  3 42  1  0
  4 43  1  0
  4 44  1  0
  5 45  1  0
  5 46  1  0
  6 47  1  0
 10 48  1  0
 14 49  1  0
 14 50  1  0
 14 51  1  0
 15 52  1  0
 15 53  1  0
 15 54  1  0
 18 55  1  0
 19 56  1  0
 21 57  1  0
 24 58  1  0
 31 59  1  0
 31 60  1  0
 31 61  1  0
 32 62  1  0
 32 63  1  0
 32 64  1  0
 33 65  1  0
 33 66  1  0
 33 67  1  0
 35 68  1  0
 36 69  1  0
M  CHG  1  24  -1
M  END
>  <UniqueID>  (49) 
49

>  <SMILES>  (49) 
CN(C)CCNC(=O)c1cnc(N(C)C)c(-c2ccc3cc(C([NH-])=O)n(C(=O)OC(C)(C)C)c3c2)c1

>  <Energy>  (49) 
121.4151296615582

>  <Genealogy>  (49) 
CN(C)CCNC(=O)c1cnc(N(C)C)c(-c2ccc3cc(C([NH-])=O)n(C(=O)OC(C)(C)C)c3c2)c1 (protonated)
CN(C)CCNC(=O)c1cnc(N(C)C)c(-c2ccc3cc(C([NH-])=O)n(C(=O)OC(C)(C)C)c3c2)c1 (3D coordinates assigned)
CN(C)CCNC(=O)c1cnc(N(C)C)c(-c2ccc3cc(C([NH-])=O)n(C(=O)OC(C)(C)C)c3c2)c1 (optimized conformer: 121.4151296615582 kcal/mol)

>  <smiles>  (49) 
CN(C)CCNC(=O)c1cnc(N(C)C)c(-c2ccc3cc(C(N)=O)n(C(=O)OC(C)(C)C)c3c2)c1

>  <score_type>  (49) 
oracle

>  <origin>  (49) 
adg

>  <m_score__min__energy>  (49) 
-9.5800000000000001

>  <m_primary>  (49) 
energy

$$$$
49:0
     RDKit          3D

 34 37  0  0  0  0  0  0  0  0999 V2000
  143.6600  153.5120  138.5990 N   0  0  0  0  0  0  0  0  0  0  0  0
  142.3990  153.7450  137.9780 C   0  0  0  0  0  0  0  0  0  0  0  0
  141.5410  154.4520  138.5730 O   0  0  0  0  0  0  0  0  0  0  0  0
  142.1060  153.2230  136.6270 C   0  0  0  0  0  0  0  0  0  0  0  0
  142.4780  153.8800  135.4560 C   0  0  0  0  0  0  0  0  0  0  0  0
  142.1100  153.0380  134.4320 C   0  0  0  0  0  0  0  0  0  0  0  0
  142.2270  153.2010  133.0550 C   0  0  0  0  0  0  0  0  0  0  0  0
  141.7270  152.1810  132.2280 C   0  0  0  0  0  0  0  0  0  0  0  0
  141.1280  151.0270  132.7880 C   0  0  0  0  0  0  0  0  0  0  0  0
  140.5490  149.9690  131.8900 C   0  0  1  0  0  0  0  0  0  0  0  0
  141.3840  148.8690  131.2220 C   0  0  0  0  0  0  0  0  0  0  0  0
  139.9010  148.7360  130.8480 C   0  0  1  0  0  0  0  0  0  0  0  0
  139.3420  147.6830  129.9490 C   0  0  0  0  0  0  0  0  0  0  0  0
  139.4890  146.4660  130.2340 O   0  0  0  0  0  0  0  0  0  0  0  0
  138.7070  148.0430  128.7670 O   0  0  0  0  0  0  0  0  0  0  0  0
  139.4830  148.9430  132.3100 C   0  0  0  0  0  0  0  0  0  0  0  0
  139.8020  150.2410  130.5740 C   0  0  0  0  0  0  0  0  0  0  0  0
  141.0110  150.9050  134.1890 C   0  0  0  0  0  0  0  0  0  0  0  0
  141.5350  151.9260  134.9900 C   0  0  0  0  0  0  0  0  0  0  0  0
  141.5210  152.0260  136.3380 N   0  0  0  0  0  0  0  0  0  0  0  0
  140.9250  151.0910  137.2530 C   0  0  0  0  0  0  0  0  0  0  0  0
  141.0060  151.2770  138.4950 O   0  0  0  0  0  0  0  0  0  0  0  0
  140.2330  149.9860  136.7740 O   0  0  0  0  0  0  0  0  0  0  0  0
  144.4970  154.0810  138.3450 H   0  0  0  0  0  0  0  0  0  0  0  0
  142.9631  154.8634  135.3687 H   0  0  0  0  0  0  0  0  0  0  0  0
  142.6959  154.0996  132.6276 H   0  0  0  0  0  0  0  0  0  0  0  0
  141.8017  152.2801  131.1350 H   0  0  0  0  0  0  0  0  0  0  0  0
  142.0978  149.1581  130.4366 H   0  0  0  0  0  0  0  0  0  0  0  0
  142.0878  148.1392  131.6487 H   0  0  0  0  0  0  0  0  0  0  0  0
  138.4641  149.3018  132.5174 H   0  0  0  0  0  0  0  0  0  0  0  0
  139.4510  148.2420  133.1571 H   0  0  0  0  0  0  0  0  0  0  0  0
  140.3678  150.6571  129.7274 H   0  0  0  0  0  0  0  0  0  0  0  0
  138.9321  150.8785  130.3575 H   0  0  0  0  0  0  0  0  0  0  0  0
  140.5205  150.0298  134.6400 H   0  0  0  0  0  0  0  0  0  0  0  0
  1  2  1  0
  2  3  2  0
  2  4  1  0
  4  5  2  0
  5  6  1  0
  6  7  2  0
  7  8  1  0
  8  9  2  0
 10  9  1  1
 10 11  1  0
 11 12  1  0
 12 13  1  6
 13 14  2  0
 13 15  1  0
 12 16  1  0
 12 17  1  0
  9 18  1  0
 18 19  2  0
 19 20  1  0
 20 21  1  0
 21 22  2  0
 21 23  1  0
 20  4  1  0
 19  6  1  0
 16 10  1  0
 17 10  1  0
  1 24  1  0
  5 25  1  0
  7 26  1  0
  8 27  1  0
 11 28  1  0
 11 29  1  0
 16 30  1  0
 16 31  1  0
 17 32  1  0
 17 33  1  0
 18 34  1  0
M  CHG  3   1  -1  15  -1  23  -1
M  END
>  <UniqueID>  (50) 
50

>  <SMILES>  (50) 
[NH-]C(=O)c1cc2ccc(C34CC(C(=O)[O-])(C3)C4)cc2n1C(=O)[O-]

>  <Energy>  (50) 
368.97577769526026

>  <Genealogy>  (50) 
[NH-]C(=O)c1cc2ccc(C34CC(C(=O)[O-])(C3)C4)cc2n1C(=O)[O-] (protonated)
[NH-]C(=O)c1cc2ccc(C34CC(C(=O)[O-])(C3)C4)cc2n1C(=O)[O-] (3D coordinates assigned)
[NH-]C(=O)c1cc2ccc(C34CC(C(=O)[O-])(C3)C4)cc2n1C(=O)[O-] (nonaromatic ring conformer: 368.97577769526026 kcal/mol)

>  <smiles>  (50) 
NC(=O)c1cc2ccc(C34CC(C(=O)O)(C3)C4)cc2n1C(=O)O

>  <score_type>  (50) 
oracle

>  <origin>  (50) 
adg

>  <m_score__min__energy>  (50) 
-7.6900000000000004

>  <m_primary>  (50) 
energy

$$$$
50:0
     RDKit          3D

 24 25  0  0  0  0  0  0  0  0999 V2000
  142.7540  160.7110  133.3580 N   0  0  0  0  0  0  0  0  0  0  0  0
  144.1080  161.0100  133.6870 C   0  0  0  0  0  0  0  0  0  0  0  0
  144.4150  162.1850  134.0230 O   0  0  0  0  0  0  0  0  0  0  0  0
  145.1620  159.9800  133.5810 C   0  0  0  0  0  0  0  0  0  0  0  0
  146.5120  160.2800  133.4120 C   0  0  0  0  0  0  0  0  0  0  0  0
  147.1400  159.0660  133.2640 C   0  0  0  0  0  0  0  0  0  0  0  0
  148.4850  158.7730  133.0640 C   0  0  0  0  0  0  0  0  0  0  0  0
  148.8590  157.4230  132.9660 C   0  0  0  0  0  0  0  0  0  0  0  0
  147.8920  156.3920  133.0940 C   0  0  0  0  0  0  0  0  0  0  0  0
  148.3000  154.9470  132.9490 C   0  0  0  0  0  0  0  0  0  0  0  0
  148.4660  154.3930  134.2040 F   0  0  0  0  0  0  0  0  0  0  0  0
  149.4900  154.8440  132.2500 F   0  0  0  0  0  0  0  0  0  0  0  0
  147.3340  154.2320  132.2640 F   0  0  0  0  0  0  0  0  0  0  0  0
  146.5310  156.7310  133.2730 C   0  0  0  0  0  0  0  0  0  0  0  0
  146.1850  158.0850  133.3490 C   0  0  0  0  0  0  0  0  0  0  0  0
  144.9630  158.6310  133.5460 N   0  0  0  0  0  0  0  0  0  0  0  0
  143.7370  157.9180  133.7740 C   0  0  0  0  0  0  0  0  0  0  0  0
  143.5270  157.3490  134.8770 O   0  0  0  0  0  0  0  0  0  0  0  0
  142.7590  157.8730  132.7870 O   0  0  0  0  0  0  0  0  0  0  0  0
  142.5230  160.0260  132.6050 H   0  0  0  0  0  0  0  0  0  0  0  0
  146.9768  161.2769  133.3996 H   0  0  0  0  0  0  0  0  0  0  0  0
  149.2336  159.5751  132.9849 H   0  0  0  0  0  0  0  0  0  0  0  0
  149.9126  157.1618  132.7882 H   0  0  0  0  0  0  0  0  0  0  0  0
  145.7618  155.9485  133.3507 H   0  0  0  0  0  0  0  0  0  0  0  0
  1  2  1  0
  2  3  2  0
  2  4  1  0
  4  5  2  0
  5  6  1  0
  6  7  2  0
  7  8  1  0
  8  9  2  0
  9 10  1  0
 10 11  1  0
 10 12  1  0
 10 13  1  0
  9 14  1  0
 14 15  2  0
 15 16  1  0
 16 17  1  0
 17 18  2  0
 17 19  1  0
 16  4  1  0
 15  6  1  0
  1 20  1  0
  5 21  1  0
  7 22  1  0
  8 23  1  0
 14 24  1  0
M  CHG  2   1  -1  19  -1
M  END
>  <UniqueID>  (51) 
51

>  <SMILES>  (51) 
[NH-]C(=O)c1cc2ccc(C(F)(F)F)cc2n1C(=O)[O-]

>  <Energy>  (51) 
65.24609166176015

>  <Genealogy>  (51) 
[NH-]C(=O)c1cc2ccc(C(F)(F)F)cc2n1C(=O)[O-] (protonated)
[NH-]C(=O)c1cc2ccc(C(F)(F)F)cc2n1C(=O)[O-] (3D coordinates assigned)
[NH-]C(=O)c1cc2ccc(C(F)(F)F)cc2n1C(=O)[O-] (optimized conformer: 65.24609166176015 kcal/mol)

>  <smiles>  (51) 
NC(=O)c1cc2ccc(C(F)(F)F)cc2n1C(=O)O

>  <score_type>  (51) 
oracle

>  <origin>  (51) 
adg

>  <m_score__min__energy>  (51) 
-5.1500000000000004

>  <m_primary>  (51) 
energy

$$$$
51:0
     RDKit          3D

 38 40  0  0  0  0  0  0  0  0999 V2000
  139.4430  158.0730  136.2750 N   0  0  0  0  0  0  0  0  0  0  0  0
  139.9400  157.9220  134.9470 C   0  0  0  0  0  0  0  0  0  0  0  0
  140.1070  156.7660  134.4720 O   0  0  0  0  0  0  0  0  0  0  0  0
  140.2080  159.1470  134.1100 C   0  0  1  0  0  0  0  0  0  0  0  0
  141.6950  159.3970  133.9530 C   0  0  0  0  0  0  0  0  0  0  0  0
  142.2150  160.7200  133.9230 C   0  0  0  0  0  0  0  0  0  0  0  0
  143.5900  160.9490  133.7410 C   0  0  0  0  0  0  0  0  0  0  0  0
  144.4200  159.8430  133.5860 C   0  0  0  0  0  0  0  0  0  0  0  0
  145.7760  159.7770  133.3600 C   0  0  0  0  0  0  0  0  0  0  0  0
  146.0670  158.4170  133.2640 C   0  0  0  0  0  0  0  0  0  0  0  0
  147.4320  157.8860  133.0640 C   0  0  0  0  0  0  0  0  0  0  0  0
  147.7480  157.0510  131.9490 N   0  0  0  0  0  0  0  0  0  0  0  0
  148.3230  158.1400  133.9170 O   0  0  0  0  0  0  0  0  0  0  0  0
  144.9330  157.6760  133.4070 N   0  0  0  0  0  0  0  0  0  0  0  0
  144.7740  156.2560  133.2660 C   0  0  0  0  0  0  0  0  0  0  0  0
  145.3780  155.6550  132.3370 O   0  0  0  0  0  0  0  0  0  0  0  0
  143.9600  155.4600  134.2430 C   0  0  0  0  0  0  0  0  0  0  0  0
  144.6240  154.2830  134.5330 F   0  0  0  0  0  0  0  0  0  0  0  0
  142.7290  155.1630  133.6910 F   0  0  0  0  0  0  0  0  0  0  0  0
  143.7720  156.1620  135.4200 F   0  0  0  0  0  0  0  0  0  0  0  0
  143.9370  158.5630  133.6110 C   0  0  0  0  0  0  0  0  0  0  0  0
  142.5730  158.3030  133.7800 C   0  0  0  0  0  0  0  0  0  0  0  0
  139.5460  159.0650  132.8010 N   0  0  0  0  0  0  0  0  0  0  0  0
  139.3500  160.0890  131.9540 C   0  0  0  0  0  0  0  0  0  0  0  0
  138.7620  159.5960  130.8120 C   0  0  0  0  0  0  0  0  0  0  0  0
  138.5970  158.2620  130.9290 N   0  0  0  0  0  0  0  0  0  0  0  0
  139.0900  157.9710  132.1500 C   0  0  0  0  0  0  0  0  0  0  0  0
  139.4130  159.0110  136.7310 H   0  0  0  0  0  0  0  0  0  0  0  0
  139.7777  160.0056  134.6463 H   0  0  0  0  0  0  0  0  0  0  0  0
  141.5331  161.5747  134.0437 H   0  0  0  0  0  0  0  0  0  0  0  0
  143.9971  161.9707  133.7217 H   0  0  0  0  0  0  0  0  0  0  0  0
  146.4799  160.6178  133.2736 H   0  0  0  0  0  0  0  0  0  0  0  0
  147.0030  156.6700  131.3280 H   0  0  0  0  0  0  0  0  0  0  0  0
  148.7330  156.7380  131.7940 H   0  0  0  0  0  0  0  0  0  0  0  0
  142.1925  157.2709  133.7783 H   0  0  0  0  0  0  0  0  0  0  0  0
  139.6141  161.1403  132.1411 H   0  0  0  0  0  0  0  0  0  0  0  0
  138.4711  160.1971  129.9379 H   0  0  0  0  0  0  0  0  0  0  0  0
  139.1181  156.9549  132.5704 H   0  0  0  0  0  0  0  0  0  0  0  0
  1  2  1  0
  2  3  2  0
  2  4  1  0
  4  5  1  0
  5  6  2  0
  6  7  1  0
  7  8  2  0
  8  9  1  0
  9 10  2  0
 10 11  1  0
 11 12  1  0
 11 13  2  0
 10 14  1  0
 14 15  1  0
 15 16  2  0
 15 17  1  0
 17 18  1  0
 17 19  1  0
 17 20  1  0
 14 21  1  0
 21 22  2  0
  4 23  1  0
 23 24  1  0
 24 25  2  0
 25 26  1  0
 26 27  2  0
 22  5  1  0
 27 23  1  0
 21  8  1  0
  1 28  1  0
  4 29  1  1
  6 30  1  0
  7 31  1  0
  9 32  1  0
 12 33  1  0
 12 34  1  0
 22 35  1  0
 24 36  1  0
 25 37  1  0
 27 38  1  0
M  CHG  1   1  -1
M  END
>  <UniqueID>  (52) 
52

>  <SMILES>  (52) 
[NH-]C(=O)[C@@H](c1ccc2cc(C(N)=O)n(C(=O)C(F)(F)F)c2c1)n1ccnc1

>  <Energy>  (52) 
110.97512823927707

>  <Genealogy>  (52) 
[NH-]C(=O)C(c1ccc2cc(C(N)=O)n(C(=O)C(F)(F)F)c2c1)n1ccnc1 (protonated)
[NH-]C(=O)[C@@H](c1ccc2cc(C(N)=O)n(C(=O)C(F)(F)F)c2c1)n1ccnc1 (chirality)
[NH-]C(=O)[C@@H](c1ccc2cc(C(N)=O)n(C(=O)C(F)(F)F)c2c1)n1ccnc1 (3D coordinates assigned)
[NH-]C(=O)[C@@H](c1ccc2cc(C(N)=O)n(C(=O)C(F)(F)F)c2c1)n1ccnc1 (optimized conformer: 110.97512823927707 kcal/mol)

>  <smiles>  (52) 
NC(=O)c1cc2ccc(C(C(N)=O)n3ccnc3)cc2n1C(=O)C(F)(F)F

>  <score_type>  (52) 
oracle

>  <origin>  (52) 
adg

>  <m_score__min__energy>  (52) 
-7.1299999999999999

>  <m_primary>  (52) 
energy

$$$$
52:0
     RDKit          3D

 50 52  0  0  0  0  0  0  0  0999 V2000
  149.6040  152.5670  132.3940 C   0  0  0  0  0  0  0  0  0  0  0  0
  149.3500  153.8780  132.3780 C   0  0  0  0  0  0  0  0  0  0  0  0
  148.5180  154.5220  133.4460 C   0  0  0  0  0  0  0  0  0  0  0  0
  148.3800  155.9130  133.1700 O   0  0  0  0  0  0  0  0  0  0  0  0
  147.2300  156.4590  132.5880 C   0  0  0  0  0  0  0  0  0  0  0  0
  146.4400  155.7160  131.9420 O   0  0  0  0  0  0  0  0  0  0  0  0
  146.9500  157.8630  132.7310 N   0  0  0  0  0  0  0  0  0  0  0  0
  147.7090  158.9070  132.2880 C   0  0  0  0  0  0  0  0  0  0  0  0
  149.0610  158.8120  131.7030 C   0  0  0  0  0  0  0  0  0  0  0  0
  150.0360  157.9130  132.2340 N   0  0  0  0  0  0  0  0  0  0  0  0
  149.3800  159.5780  130.7540 O   0  0  0  0  0  0  0  0  0  0  0  0
  147.0640  160.1190  132.5120 C   0  0  0  0  0  0  0  0  0  0  0  0
  145.8800  159.7920  133.1320 C   0  0  0  0  0  0  0  0  0  0  0  0
  144.8520  160.6150  133.5800 C   0  0  0  0  0  0  0  0  0  0  0  0
  143.7320  160.0070  134.1680 C   0  0  0  0  0  0  0  0  0  0  0  0
  143.6520  158.5970  134.2890 C   0  0  0  0  0  0  0  0  0  0  0  0
  142.4870  157.9860  134.8750 N   0  0  0  0  0  0  0  0  0  0  0  0
  141.6980  158.6890  135.8920 C   0  0  0  0  0  0  0  0  0  0  0  0
  140.2030  158.6770  135.5210 C   0  0  0  0  0  0  0  0  0  0  0  0
  139.7670  157.4620  134.7880 N   0  0  0  0  0  0  0  0  0  0  0  0
  139.4630  157.8010  133.0950 S   0  0  0  0  0  0  0  0  0  0  0  0
  140.6480  158.9980  132.5180 C   0  0  0  0  0  0  0  0  0  0  0  0
  138.0840  158.3720  132.9130 O   0  0  0  0  0  0  0  0  0  0  0  0
  139.5910  156.5470  132.2750 O   0  0  0  0  0  0  0  0  0  0  0  0
  140.6700  156.3070  134.9620 C   0  0  0  0  0  0  0  0  0  0  0  0
  142.1000  156.6230  134.4950 C   0  0  0  0  0  0  0  0  0  0  0  0
  144.7110  157.7940  133.8100 C   0  0  0  0  0  0  0  0  0  0  0  0
  145.8300  158.4260  133.2510 C   0  0  0  0  0  0  0  0  0  0  0  0
  150.2171  152.1158  131.5999 H   0  0  0  0  0  0  0  0  0  0  0  0
  149.2002  151.9383  133.2013 H   0  0  0  0  0  0  0  0  0  0  0  0
  149.7590  154.4970  131.5659 H   0  0  0  0  0  0  0  0  0  0  0  0
  147.5234  154.0527  133.4682 H   0  0  0  0  0  0  0  0  0  0  0  0
  149.0091  154.3899  134.4214 H   0  0  0  0  0  0  0  0  0  0  0  0
  149.8490  157.3680  133.1060 H   0  0  0  0  0  0  0  0  0  0  0  0
  150.9730  157.8300  131.7780 H   0  0  0  0  0  0  0  0  0  0  0  0
  147.4239  161.1247  132.2494 H   0  0  0  0  0  0  0  0  0  0  0  0
  144.9149  161.7083  133.4767 H   0  0  0  0  0  0  0  0  0  0  0  0
  142.9065  160.6321  134.5393 H   0  0  0  0  0  0  0  0  0  0  0  0
  141.8336  158.1907  136.8632 H   0  0  0  0  0  0  0  0  0  0  0  0
  142.0413  159.7325  135.9490 H   0  0  0  0  0  0  0  0  0  0  0  0
  139.6168  158.7488  136.4490 H   0  0  0  0  0  0  0  0  0  0  0  0
  140.0384  159.5294  134.8455 H   0  0  0  0  0  0  0  0  0  0  0  0
  141.1285  159.4834  133.3803 H   0  0  0  0  0  0  0  0  0  0  0  0
  141.4121  158.4932  131.9086 H   0  0  0  0  0  0  0  0  0  0  0  0
  140.1355  159.7570  131.9086 H   0  0  0  0  0  0  0  0  0  0  0  0
  140.6959  156.0330  136.0270 H   0  0  0  0  0  0  0  0  0  0  0  0
  140.2861  155.4783  134.3489 H   0  0  0  0  0  0  0  0  0  0  0  0
  142.7962  155.9087  134.9588 H   0  0  0  0  0  0  0  0  0  0  0  0
  142.1374  156.5404  133.3987 H   0  0  0  0  0  0  0  0  0  0  0  0
  144.6585  156.6971  133.8743 H   0  0  0  0  0  0  0  0  0  0  0  0
  1  2  2  0
  2  3  1  0
  3  4  1  0
  4  5  1  0
  5  6  2  0
  5  7  1  0
  7  8  1  0
  8  9  1  0
  9 10  1  0
  9 11  2  0
  8 12  2  0
 12 13  1  0
 13 14  2  0
 14 15  1  0
 15 16  2  0
 16 17  1  0
 17 18  1  0
 18 19  1  0
 19 20  1  0
 20 21  1  0
 21 22  1  0
 21 23  2  0
 21 24  2  0
 20 25  1  0
 25 26  1  0
 16 27  1  0
 27 28  2  0
 28  7  1  0
 28 13  1  0
 26 17  1  0
  1 29  1  0
  1 30  1  0
  2 31  1  0
  3 32  1  0
  3 33  1  0
 10 34  1  0
 10 35  1  0
 12 36  1  0
 14 37  1  0
 15 38  1  0
 18 39  1  0
 18 40  1  0
 19 41  1  0
 19 42  1  0
 22 43  1  0
 22 44  1  0
 22 45  1  0
 25 46  1  0
 25 47  1  0
 26 48  1  0
 26 49  1  0
 27 50  1  0
M  END
>  <UniqueID>  (53) 
53

>  <SMILES>  (53) 
C=CCOC(=O)n1c(C(N)=O)cc2ccc(N3CCN(S(C)(=O)=O)CC3)cc21

>  <Energy>  (53) 
91.13298863902995

>  <Genealogy>  (53) 
C=CCOC(=O)n1c(C(N)=O)cc2ccc(N3CCN(S(C)(=O)=O)CC3)cc21 (3D coordinates assigned)
C=CCOC(=O)n1c(C(N)=O)cc2ccc(N3CCN(S(C)(=O)=O)CC3)cc21 (nonaromatic ring conformer: 91.13298863902995 kcal/mol)

>  <smiles>  (53) 
C=CCOC(=O)n1c(C(N)=O)cc2ccc(N3CCN(S(C)(=O)=O)CC3)cc21

>  <score_type>  (53) 
oracle

>  <origin>  (53) 
adg

>  <m_score__min__energy>  (53) 
-8.4199999999999999

>  <m_primary>  (53) 
energy

$$$$
53:0
     RDKit          3D

 39 41  0  0  0  0  0  0  0  0999 V2000
  140.6290  153.0080  140.3240 N   0  0  0  0  0  0  0  0  0  0  0  0
  141.8460  152.8070  139.6120 C   0  0  0  0  0  0  0  0  0  0  0  0
  142.8830  152.4750  140.2460 O   0  0  0  0  0  0  0  0  0  0  0  0
  141.8960  152.9230  138.1390 C   0  0  0  0  0  0  0  0  0  0  0  0
  142.5750  153.9420  137.4750 C   0  0  0  0  0  0  0  0  0  0  0  0
  142.4600  153.6460  136.1370 C   0  0  0  0  0  0  0  0  0  0  0  0
  142.9410  154.3310  135.0250 C   0  0  0  0  0  0  0  0  0  0  0  0
  142.6520  153.8070  133.7540 C   0  0  0  0  0  0  0  0  0  0  0  0
  141.8930  152.6180  133.6170 C   0  0  0  0  0  0  0  0  0  0  0  0
  141.5880  152.0620  132.2480 C   0  0  0  0  0  0  0  0  0  0  0  0
  141.7240  150.5620  132.2300 C   0  0  0  0  0  0  0  0  0  0  0  0
  142.8440  150.0560  132.5140 O   0  0  0  0  0  0  0  0  0  0  0  0
  140.6320  149.7030  131.8440 N   0  0  0  0  0  0  0  0  0  0  0  0
  139.2340  150.0360  132.1510 C   0  0  0  0  0  0  0  0  0  0  0  0
  138.2970  149.6050  130.9970 C   0  0  0  0  0  0  0  0  0  0  0  0
  138.8990  148.7320  130.0550 O   0  0  0  0  0  0  0  0  0  0  0  0
  139.6630  147.7450  130.7130 C   0  0  0  0  0  0  0  0  0  0  0  0
  140.9330  148.3850  131.2760 C   0  0  0  0  0  0  0  0  0  0  0  0
  141.4070  151.9600  134.7700 C   0  0  0  0  0  0  0  0  0  0  0  0
  141.7290  152.4910  136.0250 C   0  0  0  0  0  0  0  0  0  0  0  0
  141.3710  152.0360  137.2460 N   0  0  0  0  0  0  0  0  0  0  0  0
  140.5400  150.8960  137.5160 C   0  0  0  0  0  0  0  0  0  0  0  0
  140.3600  150.0160  136.6330 O   0  0  0  0  0  0  0  0  0  0  0  0
  139.9450  150.7410  138.7620 O   0  0  0  0  0  0  0  0  0  0  0  0
  139.8470  152.3210  140.2570 H   0  0  0  0  0  0  0  0  0  0  0  0
  143.0933  154.8013  137.9254 H   0  0  0  0  0  0  0  0  0  0  0  0
  143.5290  155.2538  135.1378 H   0  0  0  0  0  0  0  0  0  0  0  0
  143.0187  154.3251  132.8556 H   0  0  0  0  0  0  0  0  0  0  0  0
  140.5584  152.3328  131.9713 H   0  0  0  0  0  0  0  0  0  0  0  0
  142.3053  152.4868  131.5303 H   0  0  0  0  0  0  0  0  0  0  0  0
  138.9337  149.5152  133.0722 H   0  0  0  0  0  0  0  0  0  0  0  0
  139.1528  151.1252  132.2813 H   0  0  0  0  0  0  0  0  0  0  0  0
  137.4254  149.0946  131.4326 H   0  0  0  0  0  0  0  0  0  0  0  0
  138.0256  150.5207  130.4512 H   0  0  0  0  0  0  0  0  0  0  0  0
  139.0743  147.3110  131.5346 H   0  0  0  0  0  0  0  0  0  0  0  0
  139.9333  146.9511  130.0012 H   0  0  0  0  0  0  0  0  0  0  0  0
  141.3473  147.7373  132.0626 H   0  0  0  0  0  0  0  0  0  0  0  0
  141.6632  148.5052  130.4622 H   0  0  0  0  0  0  0  0  0  0  0  0
  140.7908  151.0529  134.6834 H   0  0  0  0  0  0  0  0  0  0  0  0
  1  2  1  0
  2  3  2  0
  2  4  1  0
  4  5  2  0
  5  6  1  0
  6  7  2  0
  7  8  1  0
  8  9  2  0
  9 10  1  0
 10 11  1  0
 11 12  2  0
 11 13  1  0
 13 14  1  0
 14 15  1  0
 15 16  1  0
 16 17  1  0
 17 18  1  0
  9 19  1  0
 19 20  2  0
 20 21  1  0
 21 22  1  0
 22 23  2  0
 22 24  1  0
 21  4  1  0
 20  6  1  0
 18 13  1  0
  1 25  1  0
  5 26  1  0
  7 27  1  0
  8 28  1  0
 10 29  1  0
 10 30  1  0
 14 31  1  0
 14 32  1  0
 15 33  1  0
 15 34  1  0
 17 35  1  0
 17 36  1  0
 18 37  1  0
 18 38  1  0
 19 39  1  0
M  CHG  2   1  -1  24  -1
M  END
>  <UniqueID>  (54) 
54

>  <SMILES>  (54) 
[NH-]C(=O)c1cc2ccc(CC(=O)N3CCOCC3)cc2n1C(=O)[O-]

>  <Energy>  (54) 
86.38751270957502

>  <Genealogy>  (54) 
[NH-]C(=O)c1cc2ccc(CC(=O)N3CCOCC3)cc2n1C(=O)[O-] (protonated)
[NH-]C(=O)c1cc2ccc(CC(=O)N3CCOCC3)cc2n1C(=O)[O-] (3D coordinates assigned)
[NH-]C(=O)c1cc2ccc(CC(=O)N3CCOCC3)cc2n1C(=O)[O-] (nonaromatic ring conformer: 86.38751270957502 kcal/mol)

>  <smiles>  (54) 
NC(=O)c1cc2ccc(CC(=O)N3CCOCC3)cc2n1C(=O)O

>  <score_type>  (54) 
oracle

>  <origin>  (54) 
adg

>  <m_score__min__energy>  (54) 
-7.2699999999999996

>  <m_primary>  (54) 
energy

$$$$
54:0
     RDKit          3D

 33 35  0  0  0  0  0  0  0  0999 V2000
  150.1350  150.6610  130.7910 C   0  0  0  0  0  0  0  0  0  0  0  0
  149.4330  150.4440  132.4560 S   0  0  0  0  0  0  0  0  0  0  0  0
  148.9700  152.1640  132.6080 C   0  0  0  0  0  0  0  0  0  0  0  0
  147.6790  152.5000  132.8580 N   0  0  0  0  0  0  0  0  0  0  0  0
  147.3050  153.8000  132.9790 C   0  0  0  0  0  0  0  0  0  0  0  0
  148.2540  154.8240  132.8400 C   0  0  0  0  0  0  0  0  0  0  0  0
  147.8700  156.2530  132.9670 C   0  0  0  0  0  0  0  0  0  0  0  0
  148.8550  157.2710  132.8910 C   0  0  0  0  0  0  0  0  0  0  0  0
  148.5040  158.6240  133.0220 C   0  0  0  0  0  0  0  0  0  0  0  0
  147.1630  158.9350  133.2200 C   0  0  0  0  0  0  0  0  0  0  0  0
  146.5560  160.1550  133.4060 C   0  0  0  0  0  0  0  0  0  0  0  0
  145.2020  159.8720  133.5680 C   0  0  0  0  0  0  0  0  0  0  0  0
  144.1670  160.9180  133.7120 C   0  0  0  0  0  0  0  0  0  0  0  0
  142.8100  160.6620  133.3610 N   0  0  0  0  0  0  0  0  0  0  0  0
  144.4950  162.0700  134.1040 O   0  0  0  0  0  0  0  0  0  0  0  0
  144.9810  158.5290  133.4950 N   0  0  0  0  0  0  0  0  0  0  0  0
  143.7430  157.8260  133.6940 C   0  0  0  0  0  0  0  0  0  0  0  0
  142.8460  157.8540  132.8110 O   0  0  0  0  0  0  0  0  0  0  0  0
  143.5130  157.1310  134.8750 O   0  0  0  0  0  0  0  0  0  0  0  0
  146.1920  157.9690  133.2780 C   0  0  0  0  0  0  0  0  0  0  0  0
  146.5150  156.6120  133.1700 C   0  0  0  0  0  0  0  0  0  0  0  0
  149.5800  154.4480  132.5760 C   0  0  0  0  0  0  0  0  0  0  0  0
  149.9090  153.1340  132.4670 N   0  0  0  0  0  0  0  0  0  0  0  0
  151.1829  150.9849  130.8743 H   0  0  0  0  0  0  0  0  0  0  0  0
  150.0884  149.7065  130.2462 H   0  0  0  0  0  0  0  0  0  0  0  0
  149.5579  151.4227  130.2462 H   0  0  0  0  0  0  0  0  0  0  0  0
  146.2543  154.0510  133.1867 H   0  0  0  0  0  0  0  0  0  0  0  0
  149.9076  156.9967  132.7273 H   0  0  0  0  0  0  0  0  0  0  0  0
  149.2670  159.4146  132.9696 H   0  0  0  0  0  0  0  0  0  0  0  0
  147.0375  161.1439  133.4232 H   0  0  0  0  0  0  0  0  0  0  0  0
  142.5700  159.9980  132.5920 H   0  0  0  0  0  0  0  0  0  0  0  0
  145.7338  155.8409  133.2412 H   0  0  0  0  0  0  0  0  0  0  0  0
  150.3553  155.2191  132.4570 H   0  0  0  0  0  0  0  0  0  0  0  0
  1  2  1  0
  2  3  1  0
  3  4  2  0
  4  5  1  0
  5  6  2  0
  6  7  1  0
  7  8  2  0
  8  9  1  0
  9 10  2  0
 10 11  1  0
 11 12  2  0
 12 13  1  0
 13 14  1  0
 13 15  2  0
 12 16  1  0
 16 17  1  0
 17 18  2  0
 17 19  1  0
 16 20  1  0
 20 21  2  0
  6 22  1  0
 22 23  2  0
 23  3  1  0
 21  7  1  0
 20 10  1  0
  1 24  1  0
  1 25  1  0
  1 26  1  0
  5 27  1  0
  8 28  1  0
  9 29  1  0
 11 30  1  0
 14 31  1  0
 21 32  1  0
 22 33  1  0
M  CHG  2  14  -1  19  -1
M  END
>  <UniqueID>  (55) 
55

>  <SMILES>  (55) 
CSc1ncc(-c2ccc3cc(C([NH-])=O)n(C(=O)[O-])c3c2)cn1

>  <Energy>  (55) 
77.8622047037718

>  <Genealogy>  (55) 
CSc1ncc(-c2ccc3cc(C([NH-])=O)n(C(=O)[O-])c3c2)cn1 (protonated)
CSc1ncc(-c2ccc3cc(C([NH-])=O)n(C(=O)[O-])c3c2)cn1 (3D coordinates assigned)
CSc1ncc(-c2ccc3cc(C([NH-])=O)n(C(=O)[O-])c3c2)cn1 (optimized conformer: 77.8622047037718 kcal/mol)

>  <smiles>  (55) 
CSc1ncc(-c2ccc3cc(C(N)=O)n(C(=O)O)c3c2)cn1

>  <score_type>  (55) 
oracle

>  <origin>  (55) 
adg

>  <m_score__min__energy>  (55) 
-7.3899999999999997

>  <m_primary>  (55) 
energy

$$$$
55:0
     RDKit          3D

 47 48  0  0  0  0  0  0  0  0999 V2000
  145.1640  157.3780  133.9550 C   0  0  0  0  0  0  0  0  0  0  0  0
  144.7320  158.6410  133.2780 C   0  0  0  0  0  0  0  0  0  0  0  0
  145.5410  159.2440  132.5240 O   0  0  0  0  0  0  0  0  0  0  0  0
  143.4150  159.1740  133.4880 N   0  0  0  0  0  0  0  0  0  0  0  0
  143.0710  160.4690  133.7380 C   0  0  0  0  0  0  0  0  0  0  0  0
  143.9900  161.6280  133.7380 C   0  0  0  0  0  0  0  0  0  0  0  0
  145.3770  161.4680  134.0260 N   0  0  0  0  0  0  0  0  0  0  0  0
  143.5500  162.7720  133.4480 O   0  0  0  0  0  0  0  0  0  0  0  0
  141.6950  160.5770  133.9360 C   0  0  0  0  0  0  0  0  0  0  0  0
  141.2040  159.2990  133.7990 C   0  0  0  0  0  0  0  0  0  0  0  0
  139.8990  158.8230  133.8990 C   0  0  0  0  0  0  0  0  0  0  0  0
  139.6860  157.4450  133.7290 C   0  0  0  0  0  0  0  0  0  0  0  0
  140.7750  156.5710  133.4830 C   0  0  0  0  0  0  0  0  0  0  0  0
  140.5430  155.0960  133.2890 C   0  0  0  0  0  0  0  0  0  0  0  0
  141.5460  154.2730  134.0620 C   0  0  0  0  0  0  0  0  0  0  0  0
  141.9240  154.6940  135.1910 O   0  0  0  0  0  0  0  0  0  0  0  0
  142.1320  153.0570  133.5320 N   0  0  0  0  0  0  0  0  0  0  0  0
  143.3430  153.1680  132.7130 C   0  0  0  0  0  0  0  0  0  0  0  0
  141.5370  151.7240  133.7370 C   0  0  0  0  0  0  0  0  0  0  0  0
  140.8610  151.1970  132.4550 C   0  0  2  0  0  0  0  0  0  0  0  0
  139.4770  151.4100  132.5620 O   0  0  0  0  0  0  0  0  0  0  0  0
  141.1370  149.7050  132.2330 C   0  0  0  0  0  0  0  0  0  0  0  0
  139.9660  148.9480  132.5210 O   0  0  0  0  0  0  0  0  0  0  0  0
  138.9940  148.7120  131.5670 N   0  0  0  0  0  0  0  0  0  0  0  0
  139.0350  147.6930  130.8460 O   0  0  0  0  0  0  0  0  0  0  0  0
  137.9500  149.5940  131.4340 O   0  0  0  0  0  0  0  0  0  0  0  0
  142.0840  157.0920  133.3850 C   0  0  0  0  0  0  0  0  0  0  0  0
  142.2640  158.4710  133.5330 C   0  0  0  0  0  0  0  0  0  0  0  0
  145.1180  157.5125  135.0458 H   0  0  0  0  0  0  0  0  0  0  0  0
  144.4959  156.5560  133.6584 H   0  0  0  0  0  0  0  0  0  0  0  0
  146.1956  157.1373  133.6584 H   0  0  0  0  0  0  0  0  0  0  0  0
  146.0600  161.2360  133.2700 H   0  0  0  0  0  0  0  0  0  0  0  0
  141.1230  161.4906  134.1553 H   0  0  0  0  0  0  0  0  0  0  0  0
  139.0609  159.5051  134.1048 H   0  0  0  0  0  0  0  0  0  0  0  0
  138.6649  157.0402  133.7873 H   0  0  0  0  0  0  0  0  0  0  0  0
  139.5301  154.8444  133.6366 H   0  0  0  0  0  0  0  0  0  0  0  0
  140.6577  154.8657  132.2195 H   0  0  0  0  0  0  0  0  0  0  0  0
  144.2228  153.2486  133.3684 H   0  0  0  0  0  0  0  0  0  0  0  0
  143.4394  152.2749  132.0781 H   0  0  0  0  0  0  0  0  0  0  0  0
  143.2754  154.0637  132.0781 H   0  0  0  0  0  0  0  0  0  0  0  0
  142.3295  151.0222  134.0363 H   0  0  0  0  0  0  0  0  0  0  0  0
  140.7686  151.8085  134.5196 H   0  0  0  0  0  0  0  0  0  0  0  0
  141.2761  151.7392  131.5926 H   0  0  0  0  0  0  0  0  0  0  0  0
  139.0920  150.6050  132.9980 H   0  0  0  0  0  0  0  0  0  0  0  0
  141.4296  149.5400  131.1856 H   0  0  0  0  0  0  0  0  0  0  0  0
  141.9497  149.3835  132.9009 H   0  0  0  0  0  0  0  0  0  0  0  0
  142.9414  156.4291  133.1968 H   0  0  0  0  0  0  0  0  0  0  0  0
  1  2  1  0
  2  3  2  0
  2  4  1  0
  4  5  1  0
  5  6  1  0
  6  7  1  0
  6  8  2  0
  5  9  2  0
  9 10  1  0
 10 11  2  0
 11 12  1  0
 12 13  2  0
 13 14  1  0
 14 15  1  0
 15 16  2  0
 15 17  1  0
 17 18  1  0
 17 19  1  0
 19 20  1  0
 20 21  1  0
 20 22  1  0
 22 23  1  0
 23 24  1  0
 24 25  2  0
 24 26  1  0
 13 27  1  0
 27 28  2  0
 28  4  1  0
 28 10  1  0
  1 29  1  0
  1 30  1  0
  1 31  1  0
  7 32  1  0
  9 33  1  0
 11 34  1  0
 12 35  1  0
 14 36  1  0
 14 37  1  0
 18 38  1  0
 18 39  1  0
 18 40  1  0
 19 41  1  0
 19 42  1  0
 20 43  1  6
 21 44  1  0
 22 45  1  0
 22 46  1  0
 27 47  1  0
M  CHG  3   7  -1  24   1  26  -1
M  END
>  <UniqueID>  (56) 
56

>  <SMILES>  (56) 
CC(=O)n1c(C([NH-])=O)cc2ccc(CC(=O)N(C)C[C@H](O)CO[N+](=O)[O-])cc21

>  <Energy>  (56) 
78.70952886244939

>  <Genealogy>  (56) 
CC(=O)n1c(C([NH-])=O)cc2ccc(CC(=O)N(C)C[C@H](O)CO[N+](=O)[O-])cc21 (protonated)
CC(=O)n1c(C([NH-])=O)cc2ccc(CC(=O)N(C)C[C@H](O)CO[N+](=O)[O-])cc21 (3D coordinates assigned)
CC(=O)n1c(C([NH-])=O)cc2ccc(CC(=O)N(C)C[C@H](O)CO[N+](=O)[O-])cc21 (optimized conformer: 78.70952886244939 kcal/mol)

>  <smiles>  (56) 
CC(=O)n1c(C(N)=O)cc2ccc(CC(=O)N(C)C[C@H](O)CO[N+](=O)[O-])cc21

>  <score_type>  (56) 
oracle

>  <origin>  (56) 
adg

>  <m_score__min__energy>  (56) 
-8.0899999999999999

>  <m_primary>  (56) 
energy

$$$$
56:0
     RDKit          3D

 39 41  0  0  0  0  0  0  0  0999 V2000
  148.8190  159.7430  130.1570 C   0  0  0  0  0  0  0  0  0  0  0  0
  149.0340  159.9520  131.6000 N   0  0  0  0  0  0  0  0  0  0  0  0
  149.7280  158.8100  132.2270 C   0  0  0  0  0  0  0  0  0  0  0  0
  148.8440  157.5490  132.3160 C   0  0  0  0  0  0  0  0  0  0  0  0
  147.3630  157.8690  132.5880 C   0  0  0  0  0  0  0  0  0  0  0  0
  147.1920  159.2580  133.2190 C   0  0  2  0  0  0  0  0  0  0  0  0
  145.7390  159.5410  133.5580 C   0  0  0  0  0  0  0  0  0  0  0  0
  145.3030  160.8810  133.7310 C   0  0  0  0  0  0  0  0  0  0  0  0
  143.9670  161.1670  134.0560 C   0  0  0  0  0  0  0  0  0  0  0  0
  143.0860  160.1000  134.1930 C   0  0  0  0  0  0  0  0  0  0  0  0
  141.7500  160.0930  134.5230 C   0  0  0  0  0  0  0  0  0  0  0  0
  141.3760  158.7510  134.5240 C   0  0  0  0  0  0  0  0  0  0  0  0
  139.9880  158.2950  134.7490 C   0  0  0  0  0  0  0  0  0  0  0  0
  139.4940  158.1590  136.0800 N   0  0  0  0  0  0  0  0  0  0  0  0
  139.2210  158.0570  133.7790 O   0  0  0  0  0  0  0  0  0  0  0  0
  142.4410  157.9570  134.2140 N   0  0  0  0  0  0  0  0  0  0  0  0
  142.4890  156.5220  134.1670 C   0  0  0  0  0  0  0  0  0  0  0  0
  141.6920  155.8820  133.4330 O   0  0  0  0  0  0  0  0  0  0  0  0
  143.3990  155.8250  134.9520 O   0  0  0  0  0  0  0  0  0  0  0  0
  143.4800  158.8000  134.0120 C   0  0  0  0  0  0  0  0  0  0  0  0
  144.8080  158.4840  133.7060 C   0  0  0  0  0  0  0  0  0  0  0  0
  147.7880  160.3590  132.3050 C   0  0  0  0  0  0  0  0  0  0  0  0
  148.0374  158.9832  130.0090 H   0  0  0  0  0  0  0  0  0  0  0  0
  148.5035  160.6889  129.6925 H   0  0  0  0  0  0  0  0  0  0  0  0
  149.7556  159.4009  129.6925 H   0  0  0  0  0  0  0  0  0  0  0  0
  150.6214  158.5716  131.6312 H   0  0  0  0  0  0  0  0  0  0  0  0
  149.9891  159.1046  133.2542 H   0  0  0  0  0  0  0  0  0  0  0  0
  148.9153  157.0033  131.3635 H   0  0  0  0  0  0  0  0  0  0  0  0
  149.2112  156.9495  133.1620 H   0  0  0  0  0  0  0  0  0  0  0  0
  146.8106  157.8383  131.6372 H   0  0  0  0  0  0  0  0  0  0  0  0
  146.9729  157.1202  133.2931 H   0  0  0  0  0  0  0  0  0  0  0  0
  147.7529  159.2679  134.1652 H   0  0  0  0  0  0  0  0  0  0  0  0
  146.0207  161.7056  133.6089 H   0  0  0  0  0  0  0  0  0  0  0  0
  143.6278  162.2037  134.1979 H   0  0  0  0  0  0  0  0  0  0  0  0
  141.1125  160.9628  134.7400 H   0  0  0  0  0  0  0  0  0  0  0  0
  139.1130  158.9820  136.5980 H   0  0  0  0  0  0  0  0  0  0  0  0
  145.1224  157.4371  133.5830 H   0  0  0  0  0  0  0  0  0  0  0  0
  147.0347  160.6264  131.5493 H   0  0  0  0  0  0  0  0  0  0  0  0
  148.0530  161.2045  132.9568 H   0  0  0  0  0  0  0  0  0  0  0  0
  1  2  1  0
  2  3  1  0
  3  4  1  0
  4  5  1  0
  5  6  1  0
  6  7  1  0
  7  8  2  0
  8  9  1  0
  9 10  2  0
 10 11  1  0
 11 12  2  0
 12 13  1  0
 13 14  1  0
 13 15  2  0
 12 16  1  0
 16 17  1  0
 17 18  2  0
 17 19  1  0
 16 20  1  0
 20 21  2  0
  6 22  1  0
 22  2  1  0
 21  7  1  0
 20 10  1  0
  1 23  1  0
  1 24  1  0
  1 25  1  0
  3 26  1  0
  3 27  1  0
  4 28  1  0
  4 29  1  0
  5 30  1  0
  5 31  1  0
  6 32  1  1
  8 33  1  0
  9 34  1  0
 11 35  1  0
 14 36  1  0
 21 37  1  0
 22 38  1  0
 22 39  1  0
M  CHG  2  14  -1  19  -1
M  END
>  <UniqueID>  (57) 
57

>  <SMILES>  (57) 
CN1CCC[C@H](c2ccc3cc(C([NH-])=O)n(C(=O)[O-])c3c2)C1

>  <Energy>  (57) 
88.95549232933047

>  <Genealogy>  (57) 
CN1CCCC(c2ccc3cc(C([NH-])=O)n(C(=O)[O-])c3c2)C1 (protonated)
CN1CCC[C@H](c2ccc3cc(C([NH-])=O)n(C(=O)[O-])c3c2)C1 (chirality)
CN1CCC[C@H](c2ccc3cc(C([NH-])=O)n(C(=O)[O-])c3c2)C1 (3D coordinates assigned)
CN1CCC[C@H](c2ccc3cc(C([NH-])=O)n(C(=O)[O-])c3c2)C1 (nonaromatic ring conformer: 88.95549232933047 kcal/mol)

>  <smiles>  (57) 
CN1CCCC(c2ccc3cc(C(N)=O)n(C(=O)O)c3c2)C1

>  <score_type>  (57) 
oracle

>  <origin>  (57) 
adg

>  <m_score__min__energy>  (57) 
-7.6900000000000004

>  <m_primary>  (57) 
energy

$$$$
57:0
     RDKit          3D

 36 37  0  0  0  0  0  0  0  0999 V2000
  149.6450  157.4500  132.2210 N   0  0  0  0  0  0  0  0  0  0  0  0
  149.1080  158.7700  132.2450 C   0  0  0  0  0  0  0  0  0  0  0  0
  149.8050  159.7280  131.8170 O   0  0  0  0  0  0  0  0  0  0  0  0
  147.7350  159.0220  132.7300 C   0  0  0  0  0  0  0  0  0  0  0  0
  147.2440  160.2900  133.0430 C   0  0  0  0  0  0  0  0  0  0  0  0
  145.9230  160.0960  133.3790 C   0  0  0  0  0  0  0  0  0  0  0  0
  144.9580  161.0090  133.7960 C   0  0  0  0  0  0  0  0  0  0  0  0
  143.6790  160.5180  134.1100 C   0  0  0  0  0  0  0  0  0  0  0  0
  143.3830  159.1350  133.9990 C   0  0  0  0  0  0  0  0  0  0  0  0
  142.0080  158.6240  134.3870 C   0  0  1  0  0  0  0  0  0  0  0  0
  141.6480  159.0510  135.7880 C   0  0  0  0  0  0  0  0  0  0  0  0
  140.9650  160.0460  135.9700 O   0  0  0  0  0  0  0  0  0  0  0  0
  140.9440  159.0750  133.3690 C   0  0  0  0  0  0  0  0  0  0  0  0
  141.1560  158.4810  132.1360 F   0  0  0  0  0  0  0  0  0  0  0  0
  140.9940  160.4500  133.2160 F   0  0  0  0  0  0  0  0  0  0  0  0
  139.6830  158.7290  133.8210 F   0  0  0  0  0  0  0  0  0  0  0  0
  144.3940  158.2390  133.5740 C   0  0  0  0  0  0  0  0  0  0  0  0
  145.6550  158.7580  133.2650 C   0  0  0  0  0  0  0  0  0  0  0  0
  146.7560  158.0860  132.8740 N   0  0  0  0  0  0  0  0  0  0  0  0
  146.8680  156.6620  132.7490 C   0  0  0  0  0  0  0  0  0  0  0  0
  146.9830  156.1430  131.6060 O   0  0  0  0  0  0  0  0  0  0  0  0
  146.7410  155.7810  133.9540 C   0  0  0  0  0  0  0  0  0  0  0  0
  147.7980  154.3120  133.7750 P   0  0  2  0  0  0  0  0  0  0  0  0
  147.0290  153.2070  133.0890 O   0  0  0  0  0  0  0  0  0  0  0  0
  148.2730  153.7860  135.3100 O   0  0  0  0  0  0  0  0  0  0  0  0
  149.1770  154.6950  132.8710 O   0  0  0  0  0  0  0  0  0  0  0  0
  149.0840  156.6490  131.8580 H   0  0  0  0  0  0  0  0  0  0  0  0
  147.7950  161.2419  133.0251 H   0  0  0  0  0  0  0  0  0  0  0  0
  145.1894  162.0813  133.8772 H   0  0  0  0  0  0  0  0  0  0  0  0
  142.8974  161.2152  134.4462 H   0  0  0  0  0  0  0  0  0  0  0  0
  142.0362  157.5245  134.3723 H   0  0  0  0  0  0  0  0  0  0  0  0
  142.0020  158.4640  136.6483 H   0  0  0  0  0  0  0  0  0  0  0  0
  144.1921  157.1610  133.4891 H   0  0  0  0  0  0  0  0  0  0  0  0
  147.0485  156.3427  134.8484 H   0  0  0  0  0  0  0  0  0  0  0  0
  145.6939  155.4588  134.0533 H   0  0  0  0  0  0  0  0  0  0  0  0
  148.8960  155.4290  132.2700 H   0  0  0  0  0  0  0  0  0  0  0  0
  1  2  1  0
  2  3  2  0
  2  4  1  0
  4  5  2  0
  5  6  1  0
  6  7  2  0
  7  8  1  0
  8  9  2  0
  9 10  1  0
 10 11  1  0
 11 12  2  0
 10 13  1  0
 13 14  1  0
 13 15  1  0
 13 16  1  0
  9 17  1  0
 17 18  2  0
 18 19  1  0
 19 20  1  0
 20 21  2  0
 20 22  1  0
 22 23  1  0
 23 24  2  0
 23 25  1  1
 23 26  1  0
 19  4  1  0
 18  6  1  0
  1 27  1  0
  5 28  1  0
  7 29  1  0
  8 30  1  0
 10 31  1  1
 11 32  1  0
 17 33  1  0
 22 34  1  0
 22 35  1  0
 26 36  1  0
M  CHG  2   1  -1  25  -1
M  END
>  <UniqueID>  (58) 
58

>  <SMILES>  (58) 
[NH-]C(=O)c1cc2ccc([C@@H](C=O)C(F)(F)F)cc2n1C(=O)C[P@](=O)([O-])O

>  <Energy>  (58) 
67.83331640787068

>  <Genealogy>  (58) 
[NH-]C(=O)c1cc2ccc(C(C=O)C(F)(F)F)cc2n1C(=O)CP(=O)([O-])O (protonated)
[NH-]C(=O)c1cc2ccc([C@@H](C=O)C(F)(F)F)cc2n1C(=O)C[P@](=O)([O-])O (chirality)
[NH-]C(=O)c1cc2ccc([C@@H](C=O)C(F)(F)F)cc2n1C(=O)C[P@](=O)([O-])O (3D coordinates assigned)
[NH-]C(=O)c1cc2ccc([C@@H](C=O)C(F)(F)F)cc2n1C(=O)C[P@](=O)([O-])O (optimized conformer: 67.83331640787068 kcal/mol)

>  <smiles>  (58) 
NC(=O)c1cc2ccc(C(C=O)C(F)(F)F)cc2n1C(=O)CP(=O)(O)O

>  <score_type>  (58) 
oracle

>  <origin>  (58) 
adg

>  <m_score__min__energy>  (58) 
-5.8099999999999996

>  <m_primary>  (58) 
energy

$$$$
58:0
     RDKit          3D

 36 37  0  0  0  0  0  0  0  0999 V2000
  145.2990  161.4780  134.1260 C   0  0  0  0  0  0  0  0  0  0  0  0
  144.8060  160.2470  133.3570 C   0  0  0  0  0  0  0  0  0  0  0  0
  143.6290  159.5790  134.0780 C   0  0  0  0  0  0  0  0  0  0  0  0
  145.9330  159.2600  133.1240 C   0  0  0  0  0  0  0  0  0  0  0  0
  147.2090  159.7010  132.6800 C   0  0  0  0  0  0  0  0  0  0  0  0
  148.2570  158.7860  132.4790 C   0  0  0  0  0  0  0  0  0  0  0  0
  148.0030  157.4390  132.7210 C   0  0  0  0  0  0  0  0  0  0  0  0
  148.8400  156.3500  132.6380 C   0  0  0  0  0  0  0  0  0  0  0  0
  148.0590  155.2570  133.0100 C   0  0  0  0  0  0  0  0  0  0  0  0
  148.5540  153.8650  133.0150 C   0  0  0  0  0  0  0  0  0  0  0  0
  147.8480  152.8270  133.6980 N   0  0  0  0  0  0  0  0  0  0  0  0
  149.5960  153.5760  132.3690 O   0  0  0  0  0  0  0  0  0  0  0  0
  146.7960  155.6590  133.3220 N   0  0  0  0  0  0  0  0  0  0  0  0
  145.7250  154.8710  133.8640 C   0  0  0  0  0  0  0  0  0  0  0  0
  145.1960  153.9700  133.1600 O   0  0  0  0  0  0  0  0  0  0  0  0
  145.1540  155.1830  135.2150 C   0  0  0  0  0  0  0  0  0  0  0  0
  145.5240  154.1080  136.1890 C   0  0  0  0  0  0  0  0  0  0  0  0
  146.6330  153.6000  136.1600 O   0  0  0  0  0  0  0  0  0  0  0  0
  146.7760  156.9950  133.1350 C   0  0  0  0  0  0  0  0  0  0  0  0
  145.7190  157.8820  133.3600 C   0  0  0  0  0  0  0  0  0  0  0  0
  145.2235  161.2895  135.2071 H   0  0  0  0  0  0  0  0  0  0  0  0
  146.3474  161.6800  133.8614 H   0  0  0  0  0  0  0  0  0  0  0  0
  144.6799  162.3479  133.8614 H   0  0  0  0  0  0  0  0  0  0  0  0
  144.4487  160.5877  132.3740 H   0  0  0  0  0  0  0  0  0  0  0  0
  143.7717  159.6600  135.1657 H   0  0  0  0  0  0  0  0  0  0  0  0
  142.6922  160.0800  133.7928 H   0  0  0  0  0  0  0  0  0  0  0  0
  143.5788  158.5178  133.7928 H   0  0  0  0  0  0  0  0  0  0  0  0
  147.3786  160.7714  132.4913 H   0  0  0  0  0  0  0  0  0  0  0  0
  149.2476  159.1241  132.1408 H   0  0  0  0  0  0  0  0  0  0  0  0
  149.8992  156.3434  132.3414 H   0  0  0  0  0  0  0  0  0  0  0  0
  148.2450  151.8630  133.7360 H   0  0  0  0  0  0  0  0  0  0  0  0
  146.8920  152.9850  134.0860 H   0  0  0  0  0  0  0  0  0  0  0  0
  145.5541  156.1457  135.5659 H   0  0  0  0  0  0  0  0  0  0  0  0
  144.0581  155.2393  135.1391 H   0  0  0  0  0  0  0  0  0  0  0  0
  144.7901  153.7734  136.9369 H   0  0  0  0  0  0  0  0  0  0  0  0
  144.7432  157.5165  133.7125 H   0  0  0  0  0  0  0  0  0  0  0  0
  1  2  1  0
  2  3  1  0
  2  4  1  0
  4  5  2  0
  5  6  1  0
  6  7  2  0
  7  8  1  0
  8  9  2  0
  9 10  1  0
 10 11  1  0
 10 12  2  0
  9 13  1  0
 13 14  1  0
 14 15  2  0
 14 16  1  0
 16 17  1  0
 17 18  2  0
 13 19  1  0
 19 20  2  0
 20  4  1  0
 19  7  1  0
  1 21  1  0
  1 22  1  0
  1 23  1  0
  2 24  1  0
  3 25  1  0
  3 26  1  0
  3 27  1  0
  5 28  1  0
  6 29  1  0
  8 30  1  0
 11 31  1  0
 11 32  1  0
 16 33  1  0
 16 34  1  0
 17 35  1  0
 20 36  1  0
M  END
>  <UniqueID>  (59) 
59

>  <SMILES>  (59) 
CC(C)c1ccc2cc(C(N)=O)n(C(=O)CC=O)c2c1

>  <Energy>  (59) 
70.50812332761944

>  <Genealogy>  (59) 
CC(C)c1ccc2cc(C(N)=O)n(C(=O)CC=O)c2c1 (3D coordinates assigned)
CC(C)c1ccc2cc(C(N)=O)n(C(=O)CC=O)c2c1 (optimized conformer: 70.50812332761944 kcal/mol)

>  <smiles>  (59) 
CC(C)c1ccc2cc(C(N)=O)n(C(=O)CC=O)c2c1

>  <score_type>  (59) 
oracle

>  <origin>  (59) 
adg

>  <m_score__min__energy>  (59) 
-6.4400000000000004

>  <m_primary>  (59) 
energy

$$$$
59:0
     RDKit          3D

 33 34  0  0  0  0  0  0  0  0999 V2000
  146.7950  160.8700  133.3710 N   0  0  0  0  0  0  0  0  0  0  0  0
  145.8390  159.8110  133.4410 C   0  0  0  0  0  0  0  0  0  0  0  0
  144.6300  160.0860  133.6680 O   0  0  0  0  0  0  0  0  0  0  0  0
  146.2490  158.3980  133.3140 C   0  0  0  0  0  0  0  0  0  0  0  0
  145.4000  157.3270  133.5740 C   0  0  0  0  0  0  0  0  0  0  0  0
  146.1750  156.2020  133.4080 C   0  0  0  0  0  0  0  0  0  0  0  0
  145.8350  154.8580  133.5290 C   0  0  0  0  0  0  0  0  0  0  0  0
  146.8290  153.9010  133.2630 C   0  0  0  0  0  0  0  0  0  0  0  0
  148.1320  154.3010  132.8760 C   0  0  0  0  0  0  0  0  0  0  0  0
  149.1730  153.2600  132.5770 C   0  0  0  0  0  0  0  0  0  0  0  0
  150.3700  153.8750  132.2600 F   0  0  0  0  0  0  0  0  0  0  0  0
  149.3530  152.4510  133.6840 F   0  0  0  0  0  0  0  0  0  0  0  0
  148.4390  155.6750  132.7600 C   0  0  0  0  0  0  0  0  0  0  0  0
  147.4360  156.6080  133.0520 C   0  0  0  0  0  0  0  0  0  0  0  0
  147.4970  157.9570  132.9860 N   0  0  0  0  0  0  0  0  0  0  0  0
  148.6150  158.7440  132.5490 C   0  0  0  0  0  0  0  0  0  0  0  0
  149.3170  159.3630  133.3950 O   0  0  0  0  0  0  0  0  0  0  0  0
  148.9190  158.8250  131.1850 O   0  0  0  0  0  0  0  0  0  0  0  0
  149.8870  159.7240  130.6460 C   0  0  0  0  0  0  0  0  0  0  0  0
  149.2600  161.0900  130.3610 C   0  0  0  0  0  0  0  0  0  0  0  0
  148.5280  161.5380  131.4690 O   0  0  0  0  0  0  0  0  0  0  0  0
  147.8190  160.6710  133.3590 H   0  0  0  0  0  0  0  0  0  0  0  0
  146.4800  161.8640  133.4200 H   0  0  0  0  0  0  0  0  0  0  0  0
  144.3367  157.3702  133.8527 H   0  0  0  0  0  0  0  0  0  0  0  0
  144.8197  154.5542  133.8237 H   0  0  0  0  0  0  0  0  0  0  0  0
  146.5931  152.8306  133.3561 H   0  0  0  0  0  0  0  0  0  0  0  0
  148.8382  152.6491  131.7257 H   0  0  0  0  0  0  0  0  0  0  0  0
  149.4412  156.0041  132.4480 H   0  0  0  0  0  0  0  0  0  0  0  0
  150.7068  159.8472  131.3690 H   0  0  0  0  0  0  0  0  0  0  0  0
  150.2684  159.3072  129.7022 H   0  0  0  0  0  0  0  0  0  0  0  0
  150.0573  161.8142  130.1378 H   0  0  0  0  0  0  0  0  0  0  0  0
  148.5800  160.9955  129.5016 H   0  0  0  0  0  0  0  0  0  0  0  0
  148.3520  160.7410  132.0340 H   0  0  0  0  0  0  0  0  0  0  0  0
  1  2  1  0
  2  3  2  0
  2  4  1  0
  4  5  2  0
  5  6  1  0
  6  7  2  0
  7  8  1  0
  8  9  2  0
  9 10  1  0
 10 11  1  0
 10 12  1  0
  9 13  1  0
 13 14  2  0
 14 15  1  0
 15 16  1  0
 16 17  2  0
 16 18  1  0
 18 19  1  0
 19 20  1  0
 20 21  1  0
 15  4  1  0
 14  6  1  0
  1 22  1  0
  1 23  1  0
  5 24  1  0
  7 25  1  0
  8 26  1  0
 10 27  1  0
 13 28  1  0
 19 29  1  0
 19 30  1  0
 20 31  1  0
 20 32  1  0
 21 33  1  0
M  END
>  <UniqueID>  (60) 
60

>  <SMILES>  (60) 
NC(=O)c1cc2ccc(C(F)F)cc2n1C(=O)OCCO

>  <Energy>  (60) 
68.52808178167538

>  <Genealogy>  (60) 
NC(=O)c1cc2ccc(C(F)F)cc2n1C(=O)OCCO (3D coordinates assigned)
NC(=O)c1cc2ccc(C(F)F)cc2n1C(=O)OCCO (optimized conformer: 68.52808178167538 kcal/mol)

>  <smiles>  (60) 
NC(=O)c1cc2ccc(C(F)F)cc2n1C(=O)OCCO

>  <score_type>  (60) 
oracle

>  <origin>  (60) 
adg

>  <m_score__min__energy>  (60) 
-5.7699999999999996

>  <m_primary>  (60) 
energy

$$$$
60:0
     RDKit          3D

 37 39  0  0  0  0  0  0  0  0999 V2000
  146.6470  156.3580  132.6870 C   0  0  0  0  0  0  0  0  0  0  0  0
  145.6640  156.9660  133.6360 C   0  0  0  0  0  0  0  0  0  0  0  0
  145.1060  156.2340  134.4970 O   0  0  0  0  0  0  0  0  0  0  0  0
  145.4050  158.3790  133.6250 N   0  0  0  0  0  0  0  0  0  0  0  0
  146.3060  159.4010  133.6300 C   0  0  0  0  0  0  0  0  0  0  0  0
  147.7720  159.2610  133.5160 C   0  0  0  0  0  0  0  0  0  0  0  0
  148.4820  158.4430  134.4440 N   0  0  0  0  0  0  0  0  0  0  0  0
  148.4120  159.8810  132.6260 O   0  0  0  0  0  0  0  0  0  0  0  0
  145.6490  160.6300  133.6740 C   0  0  0  0  0  0  0  0  0  0  0  0
  144.3060  160.3240  133.6850 C   0  0  0  0  0  0  0  0  0  0  0  0
  143.1960  161.1620  133.7280 C   0  0  0  0  0  0  0  0  0  0  0  0
  141.9230  160.5660  133.7440 C   0  0  0  0  0  0  0  0  0  0  0  0
  141.7830  159.1550  133.7220 C   0  0  0  0  0  0  0  0  0  0  0  0
  140.4390  158.5400  133.7450 C   0  0  0  0  0  0  0  0  0  0  0  0
  139.5140  158.4680  132.7140 C   0  0  0  0  0  0  0  0  0  0  0  0
  139.6590  158.9970  131.3220 C   0  0  0  0  0  0  0  0  0  0  0  0
  138.4260  157.8130  133.1590 N   0  0  0  0  0  0  0  0  0  0  0  0
  138.6250  157.4890  134.4020 O   0  0  0  0  0  0  0  0  0  0  0  0
  139.8100  157.8930  134.8010 C   0  0  0  0  0  0  0  0  0  0  0  0
  140.3440  157.6700  136.1790 C   0  0  0  0  0  0  0  0  0  0  0  0
  142.9350  158.3400  133.6790 C   0  0  0  0  0  0  0  0  0  0  0  0
  144.1870  158.9600  133.6510 C   0  0  0  0  0  0  0  0  0  0  0  0
  147.4477  155.8628  133.2559 H   0  0  0  0  0  0  0  0  0  0  0  0
  146.1357  155.6182  132.0536 H   0  0  0  0  0  0  0  0  0  0  0  0
  147.0806  157.1459  132.0536 H   0  0  0  0  0  0  0  0  0  0  0  0
  149.2480  157.8080  134.1240 H   0  0  0  0  0  0  0  0  0  0  0  0
  146.1057  161.6305  133.6954 H   0  0  0  0  0  0  0  0  0  0  0  0
  143.3110  162.2558  133.7488 H   0  0  0  0  0  0  0  0  0  0  0  0
  141.0254  161.2012  133.7739 H   0  0  0  0  0  0  0  0  0  0  0  0
  139.9496  160.0572  131.3611 H   0  0  0  0  0  0  0  0  0  0  0  0
  140.4332  158.4239  130.7908 H   0  0  0  0  0  0  0  0  0  0  0  0
  138.7008  158.8988  130.7908 H   0  0  0  0  0  0  0  0  0  0  0  0
  137.5590  157.5960  132.6170 H   0  0  0  0  0  0  0  0  0  0  0  0
  139.5927  157.9838  136.9186 H   0  0  0  0  0  0  0  0  0  0  0  0
  140.5701  156.6023  136.3163 H   0  0  0  0  0  0  0  0  0  0  0  0
  141.2623  158.2598  136.3163 H   0  0  0  0  0  0  0  0  0  0  0  0
  142.8491  157.2434  133.6678 H   0  0  0  0  0  0  0  0  0  0  0  0
  1  2  1  0
  2  3  2  0
  2  4  1  0
  4  5  1  0
  5  6  1  0
  6  7  1  0
  6  8  2  0
  5  9  2  0
  9 10  1  0
 10 11  2  0
 11 12  1  0
 12 13  2  0
 13 14  1  0
 14 15  1  0
 15 16  1  0
 15 17  2  0
 17 18  1  0
 18 19  1  0
 19 20  1  0
 13 21  1  0
 21 22  2  0
 22  4  1  0
 22 10  1  0
 19 14  2  0
  1 23  1  0
  1 24  1  0
  1 25  1  0
  7 26  1  0
  9 27  1  0
 11 28  1  0
 12 29  1  0
 16 30  1  0
 16 31  1  0
 16 32  1  0
 17 33  1  0
 20 34  1  0
 20 35  1  0
 20 36  1  0
 21 37  1  0
M  CHG  2   7  -1  17   1
M  END
>  <UniqueID>  (61) 
61

>  <SMILES>  (61) 
CC(=O)n1c(C([NH-])=O)cc2ccc(-c3c(C)[nH+]oc3C)cc21

>  <Energy>  (61) 
111.71318518174583

>  <Genealogy>  (61) 
CC(=O)n1c(C([NH-])=O)cc2ccc(-c3c(C)[nH+]oc3C)cc21 (protonated)
CC(=O)n1c(C([NH-])=O)cc2ccc(-c3c(C)[nH+]oc3C)cc21 (3D coordinates assigned)
CC(=O)n1c(C([NH-])=O)cc2ccc(-c3c(C)[nH+]oc3C)cc21 (optimized conformer: 111.71318518174583 kcal/mol)

>  <smiles>  (61) 
CC(=O)n1c(C(N)=O)cc2ccc(-c3c(C)noc3C)cc21

>  <score_type>  (61) 
oracle

>  <origin>  (61) 
adg

>  <m_score__min__energy>  (61) 
-7.3799999999999999

>  <m_primary>  (61) 
energy

$$$$
61:0
     RDKit          3D

 39 41  0  0  0  0  0  0  0  0999 V2000
  149.7770  151.1300  131.6980 C   0  0  0  0  0  0  0  0  0  0  0  0
  149.5490  151.7800  133.0570 C   0  0  0  0  0  0  0  0  0  0  0  0
  148.3370  152.5300  133.0590 O   0  0  0  0  0  0  0  0  0  0  0  0
  148.2640  153.8820  132.7030 C   0  0  0  0  0  0  0  0  0  0  0  0
  149.2760  154.4740  132.2380 O   0  0  0  0  0  0  0  0  0  0  0  0
  147.0340  154.6030  132.8870 N   0  0  0  0  0  0  0  0  0  0  0  0
  145.7640  154.1050  132.8600 C   0  0  0  0  0  0  0  0  0  0  0  0
  145.4040  152.6730  132.7680 C   0  0  0  0  0  0  0  0  0  0  0  0
  146.1370  151.7880  131.9190 N   0  0  0  0  0  0  0  0  0  0  0  0
  144.4220  152.2250  133.4180 O   0  0  0  0  0  0  0  0  0  0  0  0
  144.8360  155.1310  133.0310 C   0  0  0  0  0  0  0  0  0  0  0  0
  145.5820  156.2800  133.1680 C   0  0  0  0  0  0  0  0  0  0  0  0
  145.1700  157.5940  133.3670 C   0  0  0  0  0  0  0  0  0  0  0  0
  146.1600  158.5870  133.4590 C   0  0  0  0  0  0  0  0  0  0  0  0
  147.5310  158.2510  133.3310 C   0  0  0  0  0  0  0  0  0  0  0  0
  148.5850  159.3150  133.4630 C   0  0  0  0  0  0  0  0  0  0  0  0
  148.9490  159.8180  132.1410 N   0  0  0  0  0  0  0  0  0  0  0  0
  149.9000  159.3320  131.3270 C   0  0  0  0  0  0  0  0  0  0  0  0
  149.9700  160.1550  130.2260 C   0  0  0  0  0  0  0  0  0  0  0  0
  149.0780  161.1590  130.3520 N   0  0  0  0  0  0  0  0  0  0  0  0
  148.4770  160.9240  131.5380 C   0  0  0  0  0  0  0  0  0  0  0  0
  147.9110  156.9050  133.1410 C   0  0  0  0  0  0  0  0  0  0  0  0
  146.9050  155.9340  133.0750 C   0  0  0  0  0  0  0  0  0  0  0  0
  150.1380  150.1007  131.8398 H   0  0  0  0  0  0  0  0  0  0  0  0
  148.8312  151.1128  131.1365 H   0  0  0  0  0  0  0  0  0  0  0  0
  150.5263  151.7073  131.1365 H   0  0  0  0  0  0  0  0  0  0  0  0
  149.4902  150.9965  133.8269 H   0  0  0  0  0  0  0  0  0  0  0  0
  150.3868  152.4606  133.2689 H   0  0  0  0  0  0  0  0  0  0  0  0
  145.8490  150.7880  131.8320 H   0  0  0  0  0  0  0  0  0  0  0  0
  146.9880  152.1070  131.4080 H   0  0  0  0  0  0  0  0  0  0  0  0
  143.7398  155.0416  133.0520 H   0  0  0  0  0  0  0  0  0  0  0  0
  144.1028  157.8475  133.4497 H   0  0  0  0  0  0  0  0  0  0  0  0
  145.8686  159.6335  133.6318 H   0  0  0  0  0  0  0  0  0  0  0  0
  148.1942  160.1423  134.0735 H   0  0  0  0  0  0  0  0  0  0  0  0
  149.4753  158.8861  133.9460 H   0  0  0  0  0  0  0  0  0  0  0  0
  150.5131  158.4368  131.5077 H   0  0  0  0  0  0  0  0  0  0  0  0
  150.6501  160.0152  129.3728 H   0  0  0  0  0  0  0  0  0  0  0  0
  147.6903  161.5646  131.9631 H   0  0  0  0  0  0  0  0  0  0  0  0
  148.9709  156.6261  133.0472 H   0  0  0  0  0  0  0  0  0  0  0  0
  1  2  1  0
  2  3  1  0
  3  4  1  0
  4  5  2  0
  4  6  1  0
  6  7  1  0
  7  8  1  0
  8  9  1  0
  8 10  2  0
  7 11  2  0
 11 12  1  0
 12 13  2  0
 13 14  1  0
 14 15  2  0
 15 16  1  0
 16 17  1  0
 17 18  1  0
 18 19  2  0
 19 20  1  0
 20 21  2  0
 15 22  1  0
 22 23  2  0
 23  6  1  0
 23 12  1  0
 21 17  1  0
  1 24  1  0
  1 25  1  0
  1 26  1  0
  2 27  1  0
  2 28  1  0
  9 29  1  0
  9 30  1  0
 11 31  1  0
 13 32  1  0
 14 33  1  0
 16 34  1  0
 16 35  1  0
 18 36  1  0
 19 37  1  0
 21 38  1  0
 22 39  1  0
M  END
>  <UniqueID>  (62) 
62

>  <SMILES>  (62) 
CCOC(=O)n1c(C(N)=O)cc2ccc(Cn3ccnc3)cc21

>  <Energy>  (62) 
102.83940104700466

>  <Genealogy>  (62) 
CCOC(=O)n1c(C(N)=O)cc2ccc(Cn3ccnc3)cc21 (3D coordinates assigned)
CCOC(=O)n1c(C(N)=O)cc2ccc(Cn3ccnc3)cc21 (optimized conformer: 102.83940104700466 kcal/mol)

>  <smiles>  (62) 
CCOC(=O)n1c(C(N)=O)cc2ccc(Cn3ccnc3)cc21

>  <score_type>  (62) 
oracle

>  <origin>  (62) 
adg

>  <m_score__min__energy>  (62) 
-7.2300000000000004

>  <m_primary>  (62) 
energy

$$$$
62:0
     RDKit          3D

 47 49  0  0  0  0  0  0  0  0999 V2000
  149.5940  161.2210  130.1110 C   0  0  0  0  0  0  0  0  0  0  0  0
  148.6310  161.0540  131.1880 N   0  0  0  0  0  0  0  0  0  0  0  0
  148.4450  159.8120  131.8740 C   0  0  0  0  0  0  0  0  0  0  0  0
  148.5630  158.7210  131.2510 O   0  0  0  0  0  0  0  0  0  0  0  0
  148.0570  159.8230  133.3290 C   0  0  2  0  0  0  0  0  0  0  0  0
  148.6080  158.6010  134.0740 C   0  0  0  0  0  0  0  0  0  0  0  0
  146.5530  159.9340  133.4760 C   0  0  0  0  0  0  0  0  0  0  0  0
  145.9360  161.1870  133.7360 C   0  0  0  0  0  0  0  0  0  0  0  0
  144.5440  161.2840  133.8920 C   0  0  0  0  0  0  0  0  0  0  0  0
  143.7910  160.1200  133.7800 C   0  0  0  0  0  0  0  0  0  0  0  0
  142.4360  159.9270  133.9180 C   0  0  0  0  0  0  0  0  0  0  0  0
  142.2350  158.5610  133.7230 C   0  0  0  0  0  0  0  0  0  0  0  0
  140.9040  157.9160  133.6980 C   0  0  0  0  0  0  0  0  0  0  0  0
  140.7000  156.6890  132.9950 N   0  0  0  0  0  0  0  0  0  0  0  0
  139.9410  158.4300  134.3260 O   0  0  0  0  0  0  0  0  0  0  0  0
  143.4210  157.9360  133.4750 N   0  0  0  0  0  0  0  0  0  0  0  0
  143.6460  156.5290  133.2980 C   0  0  0  0  0  0  0  0  0  0  0  0
  143.6080  156.0250  132.1420 O   0  0  0  0  0  0  0  0  0  0  0  0
  143.9270  155.7260  134.4100 O   0  0  0  0  0  0  0  0  0  0  0  0
  143.9120  154.3010  134.3670 C   0  0  0  0  0  0  0  0  0  0  0  0
  142.6270  153.8160  133.7690 C   0  0  0  0  0  0  0  0  0  0  0  0
  141.5160  154.5140  133.7360 O   0  0  0  0  0  0  0  0  0  0  0  0
  140.6270  153.7490  133.1440 C   0  0  0  0  0  0  0  0  0  0  0  0
  139.4360  154.0980  132.9330 O   0  0  0  0  0  0  0  0  0  0  0  0
  141.1180  152.5820  132.7920 O   0  0  0  0  0  0  0  0  0  0  0  0
  142.3750  152.5940  133.1710 C   0  0  0  0  0  0  0  0  0  0  0  0
  143.3280  151.4610  132.9770 C   0  0  0  0  0  0  0  0  0  0  0  0
  144.3640  158.9050  133.5130 C   0  0  0  0  0  0  0  0  0  0  0  0
  145.7510  158.7740  133.3710 C   0  0  0  0  0  0  0  0  0  0  0  0
  150.5935  161.3943  130.5364 H   0  0  0  0  0  0  0  0  0  0  0  0
  149.6119  160.3125  129.4910 H   0  0  0  0  0  0  0  0  0  0  0  0
  149.3050  162.0824  129.4910 H   0  0  0  0  0  0  0  0  0  0  0  0
  148.5127  160.7096  133.7941 H   0  0  0  0  0  0  0  0  0  0  0  0
  148.5326  158.7681  135.1586 H   0  0  0  0  0  0  0  0  0  0  0  0
  148.0245  157.7100  133.7989 H   0  0  0  0  0  0  0  0  0  0  0  0
  149.6620  158.4484  133.7989 H   0  0  0  0  0  0  0  0  0  0  0  0
  146.5562  162.0920  133.8160 H   0  0  0  0  0  0  0  0  0  0  0  0
  144.0632  162.2519  134.0967 H   0  0  0  0  0  0  0  0  0  0  0  0
  141.6729  160.6887  134.1359 H   0  0  0  0  0  0  0  0  0  0  0  0
  141.4580  156.2590  132.4210 H   0  0  0  0  0  0  0  0  0  0  0  0
  139.7670  156.2210  133.0180 H   0  0  0  0  0  0  0  0  0  0  0  0
  144.7544  153.9469  133.7547 H   0  0  0  0  0  0  0  0  0  0  0  0
  144.0021  153.9096  135.3911 H   0  0  0  0  0  0  0  0  0  0  0  0
  143.6488  151.0797  133.9577 H   0  0  0  0  0  0  0  0  0  0  0  0
  142.8313  150.6562  132.4152 H   0  0  0  0  0  0  0  0  0  0  0  0
  144.2060  151.8125  132.4152 H   0  0  0  0  0  0  0  0  0  0  0  0
  146.2065  157.7907  133.1820 H   0  0  0  0  0  0  0  0  0  0  0  0
  1  2  1  0
  2  3  1  0
  3  4  2  0
  3  5  1  0
  5  6  1  0
  5  7  1  0
  7  8  2  0
  8  9  1  0
  9 10  2  0
 10 11  1  0
 11 12  2  0
 12 13  1  0
 13 14  1  0
 13 15  2  0
 12 16  1  0
 16 17  1  0
 17 18  2  0
 17 19  1  0
 19 20  1  0
 20 21  1  0
 21 22  1  0
 22 23  1  0
 23 24  2  0
 23 25  1  0
 25 26  1  0
 26 27  1  0
 16 28  1  0
 28 29  2  0
 29  7  1  0
 28 10  1  0
 26 21  2  0
  1 30  1  0
  1 31  1  0
  1 32  1  0
  5 33  1  1
  6 34  1  0
  6 35  1  0
  6 36  1  0
  8 37  1  0
  9 38  1  0
 11 39  1  0
 14 40  1  0
 14 41  1  0
 20 42  1  0
 20 43  1  0
 27 44  1  0
 27 45  1  0
 27 46  1  0
 29 47  1  0
M  CHG  1   2  -1
M  END
>  <UniqueID>  (63) 
63

>  <SMILES>  (63) 
C[N-]C(=O)[C@H](C)c1ccc2cc(C(N)=O)n(C(=O)OCc3oc(=O)oc3C)c2c1

>  <Energy>  (63) 
112.66272005152678

>  <Genealogy>  (63) 
C[N-]C(=O)C(C)c1ccc2cc(C(N)=O)n(C(=O)OCc3oc(=O)oc3C)c2c1 (protonated)
C[N-]C(=O)[C@H](C)c1ccc2cc(C(N)=O)n(C(=O)OCc3oc(=O)oc3C)c2c1 (chirality)
C[N-]C(=O)[C@H](C)c1ccc2cc(C(N)=O)n(C(=O)OCc3oc(=O)oc3C)c2c1 (3D coordinates assigned)
C[N-]C(=O)[C@H](C)c1ccc2cc(C(N)=O)n(C(=O)OCc3oc(=O)oc3C)c2c1 (optimized conformer: 112.66272005152678 kcal/mol)

>  <smiles>  (63) 
CNC(=O)C(C)c1ccc2cc(C(N)=O)n(C(=O)OCc3oc(=O)oc3C)c2c1

>  <score_type>  (63) 
oracle

>  <origin>  (63) 
adg

>  <m_score__min__energy>  (63) 
-7.2999999999999998

>  <m_primary>  (63) 
energy

$$$$
63:0
     RDKit          3D

 39 40  0  0  0  0  0  0  0  0999 V2000
  149.2130  152.6370  132.1660 C   0  0  0  0  0  0  0  0  0  0  0  0
  148.9150  153.8360  133.0080 C   0  0  0  0  0  0  0  0  0  0  0  0
  149.2220  154.9490  132.6120 O   0  0  0  0  0  0  0  0  0  0  0  0
  148.1000  153.6530  134.5960 S   0  0  0  0  0  0  0  0  0  0  0  0
  146.5180  154.3460  134.0020 C   0  0  0  0  0  0  0  0  0  0  0  0
  146.4430  155.8480  134.2790 C   0  0  0  0  0  0  0  0  0  0  0  0
  146.5880  156.6390  133.0090 C   0  0  0  0  0  0  0  0  0  0  0  0
  146.7400  156.0320  131.9160 O   0  0  0  0  0  0  0  0  0  0  0  0
  146.4520  158.0680  133.0150 N   0  0  0  0  0  0  0  0  0  0  0  0
  147.4220  159.0060  132.8250 C   0  0  0  0  0  0  0  0  0  0  0  0
  148.8120  158.7410  132.3990 C   0  0  0  0  0  0  0  0  0  0  0  0
  149.2030  157.4670  131.8850 N   0  0  0  0  0  0  0  0  0  0  0  0
  149.6620  159.6700  132.4520 O   0  0  0  0  0  0  0  0  0  0  0  0
  146.9190  160.2840  133.0590 C   0  0  0  0  0  0  0  0  0  0  0  0
  145.5960  160.0980  133.3920 C   0  0  0  0  0  0  0  0  0  0  0  0
  144.6200  161.0260  133.7460 C   0  0  0  0  0  0  0  0  0  0  0  0
  143.3450  160.5430  134.0870 C   0  0  0  0  0  0  0  0  0  0  0  0
  143.0760  159.1510  134.0840 C   0  0  0  0  0  0  0  0  0  0  0  0
  141.7050  158.6460  134.4380 C   0  0  0  0  0  0  0  0  0  0  0  0
  141.3910  158.9700  135.8640 C   0  0  0  0  0  0  0  0  0  0  0  0
  141.7490  158.1880  136.7840 O   0  0  0  0  0  0  0  0  0  0  0  0
  140.6580  160.1090  136.1730 O   0  0  0  0  0  0  0  0  0  0  0  0
  144.0880  158.2410  133.7080 C   0  0  0  0  0  0  0  0  0  0  0  0
  145.3410  158.7520  133.3580 C   0  0  0  0  0  0  0  0  0  0  0  0
  149.4270  151.7761  132.8165 H   0  0  0  0  0  0  0  0  0  0  0  0
  148.3440  152.4097  131.5310 H   0  0  0  0  0  0  0  0  0  0  0  0
  150.0873  152.8430  131.5310 H   0  0  0  0  0  0  0  0  0  0  0  0
  146.4338  154.1748  132.9187 H   0  0  0  0  0  0  0  0  0  0  0  0
  145.6940  153.8485  134.5344 H   0  0  0  0  0  0  0  0  0  0  0  0
  145.4710  156.0807  134.7385 H   0  0  0  0  0  0  0  0  0  0  0  0
  147.2654  156.1204  134.9568 H   0  0  0  0  0  0  0  0  0  0  0  0
  148.4970  156.7360  131.6520 H   0  0  0  0  0  0  0  0  0  0  0  0
  150.2030  157.2850  131.6450 H   0  0  0  0  0  0  0  0  0  0  0  0
  147.4627  161.2379  132.9920 H   0  0  0  0  0  0  0  0  0  0  0  0
  144.8401  162.1037  133.7584 H   0  0  0  0  0  0  0  0  0  0  0  0
  142.5486  161.2514  134.3587 H   0  0  0  0  0  0  0  0  0  0  0  0
  140.9610  159.1240  133.7838 H   0  0  0  0  0  0  0  0  0  0  0  0
  141.6767  157.5548  134.3018 H   0  0  0  0  0  0  0  0  0  0  0  0
  143.8953  157.1581  133.6909 H   0  0  0  0  0  0  0  0  0  0  0  0
  1  2  1  0
  2  3  2  0
  2  4  1  0
  4  5  1  0
  5  6  1  0
  6  7  1  0
  7  8  2  0
  7  9  1  0
  9 10  1  0
 10 11  1  0
 11 12  1  0
 11 13  2  0
 10 14  2  0
 14 15  1  0
 15 16  2  0
 16 17  1  0
 17 18  2  0
 18 19  1  0
 19 20  1  0
 20 21  2  0
 20 22  1  0
 18 23  1  0
 23 24  2  0
 24  9  1  0
 24 15  1  0
  1 25  1  0
  1 26  1  0
  1 27  1  0
  5 28  1  0
  5 29  1  0
  6 30  1  0
  6 31  1  0
 12 32  1  0
 12 33  1  0
 14 34  1  0
 16 35  1  0
 17 36  1  0
 19 37  1  0
 19 38  1  0
 23 39  1  0
M  CHG  1  22  -1
M  END
>  <UniqueID>  (64) 
64

>  <SMILES>  (64) 
CC(=O)SCCC(=O)n1c(C(N)=O)cc2ccc(CC(=O)[O-])cc21

>  <Energy>  (64) 
67.44544470171994

>  <Genealogy>  (64) 
CC(=O)SCCC(=O)n1c(C(N)=O)cc2ccc(CC(=O)[O-])cc21 (protonated)
CC(=O)SCCC(=O)n1c(C(N)=O)cc2ccc(CC(=O)[O-])cc21 (3D coordinates assigned)
CC(=O)SCCC(=O)n1c(C(N)=O)cc2ccc(CC(=O)[O-])cc21 (optimized conformer: 67.44544470171994 kcal/mol)

>  <smiles>  (64) 
CC(=O)SCCC(=O)n1c(C(N)=O)cc2ccc(CC(=O)O)cc21

>  <score_type>  (64) 
oracle

>  <origin>  (64) 
adg

>  <m_score__min__energy>  (64) 
-6.9000000000000004

>  <m_primary>  (64) 
energy

$$$$
64:0
     RDKit          3D

 34 35  0  0  0  0  0  0  0  0999 V2000
  149.8790  151.3450  132.2970 C   0  0  0  0  0  0  0  0  0  0  0  0
  149.3840  152.7090  132.6520 C   0  0  0  0  0  0  0  0  0  0  0  0
  149.9940  153.7260  132.2220 O   0  0  0  0  0  0  0  0  0  0  0  0
  148.2080  152.8550  133.4560 N   0  0  0  0  0  0  0  0  0  0  0  0
  147.6940  154.1760  133.8250 C   0  0  0  0  0  0  0  0  0  0  0  0
  147.1340  154.9260  132.6110 C   0  0  0  0  0  0  0  0  0  0  0  0
  147.2110  156.4200  132.7980 C   0  0  0  0  0  0  0  0  0  0  0  0
  148.4510  157.0890  132.6440 C   0  0  0  0  0  0  0  0  0  0  0  0
  148.5430  158.4780  132.8270 C   0  0  0  0  0  0  0  0  0  0  0  0
  147.3860  159.1680  133.1760 C   0  0  0  0  0  0  0  0  0  0  0  0
  147.1900  160.5130  133.3940 C   0  0  0  0  0  0  0  0  0  0  0  0
  145.8380  160.6430  133.7050 C   0  0  0  0  0  0  0  0  0  0  0  0
  145.2170  161.9230  134.1010 C   0  0  0  0  0  0  0  0  0  0  0  0
  145.9440  162.8890  134.8560 N   0  0  0  0  0  0  0  0  0  0  0  0
  144.0450  162.1910  133.7230 O   0  0  0  0  0  0  0  0  0  0  0  0
  145.2200  159.4270  133.6740 N   0  0  0  0  0  0  0  0  0  0  0  0
  143.8210  159.1490  133.8470 C   0  0  0  0  0  0  0  0  0  0  0  0
  143.1930  158.4820  132.9840 O   0  0  0  0  0  0  0  0  0  0  0  0
  143.1410  159.6390  134.9560 O   0  0  0  0  0  0  0  0  0  0  0  0
  146.1830  158.5350  133.3510 C   0  0  0  0  0  0  0  0  0  0  0  0
  146.0570  157.1540  133.1540 C   0  0  0  0  0  0  0  0  0  0  0  0
  150.0846  150.7785  133.2172 H   0  0  0  0  0  0  0  0  0  0  0  0
  149.1142  150.8197  131.7062 H   0  0  0  0  0  0  0  0  0  0  0  0
  150.8027  151.4324  131.7062 H   0  0  0  0  0  0  0  0  0  0  0  0
  147.7120  151.9910  133.7710 H   0  0  0  0  0  0  0  0  0  0  0  0
  146.8925  154.0518  134.5681 H   0  0  0  0  0  0  0  0  0  0  0  0
  148.5265  154.7648  134.2377 H   0  0  0  0  0  0  0  0  0  0  0  0
  147.7155  154.6473  131.7198 H   0  0  0  0  0  0  0  0  0  0  0  0
  146.0763  154.6480  132.4926 H   0  0  0  0  0  0  0  0  0  0  0  0
  149.3504  156.5141  132.3784 H   0  0  0  0  0  0  0  0  0  0  0  0
  149.5002  159.0046  132.6985 H   0  0  0  0  0  0  0  0  0  0  0  0
  147.9410  161.3146  133.3352 H   0  0  0  0  0  0  0  0  0  0  0  0
  146.9760  162.9910  134.7440 H   0  0  0  0  0  0  0  0  0  0  0  0
  145.0847  156.6536  133.2733 H   0  0  0  0  0  0  0  0  0  0  0  0
  1  2  1  0
  2  3  2  0
  2  4  1  0
  4  5  1  0
  5  6  1  0
  6  7  1  0
  7  8  2  0
  8  9  1  0
  9 10  2  0
 10 11  1  0
 11 12  2  0
 12 13  1  0
 13 14  1  0
 13 15  2  0
 12 16  1  0
 16 17  1  0
 17 18  2  0
 17 19  1  0
 16 20  1  0
 20 21  2  0
 21  7  1  0
 20 10  1  0
  1 22  1  0
  1 23  1  0
  1 24  1  0
  4 25  1  0
  5 26  1  0
  5 27  1  0
  6 28  1  0
  6 29  1  0
  8 30  1  0
  9 31  1  0
 11 32  1  0
 14 33  1  0
 21 34  1  0
M  CHG  2  14  -1  19  -1
M  END
>  <UniqueID>  (65) 
65

>  <SMILES>  (65) 
CC(=O)NCCc1ccc2cc(C([NH-])=O)n(C(=O)[O-])c2c1

>  <Energy>  (65) 
67.60192373554504

>  <Genealogy>  (65) 
CC(=O)NCCc1ccc2cc(C([NH-])=O)n(C(=O)[O-])c2c1 (protonated)
CC(=O)NCCc1ccc2cc(C([NH-])=O)n(C(=O)[O-])c2c1 (3D coordinates assigned)
CC(=O)NCCc1ccc2cc(C([NH-])=O)n(C(=O)[O-])c2c1 (optimized conformer: 67.60192373554504 kcal/mol)

>  <smiles>  (65) 
CC(=O)NCCc1ccc2cc(C(N)=O)n(C(=O)O)c2c1

>  <score_type>  (65) 
oracle

>  <origin>  (65) 
adg

>  <m_score__min__energy>  (65) 
-7.5800000000000001

>  <m_primary>  (65) 
energy

$$$$
65:0
     RDKit          3D

 27 28  0  0  0  0  0  0  0  0999 V2000
  147.8400  161.0000  132.1820 N   0  0  0  0  0  0  0  0  0  0  0  0
  148.6880  159.8820  131.9160 C   0  0  0  0  0  0  0  0  0  0  0  0
  149.7350  160.0490  131.2370 O   0  0  0  0  0  0  0  0  0  0  0  0
  148.3240  158.5230  132.3670 C   0  0  0  0  0  0  0  0  0  0  0  0
  149.1830  157.4320  132.2720 C   0  0  0  0  0  0  0  0  0  0  0  0
  148.4550  156.3580  132.7290 C   0  0  0  0  0  0  0  0  0  0  0  0
  148.8260  155.0240  132.8710 C   0  0  0  0  0  0  0  0  0  0  0  0
  147.8850  154.1320  133.4110 C   0  0  0  0  0  0  0  0  0  0  0  0
  146.5980  154.5870  133.7960 C   0  0  0  0  0  0  0  0  0  0  0  0
  145.6170  153.6320  134.4170 C   0  0  0  0  0  0  0  0  0  0  0  0
  145.6780  153.7300  135.9080 C   0  0  0  0  0  0  0  0  0  0  0  0
  144.7010  154.1960  136.5520 O   0  0  0  0  0  0  0  0  0  0  0  0
  146.8320  153.3540  136.5830 O   0  0  0  0  0  0  0  0  0  0  0  0
  146.2620  155.9510  133.6490 C   0  0  0  0  0  0  0  0  0  0  0  0
  147.2120  156.8140  133.0890 C   0  0  0  0  0  0  0  0  0  0  0  0
  147.1180  158.1480  132.8760 N   0  0  0  0  0  0  0  0  0  0  0  0
  146.0200  159.0030  133.2370 C   0  0  0  0  0  0  0  0  0  0  0  0
  146.1740  159.9170  134.0890 O   0  0  0  0  0  0  0  0  0  0  0  0
  144.7750  158.8330  132.6440 O   0  0  0  0  0  0  0  0  0  0  0  0
  146.8900  160.8690  132.5950 H   0  0  0  0  0  0  0  0  0  0  0  0
  148.1290  161.9590  131.8860 H   0  0  0  0  0  0  0  0  0  0  0  0
  150.2215  157.4292  131.9092 H   0  0  0  0  0  0  0  0  0  0  0  0
  149.8259  154.6788  132.5694 H   0  0  0  0  0  0  0  0  0  0  0  0
  148.1484  153.0714  133.5364 H   0  0  0  0  0  0  0  0  0  0  0  0
  144.6011  153.8819  134.0772 H   0  0  0  0  0  0  0  0  0  0  0  0
  145.8716  152.6060  134.1129 H   0  0  0  0  0  0  0  0  0  0  0  0
  145.2780  156.3262  133.9667 H   0  0  0  0  0  0  0  0  0  0  0  0
  1  2  1  0
  2  3  2  0
  2  4  1  0
  4  5  2  0
  5  6  1  0
  6  7  2  0
  7  8  1  0
  8  9  2  0
  9 10  1  0
 10 11  1  0
 11 12  2  0
 11 13  1  0
  9 14  1  0
 14 15  2  0
 15 16  1  0
 16 17  1  0
 17 18  2  0
 17 19  1  0
 16  4  1  0
 15  6  1  0
  1 20  1  0
  1 21  1  0
  5 22  1  0
  7 23  1  0
  8 24  1  0
 10 25  1  0
 10 26  1  0
 14 27  1  0
M  CHG  2  13  -1  19  -1
M  END
>  <UniqueID>  (66) 
66

>  <SMILES>  (66) 
NC(=O)c1cc2ccc(CC(=O)[O-])cc2n1C(=O)[O-]

>  <Energy>  (66) 
65.90165909939715

>  <Genealogy>  (66) 
NC(=O)c1cc2ccc(CC(=O)[O-])cc2n1C(=O)[O-] (protonated)
NC(=O)c1cc2ccc(CC(=O)[O-])cc2n1C(=O)[O-] (3D coordinates assigned)
NC(=O)c1cc2ccc(CC(=O)[O-])cc2n1C(=O)[O-] (optimized conformer: 65.90165909939715 kcal/mol)

>  <smiles>  (66) 
NC(=O)c1cc2ccc(CC(=O)O)cc2n1C(=O)O

>  <score_type>  (66) 
oracle

>  <origin>  (66) 
adg

>  <m_score__min__energy>  (66) 
-6.5800000000000001

>  <m_primary>  (66) 
energy

$$$$
66:0
     RDKit          3D

 31 33  0  0  0  0  0  0  0  0999 V2000
  139.8830  158.1260  136.5480 N   0  0  0  0  0  0  0  0  0  0  0  0
  140.2960  158.0800  135.1850 C   0  0  0  0  0  0  0  0  0  0  0  0
  139.5380  157.5530  134.3280 O   0  0  0  0  0  0  0  0  0  0  0  0
  141.6220  158.5860  134.7750 C   0  0  0  0  0  0  0  0  0  0  0  0
  141.9780  159.9310  134.8290 C   0  0  0  0  0  0  0  0  0  0  0  0
  143.2390  159.9970  134.2820 C   0  0  0  0  0  0  0  0  0  0  0  0
  144.0790  161.0900  134.1030 C   0  0  0  0  0  0  0  0  0  0  0  0
  145.3460  160.8640  133.5420 C   0  0  0  0  0  0  0  0  0  0  0  0
  145.7560  159.5560  133.1710 C   0  0  0  0  0  0  0  0  0  0  0  0
  147.1100  159.3460  132.5980 C   0  0  0  0  0  0  0  0  0  0  0  0
  147.8520  158.1820  132.8550 C   0  0  0  0  0  0  0  0  0  0  0  0
  149.1160  158.0500  132.2810 C   0  0  0  0  0  0  0  0  0  0  0  0
  149.6060  159.0330  131.4840 N   0  0  0  0  0  0  0  0  0  0  0  0
  148.8790  160.1530  131.2320 C   0  0  0  0  0  0  0  0  0  0  0  0
  149.4080  161.1730  130.3890 N   0  0  0  0  0  0  0  0  0  0  0  0
  147.6450  160.2990  131.7850 N   0  0  0  0  0  0  0  0  0  0  0  0
  144.8720  158.4680  133.3800 C   0  0  0  0  0  0  0  0  0  0  0  0
  143.6080  158.7270  133.9240 C   0  0  0  0  0  0  0  0  0  0  0  0
  142.6270  157.8470  134.2240 N   0  0  0  0  0  0  0  0  0  0  0  0
  142.6880  156.4190  134.0790 C   0  0  0  0  0  0  0  0  0  0  0  0
  141.8510  155.8160  133.3570 O   0  0  0  0  0  0  0  0  0  0  0  0
  143.6890  155.6920  134.7130 O   0  0  0  0  0  0  0  0  0  0  0  0
  139.4720  158.9940  136.9560 H   0  0  0  0  0  0  0  0  0  0  0  0
  141.3785  160.7640  135.2249 H   0  0  0  0  0  0  0  0  0  0  0  0
  143.7604  162.1023  134.3924 H   0  0  0  0  0  0  0  0  0  0  0  0
  146.0302  161.7114  133.3878 H   0  0  0  0  0  0  0  0  0  0  0  0
  147.4435  157.3883  133.4977 H   0  0  0  0  0  0  0  0  0  0  0  0
  149.7162  157.1487  132.4744 H   0  0  0  0  0  0  0  0  0  0  0  0
  148.8290  161.5760  129.6200 H   0  0  0  0  0  0  0  0  0  0  0  0
  150.3810  161.5260  130.5320 H   0  0  0  0  0  0  0  0  0  0  0  0
  145.1724  157.4422  133.1204 H   0  0  0  0  0  0  0  0  0  0  0  0
  1  2  1  0
  2  3  2  0
  2  4  1  0
  4  5  2  0
  5  6  1  0
  6  7  2  0
  7  8  1  0
  8  9  2  0
  9 10  1  0
 10 11  2  0
 11 12  1  0
 12 13  2  0
 13 14  1  0
 14 15  1  0
 14 16  2  0
  9 17  1  0
 17 18  2  0
 18 19  1  0
 19 20  1  0
 20 21  2  0
 20 22  1  0
 19  4  1  0
 18  6  1  0
 16 10  1  0
  1 23  1  0
  5 24  1  0
  7 25  1  0
  8 26  1  0
 11 27  1  0
 12 28  1  0
 15 29  1  0
 15 30  1  0
 17 31  1  0
M  CHG  2   1  -1  22  -1
M  END
>  <UniqueID>  (67) 
67

>  <SMILES>  (67) 
[NH-]C(=O)c1cc2ccc(-c3ccnc(N)n3)cc2n1C(=O)[O-]

>  <Energy>  (67) 
77.24944577139729

>  <Genealogy>  (67) 
[NH-]C(=O)c1cc2ccc(-c3ccnc(N)n3)cc2n1C(=O)[O-] (protonated)
[NH-]C(=O)c1cc2ccc(-c3ccnc(N)n3)cc2n1C(=O)[O-] (3D coordinates assigned)
[NH-]C(=O)c1cc2ccc(-c3ccnc(N)n3)cc2n1C(=O)[O-] (optimized conformer: 77.24944577139729 kcal/mol)

>  <smiles>  (67) 
NC(=O)c1cc2ccc(-c3ccnc(N)n3)cc2n1C(=O)O

>  <score_type>  (67) 
oracle

>  <origin>  (67) 
adg

>  <m_score__min__energy>  (67) 
-7.4299999999999997

>  <m_primary>  (67) 
energy

$$$$
67:0
     RDKit          3D

 33 35  0  0  0  0  0  0  0  0999 V2000
  148.8680  158.4620  131.6840 N   0  0  0  0  0  0  0  0  0  0  0  0
  148.4060  158.9670  132.9330 C   0  0  0  0  0  0  0  0  0  0  0  0
  149.2450  159.3180  133.8050 O   0  0  0  0  0  0  0  0  0  0  0  0
  146.9640  159.1530  133.1910 C   0  0  0  0  0  0  0  0  0  0  0  0
  146.3900  160.3990  133.4360 C   0  0  0  0  0  0  0  0  0  0  0  0
  145.0360  160.1680  133.5120 C   0  0  0  0  0  0  0  0  0  0  0  0
  143.9880  161.0540  133.7420 C   0  0  0  0  0  0  0  0  0  0  0  0
  142.6840  160.5340  133.7870 C   0  0  0  0  0  0  0  0  0  0  0  0
  142.4520  159.1490  133.5970 C   0  0  0  0  0  0  0  0  0  0  0  0
  141.0760  158.6110  133.6720 C   0  0  0  0  0  0  0  0  0  0  0  0
  140.3450  158.4940  132.4760 C   0  0  0  0  0  0  0  0  0  0  0  0
  139.0150  158.0770  132.4920 C   0  0  0  0  0  0  0  0  0  0  0  0
  138.3920  157.7740  133.7010 C   0  0  0  0  0  0  0  0  0  0  0  0
  139.1040  157.8700  134.8990 C   0  0  0  0  0  0  0  0  0  0  0  0
  140.4530  158.2710  134.9050 C   0  0  0  0  0  0  0  0  0  0  0  0
  141.1860  158.2750  136.1960 C   0  0  0  0  0  0  0  0  0  0  0  0
  141.3350  159.3490  136.8360 O   0  0  0  0  0  0  0  0  0  0  0  0
  141.6780  157.0960  136.7420 O   0  0  0  0  0  0  0  0  0  0  0  0
  143.5420  158.2780  133.3770 C   0  0  0  0  0  0  0  0  0  0  0  0
  144.8290  158.8260  133.3250 C   0  0  0  0  0  0  0  0  0  0  0  0
  146.0040  158.1860  133.1370 N   0  0  0  0  0  0  0  0  0  0  0  0
  146.1680  156.7640  133.0090 C   0  0  0  0  0  0  0  0  0  0  0  0
  147.1400  156.2780  132.3740 O   0  0  0  0  0  0  0  0  0  0  0  0
  148.6490  157.4870  131.3840 H   0  0  0  0  0  0  0  0  0  0  0  0
  146.9093  161.3625  133.5454 H   0  0  0  0  0  0  0  0  0  0  0  0
  144.1750  162.1286  133.8842 H   0  0  0  0  0  0  0  0  0  0  0  0
  141.8347  161.2083  133.9715 H   0  0  0  0  0  0  0  0  0  0  0  0
  140.8282  158.7342  131.5175 H   0  0  0  0  0  0  0  0  0  0  0  0
  138.4564  157.9870  131.5487 H   0  0  0  0  0  0  0  0  0  0  0  0
  137.3382  157.4588  133.7121 H   0  0  0  0  0  0  0  0  0  0  0  0
  138.6044  157.6293  135.8490 H   0  0  0  0  0  0  0  0  0  0  0  0
  143.3836  157.1969  133.2498 H   0  0  0  0  0  0  0  0  0  0  0  0
  145.4329  156.0901  133.4731 H   0  0  0  0  0  0  0  0  0  0  0  0
  1  2  1  0
  2  3  2  0
  2  4  1  0
  4  5  2  0
  5  6  1  0
  6  7  2  0
  7  8  1  0
  8  9  2  0
  9 10  1  0
 10 11  2  0
 11 12  1  0
 12 13  2  0
 13 14  1  0
 14 15  2  0
 15 16  1  0
 16 17  2  0
 16 18  1  0
  9 19  1  0
 19 20  2  0
 20 21  1  0
 21 22  1  0
 22 23  2  0
 21  4  1  0
 20  6  1  0
 15 10  1  0
  1 24  1  0
  5 25  1  0
  7 26  1  0
  8 27  1  0
 11 28  1  0
 12 29  1  0
 13 30  1  0
 14 31  1  0
 19 32  1  0
 22 33  1  0
M  CHG  2   1  -1  18  -1
M  END
>  <UniqueID>  (68) 
68

>  <SMILES>  (68) 
[NH-]C(=O)c1cc2ccc(-c3ccccc3C(=O)[O-])cc2n1C=O

>  <Energy>  (68) 
85.65430860726866

>  <Genealogy>  (68) 
[NH-]C(=O)c1cc2ccc(-c3ccccc3C(=O)[O-])cc2n1C=O (protonated)
[NH-]C(=O)c1cc2ccc(-c3ccccc3C(=O)[O-])cc2n1C=O (3D coordinates assigned)
[NH-]C(=O)c1cc2ccc(-c3ccccc3C(=O)[O-])cc2n1C=O (optimized conformer: 85.65430860726866 kcal/mol)

>  <smiles>  (68) 
NC(=O)c1cc2ccc(-c3ccccc3C(=O)O)cc2n1C=O

>  <score_type>  (68) 
oracle

>  <origin>  (68) 
adg

>  <m_score__min__energy>  (68) 
-7.5199999999999996

>  <m_primary>  (68) 
energy

$$$$
68:0
     RDKit          3D

 38 41  0  0  0  0  0  0  0  0999 V2000
  147.2270  154.5820  132.2310 N   0  0  0  0  0  0  0  0  0  0  0  0
  147.7950  155.8060  132.6940 C   0  0  0  0  0  0  0  0  0  0  0  0
  149.0230  155.8520  132.9740 O   0  0  0  0  0  0  0  0  0  0  0  0
  146.9540  156.9970  132.9230 C   0  0  0  0  0  0  0  0  0  0  0  0
  147.4730  158.2790  133.0760 C   0  0  0  0  0  0  0  0  0  0  0  0
  146.3880  159.0790  133.3560 C   0  0  0  0  0  0  0  0  0  0  0  0
  146.3230  160.4470  133.5980 C   0  0  0  0  0  0  0  0  0  0  0  0
  145.0610  161.0130  133.8410 C   0  0  0  0  0  0  0  0  0  0  0  0
  143.8940  160.2080  133.8380 C   0  0  0  0  0  0  0  0  0  0  0  0
  142.5500  160.8330  134.1070 C   0  0  0  0  0  0  0  0  0  0  0  0
  141.5460  159.7980  134.3890 N   0  0  0  0  0  0  0  0  0  0  0  0
  141.4630  159.1220  135.5670 C   0  0  0  0  0  0  0  0  0  0  0  0
  142.2190  159.3370  136.5510 O   0  0  0  0  0  0  0  0  0  0  0  0
  140.2410  157.9570  135.5690 S   0  0  0  0  0  0  0  0  0  0  0  0
  139.7950  158.3280  133.9910 C   0  0  0  0  0  0  0  0  0  0  0  0
  138.7870  157.7470  133.2230 C   0  0  0  0  0  0  0  0  0  0  0  0
  138.0130  156.7530  133.7250 F   0  0  0  0  0  0  0  0  0  0  0  0
  138.5940  158.2150  131.9160 C   0  0  0  0  0  0  0  0  0  0  0  0
  139.4020  159.2470  131.4050 C   0  0  0  0  0  0  0  0  0  0  0  0
  139.2040  159.6930  130.1390 F   0  0  0  0  0  0  0  0  0  0  0  0
  140.4130  159.8200  132.1950 C   0  0  0  0  0  0  0  0  0  0  0  0
  140.6050  159.3480  133.5030 C   0  0  0  0  0  0  0  0  0  0  0  0
  143.9990  158.8240  133.5770 C   0  0  0  0  0  0  0  0  0  0  0  0
  145.2700  158.2840  133.3520 C   0  0  0  0  0  0  0  0  0  0  0  0
  145.6000  157.0020  133.0780 N   0  0  0  0  0  0  0  0  0  0  0  0
  144.6750  155.9190  132.8830 C   0  0  0  0  0  0  0  0  0  0  0  0
  144.6940  154.9090  133.6350 O   0  0  0  0  0  0  0  0  0  0  0  0
  147.8380  153.7550  132.0470 H   0  0  0  0  0  0  0  0  0  0  0  0
  146.1930  154.4700  132.1400 H   0  0  0  0  0  0  0  0  0  0  0  0
  148.5255  158.5874  132.9913 H   0  0  0  0  0  0  0  0  0  0  0  0
  147.2320  161.0665  133.5990 H   0  0  0  0  0  0  0  0  0  0  0  0
  144.9770  162.0924  134.0357 H   0  0  0  0  0  0  0  0  0  0  0  0
  142.6306  161.5045  134.9745 H   0  0  0  0  0  0  0  0  0  0  0  0
  142.2368  161.3979  133.2166 H   0  0  0  0  0  0  0  0  0  0  0  0
  137.8071  157.7733  131.2869 H   0  0  0  0  0  0  0  0  0  0  0  0
  141.0446  160.6265  131.7944 H   0  0  0  0  0  0  0  0  0  0  0  0
  143.1032  158.1861  133.5512 H   0  0  0  0  0  0  0  0  0  0  0  0
  143.9406  155.9732  132.0658 H   0  0  0  0  0  0  0  0  0  0  0  0
  1  2  1  0
  2  3  2  0
  2  4  1  0
  4  5  2  0
  5  6  1  0
  6  7  2  0
  7  8  1  0
  8  9  2  0
  9 10  1  0
 10 11  1  0
 11 12  1  0
 12 13  2  0
 12 14  1  0
 14 15  1  0
 15 16  2  0
 16 17  1  0
 16 18  1  0
 18 19  2  0
 19 20  1  0
 19 21  1  0
 21 22  2  0
  9 23  1  0
 23 24  2  0
 24 25  1  0
 25 26  1  0
 26 27  2  0
 25  4  1  0
 24  6  1  0
 22 11  1  0
 22 15  1  0
  1 28  1  0
  1 29  1  0
  5 30  1  0
  7 31  1  0
  8 32  1  0
 10 33  1  0
 10 34  1  0
 18 35  1  0
 21 36  1  0
 23 37  1  0
 26 38  1  0
M  END
>  <UniqueID>  (69) 
69

>  <SMILES>  (69) 
NC(=O)c1cc2ccc(Cn3c(=O)sc4c(F)cc(F)cc43)cc2n1C=O

>  <Energy>  (69) 
117.46816725995771

>  <Genealogy>  (69) 
NC(=O)c1cc2ccc(Cn3c(=O)sc4c(F)cc(F)cc43)cc2n1C=O (3D coordinates assigned)
NC(=O)c1cc2ccc(Cn3c(=O)sc4c(F)cc(F)cc43)cc2n1C=O (optimized conformer: 117.46816725995771 kcal/mol)

>  <smiles>  (69) 
NC(=O)c1cc2ccc(Cn3c(=O)sc4c(F)cc(F)cc43)cc2n1C=O

>  <score_type>  (69) 
oracle

>  <origin>  (69) 
adg

>  <m_score__min__energy>  (69) 
-7.9100000000000001

>  <m_primary>  (69) 
energy

$$$$
69:0
     RDKit          3D

 63 68  0  0  0  0  0  0  0  0999 V2000
  148.0760  160.5960  132.7900 N   0  0  0  0  0  0  0  0  0  0  0  0
  148.5170  159.3510  132.2530 C   0  0  0  0  0  0  0  0  0  0  0  0
  149.4760  159.3370  131.4360 O   0  0  0  0  0  0  0  0  0  0  0  0
  147.8460  158.0970  132.6520 C   0  0  0  0  0  0  0  0  0  0  0  0
  148.4940  156.8690  132.7820 C   0  0  0  0  0  0  0  0  0  0  0  0
  147.5260  155.9880  133.2100 C   0  0  0  0  0  0  0  0  0  0  0  0
  147.6000  154.6200  133.4570 C   0  0  0  0  0  0  0  0  0  0  0  0
  146.4210  153.9530  133.8350 C   0  0  0  0  0  0  0  0  0  0  0  0
  145.2030  154.6650  133.9530 C   0  0  0  0  0  0  0  0  0  0  0  0
  143.9940  153.9800  134.2990 N   0  0  0  0  0  0  0  0  0  0  0  0
  143.8080  152.5720  133.9980 C   0  0  0  0  0  0  0  0  0  0  0  0
  142.3270  152.3050  134.2200 C   0  0  0  0  0  0  0  0  0  0  0  0
  141.8480  153.4310  135.1370 C   0  0  1  0  0  0  0  0  0  0  0  0
  141.9990  153.0010  136.5360 N   0  0  0  0  0  0  0  0  0  0  0  0
  141.3130  151.8740  137.0950 C   0  0  0  0  0  0  0  0  0  0  0  0
  140.6360  151.1010  136.3660 O   0  0  0  0  0  0  0  0  0  0  0  0
  141.3830  151.6390  138.4630 O   0  0  0  0  0  0  0  0  0  0  0  0
  142.7800  154.6160  134.8010 C   0  0  1  0  0  0  0  0  0  0  0  0
  143.0340  155.5710  136.0060 C   0  0  1  0  0  0  0  0  0  0  0  0
  143.2490  156.8810  135.5410 O   0  0  0  0  0  0  0  0  0  0  0  0
  141.8340  155.5590  136.9900 C   0  0  1  0  0  0  0  0  0  0  0  0
  141.5840  156.8700  137.7290 C   0  0  0  0  0  0  0  0  0  0  0  0
  140.5950  156.4020  136.6670 C   0  0  1  0  0  0  0  0  0  0  0  0
  140.5740  157.1540  135.3580 C   0  0  0  0  0  0  0  0  0  0  0  0
  140.3680  158.5390  135.3630 C   0  0  0  0  0  0  0  0  0  0  0  0
  140.2610  159.2040  134.1850 N   0  0  0  0  0  0  0  0  0  0  0  0
  140.3680  158.5530  132.9970 C   0  0  0  0  0  0  0  0  0  0  0  0
  140.2610  159.2410  131.8340 F   0  0  0  0  0  0  0  0  0  0  0  0
  140.6240  157.1820  132.9860 C   0  0  0  0  0  0  0  0  0  0  0  0
  140.7140  156.5110  134.1650 N   0  0  0  0  0  0  0  0  0  0  0  0
  145.1670  156.0520  133.7090 C   0  0  0  0  0  0  0  0  0  0  0  0
  146.3540  156.6880  133.3410 C   0  0  0  0  0  0  0  0  0  0  0  0
  146.5330  157.9800  132.9960 N   0  0  0  0  0  0  0  0  0  0  0  0
  145.5180  158.9920  132.9300 C   0  0  0  0  0  0  0  0  0  0  0  0
  145.4850  159.7710  131.9360 O   0  0  0  0  0  0  0  0  0  0  0  0
  144.5250  159.1360  134.0540 C   0  0  0  0  0  0  0  0  0  0  0  0
  144.3150  160.5800  134.4790 C   0  0  0  0  0  0  0  0  0  0  0  0
  143.2120  159.8410  133.7410 C   0  0  0  0  0  0  0  0  0  0  0  0
  147.1380  160.9800  132.5350 H   0  0  0  0  0  0  0  0  0  0  0  0
  149.5538  156.6504  132.5845 H   0  0  0  0  0  0  0  0  0  0  0  0
  148.5518  154.0772  133.3595 H   0  0  0  0  0  0  0  0  0  0  0  0
  146.4453  152.8726  134.0400 H   0  0  0  0  0  0  0  0  0  0  0  0
  144.0851  152.3614  132.9545 H   0  0  0  0  0  0  0  0  0  0  0  0
  144.4392  151.9310  134.6310 H   0  0  0  0  0  0  0  0  0  0  0  0
  141.7835  152.3289  133.2640 H   0  0  0  0  0  0  0  0  0  0  0  0
  142.1504  151.3130  134.6613 H   0  0  0  0  0  0  0  0  0  0  0  0
  140.7910  153.7021  134.9984 H   0  0  0  0  0  0  0  0  0  0  0  0
  142.5860  153.5840  137.1790 H   0  0  0  0  0  0  0  0  0  0  0  0
  142.3311  155.2929  134.0591 H   0  0  0  0  0  0  0  0  0  0  0  0
  143.9271  155.2167  136.5415 H   0  0  0  0  0  0  0  0  0  0  0  0
  142.7630  156.9690  134.6810 H   0  0  0  0  0  0  0  0  0  0  0  0
  141.9822  154.5027  137.2586 H   0  0  0  0  0  0  0  0  0  0  0  0
  141.2971  156.8557  138.7908 H   0  0  0  0  0  0  0  0  0  0  0  0
  142.1649  157.7889  137.8970 H   0  0  0  0  0  0  0  0  0  0  0  0
  139.5122  156.2105  136.6369 H   0  0  0  0  0  0  0  0  0  0  0  0
  140.2934  159.0843  136.3154 H   0  0  0  0  0  0  0  0  0  0  0  0
  140.7519  156.6487  132.0325 H   0  0  0  0  0  0  0  0  0  0  0  0
  144.2291  156.6185  133.8058 H   0  0  0  0  0  0  0  0  0  0  0  0
  144.7724  158.1812  134.5409 H   0  0  0  0  0  0  0  0  0  0  0  0
  144.1936  160.8274  135.5439 H   0  0  0  0  0  0  0  0  0  0  0  0
  144.8586  161.5232  134.3213 H   0  0  0  0  0  0  0  0  0  0  0  0
  142.2926  159.5526  134.2716 H   0  0  0  0  0  0  0  0  0  0  0  0
  142.6268  160.0266  132.8283 H   0  0  0  0  0  0  0  0  0  0  0  0
  1  2  1  0
  2  3  2  0
  2  4  1  0
  4  5  2  0
  5  6  1  0
  6  7  2  0
  7  8  1  0
  8  9  2  0
  9 10  1  0
 10 11  1  0
 11 12  1  0
 12 13  1  0
 13 14  1  0
 14 15  1  0
 15 16  2  0
 15 17  1  0
 13 18  1  0
 18 19  1  0
 19 20  1  0
 19 21  1  0
 21 22  1  0
 22 23  1  0
 23 24  1  0
 24 25  2  0
 25 26  1  0
 26 27  2  0
 27 28  1  0
 27 29  1  0
 29 30  2  0
  9 31  1  0
 31 32  2  0
 32 33  1  0
 33 34  1  0
 34 35  2  0
 34 36  1  0
 36 37  1  0
 37 38  1  0
 33  4  1  0
 38 36  1  0
 32  6  1  0
 18 10  1  0
 23 21  1  0
 30 24  1  0
  1 39  1  0
  5 40  1  0
  7 41  1  0
  8 42  1  0
 11 43  1  0
 11 44  1  0
 12 45  1  0
 12 46  1  0
 13 47  1  6
 14 48  1  0
 18 49  1  6
 19 50  1  1
 20 51  1  0
 21 52  1  1
 22 53  1  0
 22 54  1  0
 23 55  1  1
 25 56  1  0
 29 57  1  0
 31 58  1  0
 36 59  1  0
 37 60  1  0
 37 61  1  0
 38 62  1  0
 38 63  1  0
M  CHG  2   1  -1  17  -1
M  END
>  <UniqueID>  (70) 
70

>  <SMILES>  (70) 
[NH-]C(=O)c1cc2ccc(N3CC[C@@H](NC(=O)[O-])[C@H]3[C@@H](O)[C@H]3C[C@H]3c3cnc(F)cn3)cc2n1C(=O)C1CC1

>  <Energy>  (70) 
650.1572548164261

>  <Genealogy>  (70) 
[NH-]C(=O)c1cc2ccc(N3CC[C@@H](NC(=O)[O-])C3[C@@H](O)[C@H]3C[C@H]3c3cnc(F)cn3)cc2n1C(=O)C1CC1 (protonated)
[NH-]C(=O)c1cc2ccc(N3CC[C@@H](NC(=O)[O-])[C@H]3[C@@H](O)[C@H]3C[C@H]3c3cnc(F)cn3)cc2n1C(=O)C1CC1 (chirality)
[NH-]C(=O)c1cc2ccc(N3CC[C@@H](NC(=O)[O-])[C@H]3[C@@H](O)[C@H]3C[C@H]3c3cnc(F)cn3)cc2n1C(=O)C1CC1 (3D coordinates assigned)
[NH-]C(=O)c1cc2ccc(N3CC[C@@H](NC(=O)[O-])[C@H]3[C@@H](O)[C@H]3C[C@H]3c3cnc(F)cn3)cc2n1C(=O)C1CC1 (nonaromatic ring conformer: 650.1572548164261 kcal/mol)

>  <smiles>  (70) 
NC(=O)c1cc2ccc(N3CC[C@@H](NC(=O)O)C3[C@@H](O)[C@H]3C[C@H]3c3cnc(F)cn3)cc2n1C(=O)C1CC1

>  <score_type>  (70) 
oracle

>  <origin>  (70) 
adg

>  <m_score__min__energy>  (70) 
-9.6600000000000001

>  <m_primary>  (70) 
energy

$$$$
70:0
     RDKit          3D

 38 39  0  0  0  0  0  0  0  0999 V2000
  149.5980  160.4850  129.2150 C   0  0  0  0  0  0  0  0  0  0  0  0
  149.5110  161.3720  130.4510 C   0  0  0  0  0  0  0  0  0  0  0  0
  148.7350  160.7420  131.4680 O   0  0  0  0  0  0  0  0  0  0  0  0
  149.1700  159.6230  132.1880 C   0  0  0  0  0  0  0  0  0  0  0  0
  149.9980  158.8140  131.6850 O   0  0  0  0  0  0  0  0  0  0  0  0
  148.6000  159.3560  133.5430 C   0  0  0  0  0  0  0  0  0  0  0  0
  147.5490  158.2850  133.4550 C   0  0  0  0  0  0  0  0  0  0  0  0
  146.1760  158.6300  133.5260 C   0  0  0  0  0  0  0  0  0  0  0  0
  145.1840  157.6450  133.3980 C   0  0  0  0  0  0  0  0  0  0  0  0
  145.5920  156.3290  133.1980 C   0  0  0  0  0  0  0  0  0  0  0  0
  144.8440  155.1890  133.0130 C   0  0  0  0  0  0  0  0  0  0  0  0
  145.7700  154.1620  132.8420 C   0  0  0  0  0  0  0  0  0  0  0  0
  145.4020  152.7360  132.6990 C   0  0  0  0  0  0  0  0  0  0  0  0
  146.1680  151.8640  131.8660 N   0  0  0  0  0  0  0  0  0  0  0  0
  144.3860  152.2830  133.2900 O   0  0  0  0  0  0  0  0  0  0  0  0
  147.0410  154.6490  132.9150 N   0  0  0  0  0  0  0  0  0  0  0  0
  148.2710  153.9270  132.7330 C   0  0  0  0  0  0  0  0  0  0  0  0
  149.2790  154.5120  132.2510 O   0  0  0  0  0  0  0  0  0  0  0  0
  148.3500  152.5810  133.1030 O   0  0  0  0  0  0  0  0  0  0  0  0
  149.4360  151.7440  132.7270 C   0  0  0  0  0  0  0  0  0  0  0  0
  146.9150  155.9770  133.1340 C   0  0  0  0  0  0  0  0  0  0  0  0
  147.9260  156.9410  133.2400 C   0  0  0  0  0  0  0  0  0  0  0  0
  149.7011  159.4344  129.5242 H   0  0  0  0  0  0  0  0  0  0  0  0
  148.6840  160.6025  128.6143 H   0  0  0  0  0  0  0  0  0  0  0  0
  150.4717  160.7778  128.6143 H   0  0  0  0  0  0  0  0  0  0  0  0
  150.5252  161.5588  130.8339 H   0  0  0  0  0  0  0  0  0  0  0  0
  149.0281  162.3205  130.1732 H   0  0  0  0  0  0  0  0  0  0  0  0
  149.4031  159.0241  134.2174 H   0  0  0  0  0  0  0  0  0  0  0  0
  148.1446  160.2786  133.9321 H   0  0  0  0  0  0  0  0  0  0  0  0
  145.8851  159.6792  133.6828 H   0  0  0  0  0  0  0  0  0  0  0  0
  144.1167  157.9051  133.4540 H   0  0  0  0  0  0  0  0  0  0  0  0
  143.7472  155.1060  133.0024 H   0  0  0  0  0  0  0  0  0  0  0  0
  145.8750  150.8690  131.7410 H   0  0  0  0  0  0  0  0  0  0  0  0
  147.0450  152.1870  131.4030 H   0  0  0  0  0  0  0  0  0  0  0  0
  149.9333  151.3607  133.6302 H   0  0  0  0  0  0  0  0  0  0  0  0
  149.0592  150.9005  132.1300 H   0  0  0  0  0  0  0  0  0  0  0  0
  150.1557  152.3232  132.1300 H   0  0  0  0  0  0  0  0  0  0  0  0
  148.9859  156.6585  133.1579 H   0  0  0  0  0  0  0  0  0  0  0  0
  1  2  1  0
  2  3  1  0
  3  4  1  0
  4  5  2  0
  4  6  1  0
  6  7  1  0
  7  8  2  0
  8  9  1  0
  9 10  2  0
 10 11  1  0
 11 12  2  0
 12 13  1  0
 13 14  1  0
 13 15  2  0
 12 16  1  0
 16 17  1  0
 17 18  2  0
 17 19  1  0
 19 20  1  0
 16 21  1  0
 21 22  2  0
 22  7  1  0
 21 10  1  0
  1 23  1  0
  1 24  1  0
  1 25  1  0
  2 26  1  0
  2 27  1  0
  6 28  1  0
  6 29  1  0
  8 30  1  0
  9 31  1  0
 11 32  1  0
 14 33  1  0
 14 34  1  0
 20 35  1  0
 20 36  1  0
 20 37  1  0
 22 38  1  0
M  END
>  <UniqueID>  (71) 
71

>  <SMILES>  (71) 
CCOC(=O)Cc1ccc2cc(C(N)=O)n(C(=O)OC)c2c1

>  <Energy>  (71) 
68.44230305767502

>  <Genealogy>  (71) 
CCOC(=O)Cc1ccc2cc(C(N)=O)n(C(=O)OC)c2c1 (3D coordinates assigned)
CCOC(=O)Cc1ccc2cc(C(N)=O)n(C(=O)OC)c2c1 (optimized conformer: 68.44230305767502 kcal/mol)

>  <smiles>  (71) 
CCOC(=O)Cc1ccc2cc(C(N)=O)n(C(=O)OC)c2c1

>  <score_type>  (71) 
oracle

>  <origin>  (71) 
adg

>  <m_score__min__energy>  (71) 
-6.4100000000000001

>  <m_primary>  (71) 
energy

$$$$
71:0
     RDKit          3D

 53 55  0  0  0  0  0  0  0  0999 V2000
  140.2460  159.5250  135.6630 N   0  0  0  0  0  0  0  0  0  0  0  0
  141.1310  158.7930  136.5080 C   0  0  0  0  0  0  0  0  0  0  0  0
  141.6490  159.3660  137.5010 O   0  0  0  0  0  0  0  0  0  0  0  0
  141.4670  157.3910  136.1790 C   0  0  0  0  0  0  0  0  0  0  0  0
  141.9610  156.4880  137.1170 C   0  0  0  0  0  0  0  0  0  0  0  0
  142.0780  155.2930  136.4480 C   0  0  0  0  0  0  0  0  0  0  0  0
  142.5380  154.0590  136.8980 C   0  0  0  0  0  0  0  0  0  0  0  0
  142.5910  153.0000  135.9760 C   0  0  0  0  0  0  0  0  0  0  0  0
  142.2030  153.1980  134.6280 C   0  0  0  0  0  0  0  0  0  0  0  0
  142.2540  152.0540  133.6520 C   0  0  0  0  0  0  0  0  0  0  0  0
  141.2720  150.9980  134.0430 C   0  0  0  0  0  0  0  0  0  0  0  0
  141.0010  150.8050  135.2580 O   0  0  0  0  0  0  0  0  0  0  0  0
  140.6860  150.1990  133.0690 O   0  0  0  0  0  0  0  0  0  0  0  0
  141.7270  154.4600  134.2120 C   0  0  0  0  0  0  0  0  0  0  0  0
  141.6650  155.4940  135.1560 C   0  0  0  0  0  0  0  0  0  0  0  0
  141.2840  156.7780  134.9730 N   0  0  0  0  0  0  0  0  0  0  0  0
  140.8710  157.3700  133.7270 C   0  0  0  0  0  0  0  0  0  0  0  0
  139.9090  156.8690  133.0840 O   0  0  0  0  0  0  0  0  0  0  0  0
  141.6060  158.4710  133.1770 N   0  0  0  0  0  0  0  0  0  0  0  0
  142.9930  158.7420  133.4240 C   0  0  0  0  0  0  0  0  0  0  0  0
  143.8540  157.6450  133.5580 C   0  0  0  0  0  0  0  0  0  0  0  0
  145.2420  157.8210  133.7000 C   0  0  0  0  0  0  0  0  0  0  0  0
  146.1310  156.6810  133.7980 N   0  0  0  0  0  0  0  0  0  0  0  0
  145.6000  155.3070  133.8690 C   0  0  0  0  0  0  0  0  0  0  0  0
  145.3760  154.8440  135.3120 C   0  0  0  0  0  0  0  0  0  0  0  0
  146.8570  154.1520  136.0200 Cl  0  0  0  0  0  0  0  0  0  0  0  0
  147.5770  156.8990  133.9780 C   0  0  0  0  0  0  0  0  0  0  0  0
  148.3010  157.0730  132.6370 C   0  0  0  0  0  0  0  0  0  0  0  0
  148.9450  158.7250  132.4470 Cl  0  0  0  0  0  0  0  0  0  0  0  0
  145.7530  159.1280  133.7400 C   0  0  0  0  0  0  0  0  0  0  0  0
  144.9010  160.2290  133.6480 C   0  0  0  0  0  0  0  0  0  0  0  0
  143.5160  160.0570  133.5100 C   0  0  0  0  0  0  0  0  0  0  0  0
  142.6660  161.2160  133.5200 N   0  0  0  0  0  0  0  0  0  0  0  0
  141.4500  161.1050  133.7740 O   0  0  0  0  0  0  0  0  0  0  0  0
  143.2160  162.4750  133.4410 O   0  0  0  0  0  0  0  0  0  0  0  0
  140.3360  159.4780  134.6230 H   0  0  0  0  0  0  0  0  0  0  0  0
  142.2058  156.6886  138.1705 H   0  0  0  0  0  0  0  0  0  0  0  0
  142.8504  153.9171  137.9431 H   0  0  0  0  0  0  0  0  0  0  0  0
  142.9368  152.0085  136.3038 H   0  0  0  0  0  0  0  0  0  0  0  0
  142.0084  152.4238  132.6456 H   0  0  0  0  0  0  0  0  0  0  0  0
  143.2659  151.6227  133.6571 H   0  0  0  0  0  0  0  0  0  0  0  0
  141.4122  154.6280  133.1715 H   0  0  0  0  0  0  0  0  0  0  0  0
  143.4367  156.6273  133.5520 H   0  0  0  0  0  0  0  0  0  0  0  0
  144.6402  155.2706  133.3328 H   0  0  0  0  0  0  0  0  0  0  0  0
  146.3416  154.6356  133.4115 H   0  0  0  0  0  0  0  0  0  0  0  0
  145.0605  155.7061  135.9180 H   0  0  0  0  0  0  0  0  0  0  0  0
  144.6020  154.0624  135.3048 H   0  0  0  0  0  0  0  0  0  0  0  0
  147.7273  157.8051  134.5834 H   0  0  0  0  0  0  0  0  0  0  0  0
  147.9953  156.0134  134.4786 H   0  0  0  0  0  0  0  0  0  0  0  0
  149.1345  156.3570  132.5860 H   0  0  0  0  0  0  0  0  0  0  0  0
  147.5767  156.8915  131.8293 H   0  0  0  0  0  0  0  0  0  0  0  0
  146.8366  159.2857  133.8450 H   0  0  0  0  0  0  0  0  0  0  0  0
  145.3210  161.2450  133.6842 H   0  0  0  0  0  0  0  0  0  0  0  0
  1  2  1  0
  2  3  2  0
  2  4  1  0
  4  5  2  0
  5  6  1  0
  6  7  2  0
  7  8  1  0
  8  9  2  0
  9 10  1  0
 10 11  1  0
 11 12  2  0
 11 13  1  0
  9 14  1  0
 14 15  2  0
 15 16  1  0
 16 17  1  0
 17 18  2  0
 17 19  1  0
 19 20  1  0
 20 21  2  0
 21 22  1  0
 22 23  1  0
 23 24  1  0
 24 25  1  0
 25 26  1  0
 23 27  1  0
 27 28  1  0
 28 29  1  0
 22 30  2  0
 30 31  1  0
 31 32  2  0
 32 33  1  0
 33 34  2  0
 33 35  1  0
 16  4  1  0
 32 20  1  0
 15  6  1  0
  1 36  1  0
  5 37  1  0
  7 38  1  0
  8 39  1  0
 10 40  1  0
 10 41  1  0
 14 42  1  0
 21 43  1  0
 24 44  1  0
 24 45  1  0
 25 46  1  0
 25 47  1  0
 27 48  1  0
 27 49  1  0
 28 50  1  0
 28 51  1  0
 30 52  1  0
 31 53  1  0
M  CHG  5   1  -1  13  -1  19  -1  33   1  35  -1
M  END
>  <UniqueID>  (72) 
72

>  <SMILES>  (72) 
[NH-]C(=O)c1cc2ccc(CC(=O)[O-])cc2n1C(=O)[N-]c1cc(N(CCCl)CCCl)ccc1[N+](=O)[O-]

>  <Energy>  (72) 
103.01032841973775

>  <Genealogy>  (72) 
[NH-]C(=O)c1cc2ccc(CC(=O)[O-])cc2n1C(=O)[N-]c1cc(N(CCCl)CCCl)ccc1[N+](=O)[O-] (protonated)
[NH-]C(=O)c1cc2ccc(CC(=O)[O-])cc2n1C(=O)[N-]c1cc(N(CCCl)CCCl)ccc1[N+](=O)[O-] (3D coordinates assigned)
[NH-]C(=O)c1cc2ccc(CC(=O)[O-])cc2n1C(=O)[N-]c1cc(N(CCCl)CCCl)ccc1[N+](=O)[O-] (optimized conformer: 103.01032841973775 kcal/mol)

>  <smiles>  (72) 
NC(=O)c1cc2ccc(CC(=O)O)cc2n1C(=O)Nc1cc(N(CCCl)CCCl)ccc1[N+](=O)[O-]

>  <score_type>  (72) 
oracle

>  <origin>  (72) 
adg

>  <m_score__min__energy>  (72) 
-9.4900000000000002

>  <m_primary>  (72) 
energy

$$$$
72:0
     RDKit          3D

 38 40  0  0  0  0  0  0  0  0999 V2000
  142.5410  154.6780  139.6250 N   0  0  0  0  0  0  0  0  0  0  0  0
  142.7400  153.4240  138.9770 C   0  0  0  0  0  0  0  0  0  0  0  0
  143.0900  152.4270  139.6620 O   0  0  0  0  0  0  0  0  0  0  0  0
  142.5770  153.3190  137.5120 C   0  0  0  0  0  0  0  0  0  0  0  0
  143.2890  154.1010  136.6050 C   0  0  0  0  0  0  0  0  0  0  0  0
  142.9230  153.6420  135.3610 C   0  0  0  0  0  0  0  0  0  0  0  0
  143.3240  154.0670  134.0970 C   0  0  0  0  0  0  0  0  0  0  0  0
  142.7660  153.4250  132.9800 C   0  0  0  0  0  0  0  0  0  0  0  0
  141.8140  152.3860  133.1400 C   0  0  0  0  0  0  0  0  0  0  0  0
  141.2580  151.7270  131.9800 N   0  0  0  0  0  0  0  0  0  0  0  0
  140.6010  150.4510  132.3430 C   0  0  0  0  0  0  0  0  0  0  0  0
  141.4370  149.2440  131.8520 C   0  0  0  0  0  0  0  0  0  0  0  0
  140.8740  148.6820  130.5360 C   0  0  0  0  0  0  0  0  0  0  0  0
  139.5370  148.2060  130.6400 O   0  0  0  0  0  0  0  0  0  0  0  0
  138.7350  148.9140  131.5800 C   0  0  0  0  0  0  0  0  0  0  0  0
  139.1570  150.3770  131.7880 C   0  0  0  0  0  0  0  0  0  0  0  0
  141.4320  151.9830  134.4420 C   0  0  0  0  0  0  0  0  0  0  0  0
  142.0200  152.6260  135.5370 C   0  0  0  0  0  0  0  0  0  0  0  0
  141.7950  152.4160  136.8540 N   0  0  0  0  0  0  0  0  0  0  0  0
  140.8710  151.4710  137.4180 C   0  0  0  0  0  0  0  0  0  0  0  0
  140.3240  151.6990  138.5290 O   0  0  0  0  0  0  0  0  0  0  0  0
  140.5530  150.3060  136.7310 O   0  0  0  0  0  0  0  0  0  0  0  0
  143.2530  155.4380  139.5540 H   0  0  0  0  0  0  0  0  0  0  0  0
  143.9943  154.9132  136.8349 H   0  0  0  0  0  0  0  0  0  0  0  0
  144.0550  154.8802  133.9774 H   0  0  0  0  0  0  0  0  0  0  0  0
  143.0709  153.7316  131.9685 H   0  0  0  0  0  0  0  0  0  0  0  0
  142.0410  151.5400  131.3110 H   0  0  0  0  0  0  0  0  0  0  0  0
  140.5770  152.3550  131.4920 H   0  0  0  0  0  0  0  0  0  0  0  0
  140.5397  150.4099  133.4405 H   0  0  0  0  0  0  0  0  0  0  0  0
  142.4755  149.5681  131.6895 H   0  0  0  0  0  0  0  0  0  0  0  0
  141.3947  148.4544  132.6166 H   0  0  0  0  0  0  0  0  0  0  0  0
  140.9002  149.4796  129.7789 H   0  0  0  0  0  0  0  0  0  0  0  0
  141.5003  147.8204  130.2617 H   0  0  0  0  0  0  0  0  0  0  0  0
  137.6941  148.9018  131.2246 H   0  0  0  0  0  0  0  0  0  0  0  0
  138.8590  148.4072  132.5484 H   0  0  0  0  0  0  0  0  0  0  0  0
  139.1115  150.9073  130.8253 H   0  0  0  0  0  0  0  0  0  0  0  0
  138.4733  150.8452  132.5114 H   0  0  0  0  0  0  0  0  0  0  0  0
  140.6908  151.1837  134.5895 H   0  0  0  0  0  0  0  0  0  0  0  0
  1  2  1  0
  2  3  2  0
  2  4  1  0
  4  5  2  0
  5  6  1  0
  6  7  2  0
  7  8  1  0
  8  9  2  0
  9 10  1  0
 10 11  1  0
 11 12  1  0
 12 13  1  0
 13 14  1  0
 14 15  1  0
 15 16  1  0
  9 17  1  0
 17 18  2  0
 18 19  1  0
 19 20  1  0
 20 21  2  0
 20 22  1  0
 19  4  1  0
 18  6  1  0
 16 11  1  0
  1 23  1  0
  5 24  1  0
  7 25  1  0
  8 26  1  0
 10 27  1  0
 10 28  1  0
 11 29  1  0
 12 30  1  0
 12 31  1  0
 13 32  1  0
 13 33  1  0
 15 34  1  0
 15 35  1  0
 16 36  1  0
 16 37  1  0
 17 38  1  0
M  CHG  3   1  -1  10   1  22  -1
M  END
>  <UniqueID>  (73) 
73

>  <SMILES>  (73) 
[NH-]C(=O)c1cc2ccc([NH2+]C3CCOCC3)cc2n1C(=O)[O-]

>  <Energy>  (73) 
90.74451841121387

>  <Genealogy>  (73) 
[NH-]C(=O)c1cc2ccc([NH2+]C3CCOCC3)cc2n1C(=O)[O-] (protonated)
[NH-]C(=O)c1cc2ccc([NH2+]C3CCOCC3)cc2n1C(=O)[O-] (3D coordinates assigned)
[NH-]C(=O)c1cc2ccc([NH2+]C3CCOCC3)cc2n1C(=O)[O-] (nonaromatic ring conformer: 90.74451841121387 kcal/mol)

>  <smiles>  (73) 
NC(=O)c1cc2ccc(NC3CCOCC3)cc2n1C(=O)O

>  <score_type>  (73) 
oracle

>  <origin>  (73) 
adg

>  <m_score__min__energy>  (73) 
-7.2300000000000004

>  <m_primary>  (73) 
energy

$$$$
73:0
     RDKit          3D

 45 46  0  0  0  0  0  0  0  0999 V2000
  138.7650  157.9520  134.3920 C   0  0  0  0  0  0  0  0  0  0  0  0
  139.9250  158.1390  133.3940 C   0  0  0  0  0  0  0  0  0  0  0  0
  140.4820  156.7500  133.0190 C   0  0  0  0  0  0  0  0  0  0  0  0
  139.4400  158.8670  132.1580 C   0  0  0  0  0  0  0  0  0  0  0  0
  140.2230  159.0870  131.1950 O   0  0  0  0  0  0  0  0  0  0  0  0
  138.1450  159.3690  132.0970 O   0  0  0  0  0  0  0  0  0  0  0  0
  141.2940  159.1730  134.2050 Si  0  0  0  0  0  4  0  0  0  0  0  0
  141.3630  160.8880  133.4600 C   0  0  0  0  0  0  0  0  0  0  0  0
  140.9940  159.3430  136.0420 C   0  0  0  0  0  0  0  0  0  0  0  0
  142.9000  158.3660  133.9520 C   0  0  0  0  0  0  0  0  0  0  0  0
  143.9610  157.8230  133.7800 C   0  0  0  0  0  0  0  0  0  0  0  0
  145.2240  157.1680  133.5730 C   0  0  0  0  0  0  0  0  0  0  0  0
  146.4210  157.9210  133.5980 C   0  0  0  0  0  0  0  0  0  0  0  0
  147.6620  157.2900  133.4090 C   0  0  0  0  0  0  0  0  0  0  0  0
  147.6680  155.9150  133.1860 C   0  0  0  0  0  0  0  0  0  0  0  0
  148.7230  155.0510  133.0030 C   0  0  0  0  0  0  0  0  0  0  0  0
  148.1470  153.7910  132.8460 C   0  0  0  0  0  0  0  0  0  0  0  0
  148.9250  152.5670  132.5600 C   0  0  0  0  0  0  0  0  0  0  0  0
  150.3490  152.5720  132.6150 N   0  0  0  0  0  0  0  0  0  0  0  0
  148.3230  151.4910  132.3000 O   0  0  0  0  0  0  0  0  0  0  0  0
  146.7880  153.8740  132.9300 N   0  0  0  0  0  0  0  0  0  0  0  0
  145.8380  152.7990  132.8950 C   0  0  0  0  0  0  0  0  0  0  0  0
  145.8480  151.8610  131.8190 N   0  0  0  0  0  0  0  0  0  0  0  0
  144.9840  152.6830  133.8130 O   0  0  0  0  0  0  0  0  0  0  0  0
  146.5110  155.1790  133.1390 C   0  0  0  0  0  0  0  0  0  0  0  0
  145.2630  155.7780  133.3470 C   0  0  0  0  0  0  0  0  0  0  0  0
  139.1519  158.0144  135.4198 H   0  0  0  0  0  0  0  0  0  0  0  0
  138.0147  158.7408  134.2341 H   0  0  0  0  0  0  0  0  0  0  0  0
  138.3006  156.9674  134.2341 H   0  0  0  0  0  0  0  0  0  0  0  0
  140.7082  156.1859  133.9359 H   0  0  0  0  0  0  0  0  0  0  0  0
  139.7338  156.2026  132.4269 H   0  0  0  0  0  0  0  0  0  0  0  0
  141.4011  156.8711  132.4269 H   0  0  0  0  0  0  0  0  0  0  0  0
  141.3931  161.6367  134.2654 H   0  0  0  0  0  0  0  0  0  0  0  0
  142.2656  160.9817  132.8383 H   0  0  0  0  0  0  0  0  0  0  0  0
  140.4708  161.0539  132.8383 H   0  0  0  0  0  0  0  0  0  0  0  0
  141.8220  158.8738  136.5937 H   0  0  0  0  0  0  0  0  0  0  0  0
  140.9345  160.4090  136.3067 H   0  0  0  0  0  0  0  0  0  0  0  0
  140.0490  158.8462  136.3067 H   0  0  0  0  0  0  0  0  0  0  0  0
  146.3801  159.0073  133.7665 H   0  0  0  0  0  0  0  0  0  0  0  0
  148.5999  157.8640  133.4363 H   0  0  0  0  0  0  0  0  0  0  0  0
  149.7940  155.3013  132.9845 H   0  0  0  0  0  0  0  0  0  0  0  0
  150.9000  153.3530  132.1940 H   0  0  0  0  0  0  0  0  0  0  0  0
  146.5890  151.9040  131.0840 H   0  0  0  0  0  0  0  0  0  0  0  0
  145.1400  151.0950  131.7800 H   0  0  0  0  0  0  0  0  0  0  0  0
  144.3394  155.1806  133.3343 H   0  0  0  0  0  0  0  0  0  0  0  0
  1  2  1  0
  2  3  1  0
  2  4  1  0
  4  5  2  0
  4  6  1  0
  2  7  1  0
  7  8  1  0
  7  9  1  0
  7 10  1  0
 10 11  3  0
 11 12  1  0
 12 13  2  0
 13 14  1  0
 14 15  2  0
 15 16  1  0
 16 17  2  0
 17 18  1  0
 18 19  1  0
 18 20  2  0
 17 21  1  0
 21 22  1  0
 22 23  1  0
 22 24  2  0
 21 25  1  0
 25 26  2  0
 26 12  1  0
 25 15  1  0
  1 27  1  0
  1 28  1  0
  1 29  1  0
  3 30  1  0
  3 31  1  0
  3 32  1  0
  8 33  1  0
  8 34  1  0
  8 35  1  0
  9 36  1  0
  9 37  1  0
  9 38  1  0
 13 39  1  0
 14 40  1  0
 16 41  1  0
 19 42  1  0
 23 43  1  0
 23 44  1  0
 26 45  1  0
M  CHG  2   6  -1  19  -1
M  END
>  <UniqueID>  (74) 
74

>  <SMILES>  (74) 
CC(C)(C(=O)[O-])[Si](C)(C)C#Cc1ccc2cc(C([NH-])=O)n(C(N)=O)c2c1

>  <Energy>  (74) 
64.15785367755846

>  <Genealogy>  (74) 
CC(C)(C(=O)[O-])[Si](C)(C)C#Cc1ccc2cc(C([NH-])=O)n(C(N)=O)c2c1 (protonated)
CC(C)(C(=O)[O-])[Si](C)(C)C#Cc1ccc2cc(C([NH-])=O)n(C(N)=O)c2c1 (3D coordinates assigned)
CC(C)(C(=O)[O-])[Si](C)(C)C#Cc1ccc2cc(C([NH-])=O)n(C(N)=O)c2c1 (optimized conformer: 64.15785367755846 kcal/mol)

>  <smiles>  (74) 
CC(C)(C(=O)O)[Si](C)(C)C#Cc1ccc2cc(C(N)=O)n(C(N)=O)c2c1

>  <score_type>  (74) 
oracle

>  <origin>  (74) 
adg

>  <m_score__min__energy>  (74) 
-8.3399999999999999

>  <m_primary>  (74) 
energy

$$$$
74:0
     RDKit          3D

 45 47  0  0  0  0  0  0  0  0999 V2000
  149.5630  154.4920  132.6010 C   0  0  0  0  0  0  0  0  0  0  0  0
  148.4600  153.6600  133.0960 N   0  0  0  0  0  0  0  0  0  0  0  0
  147.2720  154.2950  133.6300 C   0  0  0  0  0  0  0  0  0  0  0  0
  147.0120  154.2110  134.8610 O   0  0  0  0  0  0  0  0  0  0  0  0
  146.3130  155.0560  132.7520 C   0  0  0  0  0  0  0  0  0  0  0  0
  146.5490  156.5360  132.8880 C   0  0  0  0  0  0  0  0  0  0  0  0
  147.8400  157.0720  132.6520 C   0  0  0  0  0  0  0  0  0  0  0  0
  148.0790  158.4490  132.7940 C   0  0  0  0  0  0  0  0  0  0  0  0
  147.0170  159.2600  133.1870 C   0  0  0  0  0  0  0  0  0  0  0  0
  146.9660  160.6230  133.3780 C   0  0  0  0  0  0  0  0  0  0  0  0
  145.6550  160.8920  133.7680 C   0  0  0  0  0  0  0  0  0  0  0  0
  145.1850  162.2350  134.1680 C   0  0  0  0  0  0  0  0  0  0  0  0
  145.9540  163.0490  135.0480 N   0  0  0  0  0  0  0  0  0  0  0  0
  144.1160  162.6930  133.6810 O   0  0  0  0  0  0  0  0  0  0  0  0
  144.9210  159.7420  133.8060 N   0  0  0  0  0  0  0  0  0  0  0  0
  143.5170  159.6030  134.0760 C   0  0  0  0  0  0  0  0  0  0  0  0
  143.1150  158.8100  134.9690 O   0  0  0  0  0  0  0  0  0  0  0  0
  142.5870  160.3560  133.3690 O   0  0  0  0  0  0  0  0  0  0  0  0
  145.7700  158.7530  133.4490 C   0  0  0  0  0  0  0  0  0  0  0  0
  145.4990  157.3880  133.2980 C   0  0  0  0  0  0  0  0  0  0  0  0
  148.5990  152.1890  133.0410 C   0  0  0  0  0  0  0  0  0  0  0  0
  149.9480  151.7660  132.4220 C   0  0  0  0  0  0  0  0  0  0  0  0
  149.8770  150.3360  131.8580 C   0  0  0  0  0  0  0  0  0  0  0  0
  148.9180  149.5650  132.5590 O   0  0  0  0  0  0  0  0  0  0  0  0
  147.6030  149.9920  132.2290 C   0  0  0  0  0  0  0  0  0  0  0  0
  147.4110  151.5250  132.3160 C   0  0  0  0  0  0  0  0  0  0  0  0
  150.1178  154.9105  133.4537 H   0  0  0  0  0  0  0  0  0  0  0  0
  150.2398  153.8775  131.9892 H   0  0  0  0  0  0  0  0  0  0  0  0
  149.1581  155.3116  131.9892 H   0  0  0  0  0  0  0  0  0  0  0  0
  146.4650  154.7583  131.7040 H   0  0  0  0  0  0  0  0  0  0  0  0
  145.2827  154.8262  133.0612 H   0  0  0  0  0  0  0  0  0  0  0  0
  148.6618  156.4038  132.3551 H   0  0  0  0  0  0  0  0  0  0  0  0
  149.0750  158.8740  132.6006 H   0  0  0  0  0  0  0  0  0  0  0  0
  147.7854  161.3456  133.2500 H   0  0  0  0  0  0  0  0  0  0  0  0
  146.9910  163.1210  134.9420 H   0  0  0  0  0  0  0  0  0  0  0  0
  144.4930  156.9883  133.4938 H   0  0  0  0  0  0  0  0  0  0  0  0
  148.5870  151.8275  134.0798 H   0  0  0  0  0  0  0  0  0  0  0  0
  150.2029  152.4606  131.6080 H   0  0  0  0  0  0  0  0  0  0  0  0
  150.7161  151.7925  133.2090 H   0  0  0  0  0  0  0  0  0  0  0  0
  149.5962  150.3811  130.7954 H   0  0  0  0  0  0  0  0  0  0  0  0
  150.8629  149.8622  131.9743 H   0  0  0  0  0  0  0  0  0  0  0  0
  147.3807  149.6712  131.2006 H   0  0  0  0  0  0  0  0  0  0  0  0
  146.9219  149.5387  132.9642 H   0  0  0  0  0  0  0  0  0  0  0  0
  147.3345  151.9365  131.2987 H   0  0  0  0  0  0  0  0  0  0  0  0
  146.4925  151.7321  132.8847 H   0  0  0  0  0  0  0  0  0  0  0  0
  1  2  1  0
  2  3  1  0
  3  4  2  0
  3  5  1  0
  5  6  1  0
  6  7  2  0
  7  8  1  0
  8  9  2  0
  9 10  1  0
 10 11  2  0
 11 12  1  0
 12 13  1  0
 12 14  2  0
 11 15  1  0
 15 16  1  0
 16 17  2  0
 16 18  1  0
 15 19  1  0
 19 20  2  0
  2 21  1  0
 21 22  1  0
 22 23  1  0
 23 24  1  0
 24 25  1  0
 25 26  1  0
 20  6  1  0
 26 21  1  0
 19  9  1  0
  1 27  1  0
  1 28  1  0
  1 29  1  0
  5 30  1  0
  5 31  1  0
  7 32  1  0
  8 33  1  0
 10 34  1  0
 13 35  1  0
 20 36  1  0
 21 37  1  0
 22 38  1  0
 22 39  1  0
 23 40  1  0
 23 41  1  0
 25 42  1  0
 25 43  1  0
 26 44  1  0
 26 45  1  0
M  CHG  2  13  -1  18  -1
M  END
>  <UniqueID>  (75) 
75

>  <SMILES>  (75) 
CN(C(=O)Cc1ccc2cc(C([NH-])=O)n(C(=O)[O-])c2c1)C1CCOCC1

>  <Energy>  (75) 
93.43274294149937

>  <Genealogy>  (75) 
CN(C(=O)Cc1ccc2cc(C([NH-])=O)n(C(=O)[O-])c2c1)C1CCOCC1 (protonated)
CN(C(=O)Cc1ccc2cc(C([NH-])=O)n(C(=O)[O-])c2c1)C1CCOCC1 (3D coordinates assigned)
CN(C(=O)Cc1ccc2cc(C([NH-])=O)n(C(=O)[O-])c2c1)C1CCOCC1 (nonaromatic ring conformer: 93.43274294149937 kcal/mol)

>  <smiles>  (75) 
CN(C(=O)Cc1ccc2cc(C(N)=O)n(C(=O)O)c2c1)C1CCOCC1

>  <score_type>  (75) 
oracle

>  <origin>  (75) 
adg

>  <m_score__min__energy>  (75) 
-8.1699999999999999

>  <m_primary>  (75) 
energy

$$$$
75:0
     RDKit          3D

 39 41  0  0  0  0  0  0  0  0999 V2000
  150.0140  151.1210  130.1030 C   0  0  0  0  0  0  0  0  0  0  0  0
  149.7460  151.4310  131.5420 C   0  0  0  0  0  0  0  0  0  0  0  0
  150.3420  150.6680  132.5540 C   0  0  0  0  0  0  0  0  0  0  0  0
  150.0750  150.9740  133.8880 C   0  0  0  0  0  0  0  0  0  0  0  0
  149.2240  152.0360  134.2020 C   0  0  0  0  0  0  0  0  0  0  0  0
  148.6550  152.7890  133.1660 C   0  0  0  0  0  0  0  0  0  0  0  0
  147.7070  153.9150  133.4680 C   0  0  0  0  0  0  0  0  0  0  0  0
  147.4770  154.7290  132.2660 N   0  0  0  0  0  0  0  0  0  0  0  0
  147.5100  156.1290  132.6060 C   0  0  0  0  0  0  0  0  0  0  0  0
  148.7410  156.8340  132.6090 C   0  0  0  0  0  0  0  0  0  0  0  0
  148.7850  158.2020  132.9200 C   0  0  0  0  0  0  0  0  0  0  0  0
  147.5830  158.8440  133.2080 C   0  0  0  0  0  0  0  0  0  0  0  0
  147.3420  160.1520  133.5580 C   0  0  0  0  0  0  0  0  0  0  0  0
  145.9620  160.2400  133.7300 C   0  0  0  0  0  0  0  0  0  0  0  0
  145.2600  161.5050  134.0310 C   0  0  0  0  0  0  0  0  0  0  0  0
  145.9730  162.5890  134.6230 N   0  0  0  0  0  0  0  0  0  0  0  0
  144.0440  161.6550  133.7380 O   0  0  0  0  0  0  0  0  0  0  0  0
  145.3730  159.0300  133.5030 N   0  0  0  0  0  0  0  0  0  0  0  0
  143.9840  158.6860  133.6340 C   0  0  0  0  0  0  0  0  0  0  0  0
  143.3710  158.1330  132.6830 O   0  0  0  0  0  0  0  0  0  0  0  0
  143.2960  158.9810  134.8050 O   0  0  0  0  0  0  0  0  0  0  0  0
  146.3800  158.1870  133.1810 C   0  0  0  0  0  0  0  0  0  0  0  0
  146.3100  156.8190  132.8930 C   0  0  0  0  0  0  0  0  0  0  0  0
  148.9220  152.4620  131.8710 N   0  0  0  0  0  0  0  0  0  0  0  0
  150.7320  150.2905  130.0344 H   0  0  0  0  0  0  0  0  0  0  0  0
  149.0741  150.8349  129.6083 H   0  0  0  0  0  0  0  0  0  0  0  0
  150.4330  152.0097  129.6083 H   0  0  0  0  0  0  0  0  0  0  0  0
  151.0142  149.8354  132.2990 H   0  0  0  0  0  0  0  0  0  0  0  0
  150.5340  150.3798  134.6919 H   0  0  0  0  0  0  0  0  0  0  0  0
  149.0026  152.2789  135.2517 H   0  0  0  0  0  0  0  0  0  0  0  0
  146.7487  153.4991  133.8127 H   0  0  0  0  0  0  0  0  0  0  0  0
  148.1469  154.5510  134.2503 H   0  0  0  0  0  0  0  0  0  0  0  0
  148.2160  154.5210  131.5530 H   0  0  0  0  0  0  0  0  0  0  0  0
  146.5480  154.4890  131.8490 H   0  0  0  0  0  0  0  0  0  0  0  0
  149.6723  156.3021  132.3646 H   0  0  0  0  0  0  0  0  0  0  0  0
  149.7388  158.7498  132.9358 H   0  0  0  0  0  0  0  0  0  0  0  0
  148.0815  160.9576  133.6769 H   0  0  0  0  0  0  0  0  0  0  0  0
  147.0030  162.6900  134.4890 H   0  0  0  0  0  0  0  0  0  0  0  0
  145.3438  156.2931  132.8901 H   0  0  0  0  0  0  0  0  0  0  0  0
  1  2  1  0
  2  3  2  0
  3  4  1  0
  4  5  2  0
  5  6  1  0
  6  7  1  0
  7  8  1  0
  8  9  1  0
  9 10  2  0
 10 11  1  0
 11 12  2  0
 12 13  1  0
 13 14  2  0
 14 15  1  0
 15 16  1  0
 15 17  2  0
 14 18  1  0
 18 19  1  0
 19 20  2  0
 19 21  1  0
 18 22  1  0
 22 23  2  0
  6 24  2  0
 24  2  1  0
 23  9  1  0
 22 12  1  0
  1 25  1  0
  1 26  1  0
  1 27  1  0
  3 28  1  0
  4 29  1  0
  5 30  1  0
  7 31  1  0
  7 32  1  0
  8 33  1  0
  8 34  1  0
 10 35  1  0
 11 36  1  0
 13 37  1  0
 16 38  1  0
 23 39  1  0
M  CHG  3   8   1  16  -1  21  -1
M  END
>  <UniqueID>  (76) 
76

>  <SMILES>  (76) 
Cc1cccc(C[NH2+]c2ccc3cc(C([NH-])=O)n(C(=O)[O-])c3c2)n1

>  <Energy>  (76) 
79.89768423574705

>  <Genealogy>  (76) 
Cc1cccc(C[NH2+]c2ccc3cc(C([NH-])=O)n(C(=O)[O-])c3c2)n1 (protonated)
Cc1cccc(C[NH2+]c2ccc3cc(C([NH-])=O)n(C(=O)[O-])c3c2)n1 (3D coordinates assigned)
Cc1cccc(C[NH2+]c2ccc3cc(C([NH-])=O)n(C(=O)[O-])c3c2)n1 (optimized conformer: 79.89768423574705 kcal/mol)

>  <smiles>  (76) 
Cc1cccc(CNc2ccc3cc(C(N)=O)n(C(=O)O)c3c2)n1

>  <score_type>  (76) 
oracle

>  <origin>  (76) 
adg

>  <m_score__min__energy>  (76) 
-7.8700000000000001

>  <m_primary>  (76) 
energy

$$$$
76:0
     RDKit          3D

 31 32  0  0  0  0  0  0  0  0999 V2000
  145.6710  162.7550  134.5180 C   0  0  0  0  0  0  0  0  0  0  0  0
  144.7260  161.6430  134.0760 C   0  0  0  0  0  0  0  0  0  0  0  0
  145.3150  160.3630  134.3010 O   0  0  0  0  0  0  0  0  0  0  0  0
  145.3580  159.3540  133.3320 C   0  0  0  0  0  0  0  0  0  0  0  0
  144.3260  159.0580  132.6720 O   0  0  0  0  0  0  0  0  0  0  0  0
  146.5920  158.6640  133.0790 N   0  0  0  0  0  0  0  0  0  0  0  0
  146.9810  157.4500  133.5600 C   0  0  0  0  0  0  0  0  0  0  0  0
  146.1320  156.5000  134.3090 C   0  0  0  0  0  0  0  0  0  0  0  0
  144.7310  156.7190  134.4430 N   0  0  0  0  0  0  0  0  0  0  0  0
  146.6430  155.4560  134.7950 O   0  0  0  0  0  0  0  0  0  0  0  0
  148.2920  157.1700  133.1790 C   0  0  0  0  0  0  0  0  0  0  0  0
  148.6960  158.2560  132.4360 C   0  0  0  0  0  0  0  0  0  0  0  0
  149.9140  158.5100  131.8130 C   0  0  0  0  0  0  0  0  0  0  0  0
  150.0630  159.7310  131.1330 C   0  0  0  0  0  0  0  0  0  0  0  0
  149.0070  160.6750  131.1070 C   0  0  0  0  0  0  0  0  0  0  0  0
  149.1690  161.9620  130.3560 C   0  0  0  0  0  0  0  0  0  0  0  0
  147.7800  160.3760  131.7370 C   0  0  0  0  0  0  0  0  0  0  0  0
  147.6520  159.1440  132.3920 C   0  0  0  0  0  0  0  0  0  0  0  0
  145.7036  162.7933  135.6169 H   0  0  0  0  0  0  0  0  0  0  0  0
  146.6800  162.5553  134.1280 H   0  0  0  0  0  0  0  0  0  0  0  0
  145.3112  163.7186  134.1280 H   0  0  0  0  0  0  0  0  0  0  0  0
  143.7897  161.7156  134.6488 H   0  0  0  0  0  0  0  0  0  0  0  0
  144.5245  161.7561  133.0005 H   0  0  0  0  0  0  0  0  0  0  0  0
  144.3240  157.6750  134.3350 H   0  0  0  0  0  0  0  0  0  0  0  0
  148.8792  156.2718  133.4207 H   0  0  0  0  0  0  0  0  0  0  0  0
  150.7344  157.7782  131.8515 H   0  0  0  0  0  0  0  0  0  0  0  0
  151.0079  159.9556  130.6165 H   0  0  0  0  0  0  0  0  0  0  0  0
  149.2735  162.7924  131.0698 H   0  0  0  0  0  0  0  0  0  0  0  0
  150.0673  161.9069  129.7235 H   0  0  0  0  0  0  0  0  0  0  0  0
  148.2851  162.1312  129.7235 H   0  0  0  0  0  0  0  0  0  0  0  0
  146.9453  161.0921  131.7144 H   0  0  0  0  0  0  0  0  0  0  0  0
  1  2  1  0
  2  3  1  0
  3  4  1  0
  4  5  2  0
  4  6  1  0
  6  7  1  0
  7  8  1  0
  8  9  1  0
  8 10  2  0
  7 11  2  0
 11 12  1  0
 12 13  2  0
 13 14  1  0
 14 15  2  0
 15 16  1  0
 15 17  1  0
 17 18  2  0
 18  6  1  0
 18 12  1  0
  1 19  1  0
  1 20  1  0
  1 21  1  0
  2 22  1  0
  2 23  1  0
  9 24  1  0
 11 25  1  0
 13 26  1  0
 14 27  1  0
 16 28  1  0
 16 29  1  0
 16 30  1  0
 17 31  1  0
M  CHG  1   9  -1
M  END
>  <UniqueID>  (77) 
77

>  <SMILES>  (77) 
CCOC(=O)n1c(C([NH-])=O)cc2ccc(C)cc21

>  <Energy>  (77) 
65.7773228935428

>  <Genealogy>  (77) 
CCOC(=O)n1c(C([NH-])=O)cc2ccc(C)cc21 (protonated)
CCOC(=O)n1c(C([NH-])=O)cc2ccc(C)cc21 (3D coordinates assigned)
CCOC(=O)n1c(C([NH-])=O)cc2ccc(C)cc21 (optimized conformer: 65.7773228935428 kcal/mol)

>  <smiles>  (77) 
CCOC(=O)n1c(C(N)=O)cc2ccc(C)cc21

>  <score_type>  (77) 
oracle

>  <origin>  (77) 
adg

>  <m_score__min__energy>  (77) 
-5.8700000000000001

>  <m_primary>  (77) 
energy

$$$$
77:0
     RDKit          3D

 26 28  0  0  0  0  0  0  0  0999 V2000
  140.7900  159.3920  136.2930 N   0  0  0  0  0  0  0  0  0  0  0  0
  141.0610  159.0410  134.9380 C   0  0  0  0  0  0  0  0  0  0  0  0
  140.1000  158.8360  134.1500 O   0  0  0  0  0  0  0  0  0  0  0  0
  142.4580  158.8790  134.4860 C   0  0  0  0  0  0  0  0  0  0  0  0
  143.1420  157.6670  134.5300 C   0  0  0  0  0  0  0  0  0  0  0  0
  144.3620  157.9140  133.9430 C   0  0  0  0  0  0  0  0  0  0  0  0
  145.4410  157.0620  133.7310 C   0  0  0  0  0  0  0  0  0  0  0  0
  146.5900  157.5930  133.1230 C   0  0  0  0  0  0  0  0  0  0  0  0
  146.6470  158.9600  132.7470 C   0  0  0  0  0  0  0  0  0  0  0  0
  147.8680  159.5100  132.1200 C   0  0  0  0  0  0  0  0  0  0  0  0
  149.1210  159.1410  132.4640 N   0  0  0  0  0  0  0  0  0  0  0  0
  149.9000  159.8410  131.6960 O   0  0  0  0  0  0  0  0  0  0  0  0
  149.1700  160.5990  130.9220 C   0  0  0  0  0  0  0  0  0  0  0  0
  149.6450  161.3910  130.0670 O   0  0  0  0  0  0  0  0  0  0  0  0
  147.8530  160.4410  131.1370 N   0  0  0  0  0  0  0  0  0  0  0  0
  145.5290  159.7940  132.9820 C   0  0  0  0  0  0  0  0  0  0  0  0
  144.3890  159.2330  133.5720 C   0  0  0  0  0  0  0  0  0  0  0  0
  143.2280  159.8420  133.9020 N   0  0  0  0  0  0  0  0  0  0  0  0
  142.9160  161.2340  133.7340 C   0  0  0  0  0  0  0  0  0  0  0  0
  141.7230  161.6040  133.5720 O   0  0  0  0  0  0  0  0  0  0  0  0
  143.9290  162.1850  133.7230 O   0  0  0  0  0  0  0  0  0  0  0  0
  139.8350  159.6950  136.5880 H   0  0  0  0  0  0  0  0  0  0  0  0
  142.7832  156.7139  134.9459 H   0  0  0  0  0  0  0  0  0  0  0  0
  145.3955  156.0045  134.0305 H   0  0  0  0  0  0  0  0  0  0  0  0
  147.4563  156.9414  132.9360 H   0  0  0  0  0  0  0  0  0  0  0  0
  145.5541  160.8590  132.7077 H   0  0  0  0  0  0  0  0  0  0  0  0
  1  2  1  0
  2  3  2  0
  2  4  1  0
  4  5  2  0
  5  6  1  0
  6  7  2  0
  7  8  1  0
  8  9  2  0
  9 10  1  0
 10 11  2  0
 11 12  1  0
 12 13  1  0
 13 14  2  0
 13 15  1  0
  9 16  1  0
 16 17  2  0
 17 18  1  0
 18 19  1  0
 19 20  2  0
 19 21  1  0
 18  4  1  0
 17  6  1  0
 15 10  1  0
  1 22  1  0
  5 23  1  0
  7 24  1  0
  8 25  1  0
 16 26  1  0
M  CHG  3   1  -1  15  -1  21  -1
M  END
>  <UniqueID>  (78) 
78

>  <SMILES>  (78) 
[NH-]C(=O)c1cc2ccc(-c3noc(=O)[n-]3)cc2n1C(=O)[O-]

>  <Energy>  (78) 
102.8899461864988

>  <Genealogy>  (78) 
[NH-]C(=O)c1cc2ccc(-c3noc(=O)[n-]3)cc2n1C(=O)[O-] (protonated)
[NH-]C(=O)c1cc2ccc(-c3noc(=O)[n-]3)cc2n1C(=O)[O-] (3D coordinates assigned)
[NH-]C(=O)c1cc2ccc(-c3noc(=O)[n-]3)cc2n1C(=O)[O-] (optimized conformer: 102.8899461864988 kcal/mol)

>  <smiles>  (78) 
NC(=O)c1cc2ccc(-c3noc(=O)[nH]3)cc2n1C(=O)O

>  <score_type>  (78) 
oracle

>  <origin>  (78) 
adg

>  <m_score__min__energy>  (78) 
-6.6399999999999997

>  <m_primary>  (78) 
energy

$$$$
78:0
     RDKit          3D

 44 45  0  0  0  0  0  0  0  0999 V2000
  149.9760  150.7300  130.4320 C   0  0  0  0  0  0  0  0  0  0  0  0
  150.4350  150.8360  131.8860 C   0  0  0  0  0  0  0  0  0  0  0  0
  149.2740  151.1460  132.8420 C   0  0  1  0  0  0  0  0  0  0  0  0
  149.5770  150.3780  134.4260 Cl  0  0  0  0  0  0  0  0  0  0  0  0
  149.0930  152.6280  133.0300 C   0  0  0  0  0  0  0  0  0  0  0  0
  149.9810  153.4230  132.6140 O   0  0  0  0  0  0  0  0  0  0  0  0
  147.8970  153.1370  133.6380 N   0  0  0  0  0  0  0  0  0  0  0  0
  147.6700  154.5640  133.8500 C   0  0  0  0  0  0  0  0  0  0  0  0
  148.1140  155.3650  132.6240 C   0  0  0  0  0  0  0  0  0  0  0  0
  147.7990  156.8250  132.8040 C   0  0  0  0  0  0  0  0  0  0  0  0
  148.8430  157.7830  132.8060 C   0  0  0  0  0  0  0  0  0  0  0  0
  148.5660  159.1430  133.0180 C   0  0  0  0  0  0  0  0  0  0  0  0
  147.2400  159.5140  133.2270 C   0  0  0  0  0  0  0  0  0  0  0  0
  146.6980  160.7510  133.4890 C   0  0  0  0  0  0  0  0  0  0  0  0
  145.3300  160.5320  133.6320 C   0  0  0  0  0  0  0  0  0  0  0  0
  144.3500  161.6200  133.8390 C   0  0  0  0  0  0  0  0  0  0  0  0
  142.9500  161.3740  133.7360 N   0  0  0  0  0  0  0  0  0  0  0  0
  144.7570  162.7910  134.0600 O   0  0  0  0  0  0  0  0  0  0  0  0
  145.0370  159.2110  133.4730 N   0  0  0  0  0  0  0  0  0  0  0  0
  143.7630  158.5680  133.6410 C   0  0  0  0  0  0  0  0  0  0  0  0
  143.2360  157.9530  132.6740 O   0  0  0  0  0  0  0  0  0  0  0  0
  143.1250  158.6060  134.8840 O   0  0  0  0  0  0  0  0  0  0  0  0
  141.7110  158.6830  135.0180 C   0  0  0  0  0  0  0  0  0  0  0  0
  146.2170  158.6010  133.2230 C   0  0  0  0  0  0  0  0  0  0  0  0
  146.4670  157.2360  133.0320 C   0  0  0  0  0  0  0  0  0  0  0  0
  148.9046  150.4826  130.4028 H   0  0  0  0  0  0  0  0  0  0  0  0
  150.1444  151.6907  129.9234 H   0  0  0  0  0  0  0  0  0  0  0  0
  150.5486  149.9405  129.9234 H   0  0  0  0  0  0  0  0  0  0  0  0
  150.8926  149.8808  132.1831 H   0  0  0  0  0  0  0  0  0  0  0  0
  151.1559  151.6643  131.9520 H   0  0  0  0  0  0  0  0  0  0  0  0
  148.3527  150.7422  132.3969 H   0  0  0  0  0  0  0  0  0  0  0  0
  147.1290  152.4720  133.8830 H   0  0  0  0  0  0  0  0  0  0  0  0
  146.5984  154.7377  134.0273 H   0  0  0  0  0  0  0  0  0  0  0  0
  148.2564  154.8921  134.7209 H   0  0  0  0  0  0  0  0  0  0  0  0
  149.1985  155.2434  132.4858 H   0  0  0  0  0  0  0  0  0  0  0  0
  147.5741  154.9915  131.7413 H   0  0  0  0  0  0  0  0  0  0  0  0
  149.8807  157.4580  132.6398 H   0  0  0  0  0  0  0  0  0  0  0  0
  149.3713  159.8923  133.0190 H   0  0  0  0  0  0  0  0  0  0  0  0
  147.2317  161.7095  133.5686 H   0  0  0  0  0  0  0  0  0  0  0  0
  142.5730  160.4000  133.7540 H   0  0  0  0  0  0  0  0  0  0  0  0
  141.4441  158.6975  136.0850 H   0  0  0  0  0  0  0  0  0  0  0  0
  141.3466  159.6023  134.5363 H   0  0  0  0  0  0  0  0  0  0  0  0
  141.2489  157.8087  134.5363 H   0  0  0  0  0  0  0  0  0  0  0  0
  145.6472  156.5031  133.0589 H   0  0  0  0  0  0  0  0  0  0  0  0
  1  2  1  0
  2  3  1  0
  3  4  1  0
  3  5  1  0
  5  6  2  0
  5  7  1  0
  7  8  1  0
  8  9  1  0
  9 10  1  0
 10 11  2  0
 11 12  1  0
 12 13  2  0
 13 14  1  0
 14 15  2  0
 15 16  1  0
 16 17  1  0
 16 18  2  0
 15 19  1  0
 19 20  1  0
 20 21  2  0
 20 22  1  0
 22 23  1  0
 19 24  1  0
 24 25  2  0
 25 10  1  0
 24 13  1  0
  1 26  1  0
  1 27  1  0
  1 28  1  0
  2 29  1  0
  2 30  1  0
  3 31  1  6
  7 32  1  0
  8 33  1  0
  8 34  1  0
  9 35  1  0
  9 36  1  0
 11 37  1  0
 12 38  1  0
 14 39  1  0
 17 40  1  0
 23 41  1  0
 23 42  1  0
 23 43  1  0
 25 44  1  0
M  CHG  1  17  -1
M  END
>  <UniqueID>  (79) 
79

>  <SMILES>  (79) 
CC[C@@H](Cl)C(=O)NCCc1ccc2cc(C([NH-])=O)n(C(=O)OC)c2c1

>  <Energy>  (79) 
70.64864610631668

>  <Genealogy>  (79) 
CCC(Cl)C(=O)NCCc1ccc2cc(C([NH-])=O)n(C(=O)OC)c2c1 (protonated)
CC[C@@H](Cl)C(=O)NCCc1ccc2cc(C([NH-])=O)n(C(=O)OC)c2c1 (chirality)
CC[C@@H](Cl)C(=O)NCCc1ccc2cc(C([NH-])=O)n(C(=O)OC)c2c1 (3D coordinates assigned)
CC[C@@H](Cl)C(=O)NCCc1ccc2cc(C([NH-])=O)n(C(=O)OC)c2c1 (optimized conformer: 70.64864610631668 kcal/mol)

>  <smiles>  (79) 
CCC(Cl)C(=O)NCCc1ccc2cc(C(N)=O)n(C(=O)OC)c2c1

>  <score_type>  (79) 
oracle

>  <origin>  (79) 
adg

>  <m_score__min__energy>  (79) 
-7.7699999999999996

>  <m_primary>  (79) 
energy

$$$$
79:0
     RDKit          3D

 58 61  0  0  0  0  0  0  0  0999 V2000
  145.1530  153.8950  134.6410 C   0  0  0  0  0  0  0  0  0  0  0  0
  146.5930  154.0480  135.0140 C   0  0  0  0  0  0  0  0  0  0  0  0
  146.9930  153.5970  136.1200 O   0  0  0  0  0  0  0  0  0  0  0  0
  147.5220  154.6910  134.1270 N   0  0  0  0  0  0  0  0  0  0  0  0
  148.5200  154.1060  133.4050 C   0  0  0  0  0  0  0  0  0  0  0  0
  148.9250  152.6880  133.4860 C   0  0  0  0  0  0  0  0  0  0  0  0
  149.2120  152.1020  134.7540 N   0  0  0  0  0  0  0  0  0  0  0  0
  149.0000  151.9770  132.4490 O   0  0  0  0  0  0  0  0  0  0  0  0
  149.1600  155.0490  132.6040 C   0  0  0  0  0  0  0  0  0  0  0  0
  148.5160  156.2400  132.8560 C   0  0  0  0  0  0  0  0  0  0  0  0
  148.7270  157.5030  132.3110 C   0  0  0  0  0  0  0  0  0  0  0  0
  147.8780  158.5450  132.7220 C   0  0  0  0  0  0  0  0  0  0  0  0
  146.8380  158.3060  133.6550 C   0  0  0  0  0  0  0  0  0  0  0  0
  145.9050  159.4230  134.0420 C   0  0  0  0  0  0  0  0  0  0  0  0
  144.8050  159.7130  132.9860 C   0  0  0  0  0  0  0  0  0  0  0  0
  143.4230  159.2650  133.3170 N   0  0  2  0  0  0  0  0  0  0  0  0
  142.8920  159.8580  134.5630 C   0  0  0  0  0  0  0  0  0  0  0  0
  141.3710  159.6220  134.6980 C   0  0  0  0  0  0  0  0  0  0  0  0
  140.8840  158.3070  134.0180 C   0  0  1  0  0  0  0  0  0  0  0  0
  140.4120  158.5500  132.6250 N   0  0  0  0  0  0  0  0  0  0  0  0
  139.1580  157.8500  132.3170 C   0  0  0  0  0  0  0  0  0  0  0  0
  138.4820  158.6310  131.2140 C   0  0  0  0  0  0  0  0  0  0  0  0
  138.8970  160.0620  131.4650 C   0  0  0  0  0  0  0  0  0  0  0  0
  140.1350  159.9750  132.3510 C   0  0  0  0  0  0  0  0  0  0  0  0
  142.0400  157.2820  134.0570 C   0  0  0  0  0  0  0  0  0  0  0  0
  143.2750  157.7850  133.2790 C   0  0  0  0  0  0  0  0  0  0  0  0
  146.6660  157.0120  134.1950 C   0  0  0  0  0  0  0  0  0  0  0  0
  147.5320  155.9970  133.7770 C   0  0  0  0  0  0  0  0  0  0  0  0
  144.5427  153.8302  135.5539 H   0  0  0  0  0  0  0  0  0  0  0  0
  144.8336  154.7643  134.0474 H   0  0  0  0  0  0  0  0  0  0  0  0
  145.0234  152.9780  134.0474 H   0  0  0  0  0  0  0  0  0  0  0  0
  148.5440  152.1930  135.5510 H   0  0  0  0  0  0  0  0  0  0  0  0
  150.0013  154.8785  131.9161 H   0  0  0  0  0  0  0  0  0  0  0  0
  149.5319  157.6800  131.5824 H   0  0  0  0  0  0  0  0  0  0  0  0
  148.0222  159.5568  132.3153 H   0  0  0  0  0  0  0  0  0  0  0  0
  145.4145  159.1531  134.9889 H   0  0  0  0  0  0  0  0  0  0  0  0
  146.5145  160.3346  134.1292 H   0  0  0  0  0  0  0  0  0  0  0  0
  144.7735  160.8011  132.8281 H   0  0  0  0  0  0  0  0  0  0  0  0
  145.0937  159.1276  132.1006 H   0  0  0  0  0  0  0  0  0  0  0  0
  142.8290  159.6400  132.5380 H   0  0  0  0  0  0  0  0  0  0  0  0
  143.4027  159.4000  135.4229 H   0  0  0  0  0  0  0  0  0  0  0  0
  143.0720  160.9428  134.5335 H   0  0  0  0  0  0  0  0  0  0  0  0
  141.1194  159.5748  135.7678 H   0  0  0  0  0  0  0  0  0  0  0  0
  140.8672  160.4562  134.1878 H   0  0  0  0  0  0  0  0  0  0  0  0
  140.0191  157.9075  134.5678 H   0  0  0  0  0  0  0  0  0  0  0  0
  139.3696  156.8245  131.9801 H   0  0  0  0  0  0  0  0  0  0  0  0
  138.5138  157.7843  133.2062 H   0  0  0  0  0  0  0  0  0  0  0  0
  138.8287  158.2917  130.2268 H   0  0  0  0  0  0  0  0  0  0  0  0
  137.3895  158.5027  131.2155 H   0  0  0  0  0  0  0  0  0  0  0  0
  139.1370  160.5651  130.5167 H   0  0  0  0  0  0  0  0  0  0  0  0
  138.0935  160.6436  131.9406 H   0  0  0  0  0  0  0  0  0  0  0  0
  140.9942  160.4280  131.8347 H   0  0  0  0  0  0  0  0  0  0  0  0
  139.9642  160.5153  133.2938 H   0  0  0  0  0  0  0  0  0  0  0  0
  142.3257  157.1065  135.1046 H   0  0  0  0  0  0  0  0  0  0  0  0
  141.6908  156.3528  133.5829 H   0  0  0  0  0  0  0  0  0  0  0  0
  144.1752  157.3313  133.7192 H   0  0  0  0  0  0  0  0  0  0  0  0
  143.1415  157.4946  132.2265 H   0  0  0  0  0  0  0  0  0  0  0  0
  145.8702  156.8079  134.9265 H   0  0  0  0  0  0  0  0  0  0  0  0
  1  2  1  0
  2  3  2  0
  2  4  1  0
  4  5  1  0
  5  6  1  0
  6  7  1  0
  6  8  2  0
  5  9  2  0
  9 10  1  0
 10 11  2  0
 11 12  1  0
 12 13  2  0
 13 14  1  0
 14 15  1  0
 15 16  1  0
 16 17  1  0
 17 18  1  0
 18 19  1  0
 19 20  1  0
 20 21  1  0
 21 22  1  0
 22 23  1  0
 23 24  1  0
 19 25  1  0
 25 26  1  0
 13 27  1  0
 27 28  2  0
 28  4  1  0
 28 10  1  0
 26 16  1  0
 24 20  1  0
  1 29  1  0
  1 30  1  0
  1 31  1  0
  7 32  1  0
  9 33  1  0
 11 34  1  0
 12 35  1  0
 14 36  1  0
 14 37  1  0
 15 38  1  0
 15 39  1  0
 16 40  1  6
 17 41  1  0
 17 42  1  0
 18 43  1  0
 18 44  1  0
 19 45  1  1
 21 46  1  0
 21 47  1  0
 22 48  1  0
 22 49  1  0
 23 50  1  0
 23 51  1  0
 24 52  1  0
 24 53  1  0
 25 54  1  0
 25 55  1  0
 26 56  1  0
 26 57  1  0
 27 58  1  0
M  CHG  2   7  -1  16   1
M  END
>  <UniqueID>  (80) 
80

>  <SMILES>  (80) 
CC(=O)n1c(C([NH-])=O)cc2ccc(CC[NH+]3CCC(N4CCCC4)CC3)cc21

>  <Energy>  (80) 
114.1086144373124

>  <Genealogy>  (80) 
CC(=O)n1c(C([NH-])=O)cc2ccc(CC[NH+]3CCC(N4CCCC4)CC3)cc21 (protonated)
CC(=O)n1c(C([NH-])=O)cc2ccc(CC[NH+]3CCC(N4CCCC4)CC3)cc21 (3D coordinates assigned)
CC(=O)n1c(C([NH-])=O)cc2ccc(CC[NH+]3CCC(N4CCCC4)CC3)cc21 (nonaromatic ring conformer: 114.1086144373124 kcal/mol)

>  <smiles>  (80) 
CC(=O)n1c(C(N)=O)cc2ccc(CCN3CCC(N4CCCC4)CC3)cc21

>  <score_type>  (80) 
oracle

>  <origin>  (80) 
adg

>  <m_score__min__energy>  (80) 
-9.1199999999999992

>  <m_primary>  (80) 
energy

$$$$
80:0
     RDKit          3D

 37 38  0  0  0  0  0  0  0  0999 V2000
  148.7330  156.8560  132.6190 C   0  0  0  0  0  0  0  0  0  0  0  0
  148.9320  158.3810  132.6190 C   0  0  0  0  0  0  0  0  0  0  0  0
  149.4010  158.8760  131.2420 C   0  0  0  0  0  0  0  0  0  0  0  0
  147.6630  159.0990  133.0520 C   0  0  0  0  0  0  0  0  0  0  0  0
  147.7070  160.4800  133.3830 C   0  0  0  0  0  0  0  0  0  0  0  0
  146.5320  161.1780  133.7280 C   0  0  0  0  0  0  0  0  0  0  0  0
  145.3320  160.4720  133.7380 C   0  0  0  0  0  0  0  0  0  0  0  0
  144.0410  160.9180  133.9400 C   0  0  0  0  0  0  0  0  0  0  0  0
  143.2300  159.8020  133.7270 C   0  0  0  0  0  0  0  0  0  0  0  0
  141.7530  159.8370  133.7770 C   0  0  0  0  0  0  0  0  0  0  0  0
  140.9700  159.7010  132.5890 N   0  0  0  0  0  0  0  0  0  0  0  0
  141.1690  159.9780  134.8910 O   0  0  0  0  0  0  0  0  0  0  0  0
  143.9920  158.7110  133.4290 N   0  0  0  0  0  0  0  0  0  0  0  0
  143.5450  157.4360  132.9500 C   0  0  0  0  0  0  0  0  0  0  0  0
  142.5000  157.3670  132.2410 O   0  0  0  0  0  0  0  0  0  0  0  0
  144.2950  156.2480  133.2260 N   0  0  0  0  0  0  0  0  0  0  0  0
  144.7860  155.9600  134.5840 C   0  0  0  0  0  0  0  0  0  0  0  0
  145.2200  154.5370  134.7290 C   0  0  0  0  0  0  0  0  0  0  0  0
  145.0260  153.7150  133.7810 O   0  0  0  0  0  0  0  0  0  0  0  0
  145.9180  154.1370  135.8750 O   0  0  0  0  0  0  0  0  0  0  0  0
  145.2730  159.1370  133.4340 C   0  0  0  0  0  0  0  0  0  0  0  0
  146.4200  158.4170  133.0910 C   0  0  0  0  0  0  0  0  0  0  0  0
  148.6856  156.4924  133.6561 H   0  0  0  0  0  0  0  0  0  0  0  0
  147.7950  156.6086  132.1005 H   0  0  0  0  0  0  0  0  0  0  0  0
  149.5761  156.3762  132.1005 H   0  0  0  0  0  0  0  0  0  0  0  0
  149.7193  158.6170  133.3501 H   0  0  0  0  0  0  0  0  0  0  0  0
  150.1521  159.6688  131.3737 H   0  0  0  0  0  0  0  0  0  0  0  0
  149.8453  158.0391  130.6833 H   0  0  0  0  0  0  0  0  0  0  0  0
  148.5413  159.2745  130.6833 H   0  0  0  0  0  0  0  0  0  0  0  0
  148.6702  161.0112  133.3699 H   0  0  0  0  0  0  0  0  0  0  0  0
  146.5622  162.2479  133.9816 H   0  0  0  0  0  0  0  0  0  0  0  0
  143.7203  161.9348  134.2107 H   0  0  0  0  0  0  0  0  0  0  0  0
  141.3480  159.1680  131.7770 H   0  0  0  0  0  0  0  0  0  0  0  0
  144.1680  155.4330  132.5730 H   0  0  0  0  0  0  0  0  0  0  0  0
  145.6418  156.6167  134.7996 H   0  0  0  0  0  0  0  0  0  0  0  0
  143.9616  156.1389  135.2899 H   0  0  0  0  0  0  0  0  0  0  0  0
  146.3604  157.3440  132.8562 H   0  0  0  0  0  0  0  0  0  0  0  0
  1  2  1  0
  2  3  1  0
  2  4  1  0
  4  5  2  0
  5  6  1  0
  6  7  2  0
  7  8  1  0
  8  9  2  0
  9 10  1  0
 10 11  1  0
 10 12  2  0
  9 13  1  0
 13 14  1  0
 14 15  2  0
 14 16  1  0
 16 17  1  0
 17 18  1  0
 18 19  2  0
 18 20  1  0
 13 21  1  0
 21 22  2  0
 22  4  1  0
 21  7  1  0
  1 23  1  0
  1 24  1  0
  1 25  1  0
  2 26  1  0
  3 27  1  0
  3 28  1  0
  3 29  1  0
  5 30  1  0
  6 31  1  0
  8 32  1  0
 11 33  1  0
 16 34  1  0
 17 35  1  0
 17 36  1  0
 22 37  1  0
M  CHG  2  11  -1  20  -1
M  END
>  <UniqueID>  (81) 
81

>  <SMILES>  (81) 
CC(C)c1ccc2cc(C([NH-])=O)n(C(=O)NCC(=O)[O-])c2c1

>  <Energy>  (81) 
74.1339388968381

>  <Genealogy>  (81) 
CC(C)c1ccc2cc(C([NH-])=O)n(C(=O)NCC(=O)[O-])c2c1 (protonated)
CC(C)c1ccc2cc(C([NH-])=O)n(C(=O)NCC(=O)[O-])c2c1 (3D coordinates assigned)
CC(C)c1ccc2cc(C([NH-])=O)n(C(=O)NCC(=O)[O-])c2c1 (optimized conformer: 74.1339388968381 kcal/mol)

>  <smiles>  (81) 
CC(C)c1ccc2cc(C(N)=O)n(C(=O)NCC(=O)O)c2c1

>  <score_type>  (81) 
oracle

>  <origin>  (81) 
adg

>  <m_score__min__energy>  (81) 
-6.7199999999999998

>  <m_primary>  (81) 
energy

$$$$
81:0
     RDKit          3D

 39 41  0  0  0  0  0  0  0  0999 V2000
  148.9640  154.1900  132.6140 C   0  0  0  0  0  0  0  0  0  0  0  0
  147.6510  154.6770  133.0560 N   0  0  0  0  0  0  0  0  0  0  0  0
  146.5920  153.7020  133.3440 C   0  0  0  0  0  0  0  0  0  0  0  0
  147.4020  156.0990  133.1990 C   0  0  0  0  0  0  0  0  0  0  0  0
  148.4820  157.0260  133.2670 C   0  0  0  0  0  0  0  0  0  0  0  0
  148.2490  158.4040  133.4040 C   0  0  0  0  0  0  0  0  0  0  0  0
  146.9310  158.8410  133.4640 C   0  0  0  0  0  0  0  0  0  0  0  0
  146.4220  160.1120  133.6080 C   0  0  0  0  0  0  0  0  0  0  0  0
  145.0370  159.9580  133.6140 C   0  0  0  0  0  0  0  0  0  0  0  0
  144.0820  161.0820  133.7030 C   0  0  0  0  0  0  0  0  0  0  0  0
  142.7130  160.8800  133.3590 N   0  0  0  0  0  0  0  0  0  0  0  0
  144.4580  162.2160  134.0980 O   0  0  0  0  0  0  0  0  0  0  0  0
  144.7070  158.6430  133.4740 N   0  0  0  0  0  0  0  0  0  0  0  0
  143.3910  158.0630  133.4880 C   0  0  0  0  0  0  0  0  0  0  0  0
  142.7980  157.8600  132.3950 O   0  0  0  0  0  0  0  0  0  0  0  0
  142.7220  157.7180  134.7670 C   0  0  0  0  0  0  0  0  0  0  0  0
  142.7380  156.3940  135.2430 C   0  0  0  0  0  0  0  0  0  0  0  0
  142.0990  156.0660  136.4430 C   0  0  0  0  0  0  0  0  0  0  0  0
  142.1130  154.7850  136.8880 F   0  0  0  0  0  0  0  0  0  0  0  0
  141.4440  157.0550  137.1810 C   0  0  0  0  0  0  0  0  0  0  0  0
  141.4300  158.3740  136.7240 C   0  0  0  0  0  0  0  0  0  0  0  0
  140.7990  159.3330  137.4450 F   0  0  0  0  0  0  0  0  0  0  0  0
  142.0690  158.7070  135.5260 C   0  0  0  0  0  0  0  0  0  0  0  0
  145.8760  157.9740  133.3900 C   0  0  0  0  0  0  0  0  0  0  0  0
  146.0750  156.5950  133.2740 C   0  0  0  0  0  0  0  0  0  0  0  0
  149.5845  153.9599  133.4926 H   0  0  0  0  0  0  0  0  0  0  0  0
  148.8332  153.2806  132.0091 H   0  0  0  0  0  0  0  0  0  0  0  0
  149.4578  154.9648  132.0091 H   0  0  0  0  0  0  0  0  0  0  0  0
  146.4772  153.5963  134.4329 H   0  0  0  0  0  0  0  0  0  0  0  0
  145.6443  154.0503  132.9075 H   0  0  0  0  0  0  0  0  0  0  0  0
  146.8610  152.7288  132.9075 H   0  0  0  0  0  0  0  0  0  0  0  0
  149.5163  156.6557  133.2112 H   0  0  0  0  0  0  0  0  0  0  0  0
  149.0850  159.1166  133.4621 H   0  0  0  0  0  0  0  0  0  0  0  0
  146.9886  161.0504  133.6990 H   0  0  0  0  0  0  0  0  0  0  0  0
  142.4260  160.0860  132.7450 H   0  0  0  0  0  0  0  0  0  0  0  0
  143.2561  155.6124  134.6680 H   0  0  0  0  0  0  0  0  0  0  0  0
  140.9390  156.7942  138.1228 H   0  0  0  0  0  0  0  0  0  0  0  0
  142.0613  159.7492  135.1742 H   0  0  0  0  0  0  0  0  0  0  0  0
  145.2176  155.9067  133.2415 H   0  0  0  0  0  0  0  0  0  0  0  0
  1  2  1  0
  2  3  1  0
  2  4  1  0
  4  5  2  0
  5  6  1  0
  6  7  2  0
  7  8  1  0
  8  9  2  0
  9 10  1  0
 10 11  1  0
 10 12  2  0
  9 13  1  0
 13 14  1  0
 14 15  2  0
 14 16  1  0
 16 17  2  0
 17 18  1  0
 18 19  1  0
 18 20  2  0
 20 21  1  0
 21 22  1  0
 21 23  2  0
 13 24  1  0
 24 25  2  0
 25  4  1  0
 24  7  1  0
 23 16  1  0
  1 26  1  0
  1 27  1  0
  1 28  1  0
  3 29  1  0
  3 30  1  0
  3 31  1  0
  5 32  1  0
  6 33  1  0
  8 34  1  0
 11 35  1  0
 17 36  1  0
 20 37  1  0
 23 38  1  0
 25 39  1  0
M  CHG  1  11  -1
M  END
>  <UniqueID>  (82) 
82

>  <SMILES>  (82) 
CN(C)c1ccc2cc(C([NH-])=O)n(C(=O)c3cc(F)cc(F)c3)c2c1

>  <Energy>  (82) 
83.05931628054712

>  <Genealogy>  (82) 
CN(C)c1ccc2cc(C([NH-])=O)n(C(=O)c3cc(F)cc(F)c3)c2c1 (protonated)
CN(C)c1ccc2cc(C([NH-])=O)n(C(=O)c3cc(F)cc(F)c3)c2c1 (3D coordinates assigned)
CN(C)c1ccc2cc(C([NH-])=O)n(C(=O)c3cc(F)cc(F)c3)c2c1 (optimized conformer: 83.05931628054712 kcal/mol)

>  <smiles>  (82) 
CN(C)c1ccc2cc(C(N)=O)n(C(=O)c3cc(F)cc(F)c3)c2c1

>  <score_type>  (82) 
oracle

>  <origin>  (82) 
adg

>  <m_score__min__energy>  (82) 
-7.29

>  <m_primary>  (82) 
energy

$$$$
82:0
     RDKit          3D

 44 46  0  0  0  0  0  0  0  0999 V2000
  149.3470  159.0110  133.0410 N   0  0  0  0  0  0  0  0  0  0  0  0
  148.6760  157.7780  132.7730 C   0  0  0  0  0  0  0  0  0  0  0  0
  149.3340  156.8140  132.2980 O   0  0  0  0  0  0  0  0  0  0  0  0
  147.2230  157.6400  133.0130 C   0  0  0  0  0  0  0  0  0  0  0  0
  146.5800  156.4170  133.1980 C   0  0  0  0  0  0  0  0  0  0  0  0
  145.2720  156.7310  133.4830 C   0  0  0  0  0  0  0  0  0  0  0  0
  144.1890  155.8980  133.7440 C   0  0  0  0  0  0  0  0  0  0  0  0
  142.9400  156.4940  133.9790 C   0  0  0  0  0  0  0  0  0  0  0  0
  142.7890  157.9060  133.9470 C   0  0  0  0  0  0  0  0  0  0  0  0
  141.4230  158.5250  134.1870 C   0  0  0  0  0  0  0  0  0  0  0  0
  141.2720  159.9070  133.5040 C   0  0  0  0  0  0  0  0  0  0  0  0
  140.3400  159.8590  132.2820 C   0  0  0  0  0  0  0  0  0  0  0  0
  138.9820  159.3580  132.6190 N   0  0  0  0  0  0  0  0  0  0  0  0
  138.2510  158.9070  131.4110 C   0  0  0  0  0  0  0  0  0  0  0  0
  138.3740  159.9100  130.2530 C   0  0  0  0  0  0  0  0  0  0  0  0
  138.3700  161.2320  130.7210 O   0  0  0  0  0  0  0  0  0  0  0  0
  138.9680  158.3110  133.6790 C   0  0  0  0  0  0  0  0  0  0  0  0
  140.2970  157.5520  133.7880 C   0  0  0  0  0  0  0  0  0  0  0  0
  143.9180  158.7160  133.6740 C   0  0  0  0  0  0  0  0  0  0  0  0
  145.1540  158.0960  133.4630 C   0  0  0  0  0  0  0  0  0  0  0  0
  146.3440  158.6700  133.1760 N   0  0  0  0  0  0  0  0  0  0  0  0
  146.5980  160.0760  133.0110 C   0  0  0  0  0  0  0  0  0  0  0  0
  147.3560  160.4820  132.0910 O   0  0  0  0  0  0  0  0  0  0  0  0
  146.0000  161.0020  133.8570 O   0  0  0  0  0  0  0  0  0  0  0  0
  150.3640  159.1100  132.8300 H   0  0  0  0  0  0  0  0  0  0  0  0
  148.8490  159.8140  133.4840 H   0  0  0  0  0  0  0  0  0  0  0  0
  147.0249  155.4133  133.1303 H   0  0  0  0  0  0  0  0  0  0  0  0
  144.3078  154.8046  133.7656 H   0  0  0  0  0  0  0  0  0  0  0  0
  142.0669  155.8593  134.1907 H   0  0  0  0  0  0  0  0  0  0  0  0
  141.3335  158.7100  135.2676 H   0  0  0  0  0  0  0  0  0  0  0  0
  140.8601  160.6188  134.2345 H   0  0  0  0  0  0  0  0  0  0  0  0
  142.2673  160.2185  133.1543 H   0  0  0  0  0  0  0  0  0  0  0  0
  140.2485  160.8742  131.8685 H   0  0  0  0  0  0  0  0  0  0  0  0
  140.7810  159.1627  131.5535 H   0  0  0  0  0  0  0  0  0  0  0  0
  138.6629  157.9396  131.0877 H   0  0  0  0  0  0  0  0  0  0  0  0
  137.1860  158.8199  131.6722 H   0  0  0  0  0  0  0  0  0  0  0  0
  139.3154  159.7231  129.7156 H   0  0  0  0  0  0  0  0  0  0  0  0
  137.5108  159.7759  129.5845 H   0  0  0  0  0  0  0  0  0  0  0  0
  138.2630  161.1840  131.7060 H   0  0  0  0  0  0  0  0  0  0  0  0
  138.7591  158.7931  134.6454 H   0  0  0  0  0  0  0  0  0  0  0  0
  138.1919  157.5795  133.4094 H   0  0  0  0  0  0  0  0  0  0  0  0
  140.2066  156.7653  134.5515 H   0  0  0  0  0  0  0  0  0  0  0  0
  140.5369  157.0986  132.8149 H   0  0  0  0  0  0  0  0  0  0  0  0
  143.8249  159.8111  133.6287 H   0  0  0  0  0  0  0  0  0  0  0  0
  1  2  1  0
  2  3  2  0
  2  4  1  0
  4  5  2  0
  5  6  1  0
  6  7  2  0
  7  8  1  0
  8  9  2  0
  9 10  1  0
 10 11  1  0
 11 12  1  0
 12 13  1  0
 13 14  1  0
 14 15  1  0
 15 16  1  0
 13 17  1  0
 17 18  1  0
  9 19  1  0
 19 20  2  0
 20 21  1  0
 21 22  1  0
 22 23  2  0
 22 24  1  0
 21  4  1  0
 20  6  1  0
 18 10  1  0
  1 25  1  0
  1 26  1  0
  5 27  1  0
  7 28  1  0
  8 29  1  0
 10 30  1  0
 11 31  1  0
 11 32  1  0
 12 33  1  0
 12 34  1  0
 14 35  1  0
 14 36  1  0
 15 37  1  0
 15 38  1  0
 16 39  1  0
 17 40  1  0
 17 41  1  0
 18 42  1  0
 18 43  1  0
 19 44  1  0
M  CHG  1  24  -1
M  END
>  <UniqueID>  (83) 
83

>  <SMILES>  (83) 
NC(=O)c1cc2ccc(C3CCN(CCO)CC3)cc2n1C(=O)[O-]

>  <Energy>  (83) 
93.86709258922538

>  <Genealogy>  (83) 
NC(=O)c1cc2ccc(C3CCN(CCO)CC3)cc2n1C(=O)[O-] (protonated)
NC(=O)c1cc2ccc(C3CCN(CCO)CC3)cc2n1C(=O)[O-] (3D coordinates assigned)
NC(=O)c1cc2ccc(C3CCN(CCO)CC3)cc2n1C(=O)[O-] (nonaromatic ring conformer: 93.86709258922538 kcal/mol)

>  <smiles>  (83) 
NC(=O)c1cc2ccc(C3CCN(CCO)CC3)cc2n1C(=O)O

>  <score_type>  (83) 
oracle

>  <origin>  (83) 
adg

>  <m_score__min__energy>  (83) 
-8.0600000000000005

>  <m_primary>  (83) 
energy

$$$$
83:0
     RDKit          3D

 44 46  0  0  0  0  0  0  0  0999 V2000
  149.9810  160.0240  130.2960 C   0  0  0  0  0  0  0  0  0  0  0  0
  149.2420  159.5740  131.3150 C   0  0  0  0  0  0  0  0  0  0  0  0
  148.0020  160.2900  131.7690 C   0  0  0  0  0  0  0  0  0  0  0  0
  147.6480  159.9090  133.1740 C   0  0  0  0  0  0  0  0  0  0  0  0
  148.4720  160.1050  134.1070 O   0  0  0  0  0  0  0  0  0  0  0  0
  146.3850  159.3010  133.4610 N   0  0  0  0  0  0  0  0  0  0  0  0
  145.2180  159.9220  133.7840 C   0  0  0  0  0  0  0  0  0  0  0  0
  145.0270  161.3810  133.9290 C   0  0  0  0  0  0  0  0  0  0  0  0
  146.1070  162.2290  134.3080 N   0  0  0  0  0  0  0  0  0  0  0  0
  143.8900  161.8870  133.7240 O   0  0  0  0  0  0  0  0  0  0  0  0
  144.2040  158.9810  133.9670 C   0  0  0  0  0  0  0  0  0  0  0  0
  144.7970  157.7580  133.7420 C   0  0  0  0  0  0  0  0  0  0  0  0
  144.2560  156.4750  133.7840 C   0  0  0  0  0  0  0  0  0  0  0  0
  145.1100  155.3930  133.5070 C   0  0  0  0  0  0  0  0  0  0  0  0
  146.4800  155.6070  133.2020 C   0  0  0  0  0  0  0  0  0  0  0  0
  147.3640  154.4570  132.8970 C   0  0  0  0  0  0  0  0  0  0  0  0
  148.7250  154.6850  132.6370 C   0  0  0  0  0  0  0  0  0  0  0  0
  149.5860  153.6220  132.3640 C   0  0  0  0  0  0  0  0  0  0  0  0
  149.1050  152.3050  132.3420 C   0  0  0  0  0  0  0  0  0  0  0  0
  150.0170  151.1750  132.0510 C   0  0  0  0  0  0  0  0  0  0  0  0
  151.0990  151.0450  132.6840 O   0  0  0  0  0  0  0  0  0  0  0  0
  149.6910  150.2400  131.0730 O   0  0  0  0  0  0  0  0  0  0  0  0
  147.7430  152.0710  132.5950 C   0  0  0  0  0  0  0  0  0  0  0  0
  146.8630  153.1380  132.8660 C   0  0  0  0  0  0  0  0  0  0  0  0
  145.4920  152.9230  133.0880 O   0  0  0  0  0  0  0  0  0  0  0  0
  144.7510  151.8190  132.5830 C   0  0  0  0  0  0  0  0  0  0  0  0
  146.9880  156.9270  133.1660 C   0  0  0  0  0  0  0  0  0  0  0  0
  146.1130  157.9810  133.4410 C   0  0  0  0  0  0  0  0  0  0  0  0
  150.8839  159.4767  129.9876 H   0  0  0  0  0  0  0  0  0  0  0  0
  149.6862  160.9416  129.7659 H   0  0  0  0  0  0  0  0  0  0  0  0
  149.5502  158.6549  131.8349 H   0  0  0  0  0  0  0  0  0  0  0  0
  148.1757  161.3752  131.7232 H   0  0  0  0  0  0  0  0  0  0  0  0
  147.1702  160.0054  131.1078 H   0  0  0  0  0  0  0  0  0  0  0  0
  147.0700  161.8460  134.4370 H   0  0  0  0  0  0  0  0  0  0  0  0
  143.1546  159.1745  134.2340 H   0  0  0  0  0  0  0  0  0  0  0  0
  143.1951  156.3137  134.0260 H   0  0  0  0  0  0  0  0  0  0  0  0
  144.7117  154.3678  133.5269 H   0  0  0  0  0  0  0  0  0  0  0  0
  149.1164  155.7129  132.6487 H   0  0  0  0  0  0  0  0  0  0  0  0
  150.6498  153.8182  132.1646 H   0  0  0  0  0  0  0  0  0  0  0  0
  147.3581  151.0406  132.5814 H   0  0  0  0  0  0  0  0  0  0  0  0
  144.3548  151.2286  133.4223 H   0  0  0  0  0  0  0  0  0  0  0  0
  143.9168  152.1878  131.9680 H   0  0  0  0  0  0  0  0  0  0  0  0
  145.4083  151.1867  131.9680 H   0  0  0  0  0  0  0  0  0  0  0  0
  148.0447  157.1185  132.9276 H   0  0  0  0  0  0  0  0  0  0  0  0
  1  2  2  0
  2  3  1  0
  3  4  1  0
  4  5  2  0
  4  6  1  0
  6  7  1  0
  7  8  1  0
  8  9  1  0
  8 10  2  0
  7 11  2  0
 11 12  1  0
 12 13  2  0
 13 14  1  0
 14 15  2  0
 15 16  1  0
 16 17  2  0
 17 18  1  0
 18 19  2  0
 19 20  1  0
 20 21  2  0
 20 22  1  0
 19 23  1  0
 23 24  2  0
 24 25  1  0
 25 26  1  0
 15 27  1  0
 27 28  2  0
 28  6  1  0
 28 12  1  0
 24 16  1  0
  1 29  1  0
  1 30  1  0
  2 31  1  0
  3 32  1  0
  3 33  1  0
  9 34  1  0
 11 35  1  0
 13 36  1  0
 14 37  1  0
 17 38  1  0
 18 39  1  0
 23 40  1  0
 26 41  1  0
 26 42  1  0
 26 43  1  0
 27 44  1  0
M  CHG  2   9  -1  22  -1
M  END
>  <UniqueID>  (84) 
84

>  <SMILES>  (84) 
C=CCC(=O)n1c(C([NH-])=O)cc2ccc(-c3ccc(C(=O)[O-])cc3OC)cc21

>  <Energy>  (84) 
89.5414912902221

>  <Genealogy>  (84) 
C=CCC(=O)n1c(C([NH-])=O)cc2ccc(-c3ccc(C(=O)[O-])cc3OC)cc21 (protonated)
C=CCC(=O)n1c(C([NH-])=O)cc2ccc(-c3ccc(C(=O)[O-])cc3OC)cc21 (3D coordinates assigned)
C=CCC(=O)n1c(C([NH-])=O)cc2ccc(-c3ccc(C(=O)[O-])cc3OC)cc21 (optimized conformer: 89.5414912902221 kcal/mol)

>  <smiles>  (84) 
C=CCC(=O)n1c(C(N)=O)cc2ccc(-c3ccc(C(=O)O)cc3OC)cc21

>  <score_type>  (84) 
oracle

>  <origin>  (84) 
adg

>  <m_score__min__energy>  (84) 
-8.4399999999999995

>  <m_primary>  (84) 
energy

$$$$
84:0
     RDKit          3D

 29 30  0  0  0  0  0  0  0  0999 V2000
  148.7860  159.9940  131.2310 C   0  0  0  0  0  0  0  0  0  0  0  0
  149.0410  159.0380  132.1210 C   0  0  0  0  0  0  0  0  0  0  0  0
  148.2870  158.9080  133.3830 C   0  0  0  0  0  0  0  0  0  0  0  0
  148.8750  159.0310  134.4920 O   0  0  0  0  0  0  0  0  0  0  0  0
  146.8830  158.6030  133.3570 N   0  0  0  0  0  0  0  0  0  0  0  0
  146.3090  157.3690  133.2930 C   0  0  0  0  0  0  0  0  0  0  0  0
  147.0260  156.0930  133.0910 C   0  0  0  0  0  0  0  0  0  0  0  0
  146.9220  155.3680  131.8650 N   0  0  0  0  0  0  0  0  0  0  0  0
  147.7050  155.6100  134.0370 O   0  0  0  0  0  0  0  0  0  0  0  0
  144.9260  157.4630  133.4290 C   0  0  0  0  0  0  0  0  0  0  0  0
  144.6650  158.8060  133.5750 C   0  0  0  0  0  0  0  0  0  0  0  0
  143.4560  159.4670  133.7680 C   0  0  0  0  0  0  0  0  0  0  0  0
  143.4870  160.8610  133.9380 C   0  0  0  0  0  0  0  0  0  0  0  0
  144.7200  161.5590  133.9400 C   0  0  0  0  0  0  0  0  0  0  0  0
  144.7380  163.0500  134.1030 C   0  0  0  0  0  0  0  0  0  0  0  0
  145.9260  160.8580  133.7300 C   0  0  0  0  0  0  0  0  0  0  0  0
  145.8630  159.4730  133.5350 C   0  0  0  0  0  0  0  0  0  0  0  0
  149.3739  160.0527  130.3032 H   0  0  0  0  0  0  0  0  0  0  0  0
  147.9873  160.7255  131.4232 H   0  0  0  0  0  0  0  0  0  0  0  0
  149.8443  158.3173  131.9079 H   0  0  0  0  0  0  0  0  0  0  0  0
  146.2230  155.6320  131.1370 H   0  0  0  0  0  0  0  0  0  0  0  0
  147.4790  154.4960  131.7250 H   0  0  0  0  0  0  0  0  0  0  0  0
  144.1975  156.6389  133.4213 H   0  0  0  0  0  0  0  0  0  0  0  0
  142.5048  158.9148  133.7869 H   0  0  0  0  0  0  0  0  0  0  0  0
  142.5462  161.4153  134.0707 H   0  0  0  0  0  0  0  0  0  0  0  0
  144.7410  163.3018  135.1738 H   0  0  0  0  0  0  0  0  0  0  0  0
  145.6412  163.4600  133.6274 H   0  0  0  0  0  0  0  0  0  0  0  0
  143.8450  163.4817  133.6274 H   0  0  0  0  0  0  0  0  0  0  0  0
  146.8910  161.3859  133.7197 H   0  0  0  0  0  0  0  0  0  0  0  0
  1  2  2  0
  2  3  1  0
  3  4  2  0
  3  5  1  0
  5  6  1  0
  6  7  1  0
  7  8  1  0
  7  9  2  0
  6 10  2  0
 10 11  1  0
 11 12  2  0
 12 13  1  0
 13 14  2  0
 14 15  1  0
 14 16  1  0
 16 17  2  0
 17  5  1  0
 17 11  1  0
  1 18  1  0
  1 19  1  0
  2 20  1  0
  8 21  1  0
  8 22  1  0
 10 23  1  0
 12 24  1  0
 13 25  1  0
 15 26  1  0
 15 27  1  0
 15 28  1  0
 16 29  1  0
M  END
>  <UniqueID>  (85) 
85

>  <SMILES>  (85) 
C=CC(=O)n1c(C(N)=O)cc2ccc(C)cc21

>  <Energy>  (85) 
67.56481094634822

>  <Genealogy>  (85) 
C=CC(=O)n1c(C(N)=O)cc2ccc(C)cc21 (3D coordinates assigned)
C=CC(=O)n1c(C(N)=O)cc2ccc(C)cc21 (optimized conformer: 67.56481094634822 kcal/mol)

>  <smiles>  (85) 
C=CC(=O)n1c(C(N)=O)cc2ccc(C)cc21

>  <score_type>  (85) 
oracle

>  <origin>  (85) 
adg

>  <m_score__min__energy>  (85) 
-6.9000000000000004

>  <m_primary>  (85) 
energy

$$$$
85:0
     RDKit          3D

 40 41  0  0  0  0  0  0  0  0999 V2000
  140.8000  157.2570  136.0510 C   0  0  0  0  0  0  0  0  0  0  0  0
  141.4990  158.0380  135.0370 N   0  0  0  0  0  0  0  0  0  0  0  0
  141.5810  159.4680  135.1110 C   0  0  0  0  0  0  0  0  0  0  0  0
  140.9580  160.0900  136.0130 O   0  0  0  0  0  0  0  0  0  0  0  0
  142.4140  160.2340  134.1250 C   0  0  0  0  0  0  0  0  0  0  0  0
  143.8850  159.7900  134.1480 C   0  0  0  0  0  0  0  0  0  0  0  0
  144.1240  158.5280  133.3600 C   0  0  0  0  0  0  0  0  0  0  0  0
  143.2250  158.0920  132.5910 O   0  0  0  0  0  0  0  0  0  0  0  0
  145.3580  157.8020  133.4900 N   0  0  0  0  0  0  0  0  0  0  0  0
  145.5540  156.5610  134.0220 C   0  0  0  0  0  0  0  0  0  0  0  0
  144.5410  155.7540  134.7300 C   0  0  0  0  0  0  0  0  0  0  0  0
  144.9450  154.8660  135.7730 N   0  0  0  0  0  0  0  0  0  0  0  0
  143.3170  155.8620  134.4510 O   0  0  0  0  0  0  0  0  0  0  0  0
  146.8880  156.1810  133.8950 C   0  0  0  0  0  0  0  0  0  0  0  0
  147.5110  157.2370  133.2690 C   0  0  0  0  0  0  0  0  0  0  0  0
  148.8440  157.4050  132.9050 C   0  0  0  0  0  0  0  0  0  0  0  0
  149.2060  158.6060  132.2750 C   0  0  0  0  0  0  0  0  0  0  0  0
  148.2390  159.6110  132.0170 C   0  0  0  0  0  0  0  0  0  0  0  0
  148.6510  160.9100  131.3760 C   0  0  0  0  0  0  0  0  0  0  0  0
  149.2880  160.6690  130.0100 C   0  0  0  0  0  0  0  0  0  0  0  0
  150.5560  160.1430  130.1750 F   0  0  0  0  0  0  0  0  0  0  0  0
  148.5240  159.7800  129.2740 F   0  0  0  0  0  0  0  0  0  0  0  0
  146.8990  159.4090  132.4140 C   0  0  0  0  0  0  0  0  0  0  0  0
  146.5650  158.2020  133.0390 C   0  0  0  0  0  0  0  0  0  0  0  0
  141.1052  157.5980  137.0513 H   0  0  0  0  0  0  0  0  0  0  0  0
  139.7146  157.3910  135.9333 H   0  0  0  0  0  0  0  0  0  0  0  0
  141.0530  156.1930  135.9333 H   0  0  0  0  0  0  0  0  0  0  0  0
  142.0130  157.5330  134.2780 H   0  0  0  0  0  0  0  0  0  0  0  0
  142.0093  160.0706  133.1153 H   0  0  0  0  0  0  0  0  0  0  0  0
  142.3755  161.2980  134.4012 H   0  0  0  0  0  0  0  0  0  0  0  0
  144.5020  160.5940  133.7204 H   0  0  0  0  0  0  0  0  0  0  0  0
  144.1535  159.5840  135.1946 H   0  0  0  0  0  0  0  0  0  0  0  0
  144.9790  155.1820  136.7690 H   0  0  0  0  0  0  0  0  0  0  0  0
  147.3465  155.2371  134.2250 H   0  0  0  0  0  0  0  0  0  0  0  0
  149.5899  156.6216  133.1047 H   0  0  0  0  0  0  0  0  0  0  0  0
  150.2523  158.7697  131.9778 H   0  0  0  0  0  0  0  0  0  0  0  0
  147.7629  161.5470  131.2513 H   0  0  0  0  0  0  0  0  0  0  0  0
  149.3904  161.4018  132.0252 H   0  0  0  0  0  0  0  0  0  0  0  0
  149.3459  161.6283  129.4748 H   0  0  0  0  0  0  0  0  0  0  0  0
  146.1362  160.1814  132.2364 H   0  0  0  0  0  0  0  0  0  0  0  0
  1  2  1  0
  2  3  1  0
  3  4  2  0
  3  5  1  0
  5  6  1  0
  6  7  1  0
  7  8  2  0
  7  9  1  0
  9 10  1  0
 10 11  1  0
 11 12  1  0
 11 13  2  0
 10 14  2  0
 14 15  1  0
 15 16  2  0
 16 17  1  0
 17 18  2  0
 18 19  1  0
 19 20  1  0
 20 21  1  0
 20 22  1  0
 18 23  1  0
 23 24  2  0
 24  9  1  0
 24 15  1  0
  1 25  1  0
  1 26  1  0
  1 27  1  0
  2 28  1  0
  5 29  1  0
  5 30  1  0
  6 31  1  0
  6 32  1  0
 12 33  1  0
 14 34  1  0
 16 35  1  0
 17 36  1  0
 19 37  1  0
 19 38  1  0
 20 39  1  0
 23 40  1  0
M  CHG  1  12  -1
M  END
>  <UniqueID>  (86) 
86

>  <SMILES>  (86) 
CNC(=O)CCC(=O)n1c(C([NH-])=O)cc2ccc(CC(F)F)cc21

>  <Energy>  (86) 
69.82772041949676

>  <Genealogy>  (86) 
CNC(=O)CCC(=O)n1c(C([NH-])=O)cc2ccc(CC(F)F)cc21 (protonated)
CNC(=O)CCC(=O)n1c(C([NH-])=O)cc2ccc(CC(F)F)cc21 (3D coordinates assigned)
CNC(=O)CCC(=O)n1c(C([NH-])=O)cc2ccc(CC(F)F)cc21 (optimized conformer: 69.82772041949676 kcal/mol)

>  <smiles>  (86) 
CNC(=O)CCC(=O)n1c(C(N)=O)cc2ccc(CC(F)F)cc21

>  <score_type>  (86) 
oracle

>  <origin>  (86) 
adg

>  <m_score__min__energy>  (86) 
-6.8700000000000001

>  <m_primary>  (86) 
energy

$$$$
86:0
     RDKit          3D

 42 43  0  0  0  0  0  0  0  0999 V2000
  139.4330  158.9900  132.1230 C   0  0  0  0  0  0  0  0  0  0  0  0
  139.6200  158.1730  133.3990 C   0  0  0  0  0  0  0  0  0  0  0  0
  140.3550  158.9830  134.4720 C   0  0  0  0  0  0  0  0  0  0  0  0
  141.3480  158.1050  135.2390 C   0  0  0  0  0  0  0  0  0  0  0  0
  142.6830  158.5610  135.0280 O   0  0  0  0  0  0  0  0  0  0  0  0
  143.3680  158.4070  133.8170 C   0  0  0  0  0  0  0  0  0  0  0  0
  142.8330  157.7900  132.8550 O   0  0  0  0  0  0  0  0  0  0  0  0
  144.6740  158.9810  133.6610 N   0  0  0  0  0  0  0  0  0  0  0  0
  145.0180  160.3000  133.7020 C   0  0  0  0  0  0  0  0  0  0  0  0
  144.0810  161.4420  133.7540 C   0  0  0  0  0  0  0  0  0  0  0  0
  142.6730  161.2390  133.6860 N   0  0  0  0  0  0  0  0  0  0  0  0
  144.5330  162.6170  133.8130 O   0  0  0  0  0  0  0  0  0  0  0  0
  146.4010  160.4470  133.6000 C   0  0  0  0  0  0  0  0  0  0  0  0
  146.8970  159.1680  133.4860 C   0  0  0  0  0  0  0  0  0  0  0  0
  148.2110  158.7230  133.3730 C   0  0  0  0  0  0  0  0  0  0  0  0
  148.4340  157.3390  133.3070 C   0  0  0  0  0  0  0  0  0  0  0  0
  147.3470  156.4290  133.3540 C   0  0  0  0  0  0  0  0  0  0  0  0
  147.6070  154.9450  133.3300 C   0  0  0  0  0  0  0  0  0  0  0  0
  146.7270  154.1980  134.3400 C   0  0  0  0  0  0  0  0  0  0  0  0
  147.2870  154.2820  135.7280 C   0  0  0  0  0  0  0  0  0  0  0  0
  148.0150  155.2550  136.0600 O   0  0  0  0  0  0  0  0  0  0  0  0
  146.9680  153.3090  136.6660 O   0  0  0  0  0  0  0  0  0  0  0  0
  146.0270  156.9170  133.4760 C   0  0  0  0  0  0  0  0  0  0  0  0
  145.8340  158.3020  133.5240 C   0  0  0  0  0  0  0  0  0  0  0  0
  139.1947  160.0312  132.3859 H   0  0  0  0  0  0  0  0  0  0  0  0
  140.3603  158.9641  131.5318 H   0  0  0  0  0  0  0  0  0  0  0  0
  138.6093  158.5634  131.5318 H   0  0  0  0  0  0  0  0  0  0  0  0
  138.6328  157.8789  133.7848 H   0  0  0  0  0  0  0  0  0  0  0  0
  140.2227  157.2846  133.1590 H   0  0  0  0  0  0  0  0  0  0  0  0
  140.9014  159.8067  133.9894 H   0  0  0  0  0  0  0  0  0  0  0  0
  139.6136  159.3764  135.1830 H   0  0  0  0  0  0  0  0  0  0  0  0
  141.1158  158.1490  136.3133 H   0  0  0  0  0  0  0  0  0  0  0  0
  141.2633  157.0703  134.8754 H   0  0  0  0  0  0  0  0  0  0  0  0
  142.2640  160.2820  133.7620 H   0  0  0  0  0  0  0  0  0  0  0  0
  146.9740  161.3859  133.6088 H   0  0  0  0  0  0  0  0  0  0  0  0
  149.0491  159.4345  133.3365 H   0  0  0  0  0  0  0  0  0  0  0  0
  149.4615  156.9563  133.2180 H   0  0  0  0  0  0  0  0  0  0  0  0
  147.3948  154.5623  132.3208 H   0  0  0  0  0  0  0  0  0  0  0  0
  148.6594  154.7770  133.6023 H   0  0  0  0  0  0  0  0  0  0  0  0
  145.7206  154.6420  134.3336 H   0  0  0  0  0  0  0  0  0  0  0  0
  146.6907  153.1383  134.0472 H   0  0  0  0  0  0  0  0  0  0  0  0
  145.1729  156.2261  133.5318 H   0  0  0  0  0  0  0  0  0  0  0  0
  1  2  1  0
  2  3  1  0
  3  4  1  0
  4  5  1  0
  5  6  1  0
  6  7  2  0
  6  8  1  0
  8  9  1  0
  9 10  1  0
 10 11  1  0
 10 12  2  0
  9 13  2  0
 13 14  1  0
 14 15  2  0
 15 16  1  0
 16 17  2  0
 17 18  1  0
 18 19  1  0
 19 20  1  0
 20 21  2  0
 20 22  1  0
 17 23  1  0
 23 24  2  0
 24  8  1  0
 24 14  1  0
  1 25  1  0
  1 26  1  0
  1 27  1  0
  2 28  1  0
  2 29  1  0
  3 30  1  0
  3 31  1  0
  4 32  1  0
  4 33  1  0
 11 34  1  0
 13 35  1  0
 15 36  1  0
 16 37  1  0
 18 38  1  0
 18 39  1  0
 19 40  1  0
 19 41  1  0
 23 42  1  0
M  CHG  2  11  -1  22  -1
M  END
>  <UniqueID>  (87) 
87

>  <SMILES>  (87) 
CCCCOC(=O)n1c(C([NH-])=O)cc2ccc(CCC(=O)[O-])cc21

>  <Energy>  (87) 
69.07561578595083

>  <Genealogy>  (87) 
CCCCOC(=O)n1c(C([NH-])=O)cc2ccc(CCC(=O)[O-])cc21 (protonated)
CCCCOC(=O)n1c(C([NH-])=O)cc2ccc(CCC(=O)[O-])cc21 (3D coordinates assigned)
CCCCOC(=O)n1c(C([NH-])=O)cc2ccc(CCC(=O)[O-])cc21 (optimized conformer: 69.07561578595083 kcal/mol)

>  <smiles>  (87) 
CCCCOC(=O)n1c(C(N)=O)cc2ccc(CCC(=O)O)cc21

>  <score_type>  (87) 
oracle

>  <origin>  (87) 
adg

>  <m_score__min__energy>  (87) 
-6.9000000000000004

>  <m_primary>  (87) 
energy

$$$$
87:0
     RDKit          3D

 35 36  0  0  0  0  0  0  0  0999 V2000
  148.8720  161.2710  130.7370 C   0  0  0  0  0  0  0  0  0  0  0  0
  149.9150  160.1600  130.8160 C   0  0  0  0  0  0  0  0  0  0  0  0
  149.2680  158.7830  131.0050 C   0  0  0  0  0  0  0  0  0  0  0  0
  149.1540  158.4500  132.3900 O   0  0  0  0  0  0  0  0  0  0  0  0
  148.0060  158.7180  133.1480 C   0  0  0  0  0  0  0  0  0  0  0  0
  147.9040  159.8030  133.7840 O   0  0  0  0  0  0  0  0  0  0  0  0
  146.9280  157.7680  133.1740 N   0  0  0  0  0  0  0  0  0  0  0  0
  145.6140  158.0150  133.4330 C   0  0  0  0  0  0  0  0  0  0  0  0
  144.9930  159.3470  133.5460 C   0  0  0  0  0  0  0  0  0  0  0  0
  145.5830  160.4890  132.9260 N   0  0  0  0  0  0  0  0  0  0  0  0
  143.8890  159.4680  134.1440 O   0  0  0  0  0  0  0  0  0  0  0  0
  144.8950  156.8270  133.5120 C   0  0  0  0  0  0  0  0  0  0  0  0
  145.8140  155.8300  133.2800 C   0  0  0  0  0  0  0  0  0  0  0  0
  145.6440  154.4490  133.2380 C   0  0  0  0  0  0  0  0  0  0  0  0
  146.7750  153.6530  133.0020 C   0  0  0  0  0  0  0  0  0  0  0  0
  148.0560  154.2420  132.8410 C   0  0  0  0  0  0  0  0  0  0  0  0
  149.2600  153.3790  132.5540 C   0  0  0  0  0  0  0  0  0  0  0  0
  149.0100  152.5350  131.4850 F   0  0  0  0  0  0  0  0  0  0  0  0
  149.5490  152.6170  133.6710 F   0  0  0  0  0  0  0  0  0  0  0  0
  150.3590  154.1580  132.2420 F   0  0  0  0  0  0  0  0  0  0  0  0
  148.1840  155.6510  132.8670 C   0  0  0  0  0  0  0  0  0  0  0  0
  147.0350  156.4220  133.0820 C   0  0  0  0  0  0  0  0  0  0  0  0
  148.5846  161.5771  131.7537 H   0  0  0  0  0  0  0  0  0  0  0  0
  149.2945  162.1331  130.2002 H   0  0  0  0  0  0  0  0  0  0  0  0
  147.9849  160.9037  130.2002 H   0  0  0  0  0  0  0  0  0  0  0  0
  150.4996  160.1537  129.8842 H   0  0  0  0  0  0  0  0  0  0  0  0
  150.5589  160.3572  131.6858 H   0  0  0  0  0  0  0  0  0  0  0  0
  148.2643  158.7936  130.5550 H   0  0  0  0  0  0  0  0  0  0  0  0
  149.9045  158.0298  130.5175 H   0  0  0  0  0  0  0  0  0  0  0  0
  145.1160  161.4210  132.9960 H   0  0  0  0  0  0  0  0  0  0  0  0
  146.4270  160.3980  132.3200 H   0  0  0  0  0  0  0  0  0  0  0  0
  143.8205  156.7097  133.7164 H   0  0  0  0  0  0  0  0  0  0  0  0
  144.6528  153.9955  133.3854 H   0  0  0  0  0  0  0  0  0  0  0  0
  146.6675  152.5600  132.9411 H   0  0  0  0  0  0  0  0  0  0  0  0
  149.1637  156.1297  132.7217 H   0  0  0  0  0  0  0  0  0  0  0  0
  1  2  1  0
  2  3  1  0
  3  4  1  0
  4  5  1  0
  5  6  2  0
  5  7  1  0
  7  8  1  0
  8  9  1  0
  9 10  1  0
  9 11  2  0
  8 12  2  0
 12 13  1  0
 13 14  2  0
 14 15  1  0
 15 16  2  0
 16 17  1  0
 17 18  1  0
 17 19  1  0
 17 20  1  0
 16 21  1  0
 21 22  2  0
 22  7  1  0
 22 13  1  0
  1 23  1  0
  1 24  1  0
  1 25  1  0
  2 26  1  0
  2 27  1  0
  3 28  1  0
  3 29  1  0
 10 30  1  0
 10 31  1  0
 12 32  1  0
 14 33  1  0
 15 34  1  0
 21 35  1  0
M  END
>  <UniqueID>  (88) 
88

>  <SMILES>  (88) 
CCCOC(=O)n1c(C(N)=O)cc2ccc(C(F)(F)F)cc21

>  <Energy>  (88) 
69.83164318612148

>  <Genealogy>  (88) 
CCCOC(=O)n1c(C(N)=O)cc2ccc(C(F)(F)F)cc21 (3D coordinates assigned)
CCCOC(=O)n1c(C(N)=O)cc2ccc(C(F)(F)F)cc21 (optimized conformer: 69.83164318612148 kcal/mol)

>  <smiles>  (88) 
CCCOC(=O)n1c(C(N)=O)cc2ccc(C(F)(F)F)cc21

>  <score_type>  (88) 
oracle

>  <origin>  (88) 
adg

>  <m_score__min__energy>  (88) 
-6.4400000000000004

>  <m_primary>  (88) 
energy

$$$$
88:0
     RDKit          3D

 28 29  0  0  0  0  0  0  0  0999 V2000
  141.6560  159.5970  135.6410 N   0  0  0  0  0  0  0  0  0  0  0  0
  142.2350  160.1180  134.4470 C   0  0  0  0  0  0  0  0  0  0  0  0
  141.5740  160.9300  133.7460 O   0  0  0  0  0  0  0  0  0  0  0  0
  143.6140  159.7650  134.0530 C   0  0  0  0  0  0  0  0  0  0  0  0
  144.0230  158.4590  133.7880 C   0  0  0  0  0  0  0  0  0  0  0  0
  145.3310  158.5640  133.3720 C   0  0  0  0  0  0  0  0  0  0  0  0
  146.2270  157.5720  132.9830 C   0  0  0  0  0  0  0  0  0  0  0  0
  147.5270  157.9640  132.6240 C   0  0  0  0  0  0  0  0  0  0  0  0
  147.9100  159.3280  132.6750 C   0  0  0  0  0  0  0  0  0  0  0  0
  149.2980  159.7390  132.2690 C   0  0  0  0  0  0  0  0  0  0  0  0
  149.2660  160.4020  130.9260 C   0  0  0  0  0  0  0  0  0  0  0  0
  148.4950  161.5860  130.7240 N   0  0  0  0  0  0  0  0  0  0  0  0
  149.9540  159.9350  129.9800 O   0  0  0  0  0  0  0  0  0  0  0  0
  146.9680  160.3070  133.0640 C   0  0  0  0  0  0  0  0  0  0  0  0
  145.6740  159.8900  133.3980 C   0  0  0  0  0  0  0  0  0  0  0  0
  144.6320  160.6420  133.8170 N   0  0  0  0  0  0  0  0  0  0  0  0
  144.6450  162.0610  134.0470 C   0  0  0  0  0  0  0  0  0  0  0  0
  145.4760  162.5680  134.8460 O   0  0  0  0  0  0  0  0  0  0  0  0
  143.7580  162.8890  133.3710 O   0  0  0  0  0  0  0  0  0  0  0  0
  140.7850  160.0120  136.0410 H   0  0  0  0  0  0  0  0  0  0  0  0
  143.4272  157.5399  133.8897 H   0  0  0  0  0  0  0  0  0  0  0  0
  145.9262  156.5142  132.9576 H   0  0  0  0  0  0  0  0  0  0  0  0
  148.2549  157.2055  132.3002 H   0  0  0  0  0  0  0  0  0  0  0  0
  149.7014  160.4422  133.0125 H   0  0  0  0  0  0  0  0  0  0  0  0
  149.9368  158.8452  132.2143 H   0  0  0  0  0  0  0  0  0  0  0  0
  147.9350  161.9970  131.5030 H   0  0  0  0  0  0  0  0  0  0  0  0
  148.4860  162.0560  129.7920 H   0  0  0  0  0  0  0  0  0  0  0  0
  147.2448  161.3709  133.1034 H   0  0  0  0  0  0  0  0  0  0  0  0
  1  2  1  0
  2  3  2  0
  2  4  1  0
  4  5  2  0
  5  6  1  0
  6  7  2  0
  7  8  1  0
  8  9  2  0
  9 10  1  0
 10 11  1  0
 11 12  1  0
 11 13  2  0
  9 14  1  0
 14 15  2  0
 15 16  1  0
 16 17  1  0
 17 18  2  0
 17 19  1  0
 16  4  1  0
 15  6  1  0
  1 20  1  0
  5 21  1  0
  7 22  1  0
  8 23  1  0
 10 24  1  0
 10 25  1  0
 12 26  1  0
 12 27  1  0
 14 28  1  0
M  CHG  2   1  -1  19  -1
M  END
>  <UniqueID>  (89) 
89

>  <SMILES>  (89) 
[NH-]C(=O)c1cc2ccc(CC(N)=O)cc2n1C(=O)[O-]

>  <Energy>  (89) 
65.05148473958211

>  <Genealogy>  (89) 
[NH-]C(=O)c1cc2ccc(CC(N)=O)cc2n1C(=O)[O-] (protonated)
[NH-]C(=O)c1cc2ccc(CC(N)=O)cc2n1C(=O)[O-] (3D coordinates assigned)
[NH-]C(=O)c1cc2ccc(CC(N)=O)cc2n1C(=O)[O-] (optimized conformer: 65.05148473958211 kcal/mol)

>  <smiles>  (89) 
NC(=O)Cc1ccc2cc(C(N)=O)n(C(=O)O)c2c1

>  <score_type>  (89) 
oracle

>  <origin>  (89) 
adg

>  <m_score__min__energy>  (89) 
-7.2400000000000002

>  <m_primary>  (89) 
energy

$$$$
89:0
     RDKit          3D

 65 66  0  0  0  0  0  0  0  0999 V2000
  148.9310  158.7510  130.9760 C   0  0  0  0  0  0  0  0  0  0  0  0
  149.2280  159.6880  132.1490 C   0  0  0  0  0  0  0  0  0  0  0  0
  148.1260  159.6040  133.2060 C   0  0  0  0  0  0  0  0  0  0  0  0
  146.7140  159.7300  132.6080 C   0  0  0  0  0  0  0  0  0  0  0  0
  145.6510  160.1590  133.6470 C   0  0  0  0  0  0  0  0  0  0  0  0
  144.2220  159.6890  133.3030 C   0  0  0  0  0  0  0  0  0  0  0  0
  143.7730  158.4560  134.0900 C   0  0  0  0  0  0  0  0  0  0  0  0
  143.1510  157.5370  133.2140 O   0  0  0  0  0  0  0  0  0  0  0  0
  144.0180  156.4470  132.9660 C   0  0  0  0  0  0  0  0  0  0  0  0
  143.2050  155.1530  132.9920 C   0  0  0  0  0  0  0  0  0  0  0  0
  142.1000  155.1970  134.0480 C   0  0  0  0  0  0  0  0  0  0  0  0
  140.8050  155.3770  133.4040 N   0  0  0  0  0  0  0  0  0  0  0  0
  139.9020  156.4310  133.7390 C   0  0  0  0  0  0  0  0  0  0  0  0
  138.7080  156.3930  133.3370 O   0  0  0  0  0  0  0  0  0  0  0  0
  140.3570  157.5390  134.5310 N   0  0  0  0  0  0  0  0  0  0  0  0
  140.4550  158.8450  134.1530 C   0  0  0  0  0  0  0  0  0  0  0  0
  140.1990  159.3590  132.7900 C   0  0  0  0  0  0  0  0  0  0  0  0
  140.9770  158.9020  131.6820 N   0  0  0  0  0  0  0  0  0  0  0  0
  139.2780  160.1960  132.5940 O   0  0  0  0  0  0  0  0  0  0  0  0
  140.9000  159.6280  135.2120 C   0  0  0  0  0  0  0  0  0  0  0  0
  141.0640  158.7570  136.2660 C   0  0  0  0  0  0  0  0  0  0  0  0
  141.4610  159.0030  137.5790 C   0  0  0  0  0  0  0  0  0  0  0  0
  141.4790  157.9200  138.4740 C   0  0  0  0  0  0  0  0  0  0  0  0
  141.0880  156.6310  138.0460 C   0  0  0  0  0  0  0  0  0  0  0  0
  141.0620  155.5380  138.9810 C   0  0  0  0  0  0  0  0  0  0  0  0
  141.0370  154.6160  139.7570 C   0  0  0  0  0  0  0  0  0  0  0  0
  141.0140  153.4860  140.6940 C   0  0  0  0  0  0  0  0  0  0  0  0
  140.4880  152.3270  140.0760 O   0  0  0  0  0  0  0  0  0  0  0  0
  140.5710  152.4010  138.6630 C   0  0  0  0  0  0  0  0  0  0  0  0
  140.8710  151.0520  138.0860 C   0  0  0  0  0  0  0  0  0  0  0  0
  141.4440  150.1760  138.7870 O   0  0  0  0  0  0  0  0  0  0  0  0
  140.5340  150.7670  136.7690 O   0  0  0  0  0  0  0  0  0  0  0  0
  140.7140  156.4090  136.7060 C   0  0  0  0  0  0  0  0  0  0  0  0
  140.7250  157.5030  135.8300 C   0  0  0  0  0  0  0  0  0  0  0  0
  148.6197  157.7688  131.3611 H   0  0  0  0  0  0  0  0  0  0  0  0
  148.1238  159.1768  130.3619 H   0  0  0  0  0  0  0  0  0  0  0  0
  149.8361  158.6340  130.3619 H   0  0  0  0  0  0  0  0  0  0  0  0
  150.1872  159.4016  132.6050 H   0  0  0  0  0  0  0  0  0  0  0  0
  149.2755  160.7201  131.7715 H   0  0  0  0  0  0  0  0  0  0  0  0
  148.2048  158.6343  133.7193 H   0  0  0  0  0  0  0  0  0  0  0  0
  148.2679  160.4461  133.8994 H   0  0  0  0  0  0  0  0  0  0  0  0
  146.7401  160.4800  131.8037 H   0  0  0  0  0  0  0  0  0  0  0  0
  146.4258  158.7361  132.2351 H   0  0  0  0  0  0  0  0  0  0  0  0
  145.9298  159.7366  134.6237 H   0  0  0  0  0  0  0  0  0  0  0  0
  145.6345  161.2588  133.6545 H   0  0  0  0  0  0  0  0  0  0  0  0
  143.5245  160.5117  133.5191 H   0  0  0  0  0  0  0  0  0  0  0  0
  144.2237  159.4080  132.2395 H   0  0  0  0  0  0  0  0  0  0  0  0
  144.6480  157.9813  134.5580 H   0  0  0  0  0  0  0  0  0  0  0  0
  143.0588  158.7594  134.8697 H   0  0  0  0  0  0  0  0  0  0  0  0
  144.4897  156.5672  131.9795 H   0  0  0  0  0  0  0  0  0  0  0  0
  144.8017  156.4108  133.7371 H   0  0  0  0  0  0  0  0  0  0  0  0
  142.7469  155.0005  132.0036 H   0  0  0  0  0  0  0  0  0  0  0  0
  143.8859  154.3267  133.2443 H   0  0  0  0  0  0  0  0  0  0  0  0
  142.0981  154.2534  134.6134 H   0  0  0  0  0  0  0  0  0  0  0  0
  142.2850  156.0394  134.7308 H   0  0  0  0  0  0  0  0  0  0  0  0
  141.7750  158.2440  131.8140 H   0  0  0  0  0  0  0  0  0  0  0  0
  140.8100  159.3010  130.7320 H   0  0  0  0  0  0  0  0  0  0  0  0
  141.0823  160.7128  135.2087 H   0  0  0  0  0  0  0  0  0  0  0  0
  141.7511  160.0130  137.9044 H   0  0  0  0  0  0  0  0  0  0  0  0
  141.7995  158.0764  139.5146 H   0  0  0  0  0  0  0  0  0  0  0  0
  142.0396  153.2789  141.0334 H   0  0  0  0  0  0  0  0  0  0  0  0
  140.3724  153.7506  141.5474 H   0  0  0  0  0  0  0  0  0  0  0  0
  139.6122  152.7616  138.2621 H   0  0  0  0  0  0  0  0  0  0  0  0
  141.3801  153.0941  138.3890 H   0  0  0  0  0  0  0  0  0  0  0  0
  140.4222  155.4072  136.3577 H   0  0  0  0  0  0  0  0  0  0  0  0
  1  2  1  0
  2  3  1  0
  3  4  1  0
  4  5  1  0
  5  6  1  0
  6  7  1  0
  7  8  1  0
  8  9  1  0
  9 10  1  0
 10 11  1  0
 11 12  1  0
 12 13  1  0
 13 14  2  0
 13 15  1  0
 15 16  1  0
 16 17  1  0
 17 18  1  0
 17 19  2  0
 16 20  2  0
 20 21  1  0
 21 22  2  0
 22 23  1  0
 23 24  2  0
 24 25  1  0
 25 26  3  0
 26 27  1  0
 27 28  1  0
 28 29  1  0
 29 30  1  0
 30 31  2  0
 30 32  1  0
 24 33  1  0
 33 34  2  0
 34 15  1  0
 34 21  1  0
  1 35  1  0
  1 36  1  0
  1 37  1  0
  2 38  1  0
  2 39  1  0
  3 40  1  0
  3 41  1  0
  4 42  1  0
  4 43  1  0
  5 44  1  0
  5 45  1  0
  6 46  1  0
  6 47  1  0
  7 48  1  0
  7 49  1  0
  9 50  1  0
  9 51  1  0
 10 52  1  0
 10 53  1  0
 11 54  1  0
 11 55  1  0
 18 56  1  0
 18 57  1  0
 20 58  1  0
 22 59  1  0
 23 60  1  0
 27 61  1  0
 27 62  1  0
 29 63  1  0
 29 64  1  0
 33 65  1  0
M  CHG  2  12  -1  32  -1
M  END
>  <UniqueID>  (90) 
90

>  <SMILES>  (90) 
CCCCCCCOCCC[N-]C(=O)n1c(C(N)=O)cc2ccc(C#CCOCC(=O)[O-])cc21

>  <Energy>  (90) 
80.68330285889382

>  <Genealogy>  (90) 
CCCCCCCOCCC[N-]C(=O)n1c(C(N)=O)cc2ccc(C#CCOCC(=O)[O-])cc21 (protonated)
CCCCCCCOCCC[N-]C(=O)n1c(C(N)=O)cc2ccc(C#CCOCC(=O)[O-])cc21 (3D coordinates assigned)
CCCCCCCOCCC[N-]C(=O)n1c(C(N)=O)cc2ccc(C#CCOCC(=O)[O-])cc21 (optimized conformer: 80.68330285889382 kcal/mol)

>  <smiles>  (90) 
CCCCCCCOCCCNC(=O)n1c(C(N)=O)cc2ccc(C#CCOCC(=O)O)cc21

>  <score_type>  (90) 
oracle

>  <origin>  (90) 
adg

>  <m_score__min__energy>  (90) 
-9.7599999999999998

>  <m_primary>  (90) 
energy

$$$$
90:0
     RDKit          3D

 43 45  0  0  0  0  0  0  0  0999 V2000
  149.6210  159.7700  130.5760 C   0  0  0  0  0  0  0  0  0  0  0  0
  149.5490  159.0250  131.9080 C   0  0  0  0  0  0  0  0  0  0  0  0
  148.6110  159.7020  132.8310 N   0  0  0  0  0  0  0  0  0  0  0  0
  148.4720  158.9590  134.0920 C   0  0  0  0  0  0  0  0  0  0  0  0
  147.3310  157.9690  133.9280 C   0  0  0  0  0  0  0  0  0  0  0  0
  146.4790  158.5340  132.7940 C   0  0  1  0  0  0  0  0  0  0  0  0
  145.0660  158.8810  133.2290 C   0  0  0  0  0  0  0  0  0  0  0  0
  144.7480  160.2160  133.5890 C   0  0  0  0  0  0  0  0  0  0  0  0
  143.4520  160.5580  134.0110 C   0  0  0  0  0  0  0  0  0  0  0  0
  142.4960  159.5490  134.0650 C   0  0  0  0  0  0  0  0  0  0  0  0
  141.1750  159.5980  134.4500 C   0  0  0  0  0  0  0  0  0  0  0  0
  140.7000  158.2940  134.3090 C   0  0  0  0  0  0  0  0  0  0  0  0
  139.2900  157.8980  134.5200 C   0  0  0  0  0  0  0  0  0  0  0  0
  138.5890  157.1360  133.5350 N   0  0  0  0  0  0  0  0  0  0  0  0
  138.7010  158.2070  135.5890 O   0  0  0  0  0  0  0  0  0  0  0  0
  141.6910  157.4730  133.8600 N   0  0  0  0  0  0  0  0  0  0  0  0
  141.6340  156.0550  133.6390 C   0  0  0  0  0  0  0  0  0  0  0  0
  142.7190  155.1530  134.1370 C   0  0  0  0  0  0  0  0  0  0  0  0
  140.6820  155.5620  132.9750 O   0  0  0  0  0  0  0  0  0  0  0  0
  142.7800  158.2570  133.7120 C   0  0  0  0  0  0  0  0  0  0  0  0
  144.0630  157.8830  133.3000 C   0  0  0  0  0  0  0  0  0  0  0  0
  147.2480  159.7560  132.2780 C   0  0  0  0  0  0  0  0  0  0  0  0
  149.7253  160.8487  130.7644 H   0  0  0  0  0  0  0  0  0  0  0  0
  150.4888  159.4124  130.0023 H   0  0  0  0  0  0  0  0  0  0  0  0
  148.7008  159.5852  130.0023 H   0  0  0  0  0  0  0  0  0  0  0  0
  149.2018  157.9966  131.7292 H   0  0  0  0  0  0  0  0  0  0  0  0
  150.5501  159.0137  132.3636 H   0  0  0  0  0  0  0  0  0  0  0  0
  149.4052  158.4203  134.3131 H   0  0  0  0  0  0  0  0  0  0  0  0
  148.2635  159.6496  134.9224 H   0  0  0  0  0  0  0  0  0  0  0  0
  147.7174  156.9739  133.6626 H   0  0  0  0  0  0  0  0  0  0  0  0
  146.7543  157.8451  134.8564 H   0  0  0  0  0  0  0  0  0  0  0  0
  146.3314  157.7848  132.0022 H   0  0  0  0  0  0  0  0  0  0  0  0
  145.5253  160.9926  133.5372 H   0  0  0  0  0  0  0  0  0  0  0  0
  143.2012  161.5920  134.2901 H   0  0  0  0  0  0  0  0  0  0  0  0
  140.6134  160.4785  134.7954 H   0  0  0  0  0  0  0  0  0  0  0  0
  137.6060  156.8300  133.7120 H   0  0  0  0  0  0  0  0  0  0  0  0
  139.0220  156.9100  132.6140 H   0  0  0  0  0  0  0  0  0  0  0  0
  142.7195  155.1526  135.2370 H   0  0  0  0  0  0  0  0  0  0  0  0
  142.5434  154.1310  133.7700 H   0  0  0  0  0  0  0  0  0  0  0  0
  143.6918  155.5123  133.7700 H   0  0  0  0  0  0  0  0  0  0  0  0
  144.2880  156.8388  133.0373 H   0  0  0  0  0  0  0  0  0  0  0  0
  147.2898  159.7341  131.1790 H   0  0  0  0  0  0  0  0  0  0  0  0
  146.7455  160.6835  132.5897 H   0  0  0  0  0  0  0  0  0  0  0  0
  1  2  1  0
  2  3  1  0
  3  4  1  0
  4  5  1  0
  5  6  1  0
  6  7  1  0
  7  8  2  0
  8  9  1  0
  9 10  2  0
 10 11  1  0
 11 12  2  0
 12 13  1  0
 13 14  1  0
 13 15  2  0
 12 16  1  0
 16 17  1  0
 17 18  1  0
 17 19  2  0
 16 20  1  0
 20 21  2  0
  6 22  1  0
 22  3  1  0
 21  7  1  0
 20 10  1  0
  1 23  1  0
  1 24  1  0
  1 25  1  0
  2 26  1  0
  2 27  1  0
  4 28  1  0
  4 29  1  0
  5 30  1  0
  5 31  1  0
  6 32  1  6
  8 33  1  0
  9 34  1  0
 11 35  1  0
 14 36  1  0
 14 37  1  0
 18 38  1  0
 18 39  1  0
 18 40  1  0
 21 41  1  0
 22 42  1  0
 22 43  1  0
M  END
>  <UniqueID>  (91) 
91

>  <SMILES>  (91) 
CCN1CC[C@@H](c2ccc3cc(C(N)=O)n(C(C)=O)c3c2)C1

>  <Energy>  (91) 
85.85877251262208

>  <Genealogy>  (91) 
CCN1CC[C@@H](c2ccc3cc(C(N)=O)n(C(C)=O)c3c2)C1 (3D coordinates assigned)
CCN1CC[C@@H](c2ccc3cc(C(N)=O)n(C(C)=O)c3c2)C1 (nonaromatic ring conformer: 85.85877251262208 kcal/mol)

>  <smiles>  (91) 
CCN1CC[C@@H](c2ccc3cc(C(N)=O)n(C(C)=O)c3c2)C1

>  <score_type>  (91) 
oracle

>  <origin>  (91) 
adg

>  <m_score__min__energy>  (91) 
-7.8499999999999996

>  <m_primary>  (91) 
energy

$$$$
91:0
     RDKit          3D

 41 42  0  0  0  0  0  0  0  0999 V2000
  138.6870  160.4330  131.0520 C   0  0  0  0  0  0  0  0  0  0  0  0
  138.3870  158.9440  131.1810 C   0  0  0  0  0  0  0  0  0  0  0  0
  139.4350  158.2770  131.8810 O   0  0  0  0  0  0  0  0  0  0  0  0
  139.3010  157.7860  133.1850 C   0  0  0  0  0  0  0  0  0  0  0  0
  138.7650  156.6630  133.3930 O   0  0  0  0  0  0  0  0  0  0  0  0
  139.8630  158.5870  134.3280 C   0  0  1  0  0  0  0  0  0  0  0  0
  139.6810  157.8720  135.6730 C   0  0  0  0  0  0  0  0  0  0  0  0
  141.3190  158.9250  134.0750 C   0  0  0  0  0  0  0  0  0  0  0  0
  141.7230  160.2810  133.9850 C   0  0  0  0  0  0  0  0  0  0  0  0
  143.0640  160.6170  133.7370 C   0  0  0  0  0  0  0  0  0  0  0  0
  143.9810  159.5810  133.5950 C   0  0  0  0  0  0  0  0  0  0  0  0
  145.3270  159.6260  133.3160 C   0  0  0  0  0  0  0  0  0  0  0  0
  145.7370  158.2960  133.2710 C   0  0  0  0  0  0  0  0  0  0  0  0
  147.1400  157.8850  133.0540 C   0  0  0  0  0  0  0  0  0  0  0  0
  147.4930  156.9870  132.0020 N   0  0  0  0  0  0  0  0  0  0  0  0
  148.0320  158.2900  133.8470 O   0  0  0  0  0  0  0  0  0  0  0  0
  144.6860  157.4600  133.4990 N   0  0  0  0  0  0  0  0  0  0  0  0
  144.6770  156.0250  133.4240 C   0  0  0  0  0  0  0  0  0  0  0  0
  144.2470  155.3470  134.3990 O   0  0  0  0  0  0  0  0  0  0  0  0
  145.1460  155.3830  132.2750 O   0  0  0  0  0  0  0  0  0  0  0  0
  144.3580  154.4580  131.5360 C   0  0  0  0  0  0  0  0  0  0  0  0
  143.6170  158.2630  133.6980 C   0  0  0  0  0  0  0  0  0  0  0  0
  142.2840  157.9000  133.9220 C   0  0  0  0  0  0  0  0  0  0  0  0
  138.7765  160.8772  132.0543 H   0  0  0  0  0  0  0  0  0  0  0  0
  139.6309  160.5707  130.5043 H   0  0  0  0  0  0  0  0  0  0  0  0
  137.8700  160.9255  130.5043 H   0  0  0  0  0  0  0  0  0  0  0  0
  137.4440  158.8121  131.7318 H   0  0  0  0  0  0  0  0  0  0  0  0
  138.3042  158.5115  130.1730 H   0  0  0  0  0  0  0  0  0  0  0  0
  139.2953  159.5272  134.3884 H   0  0  0  0  0  0  0  0  0  0  0  0
  139.8618  158.5823  136.4933 H   0  0  0  0  0  0  0  0  0  0  0  0
  138.6550  157.4821  135.7451 H   0  0  0  0  0  0  0  0  0  0  0  0
  140.3957  157.0390  135.7451 H   0  0  0  0  0  0  0  0  0  0  0  0
  140.9771  161.0796  134.1109 H   0  0  0  0  0  0  0  0  0  0  0  0
  143.3795  161.6678  133.6575 H   0  0  0  0  0  0  0  0  0  0  0  0
  145.9471  160.5213  133.1614 H   0  0  0  0  0  0  0  0  0  0  0  0
  146.7610  156.5010  131.4390 H   0  0  0  0  0  0  0  0  0  0  0  0
  148.4940  156.7390  131.8390 H   0  0  0  0  0  0  0  0  0  0  0  0
  143.8054  153.8093  132.2316 H   0  0  0  0  0  0  0  0  0  0  0  0
  143.6459  155.0070  130.9024 H   0  0  0  0  0  0  0  0  0  0  0  0
  145.0133  153.8422  130.9024 H   0  0  0  0  0  0  0  0  0  0  0  0
  141.9921  156.8409  133.9780 H   0  0  0  0  0  0  0  0  0  0  0  0
  1  2  1  0
  2  3  1  0
  3  4  1  0
  4  5  2  0
  4  6  1  0
  6  7  1  0
  6  8  1  0
  8  9  2  0
  9 10  1  0
 10 11  2  0
 11 12  1  0
 12 13  2  0
 13 14  1  0
 14 15  1  0
 14 16  2  0
 13 17  1  0
 17 18  1  0
 18 19  2  0
 18 20  1  0
 20 21  1  0
 17 22  1  0
 22 23  2  0
 23  8  1  0
 22 11  1  0
  1 24  1  0
  1 25  1  0
  1 26  1  0
  2 27  1  0
  2 28  1  0
  6 29  1  1
  7 30  1  0
  7 31  1  0
  7 32  1  0
  9 33  1  0
 10 34  1  0
 12 35  1  0
 15 36  1  0
 15 37  1  0
 21 38  1  0
 21 39  1  0
 21 40  1  0
 23 41  1  0
M  END
>  <UniqueID>  (92) 
92

>  <SMILES>  (92) 
CCOC(=O)[C@@H](C)c1ccc2cc(C(N)=O)n(C(=O)OC)c2c1

>  <Energy>  (92) 
72.3781714647435

>  <Genealogy>  (92) 
CCOC(=O)[C@@H](C)c1ccc2cc(C(N)=O)n(C(=O)OC)c2c1 (chirality)
CCOC(=O)[C@@H](C)c1ccc2cc(C(N)=O)n(C(=O)OC)c2c1 (3D coordinates assigned)
CCOC(=O)[C@@H](C)c1ccc2cc(C(N)=O)n(C(=O)OC)c2c1 (optimized conformer: 72.3781714647435 kcal/mol)

>  <smiles>  (92) 
CCOC(=O)C(C)c1ccc2cc(C(N)=O)n(C(=O)OC)c2c1

>  <score_type>  (92) 
oracle

>  <origin>  (92) 
adg

>  <m_score__min__energy>  (92) 
-6.5700000000000003

>  <m_primary>  (92) 
energy

$$$$
92:0
     RDKit          3D

 47 49  0  0  0  0  0  0  0  0999 V2000
  143.3960  159.2220  133.6120 C   0  0  0  0  0  0  0  0  0  0  0  0
  144.5270  159.0050  132.7760 O   0  0  0  0  0  0  0  0  0  0  0  0
  145.8400  159.1840  133.2210 C   0  0  0  0  0  0  0  0  0  0  0  0
  146.1830  160.2660  133.7710 O   0  0  0  0  0  0  0  0  0  0  0  0
  146.8100  158.1400  133.0280 N   0  0  0  0  0  0  0  0  0  0  0  0
  148.0990  158.2670  132.6010 C   0  0  0  0  0  0  0  0  0  0  0  0
  148.7280  159.5050  132.0930 C   0  0  0  0  0  0  0  0  0  0  0  0
  147.9260  160.4950  131.4510 N   0  0  0  0  0  0  0  0  0  0  0  0
  149.9590  159.7150  132.2500 O   0  0  0  0  0  0  0  0  0  0  0  0
  148.7450  157.0330  132.6260 C   0  0  0  0  0  0  0  0  0  0  0  0
  147.8050  156.1380  133.0800 C   0  0  0  0  0  0  0  0  0  0  0  0
  147.9140  154.7710  133.3200 C   0  0  0  0  0  0  0  0  0  0  0  0
  146.7910  154.1000  133.8300 C   0  0  0  0  0  0  0  0  0  0  0  0
  145.5860  154.8010  134.0860 C   0  0  0  0  0  0  0  0  0  0  0  0
  144.4080  154.0810  134.6870 C   0  0  0  0  0  0  0  0  0  0  0  0
  143.5380  153.4370  133.6000 C   0  0  0  0  0  0  0  0  0  0  0  0
  143.6350  152.0310  133.6370 O   0  0  0  0  0  0  0  0  0  0  0  0
  142.8820  151.5570  132.6100 N   0  0  0  0  0  0  0  0  0  0  0  0
  141.2720  151.3570  133.2120 S   0  0  0  0  0  0  0  0  0  0  0  0
  141.3170  150.8830  134.6370 O   0  0  0  0  0  0  0  0  0  0  0  0
  140.5560  152.6780  133.1680 O   0  0  0  0  0  0  0  0  0  0  0  0
  140.4120  150.1830  132.2200 C   0  0  0  0  0  0  0  0  0  0  0  0
  139.0590  150.3770  131.9070 C   0  0  0  0  0  0  0  0  0  0  0  0
  138.3830  149.4510  131.1080 C   0  0  0  0  0  0  0  0  0  0  0  0
  139.0590  148.3320  130.6090 C   0  0  0  0  0  0  0  0  0  0  0  0
  140.4100  148.1400  130.9080 C   0  0  0  0  0  0  0  0  0  0  0  0
  141.0870  149.0640  131.7090 C   0  0  0  0  0  0  0  0  0  0  0  0
  145.5160  156.1900  133.8380 C   0  0  0  0  0  0  0  0  0  0  0  0
  146.6450  156.8300  133.3150 C   0  0  0  0  0  0  0  0  0  0  0  0
  143.7029  159.1631  134.6667 H   0  0  0  0  0  0  0  0  0  0  0  0
  142.9746  160.2174  133.4078 H   0  0  0  0  0  0  0  0  0  0  0  0
  142.6362  158.4533  133.4078 H   0  0  0  0  0  0  0  0  0  0  0  0
  147.0710  160.8780  131.9130 H   0  0  0  0  0  0  0  0  0  0  0  0
  149.7863  156.8198  132.3427 H   0  0  0  0  0  0  0  0  0  0  0  0
  148.8515  154.2329  133.1163 H   0  0  0  0  0  0  0  0  0  0  0  0
  146.8469  153.0203  134.0328 H   0  0  0  0  0  0  0  0  0  0  0  0
  144.7749  153.2961  135.3647 H   0  0  0  0  0  0  0  0  0  0  0  0
  143.7958  154.8120  135.2355 H   0  0  0  0  0  0  0  0  0  0  0  0
  142.4895  153.7288  133.7597 H   0  0  0  0  0  0  0  0  0  0  0  0
  143.8918  153.7852  132.6184 H   0  0  0  0  0  0  0  0  0  0  0  0
  142.8450  152.3120  131.8890 H   0  0  0  0  0  0  0  0  0  0  0  0
  138.5283  151.2605  132.2914 H   0  0  0  0  0  0  0  0  0  0  0  0
  137.3194  149.6017  130.8713 H   0  0  0  0  0  0  0  0  0  0  0  0
  138.5262  147.6030  129.9808 H   0  0  0  0  0  0  0  0  0  0  0  0
  140.9412  147.2614  130.5130 H   0  0  0  0  0  0  0  0  0  0  0  0
  142.1520  148.9135  131.9394 H   0  0  0  0  0  0  0  0  0  0  0  0
  144.5963  156.7547  134.0509 H   0  0  0  0  0  0  0  0  0  0  0  0
  1  2  1  0
  2  3  1  0
  3  4  2  0
  3  5  1  0
  5  6  1  0
  6  7  1  0
  7  8  1  0
  7  9  2  0
  6 10  2  0
 10 11  1  0
 11 12  2  0
 12 13  1  0
 13 14  2  0
 14 15  1  0
 15 16  1  0
 16 17  1  0
 17 18  1  0
 18 19  1  0
 19 20  2  0
 19 21  2  0
 19 22  1  0
 22 23  2  0
 23 24  1  0
 24 25  2  0
 25 26  1  0
 26 27  2  0
 14 28  1  0
 28 29  2  0
 29  5  1  0
 29 11  1  0
 27 22  1  0
  1 30  1  0
  1 31  1  0
  1 32  1  0
  8 33  1  0
 10 34  1  0
 12 35  1  0
 13 36  1  0
 15 37  1  0
 15 38  1  0
 16 39  1  0
 16 40  1  0
 18 41  1  0
 23 42  1  0
 24 43  1  0
 25 44  1  0
 26 45  1  0
 27 46  1  0
 28 47  1  0
M  CHG  1   8  -1
M  END
>  <UniqueID>  (93) 
93

>  <SMILES>  (93) 
COC(=O)n1c(C([NH-])=O)cc2ccc(CCONS(=O)(=O)c3ccccc3)cc21

>  <Energy>  (93) 
80.05334597354694

>  <Genealogy>  (93) 
COC(=O)n1c(C([NH-])=O)cc2ccc(CCONS(=O)(=O)c3ccccc3)cc21 (protonated)
COC(=O)n1c(C([NH-])=O)cc2ccc(CCONS(=O)(=O)c3ccccc3)cc21 (3D coordinates assigned)
COC(=O)n1c(C([NH-])=O)cc2ccc(CCONS(=O)(=O)c3ccccc3)cc21 (optimized conformer: 80.05334597354694 kcal/mol)

>  <smiles>  (93) 
COC(=O)n1c(C(N)=O)cc2ccc(CCONS(=O)(=O)c3ccccc3)cc21

>  <score_type>  (93) 
oracle

>  <origin>  (93) 
adg

>  <m_score__min__energy>  (93) 
-9

>  <m_primary>  (93) 
energy

$$$$
93:0
     RDKit          3D

 46 47  0  0  0  0  0  0  0  0999 V2000
  137.4810  160.0390  130.9390 C   0  0  0  0  0  0  0  0  0  0  0  0
  138.8120  160.1120  131.0230 C   0  0  0  0  0  0  0  0  0  0  0  0
  139.6270  158.9520  131.5090 C   0  0  0  0  0  0  0  0  0  0  0  0
  138.9340  158.2910  132.5630 O   0  0  0  0  0  0  0  0  0  0  0  0
  139.3900  157.1050  133.1420 C   0  0  0  0  0  0  0  0  0  0  0  0
  139.1580  155.9900  132.6000 O   0  0  0  0  0  0  0  0  0  0  0  0
  140.1140  157.1640  134.4480 C   0  0  0  0  0  0  0  0  0  0  0  0
  140.3820  158.6180  134.8410 C   0  0  0  0  0  0  0  0  0  0  0  0
  141.7400  159.0550  134.3620 C   0  0  0  0  0  0  0  0  0  0  0  0
  142.0230  160.4290  134.1570 C   0  0  0  0  0  0  0  0  0  0  0  0
  143.3020  160.8400  133.7450 C   0  0  0  0  0  0  0  0  0  0  0  0
  144.2720  159.8600  133.5490 C   0  0  0  0  0  0  0  0  0  0  0  0
  145.5940  159.9850  133.1890 C   0  0  0  0  0  0  0  0  0  0  0  0
  146.0930  158.6860  133.1670 C   0  0  0  0  0  0  0  0  0  0  0  0
  147.4740  158.3540  132.7620 C   0  0  0  0  0  0  0  0  0  0  0  0
  147.7410  157.2790  131.8610 N   0  0  0  0  0  0  0  0  0  0  0  0
  148.4280  159.0660  133.1760 O   0  0  0  0  0  0  0  0  0  0  0  0
  145.1250  157.7900  133.5130 N   0  0  0  0  0  0  0  0  0  0  0  0
  145.2730  156.3760  133.7270 C   0  0  0  0  0  0  0  0  0  0  0  0
  144.9410  155.8650  134.8320 O   0  0  0  0  0  0  0  0  0  0  0  0
  145.7690  155.5650  132.7010 O   0  0  0  0  0  0  0  0  0  0  0  0
  146.3670  154.2960  132.9380 C   0  0  0  0  0  0  0  0  0  0  0  0
  147.7800  154.4860  133.4000 C   0  0  0  0  0  0  0  0  0  0  0  0
  148.8170  154.1240  132.6380 C   0  0  0  0  0  0  0  0  0  0  0  0
  144.0140  158.5270  133.7390 C   0  0  0  0  0  0  0  0  0  0  0  0
  142.7540  158.0920  134.1700 C   0  0  0  0  0  0  0  0  0  0  0  0
  136.9044  160.9039  130.5792 H   0  0  0  0  0  0  0  0  0  0  0  0
  136.9615  159.1140  131.2296 H   0  0  0  0  0  0  0  0  0  0  0  0
  139.3203  161.0423  130.7295 H   0  0  0  0  0  0  0  0  0  0  0  0
  139.7918  158.2474  130.6805 H   0  0  0  0  0  0  0  0  0  0  0  0
  140.5963  159.3160  131.8803 H   0  0  0  0  0  0  0  0  0  0  0  0
  139.5002  156.6852  135.2252 H   0  0  0  0  0  0  0  0  0  0  0  0
  141.0745  156.6372  134.3489 H   0  0  0  0  0  0  0  0  0  0  0  0
  139.6143  159.2623  134.3877 H   0  0  0  0  0  0  0  0  0  0  0  0
  140.3495  158.7005  135.9374 H   0  0  0  0  0  0  0  0  0  0  0  0
  141.2354  161.1790  134.3217 H   0  0  0  0  0  0  0  0  0  0  0  0
  143.5302  161.9037  133.5822 H   0  0  0  0  0  0  0  0  0  0  0  0
  146.1400  160.9135  132.9661 H   0  0  0  0  0  0  0  0  0  0  0  0
  146.9660  156.7800  131.3740 H   0  0  0  0  0  0  0  0  0  0  0  0
  148.7270  157.0360  131.6120 H   0  0  0  0  0  0  0  0  0  0  0  0
  145.7972  153.7614  133.7123 H   0  0  0  0  0  0  0  0  0  0  0  0
  146.3621  153.7097  132.0073 H   0  0  0  0  0  0  0  0  0  0  0  0
  147.9678  154.9329  134.3874 H   0  0  0  0  0  0  0  0  0  0  0  0
  149.8447  154.2742  133.0004 H   0  0  0  0  0  0  0  0  0  0  0  0
  148.6426  153.6759  131.6486 H   0  0  0  0  0  0  0  0  0  0  0  0
  142.5594  157.0252  134.3544 H   0  0  0  0  0  0  0  0  0  0  0  0
  1  2  2  0
  2  3  1  0
  3  4  1  0
  4  5  1  0
  5  6  2  0
  5  7  1  0
  7  8  1  0
  8  9  1  0
  9 10  2  0
 10 11  1  0
 11 12  2  0
 12 13  1  0
 13 14  2  0
 14 15  1  0
 15 16  1  0
 15 17  2  0
 14 18  1  0
 18 19  1  0
 19 20  2  0
 19 21  1  0
 21 22  1  0
 22 23  1  0
 23 24  2  0
 18 25  1  0
 25 26  2  0
 26  9  1  0
 25 12  1  0
  1 27  1  0
  1 28  1  0
  2 29  1  0
  3 30  1  0
  3 31  1  0
  7 32  1  0
  7 33  1  0
  8 34  1  0
  8 35  1  0
 10 36  1  0
 11 37  1  0
 13 38  1  0
 16 39  1  0
 16 40  1  0
 22 41  1  0
 22 42  1  0
 23 43  1  0
 24 44  1  0
 24 45  1  0
 26 46  1  0
M  END
>  <UniqueID>  (94) 
94

>  <SMILES>  (94) 
C=CCOC(=O)CCc1ccc2cc(C(N)=O)n(C(=O)OCC=C)c2c1

>  <Energy>  (94) 
69.64352709408963

>  <Genealogy>  (94) 
C=CCOC(=O)CCc1ccc2cc(C(N)=O)n(C(=O)OCC=C)c2c1 (3D coordinates assigned)
C=CCOC(=O)CCc1ccc2cc(C(N)=O)n(C(=O)OCC=C)c2c1 (optimized conformer: 69.64352709408963 kcal/mol)

>  <smiles>  (94) 
C=CCOC(=O)CCc1ccc2cc(C(N)=O)n(C(=O)OCC=C)c2c1

>  <score_type>  (94) 
oracle

>  <origin>  (94) 
adg

>  <m_score__min__energy>  (94) 
-8

>  <m_primary>  (94) 
energy

$$$$
94:0
     RDKit          3D

 43 45  0  0  0  0  0  0  0  0999 V2000
  149.3240  157.4130  132.6980 N   0  0  0  0  0  0  0  0  0  0  0  0
  148.2120  157.3850  133.5940 C   0  0  0  0  0  0  0  0  0  0  0  0
  148.1780  158.1980  134.5550 O   0  0  0  0  0  0  0  0  0  0  0  0
  147.0920  156.4420  133.3800 C   0  0  0  0  0  0  0  0  0  0  0  0
  145.7500  156.8190  133.3790 C   0  0  0  0  0  0  0  0  0  0  0  0
  145.0420  155.6480  133.2490 C   0  0  0  0  0  0  0  0  0  0  0  0
  143.6670  155.4370  133.1830 C   0  0  0  0  0  0  0  0  0  0  0  0
  143.2100  154.1180  133.0210 C   0  0  0  0  0  0  0  0  0  0  0  0
  144.1300  153.0490  132.9230 C   0  0  0  0  0  0  0  0  0  0  0  0
  143.6500  151.7050  132.7450 C   0  0  0  0  0  0  0  0  0  0  0  0
  143.2450  150.5790  132.5980 C   0  0  0  0  0  0  0  0  0  0  0  0
  142.7460  149.2100  132.4190 C   0  0  0  0  0  0  0  0  0  0  0  0
  141.5580  149.2060  131.5420 N   0  0  0  0  0  0  0  0  0  0  0  0
  140.7180  148.0090  131.7910 C   0  0  0  0  0  0  0  0  0  0  0  0
  139.5300  147.8630  130.8180 C   0  0  0  0  0  0  0  0  0  0  0  0
  138.2620  148.6040  131.2950 C   0  0  0  0  0  0  0  0  0  0  0  0
  138.4200  150.0080  131.2110 O   0  0  0  0  0  0  0  0  0  0  0  0
  139.4100  150.4760  132.1100 C   0  0  0  0  0  0  0  0  0  0  0  0
  140.8510  150.5120  131.5360 C   0  0  0  0  0  0  0  0  0  0  0  0
  145.5170  153.2950  132.9930 C   0  0  0  0  0  0  0  0  0  0  0  0
  145.9430  154.6170  133.1720 C   0  0  0  0  0  0  0  0  0  0  0  0
  147.2080  155.0890  133.2520 N   0  0  0  0  0  0  0  0  0  0  0  0
  148.4210  154.3240  133.1400 C   0  0  0  0  0  0  0  0  0  0  0  0
  148.5330  153.2190  133.7340 O   0  0  0  0  0  0  0  0  0  0  0  0
  149.4740  154.7870  132.3620 O   0  0  0  0  0  0  0  0  0  0  0  0
  150.0890  158.1100  132.8340 H   0  0  0  0  0  0  0  0  0  0  0  0
  149.4130  156.7200  131.9220 H   0  0  0  0  0  0  0  0  0  0  0  0
  145.3437  157.8377  133.4642 H   0  0  0  0  0  0  0  0  0  0  0  0
  142.9604  156.2769  133.2555 H   0  0  0  0  0  0  0  0  0  0  0  0
  142.1299  153.9161  132.9701 H   0  0  0  0  0  0  0  0  0  0  0  0
  143.5348  148.5933  131.9636 H   0  0  0  0  0  0  0  0  0  0  0  0
  142.4661  148.8009  133.4010 H   0  0  0  0  0  0  0  0  0  0  0  0
  141.3529  147.1155  131.6983 H   0  0  0  0  0  0  0  0  0  0  0  0
  140.2920  148.1231  132.7987 H   0  0  0  0  0  0  0  0  0  0  0  0
  139.8264  148.2701  129.8400 H   0  0  0  0  0  0  0  0  0  0  0  0
  139.2825  146.7927  130.7606 H   0  0  0  0  0  0  0  0  0  0  0  0
  137.4127  148.3014  130.6648 H   0  0  0  0  0  0  0  0  0  0  0  0
  138.0823  148.3390  132.3474 H   0  0  0  0  0  0  0  0  0  0  0  0
  139.1385  151.4973  132.4154 H   0  0  0  0  0  0  0  0  0  0  0  0
  139.4293  149.7614  132.9460 H   0  0  0  0  0  0  0  0  0  0  0  0
  140.7961  150.8663  130.4961 H   0  0  0  0  0  0  0  0  0  0  0  0
  141.4287  151.1792  132.1927 H   0  0  0  0  0  0  0  0  0  0  0  0
  146.2428  152.4727  132.9094 H   0  0  0  0  0  0  0  0  0  0  0  0
  1  2  1  0
  2  3  2  0
  2  4  1  0
  4  5  2  0
  5  6  1  0
  6  7  2  0
  7  8  1  0
  8  9  2  0
  9 10  1  0
 10 11  3  0
 11 12  1  0
 12 13  1  0
 13 14  1  0
 14 15  1  0
 15 16  1  0
 16 17  1  0
 17 18  1  0
 18 19  1  0
  9 20  1  0
 20 21  2  0
 21 22  1  0
 22 23  1  0
 23 24  2  0
 23 25  1  0
 22  4  1  0
 21  6  1  0
 19 13  1  0
  1 26  1  0
  1 27  1  0
  5 28  1  0
  7 29  1  0
  8 30  1  0
 12 31  1  0
 12 32  1  0
 14 33  1  0
 14 34  1  0
 15 35  1  0
 15 36  1  0
 16 37  1  0
 16 38  1  0
 18 39  1  0
 18 40  1  0
 19 41  1  0
 19 42  1  0
 20 43  1  0
M  CHG  1  25  -1
M  END
>  <UniqueID>  (95) 
95

>  <SMILES>  (95) 
NC(=O)c1cc2ccc(C#CCN3CCCOCC3)cc2n1C(=O)[O-]

>  <Energy>  (95) 
97.22536139855413

>  <Genealogy>  (95) 
NC(=O)c1cc2ccc(C#CCN3CCCOCC3)cc2n1C(=O)[O-] (protonated)
NC(=O)c1cc2ccc(C#CCN3CCCOCC3)cc2n1C(=O)[O-] (3D coordinates assigned)
NC(=O)c1cc2ccc(C#CCN3CCCOCC3)cc2n1C(=O)[O-] (nonaromatic ring conformer: 97.22536139855413 kcal/mol)

>  <smiles>  (95) 
NC(=O)c1cc2ccc(C#CCN3CCCOCC3)cc2n1C(=O)O

>  <score_type>  (95) 
oracle

>  <origin>  (95) 
adg

>  <m_score__min__energy>  (95) 
-6.1100000000000003

>  <m_primary>  (95) 
energy

$$$$
95:0
     RDKit          3D

 32 33  0  0  0  0  0  0  0  0999 V2000
  145.5200  160.4730  132.8980 N   0  0  0  0  0  0  0  0  0  0  0  0
  144.9250  159.3120  133.4780 C   0  0  0  0  0  0  0  0  0  0  0  0
  143.8160  159.4170  134.0660 O   0  0  0  0  0  0  0  0  0  0  0  0
  145.5590  157.9820  133.3590 C   0  0  0  0  0  0  0  0  0  0  0  0
  144.8840  156.7860  133.5920 C   0  0  0  0  0  0  0  0  0  0  0  0
  145.8110  155.7960  133.3620 C   0  0  0  0  0  0  0  0  0  0  0  0
  145.6850  154.4140  133.4630 C   0  0  0  0  0  0  0  0  0  0  0  0
  146.8220  153.6290  133.2100 C   0  0  0  0  0  0  0  0  0  0  0  0
  148.0660  154.2340  132.8940 C   0  0  0  0  0  0  0  0  0  0  0  0
  149.2720  153.3800  132.5930 C   0  0  0  0  0  0  0  0  0  0  0  0
  149.0240  152.5470  131.5160 F   0  0  0  0  0  0  0  0  0  0  0  0
  150.3670  154.1690  132.2880 F   0  0  0  0  0  0  0  0  0  0  0  0
  149.5680  152.6070  133.7010 F   0  0  0  0  0  0  0  0  0  0  0  0
  148.1470  155.6410  132.7820 C   0  0  0  0  0  0  0  0  0  0  0  0
  146.9920  156.3980  133.0130 C   0  0  0  0  0  0  0  0  0  0  0  0
  146.8510  157.7430  132.9990 N   0  0  0  0  0  0  0  0  0  0  0  0
  147.8870  158.7210  132.8070 C   0  0  0  0  0  0  0  0  0  0  0  0
  147.9370  159.7280  133.5630 O   0  0  0  0  0  0  0  0  0  0  0  0
  148.8370  158.6170  131.6450 C   0  0  0  0  0  0  0  0  0  0  0  0
  148.9850  159.9450  130.8990 C   0  0  0  0  0  0  0  0  0  0  0  0
  147.7800  160.6600  130.9440 O   0  0  0  0  0  0  0  0  0  0  0  0
  145.0850  161.4110  133.0430 H   0  0  0  0  0  0  0  0  0  0  0  0
  146.3290  160.3970  132.2440 H   0  0  0  0  0  0  0  0  0  0  0  0
  143.8341  156.6601  133.8951 H   0  0  0  0  0  0  0  0  0  0  0  0
  144.7246  153.9505  133.7327 H   0  0  0  0  0  0  0  0  0  0  0  0
  146.7472  152.5326  133.2574 H   0  0  0  0  0  0  0  0  0  0  0  0
  149.0965  156.1302  132.5192 H   0  0  0  0  0  0  0  0  0  0  0  0
  149.8241  158.3098  132.0208 H   0  0  0  0  0  0  0  0  0  0  0  0
  148.4291  157.8773  130.9404 H   0  0  0  0  0  0  0  0  0  0  0  0
  149.7796  160.5411  131.3716 H   0  0  0  0  0  0  0  0  0  0  0  0
  149.2437  159.7413  129.8494 H   0  0  0  0  0  0  0  0  0  0  0  0
  147.7350  161.0640  131.8500 H   0  0  0  0  0  0  0  0  0  0  0  0
  1  2  1  0
  2  3  2  0
  2  4  1  0
  4  5  2  0
  5  6  1  0
  6  7  2  0
  7  8  1  0
  8  9  2  0
  9 10  1  0
 10 11  1  0
 10 12  1  0
 10 13  1  0
  9 14  1  0
 14 15  2  0
 15 16  1  0
 16 17  1  0
 17 18  2  0
 17 19  1  0
 19 20  1  0
 20 21  1  0
 16  4  1  0
 15  6  1  0
  1 22  1  0
  1 23  1  0
  5 24  1  0
  7 25  1  0
  8 26  1  0
 14 27  1  0
 19 28  1  0
 19 29  1  0
 20 30  1  0
 20 31  1  0
 21 32  1  0
M  END
>  <UniqueID>  (96) 
96

>  <SMILES>  (96) 
NC(=O)c1cc2ccc(C(F)(F)F)cc2n1C(=O)CCO

>  <Energy>  (96) 
70.8030142103017

>  <Genealogy>  (96) 
NC(=O)c1cc2ccc(C(F)(F)F)cc2n1C(=O)CCO (3D coordinates assigned)
NC(=O)c1cc2ccc(C(F)(F)F)cc2n1C(=O)CCO (optimized conformer: 70.8030142103017 kcal/mol)

>  <smiles>  (96) 
NC(=O)c1cc2ccc(C(F)(F)F)cc2n1C(=O)CCO

>  <score_type>  (96) 
oracle

>  <origin>  (96) 
adg

>  <m_score__min__energy>  (96) 
-5.8200000000000003

>  <m_primary>  (96) 
energy

$$$$
96:0
     RDKit          3D

 36 37  0  0  0  0  0  0  0  0999 V2000
  148.7840  153.7190  132.6160 C   0  0  0  0  0  0  0  0  0  0  0  0
  148.4670  154.8780  132.7120 C   0  0  0  0  0  0  0  0  0  0  0  0
  148.0890  156.2620  132.8280 C   0  0  0  0  0  0  0  0  0  0  0  0
  149.0470  157.2760  132.6010 C   0  0  0  0  0  0  0  0  0  0  0  0
  148.6860  158.6310  132.6990 C   0  0  0  0  0  0  0  0  0  0  0  0
  147.3680  158.9320  133.0310 C   0  0  0  0  0  0  0  0  0  0  0  0
  146.7460  160.1520  133.1700 C   0  0  0  0  0  0  0  0  0  0  0  0
  145.4250  159.8590  133.5000 C   0  0  0  0  0  0  0  0  0  0  0  0
  144.4180  160.8920  133.8260 C   0  0  0  0  0  0  0  0  0  0  0  0
  143.0770  160.7450  133.3630 N   0  0  0  0  0  0  0  0  0  0  0  0
  144.7360  161.9200  134.4780 O   0  0  0  0  0  0  0  0  0  0  0  0
  145.2350  158.5100  133.5570 N   0  0  0  0  0  0  0  0  0  0  0  0
  144.0140  157.7980  133.8090 C   0  0  0  0  0  0  0  0  0  0  0  0
  143.9330  157.0290  134.8050 O   0  0  0  0  0  0  0  0  0  0  0  0
  142.9180  157.9890  132.9550 O   0  0  0  0  0  0  0  0  0  0  0  0
  141.5330  157.9830  133.3320 C   0  0  0  0  0  0  0  0  0  0  0  0
  141.3490  158.5910  134.7350 C   0  0  0  0  0  0  0  0  0  0  0  0
  141.0800  156.5150  133.3630 C   0  0  0  0  0  0  0  0  0  0  0  0
  140.6860  158.7430  132.2930 C   0  0  0  0  0  0  0  0  0  0  0  0
  146.4330  157.9570  133.2700 C   0  0  0  0  0  0  0  0  0  0  0  0
  146.7610  156.6000  133.1620 C   0  0  0  0  0  0  0  0  0  0  0  0
  149.0733  152.6613  132.5284 H   0  0  0  0  0  0  0  0  0  0  0  0
  150.0817  157.0031  132.3460 H   0  0  0  0  0  0  0  0  0  0  0  0
  149.4219  159.4285  132.5190 H   0  0  0  0  0  0  0  0  0  0  0  0
  147.1969  161.1477  133.0466 H   0  0  0  0  0  0  0  0  0  0  0  0
  142.8510  160.1080  132.5670 H   0  0  0  0  0  0  0  0  0  0  0  0
  141.5789  157.8315  135.4968 H   0  0  0  0  0  0  0  0  0  0  0  0
  142.0280  159.4480  134.8551 H   0  0  0  0  0  0  0  0  0  0  0  0
  140.3087  158.9277  134.8551 H   0  0  0  0  0  0  0  0  0  0  0  0
  140.9781  156.1847  134.4073 H   0  0  0  0  0  0  0  0  0  0  0  0
  140.1106  156.4195  132.8520 H   0  0  0  0  0  0  0  0  0  0  0  0
  141.8270  155.8899  132.8520 H   0  0  0  0  0  0  0  0  0  0  0  0
  139.9640  159.3908  132.8117 H   0  0  0  0  0  0  0  0  0  0  0  0
  141.3445  159.3588  131.6628 H   0  0  0  0  0  0  0  0  0  0  0  0
  140.1449  158.0218  131.6628 H   0  0  0  0  0  0  0  0  0  0  0  0
  146.0046  155.8199  133.3328 H   0  0  0  0  0  0  0  0  0  0  0  0
  1  2  3  0
  2  3  1  0
  3  4  2  0
  4  5  1  0
  5  6  2  0
  6  7  1  0
  7  8  2  0
  8  9  1  0
  9 10  1  0
  9 11  2  0
  8 12  1  0
 12 13  1  0
 13 14  2  0
 13 15  1  0
 15 16  1  0
 16 17  1  0
 16 18  1  0
 16 19  1  0
 12 20  1  0
 20 21  2  0
 21  3  1  0
 20  6  1  0
  1 22  1  0
  4 23  1  0
  5 24  1  0
  7 25  1  0
 10 26  1  0
 17 27  1  0
 17 28  1  0
 17 29  1  0
 18 30  1  0
 18 31  1  0
 18 32  1  0
 19 33  1  0
 19 34  1  0
 19 35  1  0
 21 36  1  0
M  CHG  1  10  -1
M  END
>  <UniqueID>  (97) 
97

>  <SMILES>  (97) 
C#Cc1ccc2cc(C([NH-])=O)n(C(=O)OC(C)(C)C)c2c1

>  <Energy>  (97) 
68.11993515645256

>  <Genealogy>  (97) 
C#Cc1ccc2cc(C([NH-])=O)n(C(=O)OC(C)(C)C)c2c1 (protonated)
C#Cc1ccc2cc(C([NH-])=O)n(C(=O)OC(C)(C)C)c2c1 (3D coordinates assigned)
C#Cc1ccc2cc(C([NH-])=O)n(C(=O)OC(C)(C)C)c2c1 (optimized conformer: 68.11993515645256 kcal/mol)

>  <smiles>  (97) 
C#Cc1ccc2cc(C(N)=O)n(C(=O)OC(C)(C)C)c2c1

>  <score_type>  (97) 
oracle

>  <origin>  (97) 
adg

>  <m_score__min__energy>  (97) 
-7.0599999999999996

>  <m_primary>  (97) 
energy

$$$$
