0:0
     RDKit          3D

 34 35  0  0  0  0  0  0  0  0999 V2000
  144.2170  153.3740  135.5220 N   0  0  0  0  0  0  0  0  0  0  0  0
  143.2160  153.8870  136.3980 C   0  0  0  0  0  0  0  0  0  0  0  0
  143.1750  153.4820  137.5890 O   0  0  0  0  0  0  0  0  0  0  0  0
  142.2360  154.8750  135.8980 C   0  0  0  0  0  0  0  0  0  0  0  0
  141.7550  155.9400  136.6570 C   0  0  0  0  0  0  0  0  0  0  0  0
  140.8990  156.6250  135.8230 C   0  0  0  0  0  0  0  0  0  0  0  0
  140.1260  157.7560  136.0650 C   0  0  0  0  0  0  0  0  0  0  0  0
  139.3030  158.2270  135.0280 C   0  0  0  0  0  0  0  0  0  0  0  0
  139.2600  157.5580  133.7730 C   0  0  0  0  0  0  0  0  0  0  0  0
  138.4150  158.0140  132.6990 N   0  0  0  0  0  0  0  0  0  0  0  0
  138.8250  158.9730  131.6720 C   0  0  0  0  0  0  0  0  0  0  0  0
  137.6320  159.4850  130.9280 C   0  0  0  0  0  0  0  0  0  0  0  0
  136.4930  158.9920  131.1410 O   0  0  0  0  0  0  0  0  0  0  0  0
  137.7820  160.4860  129.9770 O   0  0  0  0  0  0  0  0  0  0  0  0
  140.0590  156.4100  133.5730 C   0  0  0  0  0  0  0  0  0  0  0  0
  140.8830  155.9790  134.6160 C   0  0  0  0  0  0  0  0  0  0  0  0
  141.7050  154.9060  134.6440 N   0  0  0  0  0  0  0  0  0  0  0  0
  141.9330  153.9820  133.5700 C   0  0  0  0  0  0  0  0  0  0  0  0
  142.9690  154.0900  132.8620 O   0  0  0  0  0  0  0  0  0  0  0  0
  140.9220  152.9230  133.2470 C   0  0  0  0  0  0  0  0  0  0  0  0
  141.5500  151.2890  133.7310 P   0  0  0  0  0  0  0  0  0  0  0  0
  143.0620  151.3010  133.7390 O   0  0  0  0  0  0  0  0  0  0  0  0
  141.0010  150.1230  132.6350 O   0  0  0  0  0  0  0  0  0  0  0  0
  140.9850  150.9110  135.2790 O   0  0  0  0  0  0  0  0  0  0  0  0
  143.9850  153.1100  134.5380 H   0  0  0  0  0  0  0  0  0  0  0  0
  142.0056  156.1822  137.7003 H   0  0  0  0  0  0  0  0  0  0  0  0
  140.1581  158.2663  137.0389 H   0  0  0  0  0  0  0  0  0  0  0  0
  138.6851  159.1229  135.1883 H   0  0  0  0  0  0  0  0  0  0  0  0
  137.4410  157.6390  132.6360 H   0  0  0  0  0  0  0  0  0  0  0  0
  139.3428  159.8171  132.1508 H   0  0  0  0  0  0  0  0  0  0  0  0
  139.4978  158.4691  130.9625 H   0  0  0  0  0  0  0  0  0  0  0  0
  140.0330  155.8671  132.6166 H   0  0  0  0  0  0  0  0  0  0  0  0
  139.9904  153.1309  133.7938 H   0  0  0  0  0  0  0  0  0  0  0  0
  140.7303  152.9278  132.1638 H   0  0  0  0  0  0  0  0  0  0  0  0
  1  2  1  0
  2  3  2  0
  2  4  1  0
  4  5  2  0
  5  6  1  0
  6  7  2  0
  7  8  1  0
  8  9  2  0
  9 10  1  0
 10 11  1  0
 11 12  1  0
 12 13  2  0
 12 14  1  0
  9 15  1  0
 15 16  2  0
 16 17  1  0
 17 18  1  0
 18 19  2  0
 18 20  1  0
 20 21  1  0
 21 22  2  0
 21 23  1  0
 21 24  1  0
 17  4  1  0
 16  6  1  0
  1 25  1  0
  5 26  1  0
  7 27  1  0
  8 28  1  0
 10 29  1  0
 11 30  1  0
 11 31  1  0
 15 32  1  0
 20 33  1  0
 20 34  1  0
M  CHG  4   1  -1  14  -1  23  -1  24  -1
M  END
>  <UniqueID>  (1) 
1

>  <SMILES>  (1) 
[NH-]C(=O)c1cc2ccc(NCC(=O)[O-])cc2n1C(=O)CP(=O)([O-])[O-]

>  <Energy>  (1) 
67.37936476873598

>  <Genealogy>  (1) 
[NH-]C(=O)c1cc2ccc(NCC(=O)[O-])cc2n1C(=O)CP(=O)([O-])[O-] (protonated)
[NH-]C(=O)c1cc2ccc(NCC(=O)[O-])cc2n1C(=O)CP(=O)([O-])[O-] (3D coordinates assigned)
[NH-]C(=O)c1cc2ccc(NCC(=O)[O-])cc2n1C(=O)CP(=O)([O-])[O-] (optimized conformer: 67.37936476873598 kcal/mol)

>  <smiles>  (1) 
NC(=O)c1cc2ccc(NCC(=O)O)cc2n1C(=O)CP(=O)(O)O

>  <score_type>  (1) 
oracle

>  <origin>  (1) 
adg

>  <m_score__min__energy>  (1) 
-6.4100000000000001

>  <m_primary>  (1) 
energy

$$$$
1:0
     RDKit          3D

 41 42  0  0  0  0  0  0  0  0999 V2000
  149.1180  160.4020  129.0520 N   0  0  0  0  0  0  0  0  0  0  0  0
  149.4950  160.2120  130.1280 C   0  0  0  0  0  0  0  0  0  0  0  0
  149.9750  159.9730  131.4940 C   0  0  0  0  0  0  0  0  0  0  0  0
  148.9910  159.1160  132.2400 C   0  0  0  0  0  0  0  0  0  0  0  0
  147.8590  159.7070  132.8540 C   0  0  0  0  0  0  0  0  0  0  0  0
  146.9110  158.9120  133.5200 C   0  0  0  0  0  0  0  0  0  0  0  0
  147.1220  157.5370  133.5570 C   0  0  0  0  0  0  0  0  0  0  0  0
  146.3450  156.5400  134.1000 C   0  0  0  0  0  0  0  0  0  0  0  0
  147.0260  155.3570  133.8300 C   0  0  0  0  0  0  0  0  0  0  0  0
  146.5660  154.0340  134.2980 C   0  0  0  0  0  0  0  0  0  0  0  0
  146.2780  152.9850  133.3740 N   0  0  0  0  0  0  0  0  0  0  0  0
  146.4820  153.8100  135.5340 O   0  0  0  0  0  0  0  0  0  0  0  0
  148.1710  155.6050  133.1340 N   0  0  0  0  0  0  0  0  0  0  0  0
  149.0810  154.6410  132.5730 C   0  0  0  0  0  0  0  0  0  0  0  0
  150.2530  154.9900  132.2630 O   0  0  0  0  0  0  0  0  0  0  0  0
  148.6690  153.3160  132.3940 O   0  0  0  0  0  0  0  0  0  0  0  0
  149.4640  152.3180  131.7560 C   0  0  0  0  0  0  0  0  0  0  0  0
  150.0550  151.3490  132.7760 C   0  0  0  0  0  0  0  0  0  0  0  0
  149.0530  150.9210  133.6750 O   0  0  0  0  0  0  0  0  0  0  0  0
  148.6380  149.6150  133.3320 C   0  0  0  0  0  0  0  0  0  0  0  0
  147.5720  149.6850  132.2450 C   0  0  0  0  0  0  0  0  0  0  0  0
  147.0090  150.9660  132.2150 O   0  0  0  0  0  0  0  0  0  0  0  0
  148.2180  156.9480  132.9770 C   0  0  0  0  0  0  0  0  0  0  0  0
  149.1650  157.7150  132.2860 C   0  0  0  0  0  0  0  0  0  0  0  0
  150.9478  159.4610  131.4543 H   0  0  0  0  0  0  0  0  0  0  0  0
  150.0826  160.9366  132.0136 H   0  0  0  0  0  0  0  0  0  0  0  0
  147.7212  160.7974  132.8089 H   0  0  0  0  0  0  0  0  0  0  0  0
  146.0287  159.3629  133.9977 H   0  0  0  0  0  0  0  0  0  0  0  0
  145.3898  156.6537  134.6335 H   0  0  0  0  0  0  0  0  0  0  0  0
  145.9110  152.0700  133.7160 H   0  0  0  0  0  0  0  0  0  0  0  0
  146.5050  153.0880  132.3610 H   0  0  0  0  0  0  0  0  0  0  0  0
  148.8356  151.7561  131.0493 H   0  0  0  0  0  0  0  0  0  0  0  0
  150.2908  152.8157  131.2282 H   0  0  0  0  0  0  0  0  0  0  0  0
  150.4698  150.4760  132.2508 H   0  0  0  0  0  0  0  0  0  0  0  0
  150.8503  151.8593  133.3391 H   0  0  0  0  0  0  0  0  0  0  0  0
  149.5011  149.0423  132.9617 H   0  0  0  0  0  0  0  0  0  0  0  0
  148.2206  149.1196  134.2210 H   0  0  0  0  0  0  0  0  0  0  0  0
  148.0301  149.4645  131.2695 H   0  0  0  0  0  0  0  0  0  0  0  0
  146.7849  148.9473  132.4601 H   0  0  0  0  0  0  0  0  0  0  0  0
  147.4770  151.4890  132.9160 H   0  0  0  0  0  0  0  0  0  0  0  0
  150.0236  157.2376  131.7911 H   0  0  0  0  0  0  0  0  0  0  0  0
  1  2  3  0
  2  3  1  0
  3  4  1  0
  4  5  2  0
  5  6  1  0
  6  7  2  0
  7  8  1  0
  8  9  2  0
  9 10  1  0
 10 11  1  0
 10 12  2  0
  9 13  1  0
 13 14  1  0
 14 15  2  0
 14 16  1  0
 16 17  1  0
 17 18  1  0
 18 19  1  0
 19 20  1  0
 20 21  1  0
 21 22  1  0
 13 23  1  0
 23 24  2  0
 24  4  1  0
 23  7  1  0
  3 25  1  0
  3 26  1  0
  5 27  1  0
  6 28  1  0
  8 29  1  0
 11 30  1  0
 11 31  1  0
 17 32  1  0
 17 33  1  0
 18 34  1  0
 18 35  1  0
 20 36  1  0
 20 37  1  0
 21 38  1  0
 21 39  1  0
 22 40  1  0
 24 41  1  0
M  END
>  <UniqueID>  (2) 
2

>  <SMILES>  (2) 
N#CCc1ccc2cc(C(N)=O)n(C(=O)OCCOCCO)c2c1

>  <Energy>  (2) 
72.87247371016866

>  <Genealogy>  (2) 
N#CCc1ccc2cc(C(N)=O)n(C(=O)OCCOCCO)c2c1 (3D coordinates assigned)
N#CCc1ccc2cc(C(N)=O)n(C(=O)OCCOCCO)c2c1 (optimized conformer: 72.87247371016866 kcal/mol)

>  <smiles>  (2) 
N#CCc1ccc2cc(C(N)=O)n(C(=O)OCCOCCO)c2c1

>  <score_type>  (2) 
oracle

>  <origin>  (2) 
adg

>  <m_score__min__energy>  (2) 
-6.2300000000000004

>  <m_primary>  (2) 
energy

$$$$
2:0
     RDKit          3D

 36 37  0  0  0  0  0  0  0  0999 V2000
  144.6780  160.8820  134.0550 C   0  0  0  0  0  0  0  0  0  0  0  0
  144.5090  159.4750  133.6730 N   0  0  0  0  0  0  0  0  0  0  0  0
  143.1440  158.9410  133.5490 C   0  0  0  0  0  0  0  0  0  0  0  0
  142.1430  159.8990  134.1200 C   0  0  0  0  0  0  0  0  0  0  0  0
  141.6930  160.8410  133.4170 O   0  0  0  0  0  0  0  0  0  0  0  0
  141.7330  159.7710  135.4400 O   0  0  0  0  0  0  0  0  0  0  0  0
  145.6700  158.6480  133.3950 C   0  0  0  0  0  0  0  0  0  0  0  0
  146.8930  159.2400  132.9680 C   0  0  0  0  0  0  0  0  0  0  0  0
  148.0250  158.4520  132.7010 C   0  0  0  0  0  0  0  0  0  0  0  0
  147.9160  157.0770  132.8610 C   0  0  0  0  0  0  0  0  0  0  0  0
  148.8550  156.0840  132.6840 C   0  0  0  0  0  0  0  0  0  0  0  0
  148.1960  154.8930  132.9860 C   0  0  0  0  0  0  0  0  0  0  0  0
  148.7960  153.5470  132.8460 C   0  0  0  0  0  0  0  0  0  0  0  0
  148.1170  152.3880  133.3360 N   0  0  0  0  0  0  0  0  0  0  0  0
  149.9280  153.4130  132.3100 O   0  0  0  0  0  0  0  0  0  0  0  0
  146.9040  155.1450  133.3390 N   0  0  0  0  0  0  0  0  0  0  0  0
  145.9060  154.2060  133.7690 C   0  0  0  0  0  0  0  0  0  0  0  0
  145.8260  153.8920  134.9860 O   0  0  0  0  0  0  0  0  0  0  0  0
  145.0120  153.5300  132.7730 C   0  0  0  0  0  0  0  0  0  0  0  0
  145.1420  152.1390  132.8780 O   0  0  0  0  0  0  0  0  0  0  0  0
  146.7490  156.4840  133.2550 C   0  0  0  0  0  0  0  0  0  0  0  0
  145.6090  157.2390  133.5420 C   0  0  0  0  0  0  0  0  0  0  0  0
  144.6880  160.9655  135.1518 H   0  0  0  0  0  0  0  0  0  0  0  0
  145.6280  161.2604  133.6497 H   0  0  0  0  0  0  0  0  0  0  0  0
  143.8446  161.4746  133.6497 H   0  0  0  0  0  0  0  0  0  0  0  0
  142.9174  158.7742  132.4856 H   0  0  0  0  0  0  0  0  0  0  0  0
  143.0839  157.9948  134.1067 H   0  0  0  0  0  0  0  0  0  0  0  0
  146.9522  160.3315  132.8453 H   0  0  0  0  0  0  0  0  0  0  0  0
  148.9700  158.9108  132.3748 H   0  0  0  0  0  0  0  0  0  0  0  0
  149.9025  156.2053  132.3708 H   0  0  0  0  0  0  0  0  0  0  0  0
  147.1530  152.4470  133.7290 H   0  0  0  0  0  0  0  0  0  0  0  0
  148.5680  151.4500  133.2620 H   0  0  0  0  0  0  0  0  0  0  0  0
  143.9676  153.8140  132.9695 H   0  0  0  0  0  0  0  0  0  0  0  0
  145.2998  153.8437  131.7587 H   0  0  0  0  0  0  0  0  0  0  0  0
  145.6240  151.9640  133.7290 H   0  0  0  0  0  0  0  0  0  0  0  0
  144.6820  156.7498  133.8756 H   0  0  0  0  0  0  0  0  0  0  0  0
  1  2  1  0
  2  3  1  0
  3  4  1  0
  4  5  2  0
  4  6  1  0
  2  7  1  0
  7  8  2  0
  8  9  1  0
  9 10  2  0
 10 11  1  0
 11 12  2  0
 12 13  1  0
 13 14  1  0
 13 15  2  0
 12 16  1  0
 16 17  1  0
 17 18  2  0
 17 19  1  0
 19 20  1  0
 16 21  1  0
 21 22  2  0
 22  7  1  0
 21 10  1  0
  1 23  1  0
  1 24  1  0
  1 25  1  0
  3 26  1  0
  3 27  1  0
  8 28  1  0
  9 29  1  0
 11 30  1  0
 14 31  1  0
 14 32  1  0
 19 33  1  0
 19 34  1  0
 20 35  1  0
 22 36  1  0
M  CHG  1   6  -1
M  END
>  <UniqueID>  (3) 
3

>  <SMILES>  (3) 
CN(CC(=O)[O-])c1ccc2cc(C(N)=O)n(C(=O)CO)c2c1

>  <Energy>  (3) 
76.01107173201908

>  <Genealogy>  (3) 
CN(CC(=O)[O-])c1ccc2cc(C(N)=O)n(C(=O)CO)c2c1 (protonated)
CN(CC(=O)[O-])c1ccc2cc(C(N)=O)n(C(=O)CO)c2c1 (3D coordinates assigned)
CN(CC(=O)[O-])c1ccc2cc(C(N)=O)n(C(=O)CO)c2c1 (optimized conformer: 76.01107173201908 kcal/mol)

>  <smiles>  (3) 
CN(CC(=O)O)c1ccc2cc(C(N)=O)n(C(=O)CO)c2c1

>  <score_type>  (3) 
oracle

>  <origin>  (3) 
adg

>  <m_score__min__energy>  (3) 
-6.1299999999999999

>  <m_primary>  (3) 
energy

$$$$
3:0
     RDKit          3D

 39 40  0  0  0  0  0  0  0  0999 V2000
  143.8030  155.8450  134.1490 N   0  0  0  0  0  0  0  0  0  0  0  0
  144.1010  154.9560  133.0710 C   0  0  0  0  0  0  0  0  0  0  0  0
  144.9710  155.2910  132.2240 O   0  0  0  0  0  0  0  0  0  0  0  0
  143.4250  153.6450  132.9630 C   0  0  0  0  0  0  0  0  0  0  0  0
  144.0920  152.4390  132.7590 C   0  0  0  0  0  0  0  0  0  0  0  0
  143.1040  151.4900  132.6370 C   0  0  0  0  0  0  0  0  0  0  0  0
  143.2020  150.1170  132.4330 C   0  0  0  0  0  0  0  0  0  0  0  0
  142.0120  149.3720  132.3790 C   0  0  0  0  0  0  0  0  0  0  0  0
  140.7560  150.0070  132.5470 C   0  0  0  0  0  0  0  0  0  0  0  0
  139.4910  149.2040  132.4660 C   0  0  0  0  0  0  0  0  0  0  0  0
  139.0300  148.7820  130.4250 I   0  0  0  0  0  0  0  0  0  0  0  0
  140.6940  151.4050  132.7390 C   0  0  0  0  0  0  0  0  0  0  0  0
  141.8940  152.1240  132.7680 C   0  0  0  0  0  0  0  0  0  0  0  0
  142.0760  153.4490  132.9640 N   0  0  0  0  0  0  0  0  0  0  0  0
  141.0530  154.4230  133.2310 C   0  0  0  0  0  0  0  0  0  0  0  0
  139.9590  154.3790  132.6050 O   0  0  0  0  0  0  0  0  0  0  0  0
  141.2690  155.4020  134.2060 O   0  0  0  0  0  0  0  0  0  0  0  0
  141.0660  156.7950  133.9700 C   0  0  0  0  0  0  0  0  0  0  0  0
  142.0350  157.5720  134.6370 O   0  0  0  0  0  0  0  0  0  0  0  0
  142.9140  158.4860  133.4920 P   0  0  1  0  0  0  0  0  0  0  0  0
  143.2100  157.5940  132.3080 O   0  0  0  0  0  0  0  0  0  0  0  0
  141.9620  159.7880  132.9620 O   0  0  0  0  0  0  0  0  0  0  0  0
  144.4050  158.9980  134.1610 O   0  0  0  0  0  0  0  0  0  0  0  0
  145.4110  158.9550  133.1770 C   0  0  0  0  0  0  0  0  0  0  0  0
  145.8800  157.6430  133.0260 O   0  0  0  0  0  0  0  0  0  0  0  0
  144.3140  156.7520  134.2370 H   0  0  0  0  0  0  0  0  0  0  0  0
  143.0500  155.6290  134.8390 H   0  0  0  0  0  0  0  0  0  0  0  0
  145.1791  152.2795  132.7066 H   0  0  0  0  0  0  0  0  0  0  0  0
  144.1814  149.6297  132.3175 H   0  0  0  0  0  0  0  0  0  0  0  0
  142.0554  148.2867  132.2049 H   0  0  0  0  0  0  0  0  0  0  0  0
  139.6229  148.2590  133.0133 H   0  0  0  0  0  0  0  0  0  0  0  0
  138.6668  149.7796  132.9125 H   0  0  0  0  0  0  0  0  0  0  0  0
  139.7274  151.9153  132.8625 H   0  0  0  0  0  0  0  0  0  0  0  0
  141.1323  156.9891  132.8893 H   0  0  0  0  0  0  0  0  0  0  0  0
  140.0731  157.0721  134.3539 H   0  0  0  0  0  0  0  0  0  0  0  0
  141.9170  159.6930  131.9770 H   0  0  0  0  0  0  0  0  0  0  0  0
  144.9990  159.3067  132.2196 H   0  0  0  0  0  0  0  0  0  0  0  0
  146.2449  159.6026  133.4856 H   0  0  0  0  0  0  0  0  0  0  0  0
  145.3510  157.2440  132.2870 H   0  0  0  0  0  0  0  0  0  0  0  0
  1  2  1  0
  2  3  2  0
  2  4  1  0
  4  5  2  0
  5  6  1  0
  6  7  2  0
  7  8  1  0
  8  9  2  0
  9 10  1  0
 10 11  1  0
  9 12  1  0
 12 13  2  0
 13 14  1  0
 14 15  1  0
 15 16  2  0
 15 17  1  0
 17 18  1  0
 18 19  1  0
 20 19  1  1
 20 21  2  0
 20 22  1  0
 20 23  1  0
 23 24  1  0
 24 25  1  0
 14  4  1  0
 13  6  1  0
  1 26  1  0
  1 27  1  0
  5 28  1  0
  7 29  1  0
  8 30  1  0
 10 31  1  0
 10 32  1  0
 12 33  1  0
 18 34  1  0
 18 35  1  0
 22 36  1  0
 24 37  1  0
 24 38  1  0
 25 39  1  0
M  END
>  <UniqueID>  (4) 
4

>  <SMILES>  (4) 
NC(=O)c1cc2ccc(CI)cc2n1C(=O)OCO[P@@](=O)(O)OCO

>  <Energy>  (4) 
74.01500186945094

>  <Genealogy>  (4) 
NC(=O)c1cc2ccc(CI)cc2n1C(=O)OCO[P@@](=O)(O)OCO (chirality)
NC(=O)c1cc2ccc(CI)cc2n1C(=O)OCO[P@@](=O)(O)OCO (3D coordinates assigned)
NC(=O)c1cc2ccc(CI)cc2n1C(=O)OCO[P@@](=O)(O)OCO (optimized conformer: 74.01500186945094 kcal/mol)

>  <smiles>  (4) 
NC(=O)c1cc2ccc(CI)cc2n1C(=O)OCOP(=O)(O)OCO

>  <score_type>  (4) 
oracle

>  <origin>  (4) 
adg

>  <m_score__min__energy>  (4) 
-6.9500000000000002

>  <m_primary>  (4) 
energy

$$$$
4:0
     RDKit          3D

 45 46  0  0  0  0  0  0  0  0999 V2000
  142.7670  160.8540  133.3630 N   0  0  0  0  0  0  0  0  0  0  0  0
  144.1300  161.0230  133.7440 C   0  0  0  0  0  0  0  0  0  0  0  0
  144.5040  162.1230  134.2280 O   0  0  0  0  0  0  0  0  0  0  0  0
  145.0950  159.9240  133.5380 C   0  0  0  0  0  0  0  0  0  0  0  0
  146.4640  160.1190  133.3590 C   0  0  0  0  0  0  0  0  0  0  0  0
  147.0060  158.8560  133.2890 C   0  0  0  0  0  0  0  0  0  0  0  0
  148.3240  158.4540  133.1010 C   0  0  0  0  0  0  0  0  0  0  0  0
  148.5910  157.0740  133.0470 C   0  0  0  0  0  0  0  0  0  0  0  0
  147.5450  156.1260  133.1940 C   0  0  0  0  0  0  0  0  0  0  0  0
  147.8370  154.6510  133.0770 C   0  0  0  0  0  0  0  0  0  0  0  0
  148.9020  154.4650  132.2150 F   0  0  0  0  0  0  0  0  0  0  0  0
  146.7350  153.9720  132.5860 F   0  0  0  0  0  0  0  0  0  0  0  0
  148.1590  154.1180  134.3130 F   0  0  0  0  0  0  0  0  0  0  0  0
  146.2150  156.5770  133.3580 C   0  0  0  0  0  0  0  0  0  0  0  0
  145.9830  157.9540  133.4190 C   0  0  0  0  0  0  0  0  0  0  0  0
  144.8040  158.5940  133.5670 N   0  0  0  0  0  0  0  0  0  0  0  0
  143.5170  157.9680  133.6650 C   0  0  0  0  0  0  0  0  0  0  0  0
  142.6240  158.2580  132.8230 O   0  0  0  0  0  0  0  0  0  0  0  0
  143.1840  157.1120  134.8590 C   0  0  0  0  0  0  0  0  0  0  0  0
  141.9210  156.2690  134.6660 C   0  0  0  0  0  0  0  0  0  0  0  0
  140.9840  156.5060  135.7620 N   0  0  0  0  0  0  0  0  0  0  0  0
  139.9360  157.8380  135.3820 S   0  0  0  0  0  0  0  0  0  0  0  0
  139.1510  158.2370  136.6010 O   0  0  0  0  0  0  0  0  0  0  0  0
  140.7810  159.0010  134.9420 O   0  0  0  0  0  0  0  0  0  0  0  0
  138.8150  157.3910  134.0610 C   0  0  0  0  0  0  0  0  0  0  0  0
  139.5020  157.4830  132.7030 C   0  0  0  0  0  0  0  0  0  0  0  0
  138.6800  158.2150  131.8250 O   0  0  0  0  0  0  0  0  0  0  0  0
  139.4990  159.6470  131.3900 P   0  0  1  0  0  0  0  0  0  0  0  0
  140.5100  159.3570  130.3030 O   0  0  0  0  0  0  0  0  0  0  0  0
  138.3730  160.7660  130.8060 O   0  0  0  0  0  0  0  0  0  0  0  0
  140.2900  160.3080  132.7330 O   0  0  0  0  0  0  0  0  0  0  0  0
  142.1980  160.0670  133.7450 H   0  0  0  0  0  0  0  0  0  0  0  0
  146.9974  161.0785  133.2887 H   0  0  0  0  0  0  0  0  0  0  0  0
  149.1327  159.1924  132.9977 H   0  0  0  0  0  0  0  0  0  0  0  0
  149.6223  156.7256  132.8890 H   0  0  0  0  0  0  0  0  0  0  0  0
  145.3831  155.8616  133.4357 H   0  0  0  0  0  0  0  0  0  0  0  0
  144.0298  156.4351  135.0502 H   0  0  0  0  0  0  0  0  0  0  0  0
  142.9970  157.7905  135.7044 H   0  0  0  0  0  0  0  0  0  0  0  0
  141.4432  156.5429  133.7138 H   0  0  0  0  0  0  0  0  0  0  0  0
  142.1981  155.2045  134.6544 H   0  0  0  0  0  0  0  0  0  0  0  0
  138.4674  156.3593  134.2185 H   0  0  0  0  0  0  0  0  0  0  0  0
  137.9664  158.0909  134.0712 H   0  0  0  0  0  0  0  0  0  0  0  0
  140.4707  157.9924  132.8130 H   0  0  0  0  0  0  0  0  0  0  0  0
  139.6703  156.4730  132.3012 H   0  0  0  0  0  0  0  0  0  0  0  0
  141.0490  159.6950  132.9040 H   0  0  0  0  0  0  0  0  0  0  0  0
  1  2  1  0
  2  3  2  0
  2  4  1  0
  4  5  2  0
  5  6  1  0
  6  7  2  0
  7  8  1  0
  8  9  2  0
  9 10  1  0
 10 11  1  0
 10 12  1  0
 10 13  1  0
  9 14  1  0
 14 15  2  0
 15 16  1  0
 16 17  1  0
 17 18  2  0
 17 19  1  0
 19 20  1  0
 20 21  1  0
 21 22  1  0
 22 23  2  0
 22 24  2  0
 22 25  1  0
 25 26  1  0
 26 27  1  0
 27 28  1  0
 28 29  2  0
 28 30  1  6
 28 31  1  0
 16  4  1  0
 15  6  1  0
  1 32  1  0
  5 33  1  0
  7 34  1  0
  8 35  1  0
 14 36  1  0
 19 37  1  0
 19 38  1  0
 20 39  1  0
 20 40  1  0
 25 41  1  0
 25 42  1  0
 26 43  1  0
 26 44  1  0
 31 45  1  0
M  CHG  3   1  -1  21  -1  30  -1
M  END
>  <UniqueID>  (5) 
5

>  <SMILES>  (5) 
[NH-]C(=O)c1cc2ccc(C(F)(F)F)cc2n1C(=O)CC[N-]S(=O)(=O)CCO[P@@](=O)([O-])O

>  <Energy>  (5) 
73.16871139773916

>  <Genealogy>  (5) 
[NH-]C(=O)c1cc2ccc(C(F)(F)F)cc2n1C(=O)CC[N-]S(=O)(=O)CCOP(=O)([O-])O (protonated)
[NH-]C(=O)c1cc2ccc(C(F)(F)F)cc2n1C(=O)CC[N-]S(=O)(=O)CCO[P@@](=O)([O-])O (chirality)
[NH-]C(=O)c1cc2ccc(C(F)(F)F)cc2n1C(=O)CC[N-]S(=O)(=O)CCO[P@@](=O)([O-])O (3D coordinates assigned)
[NH-]C(=O)c1cc2ccc(C(F)(F)F)cc2n1C(=O)CC[N-]S(=O)(=O)CCO[P@@](=O)([O-])O (optimized conformer: 73.16871139773916 kcal/mol)

>  <smiles>  (5) 
NC(=O)c1cc2ccc(C(F)(F)F)cc2n1C(=O)CCNS(=O)(=O)CCOP(=O)(O)O

>  <score_type>  (5) 
oracle

>  <origin>  (5) 
adg

>  <m_score__min__energy>  (5) 
-6.8300000000000001

>  <m_primary>  (5) 
energy

$$$$
5:0
     RDKit          3D

 35 36  0  0  0  0  0  0  0  0999 V2000
  142.3220  158.0290  134.6090 C   0  0  0  0  0  0  0  0  0  0  0  0
  143.5750  158.7050  134.1250 C   0  0  0  0  0  0  0  0  0  0  0  0
  143.6110  160.1150  133.9730 C   0  0  0  0  0  0  0  0  0  0  0  0
  144.7950  160.7590  133.5660 C   0  0  0  0  0  0  0  0  0  0  0  0
  145.9150  159.9740  133.3160 C   0  0  0  0  0  0  0  0  0  0  0  0
  147.1780  160.3310  132.9020 C   0  0  0  0  0  0  0  0  0  0  0  0
  147.8810  159.1330  132.7840 C   0  0  0  0  0  0  0  0  0  0  0  0
  149.2550  159.0420  132.2460 C   0  0  0  0  0  0  0  0  0  0  0  0
  149.8210  157.7820  131.8860 N   0  0  0  0  0  0  0  0  0  0  0  0
  149.9270  160.0940  132.0670 O   0  0  0  0  0  0  0  0  0  0  0  0
  147.0870  158.0790  133.1270 N   0  0  0  0  0  0  0  0  0  0  0  0
  147.4360  156.6850  133.1830 C   0  0  0  0  0  0  0  0  0  0  0  0
  147.3940  155.9880  132.1330 O   0  0  0  0  0  0  0  0  0  0  0  0
  147.7400  156.0250  134.4930 C   0  0  0  0  0  0  0  0  0  0  0  0
  146.8890  154.8040  134.6630 C   0  0  0  0  0  0  0  0  0  0  0  0
  145.8630  154.6510  133.9440 O   0  0  0  0  0  0  0  0  0  0  0  0
  147.2350  153.8300  135.6560 N   0  0  0  0  0  0  0  0  0  0  0  0
  147.9620  154.1430  136.8790 C   0  0  0  0  0  0  0  0  0  0  0  0
  147.3780  153.3980  138.0380 C   0  0  0  0  0  0  0  0  0  0  0  0
  146.8970  152.2450  137.8760 O   0  0  0  0  0  0  0  0  0  0  0  0
  147.3480  153.9860  139.2970 O   0  0  0  0  0  0  0  0  0  0  0  0
  145.8900  158.6090  133.4460 C   0  0  0  0  0  0  0  0  0  0  0  0
  144.7360  157.9430  133.8810 C   0  0  0  0  0  0  0  0  0  0  0  0
  142.3103  158.0227  135.7089 H   0  0  0  0  0  0  0  0  0  0  0  0
  141.4431  158.5754  134.2361 H   0  0  0  0  0  0  0  0  0  0  0  0
  142.2960  156.9945  134.2361 H   0  0  0  0  0  0  0  0  0  0  0  0
  142.7076  160.7093  134.1746 H   0  0  0  0  0  0  0  0  0  0  0  0
  144.8329  161.8521  133.4491 H   0  0  0  0  0  0  0  0  0  0  0  0
  147.5532  161.3463  132.7058 H   0  0  0  0  0  0  0  0  0  0  0  0
  149.2220  157.0070  131.5120 H   0  0  0  0  0  0  0  0  0  0  0  0
  148.8009  155.7355  134.5171 H   0  0  0  0  0  0  0  0  0  0  0  0
  147.5262  156.7299  135.3099 H   0  0  0  0  0  0  0  0  0  0  0  0
  149.0167  153.8552  136.7574 H   0  0  0  0  0  0  0  0  0  0  0  0
  147.8849  155.2229  137.0735 H   0  0  0  0  0  0  0  0  0  0  0  0
  144.7361  156.8529  134.0284 H   0  0  0  0  0  0  0  0  0  0  0  0
  1  2  1  0
  2  3  2  0
  3  4  1  0
  4  5  2  0
  5  6  1  0
  6  7  2  0
  7  8  1  0
  8  9  1  0
  8 10  2  0
  7 11  1  0
 11 12  1  0
 12 13  2  0
 12 14  1  0
 14 15  1  0
 15 16  2  0
 15 17  1  0
 17 18  1  0
 18 19  1  0
 19 20  2  0
 19 21  1  0
 11 22  1  0
 22 23  2  0
 23  2  1  0
 22  5  1  0
  1 24  1  0
  1 25  1  0
  1 26  1  0
  3 27  1  0
  4 28  1  0
  6 29  1  0
  9 30  1  0
 14 31  1  0
 14 32  1  0
 18 33  1  0
 18 34  1  0
 23 35  1  0
M  CHG  3   9  -1  17  -1  21  -1
M  END
>  <UniqueID>  (6) 
6

>  <SMILES>  (6) 
Cc1ccc2cc(C([NH-])=O)n(C(=O)CC(=O)[N-]CC(=O)[O-])c2c1

>  <Energy>  (6) 
68.5624888604242

>  <Genealogy>  (6) 
Cc1ccc2cc(C([NH-])=O)n(C(=O)CC(=O)[N-]CC(=O)[O-])c2c1 (protonated)
Cc1ccc2cc(C([NH-])=O)n(C(=O)CC(=O)[N-]CC(=O)[O-])c2c1 (3D coordinates assigned)
Cc1ccc2cc(C([NH-])=O)n(C(=O)CC(=O)[N-]CC(=O)[O-])c2c1 (optimized conformer: 68.5624888604242 kcal/mol)

>  <smiles>  (6) 
Cc1ccc2cc(C(N)=O)n(C(=O)CC(=O)NCC(=O)O)c2c1

>  <score_type>  (6) 
oracle

>  <origin>  (6) 
adg

>  <m_score__min__energy>  (6) 
-7.0800000000000001

>  <m_primary>  (6) 
energy

$$$$
6:0
     RDKit          3D

 47 48  0  0  0  0  0  0  0  0999 V2000
  148.0670  155.1290  132.7590 C   0  0  0  0  0  0  0  0  0  0  0  0
  147.5860  156.5210  133.0360 C   0  0  0  0  0  0  0  0  0  0  0  0
  148.5100  157.5930  133.1120 C   0  0  0  0  0  0  0  0  0  0  0  0
  148.0660  158.9050  133.3450 C   0  0  0  0  0  0  0  0  0  0  0  0
  146.6980  159.1160  133.4820 C   0  0  0  0  0  0  0  0  0  0  0  0
  145.9950  160.2820  133.6810 C   0  0  0  0  0  0  0  0  0  0  0  0
  144.6530  159.9070  133.7050 C   0  0  0  0  0  0  0  0  0  0  0  0
  143.5400  160.8530  133.9340 C   0  0  0  0  0  0  0  0  0  0  0  0
  142.3010  160.4110  134.4810 N   0  0  0  0  0  0  0  0  0  0  0  0
  143.6970  162.0750  133.6700 O   0  0  0  0  0  0  0  0  0  0  0  0
  144.5320  158.5610  133.5360 N   0  0  0  0  0  0  0  0  0  0  0  0
  143.3220  157.8040  133.3720 C   0  0  0  0  0  0  0  0  0  0  0  0
  142.4200  158.2420  132.6100 O   0  0  0  0  0  0  0  0  0  0  0  0
  143.1330  156.4830  134.0050 C   0  0  0  0  0  0  0  0  0  0  0  0
  142.6510  156.2790  135.2380 C   0  0  0  0  0  0  0  0  0  0  0  0
  142.1450  157.3680  136.1460 C   0  0  0  0  0  0  0  0  0  0  0  0
  140.6790  157.4140  136.1080 N   0  0  0  0  0  0  0  0  0  0  0  0
  139.8980  157.0220  137.2830 C   0  0  0  0  0  0  0  0  0  0  0  0
  140.0080  157.9040  134.9330 C   0  0  0  0  0  0  0  0  0  0  0  0
  139.8680  159.1450  134.7550 O   0  0  0  0  0  0  0  0  0  0  0  0
  139.4990  156.9980  133.9960 O   0  0  0  0  0  0  0  0  0  0  0  0
  139.3240  157.3210  132.6190 C   0  0  0  0  0  0  0  0  0  0  0  0
  138.4680  158.4330  132.4890 O   0  0  0  0  0  0  0  0  0  0  0  0
  139.2600  159.6390  131.5750 P   0  0  1  0  0  0  0  0  0  0  0  0
  140.0280  159.0110  130.4320 O   0  0  0  0  0  0  0  0  0  0  0  0
  138.1330  160.7410  130.9570 O   0  0  0  0  0  0  0  0  0  0  0  0
  140.3420  160.4680  132.5750 O   0  0  0  0  0  0  0  0  0  0  0  0
  145.7910  158.0920  133.3930 C   0  0  0  0  0  0  0  0  0  0  0  0
  146.2040  156.7760  133.1570 C   0  0  0  0  0  0  0  0  0  0  0  0
  148.2473  154.6072  133.7105 H   0  0  0  0  0  0  0  0  0  0  0  0
  147.3045  154.5857  132.1816 H   0  0  0  0  0  0  0  0  0  0  0  0
  149.0023  155.1723  132.1816 H   0  0  0  0  0  0  0  0  0  0  0  0
  149.5849  157.3956  132.9873 H   0  0  0  0  0  0  0  0  0  0  0  0
  148.7783  159.7401  133.4169 H   0  0  0  0  0  0  0  0  0  0  0  0
  146.4055  161.2959  133.7967 H   0  0  0  0  0  0  0  0  0  0  0  0
  141.7390  159.6700  134.0070 H   0  0  0  0  0  0  0  0  0  0  0  0
  143.4102  155.5957  133.4169 H   0  0  0  0  0  0  0  0  0  0  0  0
  142.6230  155.2452  135.6127 H   0  0  0  0  0  0  0  0  0  0  0  0
  142.4763  157.1669  137.1754 H   0  0  0  0  0  0  0  0  0  0  0  0
  142.5449  158.3350  135.8069 H   0  0  0  0  0  0  0  0  0  0  0  0
  140.4462  157.2971  138.1961 H   0  0  0  0  0  0  0  0  0  0  0  0
  138.9277  157.5399  137.2678 H   0  0  0  0  0  0  0  0  0  0  0  0
  139.7334  155.9345  137.2678 H   0  0  0  0  0  0  0  0  0  0  0  0
  140.3012  157.5597  132.1740 H   0  0  0  0  0  0  0  0  0  0  0  0
  138.8778  156.4597  132.1003 H   0  0  0  0  0  0  0  0  0  0  0  0
  140.9200  159.7630  132.9600 H   0  0  0  0  0  0  0  0  0  0  0  0
  145.4700  155.9615  133.0681 H   0  0  0  0  0  0  0  0  0  0  0  0
  1  2  1  0
  2  3  2  0
  3  4  1  0
  4  5  2  0
  5  6  1  0
  6  7  2  0
  7  8  1  0
  8  9  1  0
  8 10  2  0
  7 11  1  0
 11 12  1  0
 12 13  2  0
 12 14  1  0
 14 15  2  3
 15 16  1  0
 16 17  1  0
 17 18  1  0
 17 19  1  0
 19 20  2  0
 19 21  1  0
 21 22  1  0
 22 23  1  0
 23 24  1  0
 24 25  2  0
 24 26  1  6
 24 27  1  0
 11 28  1  0
 28 29  2  0
 29  2  1  0
 28  5  1  0
  1 30  1  0
  1 31  1  0
  1 32  1  0
  3 33  1  0
  4 34  1  0
  6 35  1  0
  9 36  1  0
 14 37  1  0
 15 38  1  0
 16 39  1  0
 16 40  1  0
 18 41  1  0
 18 42  1  0
 18 43  1  0
 22 44  1  0
 22 45  1  0
 27 46  1  0
 29 47  1  0
M  CHG  2   9  -1  26  -1
M  END
>  <UniqueID>  (7) 
7

>  <SMILES>  (7) 
Cc1ccc2cc(C([NH-])=O)n(C(=O)C=CCN(C)C(=O)OCO[P@@](=O)([O-])O)c2c1

>  <Energy>  (7) 
76.8876327507632

>  <Genealogy>  (7) 
Cc1ccc2cc(C([NH-])=O)n(C(=O)C=CCN(C)C(=O)OCOP(=O)([O-])O)c2c1 (protonated)
Cc1ccc2cc(C([NH-])=O)n(C(=O)C=CCN(C)C(=O)OCO[P@@](=O)([O-])O)c2c1 (chirality)
Cc1ccc2cc(C([NH-])=O)n(C(=O)C=CCN(C)C(=O)OCO[P@@](=O)([O-])O)c2c1 (3D coordinates assigned)
Cc1ccc2cc(C([NH-])=O)n(C(=O)C=CCN(C)C(=O)OCO[P@@](=O)([O-])O)c2c1 (optimized conformer: 76.8876327507632 kcal/mol)

>  <smiles>  (7) 
Cc1ccc2cc(C(N)=O)n(C(=O)C=CCN(C)C(=O)OCOP(=O)([O-])O)c2c1

>  <score_type>  (7) 
oracle

>  <origin>  (7) 
adg

>  <m_score__min__energy>  (7) 
-6.3499999999999996

>  <m_primary>  (7) 
energy

$$$$
7:0
     RDKit          3D

 37 39  0  0  0  0  0  0  0  0999 V2000
  144.1090  157.7330  134.2870 N   0  0  0  0  0  0  0  0  0  0  0  0
  143.7990  156.6970  133.3610 C   0  0  0  0  0  0  0  0  0  0  0  0
  142.7420  156.7760  132.6790 O   0  0  0  0  0  0  0  0  0  0  0  0
  144.7100  155.5490  133.1660 C   0  0  0  0  0  0  0  0  0  0  0  0
  144.3070  154.3190  132.6470 C   0  0  0  0  0  0  0  0  0  0  0  0
  145.4540  153.5590  132.5770 C   0  0  0  0  0  0  0  0  0  0  0  0
  145.6370  152.2470  132.1520 C   0  0  0  0  0  0  0  0  0  0  0  0
  146.9350  151.7100  132.2120 C   0  0  0  0  0  0  0  0  0  0  0  0
  148.0230  152.4920  132.6790 C   0  0  0  0  0  0  0  0  0  0  0  0
  149.4000  151.8860  132.7920 C   0  0  0  0  0  0  0  0  0  0  0  0
  150.3740  152.8320  132.5190 F   0  0  0  0  0  0  0  0  0  0  0  0
  149.5480  150.8420  131.8960 F   0  0  0  0  0  0  0  0  0  0  0  0
  149.5820  151.4090  134.0760 F   0  0  0  0  0  0  0  0  0  0  0  0
  147.7900  153.8150  133.1240 C   0  0  0  0  0  0  0  0  0  0  0  0
  146.4900  154.3230  133.0440 C   0  0  0  0  0  0  0  0  0  0  0  0
  146.0500  155.5410  133.4160 N   0  0  0  0  0  0  0  0  0  0  0  0
  146.8510  156.5840  133.9910 C   0  0  0  0  0  0  0  0  0  0  0  0
  146.9640  156.6470  135.2450 O   0  0  0  0  0  0  0  0  0  0  0  0
  147.5110  157.6020  133.1370 C   0  0  0  0  0  0  0  0  0  0  0  0
  148.7670  157.3410  132.5630 C   0  0  0  0  0  0  0  0  0  0  0  0
  149.3910  158.2940  131.7540 C   0  0  0  0  0  0  0  0  0  0  0  0
  148.7810  159.5370  131.5160 C   0  0  0  0  0  0  0  0  0  0  0  0
  149.4490  160.5310  130.6430 C   0  0  0  0  0  0  0  0  0  0  0  0
  150.5100  160.2110  130.0430 O   0  0  0  0  0  0  0  0  0  0  0  0
  148.9410  161.8580  130.4690 N   0  0  0  0  0  0  0  0  0  0  0  0
  149.6200  162.7680  129.9510 O   0  0  0  0  0  0  0  0  0  0  0  0
  147.5210  159.7960  132.0800 C   0  0  0  0  0  0  0  0  0  0  0  0
  146.8960  158.8410  132.8880 C   0  0  0  0  0  0  0  0  0  0  0  0
  144.9970  157.7160  134.8360 H   0  0  0  0  0  0  0  0  0  0  0  0
  143.2896  154.0193  132.3555 H   0  0  0  0  0  0  0  0  0  0  0  0
  144.7923  151.6483  131.7805 H   0  0  0  0  0  0  0  0  0  0  0  0
  147.1091  150.6717  131.8933 H   0  0  0  0  0  0  0  0  0  0  0  0
  148.6113  154.4284  133.5229 H   0  0  0  0  0  0  0  0  0  0  0  0
  149.2633  156.3777  132.7524 H   0  0  0  0  0  0  0  0  0  0  0  0
  150.3674  158.0694  131.2999 H   0  0  0  0  0  0  0  0  0  0  0  0
  147.0223  160.7568  131.8847 H   0  0  0  0  0  0  0  0  0  0  0  0
  145.9143  159.0614  133.3327 H   0  0  0  0  0  0  0  0  0  0  0  0
  1  2  1  0
  2  3  2  0
  2  4  1  0
  4  5  2  0
  5  6  1  0
  6  7  2  0
  7  8  1  0
  8  9  2  0
  9 10  1  0
 10 11  1  0
 10 12  1  0
 10 13  1  0
  9 14  1  0
 14 15  2  0
 15 16  1  0
 16 17  1  0
 17 18  2  0
 17 19  1  0
 19 20  2  0
 20 21  1  0
 21 22  2  0
 22 23  1  0
 23 24  2  0
 23 25  1  0
 25 26  2  0
 22 27  1  0
 27 28  2  0
 16  4  1  0
 28 19  1  0
 15  6  1  0
  1 29  1  0
  5 30  1  0
  7 31  1  0
  8 32  1  0
 14 33  1  0
 20 34  1  0
 21 35  1  0
 27 36  1  0
 28 37  1  0
M  CHG  1   1  -1
M  END
>  <UniqueID>  (8) 
8

>  <SMILES>  (8) 
[NH-]C(=O)c1cc2ccc(C(F)(F)F)cc2n1C(=O)c1ccc(C(=O)N=O)cc1

>  <Energy>  (8) 
85.9051515211979

>  <Genealogy>  (8) 
[NH-]C(=O)c1cc2ccc(C(F)(F)F)cc2n1C(=O)c1ccc(C(=O)N=O)cc1 (protonated)
[NH-]C(=O)c1cc2ccc(C(F)(F)F)cc2n1C(=O)c1ccc(C(=O)N=O)cc1 (3D coordinates assigned)
[NH-]C(=O)c1cc2ccc(C(F)(F)F)cc2n1C(=O)c1ccc(C(=O)N=O)cc1 (optimized conformer: 85.9051515211979 kcal/mol)

>  <smiles>  (8) 
NC(=O)c1cc2ccc(C(F)(F)F)cc2n1C(=O)c1ccc(C(=O)N=O)cc1

>  <score_type>  (8) 
oracle

>  <origin>  (8) 
adg

>  <m_score__min__energy>  (8) 
-8.4299999999999997

>  <m_primary>  (8) 
energy

$$$$
8:0
     RDKit          3D

 39 41  0  0  0  0  0  0  0  0999 V2000
  149.3610  158.7680  133.2910 N   0  0  0  0  0  0  0  0  0  0  0  0
  148.3290  159.5740  132.7200 C   0  0  0  0  0  0  0  0  0  0  0  0
  148.6310  160.4320  131.8490 O   0  0  0  0  0  0  0  0  0  0  0  0
  146.9110  159.3900  133.0930 C   0  0  0  0  0  0  0  0  0  0  0  0
  145.9760  160.4230  133.0920 C   0  0  0  0  0  0  0  0  0  0  0  0
  144.7980  159.8470  133.5070 C   0  0  0  0  0  0  0  0  0  0  0  0
  143.5520  160.4240  133.7350 C   0  0  0  0  0  0  0  0  0  0  0  0
  142.5270  159.6030  134.2350 C   0  0  0  0  0  0  0  0  0  0  0  0
  142.7620  158.2280  134.4980 C   0  0  0  0  0  0  0  0  0  0  0  0
  141.6770  157.3750  135.1030 C   0  0  0  0  0  0  0  0  0  0  0  0
  140.8800  156.8690  134.0930 F   0  0  0  0  0  0  0  0  0  0  0  0
  140.8930  158.1220  135.9660 F   0  0  0  0  0  0  0  0  0  0  0  0
  142.2240  156.3220  135.8160 F   0  0  0  0  0  0  0  0  0  0  0  0
  144.0510  157.6890  134.2810 C   0  0  0  0  0  0  0  0  0  0  0  0
  145.0430  158.5210  133.7520 C   0  0  0  0  0  0  0  0  0  0  0  0
  146.3350  158.2230  133.4930 N   0  0  0  0  0  0  0  0  0  0  0  0
  146.9970  156.9720  133.7460 C   0  0  0  0  0  0  0  0  0  0  0  0
  147.8670  156.9080  134.6560 O   0  0  0  0  0  0  0  0  0  0  0  0
  146.7730  155.7930  132.8360 C   0  0  0  0  0  0  0  0  0  0  0  0
  147.8050  154.6720  133.0730 C   0  0  0  0  0  0  0  0  0  0  0  0
  149.2570  154.8730  132.6060 C   0  0  0  0  0  0  0  0  0  0  0  0
  149.5690  156.2390  132.5610 O   0  0  0  0  0  0  0  0  0  0  0  0
  147.2690  153.2440  133.0380 C   0  0  0  0  0  0  0  0  0  0  0  0
  147.6430  153.8840  134.3700 C   0  0  0  0  0  0  0  0  0  0  0  0
  150.3610  158.9590  133.0590 H   0  0  0  0  0  0  0  0  0  0  0  0
  149.1360  157.9200  133.8550 H   0  0  0  0  0  0  0  0  0  0  0  0
  146.1441  161.4749  132.8178 H   0  0  0  0  0  0  0  0  0  0  0  0
  143.3751  161.4902  133.5300 H   0  0  0  0  0  0  0  0  0  0  0  0
  141.5314  160.0306  134.4247 H   0  0  0  0  0  0  0  0  0  0  0  0
  144.2689  156.6383  134.5230 H   0  0  0  0  0  0  0  0  0  0  0  0
  145.7652  155.3913  133.0177 H   0  0  0  0  0  0  0  0  0  0  0  0
  146.8834  156.1407  131.7983 H   0  0  0  0  0  0  0  0  0  0  0  0
  149.9371  154.3684  133.3080 H   0  0  0  0  0  0  0  0  0  0  0  0
  149.3711  154.4466  131.5985 H   0  0  0  0  0  0  0  0  0  0  0  0
  149.6090  156.5530  133.5020 H   0  0  0  0  0  0  0  0  0  0  0  0
  146.2124  153.0591  132.7942 H   0  0  0  0  0  0  0  0  0  0  0  0
  147.5521  152.3199  132.5127 H   0  0  0  0  0  0  0  0  0  0  0  0
  146.8563  154.1610  135.0872 H   0  0  0  0  0  0  0  0  0  0  0  0
  148.3076  153.6131  135.2036 H   0  0  0  0  0  0  0  0  0  0  0  0
  1  2  1  0
  2  3  2  0
  2  4  1  0
  4  5  2  0
  5  6  1  0
  6  7  2  0
  7  8  1  0
  8  9  2  0
  9 10  1  0
 10 11  1  0
 10 12  1  0
 10 13  1  0
  9 14  1  0
 14 15  2  0
 15 16  1  0
 16 17  1  0
 17 18  2  0
 17 19  1  0
 19 20  1  0
 20 21  1  0
 21 22  1  0
 20 23  1  0
 23 24  1  0
 16  4  1  0
 24 20  1  0
 15  6  1  0
  1 25  1  0
  1 26  1  0
  5 27  1  0
  7 28  1  0
  8 29  1  0
 14 30  1  0
 19 31  1  0
 19 32  1  0
 21 33  1  0
 21 34  1  0
 22 35  1  0
 23 36  1  0
 23 37  1  0
 24 38  1  0
 24 39  1  0
M  END
>  <UniqueID>  (9) 
9

>  <SMILES>  (9) 
NC(=O)c1cc2ccc(C(F)(F)F)cc2n1C(=O)CC1(CO)CC1

>  <Energy>  (9) 
345.3745394578212

>  <Genealogy>  (9) 
NC(=O)c1cc2ccc(C(F)(F)F)cc2n1C(=O)CC1(CO)CC1 (3D coordinates assigned)
NC(=O)c1cc2ccc(C(F)(F)F)cc2n1C(=O)CC1(CO)CC1 (nonaromatic ring conformer: 345.3745394578212 kcal/mol)

>  <smiles>  (9) 
NC(=O)c1cc2ccc(C(F)(F)F)cc2n1C(=O)CC1(CO)CC1

>  <score_type>  (9) 
oracle

>  <origin>  (9) 
adg

>  <m_score__min__energy>  (9) 
-6.71

>  <m_primary>  (9) 
energy

$$$$
9:0
     RDKit          3D

 38 40  0  0  0  0  0  0  0  0999 V2000
  146.0320  157.3570  134.4270 N   0  0  0  0  0  0  0  0  0  0  0  0
  144.8000  157.5800  133.7380 C   0  0  0  0  0  0  0  0  0  0  0  0
  144.5350  158.7390  133.3200 O   0  0  0  0  0  0  0  0  0  0  0  0
  143.8510  156.4710  133.4960 C   0  0  0  0  0  0  0  0  0  0  0  0
  142.4630  156.5820  133.5850 C   0  0  0  0  0  0  0  0  0  0  0  0
  141.9790  155.3130  133.3580 C   0  0  0  0  0  0  0  0  0  0  0  0
  140.6690  154.8450  133.3110 C   0  0  0  0  0  0  0  0  0  0  0  0
  140.4660  153.4840  133.0240 C   0  0  0  0  0  0  0  0  0  0  0  0
  141.5660  152.6170  132.7860 C   0  0  0  0  0  0  0  0  0  0  0  0
  141.3410  151.1870  132.4610 C   0  0  0  0  0  0  0  0  0  0  0  0
  142.2860  150.2120  132.8300 C   0  0  0  0  0  0  0  0  0  0  0  0
  142.0720  148.8650  132.5210 C   0  0  0  0  0  0  0  0  0  0  0  0
  140.9160  148.4770  131.8420 C   0  0  0  0  0  0  0  0  0  0  0  0
  139.9690  149.4350  131.4690 C   0  0  0  0  0  0  0  0  0  0  0  0
  138.3840  148.9020  130.5460 Br  0  0  0  0  0  0  0  0  0  0  0  0
  140.1780  150.7840  131.7770 C   0  0  0  0  0  0  0  0  0  0  0  0
  142.8820  153.1340  132.8510 C   0  0  0  0  0  0  0  0  0  0  0  0
  143.0510  154.4890  133.1460 C   0  0  0  0  0  0  0  0  0  0  0  0
  144.2030  155.1840  133.2260 N   0  0  0  0  0  0  0  0  0  0  0  0
  145.5180  154.6600  132.9900 C   0  0  0  0  0  0  0  0  0  0  0  0
  146.2400  155.1710  132.0930 O   0  0  0  0  0  0  0  0  0  0  0  0
  146.0830  153.5980  133.8800 C   0  0  0  0  0  0  0  0  0  0  0  0
  146.3170  154.2610  135.5550 P   0  0  0  0  0  0  0  0  0  0  0  0
  145.0720  155.0080  135.9770 O   0  0  0  0  0  0  0  0  0  0  0  0
  147.6350  155.3200  135.5700 O   0  0  0  0  0  0  0  0  0  0  0  0
  146.6030  152.9930  136.6360 O   0  0  0  0  0  0  0  0  0  0  0  0
  146.2630  156.4300  134.8460 H   0  0  0  0  0  0  0  0  0  0  0  0
  146.7070  158.1430  134.5600 H   0  0  0  0  0  0  0  0  0  0  0  0
  141.8790  157.4908  133.7926 H   0  0  0  0  0  0  0  0  0  0  0  0
  139.8190  155.5192  133.4928 H   0  0  0  0  0  0  0  0  0  0  0  0
  139.4418  153.0849  132.9831 H   0  0  0  0  0  0  0  0  0  0  0  0
  143.1992  150.5113  133.3651 H   0  0  0  0  0  0  0  0  0  0  0  0
  142.8163  148.1098  132.8137 H   0  0  0  0  0  0  0  0  0  0  0  0
  140.7501  147.4168  131.6003 H   0  0  0  0  0  0  0  0  0  0  0  0
  139.4292  151.5342  131.4830 H   0  0  0  0  0  0  0  0  0  0  0  0
  143.7514  152.4840  132.6734 H   0  0  0  0  0  0  0  0  0  0  0  0
  145.3886  152.7457  133.9181 H   0  0  0  0  0  0  0  0  0  0  0  0
  147.0533  153.2674  133.4809 H   0  0  0  0  0  0  0  0  0  0  0  0
  1  2  1  0
  2  3  2  0
  2  4  1  0
  4  5  2  0
  5  6  1  0
  6  7  2  0
  7  8  1  0
  8  9  2  0
  9 10  1  0
 10 11  2  0
 11 12  1  0
 12 13  2  0
 13 14  1  0
 14 15  1  0
 14 16  2  0
  9 17  1  0
 17 18  2  0
 18 19  1  0
 19 20  1  0
 20 21  2  0
 20 22  1  0
 22 23  1  0
 23 24  2  0
 23 25  1  0
 23 26  1  0
 19  4  1  0
 18  6  1  0
 16 10  1  0
  1 27  1  0
  1 28  1  0
  5 29  1  0
  7 30  1  0
  8 31  1  0
 11 32  1  0
 12 33  1  0
 13 34  1  0
 16 35  1  0
 17 36  1  0
 22 37  1  0
 22 38  1  0
M  CHG  2  25  -1  26  -1
M  END
>  <UniqueID>  (10) 
10

>  <SMILES>  (10) 
NC(=O)c1cc2ccc(-c3cccc(Br)c3)cc2n1C(=O)CP(=O)([O-])[O-]

>  <Energy>  (10) 
79.15289694298659

>  <Genealogy>  (10) 
NC(=O)c1cc2ccc(-c3cccc(Br)c3)cc2n1C(=O)CP(=O)([O-])[O-] (protonated)
NC(=O)c1cc2ccc(-c3cccc(Br)c3)cc2n1C(=O)CP(=O)([O-])[O-] (3D coordinates assigned)
NC(=O)c1cc2ccc(-c3cccc(Br)c3)cc2n1C(=O)CP(=O)([O-])[O-] (optimized conformer: 79.15289694298659 kcal/mol)

>  <smiles>  (10) 
NC(=O)c1cc2ccc(-c3cccc(Br)c3)cc2n1C(=O)CP(=O)(O)O

>  <score_type>  (10) 
oracle

>  <origin>  (10) 
adg

>  <m_score__min__energy>  (10) 
-8.9700000000000006

>  <m_primary>  (10) 
energy

$$$$
10:0
     RDKit          3D

 30 31  0  0  0  0  0  0  0  0999 V2000
  138.7750  155.7550  132.9880 N   0  0  0  0  0  0  0  0  0  0  0  0
  140.1320  155.4550  133.3190 C   0  0  0  0  0  0  0  0  0  0  0  0
  140.4460  154.2700  133.6120 O   0  0  0  0  0  0  0  0  0  0  0  0
  141.1640  156.5110  133.3750 C   0  0  0  0  0  0  0  0  0  0  0  0
  142.5310  156.2560  133.2970 C   0  0  0  0  0  0  0  0  0  0  0  0
  143.1400  157.4820  133.4400 C   0  0  0  0  0  0  0  0  0  0  0  0
  144.4890  157.8220  133.4180 C   0  0  0  0  0  0  0  0  0  0  0  0
  144.8280  159.1810  133.5480 C   0  0  0  0  0  0  0  0  0  0  0  0
  143.8190  160.1650  133.7000 C   0  0  0  0  0  0  0  0  0  0  0  0
  144.1910  161.6150  133.7870 C   0  0  0  0  0  0  0  0  0  0  0  0
  145.3470  161.7500  134.5330 F   0  0  0  0  0  0  0  0  0  0  0  0
  142.4600  159.7830  133.7010 C   0  0  0  0  0  0  0  0  0  0  0  0
  142.1550  158.4230  133.5860 C   0  0  0  0  0  0  0  0  0  0  0  0
  140.9360  157.8440  133.5430 N   0  0  0  0  0  0  0  0  0  0  0  0
  139.6770  158.5350  133.5480 C   0  0  0  0  0  0  0  0  0  0  0  0
  138.8100  158.2460  134.4150 O   0  0  0  0  0  0  0  0  0  0  0  0
  139.4220  159.6680  132.6010 C   0  0  0  0  0  0  0  0  0  0  0  0
  139.0370  159.1260  131.2630 C   0  0  0  0  0  0  0  0  0  0  0  0
  138.7330  157.9100  131.1350 O   0  0  0  0  0  0  0  0  0  0  0  0
  138.9660  159.9720  130.1630 O   0  0  0  0  0  0  0  0  0  0  0  0
  138.4380  156.7400  132.9230 H   0  0  0  0  0  0  0  0  0  0  0  0
  138.0760  154.9850  132.9020 H   0  0  0  0  0  0  0  0  0  0  0  0
  143.0202  155.2815  133.1519 H   0  0  0  0  0  0  0  0  0  0  0  0
  145.2661  157.0521  133.3025 H   0  0  0  0  0  0  0  0  0  0  0  0
  145.8856  159.4829  133.5316 H   0  0  0  0  0  0  0  0  0  0  0  0
  144.3592  162.0118  132.7749 H   0  0  0  0  0  0  0  0  0  0  0  0
  143.3759  162.1745  134.2693 H   0  0  0  0  0  0  0  0  0  0  0  0
  141.6622  160.5350  133.7899 H   0  0  0  0  0  0  0  0  0  0  0  0
  138.6061  160.2943  132.9908 H   0  0  0  0  0  0  0  0  0  0  0  0
  140.3352  160.2731  132.5010 H   0  0  0  0  0  0  0  0  0  0  0  0
  1  2  1  0
  2  3  2  0
  2  4  1  0
  4  5  2  0
  5  6  1  0
  6  7  2  0
  7  8  1  0
  8  9  2  0
  9 10  1  0
 10 11  1  0
  9 12  1  0
 12 13  2  0
 13 14  1  0
 14 15  1  0
 15 16  2  0
 15 17  1  0
 17 18  1  0
 18 19  2  0
 18 20  1  0
 14  4  1  0
 13  6  1  0
  1 21  1  0
  1 22  1  0
  5 23  1  0
  7 24  1  0
  8 25  1  0
 10 26  1  0
 10 27  1  0
 12 28  1  0
 17 29  1  0
 17 30  1  0
M  CHG  1  20  -1
M  END
>  <UniqueID>  (11) 
11

>  <SMILES>  (11) 
NC(=O)c1cc2ccc(CF)cc2n1C(=O)CC(=O)[O-]

>  <Energy>  (11) 
67.92611146878491

>  <Genealogy>  (11) 
NC(=O)c1cc2ccc(CF)cc2n1C(=O)CC(=O)[O-] (protonated)
NC(=O)c1cc2ccc(CF)cc2n1C(=O)CC(=O)[O-] (3D coordinates assigned)
NC(=O)c1cc2ccc(CF)cc2n1C(=O)CC(=O)[O-] (optimized conformer: 67.92611146878491 kcal/mol)

>  <smiles>  (11) 
NC(=O)c1cc2ccc(CF)cc2n1C(=O)CC(=O)O

>  <score_type>  (11) 
oracle

>  <origin>  (11) 
adg

>  <m_score__min__energy>  (11) 
-5.9699999999999998

>  <m_primary>  (11) 
energy

$$$$
11:0
     RDKit          3D

 37 39  0  0  0  0  0  0  0  0999 V2000
  142.9270  161.2250  133.6900 N   0  0  0  0  0  0  0  0  0  0  0  0
  144.3280  161.4800  133.7520 C   0  0  0  0  0  0  0  0  0  0  0  0
  144.7330  162.6660  133.8850 O   0  0  0  0  0  0  0  0  0  0  0  0
  145.3090  160.3830  133.6120 C   0  0  0  0  0  0  0  0  0  0  0  0
  146.6830  160.5900  133.5090 C   0  0  0  0  0  0  0  0  0  0  0  0
  147.2270  159.3410  133.3150 C   0  0  0  0  0  0  0  0  0  0  0  0
  148.5560  158.9550  133.1740 C   0  0  0  0  0  0  0  0  0  0  0  0
  148.8340  157.5860  133.0280 C   0  0  0  0  0  0  0  0  0  0  0  0
  147.7840  156.6300  133.0170 C   0  0  0  0  0  0  0  0  0  0  0  0
  148.1000  155.1580  132.9230 C   0  0  0  0  0  0  0  0  0  0  0  0
  149.2970  154.9560  132.2600 F   0  0  0  0  0  0  0  0  0  0  0  0
  147.1040  154.4890  132.2330 F   0  0  0  0  0  0  0  0  0  0  0  0
  148.1960  154.6330  134.1980 F   0  0  0  0  0  0  0  0  0  0  0  0
  146.4480  157.0610  133.1880 C   0  0  0  0  0  0  0  0  0  0  0  0
  146.2000  158.4330  133.3110 C   0  0  0  0  0  0  0  0  0  0  0  0
  145.0170  159.0570  133.4950 N   0  0  0  0  0  0  0  0  0  0  0  0
  143.7350  158.4240  133.6230 C   0  0  0  0  0  0  0  0  0  0  0  0
  143.2120  157.8630  132.6230 O   0  0  0  0  0  0  0  0  0  0  0  0
  143.0510  158.4510  134.8830 N   0  0  0  0  0  0  0  0  0  0  0  0
  141.6030  158.5600  135.0910 C   0  0  2  0  0  0  0  0  0  0  0  0
  141.2550  159.4090  136.3170 C   0  0  0  0  0  0  0  0  0  0  0  0
  140.2650  158.6770  137.1090 N   0  0  0  0  0  0  0  0  0  0  0  0
  140.4090  157.2680  136.7450 C   0  0  0  0  0  0  0  0  0  0  0  0
  140.9260  157.2110  135.3170 C   0  0  2  0  0  0  0  0  0  0  0  0
  141.7800  156.1350  135.1360 F   0  0  0  0  0  0  0  0  0  0  0  0
  142.5560  160.2510  133.7520 H   0  0  0  0  0  0  0  0  0  0  0  0
  147.2192  161.5485  133.5699 H   0  0  0  0  0  0  0  0  0  0  0  0
  149.3653  159.7000  133.1768 H   0  0  0  0  0  0  0  0  0  0  0  0
  149.8762  157.2508  132.9210 H   0  0  0  0  0  0  0  0  0  0  0  0
  145.6227  156.3347  133.2235 H   0  0  0  0  0  0  0  0  0  0  0  0
  141.2391  159.0246  134.1627 H   0  0  0  0  0  0  0  0  0  0  0  0
  142.1591  159.5836  136.9188 H   0  0  0  0  0  0  0  0  0  0  0  0
  140.8496  160.3827  136.0045 H   0  0  0  0  0  0  0  0  0  0  0  0
  139.3130  158.9880  136.8000 H   0  0  0  0  0  0  0  0  0  0  0  0
  141.1235  156.7771  137.4221 H   0  0  0  0  0  0  0  0  0  0  0  0
  139.4431  156.7481  136.8264 H   0  0  0  0  0  0  0  0  0  0  0  0
  140.1245  157.0497  134.5811 H   0  0  0  0  0  0  0  0  0  0  0  0
  1  2  1  0
  2  3  2  0
  2  4  1  0
  4  5  2  0
  5  6  1  0
  6  7  2  0
  7  8  1  0
  8  9  2  0
  9 10  1  0
 10 11  1  0
 10 12  1  0
 10 13  1  0
  9 14  1  0
 14 15  2  0
 15 16  1  0
 16 17  1  0
 17 18  2  0
 17 19  1  0
 19 20  1  0
 20 21  1  0
 21 22  1  0
 22 23  1  0
 23 24  1  0
 24 25  1  0
 16  4  1  0
 24 20  1  0
 15  6  1  0
  1 26  1  0
  5 27  1  0
  7 28  1  0
  8 29  1  0
 14 30  1  0
 20 31  1  6
 21 32  1  0
 21 33  1  0
 22 34  1  0
 23 35  1  0
 23 36  1  0
 24 37  1  6
M  CHG  2   1  -1  19  -1
M  END
>  <UniqueID>  (12) 
12

>  <SMILES>  (12) 
[NH-]C(=O)c1cc2ccc(C(F)(F)F)cc2n1C(=O)[N-][C@@H]1CNC[C@@H]1F

>  <Energy>  (12) 
80.24152806372737

>  <Genealogy>  (12) 
[NH-]C(=O)c1cc2ccc(C(F)(F)F)cc2n1C(=O)[N-][C@@H]1CNCC1F (protonated)
[NH-]C(=O)c1cc2ccc(C(F)(F)F)cc2n1C(=O)[N-][C@@H]1CNC[C@@H]1F (chirality)
[NH-]C(=O)c1cc2ccc(C(F)(F)F)cc2n1C(=O)[N-][C@@H]1CNC[C@@H]1F (3D coordinates assigned)
[NH-]C(=O)c1cc2ccc(C(F)(F)F)cc2n1C(=O)[N-][C@@H]1CNC[C@@H]1F (nonaromatic ring conformer: 80.24152806372737 kcal/mol)

>  <smiles>  (12) 
NC(=O)c1cc2ccc(C(F)(F)F)cc2n1C(=O)N[C@@H]1CNCC1F

>  <score_type>  (12) 
oracle

>  <origin>  (12) 
adg

>  <m_score__min__energy>  (12) 
-7.1399999999999997

>  <m_primary>  (12) 
energy

$$$$
12:0
     RDKit          3D

 34 35  0  0  0  0  0  0  0  0999 V2000
  148.5320  157.9500  133.9850 N   0  0  0  0  0  0  0  0  0  0  0  0
  147.6750  158.4080  132.9410 C   0  0  0  0  0  0  0  0  0  0  0  0
  148.1340  158.5110  131.7710 O   0  0  0  0  0  0  0  0  0  0  0  0
  146.2490  158.7120  133.1870 C   0  0  0  0  0  0  0  0  0  0  0  0
  145.7450  160.0080  133.2320 C   0  0  0  0  0  0  0  0  0  0  0  0
  144.4070  159.8680  133.5200 C   0  0  0  0  0  0  0  0  0  0  0  0
  143.4390  160.8410  133.7380 C   0  0  0  0  0  0  0  0  0  0  0  0
  142.1520  160.4190  134.1100 C   0  0  0  0  0  0  0  0  0  0  0  0
  141.8560  159.0400  134.2600 C   0  0  0  0  0  0  0  0  0  0  0  0
  140.4950  158.6030  134.7360 C   0  0  0  0  0  0  0  0  0  0  0  0
  140.1990  159.1740  135.9610 F   0  0  0  0  0  0  0  0  0  0  0  0
  140.4770  157.2270  134.8630 F   0  0  0  0  0  0  0  0  0  0  0  0
  139.5170  158.9860  133.8340 F   0  0  0  0  0  0  0  0  0  0  0  0
  142.8800  158.0840  134.0600 C   0  0  0  0  0  0  0  0  0  0  0  0
  144.1430  158.5280  133.6480 C   0  0  0  0  0  0  0  0  0  0  0  0
  145.2640  157.8000  133.4310 N   0  0  0  0  0  0  0  0  0  0  0  0
  145.4150  156.3780  133.5890 C   0  0  0  0  0  0  0  0  0  0  0  0
  144.9120  155.8080  134.5960 O   0  0  0  0  0  0  0  0  0  0  0  0
  146.1330  155.5520  132.5580 C   0  0  0  0  0  0  0  0  0  0  0  0
  147.7250  154.9270  133.1860 P   0  0  1  0  0  0  0  0  0  0  0  0
  147.9420  153.5110  132.7070 O   0  0  0  0  0  0  0  0  0  0  0  0
  148.9960  155.9060  132.6430 O   0  0  0  0  0  0  0  0  0  0  0  0
  147.6930  154.9330  134.9730 C   0  0  0  0  0  0  0  0  0  0  0  0
  148.0240  155.9680  135.6060 O   0  0  0  0  0  0  0  0  0  0  0  0
  147.3490  153.7790  135.6640 O   0  0  0  0  0  0  0  0  0  0  0  0
  149.5470  157.7950  133.8000 H   0  0  0  0  0  0  0  0  0  0  0  0
  148.1470  157.6680  134.9110 H   0  0  0  0  0  0  0  0  0  0  0  0
  146.2984  160.9450  133.0715 H   0  0  0  0  0  0  0  0  0  0  0  0
  143.6736  161.9095  133.6227 H   0  0  0  0  0  0  0  0  0  0  0  0
  141.3647  161.1665  134.2870 H   0  0  0  0  0  0  0  0  0  0  0  0
  142.6880  157.0135  134.2248 H   0  0  0  0  0  0  0  0  0  0  0  0
  145.4986  154.6972  132.2809 H   0  0  0  0  0  0  0  0  0  0  0  0
  146.3352  156.1913  131.6860 H   0  0  0  0  0  0  0  0  0  0  0  0
  148.6260  156.3910  131.8620 H   0  0  0  0  0  0  0  0  0  0  0  0
  1  2  1  0
  2  3  2  0
  2  4  1  0
  4  5  2  0
  5  6  1  0
  6  7  2  0
  7  8  1  0
  8  9  2  0
  9 10  1  0
 10 11  1  0
 10 12  1  0
 10 13  1  0
  9 14  1  0
 14 15  2  0
 15 16  1  0
 16 17  1  0
 17 18  2  0
 17 19  1  0
 19 20  1  0
 20 21  2  0
 20 22  1  1
 20 23  1  0
 23 24  2  0
 23 25  1  0
 16  4  1  0
 15  6  1  0
  1 26  1  0
  1 27  1  0
  5 28  1  0
  7 29  1  0
  8 30  1  0
 14 31  1  0
 19 32  1  0
 19 33  1  0
 22 34  1  0
M  CHG  1  25  -1
M  END
>  <UniqueID>  (13) 
13

>  <SMILES>  (13) 
NC(=O)c1cc2ccc(C(F)(F)F)cc2n1C(=O)C[P@@](=O)(O)C(=O)[O-]

>  <Energy>  (13) 
68.32555094957293

>  <Genealogy>  (13) 
NC(=O)c1cc2ccc(C(F)(F)F)cc2n1C(=O)CP(=O)(O)C(=O)[O-] (protonated)
NC(=O)c1cc2ccc(C(F)(F)F)cc2n1C(=O)C[P@@](=O)(O)C(=O)[O-] (chirality)
NC(=O)c1cc2ccc(C(F)(F)F)cc2n1C(=O)C[P@@](=O)(O)C(=O)[O-] (3D coordinates assigned)
NC(=O)c1cc2ccc(C(F)(F)F)cc2n1C(=O)C[P@@](=O)(O)C(=O)[O-] (optimized conformer: 68.32555094957293 kcal/mol)

>  <smiles>  (13) 
NC(=O)c1cc2ccc(C(F)(F)F)cc2n1C(=O)CP(=O)(O)C(=O)O

>  <score_type>  (13) 
oracle

>  <origin>  (13) 
adg

>  <m_score__min__energy>  (13) 
-6.2300000000000004

>  <m_primary>  (13) 
energy

$$$$
13:0
     RDKit          3D

 52 54  0  0  0  0  0  0  0  0999 V2000
  138.7240  149.5940  131.3300 C   0  0  0  0  0  0  0  0  0  0  0  0
  139.5790  149.9320  132.4820 N   0  0  0  0  0  0  0  0  0  0  0  0
  140.5810  148.8560  132.7380 C   0  0  0  0  0  0  0  0  0  0  0  0
  141.9930  149.2560  132.2980 C   0  0  0  0  0  0  0  0  0  0  0  0
  142.4320  150.4550  133.0410 N   0  0  0  0  0  0  0  0  0  0  0  0
  143.7520  150.9740  132.6180 C   0  0  0  0  0  0  0  0  0  0  0  0
  144.0830  152.3740  133.1700 C   0  0  0  0  0  0  0  0  0  0  0  0
  143.6680  153.3600  132.2460 O   0  0  0  0  0  0  0  0  0  0  0  0
  144.6010  154.4180  132.2210 C   0  0  0  0  0  0  0  0  0  0  0  0
  144.5350  155.1610  133.5190 C   0  0  0  0  0  0  0  0  0  0  0  0
  144.9310  154.5990  134.5760 O   0  0  0  0  0  0  0  0  0  0  0  0
  144.0340  156.5070  133.5730 N   0  0  0  0  0  0  0  0  0  0  0  0
  142.7450  156.9020  133.7740 C   0  0  0  0  0  0  0  0  0  0  0  0
  141.5710  156.0090  133.8690 C   0  0  0  0  0  0  0  0  0  0  0  0
  141.7560  154.6180  134.1230 N   0  0  0  0  0  0  0  0  0  0  0  0
  140.4030  156.4640  133.7500 O   0  0  0  0  0  0  0  0  0  0  0  0
  142.6630  158.2930  133.8170 C   0  0  0  0  0  0  0  0  0  0  0  0
  143.9520  158.7400  133.6360 C   0  0  0  0  0  0  0  0  0  0  0  0
  144.4510  160.0380  133.5960 C   0  0  0  0  0  0  0  0  0  0  0  0
  145.8340  160.2060  133.4160 C   0  0  0  0  0  0  0  0  0  0  0  0
  146.6940  159.0840  133.3070 C   0  0  0  0  0  0  0  0  0  0  0  0
  148.1700  159.2860  133.0760 C   0  0  0  0  0  0  0  0  0  0  0  0
  148.8570  159.3280  134.2780 F   0  0  0  0  0  0  0  0  0  0  0  0
  148.3960  160.4750  132.4040 F   0  0  0  0  0  0  0  0  0  0  0  0
  148.6570  158.2380  132.3170 F   0  0  0  0  0  0  0  0  0  0  0  0
  146.1440  157.7810  133.3310 C   0  0  0  0  0  0  0  0  0  0  0  0
  144.7610  157.6430  133.4930 C   0  0  0  0  0  0  0  0  0  0  0  0
  141.3900  151.4990  133.2080 C   0  0  0  0  0  0  0  0  0  0  0  0
  140.1820  151.2750  132.2830 C   0  0  0  0  0  0  0  0  0  0  0  0
  137.7575  149.2119  131.6903 H   0  0  0  0  0  0  0  0  0  0  0  0
  138.5580  150.4942  130.7200 H   0  0  0  0  0  0  0  0  0  0  0  0
  139.2184  148.8237  130.7200 H   0  0  0  0  0  0  0  0  0  0  0  0
  138.9500  149.9890  133.3200 H   0  0  0  0  0  0  0  0  0  0  0  0
  140.5958  148.6363  133.8157 H   0  0  0  0  0  0  0  0  0  0  0  0
  140.2839  147.9745  132.1509 H   0  0  0  0  0  0  0  0  0  0  0  0
  142.6867  148.4269  132.5014 H   0  0  0  0  0  0  0  0  0  0  0  0
  141.9861  149.4804  131.2212 H   0  0  0  0  0  0  0  0  0  0  0  0
  144.5261  150.2738  132.9651 H   0  0  0  0  0  0  0  0  0  0  0  0
  143.7215  151.0638  131.5221 H   0  0  0  0  0  0  0  0  0  0  0  0
  143.5585  152.5240  134.1252 H   0  0  0  0  0  0  0  0  0  0  0  0
  145.1684  152.4563  133.3281 H   0  0  0  0  0  0  0  0  0  0  0  0
  145.6138  154.0126  132.0799 H   0  0  0  0  0  0  0  0  0  0  0  0
  144.3648  155.1005  131.3912 H   0  0  0  0  0  0  0  0  0  0  0  0
  142.6990  154.1790  134.0380 H   0  0  0  0  0  0  0  0  0  0  0  0
  141.7599  158.9036  133.9643 H   0  0  0  0  0  0  0  0  0  0  0  0
  143.7834  160.9058  133.7020 H   0  0  0  0  0  0  0  0  0  0  0  0
  146.2550  161.2206  133.3589 H   0  0  0  0  0  0  0  0  0  0  0  0
  146.7889  156.8962  133.2247 H   0  0  0  0  0  0  0  0  0  0  0  0
  141.0426  151.4876  134.2516 H   0  0  0  0  0  0  0  0  0  0  0  0
  141.8400  152.4672  132.9434 H   0  0  0  0  0  0  0  0  0  0  0  0
  139.4227  152.0418  132.4963 H   0  0  0  0  0  0  0  0  0  0  0  0
  140.5301  151.3437  131.2418 H   0  0  0  0  0  0  0  0  0  0  0  0
  1  2  1  0
  2  3  1  0
  3  4  1  0
  4  5  1  0
  5  6  1  0
  6  7  1  0
  7  8  1  0
  8  9  1  0
  9 10  1  0
 10 11  2  0
 10 12  1  0
 12 13  1  0
 13 14  1  0
 14 15  1  0
 14 16  2  0
 13 17  2  0
 17 18  1  0
 18 19  2  0
 19 20  1  0
 20 21  2  0
 21 22  1  0
 22 23  1  0
 22 24  1  0
 22 25  1  0
 21 26  1  0
 26 27  2  0
  5 28  1  0
 28 29  1  0
 29  2  1  0
 27 12  1  0
 27 18  1  0
  1 30  1  0
  1 31  1  0
  1 32  1  0
  2 33  1  0
  3 34  1  0
  3 35  1  0
  4 36  1  0
  4 37  1  0
  6 38  1  0
  6 39  1  0
  7 40  1  0
  7 41  1  0
  9 42  1  0
  9 43  1  0
 15 44  1  0
 17 45  1  0
 19 46  1  0
 20 47  1  0
 26 48  1  0
 28 49  1  0
 28 50  1  0
 29 51  1  0
 29 52  1  0
M  CHG  2   2   1  15  -1
M  END
>  <UniqueID>  (14) 
14

>  <SMILES>  (14) 
C[NH+]1CCN(CCOCC(=O)n2c(C([NH-])=O)cc3ccc(C(F)(F)F)cc32)CC1

>  <Energy>  (14) 
107.2760102647311

>  <Genealogy>  (14) 
C[NH+]1CCN(CCOCC(=O)n2c(C([NH-])=O)cc3ccc(C(F)(F)F)cc32)CC1 (protonated)
C[NH+]1CCN(CCOCC(=O)n2c(C([NH-])=O)cc3ccc(C(F)(F)F)cc32)CC1 (3D coordinates assigned)
C[NH+]1CCN(CCOCC(=O)n2c(C([NH-])=O)cc3ccc(C(F)(F)F)cc32)CC1 (nonaromatic ring conformer: 107.2760102647311 kcal/mol)

>  <smiles>  (14) 
CN1CCN(CCOCC(=O)n2c(C(N)=O)cc3ccc(C(F)(F)F)cc32)CC1

>  <score_type>  (14) 
oracle

>  <origin>  (14) 
adg

>  <m_score__min__energy>  (14) 
-6.96

>  <m_primary>  (14) 
energy

$$$$
14:0
     RDKit          3D

 47 48  0  0  0  0  0  0  0  0999 V2000
  144.4540  155.0340  132.4940 C   0  0  0  0  0  0  0  0  0  0  0  0
  143.2280  155.7290  132.8970 N   0  0  0  0  0  0  0  0  0  0  0  0
  143.0950  157.1630  132.6150 C   0  0  0  0  0  0  0  0  0  0  0  0
  143.5950  158.0030  133.7950 C   0  0  0  0  0  0  0  0  0  0  0  0
  143.8520  159.4510  133.3700 C   0  0  0  0  0  0  0  0  0  0  0  0
  142.6520  160.0630  132.9820 O   0  0  0  0  0  0  0  0  0  0  0  0
  142.2900  155.0820  133.7790 C   0  0  0  0  0  0  0  0  0  0  0  0
  142.6380  154.7940  134.9570 O   0  0  0  0  0  0  0  0  0  0  0  0
  140.9530  154.7790  133.3400 N   0  0  0  0  0  0  0  0  0  0  0  0
  140.6100  153.3980  132.9910 C   0  0  0  0  0  0  0  0  0  0  0  0
  139.9130  155.7770  133.4030 C   0  0  0  0  0  0  0  0  0  0  0  0
  138.7540  155.5040  132.9900 O   0  0  0  0  0  0  0  0  0  0  0  0
  140.1780  157.0910  133.9260 N   0  0  0  0  0  0  0  0  0  0  0  0
  140.0190  158.2900  133.3000 C   0  0  0  0  0  0  0  0  0  0  0  0
  139.6770  158.4840  131.8760 C   0  0  0  0  0  0  0  0  0  0  0  0
  138.5250  157.8700  131.2980 N   0  0  0  0  0  0  0  0  0  0  0  0
  140.4370  159.1750  131.1470 O   0  0  0  0  0  0  0  0  0  0  0  0
  140.2340  159.3380  134.1920 C   0  0  0  0  0  0  0  0  0  0  0  0
  140.5500  158.7380  135.3890 C   0  0  0  0  0  0  0  0  0  0  0  0
  140.8450  159.3040  136.6250 C   0  0  0  0  0  0  0  0  0  0  0  0
  141.0970  158.4370  137.7030 C   0  0  0  0  0  0  0  0  0  0  0  0
  141.0270  157.0300  137.5350 C   0  0  0  0  0  0  0  0  0  0  0  0
  141.3320  156.1090  138.6900 C   0  0  0  0  0  0  0  0  0  0  0  0
  140.2210  155.3510  139.0140 F   0  0  0  0  0  0  0  0  0  0  0  0
  142.3670  155.2640  138.3360 F   0  0  0  0  0  0  0  0  0  0  0  0
  141.7030  156.8340  139.8090 F   0  0  0  0  0  0  0  0  0  0  0  0
  140.7470  156.4940  136.2560 C   0  0  0  0  0  0  0  0  0  0  0  0
  140.5130  157.3820  135.2010 C   0  0  0  0  0  0  0  0  0  0  0  0
  145.0087  154.7195  133.3903 H   0  0  0  0  0  0  0  0  0  0  0  0
  144.1937  154.1491  131.8946 H   0  0  0  0  0  0  0  0  0  0  0  0
  145.0796  155.7118  131.8946 H   0  0  0  0  0  0  0  0  0  0  0  0
  143.6865  157.4103  131.7211 H   0  0  0  0  0  0  0  0  0  0  0  0
  142.0317  157.3904  132.4484 H   0  0  0  0  0  0  0  0  0  0  0  0
  142.8363  157.9915  134.5914 H   0  0  0  0  0  0  0  0  0  0  0  0
  144.5403  157.5714  134.1558 H   0  0  0  0  0  0  0  0  0  0  0  0
  144.2860  160.0059  134.2148 H   0  0  0  0  0  0  0  0  0  0  0  0
  144.5487  159.4565  132.5188 H   0  0  0  0  0  0  0  0  0  0  0  0
  142.3030  159.5390  132.2140 H   0  0  0  0  0  0  0  0  0  0  0  0
  140.4646  152.8126  133.9109 H   0  0  0  0  0  0  0  0  0  0  0  0
  139.6823  153.3888  132.4000 H   0  0  0  0  0  0  0  0  0  0  0  0
  141.4256  152.9558  132.4000 H   0  0  0  0  0  0  0  0  0  0  0  0
  138.2660  158.0740  130.3080 H   0  0  0  0  0  0  0  0  0  0  0  0
  137.9820  157.1430  131.8130 H   0  0  0  0  0  0  0  0  0  0  0  0
  140.1657  160.4159  133.9837 H   0  0  0  0  0  0  0  0  0  0  0  0
  140.8800  160.3957  136.7550 H   0  0  0  0  0  0  0  0  0  0  0  0
  141.3514  158.8547  138.6883 H   0  0  0  0  0  0  0  0  0  0  0  0
  140.7141  155.4063  136.0953 H   0  0  0  0  0  0  0  0  0  0  0  0
  1  2  1  0
  2  3  1  0
  3  4  1  0
  4  5  1  0
  5  6  1  0
  2  7  1  0
  7  8  2  0
  7  9  1  0
  9 10  1  0
  9 11  1  0
 11 12  2  0
 11 13  1  0
 13 14  1  0
 14 15  1  0
 15 16  1  0
 15 17  2  0
 14 18  2  0
 18 19  1  0
 19 20  2  0
 20 21  1  0
 21 22  2  0
 22 23  1  0
 23 24  1  0
 23 25  1  0
 23 26  1  0
 22 27  1  0
 27 28  2  0
 28 13  1  0
 28 19  1  0
  1 29  1  0
  1 30  1  0
  1 31  1  0
  3 32  1  0
  3 33  1  0
  4 34  1  0
  4 35  1  0
  5 36  1  0
  5 37  1  0
  6 38  1  0
 10 39  1  0
 10 40  1  0
 10 41  1  0
 16 42  1  0
 16 43  1  0
 18 44  1  0
 20 45  1  0
 21 46  1  0
 27 47  1  0
M  END
>  <UniqueID>  (15) 
15

>  <SMILES>  (15) 
CN(CCCO)C(=O)N(C)C(=O)n1c(C(N)=O)cc2ccc(C(F)(F)F)cc21

>  <Energy>  (15) 
83.28280246633005

>  <Genealogy>  (15) 
CN(CCCO)C(=O)N(C)C(=O)n1c(C(N)=O)cc2ccc(C(F)(F)F)cc21 (3D coordinates assigned)
CN(CCCO)C(=O)N(C)C(=O)n1c(C(N)=O)cc2ccc(C(F)(F)F)cc21 (optimized conformer: 83.28280246633005 kcal/mol)

>  <smiles>  (15) 
CN(CCCO)C(=O)N(C)C(=O)n1c(C(N)=O)cc2ccc(C(F)(F)F)cc21

>  <score_type>  (15) 
oracle

>  <origin>  (15) 
adg

>  <m_score__min__energy>  (15) 
-6.7699999999999996

>  <m_primary>  (15) 
energy

$$$$
15:0
     RDKit          3D

 53 54  0  0  0  0  0  0  0  0999 V2000
  139.1050  146.6620  129.9790 C   0  0  0  0  0  0  0  0  0  0  0  0
  139.1910  147.9090  130.7620 N   0  0  0  0  0  0  0  0  0  0  0  0
  138.2260  148.8870  130.2340 C   0  0  0  0  0  0  0  0  0  0  0  0
  140.5590  148.4730  130.7190 C   0  0  0  0  0  0  0  0  0  0  0  0
  140.9380  149.1520  132.0470 C   0  0  0  0  0  0  0  0  0  0  0  0
  142.4310  149.4800  132.1520 C   0  0  0  0  0  0  0  0  0  0  0  0
  142.6470  150.6080  133.0480 N   0  0  0  0  0  0  0  0  0  0  0  0
  143.6610  151.5930  132.8290 C   0  0  0  0  0  0  0  0  0  0  0  0
  144.7480  151.2740  132.2750 O   0  0  0  0  0  0  0  0  0  0  0  0
  143.4250  153.0240  133.2140 C   0  0  0  0  0  0  0  0  0  0  0  0
  144.5650  153.8700  132.8260 N   0  0  0  0  0  0  0  0  0  0  0  0
  144.6210  154.4550  131.4830 C   0  0  0  0  0  0  0  0  0  0  0  0
  145.5890  154.2000  133.7870 C   0  0  0  0  0  0  0  0  0  0  0  0
  145.3970  153.9880  135.0160 O   0  0  0  0  0  0  0  0  0  0  0  0
  146.8450  154.7470  133.3600 N   0  0  0  0  0  0  0  0  0  0  0  0
  147.9730  154.0680  133.0030 C   0  0  0  0  0  0  0  0  0  0  0  0
  148.1060  152.5900  132.9710 C   0  0  0  0  0  0  0  0  0  0  0  0
  147.2890  151.7910  132.1100 N   0  0  0  0  0  0  0  0  0  0  0  0
  148.9380  152.0120  133.7190 O   0  0  0  0  0  0  0  0  0  0  0  0
  148.9710  154.9650  132.6170 C   0  0  0  0  0  0  0  0  0  0  0  0
  148.4080  156.2170  132.7430 C   0  0  0  0  0  0  0  0  0  0  0  0
  148.9440  157.4700  132.4680 C   0  0  0  0  0  0  0  0  0  0  0  0
  148.1270  158.5940  132.6730 C   0  0  0  0  0  0  0  0  0  0  0  0
  146.8050  158.4510  133.1700 C   0  0  0  0  0  0  0  0  0  0  0  0
  145.9290  159.6660  133.3450 C   0  0  0  0  0  0  0  0  0  0  0  0
  146.6270  160.6900  133.9630 F   0  0  0  0  0  0  0  0  0  0  0  0
  145.5000  160.1020  132.1040 F   0  0  0  0  0  0  0  0  0  0  0  0
  144.8260  159.3670  134.1230 F   0  0  0  0  0  0  0  0  0  0  0  0
  146.2870  157.1550  133.4110 C   0  0  0  0  0  0  0  0  0  0  0  0
  147.1240  156.0570  133.1890 C   0  0  0  0  0  0  0  0  0  0  0  0
  139.0457  145.8028  130.6633 H   0  0  0  0  0  0  0  0  0  0  0  0
  138.2065  146.6884  129.3449 H   0  0  0  0  0  0  0  0  0  0  0  0
  139.9986  146.5648  129.3449 H   0  0  0  0  0  0  0  0  0  0  0  0
  137.7243  149.3954  131.0705 H   0  0  0  0  0  0  0  0  0  0  0  0
  138.7556  149.6290  129.6184 H   0  0  0  0  0  0  0  0  0  0  0  0
  137.4769  148.3674  129.6184 H   0  0  0  0  0  0  0  0  0  0  0  0
  141.2730  147.6608  130.5176 H   0  0  0  0  0  0  0  0  0  0  0  0
  140.5912  149.2330  129.9244 H   0  0  0  0  0  0  0  0  0  0  0  0
  140.3672  150.0880  132.1366 H   0  0  0  0  0  0  0  0  0  0  0  0
  140.7008  148.4447  132.8554 H   0  0  0  0  0  0  0  0  0  0  0  0
  142.9675  148.6019  132.5407 H   0  0  0  0  0  0  0  0  0  0  0  0
  142.8069  149.7443  131.1526 H   0  0  0  0  0  0  0  0  0  0  0  0
  142.5186  153.3878  132.7080 H   0  0  0  0  0  0  0  0  0  0  0  0
  143.3048  153.0776  134.3061 H   0  0  0  0  0  0  0  0  0  0  0  0
  144.7255  155.5471  131.5628 H   0  0  0  0  0  0  0  0  0  0  0  0
  145.4838  154.0428  130.9392 H   0  0  0  0  0  0  0  0  0  0  0  0
  143.6957  154.2140  130.9392 H   0  0  0  0  0  0  0  0  0  0  0  0
  146.5430  152.2090  131.5150 H   0  0  0  0  0  0  0  0  0  0  0  0
  147.3980  150.7510  132.1030 H   0  0  0  0  0  0  0  0  0  0  0  0
  149.9909  154.7236  132.2830 H   0  0  0  0  0  0  0  0  0  0  0  0
  149.9755  157.5777  132.1014 H   0  0  0  0  0  0  0  0  0  0  0  0
  148.5163  159.5973  132.4456 H   0  0  0  0  0  0  0  0  0  0  0  0
  145.2543  157.0159  133.7633 H   0  0  0  0  0  0  0  0  0  0  0  0
  1  2  1  0
  2  3  1  0
  2  4  1  0
  4  5  1  0
  5  6  1  0
  6  7  1  0
  7  8  1  0
  8  9  2  0
  8 10  1  0
 10 11  1  0
 11 12  1  0
 11 13  1  0
 13 14  2  0
 13 15  1  0
 15 16  1  0
 16 17  1  0
 17 18  1  0
 17 19  2  0
 16 20  2  0
 20 21  1  0
 21 22  2  0
 22 23  1  0
 23 24  2  0
 24 25  1  0
 25 26  1  0
 25 27  1  0
 25 28  1  0
 24 29  1  0
 29 30  2  0
 30 15  1  0
 30 21  1  0
  1 31  1  0
  1 32  1  0
  1 33  1  0
  3 34  1  0
  3 35  1  0
  3 36  1  0
  4 37  1  0
  4 38  1  0
  5 39  1  0
  5 40  1  0
  6 41  1  0
  6 42  1  0
 10 43  1  0
 10 44  1  0
 12 45  1  0
 12 46  1  0
 12 47  1  0
 18 48  1  0
 18 49  1  0
 20 50  1  0
 22 51  1  0
 23 52  1  0
 29 53  1  0
M  CHG  1   7  -1
M  END
>  <UniqueID>  (16) 
16

>  <SMILES>  (16) 
CN(C)CCC[N-]C(=O)CN(C)C(=O)n1c(C(N)=O)cc2ccc(C(F)(F)F)cc21

>  <Energy>  (16) 
81.64328348132143

>  <Genealogy>  (16) 
CN(C)CCC[N-]C(=O)CN(C)C(=O)n1c(C(N)=O)cc2ccc(C(F)(F)F)cc21 (protonated)
CN(C)CCC[N-]C(=O)CN(C)C(=O)n1c(C(N)=O)cc2ccc(C(F)(F)F)cc21 (3D coordinates assigned)
CN(C)CCC[N-]C(=O)CN(C)C(=O)n1c(C(N)=O)cc2ccc(C(F)(F)F)cc21 (optimized conformer: 81.64328348132143 kcal/mol)

>  <smiles>  (16) 
CN(C)CCCNC(=O)CN(C)C(=O)n1c(C(N)=O)cc2ccc(C(F)(F)F)cc21

>  <score_type>  (16) 
oracle

>  <origin>  (16) 
adg

>  <m_score__min__energy>  (16) 
-7.5899999999999999

>  <m_primary>  (16) 
energy

$$$$
16:0
     RDKit          3D

 47 49  0  0  0  0  0  0  0  0999 V2000
  139.0340  148.6600  129.6040 C   0  0  0  0  0  0  0  0  0  0  0  0
  140.1730  148.1520  130.4820 C   0  0  0  0  0  0  0  0  0  0  0  0
  140.9130  149.2390  131.0360 O   0  0  0  0  0  0  0  0  0  0  0  0
  140.3890  150.1260  131.9840 C   0  0  0  0  0  0  0  0  0  0  0  0
  139.1920  150.0200  132.3680 O   0  0  0  0  0  0  0  0  0  0  0  0
  141.2180  151.1690  132.5120 N   0  0  0  0  0  0  0  0  0  0  0  0
  142.6650  151.0770  132.6140 C   0  0  0  0  0  0  0  0  0  0  0  0
  143.1290  152.4520  133.0770 C   0  0  0  0  0  0  0  0  0  0  0  0
  141.8810  153.1400  133.6420 C   0  0  1  0  0  0  0  0  0  0  0  0
  141.8980  154.5820  133.3730 N   0  0  0  0  0  0  0  0  0  0  0  0
  142.6230  155.4980  134.2030 C   0  0  0  0  0  0  0  0  0  0  0  0
  143.1620  155.0990  135.2710 O   0  0  0  0  0  0  0  0  0  0  0  0
  142.7360  156.8760  133.8230 N   0  0  0  0  0  0  0  0  0  0  0  0
  141.7300  157.7740  133.6320 C   0  0  0  0  0  0  0  0  0  0  0  0
  140.2830  157.4660  133.6370 C   0  0  0  0  0  0  0  0  0  0  0  0
  139.7510  156.4300  132.8160 N   0  0  0  0  0  0  0  0  0  0  0  0
  139.5040  158.1480  134.3550 O   0  0  0  0  0  0  0  0  0  0  0  0
  142.2510  159.0430  133.3810 C   0  0  0  0  0  0  0  0  0  0  0  0
  143.6190  158.8910  133.4300 C   0  0  0  0  0  0  0  0  0  0  0  0
  144.6320  159.8330  133.2790 C   0  0  0  0  0  0  0  0  0  0  0  0
  145.9630  159.4010  133.4270 C   0  0  0  0  0  0  0  0  0  0  0  0
  146.2540  158.0460  133.7420 C   0  0  0  0  0  0  0  0  0  0  0  0
  147.6760  157.5720  133.9010 C   0  0  0  0  0  0  0  0  0  0  0  0
  148.5070  158.5970  134.3210 F   0  0  0  0  0  0  0  0  0  0  0  0
  147.7280  156.5580  134.8420 F   0  0  0  0  0  0  0  0  0  0  0  0
  148.1340  157.0870  132.6910 F   0  0  0  0  0  0  0  0  0  0  0  0
  145.1960  157.1170  133.8680 C   0  0  0  0  0  0  0  0  0  0  0  0
  143.8850  157.5740  133.7000 C   0  0  0  0  0  0  0  0  0  0  0  0
  140.6930  152.4370  132.9840 C   0  0  0  0  0  0  0  0  0  0  0  0
  138.2149  149.0253  130.2410 H   0  0  0  0  0  0  0  0  0  0  0  0
  139.3986  149.4808  128.9689 H   0  0  0  0  0  0  0  0  0  0  0  0
  138.6669  147.8403  128.9689 H   0  0  0  0  0  0  0  0  0  0  0  0
  139.7548  147.5471  131.3000 H   0  0  0  0  0  0  0  0  0  0  0  0
  140.8502  147.5454  129.8628 H   0  0  0  0  0  0  0  0  0  0  0  0
  142.9505  150.3080  133.3469 H   0  0  0  0  0  0  0  0  0  0  0  0
  143.1242  150.7928  131.6557 H   0  0  0  0  0  0  0  0  0  0  0  0
  143.8997  152.3550  133.8558 H   0  0  0  0  0  0  0  0  0  0  0  0
  143.5745  153.0296  132.2537 H   0  0  0  0  0  0  0  0  0  0  0  0
  141.8266  153.0569  134.7375 H   0  0  0  0  0  0  0  0  0  0  0  0
  141.3410  154.9740  132.5810 H   0  0  0  0  0  0  0  0  0  0  0  0
  138.7250  156.3620  132.6340 H   0  0  0  0  0  0  0  0  0  0  0  0
  141.6891  159.9682  133.1855 H   0  0  0  0  0  0  0  0  0  0  0  0
  144.3993  160.8836  133.0508 H   0  0  0  0  0  0  0  0  0  0  0  0
  146.7862  160.1190  133.2976 H   0  0  0  0  0  0  0  0  0  0  0  0
  145.3991  156.0596  134.0929 H   0  0  0  0  0  0  0  0  0  0  0  0
  139.8877  152.2733  133.7153 H   0  0  0  0  0  0  0  0  0  0  0  0
  140.2616  153.0341  132.1671 H   0  0  0  0  0  0  0  0  0  0  0  0
  1  2  1  0
  2  3  1  0
  3  4  1  0
  4  5  2  0
  4  6  1  0
  6  7  1  0
  7  8  1  0
  8  9  1  0
  9 10  1  0
 10 11  1  0
 11 12  2  0
 11 13  1  0
 13 14  1  0
 14 15  1  0
 15 16  1  0
 15 17  2  0
 14 18  2  0
 18 19  1  0
 19 20  2  0
 20 21  1  0
 21 22  2  0
 22 23  1  0
 23 24  1  0
 23 25  1  0
 23 26  1  0
 22 27  1  0
 27 28  2  0
  9 29  1  0
 29  6  1  0
 28 13  1  0
 28 19  1  0
  1 30  1  0
  1 31  1  0
  1 32  1  0
  2 33  1  0
  2 34  1  0
  7 35  1  0
  7 36  1  0
  8 37  1  0
  8 38  1  0
  9 39  1  1
 10 40  1  0
 16 41  1  0
 18 42  1  0
 20 43  1  0
 21 44  1  0
 27 45  1  0
 29 46  1  0
 29 47  1  0
M  CHG  1  16  -1
M  END
>  <UniqueID>  (17) 
17

>  <SMILES>  (17) 
CCOC(=O)N1CC[C@@H](NC(=O)n2c(C([NH-])=O)cc3ccc(C(F)(F)F)cc32)C1

>  <Energy>  (17) 
81.58919611667032

>  <Genealogy>  (17) 
CCOC(=O)N1CCC(NC(=O)n2c(C([NH-])=O)cc3ccc(C(F)(F)F)cc32)C1 (protonated)
CCOC(=O)N1CC[C@@H](NC(=O)n2c(C([NH-])=O)cc3ccc(C(F)(F)F)cc32)C1 (chirality)
CCOC(=O)N1CC[C@@H](NC(=O)n2c(C([NH-])=O)cc3ccc(C(F)(F)F)cc32)C1 (3D coordinates assigned)
CCOC(=O)N1CC[C@@H](NC(=O)n2c(C([NH-])=O)cc3ccc(C(F)(F)F)cc32)C1 (nonaromatic ring conformer: 81.58919611667032 kcal/mol)

>  <smiles>  (17) 
CCOC(=O)N1CCC(NC(=O)n2c(C(N)=O)cc3ccc(C(F)(F)F)cc32)C1

>  <score_type>  (17) 
oracle

>  <origin>  (17) 
adg

>  <m_score__min__energy>  (17) 
-7.6799999999999997

>  <m_primary>  (17) 
energy

$$$$
17:0
     RDKit          3D

 75 79  0  0  0  0  0  0  0  0999 V2000
  138.5440  160.8750  130.9100 C   0  0  0  0  0  0  0  0  0  0  0  0
  138.9720  159.6280  131.7000 C   0  0  0  0  0  0  0  0  0  0  0  0
  137.7850  158.6490  131.7620 C   0  0  0  0  0  0  0  0  0  0  0  0
  140.1770  158.9800  130.9920 C   0  0  0  0  0  0  0  0  0  0  0  0
  139.3410  160.0650  133.0150 O   0  0  0  0  0  0  0  0  0  0  0  0
  140.6300  160.0410  133.5730 C   0  0  0  0  0  0  0  0  0  0  0  0
  141.2800  161.1090  133.7280 O   0  0  0  0  0  0  0  0  0  0  0  0
  141.2110  158.7840  133.9710 N   0  0  0  0  0  0  0  0  0  0  0  0
  140.4330  157.5410  133.9280 C   0  0  0  0  0  0  0  0  0  0  0  0
  141.0670  156.5780  132.9230 C   0  0  0  0  0  0  0  0  0  0  0  0
  142.5080  156.4590  133.1790 N   0  0  0  0  0  0  0  0  0  0  0  0
  143.1600  155.1880  132.9780 C   0  0  0  0  0  0  0  0  0  0  0  0
  143.9860  154.9580  131.8670 C   0  0  0  0  0  0  0  0  0  0  0  0
  144.6190  153.7620  131.7350 N   0  0  0  0  0  0  0  0  0  0  0  0
  144.4760  152.7770  132.6680 C   0  0  0  0  0  0  0  0  0  0  0  0
  145.2250  151.4760  132.5260 C   0  0  0  0  0  0  0  0  0  0  0  0
  146.7200  151.6880  132.4360 C   0  0  0  0  0  0  0  0  0  0  0  0
  147.2710  152.9740  132.6050 C   0  0  0  0  0  0  0  0  0  0  0  0
  148.6610  153.1750  132.5660 C   0  0  0  0  0  0  0  0  0  0  0  0
  149.2270  154.5380  132.7000 C   0  0  0  0  0  0  0  0  0  0  0  0
  150.3790  154.7870  132.2500 O   0  0  0  0  0  0  0  0  0  0  0  0
  148.5010  155.5780  133.3730 N   0  0  0  0  0  0  0  0  0  0  0  0
  147.7430  155.4730  134.5000 C   0  0  0  0  0  0  0  0  0  0  0  0
  147.4570  154.2210  135.2310 C   0  0  0  0  0  0  0  0  0  0  0  0
  146.1050  153.8260  135.4630 N   0  0  0  0  0  0  0  0  0  0  0  0
  148.3940  153.4850  135.6390 O   0  0  0  0  0  0  0  0  0  0  0  0
  147.2240  156.7180  134.8540 C   0  0  0  0  0  0  0  0  0  0  0  0
  147.6900  157.5920  133.8960 C   0  0  0  0  0  0  0  0  0  0  0  0
  147.4900  158.9610  133.7550 C   0  0  0  0  0  0  0  0  0  0  0  0
  148.1080  159.6090  132.6710 C   0  0  0  0  0  0  0  0  0  0  0  0
  148.9330  158.8890  131.7660 C   0  0  0  0  0  0  0  0  0  0  0  0
  149.5640  159.5870  130.5890 C   0  0  0  0  0  0  0  0  0  0  0  0
  149.1350  160.9010  130.5150 F   0  0  0  0  0  0  0  0  0  0  0  0
  149.2270  158.9550  129.4030 F   0  0  0  0  0  0  0  0  0  0  0  0
  150.9380  159.5690  130.7330 F   0  0  0  0  0  0  0  0  0  0  0  0
  149.0900  157.4930  131.9310 C   0  0  0  0  0  0  0  0  0  0  0  0
  148.4540  156.8760  133.0130 C   0  0  0  0  0  0  0  0  0  0  0  0
  149.5060  152.0660  132.3840 C   0  0  0  0  0  0  0  0  0  0  0  0
  148.9700  150.7870  132.2310 C   0  0  0  0  0  0  0  0  0  0  0  0
  147.5880  150.5920  132.2620 C   0  0  0  0  0  0  0  0  0  0  0  0
  147.1000  149.3350  132.1220 F   0  0  0  0  0  0  0  0  0  0  0  0
  143.6550  153.0080  133.7780 C   0  0  0  0  0  0  0  0  0  0  0  0
  143.0230  154.2030  133.9070 N   0  0  0  0  0  0  0  0  0  0  0  0
  143.2920  157.7040  133.2800 C   0  0  0  0  0  0  0  0  0  0  0  0
  142.6390  158.6560  134.2840 C   0  0  0  0  0  0  0  0  0  0  0  0
  138.2689  161.6767  131.6112 H   0  0  0  0  0  0  0  0  0  0  0  0
  139.3779  161.2120  130.2767 H   0  0  0  0  0  0  0  0  0  0  0  0
  137.6789  160.6288  130.2767 H   0  0  0  0  0  0  0  0  0  0  0  0
  137.5346  158.4425  132.8130 H   0  0  0  0  0  0  0  0  0  0  0  0
  136.9148  159.0955  131.2586 H   0  0  0  0  0  0  0  0  0  0  0  0
  138.0577  157.7097  131.2586 H   0  0  0  0  0  0  0  0  0  0  0  0
  140.8836  158.6000  131.7446 H   0  0  0  0  0  0  0  0  0  0  0  0
  139.8285  158.1476  130.3630 H   0  0  0  0  0  0  0  0  0  0  0  0
  140.6793  159.7297  130.3630 H   0  0  0  0  0  0  0  0  0  0  0  0
  140.4262  157.0778  134.9257 H   0  0  0  0  0  0  0  0  0  0  0  0
  139.4007  157.7647  133.6209 H   0  0  0  0  0  0  0  0  0  0  0  0
  140.5970  155.5883  133.0210 H   0  0  0  0  0  0  0  0  0  0  0  0
  140.9127  156.9662  131.9054 H   0  0  0  0  0  0  0  0  0  0  0  0
  144.1206  155.7415  131.1067 H   0  0  0  0  0  0  0  0  0  0  0  0
  145.2410  153.6080  130.9080 H   0  0  0  0  0  0  0  0  0  0  0  0
  145.0081  150.8445  133.4001 H   0  0  0  0  0  0  0  0  0  0  0  0
  144.8941  150.9942  131.5941 H   0  0  0  0  0  0  0  0  0  0  0  0
  146.6034  153.8326  132.7698 H   0  0  0  0  0  0  0  0  0  0  0  0
  145.3380  154.1370  134.8290 H   0  0  0  0  0  0  0  0  0  0  0  0
  146.5800  156.9524  135.7144 H   0  0  0  0  0  0  0  0  0  0  0  0
  146.8675  159.5196  134.4695 H   0  0  0  0  0  0  0  0  0  0  0  0
  147.9506  160.6874  132.5218 H   0  0  0  0  0  0  0  0  0  0  0  0
  149.6974  156.9070  131.2256 H   0  0  0  0  0  0  0  0  0  0  0  0
  150.5966  152.2077  132.3621 H   0  0  0  0  0  0  0  0  0  0  0  0
  149.6403  149.9271  132.0851 H   0  0  0  0  0  0  0  0  0  0  0  0
  143.5226  152.2266  134.5408 H   0  0  0  0  0  0  0  0  0  0  0  0
  144.3122  157.4654  133.6152 H   0  0  0  0  0  0  0  0  0  0  0  0
  143.3263  158.1891  132.2934 H   0  0  0  0  0  0  0  0  0  0  0  0
  142.7579  158.2554  135.3015 H   0  0  0  0  0  0  0  0  0  0  0  0
  143.1201  159.6433  134.2231 H   0  0  0  0  0  0  0  0  0  0  0  0
  1  2  1  0
  2  3  1  0
  2  4  1  0
  2  5  1  0
  5  6  1  0
  6  7  2  0
  6  8  1  0
  8  9  1  0
  9 10  1  0
 10 11  1  0
 11 12  1  0
 12 13  2  0
 13 14  1  0
 14 15  2  0
 15 16  1  0
 16 17  1  0
 17 18  2  0
 18 19  1  0
 19 20  1  0
 20 21  2  0
 20 22  1  0
 22 23  1  0
 23 24  1  0
 24 25  1  0
 24 26  2  0
 23 27  2  0
 27 28  1  0
 28 29  2  0
 29 30  1  0
 30 31  2  0
 31 32  1  0
 32 33  1  0
 32 34  1  0
 32 35  1  0
 31 36  1  0
 36 37  2  0
 19 38  2  0
 38 39  1  0
 39 40  2  0
 40 41  1  0
 15 42  1  0
 42 43  2  0
 11 44  1  0
 44 45  1  0
 45  8  1  0
 43 12  1  0
 40 17  1  0
 37 22  1  0
 37 28  1  0
  1 46  1  0
  1 47  1  0
  1 48  1  0
  3 49  1  0
  3 50  1  0
  3 51  1  0
  4 52  1  0
  4 53  1  0
  4 54  1  0
  9 55  1  0
  9 56  1  0
 10 57  1  0
 10 58  1  0
 13 59  1  0
 14 60  1  0
 16 61  1  0
 16 62  1  0
 18 63  1  0
 25 64  1  0
 27 65  1  0
 29 66  1  0
 30 67  1  0
 36 68  1  0
 38 69  1  0
 39 70  1  0
 42 71  1  0
 44 72  1  0
 44 73  1  0
 45 74  1  0
 45 75  1  0
M  CHG  2  14   1  25  -1
M  END
>  <UniqueID>  (18) 
18

>  <SMILES>  (18) 
CC(C)(C)OC(=O)N1CCN(c2c[nH+]c(Cc3cc(C(=O)n4c(C([NH-])=O)cc5ccc(C(F)(F)F)cc54)ccc3F)cn2)CC1

>  <Energy>  (18) 
121.76341865799553

>  <Genealogy>  (18) 
CC(C)(C)OC(=O)N1CCN(c2c[nH+]c(Cc3cc(C(=O)n4c(C([NH-])=O)cc5ccc(C(F)(F)F)cc54)ccc3F)cn2)CC1 (protonated)
CC(C)(C)OC(=O)N1CCN(c2c[nH+]c(Cc3cc(C(=O)n4c(C([NH-])=O)cc5ccc(C(F)(F)F)cc54)ccc3F)cn2)CC1 (3D coordinates assigned)
CC(C)(C)OC(=O)N1CCN(c2c[nH+]c(Cc3cc(C(=O)n4c(C([NH-])=O)cc5ccc(C(F)(F)F)cc54)ccc3F)cn2)CC1 (nonaromatic ring conformer: 121.76341865799553 kcal/mol)

>  <smiles>  (18) 
CC(C)(C)OC(=O)N1CCN(c2cnc(Cc3cc(C(=O)n4c(C(N)=O)cc5ccc(C(F)(F)F)cc54)ccc3F)cn2)CC1

>  <score_type>  (18) 
oracle

>  <origin>  (18) 
adg

>  <m_score__min__energy>  (18) 
-10.9

>  <m_primary>  (18) 
energy

$$$$
18:0
     RDKit          3D

 38 39  0  0  0  0  0  0  0  0999 V2000
  148.9660  160.1860  130.9670 C   0  0  0  0  0  0  0  0  0  0  0  0
  148.1950  160.4830  132.2490 C   0  0  0  0  0  0  0  0  0  0  0  0
  147.6110  159.2200  132.8230 C   0  0  0  0  0  0  0  0  0  0  0  0
  148.4620  158.1560  133.2130 C   0  0  0  0  0  0  0  0  0  0  0  0
  147.9260  156.9540  133.7090 C   0  0  0  0  0  0  0  0  0  0  0  0
  146.5400  156.8460  133.7970 C   0  0  0  0  0  0  0  0  0  0  0  0
  145.7550  155.7940  134.2120 C   0  0  0  0  0  0  0  0  0  0  0  0
  144.4390  156.2350  134.0680 C   0  0  0  0  0  0  0  0  0  0  0  0
  143.2450  155.4550  134.4640 C   0  0  0  0  0  0  0  0  0  0  0  0
  142.1690  155.2440  133.5470 N   0  0  0  0  0  0  0  0  0  0  0  0
  143.1760  154.9510  135.6160 O   0  0  0  0  0  0  0  0  0  0  0  0
  144.4180  157.5070  133.5830 N   0  0  0  0  0  0  0  0  0  0  0  0
  143.2750  158.2970  133.2250 C   0  0  0  0  0  0  0  0  0  0  0  0
  142.4160  157.8250  132.4320 O   0  0  0  0  0  0  0  0  0  0  0  0
  143.0240  159.6190  133.9020 C   0  0  1  0  0  0  0  0  0  0  0  0
  142.2060  160.4220  133.0910 O   0  0  0  0  0  0  0  0  0  0  0  0
  142.3440  159.3760  135.2600 C   0  0  0  0  0  0  0  0  0  0  0  0
  140.8670  158.9870  135.1270 C   0  0  0  0  0  0  0  0  0  0  0  0
  140.2730  157.8720  136.6020 Br  0  0  0  0  0  0  0  0  0  0  0  0
  145.7070  157.8680  133.4240 C   0  0  0  0  0  0  0  0  0  0  0  0
  146.2100  159.0710  132.9180 C   0  0  0  0  0  0  0  0  0  0  0  0
  149.9648  159.8012  131.2206 H   0  0  0  0  0  0  0  0  0  0  0  0
  148.4218  159.4332  130.3779 H   0  0  0  0  0  0  0  0  0  0  0  0
  149.0675  161.1094  130.3779 H   0  0  0  0  0  0  0  0  0  0  0  0
  148.8778  160.9323  132.9852 H   0  0  0  0  0  0  0  0  0  0  0  0
  147.3748  161.1778  132.0156 H   0  0  0  0  0  0  0  0  0  0  0  0
  149.5525  158.2714  133.1269 H   0  0  0  0  0  0  0  0  0  0  0  0
  148.5805  156.1255  134.0176 H   0  0  0  0  0  0  0  0  0  0  0  0
  146.0934  154.8139  134.5792 H   0  0  0  0  0  0  0  0  0  0  0  0
  141.3500  154.6610  133.8290 H   0  0  0  0  0  0  0  0  0  0  0  0
  142.1570  155.6950  132.6060 H   0  0  0  0  0  0  0  0  0  0  0  0
  143.9813  160.1364  134.0627 H   0  0  0  0  0  0  0  0  0  0  0  0
  142.1050  159.9480  132.2260 H   0  0  0  0  0  0  0  0  0  0  0  0
  142.8754  158.5642  135.7783 H   0  0  0  0  0  0  0  0  0  0  0  0
  142.3872  160.3194  135.8241 H   0  0  0  0  0  0  0  0  0  0  0  0
  140.2588  159.9033  135.1071 H   0  0  0  0  0  0  0  0  0  0  0  0
  140.7496  158.4113  134.1970 H   0  0  0  0  0  0  0  0  0  0  0  0
  145.5330  159.8787  132.6028 H   0  0  0  0  0  0  0  0  0  0  0  0
  1  2  1  0
  2  3  1  0
  3  4  2  0
  4  5  1  0
  5  6  2  0
  6  7  1  0
  7  8  2  0
  8  9  1  0
  9 10  1  0
  9 11  2  0
  8 12  1  0
 12 13  1  0
 13 14  2  0
 13 15  1  0
 15 16  1  0
 15 17  1  0
 17 18  1  0
 18 19  1  0
 12 20  1  0
 20 21  2  0
 21  3  1  0
 20  6  1  0
  1 22  1  0
  1 23  1  0
  1 24  1  0
  2 25  1  0
  2 26  1  0
  4 27  1  0
  5 28  1  0
  7 29  1  0
 10 30  1  0
 10 31  1  0
 15 32  1  1
 16 33  1  0
 17 34  1  0
 17 35  1  0
 18 36  1  0
 18 37  1  0
 21 38  1  0
M  END
>  <UniqueID>  (19) 
19

>  <SMILES>  (19) 
CCc1ccc2cc(C(N)=O)n(C(=O)[C@@H](O)CCBr)c2c1

>  <Energy>  (19) 
70.38446918302876

>  <Genealogy>  (19) 
CCc1ccc2cc(C(N)=O)n(C(=O)[C@@H](O)CCBr)c2c1 (3D coordinates assigned)
CCc1ccc2cc(C(N)=O)n(C(=O)[C@@H](O)CCBr)c2c1 (optimized conformer: 70.38446918302876 kcal/mol)

>  <smiles>  (19) 
CCc1ccc2cc(C(N)=O)n(C(=O)[C@@H](O)CCBr)c2c1

>  <score_type>  (19) 
oracle

>  <origin>  (19) 
adg

>  <m_score__min__energy>  (19) 
-7.7199999999999998

>  <m_primary>  (19) 
energy

$$$$
19:0
     RDKit          3D

 40 41  0  0  0  0  0  0  0  0999 V2000
  148.7600  155.6560  132.6120 C   0  0  0  0  0  0  0  0  0  0  0  0
  148.0950  156.9760  132.8600 C   0  0  0  0  0  0  0  0  0  0  0  0
  148.8790  158.1440  133.0030 C   0  0  0  0  0  0  0  0  0  0  0  0
  148.2760  159.3840  133.2650 C   0  0  0  0  0  0  0  0  0  0  0  0
  146.8890  159.4220  133.3830 C   0  0  0  0  0  0  0  0  0  0  0  0
  146.0560  160.4850  133.6360 C   0  0  0  0  0  0  0  0  0  0  0  0
  144.7730  159.9480  133.6490 C   0  0  0  0  0  0  0  0  0  0  0  0
  143.5750  160.7360  133.9700 C   0  0  0  0  0  0  0  0  0  0  0  0
  142.4110  160.1050  134.5050 N   0  0  0  0  0  0  0  0  0  0  0  0
  143.5570  161.9690  133.7150 O   0  0  0  0  0  0  0  0  0  0  0  0
  144.8050  158.6030  133.4380 N   0  0  0  0  0  0  0  0  0  0  0  0
  143.7040  157.6800  133.5260 C   0  0  0  0  0  0  0  0  0  0  0  0
  143.0380  157.3920  132.4940 O   0  0  0  0  0  0  0  0  0  0  0  0
  143.3710  157.0750  134.7810 N   0  0  0  0  0  0  0  0  0  0  0  0
  143.5700  155.6630  135.0780 C   0  0  0  0  0  0  0  0  0  0  0  0
  142.2840  154.9200  134.9030 C   0  0  0  0  0  0  0  0  0  0  0  0
  141.9800  153.9960  135.7060 O   0  0  0  0  0  0  0  0  0  0  0  0
  141.4200  155.2790  133.8640 O   0  0  0  0  0  0  0  0  0  0  0  0
  140.4570  156.3250  133.9680 C   0  0  0  0  0  0  0  0  0  0  0  0
  140.3430  156.8260  135.4050 C   0  0  0  0  0  0  0  0  0  0  0  0
  139.8690  158.5690  135.4380 S   0  0  0  0  0  0  0  0  0  0  0  0
  140.2250  159.0590  134.0400 O   0  0  0  0  0  0  0  0  0  0  0  0
  141.0560  159.2940  136.4160 O   0  0  0  0  0  0  0  0  0  0  0  0
  146.1140  158.2960  133.2720 C   0  0  0  0  0  0  0  0  0  0  0  0
  146.6910  157.0470  133.0090 C   0  0  0  0  0  0  0  0  0  0  0  0
  148.9999  155.1798  133.5741 H   0  0  0  0  0  0  0  0  0  0  0  0
  148.0820  155.0056  132.0399 H   0  0  0  0  0  0  0  0  0  0  0  0
  149.6862  155.8138  132.0399 H   0  0  0  0  0  0  0  0  0  0  0  0
  149.9730  158.0801  132.9079 H   0  0  0  0  0  0  0  0  0  0  0  0
  148.8799  160.2969  133.3737 H   0  0  0  0  0  0  0  0  0  0  0  0
  146.3423  161.5352  133.7943 H   0  0  0  0  0  0  0  0  0  0  0  0
  141.5650  160.6690  134.7380 H   0  0  0  0  0  0  0  0  0  0  0  0
  142.3810  159.0700  134.6340 H   0  0  0  0  0  0  0  0  0  0  0  0
  144.3261  155.2495  134.3944 H   0  0  0  0  0  0  0  0  0  0  0  0
  143.9113  155.5563  136.1183 H   0  0  0  0  0  0  0  0  0  0  0  0
  140.7618  157.1597  133.3196 H   0  0  0  0  0  0  0  0  0  0  0  0
  139.4783  155.9310  133.6567 H   0  0  0  0  0  0  0  0  0  0  0  0
  139.5813  156.2346  135.9342 H   0  0  0  0  0  0  0  0  0  0  0  0
  141.3210  156.7161  135.8964 H   0  0  0  0  0  0  0  0  0  0  0  0
  146.0678  156.1449  132.9207 H   0  0  0  0  0  0  0  0  0  0  0  0
  1  2  1  0
  2  3  2  0
  3  4  1  0
  4  5  2  0
  5  6  1  0
  6  7  2  0
  7  8  1  0
  8  9  1  0
  8 10  2  0
  7 11  1  0
 11 12  1  0
 12 13  2  0
 12 14  1  0
 14 15  1  0
 15 16  1  0
 16 17  2  0
 16 18  1  0
 18 19  1  0
 19 20  1  0
 20 21  1  0
 21 22  2  0
 21 23  1  1
 11 24  1  0
 24 25  2  0
 25  2  1  0
 24  5  1  0
  1 26  1  0
  1 27  1  0
  1 28  1  0
  3 29  1  0
  4 30  1  0
  6 31  1  0
  9 32  1  0
  9 33  1  0
 15 34  1  0
 15 35  1  0
 19 36  1  0
 19 37  1  0
 20 38  1  0
 20 39  1  0
 25 40  1  0
M  CHG  2  14  -1  23  -1
M  END
>  <UniqueID>  (20) 
20

>  <SMILES>  (20) 
Cc1ccc2cc(C(N)=O)n(C(=O)[N-]CC(=O)OCC[S@](=O)[O-])c2c1

>  <Energy>  (20) 
72.35186853389739

>  <Genealogy>  (20) 
Cc1ccc2cc(C(N)=O)n(C(=O)[N-]CC(=O)OCCS(=O)[O-])c2c1 (protonated)
Cc1ccc2cc(C(N)=O)n(C(=O)[N-]CC(=O)OCC[S@](=O)[O-])c2c1 (chirality)
Cc1ccc2cc(C(N)=O)n(C(=O)[N-]CC(=O)OCC[S@](=O)[O-])c2c1 (3D coordinates assigned)
Cc1ccc2cc(C(N)=O)n(C(=O)[N-]CC(=O)OCC[S@](=O)[O-])c2c1 (optimized conformer: 72.35186853389739 kcal/mol)

>  <smiles>  (20) 
Cc1ccc2cc(C(N)=O)n(C(=O)NCC(=O)OCCS(=O)O)c2c1

>  <score_type>  (20) 
oracle

>  <origin>  (20) 
adg

>  <m_score__min__energy>  (20) 
-7.5800000000000001

>  <m_primary>  (20) 
energy

$$$$
20:0
     RDKit          3D

 44 45  0  0  0  0  0  0  0  0999 V2000
  140.6140  156.3150  134.9110 C   0  0  0  0  0  0  0  0  0  0  0  0
  140.1750  157.7930  134.8920 C   0  0  0  0  0  0  0  0  0  0  0  0
  138.7350  157.8720  134.3510 C   0  0  0  0  0  0  0  0  0  0  0  0
  140.2210  158.3840  136.3210 C   0  0  0  0  0  0  0  0  0  0  0  0
  141.3850  159.1500  136.4970 O   0  0  0  0  0  0  0  0  0  0  0  0
  141.0360  158.5680  133.9890 N   0  0  0  0  0  0  0  0  0  0  0  0
  141.5380  158.1490  132.7120 C   0  0  0  0  0  0  0  0  0  0  0  0
  140.9180  158.4320  131.6500 O   0  0  0  0  0  0  0  0  0  0  0  0
  142.8510  157.4310  132.6420 C   0  0  0  0  0  0  0  0  0  0  0  0
  143.7130  157.7690  133.8260 C   0  0  0  0  0  0  0  0  0  0  0  0
  143.3920  157.3430  134.9680 O   0  0  0  0  0  0  0  0  0  0  0  0
  144.9350  158.5020  133.6580 N   0  0  0  0  0  0  0  0  0  0  0  0
  145.1050  159.8550  133.6260 C   0  0  0  0  0  0  0  0  0  0  0  0
  144.0760  160.8660  133.9440 C   0  0  0  0  0  0  0  0  0  0  0  0
  142.7970  160.4880  134.4580 N   0  0  0  0  0  0  0  0  0  0  0  0
  144.3490  162.0890  133.8110 O   0  0  0  0  0  0  0  0  0  0  0  0
  146.4210  160.1740  133.2930 C   0  0  0  0  0  0  0  0  0  0  0  0
  147.0610  158.9650  133.1340 C   0  0  0  0  0  0  0  0  0  0  0  0
  148.3750  158.6860  132.7730 C   0  0  0  0  0  0  0  0  0  0  0  0
  148.7480  157.3380  132.6300 C   0  0  0  0  0  0  0  0  0  0  0  0
  147.8040  156.3010  132.8460 C   0  0  0  0  0  0  0  0  0  0  0  0
  148.2000  154.8630  132.6750 C   0  0  0  0  0  0  0  0  0  0  0  0
  149.5360  154.7860  132.3290 F   0  0  0  0  0  0  0  0  0  0  0  0
  147.9970  154.1800  133.8610 F   0  0  0  0  0  0  0  0  0  0  0  0
  146.4810  156.6240  133.2160 C   0  0  0  0  0  0  0  0  0  0  0  0
  146.1420  157.9730  133.3620 C   0  0  0  0  0  0  0  0  0  0  0  0
  140.7148  155.9758  135.9525 H   0  0  0  0  0  0  0  0  0  0  0  0
  139.8592  155.7017  134.3970 H   0  0  0  0  0  0  0  0  0  0  0  0
  141.5812  156.2131  134.3970 H   0  0  0  0  0  0  0  0  0  0  0  0
  138.0285  157.9108  135.1932 H   0  0  0  0  0  0  0  0  0  0  0  0
  138.6233  158.7776  133.7367 H   0  0  0  0  0  0  0  0  0  0  0  0
  138.5249  156.9840  133.7367 H   0  0  0  0  0  0  0  0  0  0  0  0
  139.3395  159.0231  136.4774 H   0  0  0  0  0  0  0  0  0  0  0  0
  140.2236  157.5588  137.0484 H   0  0  0  0  0  0  0  0  0  0  0  0
  142.0620  158.7710  135.8770 H   0  0  0  0  0  0  0  0  0  0  0  0
  142.6677  156.3465  132.6283 H   0  0  0  0  0  0  0  0  0  0  0  0
  143.3739  157.7449  131.7265 H   0  0  0  0  0  0  0  0  0  0  0  0
  142.6020  159.5080  134.7590 H   0  0  0  0  0  0  0  0  0  0  0  0
  142.0670  161.2160  134.6260 H   0  0  0  0  0  0  0  0  0  0  0  0
  146.8557  161.1782  133.1811 H   0  0  0  0  0  0  0  0  0  0  0  0
  149.1004  159.4956  132.6045 H   0  0  0  0  0  0  0  0  0  0  0  0
  149.7808  157.0851  132.3482 H   0  0  0  0  0  0  0  0  0  0  0  0
  147.5870  154.4127  131.8804 H   0  0  0  0  0  0  0  0  0  0  0  0
  145.7346  155.8340  133.3855 H   0  0  0  0  0  0  0  0  0  0  0  0
  1  2  1  0
  2  3  1  0
  2  4  1  0
  4  5  1  0
  2  6  1  0
  6  7  1  0
  7  8  2  0
  7  9  1  0
  9 10  1  0
 10 11  2  0
 10 12  1  0
 12 13  1  0
 13 14  1  0
 14 15  1  0
 14 16  2  0
 13 17  2  0
 17 18  1  0
 18 19  2  0
 19 20  1  0
 20 21  2  0
 21 22  1  0
 22 23  1  0
 22 24  1  0
 21 25  1  0
 25 26  2  0
 26 12  1  0
 26 18  1  0
  1 27  1  0
  1 28  1  0
  1 29  1  0
  3 30  1  0
  3 31  1  0
  3 32  1  0
  4 33  1  0
  4 34  1  0
  5 35  1  0
  9 36  1  0
  9 37  1  0
 15 38  1  0
 15 39  1  0
 17 40  1  0
 19 41  1  0
 20 42  1  0
 22 43  1  0
 25 44  1  0
M  CHG  1   6  -1
M  END
>  <UniqueID>  (21) 
21

>  <SMILES>  (21) 
CC(C)(CO)[N-]C(=O)CC(=O)n1c(C(N)=O)cc2ccc(C(F)F)cc21

>  <Energy>  (21) 
77.06791146955821

>  <Genealogy>  (21) 
CC(C)(CO)[N-]C(=O)CC(=O)n1c(C(N)=O)cc2ccc(C(F)F)cc21 (protonated)
CC(C)(CO)[N-]C(=O)CC(=O)n1c(C(N)=O)cc2ccc(C(F)F)cc21 (3D coordinates assigned)
CC(C)(CO)[N-]C(=O)CC(=O)n1c(C(N)=O)cc2ccc(C(F)F)cc21 (optimized conformer: 77.06791146955821 kcal/mol)

>  <smiles>  (21) 
CC(C)(CO)NC(=O)CC(=O)n1c(C(N)=O)cc2ccc(C(F)F)cc21

>  <score_type>  (21) 
oracle

>  <origin>  (21) 
adg

>  <m_score__min__energy>  (21) 
-6.9000000000000004

>  <m_primary>  (21) 
energy

$$$$
21:0
     RDKit          3D

 44 45  0  0  0  0  0  0  0  0999 V2000
  139.7880  158.7230  132.3320 C   0  0  0  0  0  0  0  0  0  0  0  0
  140.2720  159.2430  133.6960 C   0  0  2  0  0  0  0  0  0  0  0  0
  141.5640  160.0100  133.5920 C   0  0  0  0  0  0  0  0  0  0  0  0
  141.5750  161.2720  133.6710 O   0  0  0  0  0  0  0  0  0  0  0  0
  142.7600  159.3240  133.3820 O   0  0  0  0  0  0  0  0  0  0  0  0
  140.3770  158.1610  134.7030 N   0  0  0  0  0  0  0  0  0  0  0  0
  139.8630  158.4070  136.0570 C   0  0  0  0  0  0  0  0  0  0  0  0
  141.0250  156.8940  134.4020 C   0  0  0  0  0  0  0  0  0  0  0  0
  142.1650  156.6330  134.8800 O   0  0  0  0  0  0  0  0  0  0  0  0
  140.3880  155.8550  133.5140 C   0  0  0  0  0  0  0  0  0  0  0  0
  141.1770  154.6230  133.4970 N   0  0  0  0  0  0  0  0  0  0  0  0
  140.6400  153.3970  132.9820 C   0  0  0  0  0  0  0  0  0  0  0  0
  139.4180  153.3170  132.6770 O   0  0  0  0  0  0  0  0  0  0  0  0
  141.4820  152.2440  132.8440 N   0  0  0  0  0  0  0  0  0  0  0  0
  142.7530  152.0800  133.3020 C   0  0  0  0  0  0  0  0  0  0  0  0
  143.5830  153.1280  133.9270 C   0  0  0  0  0  0  0  0  0  0  0  0
  143.2490  153.6560  135.2090 N   0  0  0  0  0  0  0  0  0  0  0  0
  144.5730  153.5980  133.3040 O   0  0  0  0  0  0  0  0  0  0  0  0
  143.2100  150.7930  133.0250 C   0  0  0  0  0  0  0  0  0  0  0  0
  142.1710  150.1710  132.3680 C   0  0  0  0  0  0  0  0  0  0  0  0
  142.0760  148.8800  131.8590 C   0  0  0  0  0  0  0  0  0  0  0  0
  140.8680  148.5020  131.2470 C   0  0  0  0  0  0  0  0  0  0  0  0
  139.7730  149.4050  131.1760 C   0  0  0  0  0  0  0  0  0  0  0  0
  138.4910  148.9980  130.4920 C   0  0  0  0  0  0  0  0  0  0  0  0
  138.4240  149.5360  129.2180 F   0  0  0  0  0  0  0  0  0  0  0  0
  137.4170  149.4550  131.2340 F   0  0  0  0  0  0  0  0  0  0  0  0
  138.4130  147.6200  130.3860 F   0  0  0  0  0  0  0  0  0  0  0  0
  139.9210  150.7190  131.6800 C   0  0  0  0  0  0  0  0  0  0  0  0
  141.1390  151.0690  132.2730 C   0  0  0  0  0  0  0  0  0  0  0  0
  139.0459  157.9257  132.4859 H   0  0  0  0  0  0  0  0  0  0  0  0
  139.3285  159.5476  131.7673 H   0  0  0  0  0  0  0  0  0  0  0  0
  140.6434  158.3237  131.7673 H   0  0  0  0  0  0  0  0  0  0  0  0
  139.5003  159.9457  134.0434 H   0  0  0  0  0  0  0  0  0  0  0  0
  140.5969  158.0557  136.7972 H   0  0  0  0  0  0  0  0  0  0  0  0
  139.6913  159.4849  136.1938 H   0  0  0  0  0  0  0  0  0  0  0  0
  138.9159  157.8646  136.1938 H   0  0  0  0  0  0  0  0  0  0  0  0
  139.3790  155.6305  133.8901 H   0  0  0  0  0  0  0  0  0  0  0  0
  140.3385  156.2530  132.4897 H   0  0  0  0  0  0  0  0  0  0  0  0
  142.1540  154.6200  133.8700 H   0  0  0  0  0  0  0  0  0  0  0  0
  142.8890  154.6300  135.3150 H   0  0  0  0  0  0  0  0  0  0  0  0
  144.1914  150.3649  133.2772 H   0  0  0  0  0  0  0  0  0  0  0  0
  142.9190  148.1773  131.9329 H   0  0  0  0  0  0  0  0  0  0  0  0
  140.7692  147.4941  130.8175 H   0  0  0  0  0  0  0  0  0  0  0  0
  139.0994  151.4468  131.6074 H   0  0  0  0  0  0  0  0  0  0  0  0
  1  2  1  0
  2  3  1  0
  3  4  2  0
  3  5  1  0
  2  6  1  0
  6  7  1  0
  6  8  1  0
  8  9  2  0
  8 10  1  0
 10 11  1  0
 11 12  1  0
 12 13  2  0
 12 14  1  0
 14 15  1  0
 15 16  1  0
 16 17  1  0
 16 18  2  0
 15 19  2  0
 19 20  1  0
 20 21  2  0
 21 22  1  0
 22 23  2  0
 23 24  1  0
 24 25  1  0
 24 26  1  0
 24 27  1  0
 23 28  1  0
 28 29  2  0
 29 14  1  0
 29 20  1  0
  1 30  1  0
  1 31  1  0
  1 32  1  0
  2 33  1  1
  7 34  1  0
  7 35  1  0
  7 36  1  0
 10 37  1  0
 10 38  1  0
 11 39  1  0
 17 40  1  0
 19 41  1  0
 21 42  1  0
 22 43  1  0
 28 44  1  0
M  CHG  2   5  -1  17  -1
M  END
>  <UniqueID>  (22) 
22

>  <SMILES>  (22) 
C[C@H](C(=O)[O-])N(C)C(=O)CNC(=O)n1c(C([NH-])=O)cc2ccc(C(F)(F)F)cc21

>  <Energy>  (22) 
81.06490049794053

>  <Genealogy>  (22) 
CC(C(=O)[O-])N(C)C(=O)CNC(=O)n1c(C([NH-])=O)cc2ccc(C(F)(F)F)cc21 (protonated)
C[C@H](C(=O)[O-])N(C)C(=O)CNC(=O)n1c(C([NH-])=O)cc2ccc(C(F)(F)F)cc21 (chirality)
C[C@H](C(=O)[O-])N(C)C(=O)CNC(=O)n1c(C([NH-])=O)cc2ccc(C(F)(F)F)cc21 (3D coordinates assigned)
C[C@H](C(=O)[O-])N(C)C(=O)CNC(=O)n1c(C([NH-])=O)cc2ccc(C(F)(F)F)cc21 (optimized conformer: 81.06490049794053 kcal/mol)

>  <smiles>  (22) 
CC(C(=O)O)N(C)C(=O)CNC(=O)n1c(C(N)=O)cc2ccc(C(F)(F)F)cc21

>  <score_type>  (22) 
oracle

>  <origin>  (22) 
adg

>  <m_score__min__energy>  (22) 
-6.6200000000000001

>  <m_primary>  (22) 
energy

$$$$
22:0
     RDKit          3D

 35 37  0  0  0  0  0  0  0  0999 V2000
  149.3870  159.8560  130.8900 C   0  0  0  0  0  0  0  0  0  0  0  0
  148.1280  159.5060  131.5300 N   0  0  0  0  0  0  0  0  0  0  0  0
  148.0600  158.9110  132.8300 C   0  0  0  0  0  0  0  0  0  0  0  0
  148.8450  159.2940  133.7390 O   0  0  0  0  0  0  0  0  0  0  0  0
  147.1030  157.8730  133.0990 N   0  0  0  0  0  0  0  0  0  0  0  0
  145.7660  158.0200  133.3230 C   0  0  0  0  0  0  0  0  0  0  0  0
  145.0520  159.3000  133.4920 C   0  0  0  0  0  0  0  0  0  0  0  0
  145.4850  160.4840  132.8200 N   0  0  0  0  0  0  0  0  0  0  0  0
  144.0750  159.3640  134.2850 O   0  0  0  0  0  0  0  0  0  0  0  0
  145.1440  156.7780  133.4160 C   0  0  0  0  0  0  0  0  0  0  0  0
  146.1500  155.8540  133.2520 C   0  0  0  0  0  0  0  0  0  0  0  0
  146.0910  154.4640  133.2260 C   0  0  0  0  0  0  0  0  0  0  0  0
  147.2820  153.7580  132.9870 C   0  0  0  0  0  0  0  0  0  0  0  0
  148.5010  154.4490  132.7810 C   0  0  0  0  0  0  0  0  0  0  0  0
  149.7550  153.6860  132.4640 C   0  0  0  0  0  0  0  0  0  0  0  0
  149.5450  152.2630  132.7070 N   0  0  0  0  0  0  0  0  0  0  0  0
  149.2290  151.3290  131.7970 C   0  0  0  0  0  0  0  0  0  0  0  0
  149.0330  150.1300  132.3790 N   0  0  0  0  0  0  0  0  0  0  0  0
  149.2400  150.4060  133.6870 C   0  0  0  0  0  0  0  0  0  0  0  0
  149.5430  151.7010  133.9010 N   0  0  0  0  0  0  0  0  0  0  0  0
  148.5200  155.8620  132.7980 C   0  0  0  0  0  0  0  0  0  0  0  0
  147.3230  156.5390  133.0600 C   0  0  0  0  0  0  0  0  0  0  0  0
  150.1437  160.0664  131.6601 H   0  0  0  0  0  0  0  0  0  0  0  0
  149.7251  159.0178  130.2630 H   0  0  0  0  0  0  0  0  0  0  0  0
  149.2439  160.7484  130.2630 H   0  0  0  0  0  0  0  0  0  0  0  0
  144.9410  161.3700  132.9180 H   0  0  0  0  0  0  0  0  0  0  0  0
  146.3880  160.5090  132.2970 H   0  0  0  0  0  0  0  0  0  0  0  0
  144.0756  156.5780  133.5847 H   0  0  0  0  0  0  0  0  0  0  0  0
  145.1408  153.9340  133.3877 H   0  0  0  0  0  0  0  0  0  0  0  0
  147.2675  152.6584  132.9596 H   0  0  0  0  0  0  0  0  0  0  0  0
  150.0188  153.8406  131.4073 H   0  0  0  0  0  0  0  0  0  0  0  0
  150.5710  154.0468  133.1075 H   0  0  0  0  0  0  0  0  0  0  0  0
  149.1414  151.5177  130.7168 H   0  0  0  0  0  0  0  0  0  0  0  0
  149.1687  149.6554  134.4879 H   0  0  0  0  0  0  0  0  0  0  0  0
  149.4517  156.4158  132.6101 H   0  0  0  0  0  0  0  0  0  0  0  0
  1  2  1  0
  2  3  1  0
  3  4  2  0
  3  5  1  0
  5  6  1  0
  6  7  1  0
  7  8  1  0
  7  9  2  0
  6 10  2  0
 10 11  1  0
 11 12  2  0
 12 13  1  0
 13 14  2  0
 14 15  1  0
 15 16  1  0
 16 17  1  0
 17 18  2  0
 18 19  1  0
 19 20  2  0
 14 21  1  0
 21 22  2  0
 22  5  1  0
 22 11  1  0
 20 16  1  0
  1 23  1  0
  1 24  1  0
  1 25  1  0
  8 26  1  0
  8 27  1  0
 10 28  1  0
 12 29  1  0
 13 30  1  0
 15 31  1  0
 15 32  1  0
 17 33  1  0
 19 34  1  0
 21 35  1  0
M  CHG  1   2  -1
M  END
>  <UniqueID>  (23) 
23

>  <SMILES>  (23) 
C[N-]C(=O)n1c(C(N)=O)cc2ccc(Cn3cncn3)cc21

>  <Energy>  (23) 
105.47852960238332

>  <Genealogy>  (23) 
C[N-]C(=O)n1c(C(N)=O)cc2ccc(Cn3cncn3)cc21 (protonated)
C[N-]C(=O)n1c(C(N)=O)cc2ccc(Cn3cncn3)cc21 (3D coordinates assigned)
C[N-]C(=O)n1c(C(N)=O)cc2ccc(Cn3cncn3)cc21 (optimized conformer: 105.47852960238332 kcal/mol)

>  <smiles>  (23) 
CNC(=O)n1c(C(N)=O)cc2ccc(Cn3cncn3)cc21

>  <score_type>  (23) 
oracle

>  <origin>  (23) 
adg

>  <m_score__min__energy>  (23) 
-7.0199999999999996

>  <m_primary>  (23) 
energy

$$$$
23:0
     RDKit          3D

 35 36  0  0  0  0  0  0  0  0999 V2000
  150.5780  150.7170  131.8180 C   0  0  0  0  0  0  0  0  0  0  0  0
  149.4660  151.4490  131.7460 C   0  0  0  0  0  0  0  0  0  0  0  0
  148.9050  152.1440  132.9560 C   0  0  0  0  0  0  0  0  0  0  0  0
  148.2280  153.3430  132.5700 O   0  0  0  0  0  0  0  0  0  0  0  0
  148.8000  154.6180  132.6980 C   0  0  0  0  0  0  0  0  0  0  0  0
  149.9510  154.8510  132.2330 O   0  0  0  0  0  0  0  0  0  0  0  0
  148.0950  155.6620  133.3940 N   0  0  0  0  0  0  0  0  0  0  0  0
  147.2160  155.5370  134.4280 C   0  0  0  0  0  0  0  0  0  0  0  0
  146.7960  154.2720  135.0610 C   0  0  0  0  0  0  0  0  0  0  0  0
  146.0390  153.3050  134.3380 N   0  0  0  0  0  0  0  0  0  0  0  0
  147.1280  154.0330  136.2560 O   0  0  0  0  0  0  0  0  0  0  0  0
  146.6590  156.7750  134.7460 C   0  0  0  0  0  0  0  0  0  0  0  0
  147.2340  157.6680  133.8720 C   0  0  0  0  0  0  0  0  0  0  0  0
  147.0370  159.0380  133.7300 C   0  0  0  0  0  0  0  0  0  0  0  0
  147.7530  159.7070  132.7220 C   0  0  0  0  0  0  0  0  0  0  0  0
  148.6560  159.0020  131.8810 C   0  0  0  0  0  0  0  0  0  0  0  0
  149.3750  159.7250  130.7630 C   0  0  0  0  0  0  0  0  0  0  0  0
  148.9290  161.1860  130.7070 C   0  0  0  0  0  0  0  0  0  0  0  0
  149.1020  159.1210  129.5460 F   0  0  0  0  0  0  0  0  0  0  0  0
  150.7460  159.6740  130.9630 F   0  0  0  0  0  0  0  0  0  0  0  0
  148.8130  157.6060  132.0460 C   0  0  0  0  0  0  0  0  0  0  0  0
  148.0890  156.9690  133.0610 C   0  0  0  0  0  0  0  0  0  0  0  0
  150.9677  150.2187  130.9181 H   0  0  0  0  0  0  0  0  0  0  0  0
  151.1058  150.6113  132.7773 H   0  0  0  0  0  0  0  0  0  0  0  0
  148.9477  151.5467  130.7807 H   0  0  0  0  0  0  0  0  0  0  0  0
  148.1954  151.4737  133.4631 H   0  0  0  0  0  0  0  0  0  0  0  0
  149.7307  152.4021  133.6355 H   0  0  0  0  0  0  0  0  0  0  0  0
  146.5130  152.5910  133.7400 H   0  0  0  0  0  0  0  0  0  0  0  0
  145.9175  156.9915  135.5292 H   0  0  0  0  0  0  0  0  0  0  0  0
  146.3418  159.5814  134.3868 H   0  0  0  0  0  0  0  0  0  0  0  0
  147.6127  160.7891  132.5826 H   0  0  0  0  0  0  0  0  0  0  0  0
  148.8109  161.5728  131.7300 H   0  0  0  0  0  0  0  0  0  0  0  0
  149.6866  161.7805  130.1754 H   0  0  0  0  0  0  0  0  0  0  0  0
  147.9686  161.2561  130.1754 H   0  0  0  0  0  0  0  0  0  0  0  0
  149.4881  157.0343  131.3922 H   0  0  0  0  0  0  0  0  0  0  0  0
  1  2  2  0
  2  3  1  0
  3  4  1  0
  4  5  1  0
  5  6  2  0
  5  7  1  0
  7  8  1  0
  8  9  1  0
  9 10  1  0
  9 11  2  0
  8 12  2  0
 12 13  1  0
 13 14  2  0
 14 15  1  0
 15 16  2  0
 16 17  1  0
 17 18  1  0
 17 19  1  0
 17 20  1  0
 16 21  1  0
 21 22  2  0
 22  7  1  0
 22 13  1  0
  1 23  1  0
  1 24  1  0
  2 25  1  0
  3 26  1  0
  3 27  1  0
 10 28  1  0
 12 29  1  0
 14 30  1  0
 15 31  1  0
 18 32  1  0
 18 33  1  0
 18 34  1  0
 21 35  1  0
M  CHG  1  10  -1
M  END
>  <UniqueID>  (24) 
24

>  <SMILES>  (24) 
C=CCOC(=O)n1c(C([NH-])=O)cc2ccc(C(C)(F)F)cc21

>  <Energy>  (24) 
71.11890497988679

>  <Genealogy>  (24) 
C=CCOC(=O)n1c(C([NH-])=O)cc2ccc(C(C)(F)F)cc21 (protonated)
C=CCOC(=O)n1c(C([NH-])=O)cc2ccc(C(C)(F)F)cc21 (3D coordinates assigned)
C=CCOC(=O)n1c(C([NH-])=O)cc2ccc(C(C)(F)F)cc21 (optimized conformer: 71.11890497988679 kcal/mol)

>  <smiles>  (24) 
C=CCOC(=O)n1c(C(N)=O)cc2ccc(C(C)(F)F)cc21

>  <score_type>  (24) 
oracle

>  <origin>  (24) 
adg

>  <m_score__min__energy>  (24) 
-6.4500000000000002

>  <m_primary>  (24) 
energy

$$$$
24:0
     RDKit          3D

 30 31  0  0  0  0  0  0  0  0999 V2000
  146.4430  154.4710  131.8690 H   0  0  0  0  0  0  0  0  0  0  0  0
  146.5970  154.9140  132.8020 N   0  0  0  0  0  0  0  0  0  0  0  0
  147.3230  156.1340  132.9220 C   0  0  0  0  0  0  0  0  0  0  0  0
  148.5730  156.1260  132.7730 O   0  0  0  0  0  0  0  0  0  0  0  0
  146.6040  157.3950  133.2010 C   0  0  0  0  0  0  0  0  0  0  0  0
  145.2200  157.4870  133.3410 C   0  0  0  0  0  0  0  0  0  0  0  0
  144.4887  156.6668  133.2918 H   0  0  0  0  0  0  0  0  0  0  0  0
  144.9630  158.8230  133.5540 C   0  0  0  0  0  0  0  0  0  0  0  0
  143.7580  159.4790  133.7840 C   0  0  0  0  0  0  0  0  0  0  0  0
  142.8056  158.9287  133.7927 H   0  0  0  0  0  0  0  0  0  0  0  0
  143.7950  160.8670  134.0050 C   0  0  0  0  0  0  0  0  0  0  0  0
  142.8592  161.4118  134.1987 H   0  0  0  0  0  0  0  0  0  0  0  0
  145.0270  161.5740  133.9810 C   0  0  0  0  0  0  0  0  0  0  0  0
  145.0600  163.0520  134.2750 C   0  0  0  0  0  0  0  0  0  0  0  0
  146.1750  163.6380  133.7020 F   0  0  0  0  0  0  0  0  0  0  0  0
  143.9330  163.6750  133.7680 F   0  0  0  0  0  0  0  0  0  0  0  0
  145.1040  163.2420  135.6430 F   0  0  0  0  0  0  0  0  0  0  0  0
  146.2320  160.8640  133.7710 C   0  0  0  0  0  0  0  0  0  0  0  0
  147.2020  161.3823  133.7897 H   0  0  0  0  0  0  0  0  0  0  0  0
  146.1600  159.4870  133.5390 C   0  0  0  0  0  0  0  0  0  0  0  0
  147.1770  158.6250  133.3180 N   0  0  0  0  0  0  0  0  0  0  0  0
  148.5770  158.9460  133.2970 C   0  0  0  0  0  0  0  0  0  0  0  0
  149.2330  158.9130  134.3710 O   0  0  0  0  0  0  0  0  0  0  0  0
  149.2680  159.3240  132.0500 C   0  0  0  0  0  0  0  0  0  0  0  0
  150.1760  158.7745  131.7609 H   0  0  0  0  0  0  0  0  0  0  0  0
  148.8320  160.3110  131.2560 C   0  0  0  0  0  0  0  0  0  0  0  0
  147.9257  160.8634  131.5449 H   0  0  0  0  0  0  0  0  0  0  0  0
  149.5230  160.6820  130.0110 C   0  0  0  0  0  0  0  0  0  0  0  0
  150.0310  159.8070  129.2620 O   0  0  0  0  0  0  0  0  0  0  0  0
  149.6170  162.0210  129.6570 O   0  0  0  0  0  0  0  0  0  0  0  0
  1  2  1  0
  2  3  1  0
  3  4  2  0
  3  5  1  0
  5  6  2  0
  6  7  1  0
  6  8  1  0
  8  9  2  0
  9 10  1  0
  9 11  1  0
 11 12  1  0
 11 13  2  0
 13 14  1  0
 14 15  1  0
 14 16  1  0
 14 17  1  0
 13 18  1  0
 18 19  1  0
 18 20  2  0
 20 21  1  0
 21 22  1  0
 22 23  2  0
 22 24  1  0
 24 25  1  0
 24 26  2  0
 26 27  1  0
 26 28  1  0
 28 29  2  0
 28 30  1  0
 21  5  1  0
 20  8  1  0
M  CHG  2   2  -1  30  -1
M  END
>  <UniqueID>  (25) 
25

>  <SMILES>  (25) 
[NH-]C(=O)c1cc2ccc(C(F)(F)F)cc2n1C(=O)/C=C/C(=O)[O-]

>  <Energy>  (25) 
68.8619662288367

>  <Genealogy>  (25) 
[NH-]C(=O)c1cc2ccc(C(F)(F)F)cc2n1C(=O)/C=C/C(=O)[O-] (protonated)
[NH-]C(=O)c1cc2ccc(C(F)(F)F)cc2n1C(=O)/C=C/C(=O)[O-] (cis-trans isomerization)
[NH-]C(=O)c1cc2ccc(C(F)(F)F)cc2n1C(=O)/C=C/C(=O)[O-] (3D coordinates assigned)
[NH-]C(=O)c1cc2ccc(C(F)(F)F)cc2n1C(=O)/C=C/C(=O)[O-] (optimized conformer: 68.8619662288367 kcal/mol)

>  <smiles>  (25) 
NC(=O)c1cc2ccc(C(F)(F)F)cc2n1C(=O)/C=C/C(=O)O

>  <score_type>  (25) 
oracle

>  <origin>  (25) 
adg

>  <m_score__min__energy>  (25) 
-6.6399999999999997

>  <m_primary>  (25) 
energy

$$$$
25:0
     RDKit          3D

 36 38  0  0  0  0  0  0  0  0999 V2000
  148.8100  158.4070  131.7070 N   0  0  0  0  0  0  0  0  0  0  0  0
  148.3880  158.8800  132.9850 C   0  0  0  0  0  0  0  0  0  0  0  0
  149.2360  159.0010  133.9080 O   0  0  0  0  0  0  0  0  0  0  0  0
  146.9600  159.1760  133.2240 C   0  0  0  0  0  0  0  0  0  0  0  0
  146.4700  160.4620  133.4390 C   0  0  0  0  0  0  0  0  0  0  0  0
  145.1040  160.3220  133.5280 C   0  0  0  0  0  0  0  0  0  0  0  0
  144.1180  161.2810  133.7390 C   0  0  0  0  0  0  0  0  0  0  0  0
  142.7830  160.8480  133.8080 C   0  0  0  0  0  0  0  0  0  0  0  0
  142.4630  159.4750  133.6840 C   0  0  0  0  0  0  0  0  0  0  0  0
  141.0300  159.0280  133.7280 C   0  0  0  0  0  0  0  0  0  0  0  0
  140.6650  158.6670  135.0930 N   0  0  0  0  0  0  0  0  0  0  0  0
  139.9830  157.5790  135.4830 C   0  0  0  0  0  0  0  0  0  0  0  0
  139.8910  157.5220  136.8260 N   0  0  0  0  0  0  0  0  0  0  0  0
  140.5610  158.6310  137.2130 C   0  0  0  0  0  0  0  0  0  0  0  0
  141.0450  159.3310  136.1680 N   0  0  0  0  0  0  0  0  0  0  0  0
  143.4900  158.5310  133.4570 C   0  0  0  0  0  0  0  0  0  0  0  0
  144.8080  158.9920  133.3740 C   0  0  0  0  0  0  0  0  0  0  0  0
  145.9380  158.2740  133.1880 N   0  0  0  0  0  0  0  0  0  0  0  0
  146.0340  156.8460  133.0640 C   0  0  0  0  0  0  0  0  0  0  0  0
  145.1890  156.1110  133.6450 O   0  0  0  0  0  0  0  0  0  0  0  0
  147.0790  156.2860  132.3170 O   0  0  0  0  0  0  0  0  0  0  0  0
  148.0710  155.4380  132.8290 C   0  0  0  0  0  0  0  0  0  0  0  0
  149.2930  155.6570  132.6080 O   0  0  0  0  0  0  0  0  0  0  0  0
  147.6740  154.2940  133.7050 C   0  0  0  0  0  0  0  0  0  0  0  0
  148.6950  153.3630  133.7310 F   0  0  0  0  0  0  0  0  0  0  0  0
  147.4360  154.7430  134.9910 F   0  0  0  0  0  0  0  0  0  0  0  0
  146.5260  153.7000  133.2150 F   0  0  0  0  0  0  0  0  0  0  0  0
  148.7270  157.3980  131.4540 H   0  0  0  0  0  0  0  0  0  0  0  0
  147.0516  161.3921  133.5204 H   0  0  0  0  0  0  0  0  0  0  0  0
  144.3756  162.3448  133.8484 H   0  0  0  0  0  0  0  0  0  0  0  0
  141.9790  161.5832  133.9598 H   0  0  0  0  0  0  0  0  0  0  0  0
  140.3818  159.8463  133.3813 H   0  0  0  0  0  0  0  0  0  0  0  0
  140.9035  158.1517  133.0752 H   0  0  0  0  0  0  0  0  0  0  0  0
  139.5557  156.8326  134.7971 H   0  0  0  0  0  0  0  0  0  0  0  0
  140.6959  158.9285  138.2634 H   0  0  0  0  0  0  0  0  0  0  0  0
  143.2588  157.4611  133.3484 H   0  0  0  0  0  0  0  0  0  0  0  0
  1  2  1  0
  2  3  2  0
  2  4  1  0
  4  5  2  0
  5  6  1  0
  6  7  2  0
  7  8  1  0
  8  9  2  0
  9 10  1  0
 10 11  1  0
 11 12  1  0
 12 13  2  0
 13 14  1  0
 14 15  2  0
  9 16  1  0
 16 17  2  0
 17 18  1  0
 18 19  1  0
 19 20  2  0
 19 21  1  0
 21 22  1  0
 22 23  2  0
 22 24  1  0
 24 25  1  0
 24 26  1  0
 24 27  1  0
 18  4  1  0
 17  6  1  0
 15 11  1  0
  1 28  1  0
  5 29  1  0
  7 30  1  0
  8 31  1  0
 10 32  1  0
 10 33  1  0
 12 34  1  0
 14 35  1  0
 16 36  1  0
M  CHG  1   1  -1
M  END
>  <UniqueID>  (26) 
26

>  <SMILES>  (26) 
[NH-]C(=O)c1cc2ccc(Cn3cncn3)cc2n1C(=O)OC(=O)C(F)(F)F

>  <Energy>  (26) 
107.8228687119074

>  <Genealogy>  (26) 
[NH-]C(=O)c1cc2ccc(Cn3cncn3)cc2n1C(=O)OC(=O)C(F)(F)F (protonated)
[NH-]C(=O)c1cc2ccc(Cn3cncn3)cc2n1C(=O)OC(=O)C(F)(F)F (3D coordinates assigned)
[NH-]C(=O)c1cc2ccc(Cn3cncn3)cc2n1C(=O)OC(=O)C(F)(F)F (optimized conformer: 107.8228687119074 kcal/mol)

>  <smiles>  (26) 
NC(=O)c1cc2ccc(Cn3cncn3)cc2n1C(=O)OC(=O)C(F)(F)F

>  <score_type>  (26) 
oracle

>  <origin>  (26) 
adg

>  <m_score__min__energy>  (26) 
-6.4400000000000004

>  <m_primary>  (26) 
energy

$$$$
26:0
     RDKit          3D

 57 58  0  0  0  0  0  0  0  0999 V2000
  137.2120  159.8750  131.0260 C   0  0  0  0  0  0  0  0  0  0  0  0
  138.6640  159.6880  130.7420 C   0  0  0  0  0  0  0  0  0  0  0  0
  139.2660  160.5110  130.0000 O   0  0  0  0  0  0  0  0  0  0  0  0
  139.3530  158.6310  131.3450 O   0  0  0  0  0  0  0  0  0  0  0  0
  138.8920  157.9800  132.5240 C   0  0  0  0  0  0  0  0  0  0  0  0
  139.8100  156.9570  132.8950 O   0  0  0  0  0  0  0  0  0  0  0  0
  141.1760  157.1890  133.0640 C   0  0  0  0  0  0  0  0  0  0  0  0
  141.8160  157.8400  132.1920 O   0  0  0  0  0  0  0  0  0  0  0  0
  141.8440  156.7010  134.2450 N   0  0  0  0  0  0  0  0  0  0  0  0
  141.0200  156.1810  135.3520 C   0  0  0  0  0  0  0  0  0  0  0  0
  141.2540  156.9300  136.6800 C   0  0  0  0  0  0  0  0  0  0  0  0
  140.2700  156.5410  137.7940 C   0  0  0  0  0  0  0  0  0  0  0  0
  140.9550  156.4580  139.1070 N   0  0  0  0  0  0  0  0  0  0  0  0
  142.0930  157.3930  139.1480 C   0  0  0  0  0  0  0  0  0  0  0  0
  141.4540  155.0910  139.3910 C   0  0  0  0  0  0  0  0  0  0  0  0
  140.3350  154.1000  139.5020 C   0  0  0  0  0  0  0  0  0  0  0  0
  139.4770  154.2130  140.4170 O   0  0  0  0  0  0  0  0  0  0  0  0
  140.2490  153.0390  138.6100 O   0  0  0  0  0  0  0  0  0  0  0  0
  143.2400  157.0080  134.4750 C   0  0  0  0  0  0  0  0  0  0  0  0
  144.0000  156.1310  134.9720 O   0  0  0  0  0  0  0  0  0  0  0  0
  143.7890  158.2990  134.1550 N   0  0  0  0  0  0  0  0  0  0  0  0
  143.1980  159.5130  134.3410 C   0  0  0  0  0  0  0  0  0  0  0  0
  141.7920  159.7410  134.7380 C   0  0  0  0  0  0  0  0  0  0  0  0
  140.7860  159.9980  133.7610 N   0  0  0  0  0  0  0  0  0  0  0  0
  141.4810  159.7510  135.9590 O   0  0  0  0  0  0  0  0  0  0  0  0
  144.0860  160.5440  134.0380 C   0  0  0  0  0  0  0  0  0  0  0  0
  145.2490  159.9200  133.6520 C   0  0  0  0  0  0  0  0  0  0  0  0
  146.4670  160.4640  133.2550 C   0  0  0  0  0  0  0  0  0  0  0  0
  147.5100  159.5800  132.9340 C   0  0  0  0  0  0  0  0  0  0  0  0
  147.3140  158.1790  133.0060 C   0  0  0  0  0  0  0  0  0  0  0  0
  148.4430  157.2420  132.6980 C   0  0  0  0  0  0  0  0  0  0  0  0
  146.0690  157.6640  133.4250 C   0  0  0  0  0  0  0  0  0  0  0  0
  145.0460  158.5670  133.7330 C   0  0  0  0  0  0  0  0  0  0  0  0
  137.0509  159.8957  132.1139 H   0  0  0  0  0  0  0  0  0  0  0  0
  136.8718  160.8244  130.5868 H   0  0  0  0  0  0  0  0  0  0  0  0
  136.6423  159.0428  130.5868 H   0  0  0  0  0  0  0  0  0  0  0  0
  138.8121  158.7136  133.3398 H   0  0  0  0  0  0  0  0  0  0  0  0
  137.9052  157.5333  132.3324 H   0  0  0  0  0  0  0  0  0  0  0  0
  139.9597  156.2793  135.0761 H   0  0  0  0  0  0  0  0  0  0  0  0
  141.3069  155.1311  135.5111 H   0  0  0  0  0  0  0  0  0  0  0  0
  142.2746  156.7104  137.0267 H   0  0  0  0  0  0  0  0  0  0  0  0
  141.0994  157.9997  136.4756 H   0  0  0  0  0  0  0  0  0  0  0  0
  139.4744  157.2985  137.8512 H   0  0  0  0  0  0  0  0  0  0  0  0
  139.8474  155.5533  137.5575 H   0  0  0  0  0  0  0  0  0  0  0  0
  142.3539  157.6074  140.1949 H   0  0  0  0  0  0  0  0  0  0  0  0
  142.9575  156.9409  138.6399 H   0  0  0  0  0  0  0  0  0  0  0  0
  141.8172  158.3288  138.6399 H   0  0  0  0  0  0  0  0  0  0  0  0
  142.1245  154.7806  138.5761 H   0  0  0  0  0  0  0  0  0  0  0  0
  141.9852  155.1150  140.3539 H   0  0  0  0  0  0  0  0  0  0  0  0
  140.4680  159.2490  133.1080 H   0  0  0  0  0  0  0  0  0  0  0  0
  143.8967  161.6261  134.0954 H   0  0  0  0  0  0  0  0  0  0  0  0
  146.6084  161.5532  133.1945 H   0  0  0  0  0  0  0  0  0  0  0  0
  148.4872  159.9789  132.6241 H   0  0  0  0  0  0  0  0  0  0  0  0
  148.8831  156.8768  133.6376 H   0  0  0  0  0  0  0  0  0  0  0  0
  148.0636  156.3897  132.1152 H   0  0  0  0  0  0  0  0  0  0  0  0
  149.2107  157.7720  132.1152 H   0  0  0  0  0  0  0  0  0  0  0  0
  145.9068  156.5791  133.5074 H   0  0  0  0  0  0  0  0  0  0  0  0
  1  2  1  0
  2  3  2  0
  2  4  1  0
  4  5  1  0
  5  6  1  0
  6  7  1  0
  7  8  2  0
  7  9  1  0
  9 10  1  0
 10 11  1  0
 11 12  1  0
 12 13  1  0
 13 14  1  0
 13 15  1  0
 15 16  1  0
 16 17  2  0
 16 18  1  0
  9 19  1  0
 19 20  2  0
 19 21  1  0
 21 22  1  0
 22 23  1  0
 23 24  1  0
 23 25  2  0
 22 26  2  0
 26 27  1  0
 27 28  2  0
 28 29  1  0
 29 30  2  0
 30 31  1  0
 30 32  1  0
 32 33  2  0
 33 21  1  0
 33 27  1  0
  1 34  1  0
  1 35  1  0
  1 36  1  0
  5 37  1  0
  5 38  1  0
 10 39  1  0
 10 40  1  0
 11 41  1  0
 11 42  1  0
 12 43  1  0
 12 44  1  0
 14 45  1  0
 14 46  1  0
 14 47  1  0
 15 48  1  0
 15 49  1  0
 24 50  1  0
 26 51  1  0
 28 52  1  0
 29 53  1  0
 31 54  1  0
 31 55  1  0
 31 56  1  0
 32 57  1  0
M  CHG  2  18  -1  24  -1
M  END
>  <UniqueID>  (27) 
27

>  <SMILES>  (27) 
CC(=O)OCOC(=O)N(CCCN(C)CC(=O)[O-])C(=O)n1c(C([NH-])=O)cc2ccc(C)cc21

>  <Energy>  (27) 
89.7651176553375

>  <Genealogy>  (27) 
CC(=O)OCOC(=O)N(CCCN(C)CC(=O)[O-])C(=O)n1c(C([NH-])=O)cc2ccc(C)cc21 (protonated)
CC(=O)OCOC(=O)N(CCCN(C)CC(=O)[O-])C(=O)n1c(C([NH-])=O)cc2ccc(C)cc21 (3D coordinates assigned)
CC(=O)OCOC(=O)N(CCCN(C)CC(=O)[O-])C(=O)n1c(C([NH-])=O)cc2ccc(C)cc21 (optimized conformer: 89.7651176553375 kcal/mol)

>  <smiles>  (27) 
CC(=O)OCOC(=O)N(CCCN(C)CC(=O)O)C(=O)n1c(C(N)=O)cc2ccc(C)cc21

>  <score_type>  (27) 
oracle

>  <origin>  (27) 
adg

>  <m_score__min__energy>  (27) 
-7.25

>  <m_primary>  (27) 
energy

$$$$
27:0
     RDKit          3D

 37 38  0  0  0  0  0  0  0  0999 V2000
  136.2460  160.1040  130.3710 C   0  0  0  0  0  0  0  0  0  0  0  0
  136.8920  159.1390  131.1940 O   0  0  0  0  0  0  0  0  0  0  0  0
  138.2220  158.7540  131.0010 C   0  0  0  0  0  0  0  0  0  0  0  0
  138.5030  157.5770  130.6440 O   0  0  0  0  0  0  0  0  0  0  0  0
  139.3160  159.7670  131.1590 C   0  0  0  0  0  0  0  0  0  0  0  0
  140.4710  159.2720  130.5780 F   0  0  0  0  0  0  0  0  0  0  0  0
  138.9530  160.9340  130.5080 F   0  0  0  0  0  0  0  0  0  0  0  0
  139.5510  160.0500  132.6510 C   0  0  0  0  0  0  0  0  0  0  0  0
  139.7950  158.8000  133.4570 C   0  0  0  0  0  0  0  0  0  0  0  0
  138.9120  158.3990  134.2630 O   0  0  0  0  0  0  0  0  0  0  0  0
  141.0390  158.0770  133.3570 N   0  0  0  0  0  0  0  0  0  0  0  0
  141.2010  156.7230  133.3250 C   0  0  0  0  0  0  0  0  0  0  0  0
  140.1170  155.7200  133.2690 C   0  0  0  0  0  0  0  0  0  0  0  0
  138.7730  156.0950  132.9710 N   0  0  0  0  0  0  0  0  0  0  0  0
  140.3930  154.5030  133.4400 O   0  0  0  0  0  0  0  0  0  0  0  0
  142.5500  156.3840  133.3730 C   0  0  0  0  0  0  0  0  0  0  0  0
  143.2220  157.5800  133.4400 C   0  0  0  0  0  0  0  0  0  0  0  0
  144.5880  157.8260  133.5590 C   0  0  0  0  0  0  0  0  0  0  0  0
  145.0080  159.1590  133.6900 C   0  0  0  0  0  0  0  0  0  0  0  0
  144.0620  160.2130  133.7090 C   0  0  0  0  0  0  0  0  0  0  0  0
  144.5180  161.6280  133.9160 C   0  0  0  0  0  0  0  0  0  0  0  0
  145.8760  161.6420  134.1720 F   0  0  0  0  0  0  0  0  0  0  0  0
  142.6830  159.9240  133.6120 C   0  0  0  0  0  0  0  0  0  0  0  0
  142.2910  158.5880  133.4410 C   0  0  0  0  0  0  0  0  0  0  0  0
  135.7460  160.8509  131.0051 H   0  0  0  0  0  0  0  0  0  0  0  0
  136.9927  160.6031  129.7359 H   0  0  0  0  0  0  0  0  0  0  0  0
  135.5000  159.6038  129.7359 H   0  0  0  0  0  0  0  0  0  0  0  0
  140.4278  160.7069  132.7492 H   0  0  0  0  0  0  0  0  0  0  0  0
  138.6381  160.5215  133.0439 H   0  0  0  0  0  0  0  0  0  0  0  0
  138.5480  157.0520  132.6260 H   0  0  0  0  0  0  0  0  0  0  0  0
  138.0110  155.3820  132.9990 H   0  0  0  0  0  0  0  0  0  0  0  0
  142.9851  155.3738  133.3600 H   0  0  0  0  0  0  0  0  0  0  0  0
  145.3153  157.0008  133.5506 H   0  0  0  0  0  0  0  0  0  0  0  0
  146.0805  159.3869  133.7786 H   0  0  0  0  0  0  0  0  0  0  0  0
  144.3096  162.2165  133.0103 H   0  0  0  0  0  0  0  0  0  0  0  0
  143.9796  162.0654  134.7697 H   0  0  0  0  0  0  0  0  0  0  0  0
  141.9340  160.7276  133.6692 H   0  0  0  0  0  0  0  0  0  0  0  0
  1  2  1  0
  2  3  1  0
  3  4  2  0
  3  5  1  0
  5  6  1  0
  5  7  1  0
  5  8  1  0
  8  9  1  0
  9 10  2  0
  9 11  1  0
 11 12  1  0
 12 13  1  0
 13 14  1  0
 13 15  2  0
 12 16  2  0
 16 17  1  0
 17 18  2  0
 18 19  1  0
 19 20  2  0
 20 21  1  0
 21 22  1  0
 20 23  1  0
 23 24  2  0
 24 11  1  0
 24 17  1  0
  1 25  1  0
  1 26  1  0
  1 27  1  0
  8 28  1  0
  8 29  1  0
 14 30  1  0
 14 31  1  0
 16 32  1  0
 18 33  1  0
 19 34  1  0
 21 35  1  0
 21 36  1  0
 23 37  1  0
M  END
>  <UniqueID>  (28) 
28

>  <SMILES>  (28) 
COC(=O)C(F)(F)CC(=O)n1c(C(N)=O)cc2ccc(CF)cc21

>  <Energy>  (28) 
72.41437139825278

>  <Genealogy>  (28) 
COC(=O)C(F)(F)CC(=O)n1c(C(N)=O)cc2ccc(CF)cc21 (3D coordinates assigned)
COC(=O)C(F)(F)CC(=O)n1c(C(N)=O)cc2ccc(CF)cc21 (optimized conformer: 72.41437139825278 kcal/mol)

>  <smiles>  (28) 
COC(=O)C(F)(F)CC(=O)n1c(C(N)=O)cc2ccc(CF)cc21

>  <score_type>  (28) 
oracle

>  <origin>  (28) 
adg

>  <m_score__min__energy>  (28) 
-5.8499999999999996

>  <m_primary>  (28) 
energy

$$$$
28:0
     RDKit          3D

 36 37  0  0  0  0  0  0  0  0999 V2000
  142.3170  160.8920  134.0030 N   0  0  0  0  0  0  0  0  0  0  0  0
  143.6820  161.2170  133.7350 C   0  0  0  0  0  0  0  0  0  0  0  0
  144.0030  162.4190  133.5370 O   0  0  0  0  0  0  0  0  0  0  0  0
  144.7080  160.1640  133.6220 C   0  0  0  0  0  0  0  0  0  0  0  0
  146.0600  160.4280  133.4050 C   0  0  0  0  0  0  0  0  0  0  0  0
  146.6580  159.1920  133.2970 C   0  0  0  0  0  0  0  0  0  0  0  0
  147.9940  158.8550  133.0990 C   0  0  0  0  0  0  0  0  0  0  0  0
  148.3330  157.4910  133.0740 C   0  0  0  0  0  0  0  0  0  0  0  0
  147.3370  156.4920  133.2350 C   0  0  0  0  0  0  0  0  0  0  0  0
  147.7230  155.0360  133.2730 C   0  0  0  0  0  0  0  0  0  0  0  0
  148.9250  154.8310  132.6160 F   0  0  0  0  0  0  0  0  0  0  0  0
  147.8520  154.6340  134.5880 F   0  0  0  0  0  0  0  0  0  0  0  0
  146.7570  154.2590  132.6570 F   0  0  0  0  0  0  0  0  0  0  0  0
  145.9950  156.8770  133.4510 C   0  0  0  0  0  0  0  0  0  0  0  0
  145.6850  158.2410  133.4540 C   0  0  0  0  0  0  0  0  0  0  0  0
  144.4840  158.8210  133.6600 N   0  0  0  0  0  0  0  0  0  0  0  0
  143.2630  158.1290  133.9650 C   0  0  0  0  0  0  0  0  0  0  0  0
  142.8560  158.0860  135.1580 O   0  0  0  0  0  0  0  0  0  0  0  0
  142.4200  157.5250  132.8800 C   0  0  0  0  0  0  0  0  0  0  0  0
  140.6500  157.6550  133.2800 P   0  0  2  0  0  0  0  0  0  0  0  0
  140.4580  158.5270  134.5000 O   0  0  0  0  0  0  0  0  0  0  0  0
  140.0630  156.1020  133.6080 O   0  0  0  0  0  0  0  0  0  0  0  0
  139.7410  158.3580  131.8680 C   0  0  0  0  0  0  0  0  0  0  0  0
  139.4720  159.8130  132.0810 C   0  0  0  0  0  0  0  0  0  0  0  0
  140.2580  160.5060  132.7790 O   0  0  0  0  0  0  0  0  0  0  0  0
  138.3830  160.4200  131.4680 O   0  0  0  0  0  0  0  0  0  0  0  0
  141.6080  161.6510  134.1040 H   0  0  0  0  0  0  0  0  0  0  0  0
  141.9920  159.9010  134.0320 H   0  0  0  0  0  0  0  0  0  0  0  0
  146.5451  161.4128  133.3350 H   0  0  0  0  0  0  0  0  0  0  0  0
  148.7610  159.6322  132.9662 H   0  0  0  0  0  0  0  0  0  0  0  0
  149.3821  157.1942  132.9280 H   0  0  0  0  0  0  0  0  0  0  0  0
  145.2120  156.1216  133.6131 H   0  0  0  0  0  0  0  0  0  0  0  0
  142.6152  158.0548  131.9360 H   0  0  0  0  0  0  0  0  0  0  0  0
  142.6805  156.4604  132.7858 H   0  0  0  0  0  0  0  0  0  0  0  0
  140.3406  158.2321  130.9544 H   0  0  0  0  0  0  0  0  0  0  0  0
  138.7797  157.8323  131.7706 H   0  0  0  0  0  0  0  0  0  0  0  0
  1  2  1  0
  2  3  2  0
  2  4  1  0
  4  5  2  0
  5  6  1  0
  6  7  2  0
  7  8  1  0
  8  9  2  0
  9 10  1  0
 10 11  1  0
 10 12  1  0
 10 13  1  0
  9 14  1  0
 14 15  2  0
 15 16  1  0
 16 17  1  0
 17 18  2  0
 17 19  1  0
 19 20  1  0
 20 21  2  0
 20 22  1  1
 20 23  1  0
 23 24  1  0
 24 25  2  0
 24 26  1  0
 16  4  1  0
 15  6  1  0
  1 27  1  0
  1 28  1  0
  5 29  1  0
  7 30  1  0
  8 31  1  0
 14 32  1  0
 19 33  1  0
 19 34  1  0
 23 35  1  0
 23 36  1  0
M  CHG  2  22  -1  26  -1
M  END
>  <UniqueID>  (29) 
29

>  <SMILES>  (29) 
NC(=O)c1cc2ccc(C(F)(F)F)cc2n1C(=O)C[P@](=O)([O-])CC(=O)[O-]

>  <Energy>  (29) 
67.16990810920855

>  <Genealogy>  (29) 
NC(=O)c1cc2ccc(C(F)(F)F)cc2n1C(=O)CP(=O)([O-])CC(=O)[O-] (protonated)
NC(=O)c1cc2ccc(C(F)(F)F)cc2n1C(=O)C[P@](=O)([O-])CC(=O)[O-] (chirality)
NC(=O)c1cc2ccc(C(F)(F)F)cc2n1C(=O)C[P@](=O)([O-])CC(=O)[O-] (3D coordinates assigned)
NC(=O)c1cc2ccc(C(F)(F)F)cc2n1C(=O)C[P@](=O)([O-])CC(=O)[O-] (optimized conformer: 67.16990810920855 kcal/mol)

>  <smiles>  (29) 
NC(=O)c1cc2ccc(C(F)(F)F)cc2n1C(=O)CP(=O)(O)CC(=O)O

>  <score_type>  (29) 
oracle

>  <origin>  (29) 
adg

>  <m_score__min__energy>  (29) 
-6.1299999999999999

>  <m_primary>  (29) 
energy

$$$$
29:0
     RDKit          3D

 41 42  0  0  0  0  0  0  0  0999 V2000
  147.9430  152.5800  134.2820 H   0  0  0  0  0  0  0  0  0  0  0  0
  148.2100  153.5830  134.3920 N   0  0  0  0  0  0  0  0  0  0  0  0
  148.3520  154.4330  133.2560 C   0  0  0  0  0  0  0  0  0  0  0  0
  148.9910  154.0190  132.2540 O   0  0  0  0  0  0  0  0  0  0  0  0
  147.7200  155.7680  133.2510 C   0  0  0  0  0  0  0  0  0  0  0  0
  148.4270  156.9550  133.0670 C   0  0  0  0  0  0  0  0  0  0  0  0
  149.4982  157.0652  132.8424 H   0  0  0  0  0  0  0  0  0  0  0  0
  147.5000  157.9600  133.2260 C   0  0  0  0  0  0  0  0  0  0  0  0
  147.6550  159.3410  133.1560 C   0  0  0  0  0  0  0  0  0  0  0  0
  148.6374  159.7916  132.9513 H   0  0  0  0  0  0  0  0  0  0  0  0
  146.5170  160.1430  133.3550 C   0  0  0  0  0  0  0  0  0  0  0  0
  146.6108  161.2384  133.3196 H   0  0  0  0  0  0  0  0  0  0  0  0
  145.2490  159.5550  133.6010 C   0  0  0  0  0  0  0  0  0  0  0  0
  144.0510  160.4340  133.8580 C   0  0  0  0  0  0  0  0  0  0  0  0
  143.5960  160.2620  135.1540 F   0  0  0  0  0  0  0  0  0  0  0  0
  144.3690  161.7690  133.6840 F   0  0  0  0  0  0  0  0  0  0  0  0
  143.0420  160.0930  132.9770 F   0  0  0  0  0  0  0  0  0  0  0  0
  145.1390  158.1470  133.6880 C   0  0  0  0  0  0  0  0  0  0  0  0
  144.1717  157.6697  133.9038 H   0  0  0  0  0  0  0  0  0  0  0  0
  146.2900  157.3770  133.4930 C   0  0  0  0  0  0  0  0  0  0  0  0
  146.4070  156.0310  133.5060 N   0  0  0  0  0  0  0  0  0  0  0  0
  145.3360  155.0920  133.6920 C   0  0  0  0  0  0  0  0  0  0  0  0
  144.1840  155.5130  133.9900 O   0  0  0  0  0  0  0  0  0  0  0  0
  145.5740  153.6500  133.4880 C   0  0  0  0  0  0  0  0  0  0  0  0
  145.8380  153.0293  134.3569 H   0  0  0  0  0  0  0  0  0  0  0  0
  145.4810  153.0690  132.2870 C   0  0  0  0  0  0  0  0  0  0  0  0
  145.2175  153.6810  131.4118 H   0  0  0  0  0  0  0  0  0  0  0  0
  145.7290  151.5970  132.1080 C   0  0  0  0  0  0  0  0  0  0  0  0
  144.9621  151.0330  132.6592 H   0  0  0  0  0  0  0  0  0  0  0  0
  145.6826  151.3610  131.0346 H   0  0  0  0  0  0  0  0  0  0  0  0
  147.0610  151.2220  132.6150 N   0  0  0  0  0  0  0  0  0  0  0  0
  146.9790  150.3100  133.1260 H   0  0  0  0  0  0  0  0  0  0  0  0
  147.4080  151.9410  133.2900 H   0  0  0  0  0  0  0  0  0  0  0  0
  148.0410  151.0460  131.5260 C   0  0  0  0  0  0  0  0  0  0  0  0
  147.8882  150.0570  131.0694 H   0  0  0  0  0  0  0  0  0  0  0  0
  147.8822  151.8546  130.7973 H   0  0  0  0  0  0  0  0  0  0  0  0
  149.4890  151.1410  132.0230 C   0  0  0  0  0  0  0  0  0  0  0  0
  150.0177  150.2033  131.7966 H   0  0  0  0  0  0  0  0  0  0  0  0
  149.9978  151.9764  131.5198 H   0  0  0  0  0  0  0  0  0  0  0  0
  149.4890  151.3560  133.4070 O   0  0  0  0  0  0  0  0  0  0  0  0
  149.1920  152.2930  133.5430 H   0  0  0  0  0  0  0  0  0  0  0  0
  1  2  1  0
  2  3  1  0
  3  4  2  0
  3  5  1  0
  5  6  2  0
  6  7  1  0
  6  8  1  0
  8  9  2  0
  9 10  1  0
  9 11  1  0
 11 12  1  0
 11 13  2  0
 13 14  1  0
 14 15  1  0
 14 16  1  0
 14 17  1  0
 13 18  1  0
 18 19  1  0
 18 20  2  0
 20 21  1  0
 21 22  1  0
 22 23  2  0
 22 24  1  0
 24 25  1  0
 24 26  2  0
 26 27  1  0
 26 28  1  0
 28 29  1  0
 28 30  1  0
 28 31  1  0
 31 32  1  0
 31 33  1  0
 31 34  1  0
 34 35  1  0
 34 36  1  0
 34 37  1  0
 37 38  1  0
 37 39  1  0
 37 40  1  0
 40 41  1  0
 21  5  1  0
 20  8  1  0
M  CHG  2   2  -1  31   1
M  END
>  <UniqueID>  (30) 
30

>  <SMILES>  (30) 
[NH-]C(=O)c1cc2ccc(C(F)(F)F)cc2n1C(=O)/C=C/C[NH2+]CCO

>  <Energy>  (30) 
76.06435031310332

>  <Genealogy>  (30) 
[NH-]C(=O)c1cc2ccc(C(F)(F)F)cc2n1C(=O)C=CC[NH2+]CCO (protonated)
[NH-]C(=O)c1cc2ccc(C(F)(F)F)cc2n1C(=O)/C=C/C[NH2+]CCO (cis-trans isomerization)
[NH-]C(=O)c1cc2ccc(C(F)(F)F)cc2n1C(=O)/C=C/C[NH2+]CCO (3D coordinates assigned)
[NH-]C(=O)c1cc2ccc(C(F)(F)F)cc2n1C(=O)/C=C/C[NH2+]CCO (optimized conformer: 76.06435031310332 kcal/mol)

>  <smiles>  (30) 
NC(=O)c1cc2ccc(C(F)(F)F)cc2n1C(=O)C=CCNCCO

>  <score_type>  (30) 
oracle

>  <origin>  (30) 
adg

>  <m_score__min__energy>  (30) 
-5.3600000000000003

>  <m_primary>  (30) 
energy

$$$$
31:0
     RDKit          3D

 50 51  0  0  0  0  0  0  0  0999 V2000
  146.1020  160.6510  132.8220 H   0  0  0  0  0  0  0  0  0  0  0  0
  145.0770  160.7260  133.0000 N   0  0  0  0  0  0  0  0  0  0  0  0
  144.3970  159.7460  133.7820 C   0  0  0  0  0  0  0  0  0  0  0  0
  143.5890  160.1180  134.6730 O   0  0  0  0  0  0  0  0  0  0  0  0
  144.6170  158.3100  133.5130 C   0  0  0  0  0  0  0  0  0  0  0  0
  143.5860  157.3730  133.4610 C   0  0  0  0  0  0  0  0  0  0  0  0
  142.5052  157.5661  133.5287 H   0  0  0  0  0  0  0  0  0  0  0  0
  144.2080  156.1550  133.3070 C   0  0  0  0  0  0  0  0  0  0  0  0
  143.6660  154.8780  133.2030 C   0  0  0  0  0  0  0  0  0  0  0  0
  142.5787  154.7181  133.2493 H   0  0  0  0  0  0  0  0  0  0  0  0
  144.5500  153.7990  133.0370 C   0  0  0  0  0  0  0  0  0  0  0  0
  144.1517  152.7764  132.9612 H   0  0  0  0  0  0  0  0  0  0  0  0
  145.9500  154.0130  132.9660 C   0  0  0  0  0  0  0  0  0  0  0  0
  146.8500  152.8970  132.8150 N   0  0  0  0  0  0  0  0  0  0  0  0
  147.6540  153.1680  132.2020 H   0  0  0  0  0  0  0  0  0  0  0  0
  147.2310  152.6390  133.7570 H   0  0  0  0  0  0  0  0  0  0  0  0
  146.1350  151.7530  132.2290 C   0  0  0  0  0  0  0  0  0  0  0  0
  145.2238  151.5654  132.8160 H   0  0  0  0  0  0  0  0  0  0  0  0
  145.8923  152.0028  131.1856 H   0  0  0  0  0  0  0  0  0  0  0  0
  146.9950  150.4750  132.2240 C   0  0  0  0  0  0  0  0  0  0  0  0
  146.8646  149.9660  133.1904 H   0  0  0  0  0  0  0  0  0  0  0  0
  146.6538  149.8639  131.3754 H   0  0  0  0  0  0  0  0  0  0  0  0
  148.4970  150.7350  132.0120 C   0  0  0  0  0  0  0  0  0  0  0  0
  149.0374  149.7798  132.0862 H   0  0  0  0  0  0  0  0  0  0  0  0
  148.6281  151.1880  131.0182 H   0  0  0  0  0  0  0  0  0  0  0  0
  149.0410  151.6720  133.0190 N   0  0  0  0  0  0  0  0  0  0  0  0
  149.9770  152.6130  132.3830 C   0  0  0  0  0  0  0  0  0  0  0  0
  150.5262  153.1652  133.1598 H   0  0  0  0  0  0  0  0  0  0  0  0
  150.6889  152.0552  131.7569 H   0  0  0  0  0  0  0  0  0  0  0  0
  149.4154  153.3220  131.7569 H   0  0  0  0  0  0  0  0  0  0  0  0
  149.7290  150.9490  134.1020 C   0  0  0  0  0  0  0  0  0  0  0  0
  149.3746  151.3215  135.0744 H   0  0  0  0  0  0  0  0  0  0  0  0
  149.5125  149.8736  134.0202 H   0  0  0  0  0  0  0  0  0  0  0  0
  150.8138  151.1119  134.0202 H   0  0  0  0  0  0  0  0  0  0  0  0
  146.4630  155.3250  133.0900 C   0  0  0  0  0  0  0  0  0  0  0  0
  147.5461  155.5129  133.0491 H   0  0  0  0  0  0  0  0  0  0  0  0
  145.5590  156.3780  133.2660 C   0  0  0  0  0  0  0  0  0  0  0  0
  145.8270  157.6980  133.3710 N   0  0  0  0  0  0  0  0  0  0  0  0
  147.1340  158.3010  133.3410 C   0  0  0  0  0  0  0  0  0  0  0  0
  147.3490  159.3380  134.0230 O   0  0  0  0  0  0  0  0  0  0  0  0
  148.2300  157.7760  132.4970 C   0  0  0  0  0  0  0  0  0  0  0  0
  148.5133  156.7228  132.6400 H   0  0  0  0  0  0  0  0  0  0  0  0
  148.9080  158.4720  131.5730 C   0  0  0  0  0  0  0  0  0  0  0  0
  149.7997  157.9979  131.1371 H   0  0  0  0  0  0  0  0  0  0  0  0
  148.5560  159.8200  131.0940 C   0  0  0  0  0  0  0  0  0  0  0  0
  147.3500  160.1790  131.1200 O   0  0  0  0  0  0  0  0  0  0  0  0
  149.6060  160.8240  130.7280 C   0  0  0  0  0  0  0  0  0  0  0  0
  150.0461  161.2448  131.6441 H   0  0  0  0  0  0  0  0  0  0  0  0
  150.3921  160.3330  130.1356 H   0  0  0  0  0  0  0  0  0  0  0  0
  149.1507  161.6313  130.1356 H   0  0  0  0  0  0  0  0  0  0  0  0
  1  2  1  0
  2  3  1  0
  3  4  2  0
  3  5  1  0
  5  6  2  0
  6  7  1  0
  6  8  1  0
  8  9  2  0
  9 10  1  0
  9 11  1  0
 11 12  1  0
 11 13  2  0
 13 14  1  0
 14 15  1  0
 14 16  1  0
 14 17  1  0
 17 18  1  0
 17 19  1  0
 17 20  1  0
 20 21  1  0
 20 22  1  0
 20 23  1  0
 23 24  1  0
 23 25  1  0
 23 26  1  0
 26 27  1  0
 27 28  1  0
 27 29  1  0
 27 30  1  0
 26 31  1  0
 31 32  1  0
 31 33  1  0
 31 34  1  0
 13 35  1  0
 35 36  1  0
 35 37  2  0
 37 38  1  0
 38 39  1  0
 39 40  2  0
 39 41  1  0
 41 42  1  0
 41 43  2  0
 43 44  1  0
 43 45  1  0
 45 46  2  0
 45 47  1  0
 47 48  1  0
 47 49  1  0
 47 50  1  0
 38  5  1  0
 37  8  1  0
M  CHG  2   2  -1  14   1
M  END
>  <UniqueID>  (31) 
31

>  <SMILES>  (31) 
CC(=O)/C=C\C(=O)n1c(C([NH-])=O)cc2ccc([NH2+]CCCN(C)C)cc21

>  <Energy>  (31) 
92.00477622976346

>  <Genealogy>  (31) 
CC(=O)/C=C\C(=O)n1c(C([NH-])=O)cc2ccc([NH2+]CCCN(C)C)cc21 (protonated)
CC(=O)/C=C\C(=O)n1c(C([NH-])=O)cc2ccc([NH2+]CCCN(C)C)cc21 (cis-trans isomerization)
CC(=O)/C=C\C(=O)n1c(C([NH-])=O)cc2ccc([NH2+]CCCN(C)C)cc21 (3D coordinates assigned)
CC(=O)/C=C\C(=O)n1c(C([NH-])=O)cc2ccc([NH2+]CCCN(C)C)cc21 (optimized conformer: 92.00477622976346 kcal/mol)

>  <smiles>  (31) 
CC(=O)/C=C\C(=O)n1c(C(N)=O)cc2ccc(NCCCN(C)C)cc21

>  <score_type>  (31) 
oracle

>  <origin>  (31) 
adg

>  <m_score__min__energy>  (31) 
-7.8700000000000001

>  <m_primary>  (31) 
energy

$$$$
32:0
     RDKit          3D

 45 46  0  0  0  0  0  0  0  0999 V2000
  140.3860  158.7570  137.4500 N   0  0  0  0  0  0  0  0  0  0  0  0
  140.6240  158.6120  136.0520 C   0  0  0  0  0  0  0  0  0  0  0  0
  140.6230  159.6340  135.3160 O   0  0  0  0  0  0  0  0  0  0  0  0
  140.9120  157.2750  135.4900 C   0  0  0  0  0  0  0  0  0  0  0  0
  141.7750  156.3610  136.0910 C   0  0  0  0  0  0  0  0  0  0  0  0
  141.8410  155.2970  135.2230 C   0  0  0  0  0  0  0  0  0  0  0  0
  142.5420  154.0990  135.3280 C   0  0  0  0  0  0  0  0  0  0  0  0
  142.3990  153.1600  134.2940 C   0  0  0  0  0  0  0  0  0  0  0  0
  141.5620  153.4280  133.1810 C   0  0  0  0  0  0  0  0  0  0  0  0
  141.3960  152.4380  132.1440 N   0  0  0  0  0  0  0  0  0  0  0  0
  141.1660  151.0960  132.7050 C   0  0  0  0  0  0  0  0  0  0  0  0
  142.3300  150.1340  132.4100 C   0  0  0  0  0  0  0  0  0  0  0  0
  141.8550  148.6740  132.4180 C   0  0  0  0  0  0  0  0  0  0  0  0
  140.4810  148.4780  131.7440 C   0  0  0  0  0  0  0  0  0  0  0  0
  140.4690  148.6930  130.2840 N   0  0  0  0  0  0  0  0  0  0  0  0
  139.1410  148.6040  129.6560 C   0  0  0  0  0  0  0  0  0  0  0  0
  138.7180  147.1540  129.3930 C   0  0  0  0  0  0  0  0  0  0  0  0
  139.7520  146.2680  129.7250 O   0  0  0  0  0  0  0  0  0  0  0  0
  140.8660  154.6570  133.1110 C   0  0  0  0  0  0  0  0  0  0  0  0
  141.0380  155.5810  134.1490 C   0  0  0  0  0  0  0  0  0  0  0  0
  140.4570  156.7920  134.2990 N   0  0  0  0  0  0  0  0  0  0  0  0
  139.4950  157.3940  133.4170 C   0  0  0  0  0  0  0  0  0  0  0  0
  138.2990  157.5420  133.7860 O   0  0  0  0  0  0  0  0  0  0  0  0
  139.8790  157.8440  132.1600 O   0  0  0  0  0  0  0  0  0  0  0  0
  139.4390  159.0130  137.8100 H   0  0  0  0  0  0  0  0  0  0  0  0
  142.2934  156.4680  137.0553 H   0  0  0  0  0  0  0  0  0  0  0  0
  143.1881  153.8943  136.1944 H   0  0  0  0  0  0  0  0  0  0  0  0
  142.9426  152.2052  134.3479 H   0  0  0  0  0  0  0  0  0  0  0  0
  142.2660  152.4110  131.5610 H   0  0  0  0  0  0  0  0  0  0  0  0
  140.6090  152.6990  131.5050 H   0  0  0  0  0  0  0  0  0  0  0  0
  141.0467  151.1836  133.7950 H   0  0  0  0  0  0  0  0  0  0  0  0
  140.2609  150.6844  132.2344 H   0  0  0  0  0  0  0  0  0  0  0  0
  142.7495  150.3701  131.4209 H   0  0  0  0  0  0  0  0  0  0  0  0
  143.0930  150.2578  133.1927 H   0  0  0  0  0  0  0  0  0  0  0  0
  142.5968  148.0621  131.8839 H   0  0  0  0  0  0  0  0  0  0  0  0
  141.7492  148.3705  133.4700 H   0  0  0  0  0  0  0  0  0  0  0  0
  140.1477  147.4483  131.9405 H   0  0  0  0  0  0  0  0  0  0  0  0
  139.8149  149.2406  132.1737 H   0  0  0  0  0  0  0  0  0  0  0  0
  141.1110  148.0070  129.8240 H   0  0  0  0  0  0  0  0  0  0  0  0
  138.4022  149.0727  130.3228 H   0  0  0  0  0  0  0  0  0  0  0  0
  139.1918  149.1210  128.6864 H   0  0  0  0  0  0  0  0  0  0  0  0
  137.8325  146.9201  130.0023 H   0  0  0  0  0  0  0  0  0  0  0  0
  138.4861  147.0418  128.3236 H   0  0  0  0  0  0  0  0  0  0  0  0
  140.6020  146.7110  129.4660 H   0  0  0  0  0  0  0  0  0  0  0  0
  140.2050  154.8819  132.2610 H   0  0  0  0  0  0  0  0  0  0  0  0
  1  2  1  0
  2  3  2  0
  2  4  1  0
  4  5  2  0
  5  6  1  0
  6  7  2  0
  7  8  1  0
  8  9  2  0
  9 10  1  0
 10 11  1  0
 11 12  1  0
 12 13  1  0
 13 14  1  0
 14 15  1  0
 15 16  1  0
 16 17  1  0
 17 18  1  0
  9 19  1  0
 19 20  2  0
 20 21  1  0
 21 22  1  0
 22 23  2  0
 22 24  1  0
 21  4  1  0
 20  6  1  0
  1 25  1  0
  5 26  1  0
  7 27  1  0
  8 28  1  0
 10 29  1  0
 10 30  1  0
 11 31  1  0
 11 32  1  0
 12 33  1  0
 12 34  1  0
 13 35  1  0
 13 36  1  0
 14 37  1  0
 14 38  1  0
 15 39  1  0
 16 40  1  0
 16 41  1  0
 17 42  1  0
 17 43  1  0
 18 44  1  0
 19 45  1  0
M  CHG  3   1  -1  10   1  24  -1
M  END
>  <UniqueID>  (32) 
32

>  <SMILES>  (32) 
[NH-]C(=O)c1cc2ccc([NH2+]CCCCNCCO)cc2n1C(=O)[O-]

>  <Energy>  (32) 
81.09485700512212

>  <Genealogy>  (32) 
[NH-]C(=O)c1cc2ccc([NH2+]CCCCNCCO)cc2n1C(=O)[O-] (protonated)
[NH-]C(=O)c1cc2ccc([NH2+]CCCCNCCO)cc2n1C(=O)[O-] (3D coordinates assigned)
[NH-]C(=O)c1cc2ccc([NH2+]CCCCNCCO)cc2n1C(=O)[O-] (optimized conformer: 81.09485700512212 kcal/mol)

>  <smiles>  (32) 
NC(=O)c1cc2ccc(NCCCCNCCO)cc2n1C(=O)O

>  <score_type>  (32) 
oracle

>  <origin>  (32) 
adg

>  <m_score__min__energy>  (32) 
-6.71

>  <m_primary>  (32) 
energy

$$$$
33:0
     RDKit          3D

 37 38  0  0  0  0  0  0  0  0999 V2000
  149.2820  161.8160  130.3890 C   0  0  0  0  0  0  0  0  0  0  0  0
  149.0800  160.5360  131.1420 C   0  0  0  0  0  0  0  0  0  0  0  0
  150.1040  159.5580  131.1710 C   0  0  0  0  0  0  0  0  0  0  0  0
  149.9170  158.3460  131.8580 C   0  0  0  0  0  0  0  0  0  0  0  0
  148.6920  158.1340  132.4850 C   0  0  0  0  0  0  0  0  0  0  0  0
  148.2540  157.0700  133.2390 C   0  0  0  0  0  0  0  0  0  0  0  0
  146.9550  157.3980  133.6250 C   0  0  0  0  0  0  0  0  0  0  0  0
  146.0800  156.4900  134.3940 C   0  0  0  0  0  0  0  0  0  0  0  0
  144.6970  156.3580  134.0760 N   0  0  0  0  0  0  0  0  0  0  0  0
  146.5700  155.7850  135.3170 O   0  0  0  0  0  0  0  0  0  0  0  0
  146.6070  158.6210  133.1320 N   0  0  0  0  0  0  0  0  0  0  0  0
  145.3970  159.3570  133.3690 C   0  0  0  0  0  0  0  0  0  0  0  0
  145.4210  160.3860  134.0980 O   0  0  0  0  0  0  0  0  0  0  0  0
  144.2040  158.9420  132.7690 O   0  0  0  0  0  0  0  0  0  0  0  0
  142.9260  159.1620  133.3580 C   0  0  0  0  0  0  0  0  0  0  0  0
  142.9770  158.8860  134.7550 O   0  0  0  0  0  0  0  0  0  0  0  0
  141.9100  159.1500  135.6190 C   0  0  0  0  0  0  0  0  0  0  0  0
  142.0880  159.1940  136.8670 O   0  0  0  0  0  0  0  0  0  0  0  0
  140.6100  159.3720  135.0700 N   0  0  0  0  0  0  0  0  0  0  0  0
  139.9340  158.3920  134.2320 C   0  0  0  0  0  0  0  0  0  0  0  0
  139.5190  159.0370  132.9520 C   0  0  0  0  0  0  0  0  0  0  0  0
  138.5590  158.5660  132.2880 O   0  0  0  0  0  0  0  0  0  0  0  0
  140.1580  160.1910  132.5170 O   0  0  0  0  0  0  0  0  0  0  0  0
  147.6790  159.0570  132.4350 C   0  0  0  0  0  0  0  0  0  0  0  0
  147.8440  160.2790  131.7750 C   0  0  0  0  0  0  0  0  0  0  0  0
  149.4126  162.6438  131.1015 H   0  0  0  0  0  0  0  0  0  0  0  0
  150.1780  161.7318  129.7564 H   0  0  0  0  0  0  0  0  0  0  0  0
  148.4036  162.0118  129.7564 H   0  0  0  0  0  0  0  0  0  0  0  0
  151.0545  159.7486  130.6511 H   0  0  0  0  0  0  0  0  0  0  0  0
  150.7137  157.5886  131.8990 H   0  0  0  0  0  0  0  0  0  0  0  0
  148.8109  156.1540  133.4853 H   0  0  0  0  0  0  0  0  0  0  0  0
  144.0750  157.1950  134.0260 H   0  0  0  0  0  0  0  0  0  0  0  0
  142.6303  160.2104  133.2048 H   0  0  0  0  0  0  0  0  0  0  0  0
  142.1916  158.4932  132.8853 H   0  0  0  0  0  0  0  0  0  0  0  0
  140.6184  157.5579  134.0177 H   0  0  0  0  0  0  0  0  0  0  0  0
  139.0455  158.0105  134.7563 H   0  0  0  0  0  0  0  0  0  0  0  0
  147.0321  161.0207  131.7496 H   0  0  0  0  0  0  0  0  0  0  0  0
  1  2  1  0
  2  3  2  0
  3  4  1  0
  4  5  2  0
  5  6  1  0
  6  7  2  0
  7  8  1  0
  8  9  1  0
  8 10  2  0
  7 11  1  0
 11 12  1  0
 12 13  2  0
 12 14  1  0
 14 15  1  0
 15 16  1  0
 16 17  1  0
 17 18  2  0
 17 19  1  0
 19 20  1  0
 20 21  1  0
 21 22  2  0
 21 23  1  0
 11 24  1  0
 24 25  2  0
 25  2  1  0
 24  5  1  0
  1 26  1  0
  1 27  1  0
  1 28  1  0
  3 29  1  0
  4 30  1  0
  6 31  1  0
  9 32  1  0
 15 33  1  0
 15 34  1  0
 20 35  1  0
 20 36  1  0
 25 37  1  0
M  CHG  3   9  -1  19  -1  23  -1
M  END
>  <UniqueID>  (33) 
33

>  <SMILES>  (33) 
Cc1ccc2cc(C([NH-])=O)n(C(=O)OCOC(=O)[N-]CC(=O)[O-])c2c1

>  <Energy>  (33) 
68.29543969170005

>  <Genealogy>  (33) 
Cc1ccc2cc(C([NH-])=O)n(C(=O)OCOC(=O)[N-]CC(=O)[O-])c2c1 (protonated)
Cc1ccc2cc(C([NH-])=O)n(C(=O)OCOC(=O)[N-]CC(=O)[O-])c2c1 (3D coordinates assigned)
Cc1ccc2cc(C([NH-])=O)n(C(=O)OCOC(=O)[N-]CC(=O)[O-])c2c1 (optimized conformer: 68.29543969170005 kcal/mol)

>  <smiles>  (33) 
Cc1ccc2cc(C(N)=O)n(C(=O)OCOC(=O)NCC(=O)O)c2c1

>  <score_type>  (33) 
oracle

>  <origin>  (33) 
adg

>  <m_score__min__energy>  (33) 
-6.6600000000000001

>  <m_primary>  (33) 
energy

$$$$
34:0
     RDKit          3D

 34 35  0  0  0  0  0  0  0  0999 V2000
  145.5210  161.2080  133.8040 N   0  0  0  0  0  0  0  0  0  0  0  0
  144.7600  160.0330  133.5350 C   0  0  0  0  0  0  0  0  0  0  0  0
  143.5160  160.1270  133.3710 O   0  0  0  0  0  0  0  0  0  0  0  0
  145.4290  158.7190  133.4830 C   0  0  0  0  0  0  0  0  0  0  0  0
  144.7800  157.5090  133.7250 C   0  0  0  0  0  0  0  0  0  0  0  0
  145.7260  156.5350  133.4920 C   0  0  0  0  0  0  0  0  0  0  0  0
  145.6300  155.1490  133.5810 C   0  0  0  0  0  0  0  0  0  0  0  0
  146.7770  154.3900  133.2940 C   0  0  0  0  0  0  0  0  0  0  0  0
  147.9920  155.0240  132.9310 C   0  0  0  0  0  0  0  0  0  0  0  0
  149.2090  154.1940  132.6090 C   0  0  0  0  0  0  0  0  0  0  0  0
  148.8470  152.7220  132.3640 C   0  0  0  0  0  0  0  0  0  0  0  0
  150.0050  151.7990  132.6110 C   0  0  0  0  0  0  0  0  0  0  0  0
  150.1750  150.8310  131.8880 O   0  0  0  0  0  0  0  0  0  0  0  0
  148.0510  156.4330  132.8490 C   0  0  0  0  0  0  0  0  0  0  0  0
  146.8890  157.1610  133.1300 C   0  0  0  0  0  0  0  0  0  0  0  0
  146.7250  158.5000  133.1240 N   0  0  0  0  0  0  0  0  0  0  0  0
  147.7450  159.4720  132.8500 C   0  0  0  0  0  0  0  0  0  0  0  0
  148.2200  160.1550  133.7970 O   0  0  0  0  0  0  0  0  0  0  0  0
  148.1230  159.7900  131.4310 C   0  0  0  0  0  0  0  0  0  0  0  0
  149.5260  159.3650  131.1240 C   0  0  0  0  0  0  0  0  0  0  0  0
  150.1050  158.5210  131.8570 O   0  0  0  0  0  0  0  0  0  0  0  0
  150.1860  159.8800  130.0160 O   0  0  0  0  0  0  0  0  0  0  0  0
  146.4440  161.3660  133.3410 H   0  0  0  0  0  0  0  0  0  0  0  0
  143.7350  157.3631  134.0358 H   0  0  0  0  0  0  0  0  0  0  0  0
  144.6855  154.6632  133.8671 H   0  0  0  0  0  0  0  0  0  0  0  0
  146.7318  153.2924  133.3516 H   0  0  0  0  0  0  0  0  0  0  0  0
  149.6866  154.5985  131.7044 H   0  0  0  0  0  0  0  0  0  0  0  0
  149.8914  154.2394  133.4705 H   0  0  0  0  0  0  0  0  0  0  0  0
  148.0235  152.4438  133.0382 H   0  0  0  0  0  0  0  0  0  0  0  0
  148.5558  152.6195  131.3082 H   0  0  0  0  0  0  0  0  0  0  0  0
  150.6986  151.9950  133.4419 H   0  0  0  0  0  0  0  0  0  0  0  0
  148.9847  156.9442  132.5718 H   0  0  0  0  0  0  0  0  0  0  0  0
  147.4347  159.2650  130.7523 H   0  0  0  0  0  0  0  0  0  0  0  0
  148.0564  160.8794  131.2938 H   0  0  0  0  0  0  0  0  0  0  0  0
  1  2  1  0
  2  3  2  0
  2  4  1  0
  4  5  2  0
  5  6  1  0
  6  7  2  0
  7  8  1  0
  8  9  2  0
  9 10  1  0
 10 11  1  0
 11 12  1  0
 12 13  2  0
  9 14  1  0
 14 15  2  0
 15 16  1  0
 16 17  1  0
 17 18  2  0
 17 19  1  0
 19 20  1  0
 20 21  2  0
 20 22  1  0
 16  4  1  0
 15  6  1  0
  1 23  1  0
  5 24  1  0
  7 25  1  0
  8 26  1  0
 10 27  1  0
 10 28  1  0
 11 29  1  0
 11 30  1  0
 12 31  1  0
 14 32  1  0
 19 33  1  0
 19 34  1  0
M  CHG  2   1  -1  22  -1
M  END
>  <UniqueID>  (34) 
34

>  <SMILES>  (34) 
[NH-]C(=O)c1cc2ccc(CCC=O)cc2n1C(=O)CC(=O)[O-]

>  <Energy>  (34) 
69.2941383955835

>  <Genealogy>  (34) 
[NH-]C(=O)c1cc2ccc(CCC=O)cc2n1C(=O)CC(=O)[O-] (protonated)
[NH-]C(=O)c1cc2ccc(CCC=O)cc2n1C(=O)CC(=O)[O-] (3D coordinates assigned)
[NH-]C(=O)c1cc2ccc(CCC=O)cc2n1C(=O)CC(=O)[O-] (optimized conformer: 69.2941383955835 kcal/mol)

>  <smiles>  (34) 
NC(=O)c1cc2ccc(CCC=O)cc2n1C(=O)CC(=O)O

>  <score_type>  (34) 
oracle

>  <origin>  (34) 
adg

>  <m_score__min__energy>  (34) 
-6.75

>  <m_primary>  (34) 
energy

$$$$
35:0
     RDKit          3D

 50 51  0  0  0  0  0  0  0  0999 V2000
  148.3820  154.9840  132.6760 C   0  0  0  0  0  0  0  0  0  0  0  0
  147.9080  156.3930  132.8770 C   0  0  0  0  0  0  0  0  0  0  0  0
  148.8500  157.4380  133.0450 C   0  0  0  0  0  0  0  0  0  0  0  0
  148.4210  158.7550  133.2790 C   0  0  0  0  0  0  0  0  0  0  0  0
  147.0510  158.9940  133.3430 C   0  0  0  0  0  0  0  0  0  0  0  0
  146.3690  160.1630  133.5870 C   0  0  0  0  0  0  0  0  0  0  0  0
  145.0200  159.8190  133.5520 C   0  0  0  0  0  0  0  0  0  0  0  0
  143.9330  160.8080  133.6850 C   0  0  0  0  0  0  0  0  0  0  0  0
  142.5970  160.4770  133.3230 N   0  0  0  0  0  0  0  0  0  0  0  0
  144.1960  161.9770  134.0750 O   0  0  0  0  0  0  0  0  0  0  0  0
  144.8700  158.4850  133.3040 N   0  0  0  0  0  0  0  0  0  0  0  0
  143.6550  157.7160  133.2960 C   0  0  0  0  0  0  0  0  0  0  0  0
  142.9850  157.6140  132.2330 O   0  0  0  0  0  0  0  0  0  0  0  0
  143.2330  157.0320  134.4840 N   0  0  0  0  0  0  0  0  0  0  0  0
  141.8610  156.9270  134.9930 C   0  0  2  0  0  0  0  0  0  0  0  0
  140.8920  156.8420  133.8450 C   0  0  0  0  0  0  0  0  0  0  0  0
  140.2380  155.7820  133.6480 O   0  0  0  0  0  0  0  0  0  0  0  0
  140.7210  157.9640  133.0200 O   0  0  0  0  0  0  0  0  0  0  0  0
  139.4710  158.5780  132.6700 C   0  0  0  0  0  0  0  0  0  0  0  0
  138.3780  158.2050  133.6890 C   0  0  0  0  0  0  0  0  0  0  0  0
  139.6860  160.0990  132.7020 C   0  0  0  0  0  0  0  0  0  0  0  0
  139.0470  158.1630  131.2470 C   0  0  0  0  0  0  0  0  0  0  0  0
  141.4910  158.0630  135.9770 C   0  0  2  0  0  0  0  0  0  0  0  0
  140.0610  157.9070  136.5060 C   0  0  0  0  0  0  0  0  0  0  0  0
  141.6010  159.2940  135.3080 O   0  0  0  0  0  0  0  0  0  0  0  0
  146.1250  157.9950  133.1770 C   0  0  0  0  0  0  0  0  0  0  0  0
  146.5260  156.6700  132.9670 C   0  0  0  0  0  0  0  0  0  0  0  0
  148.5422  154.5079  133.6546 H   0  0  0  0  0  0  0  0  0  0  0  0
  147.6244  154.4191  132.1130 H   0  0  0  0  0  0  0  0  0  0  0  0
  149.3270  154.9918  132.1130 H   0  0  0  0  0  0  0  0  0  0  0  0
  149.9261  157.2162  132.9917 H   0  0  0  0  0  0  0  0  0  0  0  0
  149.1455  159.5726  133.4078 H   0  0  0  0  0  0  0  0  0  0  0  0
  146.7982  161.1590  133.7709 H   0  0  0  0  0  0  0  0  0  0  0  0
  142.3020  159.4820  133.2070 H   0  0  0  0  0  0  0  0  0  0  0  0
  141.7964  155.9992  135.5803 H   0  0  0  0  0  0  0  0  0  0  0  0
  138.7672  158.3378  134.7092 H   0  0  0  0  0  0  0  0  0  0  0  0
  137.5030  158.8554  133.5428 H   0  0  0  0  0  0  0  0  0  0  0  0
  138.0832  157.1554  133.5428 H   0  0  0  0  0  0  0  0  0  0  0  0
  139.7343  160.4406  133.7465 H   0  0  0  0  0  0  0  0  0  0  0  0
  140.6281  160.3470  132.1912 H   0  0  0  0  0  0  0  0  0  0  0  0
  138.8495  160.5984  132.1912 H   0  0  0  0  0  0  0  0  0  0  0  0
  138.2621  157.3947  131.3077 H   0  0  0  0  0  0  0  0  0  0  0  0
  138.6599  159.0409  130.7090 H   0  0  0  0  0  0  0  0  0  0  0  0
  139.9164  157.7572  130.7090 H   0  0  0  0  0  0  0  0  0  0  0  0
  142.1792  158.0181  136.8339 H   0  0  0  0  0  0  0  0  0  0  0  0
  140.0747  157.9085  137.6059 H   0  0  0  0  0  0  0  0  0  0  0  0
  139.4436  158.7431  136.1459 H   0  0  0  0  0  0  0  0  0  0  0  0
  139.6384  156.9574  136.1459 H   0  0  0  0  0  0  0  0  0  0  0  0
  141.9790  159.1030  134.4100 H   0  0  0  0  0  0  0  0  0  0  0  0
  145.7828  155.8644  132.8744 H   0  0  0  0  0  0  0  0  0  0  0  0
  1  2  1  0
  2  3  2  0
  3  4  1  0
  4  5  2  0
  5  6  1  0
  6  7  2  0
  7  8  1  0
  8  9  1  0
  8 10  2  0
  7 11  1  0
 11 12  1  0
 12 13  2  0
 12 14  1  0
 14 15  1  0
 15 16  1  0
 16 17  2  0
 16 18  1  0
 18 19  1  0
 19 20  1  0
 19 21  1  0
 19 22  1  0
 15 23  1  0
 23 24  1  0
 23 25  1  0
 11 26  1  0
 26 27  2  0
 27  2  1  0
 26  5  1  0
  1 28  1  0
  1 29  1  0
  1 30  1  0
  3 31  1  0
  4 32  1  0
  6 33  1  0
  9 34  1  0
 15 35  1  1
 20 36  1  0
 20 37  1  0
 20 38  1  0
 21 39  1  0
 21 40  1  0
 21 41  1  0
 22 42  1  0
 22 43  1  0
 22 44  1  0
 23 45  1  1
 24 46  1  0
 24 47  1  0
 24 48  1  0
 25 49  1  0
 27 50  1  0
M  CHG  2   9  -1  14  -1
M  END
>  <UniqueID>  (35) 
35

>  <SMILES>  (35) 
Cc1ccc2cc(C([NH-])=O)n(C(=O)[N-][C@H](C(=O)OC(C)(C)C)[C@H](C)O)c2c1

>  <Energy>  (35) 
80.57718549900898

>  <Genealogy>  (35) 
Cc1ccc2cc(C([NH-])=O)n(C(=O)[N-][C@H](C(=O)OC(C)(C)C)[C@H](C)O)c2c1 (protonated)
Cc1ccc2cc(C([NH-])=O)n(C(=O)[N-][C@H](C(=O)OC(C)(C)C)[C@H](C)O)c2c1 (3D coordinates assigned)
Cc1ccc2cc(C([NH-])=O)n(C(=O)[N-][C@H](C(=O)OC(C)(C)C)[C@H](C)O)c2c1 (optimized conformer: 80.57718549900898 kcal/mol)

>  <smiles>  (35) 
Cc1ccc2cc(C(N)=O)n(C(=O)N[C@H](C(=O)OC(C)(C)C)[C@H](C)O)c2c1

>  <score_type>  (35) 
oracle

>  <origin>  (35) 
adg

>  <m_score__min__energy>  (35) 
-7.7699999999999996

>  <m_primary>  (35) 
energy

$$$$
36:0
     RDKit          3D

 46 47  0  0  0  0  0  0  0  0999 V2000
  147.6140  151.6150  132.2350 C   0  0  0  0  0  0  0  0  0  0  0  0
  146.8900  152.6190  132.9360 O   0  0  0  0  0  0  0  0  0  0  0  0
  145.5460  152.8990  132.6670 C   0  0  0  0  0  0  0  0  0  0  0  0
  145.1040  152.8540  131.4850 O   0  0  0  0  0  0  0  0  0  0  0  0
  144.6320  153.2920  133.7870 C   0  0  0  0  0  0  0  0  0  0  0  0
  144.6990  154.7410  134.0250 N   0  0  0  0  0  0  0  0  0  0  0  0
  144.7850  155.2400  135.4030 C   0  0  0  0  0  0  0  0  0  0  0  0
  145.8270  154.4500  136.1950 C   0  0  0  0  0  0  0  0  0  0  0  0
  147.2260  154.6330  135.5980 C   0  0  0  0  0  0  0  0  0  0  0  0
  147.8330  153.3910  135.3840 O   0  0  0  0  0  0  0  0  0  0  0  0
  144.7590  155.6650  132.9150 C   0  0  0  0  0  0  0  0  0  0  0  0
  144.1710  155.3950  131.8330 O   0  0  0  0  0  0  0  0  0  0  0  0
  145.4390  156.9200  133.0420 N   0  0  0  0  0  0  0  0  0  0  0  0
  146.7750  157.1610  132.9550 C   0  0  0  0  0  0  0  0  0  0  0  0
  147.8010  156.1430  132.6230 C   0  0  0  0  0  0  0  0  0  0  0  0
  147.4370  154.8610  132.1080 N   0  0  0  0  0  0  0  0  0  0  0  0
  149.0200  156.3960  132.8130 O   0  0  0  0  0  0  0  0  0  0  0  0
  147.0320  158.5120  133.2000 C   0  0  0  0  0  0  0  0  0  0  0  0
  145.8040  159.0840  133.4420 C   0  0  0  0  0  0  0  0  0  0  0  0
  145.4670  160.3970  133.7560 C   0  0  0  0  0  0  0  0  0  0  0  0
  144.1100  160.6950  133.9750 C   0  0  0  0  0  0  0  0  0  0  0  0
  143.1220  159.6770  133.8990 C   0  0  0  0  0  0  0  0  0  0  0  0
  141.6630  160.0010  134.1040 C   0  0  0  0  0  0  0  0  0  0  0  0
  141.3260  159.9580  135.4450 F   0  0  0  0  0  0  0  0  0  0  0  0
  140.8670  159.0890  133.4320 F   0  0  0  0  0  0  0  0  0  0  0  0
  141.4080  161.2690  133.6140 F   0  0  0  0  0  0  0  0  0  0  0  0
  143.5070  158.3620  133.5490 C   0  0  0  0  0  0  0  0  0  0  0  0
  144.8610  158.0990  133.3370 C   0  0  0  0  0  0  0  0  0  0  0  0
  148.0995  150.9417  132.9567 H   0  0  0  0  0  0  0  0  0  0  0  0
  146.9227  151.0382  131.6031 H   0  0  0  0  0  0  0  0  0  0  0  0
  148.3796  152.0888  131.6031 H   0  0  0  0  0  0  0  0  0  0  0  0
  143.5999  153.0160  133.5252 H   0  0  0  0  0  0  0  0  0  0  0  0
  144.9457  152.7675  134.7016 H   0  0  0  0  0  0  0  0  0  0  0  0
  145.0719  156.3018  135.3862 H   0  0  0  0  0  0  0  0  0  0  0  0
  143.8044  155.1195  135.8866 H   0  0  0  0  0  0  0  0  0  0  0  0
  145.8313  154.8040  137.2365 H   0  0  0  0  0  0  0  0  0  0  0  0
  145.5646  153.3826  136.1515 H   0  0  0  0  0  0  0  0  0  0  0  0
  147.1437  155.1658  134.6392 H   0  0  0  0  0  0  0  0  0  0  0  0
  147.8405  155.2130  136.3022 H   0  0  0  0  0  0  0  0  0  0  0  0
  147.3930  152.9870  134.5890 H   0  0  0  0  0  0  0  0  0  0  0  0
  148.1760  154.1430  131.9330 H   0  0  0  0  0  0  0  0  0  0  0  0
  146.4510  154.6230  131.8640 H   0  0  0  0  0  0  0  0  0  0  0  0
  148.0110  159.0136  133.1996 H   0  0  0  0  0  0  0  0  0  0  0  0
  146.2381  161.1779  133.8306 H   0  0  0  0  0  0  0  0  0  0  0  0
  143.8104  161.7275  134.2077 H   0  0  0  0  0  0  0  0  0  0  0  0
  142.7563  157.5646  133.4462 H   0  0  0  0  0  0  0  0  0  0  0  0
  1  2  1  0
  2  3  1  0
  3  4  2  0
  3  5  1  0
  5  6  1  0
  6  7  1  0
  7  8  1  0
  8  9  1  0
  9 10  1  0
  6 11  1  0
 11 12  2  0
 11 13  1  0
 13 14  1  0
 14 15  1  0
 15 16  1  0
 15 17  2  0
 14 18  2  0
 18 19  1  0
 19 20  2  0
 20 21  1  0
 21 22  2  0
 22 23  1  0
 23 24  1  0
 23 25  1  0
 23 26  1  0
 22 27  1  0
 27 28  2  0
 28 13  1  0
 28 19  1  0
  1 29  1  0
  1 30  1  0
  1 31  1  0
  5 32  1  0
  5 33  1  0
  7 34  1  0
  7 35  1  0
  8 36  1  0
  8 37  1  0
  9 38  1  0
  9 39  1  0
 10 40  1  0
 16 41  1  0
 16 42  1  0
 18 43  1  0
 20 44  1  0
 21 45  1  0
 27 46  1  0
M  END
>  <UniqueID>  (36) 
36

>  <SMILES>  (36) 
COC(=O)CN(CCCO)C(=O)n1c(C(N)=O)cc2ccc(C(F)(F)F)cc21

>  <Energy>  (36) 
74.10830269226938

>  <Genealogy>  (36) 
COC(=O)CN(CCCO)C(=O)n1c(C(N)=O)cc2ccc(C(F)(F)F)cc21 (3D coordinates assigned)
COC(=O)CN(CCCO)C(=O)n1c(C(N)=O)cc2ccc(C(F)(F)F)cc21 (optimized conformer: 74.10830269226938 kcal/mol)

>  <smiles>  (36) 
COC(=O)CN(CCCO)C(=O)n1c(C(N)=O)cc2ccc(C(F)(F)F)cc21

>  <score_type>  (36) 
oracle

>  <origin>  (36) 
adg

>  <m_score__min__energy>  (36) 
-5.5300000000000002

>  <m_primary>  (36) 
energy

$$$$
37:0
     RDKit          3D

 31 32  0  0  0  0  0  0  0  0999 V2000
  146.3560  152.8110  133.0870 N   0  0  0  0  0  0  0  0  0  0  0  0
  146.2390  153.8980  134.0050 C   0  0  0  0  0  0  0  0  0  0  0  0
  145.7770  153.6840  135.1590 O   0  0  0  0  0  0  0  0  0  0  0  0
  146.5890  155.2770  133.6090 C   0  0  0  0  0  0  0  0  0  0  0  0
  145.7800  156.3770  133.8750 C   0  0  0  0  0  0  0  0  0  0  0  0
  146.4220  157.4470  133.2960 C   0  0  0  0  0  0  0  0  0  0  0  0
  146.0620  158.7900  133.2580 C   0  0  0  0  0  0  0  0  0  0  0  0
  146.9300  159.6870  132.6140 C   0  0  0  0  0  0  0  0  0  0  0  0
  148.1500  159.2360  132.0480 C   0  0  0  0  0  0  0  0  0  0  0  0
  149.0570  160.2030  131.3300 C   0  0  0  0  0  0  0  0  0  0  0  0
  148.6060  161.5020  131.4810 F   0  0  0  0  0  0  0  0  0  0  0  0
  149.0820  159.8890  129.9840 F   0  0  0  0  0  0  0  0  0  0  0  0
  150.3440  160.1310  131.8330 F   0  0  0  0  0  0  0  0  0  0  0  0
  148.4690  157.8590  132.0880 C   0  0  0  0  0  0  0  0  0  0  0  0
  147.5750  156.9830  132.7170 C   0  0  0  0  0  0  0  0  0  0  0  0
  147.6930  155.6480  132.9030 N   0  0  0  0  0  0  0  0  0  0  0  0
  148.8150  154.8230  132.5470 C   0  0  0  0  0  0  0  0  0  0  0  0
  149.9820  155.3020  132.5660 O   0  0  0  0  0  0  0  0  0  0  0  0
  148.6050  153.4890  132.1810 O   0  0  0  0  0  0  0  0  0  0  0  0
  149.5590  152.4540  132.4100 C   0  0  0  0  0  0  0  0  0  0  0  0
  148.9370  151.1140  132.1820 C   0  0  0  0  0  0  0  0  0  0  0  0
  149.6370  150.0690  132.2510 O   0  0  0  0  0  0  0  0  0  0  0  0
  147.5770  151.0160  131.9200 O   0  0  0  0  0  0  0  0  0  0  0  0
  146.1440  151.8360  133.3970 H   0  0  0  0  0  0  0  0  0  0  0  0
  146.5750  152.9760  132.0800 H   0  0  0  0  0  0  0  0  0  0  0  0
  144.8301  156.3887  134.4297 H   0  0  0  0  0  0  0  0  0  0  0  0
  145.1259  159.1390  133.7183 H   0  0  0  0  0  0  0  0  0  0  0  0
  146.6606  160.7514  132.5478 H   0  0  0  0  0  0  0  0  0  0  0  0
  149.3987  157.4840  131.6352 H   0  0  0  0  0  0  0  0  0  0  0  0
  150.4063  152.5826  131.7204 H   0  0  0  0  0  0  0  0  0  0  0  0
  149.9078  152.5135  133.4515 H   0  0  0  0  0  0  0  0  0  0  0  0
  1  2  1  0
  2  3  2  0
  2  4  1  0
  4  5  2  0
  5  6  1  0
  6  7  2  0
  7  8  1  0
  8  9  2  0
  9 10  1  0
 10 11  1  0
 10 12  1  0
 10 13  1  0
  9 14  1  0
 14 15  2  0
 15 16  1  0
 16 17  1  0
 17 18  2  0
 17 19  1  0
 19 20  1  0
 20 21  1  0
 21 22  2  0
 21 23  1  0
 16  4  1  0
 15  6  1  0
  1 24  1  0
  1 25  1  0
  5 26  1  0
  7 27  1  0
  8 28  1  0
 14 29  1  0
 20 30  1  0
 20 31  1  0
M  CHG  1  23  -1
M  END
>  <UniqueID>  (37) 
37

>  <SMILES>  (37) 
NC(=O)c1cc2ccc(C(F)(F)F)cc2n1C(=O)OCC(=O)[O-]

>  <Energy>  (37) 
69.11971383937696

>  <Genealogy>  (37) 
NC(=O)c1cc2ccc(C(F)(F)F)cc2n1C(=O)OCC(=O)[O-] (protonated)
NC(=O)c1cc2ccc(C(F)(F)F)cc2n1C(=O)OCC(=O)[O-] (3D coordinates assigned)
NC(=O)c1cc2ccc(C(F)(F)F)cc2n1C(=O)OCC(=O)[O-] (optimized conformer: 69.11971383937696 kcal/mol)

>  <smiles>  (37) 
NC(=O)c1cc2ccc(C(F)(F)F)cc2n1C(=O)OCC(=O)O

>  <score_type>  (37) 
oracle

>  <origin>  (37) 
adg

>  <m_score__min__energy>  (37) 
-5.9900000000000002

>  <m_primary>  (37) 
energy

$$$$
38:0
     RDKit          3D

 40 41  0  0  0  0  0  0  0  0999 V2000
  149.3840  158.9780  133.3400 N   0  0  0  0  0  0  0  0  0  0  0  0
  148.2610  159.5780  132.6930 C   0  0  0  0  0  0  0  0  0  0  0  0
  148.4570  160.4240  131.7810 O   0  0  0  0  0  0  0  0  0  0  0  0
  146.8820  159.2460  133.1150 C   0  0  0  0  0  0  0  0  0  0  0  0
  145.8060  160.1210  132.9870 C   0  0  0  0  0  0  0  0  0  0  0  0
  144.7040  159.4030  133.3860 C   0  0  0  0  0  0  0  0  0  0  0  0
  143.3680  159.7870  133.4530 C   0  0  0  0  0  0  0  0  0  0  0  0
  142.4340  158.8460  133.9140 C   0  0  0  0  0  0  0  0  0  0  0  0
  142.8490  157.5520  134.3180 C   0  0  0  0  0  0  0  0  0  0  0  0
  141.8300  156.5360  134.7710 C   0  0  0  0  0  0  0  0  0  0  0  0
  142.4370  155.3280  135.0670 F   0  0  0  0  0  0  0  0  0  0  0  0
  141.1730  156.9790  135.9070 F   0  0  0  0  0  0  0  0  0  0  0  0
  140.9040  156.3400  133.7630 F   0  0  0  0  0  0  0  0  0  0  0  0
  144.2120  157.1920  134.2090 C   0  0  0  0  0  0  0  0  0  0  0  0
  145.1230  158.1460  133.7370 C   0  0  0  0  0  0  0  0  0  0  0  0
  146.4630  158.0330  133.5810 N   0  0  0  0  0  0  0  0  0  0  0  0
  147.2820  156.9010  133.9310 C   0  0  0  0  0  0  0  0  0  0  0  0
  148.0980  156.9880  134.8890 O   0  0  0  0  0  0  0  0  0  0  0  0
  147.1640  155.7040  133.2170 O   0  0  0  0  0  0  0  0  0  0  0  0
  146.2340  154.6720  133.5440 C   0  0  0  0  0  0  0  0  0  0  0  0
  146.3940  154.1990  135.0030 C   0  0  2  0  0  0  0  0  0  0  0  0
  145.6420  155.0230  135.8600 O   0  0  0  0  0  0  0  0  0  0  0  0
  147.8670  154.1610  135.4390 C   0  0  0  0  0  0  0  0  0  0  0  0
  147.9920  154.7600  136.7090 O   0  0  0  0  0  0  0  0  0  0  0  0
  147.6520  153.5820  137.8940 P   0  0  0  0  0  0  0  0  0  0  0  0
  148.8160  152.6270  138.0310 O   0  0  0  0  0  0  0  0  0  0  0  0
  147.3940  154.3540  139.3760 O   0  0  0  0  0  0  0  0  0  0  0  0
  146.2570  152.7160  137.4770 O   0  0  0  0  0  0  0  0  0  0  0  0
  150.3540  159.2480  133.0630 H   0  0  0  0  0  0  0  0  0  0  0  0
  149.2590  158.2380  134.0650 H   0  0  0  0  0  0  0  0  0  0  0  0
  145.8325  161.1646  132.6403 H   0  0  0  0  0  0  0  0  0  0  0  0
  143.0534  160.7977  133.1537 H   0  0  0  0  0  0  0  0  0  0  0  0
  141.3686  159.1155  133.9623 H   0  0  0  0  0  0  0  0  0  0  0  0
  144.5502  156.1835  134.4891 H   0  0  0  0  0  0  0  0  0  0  0  0
  145.2126  155.0555  133.4039 H   0  0  0  0  0  0  0  0  0  0  0  0
  146.4281  153.8144  132.8830 H   0  0  0  0  0  0  0  0  0  0  0  0
  146.0138  153.1687  135.0662 H   0  0  0  0  0  0  0  0  0  0  0  0
  145.8220  154.7310  136.7920 H   0  0  0  0  0  0  0  0  0  0  0  0
  148.2084  153.1166  135.4900 H   0  0  0  0  0  0  0  0  0  0  0  0
  148.4815  154.7099  134.7103 H   0  0  0  0  0  0  0  0  0  0  0  0
  1  2  1  0
  2  3  2  0
  2  4  1  0
  4  5  2  0
  5  6  1  0
  6  7  2  0
  7  8  1  0
  8  9  2  0
  9 10  1  0
 10 11  1  0
 10 12  1  0
 10 13  1  0
  9 14  1  0
 14 15  2  0
 15 16  1  0
 16 17  1  0
 17 18  2  0
 17 19  1  0
 19 20  1  0
 20 21  1  0
 21 22  1  0
 21 23  1  0
 23 24  1  0
 24 25  1  0
 25 26  2  0
 25 27  1  0
 25 28  1  0
 16  4  1  0
 15  6  1  0
  1 29  1  0
  1 30  1  0
  5 31  1  0
  7 32  1  0
  8 33  1  0
 14 34  1  0
 20 35  1  0
 20 36  1  0
 21 37  1  6
 22 38  1  0
 23 39  1  0
 23 40  1  0
M  CHG  2  27  -1  28  -1
M  END
>  <UniqueID>  (38) 
38

>  <SMILES>  (38) 
NC(=O)c1cc2ccc(C(F)(F)F)cc2n1C(=O)OC[C@H](O)COP(=O)([O-])[O-]

>  <Energy>  (38) 
73.3412278209543

>  <Genealogy>  (38) 
NC(=O)c1cc2ccc(C(F)(F)F)cc2n1C(=O)OCC(O)COP(=O)([O-])[O-] (protonated)
NC(=O)c1cc2ccc(C(F)(F)F)cc2n1C(=O)OC[C@H](O)COP(=O)([O-])[O-] (chirality)
NC(=O)c1cc2ccc(C(F)(F)F)cc2n1C(=O)OC[C@H](O)COP(=O)([O-])[O-] (3D coordinates assigned)
NC(=O)c1cc2ccc(C(F)(F)F)cc2n1C(=O)OC[C@H](O)COP(=O)([O-])[O-] (optimized conformer: 73.3412278209543 kcal/mol)

>  <smiles>  (38) 
NC(=O)c1cc2ccc(C(F)(F)F)cc2n1C(=O)OCC(O)COP(=O)(O)O

>  <score_type>  (38) 
oracle

>  <origin>  (38) 
adg

>  <m_score__min__energy>  (38) 
-6.5800000000000001

>  <m_primary>  (38) 
energy

$$$$
39:0
     RDKit          3D

 39 40  0  0  0  0  0  0  0  0999 V2000
  144.3710  154.5980  131.1790 C   0  0  0  0  0  0  0  0  0  0  0  0
  144.7060  153.8470  132.4730 C   0  0  1  0  0  0  0  0  0  0  0  0
  145.8640  152.9720  132.2590 N   0  0  0  0  0  0  0  0  0  0  0  0
  145.7530  151.5410  132.2370 C   0  0  0  0  0  0  0  0  0  0  0  0
  144.6310  150.9850  132.3860 O   0  0  0  0  0  0  0  0  0  0  0  0
  146.9810  150.6930  132.0780 C   0  0  0  0  0  0  0  0  0  0  0  0
  148.1670  151.3870  132.5750 N   0  0  0  0  0  0  0  0  0  0  0  0
  144.9510  154.8140  133.6080 C   0  0  0  0  0  0  0  0  0  0  0  0
  144.3900  154.6170  134.7200 O   0  0  0  0  0  0  0  0  0  0  0  0
  145.8840  155.8970  133.4810 N   0  0  0  0  0  0  0  0  0  0  0  0
  147.2330  155.8090  133.3110 C   0  0  0  0  0  0  0  0  0  0  0  0
  148.0020  154.5540  133.1780 C   0  0  0  0  0  0  0  0  0  0  0  0
  147.8280  153.5120  134.1340 N   0  0  0  0  0  0  0  0  0  0  0  0
  148.8210  154.3970  132.2350 O   0  0  0  0  0  0  0  0  0  0  0  0
  147.7960  157.0810  133.2360 C   0  0  0  0  0  0  0  0  0  0  0  0
  146.7420  157.9560  133.3760 C   0  0  0  0  0  0  0  0  0  0  0  0
  146.7220  159.3470  133.3600 C   0  0  0  0  0  0  0  0  0  0  0  0
  145.4820  159.9890  133.5170 C   0  0  0  0  0  0  0  0  0  0  0  0
  144.2940  159.2370  133.7130 C   0  0  0  0  0  0  0  0  0  0  0  0
  142.9640  159.9360  133.8290 C   0  0  0  0  0  0  0  0  0  0  0  0
  142.0590  159.4200  132.9170 F   0  0  0  0  0  0  0  0  0  0  0  0
  143.1360  161.2850  133.5790 F   0  0  0  0  0  0  0  0  0  0  0  0
  142.4370  159.7760  135.0990 F   0  0  0  0  0  0  0  0  0  0  0  0
  144.3550  157.8250  133.7030 C   0  0  0  0  0  0  0  0  0  0  0  0
  145.6000  157.2150  133.5290 C   0  0  0  0  0  0  0  0  0  0  0  0
  143.9343  155.5770  131.4258 H   0  0  0  0  0  0  0  0  0  0  0  0
  145.2894  154.7438  130.5914 H   0  0  0  0  0  0  0  0  0  0  0  0
  143.6489  154.0120  130.5914 H   0  0  0  0  0  0  0  0  0  0  0  0
  143.8459  153.2211  132.7532 H   0  0  0  0  0  0  0  0  0  0  0  0
  146.8140  153.3960  132.1620 H   0  0  0  0  0  0  0  0  0  0  0  0
  146.8481  149.7587  132.6432 H   0  0  0  0  0  0  0  0  0  0  0  0
  147.1230  150.4805  131.0081 H   0  0  0  0  0  0  0  0  0  0  0  0
  148.1390  152.3800  132.2460 H   0  0  0  0  0  0  0  0  0  0  0  0
  148.1410  151.3960  133.6210 H   0  0  0  0  0  0  0  0  0  0  0  0
  147.3300  152.6280  133.8810 H   0  0  0  0  0  0  0  0  0  0  0  0
  148.8574  157.3330  133.0948 H   0  0  0  0  0  0  0  0  0  0  0  0
  147.6479  159.9261  133.2286 H   0  0  0  0  0  0  0  0  0  0  0  0
  145.4312  161.0874  133.4877 H   0  0  0  0  0  0  0  0  0  0  0  0
  143.4444  157.2209  133.8291 H   0  0  0  0  0  0  0  0  0  0  0  0
  1  2  1  0
  2  3  1  0
  3  4  1  0
  4  5  2  0
  4  6  1  0
  6  7  1  0
  2  8  1  0
  8  9  2  0
  8 10  1  0
 10 11  1  0
 11 12  1  0
 12 13  1  0
 12 14  2  0
 11 15  2  0
 15 16  1  0
 16 17  2  0
 17 18  1  0
 18 19  2  0
 19 20  1  0
 20 21  1  0
 20 22  1  0
 20 23  1  0
 19 24  1  0
 24 25  2  0
 25 10  1  0
 25 16  1  0
  1 26  1  0
  1 27  1  0
  1 28  1  0
  2 29  1  1
  3 30  1  0
  6 31  1  0
  6 32  1  0
  7 33  1  0
  7 34  1  0
 13 35  1  0
 15 36  1  0
 17 37  1  0
 18 38  1  0
 24 39  1  0
M  CHG  1  13  -1
M  END
>  <UniqueID>  (39) 
39

>  <SMILES>  (39) 
C[C@@H](NC(=O)CN)C(=O)n1c(C([NH-])=O)cc2ccc(C(F)(F)F)cc21

>  <Energy>  (39) 
71.09461056804085

>  <Genealogy>  (39) 
C[C@@H](NC(=O)CN)C(=O)n1c(C([NH-])=O)cc2ccc(C(F)(F)F)cc21 (protonated)
C[C@@H](NC(=O)CN)C(=O)n1c(C([NH-])=O)cc2ccc(C(F)(F)F)cc21 (3D coordinates assigned)
C[C@@H](NC(=O)CN)C(=O)n1c(C([NH-])=O)cc2ccc(C(F)(F)F)cc21 (optimized conformer: 71.09461056804085 kcal/mol)

>  <smiles>  (39) 
C[C@@H](NC(=O)CN)C(=O)n1c(C(N)=O)cc2ccc(C(F)(F)F)cc21

>  <score_type>  (39) 
oracle

>  <origin>  (39) 
adg

>  <m_score__min__energy>  (39) 
-6

>  <m_primary>  (39) 
energy

$$$$
40:0
     RDKit          3D

 43 45  0  0  0  0  0  0  0  0999 V2000
  149.5810  157.2940  132.2970 N   0  0  0  0  0  0  0  0  0  0  0  0
  149.0280  158.6280  132.3230 C   0  0  0  0  0  0  0  0  0  0  0  0
  149.8140  159.5270  131.9500 O   0  0  0  0  0  0  0  0  0  0  0  0
  147.6610  158.8200  132.7600 C   0  0  0  0  0  0  0  0  0  0  0  0
  147.1210  160.0820  132.9800 C   0  0  0  0  0  0  0  0  0  0  0  0
  145.8160  159.9590  133.3860 C   0  0  0  0  0  0  0  0  0  0  0  0
  144.8670  160.9020  133.7220 C   0  0  0  0  0  0  0  0  0  0  0  0
  143.6060  160.5040  134.1020 C   0  0  0  0  0  0  0  0  0  0  0  0
  143.3200  159.1570  134.1380 C   0  0  0  0  0  0  0  0  0  0  0  0
  141.9590  158.6980  134.5480 C   0  0  0  0  0  0  0  0  0  0  0  0
  142.0590  157.3340  134.7410 F   0  0  0  0  0  0  0  0  0  0  0  0
  141.6250  159.3300  135.7120 F   0  0  0  0  0  0  0  0  0  0  0  0
  141.0780  158.9670  133.5220 F   0  0  0  0  0  0  0  0  0  0  0  0
  144.2950  158.2240  133.7940 C   0  0  0  0  0  0  0  0  0  0  0  0
  145.5690  158.5970  133.4090 C   0  0  0  0  0  0  0  0  0  0  0  0
  146.6900  157.9300  133.0300 N   0  0  0  0  0  0  0  0  0  0  0  0
  146.7780  156.5210  132.9450 C   0  0  0  0  0  0  0  0  0  0  0  0
  145.8530  155.9350  132.2830 O   0  0  0  0  0  0  0  0  0  0  0  0
  147.7290  155.7220  133.4870 O   0  0  0  0  0  0  0  0  0  0  0  0
  148.3080  154.5670  132.9780 C   0  0  0  0  0  0  0  0  0  0  0  0
  147.4010  153.4690  132.7530 N   0  0  0  0  0  0  0  0  0  0  0  0
  147.6080  152.2410  132.2650 C   0  0  0  0  0  0  0  0  0  0  0  0
  146.4440  151.5640  132.2420 N   0  0  0  0  0  0  0  0  0  0  0  0
  145.4840  152.3930  132.7310 C   0  0  0  0  0  0  0  0  0  0  0  0
  144.0720  152.0560  132.8790 C   0  0  0  0  0  0  0  0  0  0  0  0
  143.1690  152.9050  133.3380 C   0  0  0  0  0  0  0  0  0  0  0  0
  141.7660  152.4770  133.4550 C   0  0  0  0  0  0  0  0  0  0  0  0
  141.4480  151.6300  134.3260 O   0  0  0  0  0  0  0  0  0  0  0  0
  140.8250  153.0320  132.5860 O   0  0  0  0  0  0  0  0  0  0  0  0
  146.0910  153.5330  133.0290 N   0  0  0  0  0  0  0  0  0  0  0  0
  149.9220  156.8570  131.4130 H   0  0  0  0  0  0  0  0  0  0  0  0
  149.6220  156.7860  133.2250 H   0  0  0  0  0  0  0  0  0  0  0  0
  147.6575  161.0333  132.8487 H   0  0  0  0  0  0  0  0  0  0  0  0
  145.1184  161.9723  133.6861 H   0  0  0  0  0  0  0  0  0  0  0  0
  142.8411  161.2470  134.3718 H   0  0  0  0  0  0  0  0  0  0  0  0
  144.0427  157.1539  133.8299 H   0  0  0  0  0  0  0  0  0  0  0  0
  148.7808  154.8191  132.0173 H   0  0  0  0  0  0  0  0  0  0  0  0
  149.0190  154.2215  133.7429 H   0  0  0  0  0  0  0  0  0  0  0  0
  148.5793  151.8451  131.9335 H   0  0  0  0  0  0  0  0  0  0  0  0
  143.7429  151.0457  132.5946 H   0  0  0  0  0  0  0  0  0  0  0  0
  143.4640  153.9236  133.6303 H   0  0  0  0  0  0  0  0  0  0  0  0
  140.6500  152.6060  131.6620 H   0  0  0  0  0  0  0  0  0  0  0  0
  145.6000  154.3740  133.4310 H   0  0  0  0  0  0  0  0  0  0  0  0
  1  2  1  0
  2  3  2  0
  2  4  1  0
  4  5  2  0
  5  6  1  0
  6  7  2  0
  7  8  1  0
  8  9  2  0
  9 10  1  0
 10 11  1  0
 10 12  1  0
 10 13  1  0
  9 14  1  0
 14 15  2  0
 15 16  1  0
 16 17  1  0
 17 18  2  0
 17 19  1  0
 19 20  1  0
 20 21  1  0
 21 22  2  0
 22 23  1  0
 23 24  2  0
 24 25  1  0
 25 26  2  0
 26 27  1  0
 27 28  2  0
 27 29  1  0
 24 30  1  0
 16  4  1  0
 30 21  1  0
 15  6  1  0
  1 31  1  0
  1 32  1  0
  5 33  1  0
  7 34  1  0
  8 35  1  0
 14 36  1  0
 20 37  1  0
 20 38  1  0
 22 39  1  0
 25 40  1  0
 26 41  1  0
 29 42  1  0
 30 43  1  0
M  CHG  1  21   1
M  END
>  <smiles>  (40) 
NC(=O)c1cc2ccc(C(F)(F)F)cc2n1C(=O)OC[n+]1cnc(/C=C/C(=O)O)[nH]1

>  <score_type>  (40) 
oracle

>  <origin>  (40) 
adg

>  <m_score__min__energy>  (40) 
-8.2200000000000006

>  <m_primary>  (40) 
energy

$$$$
41:0
     RDKit          3D

 41 42  0  0  0  0  0  0  0  0999 V2000
  148.0670  155.0540  132.8910 C   0  0  0  0  0  0  0  0  0  0  0  0
  147.7030  156.4960  133.0730 C   0  0  0  0  0  0  0  0  0  0  0  0
  148.7070  157.4960  133.0380 C   0  0  0  0  0  0  0  0  0  0  0  0
  148.3700  158.8530  133.1720 C   0  0  0  0  0  0  0  0  0  0  0  0
  147.0260  159.1790  133.3170 C   0  0  0  0  0  0  0  0  0  0  0  0
  146.4180  160.4070  133.4640 C   0  0  0  0  0  0  0  0  0  0  0  0
  145.0530  160.1360  133.5550 C   0  0  0  0  0  0  0  0  0  0  0  0
  144.0150  161.1740  133.7360 C   0  0  0  0  0  0  0  0  0  0  0  0
  142.6290  160.8440  133.6870 N   0  0  0  0  0  0  0  0  0  0  0  0
  144.3560  162.3720  133.9370 O   0  0  0  0  0  0  0  0  0  0  0  0
  144.8310  158.7970  133.4660 N   0  0  0  0  0  0  0  0  0  0  0  0
  143.5750  158.1130  133.5440 C   0  0  0  0  0  0  0  0  0  0  0  0
  142.9320  157.8650  132.4900 O   0  0  0  0  0  0  0  0  0  0  0  0
  143.0460  157.6500  134.8690 C   0  0  0  0  0  0  0  0  0  0  0  0
  141.6060  157.1510  134.7440 C   0  0  0  0  0  0  0  0  0  0  0  0
  140.4870  158.5150  134.4330 S   0  0  0  0  0  0  0  0  0  0  0  0
  139.1190  158.1540  134.9420 O   0  0  0  0  0  0  0  0  0  0  0  0
  140.9740  159.7260  135.1840 O   0  0  0  0  0  0  0  0  0  0  0  0
  140.3810  158.9030  132.7310 N   0  0  0  0  0  0  0  0  0  0  0  0
  139.9460  160.2950  132.5540 C   0  0  0  0  0  0  0  0  0  0  0  0
  139.4510  157.9890  132.0590 C   0  0  0  0  0  0  0  0  0  0  0  0
  146.0430  158.2240  133.3300 C   0  0  0  0  0  0  0  0  0  0  0  0
  146.3480  156.8660  133.2140 C   0  0  0  0  0  0  0  0  0  0  0  0
  148.1869  154.5790  133.8759 H   0  0  0  0  0  0  0  0  0  0  0  0
  147.2698  154.5424  132.3318 H   0  0  0  0  0  0  0  0  0  0  0  0
  149.0115  154.9820  132.3318 H   0  0  0  0  0  0  0  0  0  0  0  0
  149.7598  157.2066  132.9046 H   0  0  0  0  0  0  0  0  0  0  0  0
  149.1451  159.6335  133.1625 H   0  0  0  0  0  0  0  0  0  0  0  0
  146.9059  161.3921  133.5016 H   0  0  0  0  0  0  0  0  0  0  0  0
  142.3150  159.8830  133.4320 H   0  0  0  0  0  0  0  0  0  0  0  0
  143.6787  156.8311  135.2419 H   0  0  0  0  0  0  0  0  0  0  0  0
  143.0615  158.4999  135.5672 H   0  0  0  0  0  0  0  0  0  0  0  0
  141.5430  156.4353  133.9110 H   0  0  0  0  0  0  0  0  0  0  0  0
  141.3172  156.6652  135.6877 H   0  0  0  0  0  0  0  0  0  0  0  0
  139.8002  160.7617  133.5394 H   0  0  0  0  0  0  0  0  0  0  0  0
  140.7133  160.8507  131.9951 H   0  0  0  0  0  0  0  0  0  0  0  0
  138.9988  160.3149  131.9951 H   0  0  0  0  0  0  0  0  0  0  0  0
  138.8797  157.4275  132.8129 H   0  0  0  0  0  0  0  0  0  0  0  0
  138.7584  158.5676  131.4301 H   0  0  0  0  0  0  0  0  0  0  0  0
  140.0175  157.2865  131.4301 H   0  0  0  0  0  0  0  0  0  0  0  0
  145.5537  156.1052  133.2320 H   0  0  0  0  0  0  0  0  0  0  0  0
  1  2  1  0
  2  3  2  0
  3  4  1  0
  4  5  2  0
  5  6  1  0
  6  7  2  0
  7  8  1  0
  8  9  1  0
  8 10  2  0
  7 11  1  0
 11 12  1  0
 12 13  2  0
 12 14  1  0
 14 15  1  0
 15 16  1  0
 16 17  2  0
 16 18  2  0
 16 19  1  0
 19 20  1  0
 19 21  1  0
 11 22  1  0
 22 23  2  0
 23  2  1  0
 22  5  1  0
  1 24  1  0
  1 25  1  0
  1 26  1  0
  3 27  1  0
  4 28  1  0
  6 29  1  0
  9 30  1  0
 14 31  1  0
 14 32  1  0
 15 33  1  0
 15 34  1  0
 20 35  1  0
 20 36  1  0
 20 37  1  0
 21 38  1  0
 21 39  1  0
 21 40  1  0
 23 41  1  0
M  CHG  1   9  -1
M  END
>  <UniqueID>  (41) 
40

>  <SMILES>  (41) 
Cc1ccc2cc(C([NH-])=O)n(C(=O)CCS(=O)(=O)N(C)C)c2c1

>  <Energy>  (41) 
71.5866551917626

>  <Genealogy>  (41) 
Cc1ccc2cc(C([NH-])=O)n(C(=O)CCS(=O)(=O)N(C)C)c2c1 (protonated)
Cc1ccc2cc(C([NH-])=O)n(C(=O)CCS(=O)(=O)N(C)C)c2c1 (3D coordinates assigned)
Cc1ccc2cc(C([NH-])=O)n(C(=O)CCS(=O)(=O)N(C)C)c2c1 (optimized conformer: 71.5866551917626 kcal/mol)

>  <smiles>  (41) 
Cc1ccc2cc(C(N)=O)n(C(=O)CCS(=O)(=O)N(C)C)c2c1

>  <score_type>  (41) 
oracle

>  <origin>  (41) 
adg

>  <m_score__min__energy>  (41) 
-6.8799999999999999

>  <m_primary>  (41) 
energy

$$$$
42:0
     RDKit          3D

 54 55  0  0  0  0  0  0  0  0999 V2000
  149.1570  161.5750  130.8970 C   0  0  0  0  0  0  0  0  0  0  0  0
  148.7500  160.2620  131.4940 C   0  0  0  0  0  0  0  0  0  0  0  0
  149.5840  159.1260  131.3490 C   0  0  0  0  0  0  0  0  0  0  0  0
  149.2010  157.8830  131.8840 C   0  0  0  0  0  0  0  0  0  0  0  0
  147.9740  157.8040  132.5350 C   0  0  0  0  0  0  0  0  0  0  0  0
  147.3710  156.7400  133.1660 C   0  0  0  0  0  0  0  0  0  0  0  0
  146.1620  157.2350  133.6540 C   0  0  0  0  0  0  0  0  0  0  0  0
  145.1670  156.4080  134.3690 C   0  0  0  0  0  0  0  0  0  0  0  0
  143.8790  156.1600  133.8110 N   0  0  0  0  0  0  0  0  0  0  0  0
  145.4670  155.8890  135.4780 O   0  0  0  0  0  0  0  0  0  0  0  0
  146.0240  158.5520  133.3330 N   0  0  0  0  0  0  0  0  0  0  0  0
  144.9630  159.4410  133.7150 C   0  0  0  0  0  0  0  0  0  0  0  0
  145.2070  160.6650  133.8860 O   0  0  0  0  0  0  0  0  0  0  0  0
  143.5960  158.9410  133.9110 C   0  0  0  0  0  0  0  0  0  0  0  0
  142.7550  159.0180  132.9740 O   0  0  0  0  0  0  0  0  0  0  0  0
  143.2410  158.3710  135.1370 O   0  0  0  0  0  0  0  0  0  0  0  0
  142.0450  158.7150  135.8290 C   0  0  0  0  0  0  0  0  0  0  0  0
  140.8210  158.1730  135.0770 C   0  0  0  0  0  0  0  0  0  0  0  0
  141.1520  157.0590  134.1570 N   0  0  1  0  0  0  0  0  0  0  0  0
  140.9560  155.7380  134.7810 C   0  0  0  0  0  0  0  0  0  0  0  0
  140.3350  157.1560  132.9720 C   0  0  0  0  0  0  0  0  0  0  0  0
  139.5980  156.1890  132.6290 O   0  0  0  0  0  0  0  0  0  0  0  0
  140.3650  158.3400  132.2170 O   0  0  0  0  0  0  0  0  0  0  0  0
  139.2270  159.0930  131.7710 C   0  0  0  0  0  0  0  0  0  0  0  0
  139.4350  160.5970  132.0330 C   0  0  0  0  0  0  0  0  0  0  0  0
  138.9550  158.8340  130.2770 C   0  0  0  0  0  0  0  0  0  0  0  0
  138.0160  158.6120  132.5860 C   0  0  0  0  0  0  0  0  0  0  0  0
  147.1420  158.8870  132.6550 C   0  0  0  0  0  0  0  0  0  0  0  0
  147.5060  160.1400  132.1500 C   0  0  0  0  0  0  0  0  0  0  0  0
  149.3789  162.2908  131.7022 H   0  0  0  0  0  0  0  0  0  0  0  0
  150.0533  161.4330  130.2753 H   0  0  0  0  0  0  0  0  0  0  0  0
  148.3375  161.9649  130.2753 H   0  0  0  0  0  0  0  0  0  0  0  0
  150.5402  159.2170  130.8129 H   0  0  0  0  0  0  0  0  0  0  0  0
  149.8513  157.0007  131.7906 H   0  0  0  0  0  0  0  0  0  0  0  0
  147.7602  155.7159  133.2646 H   0  0  0  0  0  0  0  0  0  0  0  0
  143.2820  156.9430  133.4670 H   0  0  0  0  0  0  0  0  0  0  0  0
  142.0722  158.2805  136.8392 H   0  0  0  0  0  0  0  0  0  0  0  0
  141.9703  159.8106  135.8926 H   0  0  0  0  0  0  0  0  0  0  0  0
  140.0882  157.8128  135.8140 H   0  0  0  0  0  0  0  0  0  0  0  0
  140.4197  158.9953  134.4664 H   0  0  0  0  0  0  0  0  0  0  0  0
  142.1530  157.1360  133.8610 H   0  0  0  0  0  0  0  0  0  0  0  0
  140.9717  155.8437  135.8758 H   0  0  0  0  0  0  0  0  0  0  0  0
  139.9866  155.3241  134.4664 H   0  0  0  0  0  0  0  0  0  0  0  0
  141.7634  155.0605  134.4664 H   0  0  0  0  0  0  0  0  0  0  0  0
  139.4603  160.7802  133.1173 H   0  0  0  0  0  0  0  0  0  0  0  0
  140.3863  160.9192  131.5844 H   0  0  0  0  0  0  0  0  0  0  0  0
  138.6069  161.1653  131.5844 H   0  0  0  0  0  0  0  0  0  0  0  0
  138.1619  158.0788  130.1743 H   0  0  0  0  0  0  0  0  0  0  0  0
  138.6351  159.7696  129.7950 H   0  0  0  0  0  0  0  0  0  0  0  0
  139.8738  158.4687  129.7950 H   0  0  0  0  0  0  0  0  0  0  0  0
  138.2382  158.7003  133.6597 H   0  0  0  0  0  0  0  0  0  0  0  0
  137.1400  159.2305  132.3408 H   0  0  0  0  0  0  0  0  0  0  0  0
  137.8031  157.5610  132.3408 H   0  0  0  0  0  0  0  0  0  0  0  0
  146.8397  161.0081  132.2613 H   0  0  0  0  0  0  0  0  0  0  0  0
  1  2  1  0
  2  3  2  0
  3  4  1  0
  4  5  2  0
  5  6  1  0
  6  7  2  0
  7  8  1  0
  8  9  1  0
  8 10  2  0
  7 11  1  0
 11 12  1  0
 12 13  2  0
 12 14  1  0
 14 15  2  0
 14 16  1  0
 16 17  1  0
 17 18  1  0
 18 19  1  0
 19 20  1  0
 19 21  1  0
 21 22  2  0
 21 23  1  0
 23 24  1  0
 24 25  1  0
 24 26  1  0
 24 27  1  0
 11 28  1  0
 28 29  2  0
 29  2  1  0
 28  5  1  0
  1 30  1  0
  1 31  1  0
  1 32  1  0
  3 33  1  0
  4 34  1  0
  6 35  1  0
  9 36  1  0
 17 37  1  0
 17 38  1  0
 18 39  1  0
 18 40  1  0
 19 41  1  6
 20 42  1  0
 20 43  1  0
 20 44  1  0
 25 45  1  0
 25 46  1  0
 25 47  1  0
 26 48  1  0
 26 49  1  0
 26 50  1  0
 27 51  1  0
 27 52  1  0
 27 53  1  0
 29 54  1  0
M  CHG  2   9  -1  19   1
M  END
>  <UniqueID>  (42) 
41

>  <SMILES>  (42) 
Cc1ccc2cc(C([NH-])=O)n(C(=O)C(=O)OCC[N@@H+](C)C(=O)OC(C)(C)C)c2c1

>  <Energy>  (42) 
85.9849110426502

>  <Genealogy>  (42) 
Cc1ccc2cc(C([NH-])=O)n(C(=O)C(=O)OCC[NH+](C)C(=O)OC(C)(C)C)c2c1 (protonated)
Cc1ccc2cc(C([NH-])=O)n(C(=O)C(=O)OCC[N@@H+](C)C(=O)OC(C)(C)C)c2c1 (chirality)
Cc1ccc2cc(C([NH-])=O)n(C(=O)C(=O)OCC[N@@H+](C)C(=O)OC(C)(C)C)c2c1 (3D coordinates assigned)
Cc1ccc2cc(C([NH-])=O)n(C(=O)C(=O)OCC[N@@H+](C)C(=O)OC(C)(C)C)c2c1 (optimized conformer: 85.9849110426502 kcal/mol)

>  <smiles>  (42) 
Cc1ccc2cc(C(N)=O)n(C(=O)C(=O)OCCN(C)C(=O)OC(C)(C)C)c2c1

>  <score_type>  (42) 
oracle

>  <origin>  (42) 
adg

>  <m_score__min__energy>  (42) 
-6.8899999999999997

>  <m_primary>  (42) 
energy

$$$$
43:0
     RDKit          3D

 43 44  0  0  0  0  0  0  0  0999 V2000
  149.3560  157.3370  132.2950 C   0  0  0  0  0  0  0  0  0  0  0  0
  148.2420  158.2540  132.7040 C   0  0  0  0  0  0  0  0  0  0  0  0
  148.4670  159.6530  132.7680 C   0  0  0  0  0  0  0  0  0  0  0  0
  147.4250  160.5300  133.1110 C   0  0  0  0  0  0  0  0  0  0  0  0
  146.1700  159.9850  133.3610 C   0  0  0  0  0  0  0  0  0  0  0  0
  144.9990  160.6000  133.7380 C   0  0  0  0  0  0  0  0  0  0  0  0
  144.0670  159.5730  133.8690 C   0  0  0  0  0  0  0  0  0  0  0  0
  142.6460  159.8030  134.2020 C   0  0  0  0  0  0  0  0  0  0  0  0
  141.9410  158.9160  135.0660 N   0  0  0  0  0  0  0  0  0  0  0  0
  142.0360  160.7800  133.6890 O   0  0  0  0  0  0  0  0  0  0  0  0
  144.6380  158.3680  133.5820 N   0  0  0  0  0  0  0  0  0  0  0  0
  144.0420  157.0640  133.6890 C   0  0  0  0  0  0  0  0  0  0  0  0
  144.7720  156.0650  133.9410 O   0  0  0  0  0  0  0  0  0  0  0  0
  142.6270  156.8990  133.5060 N   0  0  0  0  0  0  0  0  0  0  0  0
  141.9550  155.6010  133.5840 C   0  0  0  0  0  0  0  0  0  0  0  0
  140.4770  155.7660  133.4050 C   0  0  0  0  0  0  0  0  0  0  0  0
  139.7820  154.7760  133.0430 O   0  0  0  0  0  0  0  0  0  0  0  0
  139.8520  157.0130  133.7150 N   0  0  0  0  0  0  0  0  0  0  0  0
  139.8820  158.3660  132.6360 S   0  0  0  0  0  0  0  0  0  0  0  0
  141.2310  158.4340  131.9750 O   0  0  0  0  0  0  0  0  0  0  0  0
  139.6730  159.6270  133.4310 O   0  0  0  0  0  0  0  0  0  0  0  0
  138.6130  158.2170  131.3770 C   0  0  0  0  0  0  0  0  0  0  0  0
  138.6750  159.3400  130.3360 C   0  0  0  0  0  0  0  0  0  0  0  0
  137.4140  160.1440  130.3030 C   0  0  0  0  0  0  0  0  0  0  0  0
  136.8870  160.5400  131.3740 O   0  0  0  0  0  0  0  0  0  0  0  0
  136.8390  160.4840  129.0860 O   0  0  0  0  0  0  0  0  0  0  0  0
  145.9280  158.6360  133.2750 C   0  0  0  0  0  0  0  0  0  0  0  0
  146.9530  157.7370  132.9600 C   0  0  0  0  0  0  0  0  0  0  0  0
  149.8467  156.9331  133.1928 H   0  0  0  0  0  0  0  0  0  0  0  0
  148.9484  156.5092  131.6961 H   0  0  0  0  0  0  0  0  0  0  0  0
  150.0900  157.8961  131.6961 H   0  0  0  0  0  0  0  0  0  0  0  0
  149.4669  160.0548  132.5470 H   0  0  0  0  0  0  0  0  0  0  0  0
  147.5962  161.6144  133.1798 H   0  0  0  0  0  0  0  0  0  0  0  0
  144.8334  161.6751  133.9015 H   0  0  0  0  0  0  0  0  0  0  0  0
  141.0220  158.5100  134.7800 H   0  0  0  0  0  0  0  0  0  0  0  0
  142.0310  157.7520  133.4040 H   0  0  0  0  0  0  0  0  0  0  0  0
  142.3446  154.9432  132.7931 H   0  0  0  0  0  0  0  0  0  0  0  0
  142.1473  155.1587  134.5727 H   0  0  0  0  0  0  0  0  0  0  0  0
  138.7399  157.2532  130.8623 H   0  0  0  0  0  0  0  0  0  0  0  0
  137.6373  158.2852  131.8803 H   0  0  0  0  0  0  0  0  0  0  0  0
  139.5147  160.0065  130.5822 H   0  0  0  0  0  0  0  0  0  0  0  0
  138.8098  158.8788  129.3465 H   0  0  0  0  0  0  0  0  0  0  0  0
  146.7597  156.6551  132.9130 H   0  0  0  0  0  0  0  0  0  0  0  0
  1  2  1  0
  2  3  2  0
  3  4  1  0
  4  5  2  0
  5  6  1  0
  6  7  2  0
  7  8  1  0
  8  9  1  0
  8 10  2  0
  7 11  1  0
 11 12  1  0
 12 13  2  0
 12 14  1  0
 14 15  1  0
 15 16  1  0
 16 17  2  0
 16 18  1  0
 18 19  1  0
 19 20  2  0
 19 21  2  0
 19 22  1  0
 22 23  1  0
 23 24  1  0
 24 25  2  0
 24 26  1  0
 11 27  1  0
 27 28  2  0
 28  2  1  0
 27  5  1  0
  1 29  1  0
  1 30  1  0
  1 31  1  0
  3 32  1  0
  4 33  1  0
  6 34  1  0
  9 35  1  0
 14 36  1  0
 15 37  1  0
 15 38  1  0
 22 39  1  0
 22 40  1  0
 23 41  1  0
 23 42  1  0
 28 43  1  0
M  CHG  3   9  -1  18  -1  26  -1
M  END
>  <UniqueID>  (43) 
42

>  <SMILES>  (43) 
Cc1ccc2cc(C([NH-])=O)n(C(=O)NCC(=O)[N-]S(=O)(=O)CCC(=O)[O-])c2c1

>  <Energy>  (43) 
74.31362943996885

>  <Genealogy>  (43) 
Cc1ccc2cc(C([NH-])=O)n(C(=O)NCC(=O)[N-]S(=O)(=O)CCC(=O)[O-])c2c1 (protonated)
Cc1ccc2cc(C([NH-])=O)n(C(=O)NCC(=O)[N-]S(=O)(=O)CCC(=O)[O-])c2c1 (3D coordinates assigned)
Cc1ccc2cc(C([NH-])=O)n(C(=O)NCC(=O)[N-]S(=O)(=O)CCC(=O)[O-])c2c1 (optimized conformer: 74.31362943996885 kcal/mol)

>  <smiles>  (43) 
Cc1ccc2cc(C(N)=O)n(C(=O)NCC(=O)NS(=O)(=O)CCC(=O)O)c2c1

>  <score_type>  (43) 
oracle

>  <origin>  (43) 
adg

>  <m_score__min__energy>  (43) 
-7.8600000000000003

>  <m_primary>  (43) 
energy

$$$$
44:0
     RDKit          3D

 32 33  0  0  0  0  0  0  0  0999 V2000
  149.1740  156.2880  132.6220 N   0  0  0  0  0  0  0  0  0  0  0  0
  148.8330  157.6700  132.4860 C   0  0  0  0  0  0  0  0  0  0  0  0
  149.6940  158.4640  132.0210 O   0  0  0  0  0  0  0  0  0  0  0  0
  147.4920  158.1670  132.8720 C   0  0  0  0  0  0  0  0  0  0  0  0
  147.1660  159.5150  133.0320 C   0  0  0  0  0  0  0  0  0  0  0  0
  145.8440  159.5300  133.4170 C   0  0  0  0  0  0  0  0  0  0  0  0
  145.0010  160.6040  133.6870 C   0  0  0  0  0  0  0  0  0  0  0  0
  143.6640  160.3260  134.0190 C   0  0  0  0  0  0  0  0  0  0  0  0
  143.2020  158.9900  134.0650 C   0  0  0  0  0  0  0  0  0  0  0  0
  141.8260  158.7180  134.3890 C   0  0  0  0  0  0  0  0  0  0  0  0
  140.6750  158.4900  134.6610 C   0  0  0  0  0  0  0  0  0  0  0  0
  139.3040  158.2190  134.9860 C   0  0  0  0  0  0  0  0  0  0  0  0
  138.4740  157.9860  134.0700 O   0  0  0  0  0  0  0  0  0  0  0  0
  138.8930  158.2130  136.3130 O   0  0  0  0  0  0  0  0  0  0  0  0
  144.0800  157.9250  133.7840 C   0  0  0  0  0  0  0  0  0  0  0  0
  145.4110  158.2310  133.4800 C   0  0  0  0  0  0  0  0  0  0  0  0
  146.4140  157.3830  133.1620 N   0  0  0  0  0  0  0  0  0  0  0  0
  146.3290  155.9510  133.0850 C   0  0  0  0  0  0  0  0  0  0  0  0
  146.6350  155.3640  132.0130 O   0  0  0  0  0  0  0  0  0  0  0  0
  145.9360  155.1430  134.2840 C   0  0  0  0  0  0  0  0  0  0  0  0
  147.4170  154.5670  135.1620 P   0  0  0  0  0  0  0  0  0  0  0  0
  148.1070  155.7460  135.8080 O   0  0  0  0  0  0  0  0  0  0  0  0
  146.9780  153.4520  136.3570 O   0  0  0  0  0  0  0  0  0  0  0  0
  148.4760  153.8310  134.0670 O   0  0  0  0  0  0  0  0  0  0  0  0
  148.5240  155.6040  133.0680 H   0  0  0  0  0  0  0  0  0  0  0  0
  150.1120  155.9490  132.3120 H   0  0  0  0  0  0  0  0  0  0  0  0
  147.8259  160.3822  132.8821 H   0  0  0  0  0  0  0  0  0  0  0  0
  145.3701  161.6393  133.6419 H   0  0  0  0  0  0  0  0  0  0  0  0
  142.9732  161.1518  134.2443 H   0  0  0  0  0  0  0  0  0  0  0  0
  143.7293  156.8826  133.8030 H   0  0  0  0  0  0  0  0  0  0  0  0
  145.3316  155.7657  134.9600 H   0  0  0  0  0  0  0  0  0  0  0  0
  145.3514  154.2714  133.9545 H   0  0  0  0  0  0  0  0  0  0  0  0
  1  2  1  0
  2  3  2  0
  2  4  1  0
  4  5  2  0
  5  6  1  0
  6  7  2  0
  7  8  1  0
  8  9  2  0
  9 10  1  0
 10 11  3  0
 11 12  1  0
 12 13  2  0
 12 14  1  0
  9 15  1  0
 15 16  2  0
 16 17  1  0
 17 18  1  0
 18 19  2  0
 18 20  1  0
 20 21  1  0
 21 22  2  0
 21 23  1  0
 21 24  1  0
 17  4  1  0
 16  6  1  0
  1 25  1  0
  1 26  1  0
  5 27  1  0
  7 28  1  0
  8 29  1  0
 15 30  1  0
 20 31  1  0
 20 32  1  0
M  CHG  3  14  -1  23  -1  24  -1
M  END
>  <UniqueID>  (44) 
43

>  <SMILES>  (44) 
NC(=O)c1cc2ccc(C#CC(=O)[O-])cc2n1C(=O)CP(=O)([O-])[O-]

>  <Energy>  (44) 
62.42443601192438

>  <Genealogy>  (44) 
NC(=O)c1cc2ccc(C#CC(=O)[O-])cc2n1C(=O)CP(=O)([O-])[O-] (protonated)
NC(=O)c1cc2ccc(C#CC(=O)[O-])cc2n1C(=O)CP(=O)([O-])[O-] (3D coordinates assigned)
NC(=O)c1cc2ccc(C#CC(=O)[O-])cc2n1C(=O)CP(=O)([O-])[O-] (optimized conformer: 62.42443601192438 kcal/mol)

>  <smiles>  (44) 
NC(=O)c1cc2ccc(C#CC(=O)O)cc2n1C(=O)CP(=O)(O)O

>  <score_type>  (44) 
oracle

>  <origin>  (44) 
adg

>  <m_score__min__energy>  (44) 
-7.0199999999999996

>  <m_primary>  (44) 
energy

$$$$
45:0
     RDKit          3D

 36 37  0  0  0  0  0  0  0  0999 V2000
  147.9350  153.0830  132.3100 N   0  0  0  0  0  0  0  0  0  0  0  0
  148.7090  154.2570  132.5390 C   0  0  0  0  0  0  0  0  0  0  0  0
  149.9640  154.1650  132.6030 O   0  0  0  0  0  0  0  0  0  0  0  0
  148.0590  155.5650  132.7580 C   0  0  0  0  0  0  0  0  0  0  0  0
  148.7620  156.7620  132.8820 C   0  0  0  0  0  0  0  0  0  0  0  0
  147.8090  157.7180  133.1500 C   0  0  0  0  0  0  0  0  0  0  0  0
  147.9460  159.0910  133.3350 C   0  0  0  0  0  0  0  0  0  0  0  0
  146.7810  159.8460  133.5510 C   0  0  0  0  0  0  0  0  0  0  0  0
  145.5070  159.2210  133.5890 C   0  0  0  0  0  0  0  0  0  0  0  0
  144.2600  160.0510  133.7560 C   0  0  0  0  0  0  0  0  0  0  0  0
  143.2350  159.4860  133.0190 F   0  0  0  0  0  0  0  0  0  0  0  0
  144.4710  161.3460  133.3150 F   0  0  0  0  0  0  0  0  0  0  0  0
  143.8820  160.1030  135.0860 F   0  0  0  0  0  0  0  0  0  0  0  0
  145.4090  157.8270  133.3720 C   0  0  0  0  0  0  0  0  0  0  0  0
  146.5870  157.0980  133.1780 C   0  0  0  0  0  0  0  0  0  0  0  0
  146.7240  155.7750  132.9380 N   0  0  0  0  0  0  0  0  0  0  0  0
  145.6580  154.8270  132.7890 C   0  0  0  0  0  0  0  0  0  0  0  0
  145.1050  154.6750  131.6660 O   0  0  0  0  0  0  0  0  0  0  0  0
  145.2540  154.0600  133.8880 O   0  0  0  0  0  0  0  0  0  0  0  0
  144.1420  153.1650  133.8680 C   0  0  0  0  0  0  0  0  0  0  0  0
  144.1800  152.2710  132.6150 C   0  0  1  0  0  0  0  0  0  0  0  0
  145.5660  151.9530  132.2510 N   0  0  0  0  0  0  0  0  0  0  0  0
  143.3960  151.0040  132.8310 C   0  0  0  0  0  0  0  0  0  0  0  0
  143.7510  149.9350  132.2680 O   0  0  0  0  0  0  0  0  0  0  0  0
  142.2590  151.0110  133.6310 O   0  0  0  0  0  0  0  0  0  0  0  0
  146.9730  153.1420  131.9090 H   0  0  0  0  0  0  0  0  0  0  0  0
  149.8476  156.9109  132.7861 H   0  0  0  0  0  0  0  0  0  0  0  0
  148.9360  159.5700  133.3128 H   0  0  0  0  0  0  0  0  0  0  0  0
  146.8570  160.9342  133.6923 H   0  0  0  0  0  0  0  0  0  0  0  0
  144.4291  157.3275  133.3561 H   0  0  0  0  0  0  0  0  0  0  0  0
  144.1748  152.5294  134.7652 H   0  0  0  0  0  0  0  0  0  0  0  0
  143.2146  153.7563  133.8503 H   0  0  0  0  0  0  0  0  0  0  0  0
  143.7150  152.8278  131.7881 H   0  0  0  0  0  0  0  0  0  0  0  0
  145.9070  152.6310  131.5310 H   0  0  0  0  0  0  0  0  0  0  0  0
  146.1900  152.0020  133.0890 H   0  0  0  0  0  0  0  0  0  0  0  0
  145.6140  150.9910  131.8420 H   0  0  0  0  0  0  0  0  0  0  0  0
  1  2  1  0
  2  3  2  0
  2  4  1  0
  4  5  2  0
  5  6  1  0
  6  7  2  0
  7  8  1  0
  8  9  2  0
  9 10  1  0
 10 11  1  0
 10 12  1  0
 10 13  1  0
  9 14  1  0
 14 15  2  0
 15 16  1  0
 16 17  1  0
 17 18  2  0
 17 19  1  0
 19 20  1  0
 20 21  1  0
 21 22  1  0
 21 23  1  0
 23 24  2  0
 23 25  1  0
 16  4  1  0
 15  6  1  0
  1 26  1  0
  5 27  1  0
  7 28  1  0
  8 29  1  0
 14 30  1  0
 20 31  1  0
 20 32  1  0
 21 33  1  6
 22 34  1  0
 22 35  1  0
 22 36  1  0
M  CHG  3   1  -1  22   1  25  -1
M  END
>  <UniqueID>  (45) 
44

>  <SMILES>  (45) 
[NH-]C(=O)c1cc2ccc(C(F)(F)F)cc2n1C(=O)OC[C@@H]([NH3+])C(=O)[O-]

>  <Energy>  (45) 
73.02361148260009

>  <Genealogy>  (45) 
[NH-]C(=O)c1cc2ccc(C(F)(F)F)cc2n1C(=O)OC[C@@H]([NH3+])C(=O)[O-] (protonated)
[NH-]C(=O)c1cc2ccc(C(F)(F)F)cc2n1C(=O)OC[C@@H]([NH3+])C(=O)[O-] (3D coordinates assigned)
[NH-]C(=O)c1cc2ccc(C(F)(F)F)cc2n1C(=O)OC[C@@H]([NH3+])C(=O)[O-] (optimized conformer: 73.02361148260009 kcal/mol)

>  <smiles>  (45) 
NC(=O)c1cc2ccc(C(F)(F)F)cc2n1C(=O)OC[C@@H](N)C(=O)O

>  <score_type>  (45) 
oracle

>  <origin>  (45) 
adg

>  <m_score__min__energy>  (45) 
-5.1100000000000003

>  <m_primary>  (45) 
energy

$$$$
46:0
     RDKit          3D

 49 51  0  0  0  0  0  0  0  0999 V2000
  148.3400  154.5030  132.6500 C   0  0  0  0  0  0  0  0  0  0  0  0
  147.9030  155.9210  132.8640 C   0  0  0  0  0  0  0  0  0  0  0  0
  148.8590  156.9650  132.8750 C   0  0  0  0  0  0  0  0  0  0  0  0
  148.4570  158.3020  133.0330 C   0  0  0  0  0  0  0  0  0  0  0  0
  147.0950  158.5630  133.1590 C   0  0  0  0  0  0  0  0  0  0  0  0
  146.4350  159.7580  133.3160 C   0  0  0  0  0  0  0  0  0  0  0  0
  145.0840  159.4260  133.3930 C   0  0  0  0  0  0  0  0  0  0  0  0
  144.0310  160.4060  133.7240 C   0  0  0  0  0  0  0  0  0  0  0  0
  142.6740  160.1680  133.3620 N   0  0  0  0  0  0  0  0  0  0  0  0
  144.3240  161.4400  134.3830 O   0  0  0  0  0  0  0  0  0  0  0  0
  144.9110  158.0800  133.2560 N   0  0  0  0  0  0  0  0  0  0  0  0
  143.6760  157.3430  133.1730 C   0  0  0  0  0  0  0  0  0  0  0  0
  142.8440  157.6210  132.2690 O   0  0  0  0  0  0  0  0  0  0  0  0
  143.3470  156.2550  134.1600 C   0  0  0  0  0  0  0  0  0  0  0  0
  141.8770  156.2940  134.6300 C   0  0  0  0  0  0  0  0  0  0  0  0
  140.9060  156.0980  133.5170 N   0  0  1  0  0  0  0  0  0  0  0  0
  140.5500  154.7080  133.3510 C   0  0  0  0  0  0  0  0  0  0  0  0
  139.3930  154.3710  132.9790 O   0  0  0  0  0  0  0  0  0  0  0  0
  141.5120  153.7210  133.5380 O   0  0  0  0  0  0  0  0  0  0  0  0
  139.6690  156.9280  133.6310 C   0  0  1  0  0  0  0  0  0  0  0  0
  139.8550  158.2530  134.4080 C   0  0  0  0  0  0  0  0  0  0  0  0
  139.7890  159.3750  133.3780 C   0  0  0  0  0  0  0  0  0  0  0  0
  139.2710  158.7700  132.1650 N   0  0  0  0  0  0  0  0  0  0  0  0
  138.9660  159.5180  130.9810 C   0  0  0  0  0  0  0  0  0  0  0  0
  139.8480  159.7050  130.1010 O   0  0  0  0  0  0  0  0  0  0  0  0
  137.6930  160.0430  130.7930 O   0  0  0  0  0  0  0  0  0  0  0  0
  139.1070  157.3310  132.2550 C   0  0  0  0  0  0  0  0  0  0  0  0
  146.1550  157.5640  133.1370 C   0  0  0  0  0  0  0  0  0  0  0  0
  146.5300  156.2240  132.9850 C   0  0  0  0  0  0  0  0  0  0  0  0
  148.4905  154.0147  133.6241 H   0  0  0  0  0  0  0  0  0  0  0  0
  147.5668  153.9624  132.0844 H   0  0  0  0  0  0  0  0  0  0  0  0
  149.2834  154.4914  132.0844 H   0  0  0  0  0  0  0  0  0  0  0  0
  149.9267  156.7272  132.7587 H   0  0  0  0  0  0  0  0  0  0  0  0
  149.1952  159.1172  133.0564 H   0  0  0  0  0  0  0  0  0  0  0  0
  146.8789  160.7630  133.3695 H   0  0  0  0  0  0  0  0  0  0  0  0
  142.4300  159.7280  132.4470 H   0  0  0  0  0  0  0  0  0  0  0  0
  143.5379  155.2812  133.6854 H   0  0  0  0  0  0  0  0  0  0  0  0
  143.9807  156.4103  135.0456 H   0  0  0  0  0  0  0  0  0  0  0  0
  141.7249  155.4969  135.3727 H   0  0  0  0  0  0  0  0  0  0  0  0
  141.6934  157.2915  135.0558 H   0  0  0  0  0  0  0  0  0  0  0  0
  141.3710  156.3870  132.6230 H   0  0  0  0  0  0  0  0  0  0  0  0
  138.9832  156.2666  134.1808 H   0  0  0  0  0  0  0  0  0  0  0  0
  139.0532  158.3727  135.1515 H   0  0  0  0  0  0  0  0  0  0  0  0
  140.8137  158.2654  134.9472 H   0  0  0  0  0  0  0  0  0  0  0  0
  139.1168  160.1738  133.7246 H   0  0  0  0  0  0  0  0  0  0  0  0
  140.7764  159.8307  133.2127 H   0  0  0  0  0  0  0  0  0  0  0  0
  138.0429  157.0618  132.1824 H   0  0  0  0  0  0  0  0  0  0  0  0
  139.6296  156.8128  131.4375 H   0  0  0  0  0  0  0  0  0  0  0  0
  145.7728  155.4264  132.9605 H   0  0  0  0  0  0  0  0  0  0  0  0
  1  2  1  0
  2  3  2  0
  3  4  1  0
  4  5  2  0
  5  6  1  0
  6  7  2  0
  7  8  1  0
  8  9  1  0
  8 10  2  0
  7 11  1  0
 11 12  1  0
 12 13  2  0
 12 14  1  0
 14 15  1  0
 15 16  1  0
 16 17  1  0
 17 18  2  0
 17 19  1  0
 16 20  1  0
 20 21  1  0
 21 22  1  0
 22 23  1  0
 23 24  1  0
 24 25  2  0
 24 26  1  0
 23 27  1  0
 11 28  1  0
 28 29  2  0
 29  2  1  0
 28  5  1  0
 27 20  1  0
  1 30  1  0
  1 31  1  0
  1 32  1  0
  3 33  1  0
  4 34  1  0
  6 35  1  0
  9 36  1  0
 14 37  1  0
 14 38  1  0
 15 39  1  0
 15 40  1  0
 16 41  1  6
 20 42  1  1
 21 43  1  0
 21 44  1  0
 22 45  1  0
 22 46  1  0
 27 47  1  0
 27 48  1  0
 29 49  1  0
M  CHG  4   9  -1  16   1  19  -1  26  -1
M  END
>  <UniqueID>  (46) 
45

>  <SMILES>  (46) 
Cc1ccc2cc(C([NH-])=O)n(C(=O)CC[N@@H+](C(=O)[O-])[C@H]3CCN(C(=O)[O-])C3)c2c1

>  <Energy>  (46) 
96.31370880354864

>  <Genealogy>  (46) 
Cc1ccc2cc(C([NH-])=O)n(C(=O)CC[NH+](C(=O)[O-])C3CCN(C(=O)[O-])C3)c2c1 (protonated)
Cc1ccc2cc(C([NH-])=O)n(C(=O)CC[N@@H+](C(=O)[O-])[C@H]3CCN(C(=O)[O-])C3)c2c1 (chirality)
Cc1ccc2cc(C([NH-])=O)n(C(=O)CC[N@@H+](C(=O)[O-])[C@H]3CCN(C(=O)[O-])C3)c2c1 (3D coordinates assigned)
Cc1ccc2cc(C([NH-])=O)n(C(=O)CC[N@@H+](C(=O)[O-])[C@H]3CCN(C(=O)[O-])C3)c2c1 (nonaromatic ring conformer: 96.31370880354864 kcal/mol)

>  <smiles>  (46) 
Cc1ccc2cc(C(N)=O)n(C(=O)CCN(C(=O)O)C3CCN(C(=O)O)C3)c2c1

>  <score_type>  (46) 
oracle

>  <origin>  (46) 
adg

>  <m_score__min__energy>  (46) 
-7.7000000000000002

>  <m_primary>  (46) 
energy

$$$$
47:0
     RDKit          3D

 39 40  0  0  0  0  0  0  0  0999 V2000
  140.2490  150.2900  137.1070 N   0  0  0  0  0  0  0  0  0  0  0  0
  141.0550  151.0410  138.0120 C   0  0  0  0  0  0  0  0  0  0  0  0
  141.6630  150.4390  138.9380 O   0  0  0  0  0  0  0  0  0  0  0  0
  141.1550  152.5110  137.9060 C   0  0  0  0  0  0  0  0  0  0  0  0
  140.8190  153.3820  138.9430 C   0  0  0  0  0  0  0  0  0  0  0  0
  140.9660  154.6480  138.4220 C   0  0  0  0  0  0  0  0  0  0  0  0
  140.7810  155.8900  139.0180 C   0  0  0  0  0  0  0  0  0  0  0  0
  141.0290  157.0360  138.2450 C   0  0  0  0  0  0  0  0  0  0  0  0
  141.4530  156.9240  136.8970 C   0  0  0  0  0  0  0  0  0  0  0  0
  141.7540  158.1730  136.1070 C   0  0  0  0  0  0  0  0  0  0  0  0
  142.1170  159.1970  136.9660 F   0  0  0  0  0  0  0  0  0  0  0  0
  142.7980  157.9220  135.2370 F   0  0  0  0  0  0  0  0  0  0  0  0
  140.6530  158.5870  135.3800 F   0  0  0  0  0  0  0  0  0  0  0  0
  141.6560  155.6410  136.3340 C   0  0  0  0  0  0  0  0  0  0  0  0
  141.3790  154.5180  137.1210 C   0  0  0  0  0  0  0  0  0  0  0  0
  141.5000  153.2140  136.7910 N   0  0  0  0  0  0  0  0  0  0  0  0
  141.9490  152.7000  135.5300 C   0  0  0  0  0  0  0  0  0  0  0  0
  141.3700  151.7000  135.0210 O   0  0  0  0  0  0  0  0  0  0  0  0
  143.0520  153.3150  134.8540 N   0  0  0  0  0  0  0  0  0  0  0  0
  143.5450  152.8100  133.5710 C   0  0  0  0  0  0  0  0  0  0  0  0
  144.7090  153.6540  133.0420 C   0  0  0  0  0  0  0  0  0  0  0  0
  145.1430  154.6930  134.0450 C   0  0  0  0  0  0  0  0  0  0  0  0
  144.4930  155.7230  134.1480 O   0  0  0  0  0  0  0  0  0  0  0  0
  146.3870  154.5170  134.8830 C   0  0  0  0  0  0  0  0  0  0  0  0
  147.3410  153.7760  134.2040 F   0  0  0  0  0  0  0  0  0  0  0  0
  146.9220  155.7640  135.1590 F   0  0  0  0  0  0  0  0  0  0  0  0
  146.0520  153.8210  136.1670 C   0  0  0  0  0  0  0  0  0  0  0  0
  144.9380  154.0170  136.7220 O   0  0  0  0  0  0  0  0  0  0  0  0
  146.9830  152.9890  136.7770 O   0  0  0  0  0  0  0  0  0  0  0  0
  140.5980  150.0430  136.1550 H   0  0  0  0  0  0  0  0  0  0  0  0
  140.5032  153.1138  139.9620 H   0  0  0  0  0  0  0  0  0  0  0  0
  140.4503  155.9728  140.0638 H   0  0  0  0  0  0  0  0  0  0  0  0
  140.8926  158.0323  138.6908 H   0  0  0  0  0  0  0  0  0  0  0  0
  142.0226  155.5298  135.3029 H   0  0  0  0  0  0  0  0  0  0  0  0
  143.4800  154.1680  135.2810 H   0  0  0  0  0  0  0  0  0  0  0  0
  143.8873  151.7730  133.7033 H   0  0  0  0  0  0  0  0  0  0  0  0
  142.7230  152.8625  132.8420 H   0  0  0  0  0  0  0  0  0  0  0  0
  145.5596  152.9917  132.8236 H   0  0  0  0  0  0  0  0  0  0  0  0
  144.3716  154.1735  132.1330 H   0  0  0  0  0  0  0  0  0  0  0  0
  1  2  1  0
  2  3  2  0
  2  4  1  0
  4  5  2  0
  5  6  1  0
  6  7  2  0
  7  8  1  0
  8  9  2  0
  9 10  1  0
 10 11  1  0
 10 12  1  0
 10 13  1  0
  9 14  1  0
 14 15  2  0
 15 16  1  0
 16 17  1  0
 17 18  2  0
 17 19  1  0
 19 20  1  0
 20 21  1  0
 21 22  1  0
 22 23  2  0
 22 24  1  0
 24 25  1  0
 24 26  1  0
 24 27  1  0
 27 28  2  0
 27 29  1  0
 16  4  1  0
 15  6  1  0
  1 30  1  0
  5 31  1  0
  7 32  1  0
  8 33  1  0
 14 34  1  0
 19 35  1  0
 20 36  1  0
 20 37  1  0
 21 38  1  0
 21 39  1  0
M  CHG  2   1  -1  29  -1
M  END
>  <UniqueID>  (47) 
46

>  <SMILES>  (47) 
[NH-]C(=O)c1cc2ccc(C(F)(F)F)cc2n1C(=O)NCCC(=O)C(F)(F)C(=O)[O-]

>  <Energy>  (47) 
73.21232424320125

>  <Genealogy>  (47) 
[NH-]C(=O)c1cc2ccc(C(F)(F)F)cc2n1C(=O)NCCC(=O)C(F)(F)C(=O)[O-] (protonated)
[NH-]C(=O)c1cc2ccc(C(F)(F)F)cc2n1C(=O)NCCC(=O)C(F)(F)C(=O)[O-] (3D coordinates assigned)
[NH-]C(=O)c1cc2ccc(C(F)(F)F)cc2n1C(=O)NCCC(=O)C(F)(F)C(=O)[O-] (optimized conformer: 73.21232424320125 kcal/mol)

>  <smiles>  (47) 
NC(=O)c1cc2ccc(C(F)(F)F)cc2n1C(=O)NCCC(=O)C(F)(F)C(=O)O

>  <score_type>  (47) 
oracle

>  <origin>  (47) 
adg

>  <m_score__min__energy>  (47) 
-6.3300000000000001

>  <m_primary>  (47) 
energy

$$$$
48:0
     RDKit          3D

 39 40  0  0  0  0  0  0  0  0999 V2000
  142.9530  161.2860  133.6780 N   0  0  0  0  0  0  0  0  0  0  0  0
  144.3650  161.4640  133.7810 C   0  0  0  0  0  0  0  0  0  0  0  0
  144.8240  162.5930  134.1000 O   0  0  0  0  0  0  0  0  0  0  0  0
  145.2950  160.3340  133.5830 C   0  0  0  0  0  0  0  0  0  0  0  0
  146.6640  160.4940  133.3880 C   0  0  0  0  0  0  0  0  0  0  0  0
  147.1710  159.2170  133.3080 C   0  0  0  0  0  0  0  0  0  0  0  0
  148.4760  158.7850  133.0920 C   0  0  0  0  0  0  0  0  0  0  0  0
  148.7080  157.4030  133.0070 C   0  0  0  0  0  0  0  0  0  0  0  0
  147.6420  156.4780  133.1460 C   0  0  0  0  0  0  0  0  0  0  0  0
  147.8930  155.0000  132.9880 C   0  0  0  0  0  0  0  0  0  0  0  0
  146.8310  154.3890  132.3450 F   0  0  0  0  0  0  0  0  0  0  0  0
  148.0570  154.3980  134.2230 F   0  0  0  0  0  0  0  0  0  0  0  0
  149.0410  154.8120  132.2390 F   0  0  0  0  0  0  0  0  0  0  0  0
  146.3250  156.9570  133.3390 C   0  0  0  0  0  0  0  0  0  0  0  0
  146.1250  158.3400  133.4450 C   0  0  0  0  0  0  0  0  0  0  0  0
  144.9640  159.0110  133.6100 N   0  0  0  0  0  0  0  0  0  0  0  0
  143.6470  158.4410  133.6800 C   0  0  0  0  0  0  0  0  0  0  0  0
  143.1840  157.8130  132.6880 O   0  0  0  0  0  0  0  0  0  0  0  0
  142.8920  158.5860  134.8520 O   0  0  0  0  0  0  0  0  0  0  0  0
  141.5240  158.8780  134.8990 C   0  0  0  0  0  0  0  0  0  0  0  0
  141.1150  160.0390  135.1750 O   0  0  0  0  0  0  0  0  0  0  0  0
  140.6130  157.8510  134.6310 O   0  0  0  0  0  0  0  0  0  0  0  0
  139.3160  158.0740  134.0780 C   0  0  0  0  0  0  0  0  0  0  0  0
  139.3290  157.9210  132.5510 C   0  0  0  0  0  0  0  0  0  0  0  0
  139.7370  159.2170  131.8370 C   0  0  0  0  0  0  0  0  0  0  0  0
  140.9950  159.6550  132.2740 O   0  0  0  0  0  0  0  0  0  0  0  0
  142.5330  160.3340  133.5870 H   0  0  0  0  0  0  0  0  0  0  0  0
  142.3130  162.1050  133.7810 H   0  0  0  0  0  0  0  0  0  0  0  0
  147.2216  161.4393  133.3137 H   0  0  0  0  0  0  0  0  0  0  0  0
  149.3014  159.5050  132.9908 H   0  0  0  0  0  0  0  0  0  0  0  0
  149.7288  157.0332  132.8305 H   0  0  0  0  0  0  0  0  0  0  0  0
  145.4769  156.2595  133.4044 H   0  0  0  0  0  0  0  0  0  0  0  0
  138.6134  157.3437  134.5057 H   0  0  0  0  0  0  0  0  0  0  0  0
  139.0054  159.1006  134.3222 H   0  0  0  0  0  0  0  0  0  0  0  0
  140.0432  157.1291  132.2813 H   0  0  0  0  0  0  0  0  0  0  0  0
  138.3075  157.6685  132.2303 H   0  0  0  0  0  0  0  0  0  0  0  0
  139.7761  159.0339  130.7531 H   0  0  0  0  0  0  0  0  0  0  0  0
  138.9943  159.9945  132.0691 H   0  0  0  0  0  0  0  0  0  0  0  0
  141.3470  158.9500  132.8780 H   0  0  0  0  0  0  0  0  0  0  0  0
  1  2  1  0
  2  3  2  0
  2  4  1  0
  4  5  2  0
  5  6  1  0
  6  7  2  0
  7  8  1  0
  8  9  2  0
  9 10  1  0
 10 11  1  0
 10 12  1  0
 10 13  1  0
  9 14  1  0
 14 15  2  0
 15 16  1  0
 16 17  1  0
 17 18  2  0
 17 19  1  0
 19 20  1  0
 20 21  2  0
 20 22  1  0
 22 23  1  0
 23 24  1  0
 24 25  1  0
 25 26  1  0
 16  4  1  0
 15  6  1  0
  1 27  1  0
  1 28  1  0
  5 29  1  0
  7 30  1  0
  8 31  1  0
 14 32  1  0
 23 33  1  0
 23 34  1  0
 24 35  1  0
 24 36  1  0
 25 37  1  0
 25 38  1  0
 26 39  1  0
M  END
>  <UniqueID>  (48) 
47

>  <SMILES>  (48) 
NC(=O)c1cc2ccc(C(F)(F)F)cc2n1C(=O)OC(=O)OCCCO

>  <Energy>  (48) 
75.02109739859729

>  <Genealogy>  (48) 
NC(=O)c1cc2ccc(C(F)(F)F)cc2n1C(=O)OC(=O)OCCCO (3D coordinates assigned)
NC(=O)c1cc2ccc(C(F)(F)F)cc2n1C(=O)OC(=O)OCCCO (optimized conformer: 75.02109739859729 kcal/mol)

>  <smiles>  (48) 
NC(=O)c1cc2ccc(C(F)(F)F)cc2n1C(=O)OC(=O)OCCCO

>  <score_type>  (48) 
oracle

>  <origin>  (48) 
adg

>  <m_score__min__energy>  (48) 
-5.2699999999999996

>  <m_primary>  (48) 
energy

$$$$
49:0
     RDKit          3D

 43 44  0  0  0  0  0  0  0  0999 V2000
  143.0250  161.2050  133.7390 N   0  0  0  0  0  0  0  0  0  0  0  0
  144.4280  161.2700  133.9810 C   0  0  0  0  0  0  0  0  0  0  0  0
  144.9170  162.3120  134.4940 O   0  0  0  0  0  0  0  0  0  0  0  0
  145.3030  160.1130  133.6980 C   0  0  0  0  0  0  0  0  0  0  0  0
  146.6440  160.2400  133.3440 C   0  0  0  0  0  0  0  0  0  0  0  0
  147.1230  158.9540  133.2630 C   0  0  0  0  0  0  0  0  0  0  0  0
  148.3920  158.4930  132.9280 C   0  0  0  0  0  0  0  0  0  0  0  0
  148.6020  157.1050  132.8920 C   0  0  0  0  0  0  0  0  0  0  0  0
  147.5500  156.2050  133.1980 C   0  0  0  0  0  0  0  0  0  0  0  0
  147.7660  154.7160  133.0960 C   0  0  0  0  0  0  0  0  0  0  0  0
  146.6320  154.0880  132.6080 F   0  0  0  0  0  0  0  0  0  0  0  0
  148.8180  154.4340  132.2410 F   0  0  0  0  0  0  0  0  0  0  0  0
  148.0570  154.2110  134.3490 F   0  0  0  0  0  0  0  0  0  0  0  0
  146.2680  156.7130  133.5090 C   0  0  0  0  0  0  0  0  0  0  0  0
  146.0900  158.1010  133.5550 C   0  0  0  0  0  0  0  0  0  0  0  0
  144.9600  158.7990  133.8190 N   0  0  0  0  0  0  0  0  0  0  0  0
  143.6530  158.2510  134.0690 C   0  0  0  0  0  0  0  0  0  0  0  0
  142.9640  158.6830  135.0320 O   0  0  0  0  0  0  0  0  0  0  0  0
  143.1310  157.2270  133.2170 N   0  0  0  0  0  0  0  0  0  0  0  0
  142.2380  156.1610  133.6640 C   0  0  0  0  0  0  0  0  0  0  0  0
  142.9670  155.1190  134.5300 C   0  0  0  0  0  0  0  0  0  0  0  0
  142.8460  153.6660  134.0300 C   0  0  0  0  0  0  0  0  0  0  0  0
  142.0760  152.7190  134.9680 C   0  0  0  0  0  0  0  0  0  0  0  0
  142.1930  153.1230  136.4410 C   0  0  0  0  0  0  0  0  0  0  0  0
  141.3120  151.9380  137.5030 P   0  0  0  0  0  0  0  0  0  0  0  0
  140.2190  152.6490  138.2680 O   0  0  0  0  0  0  0  0  0  0  0  0
  140.6240  150.7290  136.5390 O   0  0  0  0  0  0  0  0  0  0  0  0
  142.3960  151.2340  138.5940 O   0  0  0  0  0  0  0  0  0  0  0  0
  142.5340  160.2870  133.6630 H   0  0  0  0  0  0  0  0  0  0  0  0
  147.2015  161.1716  133.1668 H   0  0  0  0  0  0  0  0  0  0  0  0
  149.2070  159.1951  132.6980 H   0  0  0  0  0  0  0  0  0  0  0  0
  149.5935  156.7116  132.6235 H   0  0  0  0  0  0  0  0  0  0  0  0
  145.4279  156.0321  133.7106 H   0  0  0  0  0  0  0  0  0  0  0  0
  141.4233  156.6054  134.2546 H   0  0  0  0  0  0  0  0  0  0  0  0
  141.8506  155.6477  132.7715 H   0  0  0  0  0  0  0  0  0  0  0  0
  144.0343  155.3836  134.5583 H   0  0  0  0  0  0  0  0  0  0  0  0
  142.4870  155.1475  135.5193 H   0  0  0  0  0  0  0  0  0  0  0  0
  142.3284  153.6807  133.0595 H   0  0  0  0  0  0  0  0  0  0  0  0
  143.8721  153.2740  133.9708 H   0  0  0  0  0  0  0  0  0  0  0  0
  141.0135  152.7290  134.6836 H   0  0  0  0  0  0  0  0  0  0  0  0
  142.5157  151.7162  134.8623 H   0  0  0  0  0  0  0  0  0  0  0  0
  143.2550  153.1440  136.7266 H   0  0  0  0  0  0  0  0  0  0  0  0
  141.7434  154.1183  136.5721 H   0  0  0  0  0  0  0  0  0  0  0  0
  1  2  1  0
  2  3  2  0
  2  4  1  0
  4  5  2  0
  5  6  1  0
  6  7  2  0
  7  8  1  0
  8  9  2  0
  9 10  1  0
 10 11  1  0
 10 12  1  0
 10 13  1  0
  9 14  1  0
 14 15  2  0
 15 16  1  0
 16 17  1  0
 17 18  2  0
 17 19  1  0
 19 20  1  0
 20 21  1  0
 21 22  1  0
 22 23  1  0
 23 24  1  0
 24 25  1  0
 25 26  2  0
 25 27  1  0
 25 28  1  0
 16  4  1  0
 15  6  1  0
  1 29  1  0
  5 30  1  0
  7 31  1  0
  8 32  1  0
 14 33  1  0
 20 34  1  0
 20 35  1  0
 21 36  1  0
 21 37  1  0
 22 38  1  0
 22 39  1  0
 23 40  1  0
 23 41  1  0
 24 42  1  0
 24 43  1  0
M  CHG  4   1  -1  19  -1  27  -1  28  -1
M  END
>  <UniqueID>  (49) 
48

>  <SMILES>  (49) 
[NH-]C(=O)c1cc2ccc(C(F)(F)F)cc2n1C(=O)[N-]CCCCCP(=O)([O-])[O-]

>  <Energy>  (49) 
70.23710209123695

>  <Genealogy>  (49) 
[NH-]C(=O)c1cc2ccc(C(F)(F)F)cc2n1C(=O)[N-]CCCCCP(=O)([O-])[O-] (protonated)
[NH-]C(=O)c1cc2ccc(C(F)(F)F)cc2n1C(=O)[N-]CCCCCP(=O)([O-])[O-] (3D coordinates assigned)
[NH-]C(=O)c1cc2ccc(C(F)(F)F)cc2n1C(=O)[N-]CCCCCP(=O)([O-])[O-] (optimized conformer: 70.23710209123695 kcal/mol)

>  <smiles>  (49) 
NC(=O)c1cc2ccc(C(F)(F)F)cc2n1C(=O)NCCCCCP(=O)(O)O

>  <score_type>  (49) 
oracle

>  <origin>  (49) 
adg

>  <m_score__min__energy>  (49) 
-7.0999999999999996

>  <m_primary>  (49) 
energy

$$$$
50:0
     RDKit          3D

 34 35  0  0  0  0  0  0  0  0999 V2000
  139.7830  158.6480  132.3980 C   0  0  0  0  0  0  0  0  0  0  0  0
  140.5830  158.0690  133.5600 C   0  0  0  0  0  0  0  0  0  0  0  0
  141.9700  158.6520  133.5920 C   0  0  0  0  0  0  0  0  0  0  0  0
  142.1500  160.0540  133.6990 C   0  0  0  0  0  0  0  0  0  0  0  0
  143.4400  160.6090  133.7450 C   0  0  0  0  0  0  0  0  0  0  0  0
  144.5250  159.7380  133.7070 C   0  0  0  0  0  0  0  0  0  0  0  0
  145.8750  160.0050  133.7050 C   0  0  0  0  0  0  0  0  0  0  0  0
  146.5010  158.7590  133.6340 C   0  0  0  0  0  0  0  0  0  0  0  0
  147.9700  158.5570  133.6340 C   0  0  0  0  0  0  0  0  0  0  0  0
  148.5330  157.2450  133.7000 N   0  0  0  0  0  0  0  0  0  0  0  0
  148.7450  159.5470  133.5650 O   0  0  0  0  0  0  0  0  0  0  0  0
  145.5700  157.7650  133.6090 N   0  0  0  0  0  0  0  0  0  0  0  0
  145.8020  156.3510  133.5090 C   0  0  0  0  0  0  0  0  0  0  0  0
  146.2400  155.8640  132.4320 O   0  0  0  0  0  0  0  0  0  0  0  0
  145.5870  155.4540  134.6920 C   0  0  0  0  0  0  0  0  0  0  0  0
  147.1700  154.7480  135.2370 P   0  0  0  0  0  0  0  0  0  0  0  0
  147.9130  154.2020  134.0400 O   0  0  0  0  0  0  0  0  0  0  0  0
  148.1070  155.9460  135.9780 O   0  0  0  0  0  0  0  0  0  0  0  0
  146.8820  153.4960  136.3370 O   0  0  0  0  0  0  0  0  0  0  0  0
  144.3670  158.3790  133.6400 C   0  0  0  0  0  0  0  0  0  0  0  0
  143.0950  157.8000  133.5650 C   0  0  0  0  0  0  0  0  0  0  0  0
  138.9505  159.2505  132.7902 H   0  0  0  0  0  0  0  0  0  0  0  0
  140.4373  159.2831  131.7828 H   0  0  0  0  0  0  0  0  0  0  0  0
  139.3842  157.8280  131.7828 H   0  0  0  0  0  0  0  0  0  0  0  0
  140.0703  158.3042  134.5044 H   0  0  0  0  0  0  0  0  0  0  0  0
  140.6596  156.9795  133.4292 H   0  0  0  0  0  0  0  0  0  0  0  0
  141.2712  160.7139  133.7465 H   0  0  0  0  0  0  0  0  0  0  0  0
  143.5877  161.6971  133.8090 H   0  0  0  0  0  0  0  0  0  0  0  0
  146.3588  160.9919  133.7499 H   0  0  0  0  0  0  0  0  0  0  0  0
  147.9380  156.3980  133.8310 H   0  0  0  0  0  0  0  0  0  0  0  0
  149.5690  157.1190  133.6620 H   0  0  0  0  0  0  0  0  0  0  0  0
  145.1460  156.0362  135.5145 H   0  0  0  0  0  0  0  0  0  0  0  0
  144.9084  154.6371  134.4055 H   0  0  0  0  0  0  0  0  0  0  0  0
  142.9751  156.7093  133.4871 H   0  0  0  0  0  0  0  0  0  0  0  0
  1  2  1  0
  2  3  1  0
  3  4  2  0
  4  5  1  0
  5  6  2  0
  6  7  1  0
  7  8  2  0
  8  9  1  0
  9 10  1  0
  9 11  2  0
  8 12  1  0
 12 13  1  0
 13 14  2  0
 13 15  1  0
 15 16  1  0
 16 17  2  0
 16 18  1  0
 16 19  1  0
 12 20  1  0
 20 21  2  0
 21  3  1  0
 20  6  1  0
  1 22  1  0
  1 23  1  0
  1 24  1  0
  2 25  1  0
  2 26  1  0
  4 27  1  0
  5 28  1  0
  7 29  1  0
 10 30  1  0
 10 31  1  0
 15 32  1  0
 15 33  1  0
 21 34  1  0
M  CHG  2  18  -1  19  -1
M  END
>  <UniqueID>  (50) 
49

>  <SMILES>  (50) 
CCc1ccc2cc(C(N)=O)n(C(=O)CP(=O)([O-])[O-])c2c1

>  <Energy>  (50) 
64.88242205948548

>  <Genealogy>  (50) 
CCc1ccc2cc(C(N)=O)n(C(=O)CP(=O)([O-])[O-])c2c1 (protonated)
CCc1ccc2cc(C(N)=O)n(C(=O)CP(=O)([O-])[O-])c2c1 (3D coordinates assigned)
CCc1ccc2cc(C(N)=O)n(C(=O)CP(=O)([O-])[O-])c2c1 (optimized conformer: 64.88242205948548 kcal/mol)

>  <smiles>  (50) 
CCc1ccc2cc(C(N)=O)n(C(=O)CP(=O)(O)O)c2c1

>  <score_type>  (50) 
oracle

>  <origin>  (50) 
adg

>  <m_score__min__energy>  (50) 
-6.4299999999999997

>  <m_primary>  (50) 
energy

$$$$
51:0
     RDKit          3D

 34 35  0  0  0  0  0  0  0  0999 V2000
  148.8970  154.5680  132.6060 C   0  0  0  0  0  0  0  0  0  0  0  0
  147.4630  154.9400  132.9710 C   0  0  0  0  0  0  0  0  0  0  0  0
  147.3090  156.4340  133.0660 C   0  0  0  0  0  0  0  0  0  0  0  0
  148.4490  157.2730  132.9850 C   0  0  0  0  0  0  0  0  0  0  0  0
  148.3230  158.6660  133.1180 C   0  0  0  0  0  0  0  0  0  0  0  0
  147.0510  159.1880  133.3310 C   0  0  0  0  0  0  0  0  0  0  0  0
  146.6500  160.4900  133.5310 C   0  0  0  0  0  0  0  0  0  0  0  0
  145.2710  160.4270  133.7190 C   0  0  0  0  0  0  0  0  0  0  0  0
  144.4190  161.6210  133.8920 C   0  0  0  0  0  0  0  0  0  0  0  0
  143.0050  161.5420  133.7300 N   0  0  0  0  0  0  0  0  0  0  0  0
  144.9500  162.7370  134.1400 O   0  0  0  0  0  0  0  0  0  0  0  0
  144.8360  159.1380  133.6450 N   0  0  0  0  0  0  0  0  0  0  0  0
  143.5110  158.6420  133.8860 C   0  0  0  0  0  0  0  0  0  0  0  0
  142.6080  158.8210  133.0240 O   0  0  0  0  0  0  0  0  0  0  0  0
  143.2360  157.9460  135.0690 O   0  0  0  0  0  0  0  0  0  0  0  0
  141.9590  157.3920  135.3750 C   0  0  0  0  0  0  0  0  0  0  0  0
  140.9320  158.6180  136.2420 P   0  0  0  0  0  0  0  0  0  0  0  0
  141.1330  159.9760  135.6090 O   0  0  0  0  0  0  0  0  0  0  0  0
  141.3910  158.6840  137.8690 O   0  0  0  0  0  0  0  0  0  0  0  0
  139.3000  158.1890  136.1380 O   0  0  0  0  0  0  0  0  0  0  0  0
  145.9370  158.3910  133.4050 C   0  0  0  0  0  0  0  0  0  0  0  0
  146.0360  157.0000  133.2950 C   0  0  0  0  0  0  0  0  0  0  0  0
  149.4818  154.4163  133.5253 H   0  0  0  0  0  0  0  0  0  0  0  0
  148.8960  153.6404  132.0148 H   0  0  0  0  0  0  0  0  0  0  0  0
  149.3471  155.3791  132.0148 H   0  0  0  0  0  0  0  0  0  0  0  0
  146.7821  154.5552  132.1975 H   0  0  0  0  0  0  0  0  0  0  0  0
  147.2202  154.4965  133.9479 H   0  0  0  0  0  0  0  0  0  0  0  0
  149.4413  156.8292  132.8165 H   0  0  0  0  0  0  0  0  0  0  0  0
  149.2027  159.3235  133.0557 H   0  0  0  0  0  0  0  0  0  0  0  0
  147.2839  161.3890  133.5404 H   0  0  0  0  0  0  0  0  0  0  0  0
  142.4710  160.7110  134.0670 H   0  0  0  0  0  0  0  0  0  0  0  0
  141.4590  157.0946  134.4414 H   0  0  0  0  0  0  0  0  0  0  0  0
  142.0952  156.5149  136.0247 H   0  0  0  0  0  0  0  0  0  0  0  0
  145.1439  156.3628  133.3847 H   0  0  0  0  0  0  0  0  0  0  0  0
  1  2  1  0
  2  3  1  0
  3  4  2  0
  4  5  1  0
  5  6  2  0
  6  7  1  0
  7  8  2  0
  8  9  1  0
  9 10  1  0
  9 11  2  0
  8 12  1  0
 12 13  1  0
 13 14  2  0
 13 15  1  0
 15 16  1  0
 16 17  1  0
 17 18  2  0
 17 19  1  0
 17 20  1  0
 12 21  1  0
 21 22  2  0
 22  3  1  0
 21  6  1  0
  1 23  1  0
  1 24  1  0
  1 25  1  0
  2 26  1  0
  2 27  1  0
  4 28  1  0
  5 29  1  0
  7 30  1  0
 10 31  1  0
 16 32  1  0
 16 33  1  0
 22 34  1  0
M  CHG  3  10  -1  19  -1  20  -1
M  END
>  <UniqueID>  (51) 
50

>  <SMILES>  (51) 
CCc1ccc2cc(C([NH-])=O)n(C(=O)OCP(=O)([O-])[O-])c2c1

>  <Energy>  (51) 
65.01552055906504

>  <Genealogy>  (51) 
CCc1ccc2cc(C([NH-])=O)n(C(=O)OCP(=O)([O-])[O-])c2c1 (protonated)
CCc1ccc2cc(C([NH-])=O)n(C(=O)OCP(=O)([O-])[O-])c2c1 (3D coordinates assigned)
CCc1ccc2cc(C([NH-])=O)n(C(=O)OCP(=O)([O-])[O-])c2c1 (optimized conformer: 65.01552055906504 kcal/mol)

>  <smiles>  (51) 
CCc1ccc2cc(C(N)=O)n(C(=O)OCP(=O)(O)O)c2c1

>  <score_type>  (51) 
oracle

>  <origin>  (51) 
adg

>  <m_score__min__energy>  (51) 
-6.4000000000000004

>  <m_primary>  (51) 
energy

$$$$
52:0
     RDKit          3D

 35 37  0  0  0  0  0  0  0  0999 V2000
  139.8980  158.9920  136.3520 N   0  0  0  0  0  0  0  0  0  0  0  0
  141.1510  158.4500  135.9310 C   0  0  0  0  0  0  0  0  0  0  0  0
  142.1810  159.1760  135.9860 O   0  0  0  0  0  0  0  0  0  0  0  0
  141.2550  157.0530  135.4520 C   0  0  0  0  0  0  0  0  0  0  0  0
  142.2000  156.1320  135.9060 C   0  0  0  0  0  0  0  0  0  0  0  0
  142.0070  155.0050  135.1410 C   0  0  0  0  0  0  0  0  0  0  0  0
  142.6650  153.7800  135.1670 C   0  0  0  0  0  0  0  0  0  0  0  0
  142.2420  152.7850  134.2700 C   0  0  0  0  0  0  0  0  0  0  0  0
  141.1690  153.0260  133.3690 C   0  0  0  0  0  0  0  0  0  0  0  0
  140.7110  152.0170  132.4480 N   0  0  0  0  0  0  0  0  0  0  0  0
  140.6040  150.5940  132.7680 C   0  0  0  0  0  0  0  0  0  0  0  0
  139.9650  149.8510  131.6380 C   0  0  0  0  0  0  0  0  0  0  0  0
  139.6180  150.4090  130.4650 N   0  0  0  0  0  0  0  0  0  0  0  0
  139.0930  149.4150  129.7680 N   0  0  0  0  0  0  0  0  0  0  0  0
  139.1220  148.3000  130.4810 N   0  0  0  0  0  0  0  0  0  0  0  0
  139.6670  148.5390  131.6620 N   0  0  0  0  0  0  0  0  0  0  0  0
  140.5330  154.2890  133.3720 C   0  0  0  0  0  0  0  0  0  0  0  0
  140.9840  155.2600  134.2700 C   0  0  0  0  0  0  0  0  0  0  0  0
  140.5090  156.5100  134.4510 N   0  0  0  0  0  0  0  0  0  0  0  0
  139.4030  157.1000  133.7520 C   0  0  0  0  0  0  0  0  0  0  0  0
  138.4220  157.5520  134.4000 O   0  0  0  0  0  0  0  0  0  0  0  0
  139.4490  157.2850  132.2640 C   0  0  0  0  0  0  0  0  0  0  0  0
  138.3850  158.0970  131.8510 O   0  0  0  0  0  0  0  0  0  0  0  0
  139.8440  159.9790  136.6900 H   0  0  0  0  0  0  0  0  0  0  0  0
  139.0160  158.4370  136.2910 H   0  0  0  0  0  0  0  0  0  0  0  0
  142.9415  156.2764  136.7055 H   0  0  0  0  0  0  0  0  0  0  0  0
  143.4917  153.5958  135.8688 H   0  0  0  0  0  0  0  0  0  0  0  0
  142.7470  151.8078  134.2647 H   0  0  0  0  0  0  0  0  0  0  0  0
  140.3990  152.3150  131.4950 H   0  0  0  0  0  0  0  0  0  0  0  0
  141.6099  150.1863  132.9468 H   0  0  0  0  0  0  0  0  0  0  0  0
  139.9826  150.4769  133.6681 H   0  0  0  0  0  0  0  0  0  0  0  0
  139.7023  154.5022  132.6832 H   0  0  0  0  0  0  0  0  0  0  0  0
  140.4006  157.7610  131.9850 H   0  0  0  0  0  0  0  0  0  0  0  0
  139.3664  156.3034  131.7745 H   0  0  0  0  0  0  0  0  0  0  0  0
  137.6110  157.8630  132.4270 H   0  0  0  0  0  0  0  0  0  0  0  0
  1  2  1  0
  2  3  2  0
  2  4  1  0
  4  5  2  0
  5  6  1  0
  6  7  2  0
  7  8  1  0
  8  9  2  0
  9 10  1  0
 10 11  1  0
 11 12  1  0
 12 13  1  0
 13 14  2  0
 14 15  1  0
 15 16  1  0
  9 17  1  0
 17 18  2  0
 18 19  1  0
 19 20  1  0
 20 21  2  0
 20 22  1  0
 22 23  1  0
 19  4  1  0
 18  6  1  0
 16 12  2  0
  1 24  1  0
  1 25  1  0
  5 26  1  0
  7 27  1  0
  8 28  1  0
 10 29  1  0
 11 30  1  0
 11 31  1  0
 17 32  1  0
 22 33  1  0
 22 34  1  0
 23 35  1  0
M  CHG  1  15  -1
M  END
>  <UniqueID>  (52) 
51

>  <SMILES>  (52) 
NC(=O)c1cc2ccc(NCc3nn[n-]n3)cc2n1C(=O)CO

>  <Energy>  (52) 
112.87314325305314

>  <Genealogy>  (52) 
NC(=O)c1cc2ccc(NCc3nn[n-]n3)cc2n1C(=O)CO (protonated)
NC(=O)c1cc2ccc(NCc3nn[n-]n3)cc2n1C(=O)CO (3D coordinates assigned)
NC(=O)c1cc2ccc(NCc3nn[n-]n3)cc2n1C(=O)CO (optimized conformer: 112.87314325305314 kcal/mol)

>  <smiles>  (52) 
NC(=O)c1cc2ccc(NCc3nn[nH]n3)cc2n1C(=O)CO

>  <score_type>  (52) 
oracle

>  <origin>  (52) 
adg

>  <m_score__min__energy>  (52) 
-6.7800000000000002

>  <m_primary>  (52) 
energy

$$$$
53:0
     RDKit          3D

 36 38  0  0  0  0  0  0  0  0999 V2000
  149.6030  157.5240  132.2180 N   0  0  0  0  0  0  0  0  0  0  0  0
  149.0200  158.8080  132.4310 C   0  0  0  0  0  0  0  0  0  0  0  0
  149.7080  159.8410  132.2130 O   0  0  0  0  0  0  0  0  0  0  0  0
  147.6300  158.9120  132.9270 C   0  0  0  0  0  0  0  0  0  0  0  0
  146.9200  160.1090  132.9870 C   0  0  0  0  0  0  0  0  0  0  0  0
  145.6600  159.7650  133.4220 C   0  0  0  0  0  0  0  0  0  0  0  0
  144.5450  160.5630  133.6530 C   0  0  0  0  0  0  0  0  0  0  0  0
  143.3710  159.9390  134.1080 C   0  0  0  0  0  0  0  0  0  0  0  0
  143.3360  158.5380  134.3340 C   0  0  0  0  0  0  0  0  0  0  0  0
  142.1420  157.8830  134.8000 N   0  0  0  0  0  0  0  0  0  0  0  0
  140.9310  158.6090  135.1770 C   0  0  0  0  0  0  0  0  0  0  0  0
  140.9280  159.1000  136.6150 C   0  0  0  0  0  0  0  0  0  0  0  0
  140.1040  157.8820  136.2260 C   0  0  0  0  0  0  0  0  0  0  0  0
  144.4930  157.7660  134.0940 C   0  0  0  0  0  0  0  0  0  0  0  0
  145.6390  158.4090  133.6160 C   0  0  0  0  0  0  0  0  0  0  0  0
  146.8410  157.8690  133.3130 N   0  0  0  0  0  0  0  0  0  0  0  0
  147.2080  156.4830  133.4010 C   0  0  0  0  0  0  0  0  0  0  0  0
  147.1830  155.7660  132.3640 O   0  0  0  0  0  0  0  0  0  0  0  0
  147.5050  155.8540  134.7330 C   0  0  0  0  0  0  0  0  0  0  0  0
  146.3340  154.5100  135.1100 P   0  0  0  0  0  0  0  0  0  0  0  0
  146.1010  153.6610  133.8790 O   0  0  0  0  0  0  0  0  0  0  0  0
  144.8620  155.1700  135.6200 O   0  0  0  0  0  0  0  0  0  0  0  0
  146.9700  153.5450  136.3460 O   0  0  0  0  0  0  0  0  0  0  0  0
  149.0390  156.7350  131.8270 H   0  0  0  0  0  0  0  0  0  0  0  0
  147.2881  161.1156  132.7393 H   0  0  0  0  0  0  0  0  0  0  0  0
  144.5808  161.6495  133.4847 H   0  0  0  0  0  0  0  0  0  0  0  0
  142.4697  160.5425  134.2910 H   0  0  0  0  0  0  0  0  0  0  0  0
  142.1520  156.8450  134.9250 H   0  0  0  0  0  0  0  0  0  0  0  0
  140.7303  159.0713  134.1993 H   0  0  0  0  0  0  0  0  0  0  0  0
  141.8259  158.9801  137.2390 H   0  0  0  0  0  0  0  0  0  0  0  0
  140.7128  160.0591  137.1089 H   0  0  0  0  0  0  0  0  0  0  0  0
  140.4061  156.8812  136.5682 H   0  0  0  0  0  0  0  0  0  0  0  0
  139.0464  157.5951  136.3216 H   0  0  0  0  0  0  0  0  0  0  0  0
  144.4932  156.6817  134.2790 H   0  0  0  0  0  0  0  0  0  0  0  0
  148.5259  155.4448  134.7158 H   0  0  0  0  0  0  0  0  0  0  0  0
  147.4069  156.6265  135.5100 H   0  0  0  0  0  0  0  0  0  0  0  0
  1  2  1  0
  2  3  2  0
  2  4  1  0
  4  5  2  0
  5  6  1  0
  6  7  2  0
  7  8  1  0
  8  9  2  0
  9 10  1  0
 10 11  1  0
 11 12  1  0
 12 13  1  0
  9 14  1  0
 14 15  2  0
 15 16  1  0
 16 17  1  0
 17 18  2  0
 17 19  1  0
 19 20  1  0
 20 21  2  0
 20 22  1  0
 20 23  1  0
 16  4  1  0
 15  6  1  0
 13 11  1  0
  1 24  1  0
  5 25  1  0
  7 26  1  0
  8 27  1  0
 10 28  1  0
 11 29  1  0
 12 30  1  0
 12 31  1  0
 13 32  1  0
 13 33  1  0
 14 34  1  0
 19 35  1  0
 19 36  1  0
M  CHG  3   1  -1  22  -1  23  -1
M  END
>  <UniqueID>  (53) 
52

>  <SMILES>  (53) 
[NH-]C(=O)c1cc2ccc(NC3CC3)cc2n1C(=O)CP(=O)([O-])[O-]

>  <Energy>  (53) 
336.7049766638248

>  <Genealogy>  (53) 
[NH-]C(=O)c1cc2ccc(NC3CC3)cc2n1C(=O)CP(=O)([O-])[O-] (protonated)
[NH-]C(=O)c1cc2ccc(NC3CC3)cc2n1C(=O)CP(=O)([O-])[O-] (3D coordinates assigned)
[NH-]C(=O)c1cc2ccc(NC3CC3)cc2n1C(=O)CP(=O)([O-])[O-] (nonaromatic ring conformer: 336.7049766638248 kcal/mol)

>  <smiles>  (53) 
NC(=O)c1cc2ccc(NC3CC3)cc2n1C(=O)CP(=O)(O)O

>  <score_type>  (53) 
oracle

>  <origin>  (53) 
adg

>  <m_score__min__energy>  (53) 
-7.1299999999999999

>  <m_primary>  (53) 
energy

$$$$
54:0
     RDKit          3D

 44 45  0  0  0  0  0  0  0  0999 V2000
  140.9390  159.7150  136.6820 C   0  0  0  0  0  0  0  0  0  0  0  0
  140.3790  159.2660  135.4540 O   0  0  0  0  0  0  0  0  0  0  0  0
  139.6760  158.0630  135.3440 C   0  0  0  0  0  0  0  0  0  0  0  0
  139.8900  157.1190  136.1510 O   0  0  0  0  0  0  0  0  0  0  0  0
  138.7010  157.8640  134.2250 C   0  0  0  0  0  0  0  0  0  0  0  0
  139.2790  158.2910  132.9410 N   0  0  0  0  0  0  0  0  0  0  0  0
  138.3980  158.8070  131.8910 C   0  0  0  0  0  0  0  0  0  0  0  0
  140.6980  158.1940  132.6740 C   0  0  0  0  0  0  0  0  0  0  0  0
  141.3170  159.1940  132.2230 O   0  0  0  0  0  0  0  0  0  0  0  0
  141.4760  156.9420  132.9550 C   0  0  0  0  0  0  0  0  0  0  0  0
  142.8650  157.2470  132.9850 O   0  0  0  0  0  0  0  0  0  0  0  0
  143.4430  158.0510  133.9710 C   0  0  0  0  0  0  0  0  0  0  0  0
  142.9380  158.1030  135.1260 O   0  0  0  0  0  0  0  0  0  0  0  0
  144.6280  158.8010  133.6710 N   0  0  0  0  0  0  0  0  0  0  0  0
  144.7740  160.1570  133.6330 C   0  0  0  0  0  0  0  0  0  0  0  0
  143.6840  161.1490  133.7470 C   0  0  0  0  0  0  0  0  0  0  0  0
  142.3670  160.7510  134.1170 N   0  0  0  0  0  0  0  0  0  0  0  0
  143.9090  162.3580  133.4680 O   0  0  0  0  0  0  0  0  0  0  0  0
  146.1010  160.4990  133.3890 C   0  0  0  0  0  0  0  0  0  0  0  0
  146.7700  159.3020  133.2660 C   0  0  0  0  0  0  0  0  0  0  0  0
  148.1150  159.0510  133.0170 C   0  0  0  0  0  0  0  0  0  0  0  0
  148.5360  157.7120  132.9620 C   0  0  0  0  0  0  0  0  0  0  0  0
  147.6170  156.6520  133.1810 C   0  0  0  0  0  0  0  0  0  0  0  0
  148.0680  155.2170  133.0820 C   0  0  0  0  0  0  0  0  0  0  0  0
  147.2080  154.5270  132.2480 F   0  0  0  0  0  0  0  0  0  0  0  0
  149.3520  155.1380  132.5700 F   0  0  0  0  0  0  0  0  0  0  0  0
  148.0630  154.6190  134.3300 F   0  0  0  0  0  0  0  0  0  0  0  0
  146.2540  156.9500  133.4100 C   0  0  0  0  0  0  0  0  0  0  0  0
  145.8600  158.2930  133.4410 C   0  0  0  0  0  0  0  0  0  0  0  0
  140.3848  159.2707  137.5219 H   0  0  0  0  0  0  0  0  0  0  0  0
  141.9945  159.4101  136.7369 H   0  0  0  0  0  0  0  0  0  0  0  0
  140.8708  160.8115  136.7369 H   0  0  0  0  0  0  0  0  0  0  0  0
  138.4361  156.7981  134.1637 H   0  0  0  0  0  0  0  0  0  0  0  0
  137.8067  158.4719  134.4266 H   0  0  0  0  0  0  0  0  0  0  0  0
  137.5358  159.3120  132.3511 H   0  0  0  0  0  0  0  0  0  0  0  0
  138.9521  159.5233  131.2666 H   0  0  0  0  0  0  0  0  0  0  0  0
  138.0443  157.9733  131.2666 H   0  0  0  0  0  0  0  0  0  0  0  0
  141.1695  156.5297  133.9277 H   0  0  0  0  0  0  0  0  0  0  0  0
  141.2789  156.2014  132.1659 H   0  0  0  0  0  0  0  0  0  0  0  0
  142.1030  159.7410  134.1580 H   0  0  0  0  0  0  0  0  0  0  0  0
  146.5252  161.5109  133.3110 H   0  0  0  0  0  0  0  0  0  0  0  0
  148.8274  159.8758  132.8677 H   0  0  0  0  0  0  0  0  0  0  0  0
  149.5899  157.4820  132.7468 H   0  0  0  0  0  0  0  0  0  0  0  0
  145.5198  156.1448  133.5604 H   0  0  0  0  0  0  0  0  0  0  0  0
  1  2  1  0
  2  3  1  0
  3  4  2  0
  3  5  1  0
  5  6  1  0
  6  7  1  0
  6  8  1  0
  8  9  2  0
  8 10  1  0
 10 11  1  0
 11 12  1  0
 12 13  2  0
 12 14  1  0
 14 15  1  0
 15 16  1  0
 16 17  1  0
 16 18  2  0
 15 19  2  0
 19 20  1  0
 20 21  2  0
 21 22  1  0
 22 23  2  0
 23 24  1  0
 24 25  1  0
 24 26  1  0
 24 27  1  0
 23 28  1  0
 28 29  2  0
 29 14  1  0
 29 20  1  0
  1 30  1  0
  1 31  1  0
  1 32  1  0
  5 33  1  0
  5 34  1  0
  7 35  1  0
  7 36  1  0
  7 37  1  0
 10 38  1  0
 10 39  1  0
 17 40  1  0
 19 41  1  0
 21 42  1  0
 22 43  1  0
 28 44  1  0
M  CHG  1  17  -1
M  END
>  <UniqueID>  (54) 
53

>  <SMILES>  (54) 
COC(=O)CN(C)C(=O)COC(=O)n1c(C([NH-])=O)cc2ccc(C(F)(F)F)cc21

>  <Energy>  (54) 
75.78623966250194

>  <Genealogy>  (54) 
COC(=O)CN(C)C(=O)COC(=O)n1c(C([NH-])=O)cc2ccc(C(F)(F)F)cc21 (protonated)
COC(=O)CN(C)C(=O)COC(=O)n1c(C([NH-])=O)cc2ccc(C(F)(F)F)cc21 (3D coordinates assigned)
COC(=O)CN(C)C(=O)COC(=O)n1c(C([NH-])=O)cc2ccc(C(F)(F)F)cc21 (optimized conformer: 75.78623966250194 kcal/mol)

>  <smiles>  (54) 
COC(=O)CN(C)C(=O)COC(=O)n1c(C(N)=O)cc2ccc(C(F)(F)F)cc21

>  <score_type>  (54) 
oracle

>  <origin>  (54) 
adg

>  <m_score__min__energy>  (54) 
-5.9000000000000004

>  <m_primary>  (54) 
energy

$$$$
55:0
     RDKit          3D

 44 46  0  0  0  0  0  0  0  0999 V2000
  148.1270  152.5360  133.7320 N   0  0  0  0  0  0  0  0  0  0  0  0
  148.6530  153.6170  132.9590 C   0  0  0  0  0  0  0  0  0  0  0  0
  149.6580  153.4160  132.2280 O   0  0  0  0  0  0  0  0  0  0  0  0
  148.0020  154.9460  132.9810 C   0  0  0  0  0  0  0  0  0  0  0  0
  148.7020  156.1510  132.9660 C   0  0  0  0  0  0  0  0  0  0  0  0
  147.7450  157.1310  133.0970 C   0  0  0  0  0  0  0  0  0  0  0  0
  147.8850  158.5160  133.1360 C   0  0  0  0  0  0  0  0  0  0  0  0
  146.7200  159.2930  133.2590 C   0  0  0  0  0  0  0  0  0  0  0  0
  145.4530  158.6700  133.3290 C   0  0  0  0  0  0  0  0  0  0  0  0
  144.2630  159.4670  133.4660 C   0  0  0  0  0  0  0  0  0  0  0  0
  143.2540  160.1120  133.6000 C   0  0  0  0  0  0  0  0  0  0  0  0
  142.0140  160.8800  133.7270 C   0  0  0  0  0  0  0  0  0  0  0  0
  140.5690  159.7890  133.5010 S   0  0  0  0  0  0  0  0  0  0  0  0
  140.7770  158.9210  135.0620 C   0  0  0  0  0  0  0  0  0  0  0  0
  140.7530  157.5210  135.0940 C   0  0  0  0  0  0  0  0  0  0  0  0
  140.9180  156.8460  136.3100 C   0  0  0  0  0  0  0  0  0  0  0  0
  141.0980  157.5700  137.4940 C   0  0  0  0  0  0  0  0  0  0  0  0
  141.1150  158.9670  137.4630 C   0  0  0  0  0  0  0  0  0  0  0  0
  140.9470  159.6430  136.2510 C   0  0  0  0  0  0  0  0  0  0  0  0
  145.3450  157.2670  133.2830 C   0  0  0  0  0  0  0  0  0  0  0  0
  146.5230  156.5160  133.1820 C   0  0  0  0  0  0  0  0  0  0  0  0
  146.6620  155.1720  133.1110 N   0  0  0  0  0  0  0  0  0  0  0  0
  145.6000  154.2010  133.0930 C   0  0  0  0  0  0  0  0  0  0  0  0
  144.9100  154.0390  132.0500 O   0  0  0  0  0  0  0  0  0  0  0  0
  145.3160  153.4580  134.2430 O   0  0  0  0  0  0  0  0  0  0  0  0
  145.3060  154.0320  135.5460 C   0  0  0  0  0  0  0  0  0  0  0  0
  146.7060  154.1220  136.0570 C   0  0  0  0  0  0  0  0  0  0  0  0
  147.3250  155.2180  136.0300 O   0  0  0  0  0  0  0  0  0  0  0  0
  147.3360  152.9870  136.5530 O   0  0  0  0  0  0  0  0  0  0  0  0
  148.5790  151.5950  133.6890 H   0  0  0  0  0  0  0  0  0  0  0  0
  147.3240  152.6740  134.3840 H   0  0  0  0  0  0  0  0  0  0  0  0
  149.7890  156.2893  132.8698 H   0  0  0  0  0  0  0  0  0  0  0  0
  148.8768  158.9875  133.0725 H   0  0  0  0  0  0  0  0  0  0  0  0
  146.7945  160.3897  133.3009 H   0  0  0  0  0  0  0  0  0  0  0  0
  141.9709  161.3373  134.7265 H   0  0  0  0  0  0  0  0  0  0  0  0
  141.9965  161.6625  132.9541 H   0  0  0  0  0  0  0  0  0  0  0  0
  140.6046  156.9518  134.1645 H   0  0  0  0  0  0  0  0  0  0  0  0
  140.9061  155.7463  136.3344 H   0  0  0  0  0  0  0  0  0  0  0  0
  141.2261  157.0395  138.4490 H   0  0  0  0  0  0  0  0  0  0  0  0
  141.2608  159.5354  138.3934 H   0  0  0  0  0  0  0  0  0  0  0  0
  140.9483  160.7428  136.2306 H   0  0  0  0  0  0  0  0  0  0  0  0
  144.3625  156.7742  133.3252 H   0  0  0  0  0  0  0  0  0  0  0  0
  144.8662  155.0392  135.5003 H   0  0  0  0  0  0  0  0  0  0  0  0
  144.7074  153.4027  136.2210 H   0  0  0  0  0  0  0  0  0  0  0  0
  1  2  1  0
  2  3  2  0
  2  4  1  0
  4  5  2  0
  5  6  1  0
  6  7  2  0
  7  8  1  0
  8  9  2  0
  9 10  1  0
 10 11  3  0
 11 12  1  0
 12 13  1  0
 13 14  1  0
 14 15  2  0
 15 16  1  0
 16 17  2  0
 17 18  1  0
 18 19  2  0
  9 20  1  0
 20 21  2  0
 21 22  1  0
 22 23  1  0
 23 24  2  0
 23 25  1  0
 25 26  1  0
 26 27  1  0
 27 28  2  0
 27 29  1  0
 22  4  1  0
 21  6  1  0
 19 14  1  0
  1 30  1  0
  1 31  1  0
  5 32  1  0
  7 33  1  0
  8 34  1  0
 12 35  1  0
 12 36  1  0
 15 37  1  0
 16 38  1  0
 17 39  1  0
 18 40  1  0
 19 41  1  0
 20 42  1  0
 26 43  1  0
 26 44  1  0
M  CHG  1  29  -1
M  END
>  <UniqueID>  (55) 
54

>  <SMILES>  (55) 
NC(=O)c1cc2ccc(C#CCSc3ccccc3)cc2n1C(=O)OCC(=O)[O-]

>  <Energy>  (55) 
71.82544806254727

>  <Genealogy>  (55) 
NC(=O)c1cc2ccc(C#CCSc3ccccc3)cc2n1C(=O)OCC(=O)[O-] (protonated)
NC(=O)c1cc2ccc(C#CCSc3ccccc3)cc2n1C(=O)OCC(=O)[O-] (3D coordinates assigned)
NC(=O)c1cc2ccc(C#CCSc3ccccc3)cc2n1C(=O)OCC(=O)[O-] (optimized conformer: 71.82544806254727 kcal/mol)

>  <smiles>  (55) 
NC(=O)c1cc2ccc(C#CCSc3ccccc3)cc2n1C(=O)OCC(=O)O

>  <score_type>  (55) 
oracle

>  <origin>  (55) 
adg

>  <m_score__min__energy>  (55) 
-9.1699999999999999

>  <m_primary>  (55) 
energy

$$$$
56:0
     RDKit          3D

 58 59  0  0  0  0  0  0  0  0999 V2000
  138.2800  159.3590  131.4690 C   0  0  0  0  0  0  0  0  0  0  0  0
  138.6220  158.5750  132.4930 C   0  0  0  0  0  0  0  0  0  0  0  0
  140.0060  158.0120  132.6170 C   0  0  0  0  0  0  0  0  0  0  0  0
  140.0380  157.0200  133.6390 O   0  0  0  0  0  0  0  0  0  0  0  0
  140.0720  155.6470  133.3560 C   0  0  0  0  0  0  0  0  0  0  0  0
  139.2000  155.1220  132.6070 O   0  0  0  0  0  0  0  0  0  0  0  0
  141.1990  154.8160  133.8980 C   0  0  1  0  0  0  0  0  0  0  0  0
  140.9380  153.3900  133.6750 N   0  0  0  0  0  0  0  0  0  0  0  0
  141.6350  152.3650  134.3910 C   0  0  0  0  0  0  0  0  0  0  0  0
  142.5250  152.6720  135.2290 O   0  0  0  0  0  0  0  0  0  0  0  0
  141.3150  151.0200  134.1390 O   0  0  0  0  0  0  0  0  0  0  0  0
  141.3650  150.3590  132.8650 C   0  0  0  0  0  0  0  0  0  0  0  0
  140.4710  151.0760  131.8360 C   0  0  0  0  0  0  0  0  0  0  0  0
  142.8130  150.2750  132.3480 C   0  0  0  0  0  0  0  0  0  0  0  0
  140.8280  148.9350  133.0720 C   0  0  0  0  0  0  0  0  0  0  0  0
  142.4990  155.2200  133.2430 C   0  0  0  0  0  0  0  0  0  0  0  0
  143.2930  154.3580  132.8840 O   0  0  0  0  0  0  0  0  0  0  0  0
  142.8230  156.6730  132.9970 C   0  0  0  0  0  0  0  0  0  0  0  0
  143.9500  157.1720  133.8670 C   0  0  0  0  0  0  0  0  0  0  0  0
  144.3460  156.4530  134.8250 O   0  0  0  0  0  0  0  0  0  0  0  0
  144.5430  158.4670  133.6630 N   0  0  0  0  0  0  0  0  0  0  0  0
  143.9880  159.6930  133.8660 C   0  0  0  0  0  0  0  0  0  0  0  0
  142.5600  159.9580  134.1340 C   0  0  0  0  0  0  0  0  0  0  0  0
  141.8320  159.1080  135.0200 N   0  0  0  0  0  0  0  0  0  0  0  0
  141.9840  160.9530  133.6200 O   0  0  0  0  0  0  0  0  0  0  0  0
  144.9450  160.6960  133.6910 C   0  0  0  0  0  0  0  0  0  0  0  0
  146.1060  160.0320  133.3610 C   0  0  0  0  0  0  0  0  0  0  0  0
  147.3740  160.5290  133.0730 C   0  0  0  0  0  0  0  0  0  0  0  0
  148.3880  159.6090  132.7550 C   0  0  0  0  0  0  0  0  0  0  0  0
  148.1190  158.2200  132.7400 C   0  0  0  0  0  0  0  0  0  0  0  0
  149.1550  157.2930  132.4100 N   0  0  0  0  0  0  0  0  0  0  0  0
  146.8260  157.7520  133.0510 C   0  0  0  0  0  0  0  0  0  0  0  0
  145.8340  158.6910  133.3450 C   0  0  0  0  0  0  0  0  0  0  0  0
  137.2579  159.7598  131.4006 H   0  0  0  0  0  0  0  0  0  0  0  0
  139.0202  159.6046  130.6932 H   0  0  0  0  0  0  0  0  0  0  0  0
  137.8728  158.3367  133.2624 H   0  0  0  0  0  0  0  0  0  0  0  0
  140.3020  157.5585  131.6596 H   0  0  0  0  0  0  0  0  0  0  0  0
  140.7035  158.8217  132.8774 H   0  0  0  0  0  0  0  0  0  0  0  0
  141.2769  154.9892  134.9815 H   0  0  0  0  0  0  0  0  0  0  0  0
  140.1520  153.1030  133.0480 H   0  0  0  0  0  0  0  0  0  0  0  0
  139.7176  151.6802  132.3627 H   0  0  0  0  0  0  0  0  0  0  0  0
  141.0903  151.7306  131.2052 H   0  0  0  0  0  0  0  0  0  0  0  0
  139.9665  150.3293  131.2052 H   0  0  0  0  0  0  0  0  0  0  0  0
  143.5054  150.2348  133.2018 H   0  0  0  0  0  0  0  0  0  0  0  0
  142.9320  149.3684  131.7365 H   0  0  0  0  0  0  0  0  0  0  0  0
  143.0360  151.1617  131.7365 H   0  0  0  0  0  0  0  0  0  0  0  0
  140.7491  148.7258  134.1491 H   0  0  0  0  0  0  0  0  0  0  0  0
  139.8348  148.8466  132.6076 H   0  0  0  0  0  0  0  0  0  0  0  0
  141.5155  148.2127  132.6076 H   0  0  0  0  0  0  0  0  0  0  0  0
  143.1111  156.7960  131.9425 H   0  0  0  0  0  0  0  0  0  0  0  0
  141.9264  157.2605  133.2441 H   0  0  0  0  0  0  0  0  0  0  0  0
  141.5280  158.1570  134.7150 H   0  0  0  0  0  0  0  0  0  0  0  0
  144.8021  161.7818  133.7944 H   0  0  0  0  0  0  0  0  0  0  0  0
  147.5765  161.6100  133.0937 H   0  0  0  0  0  0  0  0  0  0  0  0
  149.3986  159.9717  132.5159 H   0  0  0  0  0  0  0  0  0  0  0  0
  149.9790  157.1660  133.0440 H   0  0  0  0  0  0  0  0  0  0  0  0
  149.1060  156.7270  131.5350 H   0  0  0  0  0  0  0  0  0  0  0  0
  146.6037  156.6747  133.0619 H   0  0  0  0  0  0  0  0  0  0  0  0
  1  2  2  0
  2  3  1  0
  3  4  1  0
  4  5  1  0
  5  6  2  0
  5  7  1  0
  7  8  1  0
  8  9  1  0
  9 10  2  0
  9 11  1  0
 11 12  1  0
 12 13  1  0
 12 14  1  0
 12 15  1  0
  7 16  1  0
 16 17  2  0
 16 18  1  0
 18 19  1  0
 19 20  2  0
 19 21  1  0
 21 22  1  0
 22 23  1  0
 23 24  1  0
 23 25  2  0
 22 26  2  0
 26 27  1  0
 27 28  2  0
 28 29  1  0
 29 30  2  0
 30 31  1  0
 30 32  1  0
 32 33  2  0
 33 21  1  0
 33 27  1  0
  1 34  1  0
  1 35  1  0
  2 36  1  0
  3 37  1  0
  3 38  1  0
  7 39  1  1
  8 40  1  0
 13 41  1  0
 13 42  1  0
 13 43  1  0
 14 44  1  0
 14 45  1  0
 14 46  1  0
 15 47  1  0
 15 48  1  0
 15 49  1  0
 18 50  1  0
 18 51  1  0
 24 52  1  0
 26 53  1  0
 28 54  1  0
 29 55  1  0
 31 56  1  0
 31 57  1  0
 32 58  1  0
M  CHG  1  24  -1
M  END
>  <UniqueID>  (56) 
55

>  <SMILES>  (56) 
C=CCOC(=O)[C@@H](NC(=O)OC(C)(C)C)C(=O)CC(=O)n1c(C([NH-])=O)cc2ccc(N)cc21

>  <Energy>  (56) 
81.15238830943964

>  <Genealogy>  (56) 
C=CCOC(=O)C(NC(=O)OC(C)(C)C)C(=O)CC(=O)n1c(C([NH-])=O)cc2ccc(N)cc21 (protonated)
C=CCOC(=O)[C@@H](NC(=O)OC(C)(C)C)C(=O)CC(=O)n1c(C([NH-])=O)cc2ccc(N)cc21 (chirality)
C=CCOC(=O)[C@@H](NC(=O)OC(C)(C)C)C(=O)CC(=O)n1c(C([NH-])=O)cc2ccc(N)cc21 (3D coordinates assigned)
C=CCOC(=O)[C@@H](NC(=O)OC(C)(C)C)C(=O)CC(=O)n1c(C([NH-])=O)cc2ccc(N)cc21 (optimized conformer: 81.15238830943964 kcal/mol)

>  <smiles>  (56) 
C=CCOC(=O)C(NC(=O)OC(C)(C)C)C(=O)CC(=O)n1c(C(N)=O)cc2ccc(N)cc21

>  <score_type>  (56) 
oracle

>  <origin>  (56) 
adg

>  <m_score__min__energy>  (56) 
-8.9299999999999997

>  <m_primary>  (56) 
energy

$$$$
57:0
     RDKit          3D

 42 43  0  0  0  0  0  0  0  0999 V2000
  144.9220  153.3680  137.9760 N   0  0  0  0  0  0  0  0  0  0  0  0
  143.4990  153.3370  137.8450 C   0  0  0  0  0  0  0  0  0  0  0  0
  142.8740  152.2880  138.1600 O   0  0  0  0  0  0  0  0  0  0  0  0
  142.7530  154.4850  137.2910 C   0  0  0  0  0  0  0  0  0  0  0  0
  141.6960  155.1050  137.9520 C   0  0  0  0  0  0  0  0  0  0  0  0
  141.2660  156.0980  137.1000 C   0  0  0  0  0  0  0  0  0  0  0  0
  140.2580  157.0410  137.2620 C   0  0  0  0  0  0  0  0  0  0  0  0
  140.0710  157.9900  136.2420 C   0  0  0  0  0  0  0  0  0  0  0  0
  140.9100  157.9990  135.1000 C   0  0  0  0  0  0  0  0  0  0  0  0
  140.6960  159.0290  134.0190 C   0  0  0  0  0  0  0  0  0  0  0  0
  139.3630  159.0320  133.6490 F   0  0  0  0  0  0  0  0  0  0  0  0
  141.4730  158.7470  132.9090 F   0  0  0  0  0  0  0  0  0  0  0  0
  141.0410  160.2900  134.4780 F   0  0  0  0  0  0  0  0  0  0  0  0
  141.9030  157.0010  134.9550 C   0  0  0  0  0  0  0  0  0  0  0  0
  142.0530  156.0590  135.9790 C   0  0  0  0  0  0  0  0  0  0  0  0
  142.9720  155.0740  136.0820 N   0  0  0  0  0  0  0  0  0  0  0  0
  144.0400  154.8120  135.1640 C   0  0  0  0  0  0  0  0  0  0  0  0
  143.7830  154.4050  133.9980 O   0  0  0  0  0  0  0  0  0  0  0  0
  145.3930  155.0280  135.5700 N   0  0  0  0  0  0  0  0  0  0  0  0
  146.3160  155.9120  134.8630 C   0  0  0  0  0  0  0  0  0  0  0  0
  146.7360  155.3020  133.5220 C   0  0  0  0  0  0  0  0  0  0  0  0
  147.9250  154.3970  133.6640 C   0  0  0  0  0  0  0  0  0  0  0  0
  148.9310  154.5680  132.9230 O   0  0  0  0  0  0  0  0  0  0  0  0
  147.9290  153.4000  134.6450 O   0  0  0  0  0  0  0  0  0  0  0  0
  148.0950  153.6740  136.0350 C   0  0  0  0  0  0  0  0  0  0  0  0
  147.1170  152.9850  136.7780 O   0  0  0  0  0  0  0  0  0  0  0  0
  147.6690  152.7970  138.3840 P   0  0  0  0  0  0  0  0  0  0  0  0
  147.2470  151.4380  138.8950 O   0  0  0  0  0  0  0  0  0  0  0  0
  146.9840  153.9880  139.3640 O   0  0  0  0  0  0  0  0  0  0  0  0
  149.3550  152.9080  138.4590 O   0  0  0  0  0  0  0  0  0  0  0  0
  145.4910  154.1380  137.5620 H   0  0  0  0  0  0  0  0  0  0  0  0
  145.4240  152.5570  138.3960 H   0  0  0  0  0  0  0  0  0  0  0  0
  141.2907  154.8550  138.9435 H   0  0  0  0  0  0  0  0  0  0  0  0
  139.6252  157.0446  138.1618 H   0  0  0  0  0  0  0  0  0  0  0  0
  139.2651  158.7333  136.3312 H   0  0  0  0  0  0  0  0  0  0  0  0
  142.5411  156.9666  134.0596 H   0  0  0  0  0  0  0  0  0  0  0  0
  145.8217  156.8776  134.6806 H   0  0  0  0  0  0  0  0  0  0  0  0
  147.2140  156.0517  135.4828 H   0  0  0  0  0  0  0  0  0  0  0  0
  145.8942  154.7215  133.1167 H   0  0  0  0  0  0  0  0  0  0  0  0
  147.0137  156.1246  132.8465 H   0  0  0  0  0  0  0  0  0  0  0  0
  149.0949  153.3457  136.3549 H   0  0  0  0  0  0  0  0  0  0  0  0
  147.9867  154.7550  136.2072 H   0  0  0  0  0  0  0  0  0  0  0  0
  1  2  1  0
  2  3  2  0
  2  4  1  0
  4  5  2  0
  5  6  1  0
  6  7  2  0
  7  8  1  0
  8  9  2  0
  9 10  1  0
 10 11  1  0
 10 12  1  0
 10 13  1  0
  9 14  1  0
 14 15  2  0
 15 16  1  0
 16 17  1  0
 17 18  2  0
 17 19  1  0
 19 20  1  0
 20 21  1  0
 21 22  1  0
 22 23  2  0
 22 24  1  0
 24 25  1  0
 25 26  1  0
 26 27  1  0
 27 28  2  0
 27 29  1  0
 27 30  1  0
 16  4  1  0
 15  6  1  0
  1 31  1  0
  1 32  1  0
  5 33  1  0
  7 34  1  0
  8 35  1  0
 14 36  1  0
 20 37  1  0
 20 38  1  0
 21 39  1  0
 21 40  1  0
 25 41  1  0
 25 42  1  0
M  CHG  3  19  -1  29  -1  30  -1
M  END
>  <UniqueID>  (57) 
56

>  <SMILES>  (57) 
NC(=O)c1cc2ccc(C(F)(F)F)cc2n1C(=O)[N-]CCC(=O)OCOP(=O)([O-])[O-]

>  <Energy>  (57) 
73.61317100287116

>  <Genealogy>  (57) 
NC(=O)c1cc2ccc(C(F)(F)F)cc2n1C(=O)[N-]CCC(=O)OCOP(=O)([O-])[O-] (protonated)
NC(=O)c1cc2ccc(C(F)(F)F)cc2n1C(=O)[N-]CCC(=O)OCOP(=O)([O-])[O-] (3D coordinates assigned)
NC(=O)c1cc2ccc(C(F)(F)F)cc2n1C(=O)[N-]CCC(=O)OCOP(=O)([O-])[O-] (optimized conformer: 73.61317100287116 kcal/mol)

>  <smiles>  (57) 
NC(=O)c1cc2ccc(C(F)(F)F)cc2n1C(=O)NCCC(=O)OCOP(=O)(O)O

>  <score_type>  (57) 
oracle

>  <origin>  (57) 
adg

>  <m_score__min__energy>  (57) 
-6.3700000000000001

>  <m_primary>  (57) 
energy

$$$$
58:0
     RDKit          3D

 43 45  0  0  0  0  0  0  0  0999 V2000
  148.5580  161.1830  130.8830 C   0  0  0  0  0  0  0  0  0  0  0  0
  148.1670  160.2500  131.5400 C   0  0  0  0  0  0  0  0  0  0  0  0
  147.6990  159.1390  132.3240 C   0  0  0  0  0  0  0  0  0  0  0  0
  148.6170  158.1680  132.7890 C   0  0  0  0  0  0  0  0  0  0  0  0
  148.1720  157.0710  133.5450 C   0  0  0  0  0  0  0  0  0  0  0  0
  146.8100  156.9800  133.8220 C   0  0  0  0  0  0  0  0  0  0  0  0
  146.1100  156.0160  134.5100 C   0  0  0  0  0  0  0  0  0  0  0  0
  144.7780  156.4270  134.4710 C   0  0  0  0  0  0  0  0  0  0  0  0
  143.6770  155.7310  135.1750 C   0  0  0  0  0  0  0  0  0  0  0  0
  142.3350  156.2110  135.0870 N   0  0  0  0  0  0  0  0  0  0  0  0
  143.9120  154.6850  135.8380 O   0  0  0  0  0  0  0  0  0  0  0  0
  144.6610  157.5980  133.7820 N   0  0  0  0  0  0  0  0  0  0  0  0
  143.4560  158.3180  133.4760 C   0  0  0  0  0  0  0  0  0  0  0  0
  142.6480  157.8600  132.6220 O   0  0  0  0  0  0  0  0  0  0  0  0
  143.1870  159.5300  134.1230 O   0  0  0  0  0  0  0  0  0  0  0  0
  141.9180  159.8510  134.6850 C   0  0  0  0  0  0  0  0  0  0  0  0
  141.7020  159.0860  135.9530 C   0  0  0  0  0  0  0  0  0  0  0  0
  142.3950  159.3530  136.9710 O   0  0  0  0  0  0  0  0  0  0  0  0
  140.7400  158.0700  135.9860 O   0  0  0  0  0  0  0  0  0  0  0  0
  139.5140  158.1320  135.2640 C   0  0  0  0  0  0  0  0  0  0  0  0
  139.5430  157.1830  134.1040 C   0  0  0  0  0  0  0  0  0  0  0  0
  140.0090  155.9570  134.1610 O   0  0  0  0  0  0  0  0  0  0  0  0
  139.8590  155.4590  132.9550 C   0  0  0  0  0  0  0  0  0  0  0  0
  140.2000  154.2920  132.6360 O   0  0  0  0  0  0  0  0  0  0  0  0
  139.3170  156.3150  132.1180 O   0  0  0  0  0  0  0  0  0  0  0  0
  139.1080  157.4100  132.8100 C   0  0  0  0  0  0  0  0  0  0  0  0
  138.4980  158.6570  132.2610 C   0  0  0  0  0  0  0  0  0  0  0  0
  145.9120  157.9250  133.3920 C   0  0  0  0  0  0  0  0  0  0  0  0
  146.3270  159.0170  132.6220 C   0  0  0  0  0  0  0  0  0  0  0  0
  148.9146  162.0338  130.2839 H   0  0  0  0  0  0  0  0  0  0  0  0
  149.6871  158.2729  132.5568 H   0  0  0  0  0  0  0  0  0  0  0  0
  148.8768  156.3079  133.9068 H   0  0  0  0  0  0  0  0  0  0  0  0
  146.5151  155.1126  134.9893 H   0  0  0  0  0  0  0  0  0  0  0  0
  142.1090  157.1030  134.5950 H   0  0  0  0  0  0  0  0  0  0  0  0
  141.5610  155.6910  135.5570 H   0  0  0  0  0  0  0  0  0  0  0  0
  141.8790  160.9290  134.9006 H   0  0  0  0  0  0  0  0  0  0  0  0
  141.1302  159.5813  133.9662 H   0  0  0  0  0  0  0  0  0  0  0  0
  138.6847  157.8607  135.9338 H   0  0  0  0  0  0  0  0  0  0  0  0
  139.3741  159.1551  134.8850 H   0  0  0  0  0  0  0  0  0  0  0  0
  138.1806  159.3059  133.0906 H   0  0  0  0  0  0  0  0  0  0  0  0
  139.2388  159.1866  131.6439 H   0  0  0  0  0  0  0  0  0  0  0  0
  137.6252  158.3973  131.6439 H   0  0  0  0  0  0  0  0  0  0  0  0
  145.6019  159.7603  132.2590 H   0  0  0  0  0  0  0  0  0  0  0  0
  1  2  3  0
  2  3  1  0
  3  4  2  0
  4  5  1  0
  5  6  2  0
  6  7  1  0
  7  8  2  0
  8  9  1  0
  9 10  1  0
  9 11  2  0
  8 12  1  0
 12 13  1  0
 13 14  2  0
 13 15  1  0
 15 16  1  0
 16 17  1  0
 17 18  2  0
 17 19  1  0
 19 20  1  0
 20 21  1  0
 21 22  1  0
 22 23  1  0
 23 24  2  0
 23 25  1  0
 25 26  1  0
 26 27  1  0
 12 28  1  0
 28 29  2  0
 29  3  1  0
 28  6  1  0
 26 21  2  0
  1 30  1  0
  4 31  1  0
  5 32  1  0
  7 33  1  0
 10 34  1  0
 10 35  1  0
 16 36  1  0
 16 37  1  0
 20 38  1  0
 20 39  1  0
 27 40  1  0
 27 41  1  0
 27 42  1  0
 29 43  1  0
M  END
>  <UniqueID>  (58) 
57

>  <SMILES>  (58) 
C#Cc1ccc2cc(C(N)=O)n(C(=O)OCC(=O)OCc3oc(=O)oc3C)c2c1

>  <Energy>  (58) 
109.07364592763682

>  <Genealogy>  (58) 
C#Cc1ccc2cc(C(N)=O)n(C(=O)OCC(=O)OCc3oc(=O)oc3C)c2c1 (3D coordinates assigned)
C#Cc1ccc2cc(C(N)=O)n(C(=O)OCC(=O)OCc3oc(=O)oc3C)c2c1 (optimized conformer: 109.07364592763682 kcal/mol)

>  <smiles>  (58) 
C#Cc1ccc2cc(C(N)=O)n(C(=O)OCC(=O)OCc3oc(=O)oc3C)c2c1

>  <score_type>  (58) 
oracle

>  <origin>  (58) 
adg

>  <m_score__min__energy>  (58) 
-7.5599999999999996

>  <m_primary>  (58) 
energy

$$$$
59:0
     RDKit          3D

 51 53  0  0  0  0  0  0  0  0999 V2000
  149.5980  158.4350  132.2210 C   0  0  0  0  0  0  0  0  0  0  0  0
  148.1470  158.6180  132.5500 C   0  0  0  0  0  0  0  0  0  0  0  0
  147.5360  159.8850  132.3880 C   0  0  0  0  0  0  0  0  0  0  0  0
  146.1900  160.0820  132.7420 C   0  0  0  0  0  0  0  0  0  0  0  0
  145.4870  158.9980  133.2600 C   0  0  0  0  0  0  0  0  0  0  0  0
  144.1950  158.9210  133.7270 C   0  0  0  0  0  0  0  0  0  0  0  0
  144.0360  157.6060  134.1610 C   0  0  0  0  0  0  0  0  0  0  0  0
  142.7630  157.0690  134.6880 C   0  0  0  0  0  0  0  0  0  0  0  0
  142.6920  155.7600  135.2500 N   0  0  0  0  0  0  0  0  0  0  0  0
  141.7130  157.7600  134.6050 O   0  0  0  0  0  0  0  0  0  0  0  0
  145.1850  156.9000  133.9730 N   0  0  0  0  0  0  0  0  0  0  0  0
  145.4700  155.5540  134.3800 C   0  0  0  0  0  0  0  0  0  0  0  0
  145.2900  155.2130  135.5810 O   0  0  0  0  0  0  0  0  0  0  0  0
  145.9080  154.6210  133.4350 O   0  0  0  0  0  0  0  0  0  0  0  0
  145.2160  154.3660  132.2160 C   0  0  0  0  0  0  0  0  0  0  0  0
  143.8620  153.9080  132.5040 N   0  0  0  0  0  0  0  0  0  0  0  0
  143.4610  152.6330  132.6790 C   0  0  0  0  0  0  0  0  0  0  0  0
  142.1300  152.6860  133.0400 C   0  0  0  0  0  0  0  0  0  0  0  0
  141.2750  151.5220  133.3430 C   0  0  0  0  0  0  0  0  0  0  0  0
  141.2760  151.0500  134.5120 O   0  0  0  0  0  0  0  0  0  0  0  0
  140.4120  150.9590  132.3480 N   0  0  0  0  0  0  0  0  0  0  0  0
  139.7430  149.6750  132.5600 C   0  0  0  0  0  0  0  0  0  0  0  0
  140.0430  148.6910  131.4230 C   0  0  0  0  0  0  0  0  0  0  0  0
  139.3800  149.1180  130.1470 C   0  0  0  0  0  0  0  0  0  0  0  0
  139.5150  150.4600  129.6860 N   0  0  0  0  0  0  0  0  0  0  0  0
  138.7270  148.2850  129.4670 O   0  0  0  0  0  0  0  0  0  0  0  0
  141.7710  153.9930  133.0470 N   0  0  0  0  0  0  0  0  0  0  0  0
  140.4640  154.5770  133.3280 C   0  0  0  0  0  0  0  0  0  0  0  0
  142.8380  154.7130  132.7370 N   0  0  0  0  0  0  0  0  0  0  0  0
  146.0640  157.7650  133.4200 C   0  0  0  0  0  0  0  0  0  0  0  0
  147.4060  157.5450  133.0900 C   0  0  0  0  0  0  0  0  0  0  0  0
  150.1787  158.3618  133.1523 H   0  0  0  0  0  0  0  0  0  0  0  0
  149.7276  157.5134  131.6346 H   0  0  0  0  0  0  0  0  0  0  0  0
  149.9524  159.2956  131.6346 H   0  0  0  0  0  0  0  0  0  0  0  0
  148.1204  160.7234  131.9811 H   0  0  0  0  0  0  0  0  0  0  0  0
  145.7073  161.0621  132.6137 H   0  0  0  0  0  0  0  0  0  0  0  0
  143.4463  159.7265  133.7525 H   0  0  0  0  0  0  0  0  0  0  0  0
  143.2430  154.9710  134.8450 H   0  0  0  0  0  0  0  0  0  0  0  0
  145.1703  155.2904  131.6216 H   0  0  0  0  0  0  0  0  0  0  0  0
  145.7502  153.5883  131.6506 H   0  0  0  0  0  0  0  0  0  0  0  0
  144.0743  151.7279  132.5579 H   0  0  0  0  0  0  0  0  0  0  0  0
  140.2270  151.4980  131.4730 H   0  0  0  0  0  0  0  0  0  0  0  0
  140.0925  149.2422  133.5089 H   0  0  0  0  0  0  0  0  0  0  0  0
  138.6576  149.8514  132.5865 H   0  0  0  0  0  0  0  0  0  0  0  0
  141.1306  148.6464  131.2647 H   0  0  0  0  0  0  0  0  0  0  0  0
  139.6513  147.7026  131.7053 H   0  0  0  0  0  0  0  0  0  0  0  0
  139.4870  151.2610  130.3550 H   0  0  0  0  0  0  0  0  0  0  0  0
  140.3179  154.6423  134.4163 H   0  0  0  0  0  0  0  0  0  0  0  0
  140.4107  155.5845  132.8898 H   0  0  0  0  0  0  0  0  0  0  0  0
  139.6779  153.9445  132.8898 H   0  0  0  0  0  0  0  0  0  0  0  0
  147.8715  156.5609  133.2474 H   0  0  0  0  0  0  0  0  0  0  0  0
  1  2  1  0
  2  3  2  0
  3  4  1  0
  4  5  2  0
  5  6  1  0
  6  7  2  0
  7  8  1  0
  8  9  1  0
  8 10  2  0
  7 11  1  0
 11 12  1  0
 12 13  2  0
 12 14  1  0
 14 15  1  0
 15 16  1  0
 16 17  1  0
 17 18  2  0
 18 19  1  0
 19 20  2  0
 19 21  1  0
 21 22  1  0
 22 23  1  0
 23 24  1  0
 24 25  1  0
 24 26  2  0
 18 27  1  0
 27 28  1  0
 27 29  1  0
 11 30  1  0
 30 31  2  0
 31  2  1  0
 30  5  1  0
 29 16  2  0
  1 32  1  0
  1 33  1  0
  1 34  1  0
  3 35  1  0
  4 36  1  0
  6 37  1  0
  9 38  1  0
 15 39  1  0
 15 40  1  0
 17 41  1  0
 21 42  1  0
 22 43  1  0
 22 44  1  0
 23 45  1  0
 23 46  1  0
 25 47  1  0
 28 48  1  0
 28 49  1  0
 28 50  1  0
 31 51  1  0
M  CHG  3   9  -1  16   1  25  -1
M  END
>  <UniqueID>  (59) 
58

>  <SMILES>  (59) 
Cc1ccc2cc(C([NH-])=O)n(C(=O)OC[n+]3cc(C(=O)NCCC([NH-])=O)n(C)n3)c2c1

>  <Energy>  (59) 
120.73896351461362

>  <Genealogy>  (59) 
Cc1ccc2cc(C([NH-])=O)n(C(=O)OC[n+]3cc(C(=O)NCCC([NH-])=O)n(C)n3)c2c1 (protonated)
Cc1ccc2cc(C([NH-])=O)n(C(=O)OC[n+]3cc(C(=O)NCCC([NH-])=O)n(C)n3)c2c1 (3D coordinates assigned)
Cc1ccc2cc(C([NH-])=O)n(C(=O)OC[n+]3cc(C(=O)NCCC([NH-])=O)n(C)n3)c2c1 (optimized conformer: 120.73896351461362 kcal/mol)

>  <smiles>  (59) 
Cc1ccc2cc(C(N)=O)n(C(=O)OC[n+]3cc(C(=O)NCCC(N)=O)n(C)n3)c2c1

>  <score_type>  (59) 
oracle

>  <origin>  (59) 
adg

>  <m_score__min__energy>  (59) 
-8.0500000000000007

>  <m_primary>  (59) 
energy

$$$$
60:0
     RDKit          3D

 36 37  0  0  0  0  0  0  0  0999 V2000
  139.0710  158.2530  132.3310 C   0  0  0  0  0  0  0  0  0  0  0  0
  139.9880  157.2340  132.9980 C   0  0  0  0  0  0  0  0  0  0  0  0
  140.3850  157.6950  134.3730 C   0  0  0  0  0  0  0  0  0  0  0  0
  140.5740  159.0760  134.6350 C   0  0  0  0  0  0  0  0  0  0  0  0
  140.9690  159.5150  135.9100 C   0  0  0  0  0  0  0  0  0  0  0  0
  141.1800  158.5550  136.8950 C   0  0  0  0  0  0  0  0  0  0  0  0
  141.5550  158.6990  138.2120 C   0  0  0  0  0  0  0  0  0  0  0  0
  141.6120  157.4030  138.7240 C   0  0  0  0  0  0  0  0  0  0  0  0
  142.0380  157.0820  140.1020 C   0  0  0  0  0  0  0  0  0  0  0  0
  142.8400  155.9370  140.3730 N   0  0  0  0  0  0  0  0  0  0  0  0
  141.7140  157.8470  141.0500 O   0  0  0  0  0  0  0  0  0  0  0  0
  141.2800  156.4980  137.7610 N   0  0  0  0  0  0  0  0  0  0  0  0
  141.1410  155.0780  137.8900 C   0  0  0  0  0  0  0  0  0  0  0  0
  140.1970  154.5990  138.5730 O   0  0  0  0  0  0  0  0  0  0  0  0
  142.3740  153.9810  137.1960 P   0  0  2  0  0  0  0  0  0  0  0  0
  143.4640  153.7530  138.2200 O   0  0  0  0  0  0  0  0  0  0  0  0
  143.0350  154.7100  135.8200 O   0  0  0  0  0  0  0  0  0  0  0  0
  141.6350  152.5020  136.7830 O   0  0  0  0  0  0  0  0  0  0  0  0
  141.1770  151.8870  137.9620 C   0  0  0  0  0  0  0  0  0  0  0  0
  140.3550  150.6990  137.5930 C   0  0  0  0  0  0  0  0  0  0  0  0
  139.4590  150.2830  138.3740 O   0  0  0  0  0  0  0  0  0  0  0  0
  140.5340  150.0840  136.3610 O   0  0  0  0  0  0  0  0  0  0  0  0
  141.0230  157.2160  136.6490 C   0  0  0  0  0  0  0  0  0  0  0  0
  140.6200  156.7490  135.3950 C   0  0  0  0  0  0  0  0  0  0  0  0
  138.5469  158.8354  133.1031 H   0  0  0  0  0  0  0  0  0  0  0  0
  139.6698  158.9302  131.7043 H   0  0  0  0  0  0  0  0  0  0  0  0
  138.3346  157.7287  131.7043 H   0  0  0  0  0  0  0  0  0  0  0  0
  139.4607  156.2719  133.0781 H   0  0  0  0  0  0  0  0  0  0  0  0
  140.8958  157.1224  132.3870 H   0  0  0  0  0  0  0  0  0  0  0  0
  140.4099  159.8103  133.8326 H   0  0  0  0  0  0  0  0  0  0  0  0
  141.1072  160.5853  136.1231 H   0  0  0  0  0  0  0  0  0  0  0  0
  141.7650  159.6371  138.7468 H   0  0  0  0  0  0  0  0  0  0  0  0
  143.2980  155.4060  139.5990 H   0  0  0  0  0  0  0  0  0  0  0  0
  142.0358  151.5682  138.5709 H   0  0  0  0  0  0  0  0  0  0  0  0
  140.5703  152.5966  138.5437 H   0  0  0  0  0  0  0  0  0  0  0  0
  140.4892  155.6728  135.2088 H   0  0  0  0  0  0  0  0  0  0  0  0
  1  2  1  0
  2  3  1  0
  3  4  2  0
  4  5  1  0
  5  6  2  0
  6  7  1  0
  7  8  2  0
  8  9  1  0
  9 10  1  0
  9 11  2  0
  8 12  1  0
 12 13  1  0
 13 14  2  0
 13 15  1  0
 15 16  2  0
 15 17  1  6
 15 18  1  0
 18 19  1  0
 19 20  1  0
 20 21  2  0
 20 22  1  0
 12 23  1  0
 23 24  2  0
 24  3  1  0
 23  6  1  0
  1 25  1  0
  1 26  1  0
  1 27  1  0
  2 28  1  0
  2 29  1  0
  4 30  1  0
  5 31  1  0
  7 32  1  0
 10 33  1  0
 19 34  1  0
 19 35  1  0
 24 36  1  0
M  CHG  3  10  -1  17  -1  22  -1
M  END
>  <UniqueID>  (60) 
59

>  <SMILES>  (60) 
CCc1ccc2cc(C([NH-])=O)n(C(=O)[P@](=O)([O-])OCC(=O)[O-])c2c1

>  <Energy>  (60) 
68.70511578787482

>  <Genealogy>  (60) 
CCc1ccc2cc(C([NH-])=O)n(C(=O)P(=O)([O-])OCC(=O)[O-])c2c1 (protonated)
CCc1ccc2cc(C([NH-])=O)n(C(=O)[P@](=O)([O-])OCC(=O)[O-])c2c1 (chirality)
CCc1ccc2cc(C([NH-])=O)n(C(=O)[P@](=O)([O-])OCC(=O)[O-])c2c1 (3D coordinates assigned)
CCc1ccc2cc(C([NH-])=O)n(C(=O)[P@](=O)([O-])OCC(=O)[O-])c2c1 (optimized conformer: 68.70511578787482 kcal/mol)

>  <smiles>  (60) 
CCc1ccc2cc(C(N)=O)n(C(=O)P(=O)(O)OCC(=O)O)c2c1

>  <score_type>  (60) 
oracle

>  <origin>  (60) 
adg

>  <m_score__min__energy>  (60) 
-6.7699999999999996

>  <m_primary>  (60) 
energy

$$$$
61:0
     RDKit          3D

 47 48  0  0  0  0  0  0  0  0999 V2000
  140.1710  156.1620  133.4000 C   0  0  0  0  0  0  0  0  0  0  0  0
  141.5800  155.9450  133.7400 N   0  0  0  0  0  0  0  0  0  0  0  0
  142.0430  154.6170  134.1750 C   0  0  0  0  0  0  0  0  0  0  0  0
  142.5790  153.7860  132.9920 C   0  0  0  0  0  0  0  0  0  0  0  0
  144.0540  153.8550  132.8390 N   0  0  0  0  0  0  0  0  0  0  0  0
  144.6770  152.5230  132.9550 C   0  0  0  0  0  0  0  0  0  0  0  0
  144.3920  154.4460  131.5320 C   0  0  0  0  0  0  0  0  0  0  0  0
  142.5040  157.0490  133.6580 C   0  0  0  0  0  0  0  0  0  0  0  0
  142.0270  158.3850  133.6450 C   0  0  0  0  0  0  0  0  0  0  0  0
  142.9220  159.4640  133.5630 C   0  0  0  0  0  0  0  0  0  0  0  0
  144.2820  159.1820  133.4790 C   0  0  0  0  0  0  0  0  0  0  0  0
  145.3610  160.0310  133.3990 C   0  0  0  0  0  0  0  0  0  0  0  0
  146.4800  159.2020  133.3300 C   0  0  0  0  0  0  0  0  0  0  0  0
  147.8570  159.7060  133.1420 C   0  0  0  0  0  0  0  0  0  0  0  0
  148.8800  159.3320  134.0620 N   0  0  0  0  0  0  0  0  0  0  0  0
  148.1340  160.4920  132.1980 O   0  0  0  0  0  0  0  0  0  0  0  0
  146.1050  157.8910  133.3740 N   0  0  0  0  0  0  0  0  0  0  0  0
  146.9440  156.7260  133.3550 C   0  0  0  0  0  0  0  0  0  0  0  0
  148.1540  156.8220  133.0100 O   0  0  0  0  0  0  0  0  0  0  0  0
  146.4200  155.4930  133.7520 O   0  0  0  0  0  0  0  0  0  0  0  0
  147.0920  154.6190  134.6520 C   0  0  0  0  0  0  0  0  0  0  0  0
  146.1150  154.0870  135.6480 C   0  0  0  0  0  0  0  0  0  0  0  0
  144.8780  154.2600  135.4780 O   0  0  0  0  0  0  0  0  0  0  0  0
  146.5610  153.3400  136.7310 O   0  0  0  0  0  0  0  0  0  0  0  0
  144.7570  157.8970  133.4660 C   0  0  0  0  0  0  0  0  0  0  0  0
  143.8920  156.8040  133.5750 C   0  0  0  0  0  0  0  0  0  0  0  0
  139.5807  156.2529  134.3237 H   0  0  0  0  0  0  0  0  0  0  0  0
  140.0741  157.0857  132.8105 H   0  0  0  0  0  0  0  0  0  0  0  0
  139.8007  155.3103  132.8105 H   0  0  0  0  0  0  0  0  0  0  0  0
  142.8469  154.7442  134.9149 H   0  0  0  0  0  0  0  0  0  0  0  0
  141.1875  154.0809  134.6118 H   0  0  0  0  0  0  0  0  0  0  0  0
  142.2940  152.7350  133.1476 H   0  0  0  0  0  0  0  0  0  0  0  0
  142.1390  154.2068  132.0758 H   0  0  0  0  0  0  0  0  0  0  0  0
  144.4620  154.4760  133.5760 H   0  0  0  0  0  0  0  0  0  0  0  0
  144.7973  152.2658  134.0177 H   0  0  0  0  0  0  0  0  0  0  0  0
  144.0356  151.7744  132.4669 H   0  0  0  0  0  0  0  0  0  0  0  0
  145.6627  152.5355  132.4669 H   0  0  0  0  0  0  0  0  0  0  0  0
  144.9327  155.3915  131.6859 H   0  0  0  0  0  0  0  0  0  0  0  0
  145.0274  153.7479  130.9672 H   0  0  0  0  0  0  0  0  0  0  0  0
  143.4681  154.6397  130.9672 H   0  0  0  0  0  0  0  0  0  0  0  0
  140.9454  158.5776  133.6997 H   0  0  0  0  0  0  0  0  0  0  0  0
  142.5584  160.5022  133.5651 H   0  0  0  0  0  0  0  0  0  0  0  0
  145.3447  161.1309  133.3911 H   0  0  0  0  0  0  0  0  0  0  0  0
  149.2320  158.3500  134.1010 H   0  0  0  0  0  0  0  0  0  0  0  0
  147.5353  153.7836  134.0902 H   0  0  0  0  0  0  0  0  0  0  0  0
  147.8872  155.1704  135.1752 H   0  0  0  0  0  0  0  0  0  0  0  0
  144.2840  155.7764  133.5956 H   0  0  0  0  0  0  0  0  0  0  0  0
  1  2  1  0
  2  3  1  0
  3  4  1  0
  4  5  1  0
  5  6  1  0
  5  7  1  0
  2  8  1  0
  8  9  2  0
  9 10  1  0
 10 11  2  0
 11 12  1  0
 12 13  2  0
 13 14  1  0
 14 15  1  0
 14 16  2  0
 13 17  1  0
 17 18  1  0
 18 19  2  0
 18 20  1  0
 20 21  1  0
 21 22  1  0
 22 23  2  0
 22 24  1  0
 17 25  1  0
 25 26  2  0
 26  8  1  0
 25 11  1  0
  1 27  1  0
  1 28  1  0
  1 29  1  0
  3 30  1  0
  3 31  1  0
  4 32  1  0
  4 33  1  0
  5 34  1  0
  6 35  1  0
  6 36  1  0
  6 37  1  0
  7 38  1  0
  7 39  1  0
  7 40  1  0
  9 41  1  0
 10 42  1  0
 12 43  1  0
 15 44  1  0
 21 45  1  0
 21 46  1  0
 26 47  1  0
M  CHG  3   5   1  15  -1  24  -1
M  END
>  <UniqueID>  (61) 
60

>  <SMILES>  (61) 
CN(CC[NH+](C)C)c1ccc2cc(C([NH-])=O)n(C(=O)OCC(=O)[O-])c2c1

>  <Energy>  (61) 
82.52713536675058

>  <Genealogy>  (61) 
CN(CC[NH+](C)C)c1ccc2cc(C([NH-])=O)n(C(=O)OCC(=O)[O-])c2c1 (protonated)
CN(CC[NH+](C)C)c1ccc2cc(C([NH-])=O)n(C(=O)OCC(=O)[O-])c2c1 (3D coordinates assigned)
CN(CC[NH+](C)C)c1ccc2cc(C([NH-])=O)n(C(=O)OCC(=O)[O-])c2c1 (optimized conformer: 82.52713536675058 kcal/mol)

>  <smiles>  (61) 
CN(C)CCN(C)c1ccc2cc(C(N)=O)n(C(=O)OCC(=O)O)c2c1

>  <score_type>  (61) 
oracle

>  <origin>  (61) 
adg

>  <m_score__min__energy>  (61) 
-5.2599999999999998

>  <m_primary>  (61) 
energy

$$$$
62:0
     RDKit          3D

 58 60  0  0  0  0  0  0  0  0999 V2000
  139.2620  160.2710  131.9410 C   0  0  0  0  0  0  0  0  0  0  0  0
  139.5090  159.3870  133.0300 O   0  0  0  0  0  0  0  0  0  0  0  0
  139.3010  158.0070  132.9430 C   0  0  0  0  0  0  0  0  0  0  0  0
  139.0960  157.4570  131.8240 O   0  0  0  0  0  0  0  0  0  0  0  0
  139.3280  157.1740  134.1870 C   0  0  0  0  0  0  0  0  0  0  0  0
  139.5550  158.0580  135.4200 C   0  0  0  0  0  0  0  0  0  0  0  0
  140.5820  157.4760  136.2920 N   0  0  0  0  0  0  0  0  0  0  0  0
  140.1650  156.7390  137.4900 C   0  0  0  0  0  0  0  0  0  0  0  0
  141.9850  157.6810  135.9980 C   0  0  0  0  0  0  0  0  0  0  0  0
  142.4720  158.8430  136.0620 O   0  0  0  0  0  0  0  0  0  0  0  0
  142.8630  156.5550  135.5090 C   0  0  0  0  0  0  0  0  0  0  0  0
  142.9170  156.5190  134.0450 N   0  0  0  0  0  0  0  0  0  0  0  0
  142.8600  155.2230  133.3540 C   0  0  0  0  0  0  0  0  0  0  0  0
  141.6640  154.4400  133.7960 C   0  0  0  0  0  0  0  0  0  0  0  0
  140.5750  154.5210  133.1630 O   0  0  0  0  0  0  0  0  0  0  0  0
  141.7520  153.6120  134.9070 O   0  0  0  0  0  0  0  0  0  0  0  0
  143.0240  157.7470  133.2970 C   0  0  0  0  0  0  0  0  0  0  0  0
  142.1550  158.0390  132.4290 O   0  0  0  0  0  0  0  0  0  0  0  0
  144.1530  158.6150  133.4730 N   0  0  0  0  0  0  0  0  0  0  0  0
  144.1280  159.9650  133.6490 C   0  0  0  0  0  0  0  0  0  0  0  0
  142.8980  160.7920  133.7210 C   0  0  0  0  0  0  0  0  0  0  0  0
  141.6280  160.2020  134.0070 N   0  0  0  0  0  0  0  0  0  0  0  0
  142.9620  162.0340  133.5170 O   0  0  0  0  0  0  0  0  0  0  0  0
  145.4300  160.4600  133.7420 C   0  0  0  0  0  0  0  0  0  0  0  0
  146.2490  159.3580  133.6420 C   0  0  0  0  0  0  0  0  0  0  0  0
  147.6340  159.2680  133.6430 C   0  0  0  0  0  0  0  0  0  0  0  0
  148.2160  157.9980  133.5000 C   0  0  0  0  0  0  0  0  0  0  0  0
  147.4050  156.8360  133.3310 C   0  0  0  0  0  0  0  0  0  0  0  0
  147.9730  155.4350  133.1720 C   0  0  0  0  0  0  0  0  0  0  0  0
  146.9580  154.3140  133.0050 C   0  0  0  0  0  0  0  0  0  0  0  0
  147.7430  154.4390  134.3050 C   0  0  0  0  0  0  0  0  0  0  0  0
  145.9970  156.9800  133.3200 C   0  0  0  0  0  0  0  0  0  0  0  0
  145.4520  158.2570  133.4730 C   0  0  0  0  0  0  0  0  0  0  0  0
  138.9850  161.2623  132.3290 H   0  0  0  0  0  0  0  0  0  0  0  0
  140.1701  160.3584  131.3264 H   0  0  0  0  0  0  0  0  0  0  0  0
  138.4401  159.8750  131.3264 H   0  0  0  0  0  0  0  0  0  0  0  0
  138.3680  156.6472  134.2909 H   0  0  0  0  0  0  0  0  0  0  0  0
  140.1519  156.4490  134.1122 H   0  0  0  0  0  0  0  0  0  0  0  0
  139.8816  159.0564  135.0936 H   0  0  0  0  0  0  0  0  0  0  0  0
  138.6124  158.1304  135.9823 H   0  0  0  0  0  0  0  0  0  0  0  0
  140.4778  157.2919  138.3880 H   0  0  0  0  0  0  0  0  0  0  0  0
  139.0706  156.6286  137.4901 H   0  0  0  0  0  0  0  0  0  0  0  0
  140.6339  155.7440  137.4901 H   0  0  0  0  0  0  0  0  0  0  0  0
  143.8806  156.6977  135.9017 H   0  0  0  0  0  0  0  0  0  0  0  0
  142.4384  155.6044  135.8642 H   0  0  0  0  0  0  0  0  0  0  0  0
  142.7985  155.3946  132.2692 H   0  0  0  0  0  0  0  0  0  0  0  0
  143.7672  154.6514  133.5992 H   0  0  0  0  0  0  0  0  0  0  0  0
  140.7780  160.8040  134.0910 H   0  0  0  0  0  0  0  0  0  0  0  0
  141.5170  159.1710  134.1190 H   0  0  0  0  0  0  0  0  0  0  0  0
  145.7366  161.5088  133.8685 H   0  0  0  0  0  0  0  0  0  0  0  0
  148.2586  160.1668  133.7528 H   0  0  0  0  0  0  0  0  0  0  0  0
  149.3113  157.8976  133.5185 H   0  0  0  0  0  0  0  0  0  0  0  0
  148.8603  155.7834  132.6230 H   0  0  0  0  0  0  0  0  0  0  0  0
  145.8825  154.5444  132.9881 H   0  0  0  0  0  0  0  0  0  0  0  0
  146.7987  153.5136  132.2675 H   0  0  0  0  0  0  0  0  0  0  0  0
  147.2349  154.7608  135.2260 H   0  0  0  0  0  0  0  0  0  0  0  0
  148.3853  153.7681  134.8944 H   0  0  0  0  0  0  0  0  0  0  0  0
  145.3447  156.1034  133.1935 H   0  0  0  0  0  0  0  0  0  0  0  0
  1  2  1  0
  2  3  1  0
  3  4  2  0
  3  5  1  0
  5  6  1  0
  6  7  1  0
  7  8  1  0
  7  9  1  0
  9 10  2  0
  9 11  1  0
 11 12  1  0
 12 13  1  0
 13 14  1  0
 14 15  2  0
 14 16  1  0
 12 17  1  0
 17 18  2  0
 17 19  1  0
 19 20  1  0
 20 21  1  0
 21 22  1  0
 21 23  2  0
 20 24  2  0
 24 25  1  0
 25 26  2  0
 26 27  1  0
 27 28  2  0
 28 29  1  0
 29 30  1  0
 30 31  1  0
 28 32  1  0
 32 33  2  0
 33 19  1  0
 33 25  1  0
 31 29  1  0
  1 34  1  0
  1 35  1  0
  1 36  1  0
  5 37  1  0
  5 38  1  0
  6 39  1  0
  6 40  1  0
  8 41  1  0
  8 42  1  0
  8 43  1  0
 11 44  1  0
 11 45  1  0
 13 46  1  0
 13 47  1  0
 22 48  1  0
 22 49  1  0
 24 50  1  0
 26 51  1  0
 27 52  1  0
 29 53  1  0
 30 54  1  0
 30 55  1  0
 31 56  1  0
 31 57  1  0
 32 58  1  0
M  CHG  1  16  -1
M  END
>  <UniqueID>  (62) 
61

>  <SMILES>  (62) 
COC(=O)CCN(C)C(=O)CN(CC(=O)[O-])C(=O)n1c(C(N)=O)cc2ccc(C3CC3)cc21

>  <Energy>  (62) 
358.83806031130587

>  <Genealogy>  (62) 
COC(=O)CCN(C)C(=O)CN(CC(=O)[O-])C(=O)n1c(C(N)=O)cc2ccc(C3CC3)cc21 (protonated)
COC(=O)CCN(C)C(=O)CN(CC(=O)[O-])C(=O)n1c(C(N)=O)cc2ccc(C3CC3)cc21 (3D coordinates assigned)
COC(=O)CCN(C)C(=O)CN(CC(=O)[O-])C(=O)n1c(C(N)=O)cc2ccc(C3CC3)cc21 (nonaromatic ring conformer: 358.83806031130587 kcal/mol)

>  <smiles>  (62) 
COC(=O)CCN(C)C(=O)CN(CC(=O)O)C(=O)n1c(C(N)=O)cc2ccc(C3CC3)cc21

>  <score_type>  (62) 
oracle

>  <origin>  (62) 
adg

>  <m_score__min__energy>  (62) 
-8.0700000000000003

>  <m_primary>  (62) 
energy

$$$$
63:0
     RDKit          3D

 31 32  0  0  0  0  0  0  0  0999 V2000
  144.0600  162.9190  133.7070 C   0  0  0  0  0  0  0  0  0  0  0  0
  144.2280  161.4300  133.7630 C   0  0  0  0  0  0  0  0  0  0  0  0
  143.0890  160.5880  133.8030 C   0  0  0  0  0  0  0  0  0  0  0  0
  143.2320  159.1910  133.8080 C   0  0  0  0  0  0  0  0  0  0  0  0
  144.5210  158.6680  133.7670 C   0  0  0  0  0  0  0  0  0  0  0  0
  144.9450  157.3580  133.7310 C   0  0  0  0  0  0  0  0  0  0  0  0
  146.3360  157.4220  133.6710 C   0  0  0  0  0  0  0  0  0  0  0  0
  147.2110  156.2300  133.6700 C   0  0  0  0  0  0  0  0  0  0  0  0
  148.5670  156.3460  133.2450 N   0  0  0  0  0  0  0  0  0  0  0  0
  146.7690  155.1050  134.0220 O   0  0  0  0  0  0  0  0  0  0  0  0
  146.7550  158.7180  133.6700 N   0  0  0  0  0  0  0  0  0  0  0  0
  148.1060  159.1970  133.5630 C   0  0  0  0  0  0  0  0  0  0  0  0
  148.9130  158.9950  134.5100 O   0  0  0  0  0  0  0  0  0  0  0  0
  148.5260  160.0320  132.3870 C   0  0  0  0  0  0  0  0  0  0  0  0
  149.5790  159.0960  131.2280 P   0  0  1  0  0  0  0  0  0  0  0  0
  148.7430  158.5290  130.1020 O   0  0  0  0  0  0  0  0  0  0  0  0
  150.7420  160.1400  130.5850 O   0  0  0  0  0  0  0  0  0  0  0  0
  150.3630  157.8380  132.0480 O   0  0  0  0  0  0  0  0  0  0  0  0
  145.6330  159.4690  133.7280 C   0  0  0  0  0  0  0  0  0  0  0  0
  145.5190  160.8620  133.7050 C   0  0  0  0  0  0  0  0  0  0  0  0
  144.0146  163.3216  134.7297 H   0  0  0  0  0  0  0  0  0  0  0  0
  144.9136  163.3646  133.1751 H   0  0  0  0  0  0  0  0  0  0  0  0
  143.1286  163.1632  133.1751 H   0  0  0  0  0  0  0  0  0  0  0  0
  142.0833  161.0328  133.8304 H   0  0  0  0  0  0  0  0  0  0  0  0
  142.3528  158.5309  133.8432 H   0  0  0  0  0  0  0  0  0  0  0  0
  144.3190  156.4537  133.7463 H   0  0  0  0  0  0  0  0  0  0  0  0
  149.2200  157.0160  133.7090 H   0  0  0  0  0  0  0  0  0  0  0  0
  147.6263  160.3729  131.8537 H   0  0  0  0  0  0  0  0  0  0  0  0
  149.1100  160.8839  132.7655 H   0  0  0  0  0  0  0  0  0  0  0  0
  149.9680  157.8340  132.9560 H   0  0  0  0  0  0  0  0  0  0  0  0
  146.4131  161.4998  133.6432 H   0  0  0  0  0  0  0  0  0  0  0  0
  1  2  1  0
  2  3  2  0
  3  4  1  0
  4  5  2  0
  5  6  1  0
  6  7  2  0
  7  8  1  0
  8  9  1  0
  8 10  2  0
  7 11  1  0
 11 12  1  0
 12 13  2  0
 12 14  1  0
 14 15  1  0
 15 16  2  0
 15 17  1  6
 15 18  1  0
 11 19  1  0
 19 20  2  0
 20  2  1  0
 19  5  1  0
  1 21  1  0
  1 22  1  0
  1 23  1  0
  3 24  1  0
  4 25  1  0
  6 26  1  0
  9 27  1  0
 14 28  1  0
 14 29  1  0
 18 30  1  0
 20 31  1  0
M  CHG  2   9  -1  17  -1
M  END
>  <UniqueID>  (63) 
62

>  <SMILES>  (63) 
Cc1ccc2cc(C([NH-])=O)n(C(=O)C[P@@](=O)([O-])O)c2c1

>  <Energy>  (63) 
65.2196287692673

>  <Genealogy>  (63) 
Cc1ccc2cc(C([NH-])=O)n(C(=O)CP(=O)([O-])O)c2c1 (protonated)
Cc1ccc2cc(C([NH-])=O)n(C(=O)C[P@@](=O)([O-])O)c2c1 (chirality)
Cc1ccc2cc(C([NH-])=O)n(C(=O)C[P@@](=O)([O-])O)c2c1 (3D coordinates assigned)
Cc1ccc2cc(C([NH-])=O)n(C(=O)C[P@@](=O)([O-])O)c2c1 (optimized conformer: 65.2196287692673 kcal/mol)

>  <smiles>  (63) 
Cc1ccc2cc(C(N)=O)n(C(=O)CP(=O)(O)O)c2c1

>  <score_type>  (63) 
oracle

>  <origin>  (63) 
adg

>  <m_score__min__energy>  (63) 
-5.7999999999999998

>  <m_primary>  (63) 
energy

$$$$
64:0
     RDKit          3D

 57 58  0  0  0  0  0  0  0  0999 V2000
  139.8530  151.3460  132.2830 C   0  0  0  0  0  0  0  0  0  0  0  0
  141.0990  150.5950  132.4570 N   0  0  0  0  0  0  0  0  0  0  0  0
  142.2300  151.2120  133.1700 C   0  0  0  0  0  0  0  0  0  0  0  0
  142.4960  152.6550  132.7030 C   0  0  0  0  0  0  0  0  0  0  0  0
  143.4100  153.4540  133.6460 C   0  0  0  0  0  0  0  0  0  0  0  0
  143.1260  154.9370  133.6560 C   0  0  0  0  0  0  0  0  0  0  0  0
  141.8030  155.4120  133.8450 C   0  0  0  0  0  0  0  0  0  0  0  0
  141.5360  156.7900  133.8950 C   0  0  0  0  0  0  0  0  0  0  0  0
  142.6110  157.6670  133.7930 C   0  0  0  0  0  0  0  0  0  0  0  0
  142.6370  159.0420  133.8180 C   0  0  0  0  0  0  0  0  0  0  0  0
  143.9810  159.3890  133.6970 C   0  0  0  0  0  0  0  0  0  0  0  0
  144.4720  160.7800  133.7590 C   0  0  0  0  0  0  0  0  0  0  0  0
  145.8660  161.0340  133.9210 N   0  0  0  0  0  0  0  0  0  0  0  0
  143.6780  161.7500  133.6380 O   0  0  0  0  0  0  0  0  0  0  0  0
  144.7560  158.2700  133.5940 N   0  0  0  0  0  0  0  0  0  0  0  0
  146.1720  158.1990  133.3710 C   0  0  0  0  0  0  0  0  0  0  0  0
  146.8910  157.4820  134.1170 O   0  0  0  0  0  0  0  0  0  0  0  0
  146.7590  158.9120  132.2810 N   0  0  0  0  0  0  0  0  0  0  0  0
  148.2460  159.7830  132.4240 S   0  0  0  0  0  0  0  0  0  0  0  0
  149.5620  158.7780  131.7780 C   0  0  0  0  0  0  0  0  0  0  0  0
  148.5230  160.0830  133.8700 O   0  0  0  0  0  0  0  0  0  0  0  0
  148.1610  161.0640  131.6430 O   0  0  0  0  0  0  0  0  0  0  0  0
  143.9010  157.2250  133.6530 C   0  0  0  0  0  0  0  0  0  0  0  0
  144.1920  155.8590  133.5620 C   0  0  0  0  0  0  0  0  0  0  0  0
  141.1250  149.2080  132.0680 C   0  0  0  0  0  0  0  0  0  0  0  0
  141.4760  148.3250  132.8970 O   0  0  0  0  0  0  0  0  0  0  0  0
  140.7420  148.8520  130.7640 O   0  0  0  0  0  0  0  0  0  0  0  0
  139.4570  148.3590  130.3560 C   0  0  0  0  0  0  0  0  0  0  0  0
  139.1100  149.0460  129.0260 C   0  0  0  0  0  0  0  0  0  0  0  0
  138.3820  148.7180  131.3980 C   0  0  0  0  0  0  0  0  0  0  0  0
  139.5070  146.8390  130.1290 C   0  0  0  0  0  0  0  0  0  0  0  0
  139.4357  151.5975  133.2692 H   0  0  0  0  0  0  0  0  0  0  0  0
  140.0576  152.2714  131.7246 H   0  0  0  0  0  0  0  0  0  0  0  0
  139.1303  150.7329  131.7246 H   0  0  0  0  0  0  0  0  0  0  0  0
  142.0055  151.2241  134.2468 H   0  0  0  0  0  0  0  0  0  0  0  0
  143.1295  150.6167  132.9546 H   0  0  0  0  0  0  0  0  0  0  0  0
  142.9698  152.6167  131.7110 H   0  0  0  0  0  0  0  0  0  0  0  0
  141.5244  153.1704  132.6860 H   0  0  0  0  0  0  0  0  0  0  0  0
  143.2770  153.0683  134.6675 H   0  0  0  0  0  0  0  0  0  0  0  0
  144.4393  153.3268  133.2794 H   0  0  0  0  0  0  0  0  0  0  0  0
  140.9772  154.6935  133.9536 H   0  0  0  0  0  0  0  0  0  0  0  0
  140.5082  157.1643  134.0113 H   0  0  0  0  0  0  0  0  0  0  0  0
  141.7786  159.7233  133.9133 H   0  0  0  0  0  0  0  0  0  0  0  0
  146.5300  160.9110  133.1250 H   0  0  0  0  0  0  0  0  0  0  0  0
  150.1330  158.3419  132.6109 H   0  0  0  0  0  0  0  0  0  0  0  0
  149.1386  157.9713  131.1617 H   0  0  0  0  0  0  0  0  0  0  0  0
  150.2288  159.3989  131.1617 H   0  0  0  0  0  0  0  0  0  0  0  0
  145.2261  155.5117  133.4206 H   0  0  0  0  0  0  0  0  0  0  0  0
  138.6225  150.0112  129.2281 H   0  0  0  0  0  0  0  0  0  0  0  0
  140.0312  149.2142  128.4489 H   0  0  0  0  0  0  0  0  0  0  0  0
  138.4279  148.4044  128.4489 H   0  0  0  0  0  0  0  0  0  0  0  0
  138.7918  148.5812  132.4096 H   0  0  0  0  0  0  0  0  0  0  0  0
  138.0776  149.7666  131.2644 H   0  0  0  0  0  0  0  0  0  0  0  0
  137.5086  148.0628  131.2644 H   0  0  0  0  0  0  0  0  0  0  0  0
  139.5240  146.3235  131.1006 H   0  0  0  0  0  0  0  0  0  0  0  0
  138.6188  146.5235  129.5620 H   0  0  0  0  0  0  0  0  0  0  0  0
  140.4141  146.5826  129.5620 H   0  0  0  0  0  0  0  0  0  0  0  0
  1  2  1  0
  2  3  1  0
  3  4  1  0
  4  5  1  0
  5  6  1  0
  6  7  2  0
  7  8  1  0
  8  9  2  0
  9 10  1  0
 10 11  2  0
 11 12  1  0
 12 13  1  0
 12 14  2  0
 11 15  1  0
 15 16  1  0
 16 17  2  0
 16 18  1  0
 18 19  1  0
 19 20  1  0
 19 21  2  0
 19 22  2  0
 15 23  1  0
 23 24  2  0
  2 25  1  0
 25 26  2  0
 25 27  1  0
 27 28  1  0
 28 29  1  0
 28 30  1  0
 28 31  1  0
 24  6  1  0
 23  9  1  0
  1 32  1  0
  1 33  1  0
  1 34  1  0
  3 35  1  0
  3 36  1  0
  4 37  1  0
  4 38  1  0
  5 39  1  0
  5 40  1  0
  7 41  1  0
  8 42  1  0
 10 43  1  0
 13 44  1  0
 20 45  1  0
 20 46  1  0
 20 47  1  0
 24 48  1  0
 29 49  1  0
 29 50  1  0
 29 51  1  0
 30 52  1  0
 30 53  1  0
 30 54  1  0
 31 55  1  0
 31 56  1  0
 31 57  1  0
M  CHG  2  13  -1  18  -1
M  END
>  <UniqueID>  (64) 
63

>  <SMILES>  (64) 
CN(CCCc1ccc2cc(C([NH-])=O)n(C(=O)[N-]S(C)(=O)=O)c2c1)C(=O)OC(C)(C)C

>  <Energy>  (64) 
78.178751935227

>  <Genealogy>  (64) 
CN(CCCc1ccc2cc(C([NH-])=O)n(C(=O)[N-]S(C)(=O)=O)c2c1)C(=O)OC(C)(C)C (protonated)
CN(CCCc1ccc2cc(C([NH-])=O)n(C(=O)[N-]S(C)(=O)=O)c2c1)C(=O)OC(C)(C)C (3D coordinates assigned)
CN(CCCc1ccc2cc(C([NH-])=O)n(C(=O)[N-]S(C)(=O)=O)c2c1)C(=O)OC(C)(C)C (optimized conformer: 78.178751935227 kcal/mol)

>  <smiles>  (64) 
CN(CCCc1ccc2cc(C(N)=O)n(C(=O)NS(C)(=O)=O)c2c1)C(=O)OC(C)(C)C

>  <score_type>  (64) 
oracle

>  <origin>  (64) 
adg

>  <m_score__min__energy>  (64) 
-8.4499999999999993

>  <m_primary>  (64) 
energy

$$$$
65:0
     RDKit          3D

 44 45  0  0  0  0  0  0  0  0999 V2000
  148.1140  155.2490  132.6210 C   0  0  0  0  0  0  0  0  0  0  0  0
  147.8070  156.6940  132.8850 C   0  0  0  0  0  0  0  0  0  0  0  0
  148.8480  157.6540  132.8780 C   0  0  0  0  0  0  0  0  0  0  0  0
  148.5690  159.0130  133.0970 C   0  0  0  0  0  0  0  0  0  0  0  0
  147.2420  159.3830  133.2980 C   0  0  0  0  0  0  0  0  0  0  0  0
  146.6960  160.6210  133.5490 C   0  0  0  0  0  0  0  0  0  0  0  0
  145.3240  160.4030  133.6630 C   0  0  0  0  0  0  0  0  0  0  0  0
  144.3410  161.4920  133.8400 C   0  0  0  0  0  0  0  0  0  0  0  0
  142.9430  161.2470  133.7150 N   0  0  0  0  0  0  0  0  0  0  0  0
  144.7430  162.6660  134.0570 O   0  0  0  0  0  0  0  0  0  0  0  0
  145.0350  159.0810  133.5010 N   0  0  0  0  0  0  0  0  0  0  0  0
  143.7580  158.4340  133.6170 C   0  0  0  0  0  0  0  0  0  0  0  0
  143.2320  157.8930  132.6070 O   0  0  0  0  0  0  0  0  0  0  0  0
  143.0950  158.4370  134.8450 O   0  0  0  0  0  0  0  0  0  0  0  0
  141.4000  158.6880  134.9820 P   0  0  0  0  0  0  0  0  0  0  0  0
  141.1670  160.0900  135.5030 O   0  0  0  0  0  0  0  0  0  0  0  0
  140.7080  158.5030  133.3600 N   0  0  0  0  0  0  0  0  0  0  0  0
  139.4750  157.7100  133.4250 C   0  0  0  0  0  0  0  0  0  0  0  0
  140.4590  159.8100  132.7370 C   0  0  0  0  0  0  0  0  0  0  0  0
  140.7410  157.4950  136.1190 N   0  0  0  0  0  0  0  0  0  0  0  0
  141.0160  157.9030  137.5040 C   0  0  0  0  0  0  0  0  0  0  0  0
  141.3610  156.1890  135.8560 C   0  0  0  0  0  0  0  0  0  0  0  0
  146.2190  158.4700  133.2760 C   0  0  0  0  0  0  0  0  0  0  0  0
  146.4700  157.1060  133.0790 C   0  0  0  0  0  0  0  0  0  0  0  0
  148.2269  154.7175  133.5774 H   0  0  0  0  0  0  0  0  0  0  0  0
  147.2915  154.7985  132.0460 H   0  0  0  0  0  0  0  0  0  0  0  0
  149.0486  155.1718  132.0460 H   0  0  0  0  0  0  0  0  0  0  0  0
  149.8847  157.3324  132.6994 H   0  0  0  0  0  0  0  0  0  0  0  0
  149.3744  159.7621  133.1093 H   0  0  0  0  0  0  0  0  0  0  0  0
  147.2290  161.5789  133.6403 H   0  0  0  0  0  0  0  0  0  0  0  0
  142.5510  160.2880  133.8470 H   0  0  0  0  0  0  0  0  0  0  0  0
  139.2056  157.5367  134.4773 H   0  0  0  0  0  0  0  0  0  0  0  0
  138.6618  158.2548  132.9232 H   0  0  0  0  0  0  0  0  0  0  0  0
  139.6334  156.7440  132.9232 H   0  0  0  0  0  0  0  0  0  0  0  0
  140.3146  160.5682  133.5207 H   0  0  0  0  0  0  0  0  0  0  0  0
  141.3203  160.0883  132.1119 H   0  0  0  0  0  0  0  0  0  0  0  0
  139.5557  159.7521  132.1119 H   0  0  0  0  0  0  0  0  0  0  0  0
  140.5384  157.1944  138.1967 H   0  0  0  0  0  0  0  0  0  0  0  0
  142.1025  157.9080  137.6759 H   0  0  0  0  0  0  0  0  0  0  0  0
  140.6130  158.9120  137.6759 H   0  0  0  0  0  0  0  0  0  0  0  0
  141.5953  155.6954  136.8107 H   0  0  0  0  0  0  0  0  0  0  0  0
  140.6645  155.5618  135.2802 H   0  0  0  0  0  0  0  0  0  0  0  0
  142.2873  156.3321  135.2802 H   0  0  0  0  0  0  0  0  0  0  0  0
  145.6478  156.3753  133.0755 H   0  0  0  0  0  0  0  0  0  0  0  0
  1  2  1  0
  2  3  2  0
  3  4  1  0
  4  5  2  0
  5  6  1  0
  6  7  2  0
  7  8  1  0
  8  9  1  0
  8 10  2  0
  7 11  1  0
 11 12  1  0
 12 13  2  0
 12 14  1  0
 14 15  1  0
 15 16  2  0
 15 17  1  0
 17 18  1  0
 17 19  1  0
 15 20  1  0
 20 21  1  0
 20 22  1  0
 11 23  1  0
 23 24  2  0
 24  2  1  0
 23  5  1  0
  1 25  1  0
  1 26  1  0
  1 27  1  0
  3 28  1  0
  4 29  1  0
  6 30  1  0
  9 31  1  0
 18 32  1  0
 18 33  1  0
 18 34  1  0
 19 35  1  0
 19 36  1  0
 19 37  1  0
 21 38  1  0
 21 39  1  0
 21 40  1  0
 22 41  1  0
 22 42  1  0
 22 43  1  0
 24 44  1  0
M  CHG  1   9  -1
M  END
>  <UniqueID>  (65) 
64

>  <SMILES>  (65) 
Cc1ccc2cc(C([NH-])=O)n(C(=O)OP(=O)(N(C)C)N(C)C)c2c1

>  <Energy>  (65) 
75.4519555495603

>  <Genealogy>  (65) 
Cc1ccc2cc(C([NH-])=O)n(C(=O)OP(=O)(N(C)C)N(C)C)c2c1 (protonated)
Cc1ccc2cc(C([NH-])=O)n(C(=O)OP(=O)(N(C)C)N(C)C)c2c1 (3D coordinates assigned)
Cc1ccc2cc(C([NH-])=O)n(C(=O)OP(=O)(N(C)C)N(C)C)c2c1 (optimized conformer: 75.4519555495603 kcal/mol)

>  <smiles>  (65) 
Cc1ccc2cc(C(N)=O)n(C(=O)OP(=O)(N(C)C)N(C)C)c2c1

>  <score_type>  (65) 
oracle

>  <origin>  (65) 
adg

>  <m_score__min__energy>  (65) 
-6.9000000000000004

>  <m_primary>  (65) 
energy

$$$$
66:0
     RDKit          3D

 40 41  0  0  0  0  0  0  0  0999 V2000
  149.2140  156.7490  132.6090 C   0  0  0  0  0  0  0  0  0  0  0  0
  148.1460  157.7680  132.8720 C   0  0  0  0  0  0  0  0  0  0  0  0
  148.4410  159.1490  132.7610 C   0  0  0  0  0  0  0  0  0  0  0  0
  147.4390  160.1140  132.9640 C   0  0  0  0  0  0  0  0  0  0  0  0
  146.1570  159.6680  133.2700 C   0  0  0  0  0  0  0  0  0  0  0  0
  145.0010  160.3780  133.5010 C   0  0  0  0  0  0  0  0  0  0  0  0
  144.0190  159.4190  133.7440 C   0  0  0  0  0  0  0  0  0  0  0  0
  142.6180  159.7400  134.0870 C   0  0  0  0  0  0  0  0  0  0  0  0
  141.6950  160.0850  133.0570 N   0  0  0  0  0  0  0  0  0  0  0  0
  142.2310  159.7320  135.2860 O   0  0  0  0  0  0  0  0  0  0  0  0
  144.5520  158.1670  133.6760 N   0  0  0  0  0  0  0  0  0  0  0  0
  143.8600  156.9130  133.7930 C   0  0  0  0  0  0  0  0  0  0  0  0
  143.2770  156.6300  134.8730 O   0  0  0  0  0  0  0  0  0  0  0  0
  143.7480  155.9710  132.6610 C   0  0  0  0  0  0  0  0  0  0  0  0
  144.1910  154.7040  132.6540 C   0  0  0  0  0  0  0  0  0  0  0  0
  144.8250  154.0180  133.8320 C   0  0  0  0  0  0  0  0  0  0  0  0
  146.0600  153.3380  133.4220 N   0  0  0  0  0  0  0  0  0  0  0  0
  146.0290  152.2870  132.4420 C   0  0  0  0  0  0  0  0  0  0  0  0
  145.0140  151.5520  132.3130 O   0  0  0  0  0  0  0  0  0  0  0  0
  147.3460  153.7320  134.0070 C   0  0  0  0  0  0  0  0  0  0  0  0
  147.1400  154.2480  135.3940 C   0  0  0  0  0  0  0  0  0  0  0  0
  147.1310  155.4880  135.6130 O   0  0  0  0  0  0  0  0  0  0  0  0
  147.0030  153.3600  136.4540 O   0  0  0  0  0  0  0  0  0  0  0  0
  145.8560  158.3350  133.3740 C   0  0  0  0  0  0  0  0  0  0  0  0
  146.8290  157.3520  133.1640 C   0  0  0  0  0  0  0  0  0  0  0  0
  149.6068  156.3742  133.5657 H   0  0  0  0  0  0  0  0  0  0  0  0
  148.7894  155.9128  132.0342 H   0  0  0  0  0  0  0  0  0  0  0  0
  150.0294  157.2124  132.0342 H   0  0  0  0  0  0  0  0  0  0  0  0
  149.4638  159.4694  132.5136 H   0  0  0  0  0  0  0  0  0  0  0  0
  147.6616  161.1882  132.8834 H   0  0  0  0  0  0  0  0  0  0  0  0
  144.8780  161.4711  133.4951 H   0  0  0  0  0  0  0  0  0  0  0  0
  141.8420  159.7640  132.0750 H   0  0  0  0  0  0  0  0  0  0  0  0
  143.2603  156.3389  131.7462 H   0  0  0  0  0  0  0  0  0  0  0  0
  144.0828  154.1283  131.7229 H   0  0  0  0  0  0  0  0  0  0  0  0
  145.0615  154.7658  134.6033 H   0  0  0  0  0  0  0  0  0  0  0  0
  144.1223  153.2725  134.2326 H   0  0  0  0  0  0  0  0  0  0  0  0
  146.9037  152.1222  131.7957 H   0  0  0  0  0  0  0  0  0  0  0  0
  148.0145  152.8590  134.0387 H   0  0  0  0  0  0  0  0  0  0  0  0
  147.7956  154.5241  133.3902 H   0  0  0  0  0  0  0  0  0  0  0  0
  146.5746  156.2835  133.2248 H   0  0  0  0  0  0  0  0  0  0  0  0
  1  2  1  0
  2  3  2  0
  3  4  1  0
  4  5  2  0
  5  6  1  0
  6  7  2  0
  7  8  1  0
  8  9  1  0
  8 10  2  0
  7 11  1  0
 11 12  1  0
 12 13  2  0
 12 14  1  0
 14 15  2  3
 15 16  1  0
 16 17  1  0
 17 18  1  0
 18 19  2  0
 17 20  1  0
 20 21  1  0
 21 22  2  0
 21 23  1  0
 11 24  1  0
 24 25  2  0
 25  2  1  0
 24  5  1  0
  1 26  1  0
  1 27  1  0
  1 28  1  0
  3 29  1  0
  4 30  1  0
  6 31  1  0
  9 32  1  0
 14 33  1  0
 15 34  1  0
 16 35  1  0
 16 36  1  0
 18 37  1  0
 20 38  1  0
 20 39  1  0
 25 40  1  0
M  CHG  2   9  -1  23  -1
M  END
>  <UniqueID>  (66) 
65

>  <SMILES>  (66) 
Cc1ccc2cc(C([NH-])=O)n(C(=O)C=CCN(C=O)CC(=O)[O-])c2c1

>  <Energy>  (66) 
75.44523201426428

>  <Genealogy>  (66) 
Cc1ccc2cc(C([NH-])=O)n(C(=O)C=CCN(C=O)CC(=O)[O-])c2c1 (protonated)
Cc1ccc2cc(C([NH-])=O)n(C(=O)C=CCN(C=O)CC(=O)[O-])c2c1 (3D coordinates assigned)
Cc1ccc2cc(C([NH-])=O)n(C(=O)C=CCN(C=O)CC(=O)[O-])c2c1 (optimized conformer: 75.44523201426428 kcal/mol)

>  <smiles>  (66) 
Cc1ccc2cc(C(N)=O)n(C(=O)C=CCN(C=O)CC(=O)O)c2c1

>  <score_type>  (66) 
oracle

>  <origin>  (66) 
adg

>  <m_score__min__energy>  (66) 
-7.1799999999999997

>  <m_primary>  (66) 
energy

$$$$
67:0
     RDKit          3D

 35 37  0  0  0  0  0  0  0  0999 V2000
  142.9620  160.7930  133.3680 N   0  0  0  0  0  0  0  0  0  0  0  0
  144.3310  160.9890  133.7150 C   0  0  0  0  0  0  0  0  0  0  0  0
  144.6860  162.0870  134.2170 O   0  0  0  0  0  0  0  0  0  0  0  0
  145.3100  159.9030  133.4900 C   0  0  0  0  0  0  0  0  0  0  0  0
  146.6790  160.1180  133.3470 C   0  0  0  0  0  0  0  0  0  0  0  0
  147.2260  158.8710  133.1460 C   0  0  0  0  0  0  0  0  0  0  0  0
  148.5530  158.4920  132.9800 C   0  0  0  0  0  0  0  0  0  0  0  0
  148.8360  157.1240  132.8420 C   0  0  0  0  0  0  0  0  0  0  0  0
  147.7980  156.1550  132.8850 C   0  0  0  0  0  0  0  0  0  0  0  0
  148.1190  154.7100  132.7560 C   0  0  0  0  0  0  0  0  0  0  0  0
  149.3570  154.1540  132.4330 C   0  0  0  0  0  0  0  0  0  0  0  0
  149.3480  152.7540  132.3920 C   0  0  0  0  0  0  0  0  0  0  0  0
  148.1140  152.1920  132.6800 C   0  0  0  0  0  0  0  0  0  0  0  0
  147.0350  153.4400  132.9890 S   0  0  0  0  0  0  0  0  0  0  0  0
  146.4600  156.5850  133.0660 C   0  0  0  0  0  0  0  0  0  0  0  0
  146.2060  157.9570  133.1690 C   0  0  0  0  0  0  0  0  0  0  0  0
  145.0220  158.5770  133.3680 N   0  0  0  0  0  0  0  0  0  0  0  0
  143.7360  157.9440  133.4670 C   0  0  0  0  0  0  0  0  0  0  0  0
  142.9990  157.8610  132.4470 O   0  0  0  0  0  0  0  0  0  0  0  0
  143.2730  157.3410  134.7610 C   0  0  0  0  0  0  0  0  0  0  0  0
  141.6190  157.9590  135.1940 P   0  0  1  0  0  0  0  0  0  0  0  0
  140.6490  156.8000  135.2120 O   0  0  0  0  0  0  0  0  0  0  0  0
  141.6540  158.6790  136.7250 O   0  0  0  0  0  0  0  0  0  0  0  0
  141.1070  159.0880  134.0430 O   0  0  0  0  0  0  0  0  0  0  0  0
  142.6710  159.9950  132.7590 H   0  0  0  0  0  0  0  0  0  0  0  0
  147.2103  161.0804  133.3864 H   0  0  0  0  0  0  0  0  0  0  0  0
  149.3575  159.2418  132.9574 H   0  0  0  0  0  0  0  0  0  0  0  0
  149.8766  156.7976  132.6985 H   0  0  0  0  0  0  0  0  0  0  0  0
  150.2542  154.7572  132.2300 H   0  0  0  0  0  0  0  0  0  0  0  0
  150.2391  152.1550  132.1530 H   0  0  0  0  0  0  0  0  0  0  0  0
  147.8825  151.1169  132.7021 H   0  0  0  0  0  0  0  0  0  0  0  0
  145.6386  155.8557  133.1243 H   0  0  0  0  0  0  0  0  0  0  0  0
  143.2351  156.2465  134.6575 H   0  0  0  0  0  0  0  0  0  0  0  0
  143.9780  157.6218  135.5573 H   0  0  0  0  0  0  0  0  0  0  0  0
  141.9330  159.3670  133.5740 H   0  0  0  0  0  0  0  0  0  0  0  0
  1  2  1  0
  2  3  2  0
  2  4  1  0
  4  5  2  0
  5  6  1  0
  6  7  2  0
  7  8  1  0
  8  9  2  0
  9 10  1  0
 10 11  2  0
 11 12  1  0
 12 13  2  0
 13 14  1  0
  9 15  1  0
 15 16  2  0
 16 17  1  0
 17 18  1  0
 18 19  2  0
 18 20  1  0
 20 21  1  0
 21 22  2  0
 21 23  1  1
 21 24  1  0
 17  4  1  0
 16  6  1  0
 14 10  1  0
  1 25  1  0
  5 26  1  0
  7 27  1  0
  8 28  1  0
 11 29  1  0
 12 30  1  0
 13 31  1  0
 15 32  1  0
 20 33  1  0
 20 34  1  0
 24 35  1  0
M  CHG  2   1  -1  23  -1
M  END
>  <UniqueID>  (67) 
66

>  <SMILES>  (67) 
[NH-]C(=O)c1cc2ccc(-c3cccs3)cc2n1C(=O)C[P@@](=O)([O-])O

>  <Energy>  (67) 
98.67721979675875

>  <Genealogy>  (67) 
[NH-]C(=O)c1cc2ccc(-c3cccs3)cc2n1C(=O)CP(=O)([O-])O (protonated)
[NH-]C(=O)c1cc2ccc(-c3cccs3)cc2n1C(=O)C[P@@](=O)([O-])O (chirality)
[NH-]C(=O)c1cc2ccc(-c3cccs3)cc2n1C(=O)C[P@@](=O)([O-])O (3D coordinates assigned)
[NH-]C(=O)c1cc2ccc(-c3cccs3)cc2n1C(=O)C[P@@](=O)([O-])O (optimized conformer: 98.67721979675875 kcal/mol)

>  <smiles>  (67) 
NC(=O)c1cc2ccc(-c3cccs3)cc2n1C(=O)CP(=O)(O)O

>  <score_type>  (67) 
oracle

>  <origin>  (67) 
adg

>  <m_score__min__energy>  (67) 
-7.0700000000000003

>  <m_primary>  (67) 
energy

$$$$
68:0
     RDKit          3D

 49 50  0  0  0  0  0  0  0  0999 V2000
  144.9240  152.8030  132.2670 C   0  0  0  0  0  0  0  0  0  0  0  0
  144.8710  154.1380  132.8670 N   0  0  0  0  0  0  0  0  0  0  0  0
  146.1150  154.7810  133.3210 C   0  0  0  0  0  0  0  0  0  0  0  0
  147.0060  153.7580  134.0240 C   0  0  0  0  0  0  0  0  0  0  0  0
  147.1440  154.1310  135.8000 P   0  0  2  0  0  0  0  0  0  0  0  0
  147.6610  155.5430  135.9830 O   0  0  0  0  0  0  0  0  0  0  0  0
  148.2270  153.0470  136.5090 O   0  0  0  0  0  0  0  0  0  0  0  0
  145.6260  153.9680  136.5400 O   0  0  0  0  0  0  0  0  0  0  0  0
  143.6290  154.8670  132.8200 C   0  0  0  0  0  0  0  0  0  0  0  0
  143.6220  156.0580  132.4010 O   0  0  0  0  0  0  0  0  0  0  0  0
  142.3260  154.2330  133.2560 C   0  0  2  0  0  0  0  0  0  0  0  0
  141.2120  155.1760  133.1170 N   0  0  0  0  0  0  0  0  0  0  0  0
  142.4320  153.7390  134.7070 C   0  0  0  0  0  0  0  0  0  0  0  0
  142.7760  154.8660  135.6340 C   0  0  0  0  0  0  0  0  0  0  0  0
  143.8720  155.4760  135.5040 O   0  0  0  0  0  0  0  0  0  0  0  0
  141.8230  155.3150  136.6060 N   0  0  0  0  0  0  0  0  0  0  0  0
  141.2210  156.5350  136.6870 C   0  0  0  0  0  0  0  0  0  0  0  0
  141.3530  157.6320  135.7050 C   0  0  0  0  0  0  0  0  0  0  0  0
  141.8180  157.3800  134.3850 N   0  0  0  0  0  0  0  0  0  0  0  0
  141.0240  158.8050  136.0290 O   0  0  0  0  0  0  0  0  0  0  0  0
  140.3970  156.5920  137.8100 C   0  0  0  0  0  0  0  0  0  0  0  0
  140.5160  155.3590  138.4140 C   0  0  0  0  0  0  0  0  0  0  0  0
  139.9140  154.8580  139.5630 C   0  0  0  0  0  0  0  0  0  0  0  0
  140.2330  153.5460  139.9580 C   0  0  0  0  0  0  0  0  0  0  0  0
  141.1590  152.7690  139.2130 C   0  0  0  0  0  0  0  0  0  0  0  0
  141.4620  151.3480  139.6150 C   0  0  0  0  0  0  0  0  0  0  0  0
  140.7800  151.0510  140.7780 F   0  0  0  0  0  0  0  0  0  0  0  0
  142.8190  151.1750  139.8290 F   0  0  0  0  0  0  0  0  0  0  0  0
  141.0650  150.4700  138.6210 F   0  0  0  0  0  0  0  0  0  0  0  0
  141.7280  153.3070  138.0360 C   0  0  0  0  0  0  0  0  0  0  0  0
  141.3860  154.6100  137.6660 C   0  0  0  0  0  0  0  0  0  0  0  0
  144.9541  152.0442  133.0629 H   0  0  0  0  0  0  0  0  0  0  0  0
  144.0314  152.6454  131.6438 H   0  0  0  0  0  0  0  0  0  0  0  0
  145.8263  152.7167  131.6438 H   0  0  0  0  0  0  0  0  0  0  0  0
  146.6495  155.1938  132.4527 H   0  0  0  0  0  0  0  0  0  0  0  0
  145.8675  155.5887  134.0255 H   0  0  0  0  0  0  0  0  0  0  0  0
  146.5713  152.7553  133.8991 H   0  0  0  0  0  0  0  0  0  0  0  0
  148.0100  153.7993  133.5766 H   0  0  0  0  0  0  0  0  0  0  0  0
  145.4190  154.8700  136.8970 H   0  0  0  0  0  0  0  0  0  0  0  0
  142.1278  153.3708  132.6023 H   0  0  0  0  0  0  0  0  0  0  0  0
  140.8730  155.4720  134.0630 H   0  0  0  0  0  0  0  0  0  0  0  0
  141.5610  156.0310  132.6280 H   0  0  0  0  0  0  0  0  0  0  0  0
  141.4680  153.3049  135.0106 H   0  0  0  0  0  0  0  0  0  0  0  0
  143.2294  152.9833  134.7628 H   0  0  0  0  0  0  0  0  0  0  0  0
  142.4630  156.5880  134.1750 H   0  0  0  0  0  0  0  0  0  0  0  0
  139.7822  157.4411  138.1433 H   0  0  0  0  0  0  0  0  0  0  0  0
  139.2093  155.4694  140.1458 H   0  0  0  0  0  0  0  0  0  0  0  0
  139.7599  153.1174  140.8538 H   0  0  0  0  0  0  0  0  0  0  0  0
  142.4241  152.7132  137.4254 H   0  0  0  0  0  0  0  0  0  0  0  0
  1  2  1  0
  2  3  1  0
  3  4  1  0
  4  5  1  0
  5  6  2  0
  5  7  1  1
  5  8  1  0
  2  9  1  0
  9 10  2  0
  9 11  1  0
 11 12  1  0
 11 13  1  0
 13 14  1  0
 14 15  2  0
 14 16  1  0
 16 17  1  0
 17 18  1  0
 18 19  1  0
 18 20  2  0
 17 21  2  0
 21 22  1  0
 22 23  2  0
 23 24  1  0
 24 25  2  0
 25 26  1  0
 26 27  1  0
 26 28  1  0
 26 29  1  0
 25 30  1  0
 30 31  2  0
 31 16  1  0
 31 22  1  0
  1 32  1  0
  1 33  1  0
  1 34  1  0
  3 35  1  0
  3 36  1  0
  4 37  1  0
  4 38  1  0
  8 39  1  0
 11 40  1  6
 12 41  1  0
 12 42  1  0
 13 43  1  0
 13 44  1  0
 19 45  1  0
 21 46  1  0
 23 47  1  0
 24 48  1  0
 30 49  1  0
M  CHG  2   7  -1  19  -1
M  END
>  <UniqueID>  (68) 
67

>  <SMILES>  (68) 
CN(CC[P@](=O)([O-])O)C(=O)[C@H](N)CC(=O)n1c(C([NH-])=O)cc2ccc(C(F)(F)F)cc21

>  <Energy>  (68) 
77.62031575323542

>  <Genealogy>  (68) 
CN(CCP(=O)([O-])O)C(=O)C(N)CC(=O)n1c(C([NH-])=O)cc2ccc(C(F)(F)F)cc21 (protonated)
CN(CC[P@](=O)([O-])O)C(=O)[C@H](N)CC(=O)n1c(C([NH-])=O)cc2ccc(C(F)(F)F)cc21 (chirality)
CN(CC[P@](=O)([O-])O)C(=O)[C@H](N)CC(=O)n1c(C([NH-])=O)cc2ccc(C(F)(F)F)cc21 (3D coordinates assigned)
CN(CC[P@](=O)([O-])O)C(=O)[C@H](N)CC(=O)n1c(C([NH-])=O)cc2ccc(C(F)(F)F)cc21 (optimized conformer: 77.62031575323542 kcal/mol)

>  <smiles>  (68) 
CN(CCP(=O)(O)O)C(=O)C(N)CC(=O)n1c(C(N)=O)cc2ccc(C(F)(F)F)cc21

>  <score_type>  (68) 
oracle

>  <origin>  (68) 
adg

>  <m_score__min__energy>  (68) 
-5.8099999999999996

>  <m_primary>  (68) 
energy

$$$$
69:0
     RDKit          3D

 50 52  0  0  0  0  0  0  0  0999 V2000
  146.5410  156.3110  132.7050 N   0  0  0  0  0  0  0  0  0  0  0  0
  145.9740  157.0980  133.7500 C   0  0  0  0  0  0  0  0  0  0  0  0
  146.6200  157.2610  134.8180 O   0  0  0  0  0  0  0  0  0  0  0  0
  144.6320  157.6930  133.5790 C   0  0  0  0  0  0  0  0  0  0  0  0
  144.3610  159.0520  133.7230 C   0  0  0  0  0  0  0  0  0  0  0  0
  143.0240  159.1910  133.4180 C   0  0  0  0  0  0  0  0  0  0  0  0
  142.2160  160.3250  133.4140 C   0  0  0  0  0  0  0  0  0  0  0  0
  140.8610  160.1660  133.0800 C   0  0  0  0  0  0  0  0  0  0  0  0
  140.3390  158.8890  132.7430 C   0  0  0  0  0  0  0  0  0  0  0  0
  138.8720  158.7230  132.4450 C   0  0  0  0  0  0  0  0  0  0  0  0
  138.2170  158.1400  133.5160 F   0  0  0  0  0  0  0  0  0  0  0  0
  138.3130  159.9630  132.1980 F   0  0  0  0  0  0  0  0  0  0  0  0
  138.6890  157.9160  131.3350 F   0  0  0  0  0  0  0  0  0  0  0  0
  141.1890  157.7590  132.7830 C   0  0  0  0  0  0  0  0  0  0  0  0
  142.5350  157.9510  133.1080 C   0  0  0  0  0  0  0  0  0  0  0  0
  143.5060  157.0200  133.2120 N   0  0  0  0  0  0  0  0  0  0  0  0
  143.3520  155.6120  132.9810 C   0  0  0  0  0  0  0  0  0  0  0  0
  143.9840  155.0800  132.0280 O   0  0  0  0  0  0  0  0  0  0  0  0
  142.4950  154.8050  133.8190 N   0  0  0  0  0  0  0  0  0  0  0  0
  143.0070  154.3110  135.1080 C   0  0  0  0  0  0  0  0  0  0  0  0
  142.3950  155.0740  136.2940 C   0  0  0  0  0  0  0  0  0  0  0  0
  142.2950  156.5890  136.0300 C   0  0  0  0  0  0  0  0  0  0  0  0
  141.5160  157.3190  137.0540 N   0  0  0  0  0  0  0  0  0  0  0  0
  140.0820  156.9630  137.1210 C   0  0  0  0  0  0  0  0  0  0  0  0
  139.1820  157.8920  136.2700 C   0  0  0  0  0  0  0  0  0  0  0  0
  139.8730  158.9980  135.7270 O   0  0  0  0  0  0  0  0  0  0  0  0
  140.6130  159.6370  136.7400 C   0  0  0  0  0  0  0  0  0  0  0  0
  141.8090  158.7670  137.1470 C   0  0  0  0  0  0  0  0  0  0  0  0
  141.1670  154.4340  133.3900 C   0  0  0  0  0  0  0  0  0  0  0  0
  140.1730  155.1510  133.6800 O   0  0  0  0  0  0  0  0  0  0  0  0
  140.9680  153.2960  132.6160 O   0  0  0  0  0  0  0  0  0  0  0  0
  145.9660  156.0120  131.8860 H   0  0  0  0  0  0  0  0  0  0  0  0
  145.0641  159.8450  134.0174 H   0  0  0  0  0  0  0  0  0  0  0  0
  142.6261  161.3145  133.6646 H   0  0  0  0  0  0  0  0  0  0  0  0
  140.1956  161.0419  133.0795 H   0  0  0  0  0  0  0  0  0  0  0  0
  140.8003  156.7536  132.5637 H   0  0  0  0  0  0  0  0  0  0  0  0
  142.7587  153.2438  135.2046 H   0  0  0  0  0  0  0  0  0  0  0  0
  144.0959  154.4661  135.1261 H   0  0  0  0  0  0  0  0  0  0  0  0
  141.3852  154.6811  136.4834 H   0  0  0  0  0  0  0  0  0  0  0  0
  143.0541  154.9280  137.1625 H   0  0  0  0  0  0  0  0  0  0  0  0
  143.3128  157.0055  136.0052 H   0  0  0  0  0  0  0  0  0  0  0  0
  141.7675  156.7153  135.0730 H   0  0  0  0  0  0  0  0  0  0  0  0
  139.9607  155.9314  136.7590 H   0  0  0  0  0  0  0  0  0  0  0  0
  139.7667  157.0732  138.1691 H   0  0  0  0  0  0  0  0  0  0  0  0
  138.7585  157.3046  135.4420 H   0  0  0  0  0  0  0  0  0  0  0  0
  138.4036  158.2907  136.9372 H   0  0  0  0  0  0  0  0  0  0  0  0
  140.9776  160.6059  136.3682 H   0  0  0  0  0  0  0  0  0  0  0  0
  139.9657  159.7920  137.6158 H   0  0  0  0  0  0  0  0  0  0  0  0
  142.6554  158.9987  136.4837 H   0  0  0  0  0  0  0  0  0  0  0  0
  142.0439  158.9931  138.1976 H   0  0  0  0  0  0  0  0  0  0  0  0
  1  2  1  0
  2  3  2  0
  2  4  1  0
  4  5  2  0
  5  6  1  0
  6  7  2  0
  7  8  1  0
  8  9  2  0
  9 10  1  0
 10 11  1  0
 10 12  1  0
 10 13  1  0
  9 14  1  0
 14 15  2  0
 15 16  1  0
 16 17  1  0
 17 18  2  0
 17 19  1  0
 19 20  1  0
 20 21  1  0
 21 22  1  0
 22 23  1  0
 23 24  1  0
 24 25  1  0
 25 26  1  0
 26 27  1  0
 27 28  1  0
 19 29  1  0
 29 30  2  0
 29 31  1  0
 16  4  1  0
 28 23  1  0
 15  6  1  0
  1 32  1  0
  5 33  1  0
  7 34  1  0
  8 35  1  0
 14 36  1  0
 20 37  1  0
 20 38  1  0
 21 39  1  0
 21 40  1  0
 22 41  1  0
 22 42  1  0
 24 43  1  0
 24 44  1  0
 25 45  1  0
 25 46  1  0
 27 47  1  0
 27 48  1  0
 28 49  1  0
 28 50  1  0
M  CHG  2   1  -1  31  -1
M  END
>  <UniqueID>  (69) 
68

>  <SMILES>  (69) 
[NH-]C(=O)c1cc2ccc(C(F)(F)F)cc2n1C(=O)N(CCCN1CCOCC1)C(=O)[O-]

>  <Energy>  (69) 
105.25622977022975

>  <Genealogy>  (69) 
[NH-]C(=O)c1cc2ccc(C(F)(F)F)cc2n1C(=O)N(CCCN1CCOCC1)C(=O)[O-] (protonated)
[NH-]C(=O)c1cc2ccc(C(F)(F)F)cc2n1C(=O)N(CCCN1CCOCC1)C(=O)[O-] (3D coordinates assigned)
[NH-]C(=O)c1cc2ccc(C(F)(F)F)cc2n1C(=O)N(CCCN1CCOCC1)C(=O)[O-] (nonaromatic ring conformer: 105.25622977022975 kcal/mol)

>  <smiles>  (69) 
NC(=O)c1cc2ccc(C(F)(F)F)cc2n1C(=O)N(CCCN1CCOCC1)C(=O)O

>  <score_type>  (69) 
oracle

>  <origin>  (69) 
adg

>  <m_score__min__energy>  (69) 
-7.46

>  <m_primary>  (69) 
energy

$$$$
70:0
     RDKit          3D

 46 47  0  0  0  0  0  0  0  0999 V2000
  136.9750  159.3170  131.1210 N   0  0  0  0  0  0  0  0  0  0  0  0
  138.1070  159.3360  131.3570 C   0  0  0  0  0  0  0  0  0  0  0  0
  139.5430  159.3580  131.6600 C   0  0  0  0  0  0  0  0  0  0  0  0
  139.9810  158.0700  132.0830 O   0  0  0  0  0  0  0  0  0  0  0  0
  139.3730  157.3550  133.1220 C   0  0  0  0  0  0  0  0  0  0  0  0
  138.7130  157.9540  134.0140 O   0  0  0  0  0  0  0  0  0  0  0  0
  139.5010  155.8620  133.1700 C   0  0  0  0  0  0  0  0  0  0  0  0
  140.9540  155.4260  133.3890 C   0  0  0  0  0  0  0  0  0  0  0  0
  141.3580  155.5420  134.8270 C   0  0  0  0  0  0  0  0  0  0  0  0
  141.3520  154.5160  135.5600 O   0  0  0  0  0  0  0  0  0  0  0  0
  141.7240  156.7860  135.3490 O   0  0  0  0  0  0  0  0  0  0  0  0
  140.9410  157.4570  136.3320 C   0  0  0  0  0  0  0  0  0  0  0  0
  140.8370  158.9450  135.9980 C   0  0  0  0  0  0  0  0  0  0  0  0
  141.2790  159.2120  134.6280 N   0  0  0  0  0  0  0  0  0  0  0  0
  142.6380  159.5080  134.2490 C   0  0  0  0  0  0  0  0  0  0  0  0
  143.0200  160.8620  134.0760 C   0  0  0  0  0  0  0  0  0  0  0  0
  144.3390  161.2030  133.7360 C   0  0  0  0  0  0  0  0  0  0  0  0
  145.2540  160.1720  133.5590 C   0  0  0  0  0  0  0  0  0  0  0  0
  146.5940  160.2240  133.2540 C   0  0  0  0  0  0  0  0  0  0  0  0
  147.0130  158.8960  133.2060 C   0  0  0  0  0  0  0  0  0  0  0  0
  148.3800  158.4760  132.8200 C   0  0  0  0  0  0  0  0  0  0  0  0
  148.5790  157.4280  131.8700 N   0  0  0  0  0  0  0  0  0  0  0  0
  149.3820  159.0190  133.3530 O   0  0  0  0  0  0  0  0  0  0  0  0
  145.9730  158.0560  133.4740 N   0  0  0  0  0  0  0  0  0  0  0  0
  146.0060  156.6230  133.5800 C   0  0  0  0  0  0  0  0  0  0  0  0
  146.3920  155.9210  132.6090 O   0  0  0  0  0  0  0  0  0  0  0  0
  145.6240  155.9960  134.7600 O   0  0  0  0  0  0  0  0  0  0  0  0
  144.9020  158.8540  133.6880 C   0  0  0  0  0  0  0  0  0  0  0  0
  143.5990  158.4860  134.0450 C   0  0  0  0  0  0  0  0  0  0  0  0
  140.0994  159.6518  130.7577 H   0  0  0  0  0  0  0  0  0  0  0  0
  139.7260  160.0806  132.4689 H   0  0  0  0  0  0  0  0  0  0  0  0
  138.8847  155.4774  133.9960 H   0  0  0  0  0  0  0  0  0  0  0  0
  139.1624  155.4569  132.2050 H   0  0  0  0  0  0  0  0  0  0  0  0
  141.0633  154.3784  133.0717 H   0  0  0  0  0  0  0  0  0  0  0  0
  141.6030  156.0878  132.7967 H   0  0  0  0  0  0  0  0  0  0  0  0
  139.9325  157.0183  136.3548 H   0  0  0  0  0  0  0  0  0  0  0  0
  141.4226  157.3423  137.3143 H   0  0  0  0  0  0  0  0  0  0  0  0
  139.7901  159.2647  136.1060 H   0  0  0  0  0  0  0  0  0  0  0  0
  141.4861  159.5033  136.6886 H   0  0  0  0  0  0  0  0  0  0  0  0
  140.5680  159.0900  133.8710 H   0  0  0  0  0  0  0  0  0  0  0  0
  142.2721  161.6574  134.2101 H   0  0  0  0  0  0  0  0  0  0  0  0
  144.6390  162.2542  133.6134 H   0  0  0  0  0  0  0  0  0  0  0  0
  147.2050  161.1228  133.0841 H   0  0  0  0  0  0  0  0  0  0  0  0
  147.7770  156.9920  131.3650 H   0  0  0  0  0  0  0  0  0  0  0  0
  149.5470  157.1130  131.6340 H   0  0  0  0  0  0  0  0  0  0  0  0
  143.3270  157.4269  134.1646 H   0  0  0  0  0  0  0  0  0  0  0  0
  1  2  3  0
  2  3  1  0
  3  4  1  0
  4  5  1  0
  5  6  2  0
  5  7  1  0
  7  8  1  0
  8  9  1  0
  9 10  2  0
  9 11  1  0
 11 12  1  0
 12 13  1  0
 13 14  1  0
 14 15  1  0
 15 16  2  0
 16 17  1  0
 17 18  2  0
 18 19  1  0
 19 20  2  0
 20 21  1  0
 21 22  1  0
 21 23  2  0
 20 24  1  0
 24 25  1  0
 25 26  2  0
 25 27  1  0
 24 28  1  0
 28 29  2  0
 29 15  1  0
 28 18  1  0
  3 30  1  0
  3 31  1  0
  7 32  1  0
  7 33  1  0
  8 34  1  0
  8 35  1  0
 12 36  1  0
 12 37  1  0
 13 38  1  0
 13 39  1  0
 14 40  1  0
 16 41  1  0
 17 42  1  0
 19 43  1  0
 22 44  1  0
 22 45  1  0
 29 46  1  0
M  CHG  1  27  -1
M  END
>  <UniqueID>  (70) 
69

>  <SMILES>  (70) 
N#CCOC(=O)CCC(=O)OCCNc1ccc2cc(C(N)=O)n(C(=O)[O-])c2c1

>  <Energy>  (70) 
71.59767140668548

>  <Genealogy>  (70) 
N#CCOC(=O)CCC(=O)OCCNc1ccc2cc(C(N)=O)n(C(=O)[O-])c2c1 (protonated)
N#CCOC(=O)CCC(=O)OCCNc1ccc2cc(C(N)=O)n(C(=O)[O-])c2c1 (3D coordinates assigned)
N#CCOC(=O)CCC(=O)OCCNc1ccc2cc(C(N)=O)n(C(=O)[O-])c2c1 (optimized conformer: 71.59767140668548 kcal/mol)

>  <smiles>  (70) 
N#CCOC(=O)CCC(=O)OCCNc1ccc2cc(C(N)=O)n(C(=O)O)c2c1

>  <score_type>  (70) 
oracle

>  <origin>  (70) 
adg

>  <m_score__min__energy>  (70) 
-6.7400000000000002

>  <m_primary>  (70) 
energy

$$$$
71:0
     RDKit          3D

 45 46  0  0  0  0  0  0  0  0999 V2000
  147.3110  154.8610  135.0140 C   0  0  0  0  0  0  0  0  0  0  0  0
  147.1670  153.8670  133.8430 C   0  0  2  0  0  0  0  0  0  0  0  0
  148.5490  153.4420  133.4010 C   0  0  0  0  0  0  0  0  0  0  0  0
  149.1950  152.5810  134.0560 O   0  0  0  0  0  0  0  0  0  0  0  0
  149.1150  154.0000  132.2620 O   0  0  0  0  0  0  0  0  0  0  0  0
  146.3880  154.4400  132.7040 N   0  0  1  0  0  0  0  0  0  0  0  0
  145.2530  153.5720  132.3230 C   0  0  0  0  0  0  0  0  0  0  0  0
  145.9040  155.7860  132.9910 C   0  0  0  0  0  0  0  0  0  0  0  0
  146.7290  156.9310  132.7830 C   0  0  0  0  0  0  0  0  0  0  0  0
  146.2460  158.2250  133.0400 C   0  0  0  0  0  0  0  0  0  0  0  0
  144.9370  158.3570  133.4860 C   0  0  0  0  0  0  0  0  0  0  0  0
  144.2260  159.4900  133.8090 C   0  0  0  0  0  0  0  0  0  0  0  0
  142.9610  159.0360  134.1760 C   0  0  0  0  0  0  0  0  0  0  0  0
  141.8470  159.9400  134.5330 C   0  0  0  0  0  0  0  0  0  0  0  0
  141.1240  159.7310  135.7450 N   0  0  0  0  0  0  0  0  0  0  0  0
  141.5450  160.9150  133.7940 O   0  0  0  0  0  0  0  0  0  0  0  0
  142.8920  157.6760  134.0870 N   0  0  0  0  0  0  0  0  0  0  0  0
  141.7680  156.8360  134.4120 C   0  0  0  0  0  0  0  0  0  0  0  0
  141.2710  156.8890  135.5700 O   0  0  0  0  0  0  0  0  0  0  0  0
  141.1090  155.9820  133.3610 C   0  0  0  0  0  0  0  0  0  0  0  0
  139.5880  156.2140  133.2690 C   0  0  0  0  0  0  0  0  0  0  0  0
  139.1900  157.6990  133.2340 C   0  0  0  0  0  0  0  0  0  0  0  0
  138.9640  158.1950  134.5250 O   0  0  0  0  0  0  0  0  0  0  0  0
  144.1140  157.2760  133.6680 C   0  0  0  0  0  0  0  0  0  0  0  0
  144.5780  155.9730  133.4510 C   0  0  0  0  0  0  0  0  0  0  0  0
  147.2324  154.3182  135.9675 H   0  0  0  0  0  0  0  0  0  0  0  0
  148.2905  155.3580  134.9547 H   0  0  0  0  0  0  0  0  0  0  0  0
  146.5128  155.6155  134.9547 H   0  0  0  0  0  0  0  0  0  0  0  0
  146.5975  152.9920  134.1894 H   0  0  0  0  0  0  0  0  0  0  0  0
  147.0190  154.4810  131.8680 H   0  0  0  0  0  0  0  0  0  0  0  0
  144.7593  153.1945  133.2306 H   0  0  0  0  0  0  0  0  0  0  0  0
  144.5321  154.1514  131.7275 H   0  0  0  0  0  0  0  0  0  0  0  0
  145.6233  152.7245  131.7275 H   0  0  0  0  0  0  0  0  0  0  0  0
  147.7576  156.7989  132.4163 H   0  0  0  0  0  0  0  0  0  0  0  0
  146.8856  159.1077  132.8924 H   0  0  0  0  0  0  0  0  0  0  0  0
  144.5804  160.5310  133.7830 H   0  0  0  0  0  0  0  0  0  0  0  0
  140.5010  158.9030  135.8620 H   0  0  0  0  0  0  0  0  0  0  0  0
  141.5596  156.2157  132.3851 H   0  0  0  0  0  0  0  0  0  0  0  0
  141.2668  154.9304  133.6425 H   0  0  0  0  0  0  0  0  0  0  0  0
  139.2184  155.7337  132.3510 H   0  0  0  0  0  0  0  0  0  0  0  0
  139.1416  155.7830  134.1773 H   0  0  0  0  0  0  0  0  0  0  0  0
  140.0002  158.2764  132.7648 H   0  0  0  0  0  0  0  0  0  0  0  0
  138.2589  157.7959  132.6563 H   0  0  0  0  0  0  0  0  0  0  0  0
  139.8590  158.3620  134.9230 H   0  0  0  0  0  0  0  0  0  0  0  0
  143.9231  155.1086  133.6349 H   0  0  0  0  0  0  0  0  0  0  0  0
  1  2  1  0
  2  3  1  0
  3  4  2  0
  3  5  1  0
  2  6  1  0
  6  7  1  0
  6  8  1  0
  8  9  2  0
  9 10  1  0
 10 11  2  0
 11 12  1  0
 12 13  2  0
 13 14  1  0
 14 15  1  0
 14 16  2  0
 13 17  1  0
 17 18  1  0
 18 19  2  0
 18 20  1  0
 20 21  1  0
 21 22  1  0
 22 23  1  0
 17 24  1  0
 24 25  2  0
 25  8  1  0
 24 11  1  0
  1 26  1  0
  1 27  1  0
  1 28  1  0
  2 29  1  1
  6 30  1  6
  7 31  1  0
  7 32  1  0
  7 33  1  0
  9 34  1  0
 10 35  1  0
 12 36  1  0
 15 37  1  0
 20 38  1  0
 20 39  1  0
 21 40  1  0
 21 41  1  0
 22 42  1  0
 22 43  1  0
 23 44  1  0
 25 45  1  0
M  CHG  3   5  -1   6   1  15  -1
M  END
>  <UniqueID>  (71) 
70

>  <SMILES>  (71) 
C[C@H](C(=O)[O-])[N@@H+](C)c1ccc2cc(C([NH-])=O)n(C(=O)CCCO)c2c1

>  <Energy>  (71) 
86.32156926733755

>  <Genealogy>  (71) 
CC(C(=O)[O-])[NH+](C)c1ccc2cc(C([NH-])=O)n(C(=O)CCCO)c2c1 (protonated)
C[C@H](C(=O)[O-])[N@@H+](C)c1ccc2cc(C([NH-])=O)n(C(=O)CCCO)c2c1 (chirality)
C[C@H](C(=O)[O-])[N@@H+](C)c1ccc2cc(C([NH-])=O)n(C(=O)CCCO)c2c1 (3D coordinates assigned)
C[C@H](C(=O)[O-])[N@@H+](C)c1ccc2cc(C([NH-])=O)n(C(=O)CCCO)c2c1 (optimized conformer: 86.32156926733755 kcal/mol)

>  <smiles>  (71) 
CC(C(=O)O)N(C)c1ccc2cc(C(N)=O)n(C(=O)CCCO)c2c1

>  <score_type>  (71) 
oracle

>  <origin>  (71) 
adg

>  <m_score__min__energy>  (71) 
-5.6299999999999999

>  <m_primary>  (71) 
energy

$$$$
72:0
     RDKit          3D

 68 71  0  0  0  0  0  0  0  0999 V2000
  142.5360  150.5060  132.4090 C   0  0  0  0  0  0  0  0  0  0  0  0
  141.3510  151.2230  133.0870 C   0  0  0  0  0  0  0  0  0  0  0  0
  141.3920  150.9480  134.6040 C   0  0  0  0  0  0  0  0  0  0  0  0
  140.0140  150.6740  132.5250 C   0  0  0  0  0  0  0  0  0  0  0  0
  139.1210  151.7180  132.2360 O   0  0  0  0  0  0  0  0  0  0  0  0
  141.4750  152.7170  132.8480 C   0  0  0  0  0  0  0  0  0  0  0  0
  142.1130  153.1380  131.8420 O   0  0  0  0  0  0  0  0  0  0  0  0
  140.8640  153.6280  133.7200 O   0  0  0  0  0  0  0  0  0  0  0  0
  141.2920  154.9800  133.8740 C   0  0  2  0  0  0  0  0  0  0  0  0
  141.8190  155.1870  135.3670 C   0  0  0  0  0  0  0  0  0  0  0  0
  141.8720  156.6990  135.8400 C   0  0  2  0  0  0  0  0  0  0  0  0
  140.8440  157.0530  137.0000 C   0  0  0  0  0  0  0  0  0  0  0  0
  139.9040  158.0990  136.6620 O   0  0  0  0  0  0  0  0  0  0  0  0
  139.2290  157.9380  135.3970 C   0  0  0  0  0  0  0  0  0  0  0  0
  140.1170  157.1710  134.3930 C   0  0  2  0  0  0  0  0  0  0  0  0
  140.1360  155.9830  133.4170 C   0  0  0  0  0  0  0  0  0  0  0  0
  141.5310  157.4840  134.6610 N   0  0  0  0  0  0  0  0  0  0  0  0
  141.9030  158.9140  134.7020 C   0  0  0  0  0  0  0  0  0  0  0  0
  143.1200  159.1530  133.8090 C   0  0  0  0  0  0  0  0  0  0  0  0
  144.1600  158.2290  134.1200 O   0  0  0  0  0  0  0  0  0  0  0  0
  144.4210  157.0740  133.3720 C   0  0  0  0  0  0  0  0  0  0  0  0
  143.4950  156.5070  132.7290 O   0  0  0  0  0  0  0  0  0  0  0  0
  145.7480  156.5230  133.3580 N   0  0  0  0  0  0  0  0  0  0  0  0
  146.1030  155.2270  133.5840 C   0  0  0  0  0  0  0  0  0  0  0  0
  145.2000  154.1620  134.0720 C   0  0  0  0  0  0  0  0  0  0  0  0
  144.0030  153.8380  133.3620 N   0  0  0  0  0  0  0  0  0  0  0  0
  145.4940  153.5110  135.1100 O   0  0  0  0  0  0  0  0  0  0  0  0
  147.4670  155.0480  133.3630 C   0  0  0  0  0  0  0  0  0  0  0  0
  147.9410  156.2820  132.9910 C   0  0  0  0  0  0  0  0  0  0  0  0
  149.2220  156.6690  132.6150 C   0  0  0  0  0  0  0  0  0  0  0  0
  149.4200  158.0030  132.2260 C   0  0  0  0  0  0  0  0  0  0  0  0
  148.3440  158.9290  132.2320 C   0  0  0  0  0  0  0  0  0  0  0  0
  148.5490  160.3450  131.7590 C   0  0  0  0  0  0  0  0  0  0  0  0
  148.0680  160.4950  130.4700 F   0  0  0  0  0  0  0  0  0  0  0  0
  147.8840  161.2430  132.5760 F   0  0  0  0  0  0  0  0  0  0  0  0
  149.9010  160.6390  131.7720 F   0  0  0  0  0  0  0  0  0  0  0  0
  147.0510  158.4900  132.6000 C   0  0  0  0  0  0  0  0  0  0  0  0
  146.8850  157.1580  132.9960 C   0  0  0  0  0  0  0  0  0  0  0  0
  143.2079  150.0995  133.1793 H   0  0  0  0  0  0  0  0  0  0  0  0
  142.1577  149.6851  131.7820 H   0  0  0  0  0  0  0  0  0  0  0  0
  143.0877  151.2220  131.7820 H   0  0  0  0  0  0  0  0  0  0  0  0
  141.2513  151.8916  135.1516 H   0  0  0  0  0  0  0  0  0  0  0  0
  140.5886  150.2457  134.8712 H   0  0  0  0  0  0  0  0  0  0  0  0
  142.3653  150.5106  134.8712 H   0  0  0  0  0  0  0  0  0  0  0  0
  140.2167  150.1090  131.6032 H   0  0  0  0  0  0  0  0  0  0  0  0
  139.5566  150.0230  133.2846 H   0  0  0  0  0  0  0  0  0  0  0  0
  139.6730  152.5380  132.1490 H   0  0  0  0  0  0  0  0  0  0  0  0
  142.1399  155.2124  133.2129 H   0  0  0  0  0  0  0  0  0  0  0  0
  142.8347  154.7699  135.4341 H   0  0  0  0  0  0  0  0  0  0  0  0
  141.1011  154.6772  136.0264 H   0  0  0  0  0  0  0  0  0  0  0  0
  142.8698  156.9090  136.2527 H   0  0  0  0  0  0  0  0  0  0  0  0
  141.4170  157.3761  137.8816 H   0  0  0  0  0  0  0  0  0  0  0  0
  140.2520  156.1445  137.1851 H   0  0  0  0  0  0  0  0  0  0  0  0
  138.9941  158.9306  134.9851 H   0  0  0  0  0  0  0  0  0  0  0  0
  138.3062  157.3624  135.5615 H   0  0  0  0  0  0  0  0  0  0  0  0
  139.1417  157.3267  133.9087 H   0  0  0  0  0  0  0  0  0  0  0  0
  140.3366  156.3424  132.3969 H   0  0  0  0  0  0  0  0  0  0  0  0
  139.1630  155.4699  133.4241 H   0  0  0  0  0  0  0  0  0  0  0  0
  141.0599  159.5220  134.3422 H   0  0  0  0  0  0  0  0  0  0  0  0
  142.1473  159.1984  135.7361 H   0  0  0  0  0  0  0  0  0  0  0  0
  142.8265  159.0261  132.7565 H   0  0  0  0  0  0  0  0  0  0  0  0
  143.4904  160.1745  133.9804 H   0  0  0  0  0  0  0  0  0  0  0  0
  143.3890  153.0620  133.6970 H   0  0  0  0  0  0  0  0  0  0  0  0
  143.7030  154.3860  132.5260 H   0  0  0  0  0  0  0  0  0  0  0  0
  148.0422  154.1159  133.4649 H   0  0  0  0  0  0  0  0  0  0  0  0
  150.0556  155.9513  132.6221 H   0  0  0  0  0  0  0  0  0  0  0  0
  150.4209  158.3349  131.9128 H   0  0  0  0  0  0  0  0  0  0  0  0
  146.1948  159.1802  132.5755 H   0  0  0  0  0  0  0  0  0  0  0  0
  1  2  1  0
  2  3  1  0
  2  4  1  0
  4  5  1  0
  2  6  1  0
  6  7  2  0
  6  8  1  0
  8  9  1  0
  9 10  1  0
 10 11  1  0
 11 12  1  0
 12 13  1  0
 13 14  1  0
 14 15  1  0
 15 16  1  0
 15 17  1  0
 17 18  1  0
 18 19  1  0
 19 20  1  0
 20 21  1  0
 21 22  2  0
 21 23  1  0
 23 24  1  0
 24 25  1  0
 25 26  1  0
 25 27  2  0
 24 28  2  0
 28 29  1  0
 29 30  2  0
 30 31  1  0
 31 32  2  0
 32 33  1  0
 33 34  1  0
 33 35  1  0
 33 36  1  0
 32 37  1  0
 37 38  2  0
 16  9  1  0
 38 23  1  0
 17 11  1  0
 38 29  1  0
  1 39  1  0
  1 40  1  0
  1 41  1  0
  3 42  1  0
  3 43  1  0
  3 44  1  0
  4 45  1  0
  4 46  1  0
  5 47  1  0
  9 48  1  6
 10 49  1  0
 10 50  1  0
 11 51  1  1
 12 52  1  0
 12 53  1  0
 14 54  1  0
 14 55  1  0
 15 56  1  6
 16 57  1  0
 16 58  1  0
 18 59  1  0
 18 60  1  0
 19 61  1  0
 19 62  1  0
 26 63  1  0
 26 64  1  0
 28 65  1  0
 30 66  1  0
 31 67  1  0
 37 68  1  0
M  END
>  <UniqueID>  (72) 
71

>  <SMILES>  (72) 
CC(C)(CO)C(=O)OC1C[C@@H]2COC[C@@H](C1)N2CCOC(=O)n1c(C(N)=O)cc2ccc(C(F)(F)F)cc21

>  <Energy>  (72) 
225.23856277017757

>  <Genealogy>  (72) 
CC(C)(CO)C(=O)OC1C[C@@H]2COC[C@@H](C1)N2CCOC(=O)n1c(C(N)=O)cc2ccc(C(F)(F)F)cc21 (chirality)
CC(C)(CO)C(=O)OC1C[C@@H]2COC[C@@H](C1)N2CCOC(=O)n1c(C(N)=O)cc2ccc(C(F)(F)F)cc21 (3D coordinates assigned)
CC(C)(CO)C(=O)OC1C[C@@H]2COC[C@@H](C1)N2CCOC(=O)n1c(C(N)=O)cc2ccc(C(F)(F)F)cc21 (nonaromatic ring conformer: 225.23856277017757 kcal/mol)

>  <smiles>  (72) 
CC(C)(CO)C(=O)OC1CC2COCC(C1)N2CCOC(=O)n1c(C(N)=O)cc2ccc(C(F)(F)F)cc21

>  <score_type>  (72) 
oracle

>  <origin>  (72) 
adg

>  <m_score__min__energy>  (72) 
-8.7200000000000006

>  <m_primary>  (72) 
energy

$$$$
73:0
     RDKit          3D

 51 52  0  0  0  0  0  0  0  0999 V2000
  138.7380  158.6180  130.5630 C   0  0  0  0  0  0  0  0  0  0  0  0
  139.6770  159.3600  131.5290 C   0  0  0  0  0  0  0  0  0  0  0  0
  139.0870  160.7440  131.8460 C   0  0  0  0  0  0  0  0  0  0  0  0
  139.9280  158.5280  132.8160 C   0  0  1  0  0  0  0  0  0  0  0  0
  140.7000  157.3340  132.4780 N   0  0  0  0  0  0  0  0  0  0  0  0
  140.6520  156.1070  133.2140 C   0  0  0  0  0  0  0  0  0  0  0  0
  139.5720  155.7310  133.7410 O   0  0  0  0  0  0  0  0  0  0  0  0
  141.8310  155.2910  133.3270 N   0  0  0  0  0  0  0  0  0  0  0  0
  143.1160  155.7130  133.4940 C   0  0  0  0  0  0  0  0  0  0  0  0
  143.5410  157.0970  133.7820 C   0  0  0  0  0  0  0  0  0  0  0  0
  143.1550  158.1780  132.9320 N   0  0  0  0  0  0  0  0  0  0  0  0
  144.2060  157.3370  134.8240 O   0  0  0  0  0  0  0  0  0  0  0  0
  144.0020  154.6430  133.4070 C   0  0  0  0  0  0  0  0  0  0  0  0
  143.2130  153.5360  133.1950 C   0  0  0  0  0  0  0  0  0  0  0  0
  143.5740  152.2070  133.0050 C   0  0  0  0  0  0  0  0  0  0  0  0
  142.5530  151.2760  132.7530 C   0  0  0  0  0  0  0  0  0  0  0  0
  141.1950  151.6840  132.7040 C   0  0  0  0  0  0  0  0  0  0  0  0
  140.1140  150.6890  132.3680 C   0  0  0  0  0  0  0  0  0  0  0  0
  138.8800  151.3120  132.2930 F   0  0  0  0  0  0  0  0  0  0  0  0
  140.0690  149.7170  133.3500 F   0  0  0  0  0  0  0  0  0  0  0  0
  140.3680  150.0860  131.1480 F   0  0  0  0  0  0  0  0  0  0  0  0
  140.8720  153.0500  132.8770 C   0  0  0  0  0  0  0  0  0  0  0  0
  141.9070  153.9530  133.1480 C   0  0  0  0  0  0  0  0  0  0  0  0
  140.6900  159.3400  133.8430 C   0  0  0  0  0  0  0  0  0  0  0  0
  141.5740  160.1460  133.4490 O   0  0  0  0  0  0  0  0  0  0  0  0
  140.4040  159.2770  135.2490 N   0  0  0  0  0  0  0  0  0  0  0  0
  141.0680  158.4250  136.2370 C   0  0  2  0  0  0  0  0  0  0  0  0
  140.2830  157.1160  136.4200 C   0  0  0  0  0  0  0  0  0  0  0  0
  141.0640  156.0620  137.1510 C   0  0  0  0  0  0  0  0  0  0  0  0
  140.6150  155.5660  138.2180 O   0  0  0  0  0  0  0  0  0  0  0  0
  142.2730  155.6100  136.6390 O   0  0  0  0  0  0  0  0  0  0  0  0
  141.2290  159.1530  137.5430 C   0  0  0  0  0  0  0  0  0  0  0  0
  141.9500  158.6760  138.4590 O   0  0  0  0  0  0  0  0  0  0  0  0
  140.6090  160.3830  137.7300 O   0  0  0  0  0  0  0  0  0  0  0  0
  138.0031  158.0372  131.1397 H   0  0  0  0  0  0  0  0  0  0  0  0
  138.2128  159.3477  129.9292 H   0  0  0  0  0  0  0  0  0  0  0  0
  139.3265  157.9383  129.9292 H   0  0  0  0  0  0  0  0  0  0  0  0
  140.6574  159.4990  131.0500 H   0  0  0  0  0  0  0  0  0  0  0  0
  139.0302  160.8774  132.9364 H   0  0  0  0  0  0  0  0  0  0  0  0
  139.7306  161.5246  131.4142 H   0  0  0  0  0  0  0  0  0  0  0  0
  138.0782  160.8202  131.4142 H   0  0  0  0  0  0  0  0  0  0  0  0
  138.9553  158.2430  133.2433 H   0  0  0  0  0  0  0  0  0  0  0  0
  142.4700  158.0330  132.1580 H   0  0  0  0  0  0  0  0  0  0  0  0
  143.4950  159.1440  133.1270 H   0  0  0  0  0  0  0  0  0  0  0  0
  145.0984  154.6755  133.4900 H   0  0  0  0  0  0  0  0  0  0  0  0
  144.6275  151.8940  133.0506 H   0  0  0  0  0  0  0  0  0  0  0  0
  142.8091  150.2185  132.5918 H   0  0  0  0  0  0  0  0  0  0  0  0
  139.8304  153.3954  132.8003 H   0  0  0  0  0  0  0  0  0  0  0  0
  142.0740  158.1732  135.8702 H   0  0  0  0  0  0  0  0  0  0  0  0
  139.3676  157.3328  136.9901 H   0  0  0  0  0  0  0  0  0  0  0  0
  140.0584  156.7236  135.4172 H   0  0  0  0  0  0  0  0  0  0  0  0
  1  2  1  0
  2  3  1  0
  2  4  1  0
  4  5  1  0
  5  6  1  0
  6  7  2  0
  6  8  1  0
  8  9  1  0
  9 10  1  0
 10 11  1  0
 10 12  2  0
  9 13  2  0
 13 14  1  0
 14 15  2  0
 15 16  1  0
 16 17  2  0
 17 18  1  0
 18 19  1  0
 18 20  1  0
 18 21  1  0
 17 22  1  0
 22 23  2  0
  4 24  1  0
 24 25  2  0
 24 26  1  0
 26 27  1  0
 27 28  1  0
 28 29  1  0
 29 30  2  0
 29 31  1  0
 27 32  1  0
 32 33  2  0
 32 34  1  0
 23  8  1  0
 23 14  1  0
  1 35  1  0
  1 36  1  0
  1 37  1  0
  2 38  1  0
  3 39  1  0
  3 40  1  0
  3 41  1  0
  4 42  1  1
 11 43  1  0
 11 44  1  0
 13 45  1  0
 15 46  1  0
 16 47  1  0
 22 48  1  0
 27 49  1  6
 28 50  1  0
 28 51  1  0
M  CHG  4   5  -1  26  -1  31  -1  34  -1
M  END
>  <UniqueID>  (73) 
72

>  <SMILES>  (73) 
CC(C)[C@@H]([N-]C(=O)n1c(C(N)=O)cc2ccc(C(F)(F)F)cc21)C(=O)[N-][C@H](CC(=O)[O-])C(=O)[O-]

>  <Energy>  (73) 
80.93820675973899

>  <Genealogy>  (73) 
CC(C)[C@@H]([N-]C(=O)n1c(C(N)=O)cc2ccc(C(F)(F)F)cc21)C(=O)[N-]C(CC(=O)[O-])C(=O)[O-] (protonated)
CC(C)[C@@H]([N-]C(=O)n1c(C(N)=O)cc2ccc(C(F)(F)F)cc21)C(=O)[N-][C@H](CC(=O)[O-])C(=O)[O-] (chirality)
CC(C)[C@@H]([N-]C(=O)n1c(C(N)=O)cc2ccc(C(F)(F)F)cc21)C(=O)[N-][C@H](CC(=O)[O-])C(=O)[O-] (3D coordinates assigned)
CC(C)[C@@H]([N-]C(=O)n1c(C(N)=O)cc2ccc(C(F)(F)F)cc21)C(=O)[N-][C@H](CC(=O)[O-])C(=O)[O-] (optimized conformer: 80.93820675973899 kcal/mol)

>  <smiles>  (73) 
CC(C)[C@@H](NC(=O)n1c(C(N)=O)cc2ccc(C(F)(F)F)cc21)C(=O)NC(CC(=O)O)C(=O)O

>  <score_type>  (73) 
oracle

>  <origin>  (73) 
adg

>  <m_score__min__energy>  (73) 
-8.9000000000000004

>  <m_primary>  (73) 
energy

$$$$
74:0
     RDKit          3D

 43 47  0  0  0  0  0  0  0  0999 V2000
  145.9620  162.9380  134.8760 N   0  0  0  0  0  0  0  0  0  0  0  0
  144.9220  162.3160  134.1270 C   0  0  0  0  0  0  0  0  0  0  0  0
  143.9980  163.0280  133.6470 O   0  0  0  0  0  0  0  0  0  0  0  0
  144.8800  160.8490  133.9540 C   0  0  0  0  0  0  0  0  0  0  0  0
  146.0140  160.0740  133.7270 C   0  0  0  0  0  0  0  0  0  0  0  0
  145.5470  158.7930  133.5340 C   0  0  0  0  0  0  0  0  0  0  0  0
  146.2440  157.6190  133.2740 C   0  0  0  0  0  0  0  0  0  0  0  0
  145.5080  156.4290  133.1460 C   0  0  0  0  0  0  0  0  0  0  0  0
  144.0940  156.4290  133.2900 C   0  0  0  0  0  0  0  0  0  0  0  0
  143.3070  155.1760  133.1600 C   0  0  0  0  0  0  0  0  0  0  0  0
  142.0630  155.0130  133.7820 C   0  0  0  0  0  0  0  0  0  0  0  0
  141.3680  153.8180  133.6210 C   0  0  0  0  0  0  0  0  0  0  0  0
  141.9170  152.7940  132.8330 C   0  0  0  0  0  0  0  0  0  0  0  0
  141.2170  151.5420  132.6490 N   0  0  0  0  0  0  0  0  0  0  0  0
  141.8210  150.2330  132.8600 C   0  0  0  0  0  0  0  0  0  0  0  0
  140.7430  149.2040  132.5530 C   0  0  2  0  0  0  0  0  0  0  0  0
  140.2430  149.1630  131.1150 C   0  0  0  0  0  0  0  0  0  0  0  0
  139.4900  149.9680  132.1640 C   0  0  2  0  0  0  0  0  0  0  0  0
  139.8220  151.4500  132.2400 C   0  0  0  0  0  0  0  0  0  0  0  0
  143.1280  153.0100  132.2390 N   0  0  0  0  0  0  0  0  0  0  0  0
  143.7900  154.1580  132.3990 N   0  0  0  0  0  0  0  0  0  0  0  0
  143.4240  157.6510  133.5430 C   0  0  0  0  0  0  0  0  0  0  0  0
  144.1830  158.8220  133.6470 C   0  0  0  0  0  0  0  0  0  0  0  0
  143.7550  160.0770  133.9100 N   0  0  0  0  0  0  0  0  0  0  0  0
  142.4010  160.4770  134.1730 C   0  0  0  0  0  0  0  0  0  0  0  0
  141.8160  161.2890  133.4080 O   0  0  0  0  0  0  0  0  0  0  0  0
  141.7300  159.9910  135.2900 O   0  0  0  0  0  0  0  0  0  0  0  0
  146.9650  162.7910  134.6280 H   0  0  0  0  0  0  0  0  0  0  0  0
  147.0603  160.4128  133.7062 H   0  0  0  0  0  0  0  0  0  0  0  0
  147.3392  157.6214  133.1715 H   0  0  0  0  0  0  0  0  0  0  0  0
  146.0324  155.4861  132.9318 H   0  0  0  0  0  0  0  0  0  0  0  0
  141.6384  155.8231  134.3931 H   0  0  0  0  0  0  0  0  0  0  0  0
  140.3925  153.6764  134.1092 H   0  0  0  0  0  0  0  0  0  0  0  0
  142.1557  150.1328  133.9030 H   0  0  0  0  0  0  0  0  0  0  0  0
  142.7001  150.0923  132.2140 H   0  0  0  0  0  0  0  0  0  0  0  0
  141.0512  148.4059  133.2445 H   0  0  0  0  0  0  0  0  0  0  0  0
  139.8043  148.2387  130.7109 H   0  0  0  0  0  0  0  0  0  0  0  0
  140.6823  149.3839  130.1310 H   0  0  0  0  0  0  0  0  0  0  0  0
  138.4233  150.0080  132.4297 H   0  0  0  0  0  0  0  0  0  0  0  0
  139.1760  151.9465  132.9790 H   0  0  0  0  0  0  0  0  0  0  0  0
  139.6587  151.9440  131.2708 H   0  0  0  0  0  0  0  0  0  0  0  0
  143.5680  152.2760  131.6420 H   0  0  0  0  0  0  0  0  0  0  0  0
  142.3301  157.6789  133.6554 H   0  0  0  0  0  0  0  0  0  0  0  0
  1  2  1  0
  2  3  2  0
  2  4  1  0
  4  5  2  0
  5  6  1  0
  6  7  2  0
  7  8  1  0
  8  9  2  0
  9 10  1  0
 10 11  2  0
 11 12  1  0
 12 13  2  0
 13 14  1  0
 14 15  1  0
 15 16  1  0
 16 17  1  0
 17 18  1  0
 18 19  1  0
 13 20  1  0
 20 21  2  0
  9 22  1  0
 22 23  2  0
 23 24  1  0
 24 25  1  0
 25 26  2  0
 25 27  1  0
 24  4  1  0
 23  6  1  0
 21 10  1  0
 19 14  1  0
 18 16  1  0
  1 28  1  0
  5 29  1  0
  7 30  1  0
  8 31  1  0
 11 32  1  0
 12 33  1  0
 15 34  1  0
 15 35  1  0
 16 36  1  1
 17 37  1  0
 17 38  1  0
 18 39  1  1
 19 40  1  0
 19 41  1  0
 20 42  1  0
 22 43  1  0
M  CHG  3   1  -1  20   1  27  -1
M  END
>  <UniqueID>  (74) 
73

>  <SMILES>  (74) 
[NH-]C(=O)c1cc2ccc(-c3ccc(N4C[C@H]5C[C@H]5C4)[nH+]n3)cc2n1C(=O)[O-]

>  <Energy>  (74) 
358.4968703001875

>  <Genealogy>  (74) 
[NH-]C(=O)c1cc2ccc(-c3ccc(N4CC5CC5C4)[nH+]n3)cc2n1C(=O)[O-] (protonated)
[NH-]C(=O)c1cc2ccc(-c3ccc(N4C[C@H]5C[C@H]5C4)[nH+]n3)cc2n1C(=O)[O-] (chirality)
[NH-]C(=O)c1cc2ccc(-c3ccc(N4C[C@H]5C[C@H]5C4)[nH+]n3)cc2n1C(=O)[O-] (3D coordinates assigned)
[NH-]C(=O)c1cc2ccc(-c3ccc(N4C[C@H]5C[C@H]5C4)[nH+]n3)cc2n1C(=O)[O-] (nonaromatic ring conformer: 358.4968703001875 kcal/mol)

>  <smiles>  (74) 
NC(=O)c1cc2ccc(-c3ccc(N4CC5CC5C4)nn3)cc2n1C(=O)O

>  <score_type>  (74) 
oracle

>  <origin>  (74) 
adg

>  <m_score__min__energy>  (74) 
-8.9900000000000002

>  <m_primary>  (74) 
energy

$$$$
75:0
     RDKit          3D

 38 39  0  0  0  0  0  0  0  0999 V2000
  138.8360  160.5080  130.8280 C   0  0  0  0  0  0  0  0  0  0  0  0
  139.0740  159.9010  132.1300 N   0  0  0  0  0  0  0  0  0  0  0  0
  140.3630  159.7840  132.7440 C   0  0  0  0  0  0  0  0  0  0  0  0
  141.0300  160.8290  132.9640 O   0  0  0  0  0  0  0  0  0  0  0  0
  140.9320  158.4530  133.1510 C   0  0  0  0  0  0  0  0  0  0  0  0
  142.3470  158.5810  133.4870 N   0  0  0  0  0  0  0  0  0  0  0  0
  143.1060  157.5120  134.0660 C   0  0  0  0  0  0  0  0  0  0  0  0
  142.5450  156.4180  134.3470 O   0  0  0  0  0  0  0  0  0  0  0  0
  144.4710  157.7070  134.3080 O   0  0  0  0  0  0  0  0  0  0  0  0
  145.3390  158.4430  133.4890 C   0  0  0  0  0  0  0  0  0  0  0  0
  144.9670  159.5240  132.9580 O   0  0  0  0  0  0  0  0  0  0  0  0
  146.6790  157.9700  133.2770 N   0  0  0  0  0  0  0  0  0  0  0  0
  147.2060  156.7600  133.6200 C   0  0  0  0  0  0  0  0  0  0  0  0
  146.5440  155.7230  134.4380 C   0  0  0  0  0  0  0  0  0  0  0  0
  145.3680  155.0630  133.9750 N   0  0  0  0  0  0  0  0  0  0  0  0
  146.9940  155.4480  135.5820 O   0  0  0  0  0  0  0  0  0  0  0  0
  148.5170  156.6510  133.1610 C   0  0  0  0  0  0  0  0  0  0  0  0
  148.7840  157.8450  132.5300 C   0  0  0  0  0  0  0  0  0  0  0  0
  149.9390  158.2790  131.8870 C   0  0  0  0  0  0  0  0  0  0  0  0
  149.9260  159.5560  131.3000 C   0  0  0  0  0  0  0  0  0  0  0  0
  148.7610  160.3580  131.3460 C   0  0  0  0  0  0  0  0  0  0  0  0
  148.7670  161.7290  130.7380 C   0  0  0  0  0  0  0  0  0  0  0  0
  147.6110  159.8910  132.0180 C   0  0  0  0  0  0  0  0  0  0  0  0
  147.6580  158.6230  132.6130 C   0  0  0  0  0  0  0  0  0  0  0  0
  138.4376  161.5242  130.9645 H   0  0  0  0  0  0  0  0  0  0  0  0
  139.7815  160.5570  130.2680 H   0  0  0  0  0  0  0  0  0  0  0  0
  138.1092  159.9013  130.2680 H   0  0  0  0  0  0  0  0  0  0  0  0
  140.3844  158.0786  134.0285 H   0  0  0  0  0  0  0  0  0  0  0  0
  140.8288  157.7509  132.3105 H   0  0  0  0  0  0  0  0  0  0  0  0
  142.8240  159.4960  133.3210 H   0  0  0  0  0  0  0  0  0  0  0  0
  144.4680  155.5810  133.8720 H   0  0  0  0  0  0  0  0  0  0  0  0
  149.1950  155.7927  133.2780 H   0  0  0  0  0  0  0  0  0  0  0  0
  150.8347  157.6423  131.8395 H   0  0  0  0  0  0  0  0  0  0  0  0
  150.8295  159.9354  130.8004 H   0  0  0  0  0  0  0  0  0  0  0  0
  148.7703  162.4846  131.5374 H   0  0  0  0  0  0  0  0  0  0  0  0
  149.6657  161.8501  130.1153 H   0  0  0  0  0  0  0  0  0  0  0  0
  147.8694  161.8579  130.1153 H   0  0  0  0  0  0  0  0  0  0  0  0
  146.7011  160.5066  132.0733 H   0  0  0  0  0  0  0  0  0  0  0  0
  1  2  1  0
  2  3  1  0
  3  4  2  0
  3  5  1  0
  5  6  1  0
  6  7  1  0
  7  8  2  0
  7  9  1  0
  9 10  1  0
 10 11  2  0
 10 12  1  0
 12 13  1  0
 13 14  1  0
 14 15  1  0
 14 16  2  0
 13 17  2  0
 17 18  1  0
 18 19  2  0
 19 20  1  0
 20 21  2  0
 21 22  1  0
 21 23  1  0
 23 24  2  0
 24 12  1  0
 24 18  1  0
  1 25  1  0
  1 26  1  0
  1 27  1  0
  5 28  1  0
  5 29  1  0
  6 30  1  0
 15 31  1  0
 17 32  1  0
 19 33  1  0
 20 34  1  0
 22 35  1  0
 22 36  1  0
 22 37  1  0
 23 38  1  0
M  CHG  2   2  -1  15  -1
M  END
>  <UniqueID>  (75) 
74

>  <SMILES>  (75) 
C[N-]C(=O)CNC(=O)OC(=O)n1c(C([NH-])=O)cc2ccc(C)cc21

>  <Energy>  (75) 
71.97279811534914

>  <Genealogy>  (75) 
C[N-]C(=O)CNC(=O)OC(=O)n1c(C([NH-])=O)cc2ccc(C)cc21 (protonated)
C[N-]C(=O)CNC(=O)OC(=O)n1c(C([NH-])=O)cc2ccc(C)cc21 (3D coordinates assigned)
C[N-]C(=O)CNC(=O)OC(=O)n1c(C([NH-])=O)cc2ccc(C)cc21 (optimized conformer: 71.97279811534914 kcal/mol)

>  <smiles>  (75) 
CNC(=O)CNC(=O)OC(=O)n1c(C(N)=O)cc2ccc(C)cc21

>  <score_type>  (75) 
oracle

>  <origin>  (75) 
adg

>  <m_score__min__energy>  (75) 
-7.2300000000000004

>  <m_primary>  (75) 
energy

$$$$
76:0
     RDKit          3D

 39 41  0  0  0  0  0  0  0  0999 V2000
  141.2390  152.6060  132.6210 C   0  0  0  0  0  0  0  0  0  0  0  0
  141.4860  153.5550  133.7560 C   0  0  0  0  0  0  0  0  0  0  0  0
  142.4370  153.2360  134.7560 C   0  0  0  0  0  0  0  0  0  0  0  0
  142.7060  154.1370  135.8010 C   0  0  0  0  0  0  0  0  0  0  0  0
  142.0280  155.3530  135.8030 C   0  0  0  0  0  0  0  0  0  0  0  0
  142.1030  156.4070  136.6840 C   0  0  0  0  0  0  0  0  0  0  0  0
  141.2310  157.3720  136.1840 C   0  0  0  0  0  0  0  0  0  0  0  0
  141.0590  158.7090  136.7900 C   0  0  0  0  0  0  0  0  0  0  0  0
  140.6790  159.8340  136.0010 N   0  0  0  0  0  0  0  0  0  0  0  0
  141.2820  158.8690  138.0210 O   0  0  0  0  0  0  0  0  0  0  0  0
  140.6360  156.9280  135.0400 N   0  0  0  0  0  0  0  0  0  0  0  0
  139.6690  157.6210  134.2310 C   0  0  0  0  0  0  0  0  0  0  0  0
  138.6650  158.1500  134.7770 O   0  0  0  0  0  0  0  0  0  0  0  0
  139.8250  157.7190  132.7420 C   0  0  0  0  0  0  0  0  0  0  0  0
  141.0560  158.3560  132.4200 O   0  0  0  0  0  0  0  0  0  0  0  0
  141.4700  159.5580  132.9950 C   0  0  0  0  0  0  0  0  0  0  0  0
  140.6420  160.4870  133.2020 O   0  0  0  0  0  0  0  0  0  0  0  0
  142.8850  159.7290  133.3650 C   0  0  0  0  0  0  0  0  0  0  0  0
  143.3910  160.8660  133.9010 C   0  0  0  0  0  0  0  0  0  0  0  0
  144.8400  160.7250  134.1140 C   0  0  0  0  0  0  0  0  0  0  0  0
  144.8540  159.5460  133.6180 C   0  0  0  0  0  0  0  0  0  0  0  0
  143.9680  158.7480  133.1460 C   0  0  0  0  0  0  0  0  0  0  0  0
  143.9140  157.3160  133.4760 C   0  0  0  0  0  0  0  0  0  0  0  0
  144.4720  156.8890  134.5220 O   0  0  0  0  0  0  0  0  0  0  0  0
  143.2480  156.4230  132.6470 O   0  0  0  0  0  0  0  0  0  0  0  0
  141.1300  155.6890  134.8240 C   0  0  0  0  0  0  0  0  0  0  0  0
  140.8230  154.8000  133.7880 C   0  0  0  0  0  0  0  0  0  0  0  0
  140.9810  151.6146  133.0216 H   0  0  0  0  0  0  0  0  0  0  0  0
  140.4083  152.9800  132.0045 H   0  0  0  0  0  0  0  0  0  0  0  0
  142.1466  152.5275  132.0045 H   0  0  0  0  0  0  0  0  0  0  0  0
  142.9699  152.2746  134.7145 H   0  0  0  0  0  0  0  0  0  0  0  0
  143.4292  153.8891  136.5920 H   0  0  0  0  0  0  0  0  0  0  0  0
  142.7209  156.4738  137.5916 H   0  0  0  0  0  0  0  0  0  0  0  0
  140.1240  159.7130  135.1260 H   0  0  0  0  0  0  0  0  0  0  0  0
  139.8138  156.7084  132.3078 H   0  0  0  0  0  0  0  0  0  0  0  0
  138.9946  158.3121  132.3313 H   0  0  0  0  0  0  0  0  0  0  0  0
  142.8036  161.7643  134.1420 H   0  0  0  0  0  0  0  0  0  0  0  0
  145.6143  161.3816  134.5374 H   0  0  0  0  0  0  0  0  0  0  0  0
  140.0835  155.0651  133.0180 H   0  0  0  0  0  0  0  0  0  0  0  0
  1  2  1  0
  2  3  2  0
  3  4  1  0
  4  5  2  0
  5  6  1  0
  6  7  2  0
  7  8  1  0
  8  9  1  0
  8 10  2  0
  7 11  1  0
 11 12  1  0
 12 13  2  0
 12 14  1  0
 14 15  1  0
 15 16  1  0
 16 17  2  0
 16 18  1  0
 18 19  2  0
 19 20  1  0
 20 21  2  0
 21 22  2  0
 22 23  1  0
 23 24  2  0
 23 25  1  0
 11 26  1  0
 26 27  2  0
 27  2  1  0
 26  5  1  0
 22 18  1  0
  1 28  1  0
  1 29  1  0
  1 30  1  0
  3 31  1  0
  4 32  1  0
  6 33  1  0
  9 34  1  0
 14 35  1  0
 14 36  1  0
 19 37  1  0
 20 38  1  0
 27 39  1  0
M  CHG  2   9  -1  25  -1
M  END
>  <UniqueID>  (76) 
75

>  <SMILES>  (76) 
Cc1ccc2cc(C([NH-])=O)n(C(=O)COC(=O)C3=CC=C=C3C(=O)[O-])c2c1

>  <Energy>  (76) 
172.1358331444632

>  <Genealogy>  (76) 
Cc1ccc2cc(C([NH-])=O)n(C(=O)COC(=O)C3=CC=C=C3C(=O)[O-])c2c1 (protonated)
Cc1ccc2cc(C([NH-])=O)n(C(=O)COC(=O)C3=CC=C=C3C(=O)[O-])c2c1 (3D coordinates assigned)
Cc1ccc2cc(C([NH-])=O)n(C(=O)COC(=O)C3=CC=C=C3C(=O)[O-])c2c1 (nonaromatic ring conformer: 172.1358331444632 kcal/mol)

>  <smiles>  (76) 
Cc1ccc2cc(C(N)=O)n(C(=O)COC(=O)C3=CC=C=C3C(=O)O)c2c1

>  <score_type>  (76) 
oracle

>  <origin>  (76) 
adg

>  <m_score__min__energy>  (76) 
-8.3900000000000006

>  <m_primary>  (76) 
energy

$$$$
77:0
     RDKit          3D

 69 72  0  0  0  0  0  0  0  0999 V2000
  144.1140  154.5130  135.9700 N   0  0  0  0  0  0  0  0  0  0  0  0
  145.0280  154.1920  134.9190 C   0  0  0  0  0  0  0  0  0  0  0  0
  145.1190  153.0000  134.5250 O   0  0  0  0  0  0  0  0  0  0  0  0
  145.8950  155.2390  134.3300 C   0  0  0  0  0  0  0  0  0  0  0  0
  147.2210  155.0280  133.9580 C   0  0  0  0  0  0  0  0  0  0  0  0
  147.6270  156.2090  133.3800 C   0  0  0  0  0  0  0  0  0  0  0  0
  148.8650  156.5650  132.8590 C   0  0  0  0  0  0  0  0  0  0  0  0
  149.0200  157.8700  132.3620 C   0  0  0  0  0  0  0  0  0  0  0  0
  147.9380  158.7880  132.3840 C   0  0  0  0  0  0  0  0  0  0  0  0
  148.1350  160.2050  131.9040 C   0  0  0  0  0  0  0  0  0  0  0  0
  147.7000  161.1070  132.8600 F   0  0  0  0  0  0  0  0  0  0  0  0
  149.4780  160.4210  131.6580 F   0  0  0  0  0  0  0  0  0  0  0  0
  147.4210  160.4310  130.7410 F   0  0  0  0  0  0  0  0  0  0  0  0
  146.7020  158.3960  132.9480 C   0  0  0  0  0  0  0  0  0  0  0  0
  146.5690  157.0830  133.4180 C   0  0  0  0  0  0  0  0  0  0  0  0
  145.4970  156.5010  134.0020 N   0  0  0  0  0  0  0  0  0  0  0  0
  144.2440  157.1240  134.3310 C   0  0  0  0  0  0  0  0  0  0  0  0
  144.1760  158.3750  134.4840 O   0  0  0  0  0  0  0  0  0  0  0  0
  143.1020  156.3330  134.4810 O   0  0  0  0  0  0  0  0  0  0  0  0
  142.2980  155.9020  133.3890 C   0  0  0  0  0  0  0  0  0  0  0  0
  141.6710  157.1190  132.7180 C   0  0  0  0  0  0  0  0  0  0  0  0
  141.8970  158.2680  133.5090 O   0  0  0  0  0  0  0  0  0  0  0  0
  140.6240  159.3930  133.2920 P   0  0  1  0  0  0  0  0  0  0  0  0
  141.0470  160.7560  133.8000 O   0  0  0  0  0  0  0  0  0  0  0  0
  140.2520  159.4940  131.5690 N   0  0  0  0  0  0  0  0  0  0  0  0
  138.9820  158.8240  131.2450 C   0  0  0  0  0  0  0  0  0  0  0  0
  137.9380  159.7810  130.7480 C   0  0  0  0  0  0  0  0  0  0  0  0
  136.7320  159.6380  131.0880 O   0  0  0  0  0  0  0  0  0  0  0  0
  138.3020  160.8570  129.9480 O   0  0  0  0  0  0  0  0  0  0  0  0
  139.2230  158.8910  134.1320 O   0  0  0  0  0  0  0  0  0  0  0  0
  139.4930  157.6640  134.7760 C   0  0  0  0  0  0  0  0  0  0  0  0
  139.9740  157.9160  136.2100 C   0  0  1  0  0  0  0  0  0  0  0  0
  139.5390  156.8810  137.0630 O   0  0  0  0  0  0  0  0  0  0  0  0
  140.4940  156.7600  138.1000 C   0  0  1  0  0  0  0  0  0  0  0  0
  140.8220  155.3360  138.3240 N   0  0  0  0  0  0  0  0  0  0  0  0
  140.4220  154.7230  139.4810 C   0  0  0  0  0  0  0  0  0  0  0  0
  140.7020  153.3780  139.7100 C   0  0  0  0  0  0  0  0  0  0  0  0
  141.3830  152.6670  138.7290 C   0  0  0  0  0  0  0  0  0  0  0  0
  141.6590  151.4520  138.9020 O   0  0  0  0  0  0  0  0  0  0  0  0
  141.7470  153.2850  137.5780 N   0  0  0  0  0  0  0  0  0  0  0  0
  141.4700  154.5980  137.3620 C   0  0  0  0  0  0  0  0  0  0  0  0
  141.8120  155.1210  136.2670 O   0  0  0  0  0  0  0  0  0  0  0  0
  141.7560  157.5590  137.7290 C   0  0  2  0  0  0  0  0  0  0  0  0
  141.9480  158.6480  138.6010 O   0  0  0  0  0  0  0  0  0  0  0  0
  141.4900  158.0000  136.3040 C   0  0  2  0  0  0  0  0  0  0  0  0
  141.9380  159.3070  136.0480 O   0  0  0  0  0  0  0  0  0  0  0  0
  143.5190  153.7650  136.3910 H   0  0  0  0  0  0  0  0  0  0  0  0
  143.9830  155.4990  136.2900 H   0  0  0  0  0  0  0  0  0  0  0  0
  147.8160  154.1132  134.0966 H   0  0  0  0  0  0  0  0  0  0  0  0
  149.6982  155.8471  132.8363 H   0  0  0  0  0  0  0  0  0  0  0  0
  149.9910  158.1837  131.9512 H   0  0  0  0  0  0  0  0  0  0  0  0
  145.8643  159.1056  133.0161 H   0  0  0  0  0  0  0  0  0  0  0  0
  142.9230  155.3623  132.6623 H   0  0  0  0  0  0  0  0  0  0  0  0
  141.5058  155.2321  133.7547 H   0  0  0  0  0  0  0  0  0  0  0  0
  142.1236  157.2633  131.7259 H   0  0  0  0  0  0  0  0  0  0  0  0
  140.5882  156.9581  132.6101 H   0  0  0  0  0  0  0  0  0  0  0  0
  141.0300  159.0350  131.0400 H   0  0  0  0  0  0  0  0  0  0  0  0
  139.1694  158.0705  130.4658 H   0  0  0  0  0  0  0  0  0  0  0  0
  138.6013  158.3642  132.1689 H   0  0  0  0  0  0  0  0  0  0  0  0
  138.5760  157.0569  134.8013 H   0  0  0  0  0  0  0  0  0  0  0  0
  140.2793  157.1315  134.2209 H   0  0  0  0  0  0  0  0  0  0  0  0
  139.5454  158.8813  136.5173 H   0  0  0  0  0  0  0  0  0  0  0  0
  140.0776  157.1669  139.0333 H   0  0  0  0  0  0  0  0  0  0  0  0
  139.8725  155.3001  140.2393 H   0  0  0  0  0  0  0  0  0  0  0  0
  140.3914  152.8898  140.6455 H   0  0  0  0  0  0  0  0  0  0  0  0
  142.6819  156.9715  137.8154 H   0  0  0  0  0  0  0  0  0  0  0  0
  141.9050  159.4860  138.0680 H   0  0  0  0  0  0  0  0  0  0  0  0
  142.0220  157.3815  135.5662 H   0  0  0  0  0  0  0  0  0  0  0  0
  142.2490  159.3180  135.1040 H   0  0  0  0  0  0  0  0  0  0  0  0
  1  2  1  0
  2  3  2  0
  2  4  1  0
  4  5  2  0
  5  6  1  0
  6  7  2  0
  7  8  1  0
  8  9  2  0
  9 10  1  0
 10 11  1  0
 10 12  1  0
 10 13  1  0
  9 14  1  0
 14 15  2  0
 15 16  1  0
 16 17  1  0
 17 18  2  0
 17 19  1  0
 19 20  1  0
 20 21  1  0
 21 22  1  0
 23 22  1  6
 23 24  2  0
 23 25  1  0
 25 26  1  0
 26 27  1  0
 27 28  2  0
 27 29  1  0
 23 30  1  0
 30 31  1  0
 31 32  1  0
 32 33  1  0
 33 34  1  0
 34 35  1  0
 35 36  1  0
 36 37  2  0
 37 38  1  0
 38 39  2  0
 38 40  1  0
 40 41  1  0
 41 42  2  0
 34 43  1  0
 43 44  1  0
 43 45  1  0
 45 46  1  0
 16  4  1  0
 45 32  1  0
 15  6  1  0
 41 35  1  0
  1 47  1  0
  1 48  1  0
  5 49  1  0
  7 50  1  0
  8 51  1  0
 14 52  1  0
 20 53  1  0
 20 54  1  0
 21 55  1  0
 21 56  1  0
 25 57  1  0
 26 58  1  0
 26 59  1  0
 31 60  1  0
 31 61  1  0
 32 62  1  1
 34 63  1  1
 36 64  1  0
 37 65  1  0
 43 66  1  6
 44 67  1  0
 45 68  1  6
 46 69  1  0
M  CHG  2  29  -1  40  -1
M  END
>  <UniqueID>  (77) 
76

>  <SMILES>  (77) 
NC(=O)c1cc2ccc(C(F)(F)F)cc2n1C(=O)OCCO[P@@](=O)(NCC(=O)[O-])OC[C@H]1O[C@@H](n2ccc(=O)[n-]c2=O)[C@H](O)[C@@H]1O

>  <Energy>  (77) 
110.9973031849584

>  <Genealogy>  (77) 
NC(=O)c1cc2ccc(C(F)(F)F)cc2n1C(=O)OCCOP(=O)(NCC(=O)[O-])OC[C@H]1O[C@@H](n2ccc(=O)[n-]c2=O)[C@H](O)[C@@H]1O (protonated)
NC(=O)c1cc2ccc(C(F)(F)F)cc2n1C(=O)OCCO[P@@](=O)(NCC(=O)[O-])OC[C@H]1O[C@@H](n2ccc(=O)[n-]c2=O)[C@H](O)[C@@H]1O (chirality)
NC(=O)c1cc2ccc(C(F)(F)F)cc2n1C(=O)OCCO[P@@](=O)(NCC(=O)[O-])OC[C@H]1O[C@@H](n2ccc(=O)[n-]c2=O)[C@H](O)[C@@H]1O (3D coordinates assigned)
NC(=O)c1cc2ccc(C(F)(F)F)cc2n1C(=O)OCCO[P@@](=O)(NCC(=O)[O-])OC[C@H]1O[C@@H](n2ccc(=O)[n-]c2=O)[C@H](O)[C@@H]1O (nonaromatic ring conformer: 110.9973031849584 kcal/mol)

>  <smiles>  (77) 
NC(=O)c1cc2ccc(C(F)(F)F)cc2n1C(=O)OCCOP(=O)(NCC(=O)O)OC[C@H]1O[C@@H](n2ccc(=O)[nH]c2=O)[C@H](O)[C@@H]1O

>  <score_type>  (77) 
oracle

>  <origin>  (77) 
adg

>  <m_score__min__energy>  (77) 
-9.1899999999999995

>  <m_primary>  (77) 
energy

$$$$
78:0
     RDKit          3D

 37 39  0  0  0  0  0  0  0  0999 V2000
  144.3390  161.3000  134.0920 C   0  0  0  0  0  0  0  0  0  0  0  0
  143.9870  159.8530  133.9210 C   0  0  0  0  0  0  0  0  0  0  0  0
  145.0000  158.9010  133.6460 C   0  0  0  0  0  0  0  0  0  0  0  0
  144.6740  157.5510  133.4250 C   0  0  0  0  0  0  0  0  0  0  0  0
  143.3310  157.1890  133.4760 C   0  0  0  0  0  0  0  0  0  0  0  0
  142.7280  155.9710  133.2460 C   0  0  0  0  0  0  0  0  0  0  0  0
  141.3570  156.2080  133.3720 C   0  0  0  0  0  0  0  0  0  0  0  0
  140.3000  155.1830  133.2080 C   0  0  0  0  0  0  0  0  0  0  0  0
  138.9970  155.5330  132.7370 N   0  0  0  0  0  0  0  0  0  0  0  0
  140.5460  153.9760  133.4760 O   0  0  0  0  0  0  0  0  0  0  0  0
  141.1330  157.5130  133.6840 N   0  0  0  0  0  0  0  0  0  0  0  0
  139.8730  158.1880  133.7640 C   0  0  0  0  0  0  0  0  0  0  0  0
  139.3500  158.6630  132.7210 O   0  0  0  0  0  0  0  0  0  0  0  0
  139.1350  158.2420  135.0680 C   0  0  0  0  0  0  0  0  0  0  0  0
  140.0830  158.0780  136.1800 N   0  0  0  0  0  0  0  0  0  0  0  0
  140.2350  156.8450  136.7510 C   0  0  0  0  0  0  0  0  0  0  0  0
  141.0670  156.6720  137.8550 C   0  0  0  0  0  0  0  0  0  0  0  0
  141.7350  157.7820  138.3630 C   0  0  0  0  0  0  0  0  0  0  0  0
  142.4940  157.6650  139.3600 O   0  0  0  0  0  0  0  0  0  0  0  0
  141.5640  158.9960  137.7830 N   0  0  0  0  0  0  0  0  0  0  0  0
  140.7480  159.1560  136.7080 C   0  0  0  0  0  0  0  0  0  0  0  0
  140.6060  160.3070  136.2130 O   0  0  0  0  0  0  0  0  0  0  0  0
  142.3440  158.1000  133.7380 C   0  0  0  0  0  0  0  0  0  0  0  0
  142.6360  159.4500  133.9570 C   0  0  0  0  0  0  0  0  0  0  0  0
  144.3971  161.5390  135.1641 H   0  0  0  0  0  0  0  0  0  0  0  0
  145.3118  161.4991  133.6187 H   0  0  0  0  0  0  0  0  0  0  0  0
  143.5664  161.9237  133.6187 H   0  0  0  0  0  0  0  0  0  0  0  0
  146.0516  159.2211  133.6050 H   0  0  0  0  0  0  0  0  0  0  0  0
  145.4555  156.8049  133.2184 H   0  0  0  0  0  0  0  0  0  0  0  0
  143.2213  155.0158  133.0129 H   0  0  0  0  0  0  0  0  0  0  0  0
  138.2750  154.7930  132.5990 H   0  0  0  0  0  0  0  0  0  0  0  0
  138.7260  156.5250  132.5620 H   0  0  0  0  0  0  0  0  0  0  0  0
  138.6267  159.2131  135.1608 H   0  0  0  0  0  0  0  0  0  0  0  0
  138.3915  157.4320  135.1001 H   0  0  0  0  0  0  0  0  0  0  0  0
  139.6953  155.9815  136.3348 H   0  0  0  0  0  0  0  0  0  0  0  0
  141.1930  155.6806  138.3146 H   0  0  0  0  0  0  0  0  0  0  0  0
  141.8342  160.1774  134.1519 H   0  0  0  0  0  0  0  0  0  0  0  0
  1  2  1  0
  2  3  2  0
  3  4  1  0
  4  5  2  0
  5  6  1  0
  6  7  2  0
  7  8  1  0
  8  9  1  0
  8 10  2  0
  7 11  1  0
 11 12  1  0
 12 13  2  0
 12 14  1  0
 14 15  1  0
 15 16  1  0
 16 17  2  0
 17 18  1  0
 18 19  2  0
 18 20  1  0
 20 21  1  0
 21 22  2  0
 11 23  1  0
 23 24  2  0
 24  2  1  0
 23  5  1  0
 21 15  1  0
  1 25  1  0
  1 26  1  0
  1 27  1  0
  3 28  1  0
  4 29  1  0
  6 30  1  0
  9 31  1  0
  9 32  1  0
 14 33  1  0
 14 34  1  0
 16 35  1  0
 17 36  1  0
 24 37  1  0
M  CHG  1  20  -1
M  END
>  <UniqueID>  (78) 
77

>  <SMILES>  (78) 
Cc1ccc2cc(C(N)=O)n(C(=O)Cn3ccc(=O)[n-]c3=O)c2c1

>  <Energy>  (78) 
78.50077869297448

>  <Genealogy>  (78) 
Cc1ccc2cc(C(N)=O)n(C(=O)Cn3ccc(=O)[n-]c3=O)c2c1 (protonated)
Cc1ccc2cc(C(N)=O)n(C(=O)Cn3ccc(=O)[n-]c3=O)c2c1 (3D coordinates assigned)
Cc1ccc2cc(C(N)=O)n(C(=O)Cn3ccc(=O)[n-]c3=O)c2c1 (optimized conformer: 78.50077869297448 kcal/mol)

>  <smiles>  (78) 
Cc1ccc2cc(C(N)=O)n(C(=O)Cn3ccc(=O)[nH]c3=O)c2c1

>  <score_type>  (78) 
oracle

>  <origin>  (78) 
adg

>  <m_score__min__energy>  (78) 
-7.6699999999999999

>  <m_primary>  (78) 
energy

$$$$
79:0
     RDKit          3D

 40 43  0  0  0  0  0  0  0  0999 V2000
  148.6220  157.9840  131.7480 N   0  0  0  0  0  0  0  0  0  0  0  0
  148.2280  158.6580  132.9400 C   0  0  0  0  0  0  0  0  0  0  0  0
  149.1050  158.9640  133.7910 O   0  0  0  0  0  0  0  0  0  0  0  0
  146.8090  158.9820  133.2010 C   0  0  0  0  0  0  0  0  0  0  0  0
  146.3340  160.2770  133.4050 C   0  0  0  0  0  0  0  0  0  0  0  0
  144.9860  160.1370  133.6510 C   0  0  0  0  0  0  0  0  0  0  0  0
  144.0180  161.1010  133.9110 C   0  0  0  0  0  0  0  0  0  0  0  0
  142.6950  160.6700  134.1050 C   0  0  0  0  0  0  0  0  0  0  0  0
  142.3620  159.2910  134.0300 C   0  0  0  0  0  0  0  0  0  0  0  0
  140.9650  158.8500  134.2270 C   0  0  0  0  0  0  0  0  0  0  0  0
  140.3900  158.6990  135.4400 N   0  0  0  0  0  0  0  0  0  0  0  0
  139.1780  158.3070  135.1920 O   0  0  0  0  0  0  0  0  0  0  0  0
  139.0120  158.2210  133.8990 C   0  0  0  0  0  0  0  0  0  0  0  0
  137.9360  157.8640  133.3520 O   0  0  0  0  0  0  0  0  0  0  0  0
  140.1190  158.5550  133.2130 N   0  0  0  0  0  0  0  0  0  0  0  0
  143.3770  158.3430  133.7630 C   0  0  0  0  0  0  0  0  0  0  0  0
  144.6860  158.8020  133.5900 C   0  0  0  0  0  0  0  0  0  0  0  0
  145.7940  158.0820  133.3190 N   0  0  0  0  0  0  0  0  0  0  0  0
  145.8700  156.6580  133.1570 C   0  0  0  0  0  0  0  0  0  0  0  0
  144.9140  156.0590  132.5910 O   0  0  0  0  0  0  0  0  0  0  0  0
  147.0370  155.8680  133.7150 C   0  0  2  0  0  0  0  0  0  0  0  0
  147.6510  154.9610  132.6680 C   0  0  0  0  0  0  0  0  0  0  0  0
  148.3710  153.8950  133.0310 C   0  0  0  0  0  0  0  0  0  0  0  0
  148.4810  153.5050  134.4480 C   0  0  0  0  0  0  0  0  0  0  0  0
  147.6990  154.0700  135.3830 C   0  0  0  0  0  0  0  0  0  0  0  0
  147.7970  153.6460  136.7980 C   0  0  0  0  0  0  0  0  0  0  0  0
  147.0700  152.7130  137.2340 O   0  0  0  0  0  0  0  0  0  0  0  0
  148.6880  154.2670  137.6650 O   0  0  0  0  0  0  0  0  0  0  0  0
  146.6180  155.0450  134.9570 C   0  0  0  0  0  0  0  0  0  0  0  0
  148.1410  157.1100  131.4400 H   0  0  0  0  0  0  0  0  0  0  0  0
  146.9129  161.2119  133.3757 H   0  0  0  0  0  0  0  0  0  0  0  0
  144.2801  162.1680  133.9631 H   0  0  0  0  0  0  0  0  0  0  0  0
  141.9081  161.4087  134.3174 H   0  0  0  0  0  0  0  0  0  0  0  0
  143.1421  157.2706  133.6932 H   0  0  0  0  0  0  0  0  0  0  0  0
  147.7993  156.5988  134.0229 H   0  0  0  0  0  0  0  0  0  0  0  0
  147.5030  155.1816  131.6006 H   0  0  0  0  0  0  0  0  0  0  0  0
  148.8879  153.3014  132.2626 H   0  0  0  0  0  0  0  0  0  0  0  0
  149.2140  152.7402  134.7444 H   0  0  0  0  0  0  0  0  0  0  0  0
  145.7048  154.4805  134.7175 H   0  0  0  0  0  0  0  0  0  0  0  0
  146.4460  155.7459  135.7871 H   0  0  0  0  0  0  0  0  0  0  0  0
  1  2  1  0
  2  3  2  0
  2  4  1  0
  4  5  2  0
  5  6  1  0
  6  7  2  0
  7  8  1  0
  8  9  2  0
  9 10  1  0
 10 11  2  0
 11 12  1  0
 12 13  1  0
 13 14  2  0
 13 15  1  0
  9 16  1  0
 16 17  2  0
 17 18  1  0
 18 19  1  0
 19 20  2  0
 19 21  1  0
 21 22  1  0
 22 23  2  0
 23 24  1  0
 24 25  2  0
 25 26  1  0
 26 27  2  0
 26 28  1  0
 25 29  1  0
 18  4  1  0
 29 21  1  0
 17  6  1  0
 15 10  1  0
  1 30  1  0
  5 31  1  0
  7 32  1  0
  8 33  1  0
 16 34  1  0
 21 35  1  1
 22 36  1  0
 23 37  1  0
 24 38  1  0
 29 39  1  0
 29 40  1  0
M  CHG  3   1  -1  15  -1  28  -1
M  END
>  <UniqueID>  (79) 
78

>  <SMILES>  (79) 
[NH-]C(=O)c1cc2ccc(-c3noc(=O)[n-]3)cc2n1C(=O)[C@@H]1C=CC=C(C(=O)[O-])C1

>  <Energy>  (79) 
121.0186859956286

>  <Genealogy>  (79) 
[NH-]C(=O)c1cc2ccc(-c3noc(=O)[n-]3)cc2n1C(=O)C1C=CC=C(C(=O)[O-])C1 (protonated)
[NH-]C(=O)c1cc2ccc(-c3noc(=O)[n-]3)cc2n1C(=O)[C@@H]1C=CC=C(C(=O)[O-])C1 (chirality)
[NH-]C(=O)c1cc2ccc(-c3noc(=O)[n-]3)cc2n1C(=O)[C@@H]1C=CC=C(C(=O)[O-])C1 (3D coordinates assigned)
[NH-]C(=O)c1cc2ccc(-c3noc(=O)[n-]3)cc2n1C(=O)[C@@H]1C=CC=C(C(=O)[O-])C1 (nonaromatic ring conformer: 121.0186859956286 kcal/mol)

>  <smiles>  (79) 
NC(=O)c1cc2ccc(-c3noc(=O)[nH]3)cc2n1C(=O)C1C=CC=C(C(=O)O)C1

>  <score_type>  (79) 
oracle

>  <origin>  (79) 
adg

>  <m_score__min__energy>  (79) 
-9.1999999999999993

>  <m_primary>  (79) 
energy

$$$$
80:0
     RDKit          3D

 36 38  0  0  0  0  0  0  0  0999 V2000
  149.1390  157.3070  131.8660 N   0  0  0  0  0  0  0  0  0  0  0  0
  148.7930  158.5720  132.4300 C   0  0  0  0  0  0  0  0  0  0  0  0
  149.6980  159.4220  132.6440 O   0  0  0  0  0  0  0  0  0  0  0  0
  147.4040  158.8770  132.8290 C   0  0  0  0  0  0  0  0  0  0  0  0
  146.9190  160.1720  132.9840 C   0  0  0  0  0  0  0  0  0  0  0  0
  145.6230  160.0230  133.4210 C   0  0  0  0  0  0  0  0  0  0  0  0
  144.6670  160.9870  133.7230 C   0  0  0  0  0  0  0  0  0  0  0  0
  143.3910  160.5510  134.1170 C   0  0  0  0  0  0  0  0  0  0  0  0
  143.0880  159.1660  134.1940 C   0  0  0  0  0  0  0  0  0  0  0  0
  141.7390  158.7060  134.5960 C   0  0  0  0  0  0  0  0  0  0  0  0
  141.2940  158.7280  135.8740 N   0  0  0  0  0  0  0  0  0  0  0  0
  140.0230  158.2570  135.9860 C   0  0  0  0  0  0  0  0  0  0  0  0
  139.4350  157.8540  134.7940 C   0  0  0  0  0  0  0  0  0  0  0  0
  140.5540  158.0980  133.5640 S   0  0  0  0  0  0  0  0  0  0  0  0
  144.0880  158.2180  133.8730 C   0  0  0  0  0  0  0  0  0  0  0  0
  145.3580  158.6810  133.5060 C   0  0  0  0  0  0  0  0  0  0  0  0
  146.4440  157.9610  133.1410 N   0  0  0  0  0  0  0  0  0  0  0  0
  146.5190  156.5320  133.0040 C   0  0  0  0  0  0  0  0  0  0  0  0
  146.5750  156.0110  131.8570 O   0  0  0  0  0  0  0  0  0  0  0  0
  146.5270  155.7250  134.1440 O   0  0  0  0  0  0  0  0  0  0  0  0
  147.6970  155.0620  134.6120 C   0  0  0  0  0  0  0  0  0  0  0  0
  148.0650  153.9330  133.6560 C   0  0  0  0  0  0  0  0  0  0  0  0
  148.5140  154.4500  132.4330 O   0  0  0  0  0  0  0  0  0  0  0  0
  150.1190  157.1240  131.5540 H   0  0  0  0  0  0  0  0  0  0  0  0
  148.4510  156.5240  131.8330 H   0  0  0  0  0  0  0  0  0  0  0  0
  147.4567  161.1133  132.7971 H   0  0  0  0  0  0  0  0  0  0  0  0
  144.9031  162.0592  133.6553 H   0  0  0  0  0  0  0  0  0  0  0  0
  142.6174  161.2914  134.3688 H   0  0  0  0  0  0  0  0  0  0  0  0
  139.4985  158.1994  136.9512 H   0  0  0  0  0  0  0  0  0  0  0  0
  138.4194  157.4481  134.6762 H   0  0  0  0  0  0  0  0  0  0  0  0
  143.8726  157.1400  133.9109 H   0  0  0  0  0  0  0  0  0  0  0  0
  148.5278  155.7809  134.6659 H   0  0  0  0  0  0  0  0  0  0  0  0
  147.5041  154.6448  135.6114 H   0  0  0  0  0  0  0  0  0  0  0  0
  148.8628  153.3237  134.1059 H   0  0  0  0  0  0  0  0  0  0  0  0
  147.1724  153.3163  133.4745 H   0  0  0  0  0  0  0  0  0  0  0  0
  147.7240  154.4880  131.8330 H   0  0  0  0  0  0  0  0  0  0  0  0
  1  2  1  0
  2  3  2  0
  2  4  1  0
  4  5  2  0
  5  6  1  0
  6  7  2  0
  7  8  1  0
  8  9  2  0
  9 10  1  0
 10 11  2  0
 11 12  1  0
 12 13  2  0
 13 14  1  0
  9 15  1  0
 15 16  2  0
 16 17  1  0
 17 18  1  0
 18 19  2  0
 18 20  1  0
 20 21  1  0
 21 22  1  0
 22 23  1  0
 17  4  1  0
 16  6  1  0
 14 10  1  0
  1 24  1  0
  1 25  1  0
  5 26  1  0
  7 27  1  0
  8 28  1  0
 12 29  1  0
 13 30  1  0
 15 31  1  0
 21 32  1  0
 21 33  1  0
 22 34  1  0
 22 35  1  0
 23 36  1  0
M  END
>  <UniqueID>  (80) 
79

>  <SMILES>  (80) 
NC(=O)c1cc2ccc(-c3nccs3)cc2n1C(=O)OCCO

>  <Energy>  (80) 
103.71826430991366

>  <Genealogy>  (80) 
NC(=O)c1cc2ccc(-c3nccs3)cc2n1C(=O)OCCO (3D coordinates assigned)
NC(=O)c1cc2ccc(-c3nccs3)cc2n1C(=O)OCCO (optimized conformer: 103.71826430991366 kcal/mol)

>  <smiles>  (80) 
NC(=O)c1cc2ccc(-c3nccs3)cc2n1C(=O)OCCO

>  <score_type>  (80) 
oracle

>  <origin>  (80) 
adg

>  <m_score__min__energy>  (80) 
-6.7800000000000002

>  <m_primary>  (80) 
energy

$$$$
81:0
     RDKit          3D

 33 34  0  0  0  0  0  0  0  0999 V2000
  148.4520  153.8660  133.4370 C   0  0  0  0  0  0  0  0  0  0  0  0
  148.1030  154.8160  132.3870 N   0  0  0  0  0  0  0  0  0  0  0  0
  147.8310  156.2100  132.6320 C   0  0  0  0  0  0  0  0  0  0  0  0
  148.8700  157.1800  132.6390 C   0  0  0  0  0  0  0  0  0  0  0  0
  148.5840  158.5360  132.8760 C   0  0  0  0  0  0  0  0  0  0  0  0
  147.2590  158.8980  133.0850 C   0  0  0  0  0  0  0  0  0  0  0  0
  146.7090  160.1300  133.3550 C   0  0  0  0  0  0  0  0  0  0  0  0
  145.3410  159.9030  133.4900 C   0  0  0  0  0  0  0  0  0  0  0  0
  144.3550  160.9750  133.7380 C   0  0  0  0  0  0  0  0  0  0  0  0
  142.9900  160.7860  133.3670 N   0  0  0  0  0  0  0  0  0  0  0  0
  144.6990  162.0510  134.2940 O   0  0  0  0  0  0  0  0  0  0  0  0
  145.0550  158.5830  133.3060 N   0  0  0  0  0  0  0  0  0  0  0  0
  143.7750  157.9410  133.4500 C   0  0  0  0  0  0  0  0  0  0  0  0
  143.0130  157.8430  132.4490 O   0  0  0  0  0  0  0  0  0  0  0  0
  143.3240  157.4070  134.7780 C   0  0  0  0  0  0  0  0  0  0  0  0
  141.7410  158.1530  135.2740 P   0  0  2  0  0  0  0  0  0  0  0  0
  141.9650  159.0430  136.4780 O   0  0  0  0  0  0  0  0  0  0  0  0
  140.6440  156.9330  135.6800 O   0  0  0  0  0  0  0  0  0  0  0  0
  141.1190  159.0780  134.0020 O   0  0  0  0  0  0  0  0  0  0  0  0
  146.2390  157.9790  133.0650 C   0  0  0  0  0  0  0  0  0  0  0  0
  146.5000  156.6180  132.8670 C   0  0  0  0  0  0  0  0  0  0  0  0
  148.2823  154.3280  134.4207 H   0  0  0  0  0  0  0  0  0  0  0  0
  147.8254  152.9670  133.3411 H   0  0  0  0  0  0  0  0  0  0  0  0
  149.5115  153.5864  133.3411 H   0  0  0  0  0  0  0  0  0  0  0  0
  148.0730  154.4610  131.4040 H   0  0  0  0  0  0  0  0  0  0  0  0
  149.9086  156.8665  132.4571 H   0  0  0  0  0  0  0  0  0  0  0  0
  149.3861  159.2885  132.8954 H   0  0  0  0  0  0  0  0  0  0  0  0
  147.2374  161.0906  133.4451 H   0  0  0  0  0  0  0  0  0  0  0  0
  142.7070  159.9950  132.7470 H   0  0  0  0  0  0  0  0  0  0  0  0
  143.2008  156.3164  134.7046 H   0  0  0  0  0  0  0  0  0  0  0  0
  144.0829  157.6580  135.5337 H   0  0  0  0  0  0  0  0  0  0  0  0
  141.9170  159.3850  133.5000 H   0  0  0  0  0  0  0  0  0  0  0  0
  145.6840  155.8808  132.8940 H   0  0  0  0  0  0  0  0  0  0  0  0
  1  2  1  0
  2  3  1  0
  3  4  2  0
  4  5  1  0
  5  6  2  0
  6  7  1  0
  7  8  2  0
  8  9  1  0
  9 10  1  0
  9 11  2  0
  8 12  1  0
 12 13  1  0
 13 14  2  0
 13 15  1  0
 15 16  1  0
 16 17  2  0
 16 18  1  1
 16 19  1  0
 12 20  1  0
 20 21  2  0
 21  3  1  0
 20  6  1  0
  1 22  1  0
  1 23  1  0
  1 24  1  0
  2 25  1  0
  4 26  1  0
  5 27  1  0
  7 28  1  0
 10 29  1  0
 15 30  1  0
 15 31  1  0
 19 32  1  0
 21 33  1  0
M  CHG  2  10  -1  18  -1
M  END
>  <UniqueID>  (81) 
80

>  <SMILES>  (81) 
CNc1ccc2cc(C([NH-])=O)n(C(=O)C[P@](=O)([O-])O)c2c1

>  <Energy>  (81) 
65.29322348884003

>  <Genealogy>  (81) 
CNc1ccc2cc(C([NH-])=O)n(C(=O)CP(=O)([O-])O)c2c1 (protonated)
CNc1ccc2cc(C([NH-])=O)n(C(=O)C[P@](=O)([O-])O)c2c1 (chirality)
CNc1ccc2cc(C([NH-])=O)n(C(=O)C[P@](=O)([O-])O)c2c1 (3D coordinates assigned)
CNc1ccc2cc(C([NH-])=O)n(C(=O)C[P@](=O)([O-])O)c2c1 (optimized conformer: 65.29322348884003 kcal/mol)

>  <smiles>  (81) 
CNc1ccc2cc(C(N)=O)n(C(=O)CP(=O)(O)O)c2c1

>  <score_type>  (81) 
oracle

>  <origin>  (81) 
adg

>  <m_score__min__energy>  (81) 
-6.0300000000000002

>  <m_primary>  (81) 
energy

$$$$
82:0
     RDKit          3D

 40 41  0  0  0  0  0  0  0  0999 V2000
  139.5210  157.1280  133.1590 C   0  0  0  0  0  0  0  0  0  0  0  0
  140.7570  157.6190  133.7720 N   0  0  0  0  0  0  0  0  0  0  0  0
  141.6220  158.5270  133.0140 C   0  0  0  0  0  0  0  0  0  0  0  0
  141.9650  159.7210  133.8470 C   0  0  0  0  0  0  0  0  0  0  0  0
  141.7260  160.8820  133.4200 O   0  0  0  0  0  0  0  0  0  0  0  0
  142.5950  159.5540  135.0720 O   0  0  0  0  0  0  0  0  0  0  0  0
  141.2000  157.1070  135.0410 C   0  0  0  0  0  0  0  0  0  0  0  0
  140.4180  157.1340  136.0280 O   0  0  0  0  0  0  0  0  0  0  0  0
  142.5470  156.5330  135.2250 C   0  0  0  0  0  0  0  0  0  0  0  0
  143.3590  156.2610  134.1960 C   0  0  0  0  0  0  0  0  0  0  0  0
  144.6960  155.6680  134.3780 C   0  0  0  0  0  0  0  0  0  0  0  0
  144.8110  154.6290  135.0810 O   0  0  0  0  0  0  0  0  0  0  0  0
  145.8660  156.2380  133.7690 N   0  0  0  0  0  0  0  0  0  0  0  0
  147.0410  155.6090  133.4920 C   0  0  0  0  0  0  0  0  0  0  0  0
  147.2930  154.1590  133.6160 C   0  0  0  0  0  0  0  0  0  0  0  0
  146.2250  153.2120  133.5670 N   0  0  0  0  0  0  0  0  0  0  0  0
  148.4770  153.7450  133.7280 O   0  0  0  0  0  0  0  0  0  0  0  0
  147.9990  156.5260  133.0630 C   0  0  0  0  0  0  0  0  0  0  0  0
  147.3680  157.7490  133.0870 C   0  0  0  0  0  0  0  0  0  0  0  0
  147.8550  159.0170  132.7830 C   0  0  0  0  0  0  0  0  0  0  0  0
  146.9890  160.1120  132.9450 C   0  0  0  0  0  0  0  0  0  0  0  0
  145.6670  159.9210  133.4150 C   0  0  0  0  0  0  0  0  0  0  0  0
  144.8000  161.0450  133.5870 N   0  0  0  0  0  0  0  0  0  0  0  0
  145.2080  158.6240  133.7190 C   0  0  0  0  0  0  0  0  0  0  0  0
  146.0840  157.5500  133.5260 C   0  0  0  0  0  0  0  0  0  0  0  0
  138.8081  156.8448  133.9474 H   0  0  0  0  0  0  0  0  0  0  0  0
  139.0817  157.9199  132.5346 H   0  0  0  0  0  0  0  0  0  0  0  0
  139.7448  156.2505  132.5346 H   0  0  0  0  0  0  0  0  0  0  0  0
  142.5463  158.0005  132.7339 H   0  0  0  0  0  0  0  0  0  0  0  0
  141.0925  158.8584  132.1086 H   0  0  0  0  0  0  0  0  0  0  0  0
  142.8970  156.3207  136.2460 H   0  0  0  0  0  0  0  0  0  0  0  0
  143.0154  156.4887  133.1761 H   0  0  0  0  0  0  0  0  0  0  0  0
  145.2630  153.4940  133.2780 H   0  0  0  0  0  0  0  0  0  0  0  0
  146.4200  152.1970  133.7180 H   0  0  0  0  0  0  0  0  0  0  0  0
  149.0379  156.3169  132.7681 H   0  0  0  0  0  0  0  0  0  0  0  0
  148.8862  159.1577  132.4268 H   0  0  0  0  0  0  0  0  0  0  0  0
  147.3412  161.1260  132.7047 H   0  0  0  0  0  0  0  0  0  0  0  0
  143.8370  160.9240  133.9730 H   0  0  0  0  0  0  0  0  0  0  0  0
  145.1160  162.0070  133.3310 H   0  0  0  0  0  0  0  0  0  0  0  0
  144.1884  158.4601  134.0979 H   0  0  0  0  0  0  0  0  0  0  0  0
  1  2  1  0
  2  3  1  0
  3  4  1  0
  4  5  2  0
  4  6  1  0
  2  7  1  0
  7  8  2  0
  7  9  1  0
  9 10  2  3
 10 11  1  0
 11 12  2  0
 11 13  1  0
 13 14  1  0
 14 15  1  0
 15 16  1  0
 15 17  2  0
 14 18  2  0
 18 19  1  0
 19 20  2  0
 20 21  1  0
 21 22  2  0
 22 23  1  0
 22 24  1  0
 24 25  2  0
 25 13  1  0
 25 19  1  0
  1 26  1  0
  1 27  1  0
  1 28  1  0
  3 29  1  0
  3 30  1  0
  9 31  1  0
 10 32  1  0
 16 33  1  0
 16 34  1  0
 18 35  1  0
 20 36  1  0
 21 37  1  0
 23 38  1  0
 23 39  1  0
 24 40  1  0
M  CHG  1   6  -1
M  END
>  <UniqueID>  (82) 
81

>  <SMILES>  (82) 
CN(CC(=O)[O-])C(=O)C=CC(=O)n1c(C(N)=O)cc2ccc(N)cc21

>  <Energy>  (82) 
79.85030371973006

>  <Genealogy>  (82) 
CN(CC(=O)[O-])C(=O)C=CC(=O)n1c(C(N)=O)cc2ccc(N)cc21 (protonated)
CN(CC(=O)[O-])C(=O)C=CC(=O)n1c(C(N)=O)cc2ccc(N)cc21 (3D coordinates assigned)
CN(CC(=O)[O-])C(=O)C=CC(=O)n1c(C(N)=O)cc2ccc(N)cc21 (optimized conformer: 79.85030371973006 kcal/mol)

>  <smiles>  (82) 
CN(CC(=O)O)C(=O)C=CC(=O)n1c(C(N)=O)cc2ccc(N)cc21

>  <score_type>  (82) 
oracle

>  <origin>  (82) 
adg

>  <m_score__min__energy>  (82) 
-7.4100000000000001

>  <m_primary>  (82) 
energy

$$$$
83:0
     RDKit          3D

 52 53  0  0  0  0  0  0  0  0999 V2000
  144.0830  155.0520  136.9870 H   0  0  0  0  0  0  0  0  0  0  0  0
  143.7870  155.3230  136.0230 N   0  0  0  0  0  0  0  0  0  0  0  0
  142.4250  155.2170  135.6150 C   0  0  0  0  0  0  0  0  0  0  0  0
  141.7780  154.1740  135.8960 O   0  0  0  0  0  0  0  0  0  0  0  0
  141.7920  156.3170  134.8610 C   0  0  0  0  0  0  0  0  0  0  0  0
  142.0610  157.6690  135.0760 C   0  0  0  0  0  0  0  0  0  0  0  0
  142.7449  158.1031  135.8202 H   0  0  0  0  0  0  0  0  0  0  0  0
  141.2870  158.3450  134.1570 C   0  0  0  0  0  0  0  0  0  0  0  0
  141.1640  159.7090  133.9180 C   0  0  0  0  0  0  0  0  0  0  0  0
  141.7373  160.4412  134.5055 H   0  0  0  0  0  0  0  0  0  0  0  0
  140.2850  160.1240  132.9030 C   0  0  0  0  0  0  0  0  0  0  0  0
  140.1833  161.1956  132.6763 H   0  0  0  0  0  0  0  0  0  0  0  0
  139.5270  159.1760  132.1670 C   0  0  0  0  0  0  0  0  0  0  0  0
  138.6310  159.6240  131.0410 C   0  0  0  0  0  0  0  0  0  0  0  0
  138.8010  158.7790  129.9620 F   0  0  0  0  0  0  0  0  0  0  0  0
  137.3040  159.5930  131.4330 F   0  0  0  0  0  0  0  0  0  0  0  0
  138.9370  160.9160  130.6540 F   0  0  0  0  0  0  0  0  0  0  0  0
  139.6940  157.7970  132.4300 C   0  0  0  0  0  0  0  0  0  0  0  0
  139.1335  157.0424  131.8587 H   0  0  0  0  0  0  0  0  0  0  0  0
  140.5890  157.4160  133.4340 C   0  0  0  0  0  0  0  0  0  0  0  0
  140.8950  156.1680  133.8470 N   0  0  0  0  0  0  0  0  0  0  0  0
  140.3200  154.9440  133.3630 C   0  0  0  0  0  0  0  0  0  0  0  0
  139.0670  154.8300  133.3070 O   0  0  0  0  0  0  0  0  0  0  0  0
  141.1620  153.8120  132.9310 C   0  0  0  0  0  0  0  0  0  0  0  0
  141.9724  154.0020  132.2118 H   0  0  0  0  0  0  0  0  0  0  0  0
  140.9810  152.5660  133.3770 C   0  0  0  0  0  0  0  0  0  0  0  0
  140.2086  152.3645  134.1339 H   0  0  0  0  0  0  0  0  0  0  0  0
  141.8260  151.4340  132.8520 C   0  0  0  0  0  0  0  0  0  0  0  0
  141.4197  151.1129  131.8815 H   0  0  0  0  0  0  0  0  0  0  0  0
  141.7940  150.6243  133.5958 H   0  0  0  0  0  0  0  0  0  0  0  0
  143.2390  151.8130  132.6690 N   0  0  0  0  0  0  0  0  0  0  0  0
  143.3180  152.3760  131.7920 H   0  0  0  0  0  0  0  0  0  0  0  0
  143.7960  152.6120  133.7780 C   0  0  0  0  0  0  0  0  0  0  0  0
  143.9034  151.9635  134.6600 H   0  0  0  0  0  0  0  0  0  0  0  0
  143.1035  153.4452  133.9684 H   0  0  0  0  0  0  0  0  0  0  0  0
  145.1780  153.2200  133.4390 C   0  0  0  0  0  0  0  0  0  0  0  0
  145.2658  153.3102  132.3462 H   0  0  0  0  0  0  0  0  0  0  0  0
  145.9485  152.5521  133.8516 H   0  0  0  0  0  0  0  0  0  0  0  0
  145.3710  154.5660  134.0470 N   0  0  2  0  0  0  0  0  0  0  0  0
  144.7600  154.6550  134.8910 H   0  0  0  0  0  0  0  0  0  0  0  0
  144.9810  155.6210  133.0870 C   0  0  0  0  0  0  0  0  0  0  0  0
  144.6509  156.5141  133.6378 H   0  0  0  0  0  0  0  0  0  0  0  0
  145.8434  155.8783  132.4545 H   0  0  0  0  0  0  0  0  0  0  0  0
  144.1586  155.2554  132.4545 H   0  0  0  0  0  0  0  0  0  0  0  0
  146.7820  154.7280  134.4810 C   0  0  0  0  0  0  0  0  0  0  0  0
  147.3982  153.9887  133.9483 H   0  0  0  0  0  0  0  0  0  0  0  0
  147.0784  155.7610  134.2463 H   0  0  0  0  0  0  0  0  0  0  0  0
  146.9800  154.5300  135.9920 C   0  0  0  0  0  0  0  0  0  0  0  0
  147.8899  153.9356  136.1618 H   0  0  0  0  0  0  0  0  0  0  0  0
  147.0735  155.5173  136.4680 H   0  0  0  0  0  0  0  0  0  0  0  0
  145.8830  153.8620  136.5540 O   0  0  0  0  0  0  0  0  0  0  0  0
  145.4060  154.5390  137.1010 H   0  0  0  0  0  0  0  0  0  0  0  0
  1  2  1  0
  2  3  1  0
  3  4  2  0
  3  5  1  0
  5  6  2  0
  6  7  1  0
  6  8  1  0
  8  9  2  0
  9 10  1  0
  9 11  1  0
 11 12  1  0
 11 13  2  0
 13 14  1  0
 14 15  1  0
 14 16  1  0
 14 17  1  0
 13 18  1  0
 18 19  1  0
 18 20  2  0
 20 21  1  0
 21 22  1  0
 22 23  2  0
 22 24  1  0
 24 25  1  0
 24 26  2  0
 26 27  1  0
 26 28  1  0
 28 29  1  0
 28 30  1  0
 28 31  1  0
 31 32  1  0
 31 33  1  0
 33 34  1  0
 33 35  1  0
 33 36  1  0
 36 37  1  0
 36 38  1  0
 36 39  1  0
 39 40  1  1
 39 41  1  0
 41 42  1  0
 41 43  1  0
 41 44  1  0
 39 45  1  0
 45 46  1  0
 45 47  1  0
 45 48  1  0
 48 49  1  0
 48 50  1  0
 48 51  1  0
 51 52  1  0
 21  5  1  0
 20  8  1  0
M  CHG  2   2  -1  39   1
M  END
>  <UniqueID>  (83) 
82

>  <SMILES>  (83) 
C[N@H+](CCO)CCNC/C=C/C(=O)n1c(C([NH-])=O)cc2ccc(C(F)(F)F)cc21

>  <Energy>  (83) 
93.17780418669832

>  <Genealogy>  (83) 
C[NH+](CCO)CCNC/C=C/C(=O)n1c(C([NH-])=O)cc2ccc(C(F)(F)F)cc21 (protonated)
C[N@H+](CCO)CCNC/C=C/C(=O)n1c(C([NH-])=O)cc2ccc(C(F)(F)F)cc21 (chirality)
C[N@H+](CCO)CCNC/C=C/C(=O)n1c(C([NH-])=O)cc2ccc(C(F)(F)F)cc21 (cis-trans isomerization)
C[N@H+](CCO)CCNC/C=C/C(=O)n1c(C([NH-])=O)cc2ccc(C(F)(F)F)cc21 (3D coordinates assigned)
C[N@H+](CCO)CCNC/C=C/C(=O)n1c(C([NH-])=O)cc2ccc(C(F)(F)F)cc21 (optimized conformer: 93.17780418669832 kcal/mol)

>  <smiles>  (83) 
CN(CCO)CCNC/C=C/C(=O)n1c(C(N)=O)cc2ccc(C(F)(F)F)cc21

>  <score_type>  (83) 
oracle

>  <origin>  (83) 
adg

>  <m_score__min__energy>  (83) 
-5.5700000000000003

>  <m_primary>  (83) 
energy

$$$$
84:0
     RDKit          3D

 46 47  0  0  0  0  0  0  0  0999 V2000
  148.0830  154.8200  132.6070 C   0  0  0  0  0  0  0  0  0  0  0  0
  147.7300  156.2560  132.8550 C   0  0  0  0  0  0  0  0  0  0  0  0
  148.7470  157.2410  132.8470 C   0  0  0  0  0  0  0  0  0  0  0  0
  148.4320  158.5970  133.0340 C   0  0  0  0  0  0  0  0  0  0  0  0
  147.0970  158.9360  133.2340 C   0  0  0  0  0  0  0  0  0  0  0  0
  146.5070  160.1700  133.3860 C   0  0  0  0  0  0  0  0  0  0  0  0
  145.1430  159.9150  133.5070 C   0  0  0  0  0  0  0  0  0  0  0  0
  144.1230  160.9690  133.6870 C   0  0  0  0  0  0  0  0  0  0  0  0
  142.7390  160.7160  133.4430 N   0  0  0  0  0  0  0  0  0  0  0  0
  144.4770  162.1040  134.1060 O   0  0  0  0  0  0  0  0  0  0  0  0
  144.8990  158.5770  133.4330 N   0  0  0  0  0  0  0  0  0  0  0  0
  143.6210  157.9270  133.3690 C   0  0  0  0  0  0  0  0  0  0  0  0
  143.1960  157.5210  132.2560 O   0  0  0  0  0  0  0  0  0  0  0  0
  142.8210  157.7360  134.6010 C   0  0  0  0  0  0  0  0  0  0  0  0
  142.4290  158.7590  135.2250 O   0  0  0  0  0  0  0  0  0  0  0  0
  142.5130  156.4280  135.1290 N   0  0  0  0  0  0  0  0  0  0  0  0
  143.5860  155.4990  135.4980 C   0  0  0  0  0  0  0  0  0  0  0  0
  141.1210  155.9510  135.1330 C   0  0  0  0  0  0  0  0  0  0  0  0
  140.6330  155.6420  133.7390 C   0  0  0  0  0  0  0  0  0  0  0  0
  140.5660  154.4410  133.3670 O   0  0  0  0  0  0  0  0  0  0  0  0
  140.2270  156.6700  132.8280 N   0  0  0  0  0  0  0  0  0  0  0  0
  139.3570  157.7890  133.1700 C   0  0  0  0  0  0  0  0  0  0  0  0
  139.0200  158.5960  131.9180 C   0  0  0  0  0  0  0  0  0  0  0  0
  139.5090  160.0080  132.0320 C   0  0  0  0  0  0  0  0  0  0  0  0
  140.3400  160.3210  132.9250 O   0  0  0  0  0  0  0  0  0  0  0  0
  139.0740  160.9690  131.1290 O   0  0  0  0  0  0  0  0  0  0  0  0
  146.1030  157.9920  133.2570 C   0  0  0  0  0  0  0  0  0  0  0  0
  146.3830  156.6380  133.0410 C   0  0  0  0  0  0  0  0  0  0  0  0
  148.2103  154.3023  133.5692 H   0  0  0  0  0  0  0  0  0  0  0  0
  147.2767  154.3377  132.0349 H   0  0  0  0  0  0  0  0  0  0  0  0
  149.0210  154.7665  132.0349 H   0  0  0  0  0  0  0  0  0  0  0  0
  149.7941  156.9414  132.6928 H   0  0  0  0  0  0  0  0  0  0  0  0
  149.2167  159.3678  133.0227 H   0  0  0  0  0  0  0  0  0  0  0  0
  147.0066  161.1498  133.4074 H   0  0  0  0  0  0  0  0  0  0  0  0
  142.3830  159.7480  133.2890 H   0  0  0  0  0  0  0  0  0  0  0  0
  142.0450  161.4930  133.5200 H   0  0  0  0  0  0  0  0  0  0  0  0
  143.6570  155.4375  136.5940 H   0  0  0  0  0  0  0  0  0  0  0  0
  143.3650  154.5023  135.0884 H   0  0  0  0  0  0  0  0  0  0  0  0
  144.5408  155.8603  135.0884 H   0  0  0  0  0  0  0  0  0  0  0  0
  141.0588  155.0378  135.7431 H   0  0  0  0  0  0  0  0  0  0  0  0
  140.4868  156.7474  135.5497 H   0  0  0  0  0  0  0  0  0  0  0  0
  138.4278  157.4040  133.6153 H   0  0  0  0  0  0  0  0  0  0  0  0
  139.8756  158.4407  133.8886 H   0  0  0  0  0  0  0  0  0  0  0  0
  139.4956  158.1214  131.0470 H   0  0  0  0  0  0  0  0  0  0  0  0
  137.9263  158.6158  131.8017 H   0  0  0  0  0  0  0  0  0  0  0  0
  145.5757  155.8912  133.0167 H   0  0  0  0  0  0  0  0  0  0  0  0
  1  2  1  0
  2  3  2  0
  3  4  1  0
  4  5  2  0
  5  6  1  0
  6  7  2  0
  7  8  1  0
  8  9  1  0
  8 10  2  0
  7 11  1  0
 11 12  1  0
 12 13  2  0
 12 14  1  0
 14 15  2  0
 14 16  1  0
 16 17  1  0
 16 18  1  0
 18 19  1  0
 19 20  2  0
 19 21  1  0
 21 22  1  0
 22 23  1  0
 23 24  1  0
 24 25  2  0
 24 26  1  0
 11 27  1  0
 27 28  2  0
 28  2  1  0
 27  5  1  0
  1 29  1  0
  1 30  1  0
  1 31  1  0
  3 32  1  0
  4 33  1  0
  6 34  1  0
  9 35  1  0
  9 36  1  0
 17 37  1  0
 17 38  1  0
 17 39  1  0
 18 40  1  0
 18 41  1  0
 22 42  1  0
 22 43  1  0
 23 44  1  0
 23 45  1  0
 28 46  1  0
M  CHG  2  21  -1  26  -1
M  END
>  <UniqueID>  (84) 
83

>  <SMILES>  (84) 
Cc1ccc2cc(C(N)=O)n(C(=O)C(=O)N(C)CC(=O)[N-]CCC(=O)[O-])c2c1

>  <Energy>  (84) 
78.70434600963468

>  <Genealogy>  (84) 
Cc1ccc2cc(C(N)=O)n(C(=O)C(=O)N(C)CC(=O)[N-]CCC(=O)[O-])c2c1 (protonated)
Cc1ccc2cc(C(N)=O)n(C(=O)C(=O)N(C)CC(=O)[N-]CCC(=O)[O-])c2c1 (3D coordinates assigned)
Cc1ccc2cc(C(N)=O)n(C(=O)C(=O)N(C)CC(=O)[N-]CCC(=O)[O-])c2c1 (optimized conformer: 78.70434600963468 kcal/mol)

>  <smiles>  (84) 
Cc1ccc2cc(C(N)=O)n(C(=O)C(=O)N(C)CC(=O)NCCC(=O)O)c2c1

>  <score_type>  (84) 
oracle

>  <origin>  (84) 
adg

>  <m_score__min__energy>  (84) 
-6.9199999999999999

>  <m_primary>  (84) 
energy

$$$$
85:0
     RDKit          3D

 39 40  0  0  0  0  0  0  0  0999 V2000
  139.7670  158.1600  135.3090 C   0  0  0  0  0  0  0  0  0  0  0  0
  141.2050  158.4330  135.7460 C   0  0  1  0  0  0  0  0  0  0  0  0
  141.8120  159.3970  134.8320 N   0  0  0  0  0  0  0  0  0  0  0  0
  142.9810  159.1720  134.0330 C   0  0  0  0  0  0  0  0  0  0  0  0
  143.1780  158.0210  133.5630 O   0  0  0  0  0  0  0  0  0  0  0  0
  144.0170  160.2430  133.8080 C   0  0  0  0  0  0  0  0  0  0  0  0
  145.0690  159.7640  132.9200 N   0  0  0  0  0  0  0  0  0  0  0  0
  146.4640  159.8650  133.2250 C   0  0  0  0  0  0  0  0  0  0  0  0
  146.9250  160.9240  133.7320 O   0  0  0  0  0  0  0  0  0  0  0  0
  147.3480  158.7760  132.9190 N   0  0  0  0  0  0  0  0  0  0  0  0
  148.5370  158.8250  132.2530 C   0  0  0  0  0  0  0  0  0  0  0  0
  149.0950  160.0050  131.5640 C   0  0  0  0  0  0  0  0  0  0  0  0
  148.2300  161.0580  131.1430 N   0  0  0  0  0  0  0  0  0  0  0  0
  150.3360  160.1150  131.3730 O   0  0  0  0  0  0  0  0  0  0  0  0
  149.1360  157.5660  132.2310 C   0  0  0  0  0  0  0  0  0  0  0  0
  148.2670  156.7370  132.9020 C   0  0  0  0  0  0  0  0  0  0  0  0
  148.3710  155.3810  133.1970 C   0  0  0  0  0  0  0  0  0  0  0  0
  147.3360  154.7870  133.9390 C   0  0  0  0  0  0  0  0  0  0  0  0
  146.2160  155.5490  134.3620 C   0  0  0  0  0  0  0  0  0  0  0  0
  145.1460  154.9090  135.2110 C   0  0  0  0  0  0  0  0  0  0  0  0
  144.1960  155.8590  135.5370 F   0  0  0  0  0  0  0  0  0  0  0  0
  144.5310  153.8740  134.5280 F   0  0  0  0  0  0  0  0  0  0  0  0
  145.6910  154.3980  136.3750 F   0  0  0  0  0  0  0  0  0  0  0  0
  146.1590  156.9300  134.0620 C   0  0  0  0  0  0  0  0  0  0  0  0
  147.1960  157.4910  133.3070 C   0  0  0  0  0  0  0  0  0  0  0  0
  141.2170  158.9680  137.1500 C   0  0  0  0  0  0  0  0  0  0  0  0
  141.7410  158.2970  138.0760 O   0  0  0  0  0  0  0  0  0  0  0  0
  140.5980  160.1770  137.4450 O   0  0  0  0  0  0  0  0  0  0  0  0
  139.1303  158.0391  136.1979 H   0  0  0  0  0  0  0  0  0  0  0  0
  139.4000  159.0045  134.7072 H   0  0  0  0  0  0  0  0  0  0  0  0
  139.7351  157.2398  134.7072 H   0  0  0  0  0  0  0  0  0  0  0  0
  141.7834  157.4977  135.7208 H   0  0  0  0  0  0  0  0  0  0  0  0
  143.5350  161.1222  133.3555 H   0  0  0  0  0  0  0  0  0  0  0  0
  144.4658  160.5098  134.7762 H   0  0  0  0  0  0  0  0  0  0  0  0
  147.6830  161.6130  131.8390 H   0  0  0  0  0  0  0  0  0  0  0  0
  150.0988  157.2935  131.7742 H   0  0  0  0  0  0  0  0  0  0  0  0
  149.2368  154.7922  132.8597 H   0  0  0  0  0  0  0  0  0  0  0  0
  147.3946  153.7188  134.1950 H   0  0  0  0  0  0  0  0  0  0  0  0
  145.3200  157.5485  134.4135 H   0  0  0  0  0  0  0  0  0  0  0  0
  1  2  1  0
  2  3  1  0
  3  4  1  0
  4  5  2  0
  4  6  1  0
  6  7  1  0
  7  8  1  0
  8  9  2  0
  8 10  1  0
 10 11  1  0
 11 12  1  0
 12 13  1  0
 12 14  2  0
 11 15  2  0
 15 16  1  0
 16 17  2  0
 17 18  1  0
 18 19  2  0
 19 20  1  0
 20 21  1  0
 20 22  1  0
 20 23  1  0
 19 24  1  0
 24 25  2  0
  2 26  1  0
 26 27  2  0
 26 28  1  0
 25 10  1  0
 25 16  1  0
  1 29  1  0
  1 30  1  0
  1 31  1  0
  2 32  1  1
  6 33  1  0
  6 34  1  0
 13 35  1  0
 15 36  1  0
 17 37  1  0
 18 38  1  0
 24 39  1  0
M  CHG  4   3  -1   7  -1  13  -1  28  -1
M  END
>  <UniqueID>  (85) 
84

>  <SMILES>  (85) 
C[C@@H]([N-]C(=O)C[N-]C(=O)n1c(C([NH-])=O)cc2ccc(C(F)(F)F)cc21)C(=O)[O-]

>  <Energy>  (85) 
72.31147252933366

>  <Genealogy>  (85) 
CC([N-]C(=O)C[N-]C(=O)n1c(C([NH-])=O)cc2ccc(C(F)(F)F)cc21)C(=O)[O-] (protonated)
C[C@@H]([N-]C(=O)C[N-]C(=O)n1c(C([NH-])=O)cc2ccc(C(F)(F)F)cc21)C(=O)[O-] (chirality)
C[C@@H]([N-]C(=O)C[N-]C(=O)n1c(C([NH-])=O)cc2ccc(C(F)(F)F)cc21)C(=O)[O-] (3D coordinates assigned)
C[C@@H]([N-]C(=O)C[N-]C(=O)n1c(C([NH-])=O)cc2ccc(C(F)(F)F)cc21)C(=O)[O-] (optimized conformer: 72.31147252933366 kcal/mol)

>  <smiles>  (85) 
CC(NC(=O)CNC(=O)n1c(C(N)=O)cc2ccc(C(F)(F)F)cc21)C(=O)O

>  <score_type>  (85) 
oracle

>  <origin>  (85) 
adg

>  <m_score__min__energy>  (85) 
-7.21

>  <m_primary>  (85) 
energy

$$$$
86:0
     RDKit          3D

 47 48  0  0  0  0  0  0  0  0999 V2000
  148.5870  154.9730  132.6450 C   0  0  0  0  0  0  0  0  0  0  0  0
  148.0180  156.3460  132.8410 C   0  0  0  0  0  0  0  0  0  0  0  0
  148.8590  157.4810  132.7510 C   0  0  0  0  0  0  0  0  0  0  0  0
  148.3320  158.7760  132.9020 C   0  0  0  0  0  0  0  0  0  0  0  0
  146.9640  158.9020  133.1180 C   0  0  0  0  0  0  0  0  0  0  0  0
  146.1970  160.0290  133.3020 C   0  0  0  0  0  0  0  0  0  0  0  0
  144.8940  159.5640  133.4520 C   0  0  0  0  0  0  0  0  0  0  0  0
  143.7240  160.4530  133.5790 C   0  0  0  0  0  0  0  0  0  0  0  0
  142.4490  160.0640  133.0710 N   0  0  0  0  0  0  0  0  0  0  0  0
  143.8630  161.5920  134.0960 O   0  0  0  0  0  0  0  0  0  0  0  0
  144.8550  158.2030  133.3810 N   0  0  0  0  0  0  0  0  0  0  0  0
  143.7310  157.3320  133.5890 C   0  0  0  0  0  0  0  0  0  0  0  0
  142.6750  157.5190  132.9220 O   0  0  0  0  0  0  0  0  0  0  0  0
  143.8720  156.0980  134.4480 C   0  0  0  0  0  0  0  0  0  0  0  0
  142.8790  156.0450  135.6210 C   0  0  0  0  0  0  0  0  0  0  0  0
  141.4550  156.0300  135.1510 C   0  0  0  0  0  0  0  0  0  0  0  0
  141.1050  155.2370  134.2340 O   0  0  0  0  0  0  0  0  0  0  0  0
  140.5110  156.9330  135.7380 N   0  0  0  0  0  0  0  0  0  0  0  0
  140.6360  158.3870  135.7020 C   0  0  0  0  0  0  0  0  0  0  0  0
  139.9860  158.9620  134.4330 C   0  0  0  0  0  0  0  0  0  0  0  0
  139.8210  157.9310  133.3970 N   0  0  0  0  0  0  0  0  0  0  0  0
  139.9380  158.4720  132.0300 C   0  0  0  0  0  0  0  0  0  0  0  0
  139.2350  159.7910  131.9390 C   0  0  0  0  0  0  0  0  0  0  0  0
  139.8440  160.8550  132.2310 O   0  0  0  0  0  0  0  0  0  0  0  0
  137.9270  159.8560  131.4750 O   0  0  0  0  0  0  0  0  0  0  0  0
  146.1310  157.8140  133.1710 C   0  0  0  0  0  0  0  0  0  0  0  0
  146.6300  156.5130  133.0440 C   0  0  0  0  0  0  0  0  0  0  0  0
  148.7781  154.5119  133.6253 H   0  0  0  0  0  0  0  0  0  0  0  0
  147.8705  154.3560  132.0830 H   0  0  0  0  0  0  0  0  0  0  0  0
  149.5299  155.0437  132.0830 H   0  0  0  0  0  0  0  0  0  0  0  0
  149.9344  157.3489  132.5613 H   0  0  0  0  0  0  0  0  0  0  0  0
  148.9818  159.6620  132.8508 H   0  0  0  0  0  0  0  0  0  0  0  0
  146.5401  161.0739  133.3255 H   0  0  0  0  0  0  0  0  0  0  0  0
  142.3560  159.2230  132.4610 H   0  0  0  0  0  0  0  0  0  0  0  0
  141.6160  160.6740  133.2150 H   0  0  0  0  0  0  0  0  0  0  0  0
  143.7090  155.2135  133.8147 H   0  0  0  0  0  0  0  0  0  0  0  0
  144.8822  156.1224  134.8826 H   0  0  0  0  0  0  0  0  0  0  0  0
  143.0694  155.1335  136.2066 H   0  0  0  0  0  0  0  0  0  0  0  0
  143.0258  156.9480  136.2317 H   0  0  0  0  0  0  0  0  0  0  0  0
  140.1391  158.8132  136.5860 H   0  0  0  0  0  0  0  0  0  0  0  0
  141.7046  158.6480  135.6988 H   0  0  0  0  0  0  0  0  0  0  0  0
  138.9978  159.3705  134.6913 H   0  0  0  0  0  0  0  0  0  0  0  0
  140.6433  159.7490  134.0349 H   0  0  0  0  0  0  0  0  0  0  0  0
  140.5970  157.2390  133.5320 H   0  0  0  0  0  0  0  0  0  0  0  0
  141.0010  158.6079  131.7818 H   0  0  0  0  0  0  0  0  0  0  0  0
  139.4767  157.7675  131.3223 H   0  0  0  0  0  0  0  0  0  0  0  0
  145.9591  155.6431  133.1007 H   0  0  0  0  0  0  0  0  0  0  0  0
  1  2  1  0
  2  3  2  0
  3  4  1  0
  4  5  2  0
  5  6  1  0
  6  7  2  0
  7  8  1  0
  8  9  1  0
  8 10  2  0
  7 11  1  0
 11 12  1  0
 12 13  2  0
 12 14  1  0
 14 15  1  0
 15 16  1  0
 16 17  2  0
 16 18  1  0
 18 19  1  0
 19 20  1  0
 20 21  1  0
 21 22  1  0
 22 23  1  0
 23 24  2  0
 23 25  1  0
 11 26  1  0
 26 27  2  0
 27  2  1  0
 26  5  1  0
  1 28  1  0
  1 29  1  0
  1 30  1  0
  3 31  1  0
  4 32  1  0
  6 33  1  0
  9 34  1  0
  9 35  1  0
 14 36  1  0
 14 37  1  0
 15 38  1  0
 15 39  1  0
 19 40  1  0
 19 41  1  0
 20 42  1  0
 20 43  1  0
 21 44  1  0
 22 45  1  0
 22 46  1  0
 27 47  1  0
M  CHG  2  18  -1  25  -1
M  END
>  <UniqueID>  (86) 
85

>  <SMILES>  (86) 
Cc1ccc2cc(C(N)=O)n(C(=O)CCC(=O)[N-]CCNCC(=O)[O-])c2c1

>  <Energy>  (86) 
81.11917781692061

>  <Genealogy>  (86) 
Cc1ccc2cc(C(N)=O)n(C(=O)CCC(=O)[N-]CCNCC(=O)[O-])c2c1 (protonated)
Cc1ccc2cc(C(N)=O)n(C(=O)CCC(=O)[N-]CCNCC(=O)[O-])c2c1 (3D coordinates assigned)
Cc1ccc2cc(C(N)=O)n(C(=O)CCC(=O)[N-]CCNCC(=O)[O-])c2c1 (optimized conformer: 81.11917781692061 kcal/mol)

>  <smiles>  (86) 
Cc1ccc2cc(C(N)=O)n(C(=O)CCC(=O)NCCNCC(=O)O)c2c1

>  <score_type>  (86) 
oracle

>  <origin>  (86) 
adg

>  <m_score__min__energy>  (86) 
-6.4699999999999998

>  <m_primary>  (86) 
energy

$$$$
87:0
     RDKit          3D

 32 33  0  0  0  0  0  0  0  0999 V2000
  144.8500  154.4320  135.0160 N   0  0  0  0  0  0  0  0  0  0  0  0
  144.4810  155.8000  134.8570 C   0  0  0  0  0  0  0  0  0  0  0  0
  143.3780  156.1980  135.3150 O   0  0  0  0  0  0  0  0  0  0  0  0
  145.3730  156.7210  134.1220 C   0  0  0  0  0  0  0  0  0  0  0  0
  144.9390  157.9210  133.5610 C   0  0  0  0  0  0  0  0  0  0  0  0
  146.0710  158.5190  133.0580 C   0  0  0  0  0  0  0  0  0  0  0  0
  146.2210  159.7270  132.3820 C   0  0  0  0  0  0  0  0  0  0  0  0
  147.5080  160.0850  131.9490 C   0  0  0  0  0  0  0  0  0  0  0  0
  148.6160  159.2390  132.2040 C   0  0  0  0  0  0  0  0  0  0  0  0
  149.9760  159.6090  131.6940 C   0  0  0  0  0  0  0  0  0  0  0  0
  149.9120  160.8290  131.0470 F   0  0  0  0  0  0  0  0  0  0  0  0
  148.4240  158.0140  132.8800 C   0  0  0  0  0  0  0  0  0  0  0  0
  147.1330  157.6900  133.3150 C   0  0  0  0  0  0  0  0  0  0  0  0
  146.7200  156.5790  133.9640 N   0  0  0  0  0  0  0  0  0  0  0  0
  147.5420  155.4650  134.3480 C   0  0  0  0  0  0  0  0  0  0  0  0
  148.1610  154.8050  133.4710 O   0  0  0  0  0  0  0  0  0  0  0  0
  147.6690  155.1330  135.7000 O   0  0  0  0  0  0  0  0  0  0  0  0
  147.9830  153.8170  136.1460 C   0  0  0  0  0  0  0  0  0  0  0  0
  147.0020  153.3680  137.0530 O   0  0  0  0  0  0  0  0  0  0  0  0
  147.7360  153.0620  138.5630 P   0  0  0  0  0  0  0  0  0  0  0  0
  149.2260  153.3050  138.4710 O   0  0  0  0  0  0  0  0  0  0  0  0
  147.4530  151.4670  139.0530 O   0  0  0  0  0  0  0  0  0  0  0  0
  147.0780  154.1120  139.7130 O   0  0  0  0  0  0  0  0  0  0  0  0
  145.7480  154.1680  135.4810 H   0  0  0  0  0  0  0  0  0  0  0  0
  143.9097  158.3077  133.5276 H   0  0  0  0  0  0  0  0  0  0  0  0
  145.3572  160.3813  132.1928 H   0  0  0  0  0  0  0  0  0  0  0  0
  147.6574  161.0305  131.4071 H   0  0  0  0  0  0  0  0  0  0  0  0
  150.6773  159.6787  132.5386 H   0  0  0  0  0  0  0  0  0  0  0  0
  150.3240  158.8393  130.9894 H   0  0  0  0  0  0  0  0  0  0  0  0
  149.2675  157.3314  133.0603 H   0  0  0  0  0  0  0  0  0  0  0  0
  148.0176  153.1380  135.2813 H   0  0  0  0  0  0  0  0  0  0  0  0
  148.9609  153.8303  136.6495 H   0  0  0  0  0  0  0  0  0  0  0  0
  1  2  1  0
  2  3  2  0
  2  4  1  0
  4  5  2  0
  5  6  1  0
  6  7  2  0
  7  8  1  0
  8  9  2  0
  9 10  1  0
 10 11  1  0
  9 12  1  0
 12 13  2  0
 13 14  1  0
 14 15  1  0
 15 16  2  0
 15 17  1  0
 17 18  1  0
 18 19  1  0
 19 20  1  0
 20 21  2  0
 20 22  1  0
 20 23  1  0
 14  4  1  0
 13  6  1  0
  1 24  1  0
  5 25  1  0
  7 26  1  0
  8 27  1  0
 10 28  1  0
 10 29  1  0
 12 30  1  0
 18 31  1  0
 18 32  1  0
M  CHG  3   1  -1  22  -1  23  -1
M  END
>  <UniqueID>  (87) 
86

>  <SMILES>  (87) 
[NH-]C(=O)c1cc2ccc(CF)cc2n1C(=O)OCOP(=O)([O-])[O-]

>  <Energy>  (87) 
68.20403390011957

>  <Genealogy>  (87) 
[NH-]C(=O)c1cc2ccc(CF)cc2n1C(=O)OCOP(=O)([O-])[O-] (protonated)
[NH-]C(=O)c1cc2ccc(CF)cc2n1C(=O)OCOP(=O)([O-])[O-] (3D coordinates assigned)
[NH-]C(=O)c1cc2ccc(CF)cc2n1C(=O)OCOP(=O)([O-])[O-] (optimized conformer: 68.20403390011957 kcal/mol)

>  <smiles>  (87) 
NC(=O)c1cc2ccc(CF)cc2n1C(=O)OCOP(=O)(O)O

>  <score_type>  (87) 
oracle

>  <origin>  (87) 
adg

>  <m_score__min__energy>  (87) 
-6.2400000000000002

>  <m_primary>  (87) 
energy

$$$$
88:0
     RDKit          3D

 43 45  0  0  0  0  0  0  0  0999 V2000
  148.9940  156.7870  132.6090 N   0  0  0  0  0  0  0  0  0  0  0  0
  148.5100  158.0550  132.1770 C   0  0  0  0  0  0  0  0  0  0  0  0
  149.1810  158.7200  131.3440 O   0  0  0  0  0  0  0  0  0  0  0  0
  147.2190  158.5650  132.6880 C   0  0  0  0  0  0  0  0  0  0  0  0
  146.8960  159.9180  132.7570 C   0  0  0  0  0  0  0  0  0  0  0  0
  145.6470  159.9660  133.3330 C   0  0  0  0  0  0  0  0  0  0  0  0
  144.8350  161.0590  133.6200 C   0  0  0  0  0  0  0  0  0  0  0  0
  143.5730  160.8100  134.1860 C   0  0  0  0  0  0  0  0  0  0  0  0
  143.1490  159.4850  134.4530 C   0  0  0  0  0  0  0  0  0  0  0  0
  141.7740  159.2320  135.0100 C   0  0  0  0  0  0  0  0  0  0  0  0
  140.8760  158.7460  133.9460 N   0  0  0  0  0  0  0  0  0  0  0  0
  140.5860  157.4110  133.8990 C   0  0  0  0  0  0  0  0  0  0  0  0
  139.7160  156.9040  132.9370 C   0  0  0  0  0  0  0  0  0  0  0  0
  139.1300  157.7680  132.0200 C   0  0  0  0  0  0  0  0  0  0  0  0
  139.4100  159.1440  132.0610 C   0  0  0  0  0  0  0  0  0  0  0  0
  138.7650  160.0520  131.0760 C   0  0  0  0  0  0  0  0  0  0  0  0
  137.5700  160.4170  131.2310 O   0  0  0  0  0  0  0  0  0  0  0  0
  139.4640  160.5190  129.9670 O   0  0  0  0  0  0  0  0  0  0  0  0
  140.3020  159.6180  133.0510 C   0  0  0  0  0  0  0  0  0  0  0  0
  140.5740  160.8480  133.1120 O   0  0  0  0  0  0  0  0  0  0  0  0
  143.9980  158.4010  134.1400 C   0  0  0  0  0  0  0  0  0  0  0  0
  145.2550  158.6780  133.5920 C   0  0  0  0  0  0  0  0  0  0  0  0
  146.2110  157.8060  133.2020 N   0  0  0  0  0  0  0  0  0  0  0  0
  146.1390  156.3720  133.2550 C   0  0  0  0  0  0  0  0  0  0  0  0
  146.3300  155.7030  132.2030 O   0  0  0  0  0  0  0  0  0  0  0  0
  145.9570  155.6650  134.5670 C   0  0  0  0  0  0  0  0  0  0  0  0
  146.8480  154.0750  134.6060 P   0  0  2  0  0  0  0  0  0  0  0  0
  145.9910  153.0130  133.9570 O   0  0  0  0  0  0  0  0  0  0  0  0
  147.1540  153.6340  136.2110 O   0  0  0  0  0  0  0  0  0  0  0  0
  148.3120  154.1950  133.7670 O   0  0  0  0  0  0  0  0  0  0  0  0
  148.4810  155.9070  132.3750 H   0  0  0  0  0  0  0  0  0  0  0  0
  147.5090  160.7678  132.4222 H   0  0  0  0  0  0  0  0  0  0  0  0
  145.1703  162.0855  133.4105 H   0  0  0  0  0  0  0  0  0  0  0  0
  142.9075  161.6528  134.4242 H   0  0  0  0  0  0  0  0  0  0  0  0
  141.8377  158.4752  135.8057 H   0  0  0  0  0  0  0  0  0  0  0  0
  141.3728  160.1717  135.4174 H   0  0  0  0  0  0  0  0  0  0  0  0
  141.0453  156.7290  134.6298 H   0  0  0  0  0  0  0  0  0  0  0  0
  139.4943  155.8271  132.9033 H   0  0  0  0  0  0  0  0  0  0  0  0
  138.4429  157.3723  131.2576 H   0  0  0  0  0  0  0  0  0  0  0  0
  143.6789  157.3643  134.3226 H   0  0  0  0  0  0  0  0  0  0  0  0
  146.3389  156.3075  135.3741 H   0  0  0  0  0  0  0  0  0  0  0  0
  144.8845  155.4602  134.7001 H   0  0  0  0  0  0  0  0  0  0  0  0
  148.1440  154.8640  133.0570 H   0  0  0  0  0  0  0  0  0  0  0  0
  1  2  1  0
  2  3  2  0
  2  4  1  0
  4  5  2  0
  5  6  1  0
  6  7  2  0
  7  8  1  0
  8  9  2  0
  9 10  1  0
 10 11  1  0
 11 12  1  0
 12 13  2  0
 13 14  1  0
 14 15  2  0
 15 16  1  0
 16 17  2  0
 16 18  1  0
 15 19  1  0
 19 20  2  0
  9 21  1  0
 21 22  2  0
 22 23  1  0
 23 24  1  0
 24 25  2  0
 24 26  1  0
 26 27  1  0
 27 28  2  0
 27 29  1  1
 27 30  1  0
 23  4  1  0
 22  6  1  0
 19 11  1  0
  1 31  1  0
  5 32  1  0
  7 33  1  0
  8 34  1  0
 10 35  1  0
 10 36  1  0
 12 37  1  0
 13 38  1  0
 14 39  1  0
 21 40  1  0
 26 41  1  0
 26 42  1  0
 30 43  1  0
M  CHG  3   1  -1  18  -1  29  -1
M  END
>  <UniqueID>  (88) 
87

>  <SMILES>  (88) 
[NH-]C(=O)c1cc2ccc(Cn3cccc(C(=O)[O-])c3=O)cc2n1C(=O)C[P@](=O)([O-])O

>  <Energy>  (88) 
83.23452121894941

>  <Genealogy>  (88) 
[NH-]C(=O)c1cc2ccc(Cn3cccc(C(=O)[O-])c3=O)cc2n1C(=O)CP(=O)([O-])O (protonated)
[NH-]C(=O)c1cc2ccc(Cn3cccc(C(=O)[O-])c3=O)cc2n1C(=O)C[P@](=O)([O-])O (chirality)
[NH-]C(=O)c1cc2ccc(Cn3cccc(C(=O)[O-])c3=O)cc2n1C(=O)C[P@](=O)([O-])O (3D coordinates assigned)
[NH-]C(=O)c1cc2ccc(Cn3cccc(C(=O)[O-])c3=O)cc2n1C(=O)C[P@](=O)([O-])O (optimized conformer: 83.23452121894941 kcal/mol)

>  <smiles>  (88) 
NC(=O)c1cc2ccc(Cn3cccc(C(=O)O)c3=O)cc2n1C(=O)CP(=O)(O)O

>  <score_type>  (88) 
oracle

>  <origin>  (88) 
adg

>  <m_score__min__energy>  (88) 
-7.4900000000000002

>  <m_primary>  (88) 
energy

$$$$
89:0
     RDKit          3D

 35 36  0  0  0  0  0  0  0  0999 V2000
  142.6570  161.1620  133.6840 N   0  0  0  0  0  0  0  0  0  0  0  0
  144.0600  161.4030  133.7330 C   0  0  0  0  0  0  0  0  0  0  0  0
  144.4780  162.5760  133.9290 O   0  0  0  0  0  0  0  0  0  0  0  0
  145.0280  160.2970  133.5880 C   0  0  0  0  0  0  0  0  0  0  0  0
  146.4020  160.4800  133.4380 C   0  0  0  0  0  0  0  0  0  0  0  0
  146.9360  159.2100  133.3770 C   0  0  0  0  0  0  0  0  0  0  0  0
  148.2500  158.7960  133.1870 C   0  0  0  0  0  0  0  0  0  0  0  0
  148.5010  157.4150  133.1100 C   0  0  0  0  0  0  0  0  0  0  0  0
  147.4420  156.4760  133.2360 C   0  0  0  0  0  0  0  0  0  0  0  0
  147.7110  155.0020  133.0800 C   0  0  0  0  0  0  0  0  0  0  0  0
  147.9790  154.4190  134.3070 F   0  0  0  0  0  0  0  0  0  0  0  0
  146.6140  154.3630  132.5280 F   0  0  0  0  0  0  0  0  0  0  0  0
  148.8000  154.8230  132.2480 F   0  0  0  0  0  0  0  0  0  0  0  0
  146.1190  156.9400  133.4090 C   0  0  0  0  0  0  0  0  0  0  0  0
  145.9040  158.3190  133.4920 C   0  0  0  0  0  0  0  0  0  0  0  0
  144.7290  158.9690  133.6190 N   0  0  0  0  0  0  0  0  0  0  0  0
  143.4350  158.3540  133.6640 C   0  0  0  0  0  0  0  0  0  0  0  0
  142.7600  158.2430  132.6050 O   0  0  0  0  0  0  0  0  0  0  0  0
  142.8260  157.9650  134.9760 C   0  0  0  0  0  0  0  0  0  0  0  0
  141.9050  158.9560  135.3870 O   0  0  0  0  0  0  0  0  0  0  0  0
  140.6120  158.4050  135.5310 C   0  0  0  0  0  0  0  0  0  0  0  0
  139.9460  158.3280  134.1610 C   0  0  0  0  0  0  0  0  0  0  0  0
  140.2600  159.4620  133.4010 O   0  0  0  0  0  0  0  0  0  0  0  0
  142.2800  160.1890  133.6230 H   0  0  0  0  0  0  0  0  0  0  0  0
  146.9450  161.4349  133.3805 H   0  0  0  0  0  0  0  0  0  0  0  0
  149.0677  159.5266  133.0997 H   0  0  0  0  0  0  0  0  0  0  0  0
  149.5289  157.0572  132.9504 H   0  0  0  0  0  0  0  0  0  0  0  0
  145.2785  156.2336  133.4767 H   0  0  0  0  0  0  0  0  0  0  0  0
  142.3033  157.0034  134.8656 H   0  0  0  0  0  0  0  0  0  0  0  0
  143.6196  157.8697  135.7317 H   0  0  0  0  0  0  0  0  0  0  0  0
  140.6878  157.3953  135.9608 H   0  0  0  0  0  0  0  0  0  0  0  0
  140.0115  159.0395  136.1995 H   0  0  0  0  0  0  0  0  0  0  0  0
  140.3014  157.4295  133.6352 H   0  0  0  0  0  0  0  0  0  0  0  0
  138.8554  158.2801  134.2966 H   0  0  0  0  0  0  0  0  0  0  0  0
  141.2480  159.5580  133.4280 H   0  0  0  0  0  0  0  0  0  0  0  0
  1  2  1  0
  2  3  2  0
  2  4  1  0
  4  5  2  0
  5  6  1  0
  6  7  2  0
  7  8  1  0
  8  9  2  0
  9 10  1  0
 10 11  1  0
 10 12  1  0
 10 13  1  0
  9 14  1  0
 14 15  2  0
 15 16  1  0
 16 17  1  0
 17 18  2  0
 17 19  1  0
 19 20  1  0
 20 21  1  0
 21 22  1  0
 22 23  1  0
 16  4  1  0
 15  6  1  0
  1 24  1  0
  5 25  1  0
  7 26  1  0
  8 27  1  0
 14 28  1  0
 19 29  1  0
 19 30  1  0
 21 31  1  0
 21 32  1  0
 22 33  1  0
 22 34  1  0
 23 35  1  0
M  CHG  1   1  -1
M  END
>  <UniqueID>  (89) 
88

>  <SMILES>  (89) 
[NH-]C(=O)c1cc2ccc(C(F)(F)F)cc2n1C(=O)COCCO

>  <Energy>  (89) 
73.37933133083621

>  <Genealogy>  (89) 
[NH-]C(=O)c1cc2ccc(C(F)(F)F)cc2n1C(=O)COCCO (protonated)
[NH-]C(=O)c1cc2ccc(C(F)(F)F)cc2n1C(=O)COCCO (3D coordinates assigned)
[NH-]C(=O)c1cc2ccc(C(F)(F)F)cc2n1C(=O)COCCO (optimized conformer: 73.37933133083621 kcal/mol)

>  <smiles>  (89) 
NC(=O)c1cc2ccc(C(F)(F)F)cc2n1C(=O)COCCO

>  <score_type>  (89) 
oracle

>  <origin>  (89) 
adg

>  <m_score__min__energy>  (89) 
-5.0800000000000001

>  <m_primary>  (89) 
energy

$$$$
90:0
     RDKit          3D

 43 44  0  0  0  0  0  0  0  0999 V2000
  142.5580  158.0660  133.0270 H   0  0  0  0  0  0  0  0  0  0  0  0
  142.0250  157.2570  132.8100 O   0  0  0  0  0  0  0  0  0  0  0  0
  140.9150  157.2820  133.6640 C   0  0  0  0  0  0  0  0  0  0  0  0
  140.4777  156.2743  133.7211 H   0  0  0  0  0  0  0  0  0  0  0  0
  140.1733  157.9912  133.2680 H   0  0  0  0  0  0  0  0  0  0  0  0
  141.3370  157.7310  135.0670 C   0  0  1  0  0  0  0  0  0  0  0  0
  140.8712  157.0669  135.8099 H   0  0  0  0  0  0  0  0  0  0  0  0
  142.7360  157.6620  135.1620 O   0  0  0  0  0  0  0  0  0  0  0  0
  143.1040  158.2750  134.4720 H   0  0  0  0  0  0  0  0  0  0  0  0
  140.8670  159.1630  135.3530 C   0  0  0  0  0  0  0  0  0  0  0  0
  140.4220  159.2078  136.3580 H   0  0  0  0  0  0  0  0  0  0  0  0
  140.1175  159.4566  134.6033 H   0  0  0  0  0  0  0  0  0  0  0  0
  141.9750  160.0550  135.2860 O   0  0  0  0  0  0  0  0  0  0  0  0
  142.6020  160.3840  134.0840 C   0  0  0  0  0  0  0  0  0  0  0  0
  142.0390  160.1430  132.9810 O   0  0  0  0  0  0  0  0  0  0  0  0
  143.9130  161.0480  134.1220 C   0  0  0  0  0  0  0  0  0  0  0  0
  143.9733  162.0284  134.6171 H   0  0  0  0  0  0  0  0  0  0  0  0
  145.0420  160.5460  133.5970 C   0  0  0  0  0  0  0  0  0  0  0  0
  145.9169  161.2112  133.5524 H   0  0  0  0  0  0  0  0  0  0  0  0
  145.2070  159.1710  133.0730 C   0  0  0  0  0  0  0  0  0  0  0  0
  144.1920  158.5750  132.6280 O   0  0  0  0  0  0  0  0  0  0  0  0
  146.4910  158.5210  133.0090 N   0  0  0  0  0  0  0  0  0  0  0  0
  146.8420  157.3000  133.5050 C   0  0  0  0  0  0  0  0  0  0  0  0
  145.9830  156.4340  134.3390 C   0  0  0  0  0  0  0  0  0  0  0  0
  146.4990  155.6590  135.1860 O   0  0  0  0  0  0  0  0  0  0  0  0
  144.5630  156.4480  134.1810 N   0  0  0  0  0  0  0  0  0  0  0  0
  143.9660  155.8130  134.7550 H   0  0  0  0  0  0  0  0  0  0  0  0
  144.0970  157.1180  133.5290 H   0  0  0  0  0  0  0  0  0  0  0  0
  148.1640  157.0020  133.1780 C   0  0  0  0  0  0  0  0  0  0  0  0
  148.7238  156.0892  133.4297 H   0  0  0  0  0  0  0  0  0  0  0  0
  148.6200  158.0930  132.4730 C   0  0  0  0  0  0  0  0  0  0  0  0
  149.8670  158.3330  131.9020 C   0  0  0  0  0  0  0  0  0  0  0  0
  150.6819  157.5992  131.9889 H   0  0  0  0  0  0  0  0  0  0  0  0
  150.0510  159.5430  131.2110 C   0  0  0  0  0  0  0  0  0  0  0  0
  151.0280  159.7692  130.7591 H   0  0  0  0  0  0  0  0  0  0  0  0
  148.9900  160.4740  131.0910 C   0  0  0  0  0  0  0  0  0  0  0  0
  149.2090  161.7720  130.3750 C   0  0  0  0  0  0  0  0  0  0  0  0
  149.3450  162.5782  131.1108 H   0  0  0  0  0  0  0  0  0  0  0  0
  150.1070  161.6959  129.7443 H   0  0  0  0  0  0  0  0  0  0  0  0
  148.3357  161.9947  129.7443 H   0  0  0  0  0  0  0  0  0  0  0  0
  147.7450  160.2030  131.6970 C   0  0  0  0  0  0  0  0  0  0  0  0
  146.9146  160.9208  131.6255 H   0  0  0  0  0  0  0  0  0  0  0  0
  147.5940  158.9980  132.3910 C   0  0  0  0  0  0  0  0  0  0  0  0
  1  2  1  0
  2  3  1  0
  3  4  1  0
  3  5  1  0
  3  6  1  0
  6  7  1  1
  6  8  1  0
  8  9  1  0
  6 10  1  0
 10 11  1  0
 10 12  1  0
 10 13  1  0
 13 14  1  0
 14 15  2  0
 14 16  1  0
 16 17  1  0
 16 18  2  0
 18 19  1  0
 18 20  1  0
 20 21  2  0
 20 22  1  0
 22 23  1  0
 23 24  1  0
 24 25  2  0
 24 26  1  0
 26 27  1  0
 26 28  1  0
 23 29  2  0
 29 30  1  0
 29 31  1  0
 31 32  2  0
 32 33  1  0
 32 34  1  0
 34 35  1  0
 34 36  2  0
 36 37  1  0
 37 38  1  0
 37 39  1  0
 37 40  1  0
 36 41  1  0
 41 42  1  0
 41 43  2  0
 43 22  1  0
 43 31  1  0
M  END
>  <UniqueID>  (90) 
89

>  <SMILES>  (90) 
Cc1ccc2cc(C(N)=O)n(C(=O)/C=C\C(=O)OC[C@H](O)CO)c2c1

>  <Energy>  (90) 
79.55775827200962

>  <Genealogy>  (90) 
Cc1ccc2cc(C(N)=O)n(C(=O)/C=C\C(=O)OC[C@H](O)CO)c2c1 (chirality)
Cc1ccc2cc(C(N)=O)n(C(=O)/C=C\C(=O)OC[C@H](O)CO)c2c1 (cis-trans isomerization)
Cc1ccc2cc(C(N)=O)n(C(=O)/C=C\C(=O)OC[C@H](O)CO)c2c1 (3D coordinates assigned)
Cc1ccc2cc(C(N)=O)n(C(=O)/C=C\C(=O)OC[C@H](O)CO)c2c1 (optimized conformer: 79.55775827200962 kcal/mol)

>  <smiles>  (90) 
Cc1ccc2cc(C(N)=O)n(C(=O)/C=C\C(=O)OCC(O)CO)c2c1

>  <score_type>  (90) 
oracle

>  <origin>  (90) 
adg

>  <m_score__min__energy>  (90) 
-5.6699999999999999

>  <m_primary>  (90) 
energy

$$$$
91:0
     RDKit          3D

 50 52  0  0  0  0  0  0  0  0999 V2000
  140.4630  157.8250  134.3030 C   0  0  0  0  0  0  0  0  0  0  0  0
  141.7750  158.5280  134.1460 C   0  0  0  0  0  0  0  0  0  0  0  0
  141.8020  159.9290  133.9380 C   0  0  0  0  0  0  0  0  0  0  0  0
  143.0210  160.5990  133.7290 C   0  0  0  0  0  0  0  0  0  0  0  0
  144.1890  159.8430  133.7330 C   0  0  0  0  0  0  0  0  0  0  0  0
  145.4960  160.2250  133.5230 C   0  0  0  0  0  0  0  0  0  0  0  0
  146.2430  159.0480  133.6100 C   0  0  0  0  0  0  0  0  0  0  0  0
  147.7150  158.9740  133.4710 C   0  0  0  0  0  0  0  0  0  0  0  0
  148.4390  157.8370  133.9490 N   0  0  0  0  0  0  0  0  0  0  0  0
  148.3460  159.9160  132.9230 O   0  0  0  0  0  0  0  0  0  0  0  0
  145.4280  157.9890  133.8670 N   0  0  0  0  0  0  0  0  0  0  0  0
  145.7900  156.6040  133.9410 C   0  0  0  0  0  0  0  0  0  0  0  0
  146.1100  156.1100  135.0590 O   0  0  0  0  0  0  0  0  0  0  0  0
  145.7640  155.7720  132.7610 N   0  0  0  0  0  0  0  0  0  0  0  0
  144.5710  154.9710  132.4610 C   0  0  0  0  0  0  0  0  0  0  0  0
  146.9500  155.6810  131.8970 C   0  0  0  0  0  0  0  0  0  0  0  0
  148.0450  154.9540  132.6080 C   0  0  0  0  0  0  0  0  0  0  0  0
  148.9240  155.6050  133.2370 O   0  0  0  0  0  0  0  0  0  0  0  0
  148.0640  153.5550  132.5930 O   0  0  0  0  0  0  0  0  0  0  0  0
  148.5420  152.7780  133.6900 C   0  0  0  0  0  0  0  0  0  0  0  0
  149.1930  151.4660  133.2060 C   0  0  0  0  0  0  0  0  0  0  0  0
  149.9620  150.7290  134.3130 C   0  0  0  0  0  0  0  0  0  0  0  0
  149.9600  151.5840  131.9000 C   0  0  0  0  0  0  0  0  0  0  0  0
  149.0530  150.7460  131.2170 O   0  0  0  0  0  0  0  0  0  0  0  0
  148.2850  150.5640  132.3860 C   0  0  0  0  0  0  0  0  0  0  0  0
  144.1770  158.4870  133.9380 C   0  0  0  0  0  0  0  0  0  0  0  0
  142.9800  157.7900  134.1310 C   0  0  0  0  0  0  0  0  0  0  0  0
  140.2375  157.7042  135.3728 H   0  0  0  0  0  0  0  0  0  0  0  0
  139.6694  158.4187  133.8258 H   0  0  0  0  0  0  0  0  0  0  0  0
  140.5178  156.8354  133.8258 H   0  0  0  0  0  0  0  0  0  0  0  0
  140.8608  160.4983  133.9400 H   0  0  0  0  0  0  0  0  0  0  0  0
  143.0499  161.6867  133.5674 H   0  0  0  0  0  0  0  0  0  0  0  0
  145.8712  161.2405  133.3283 H   0  0  0  0  0  0  0  0  0  0  0  0
  147.9700  157.0880  134.5070 H   0  0  0  0  0  0  0  0  0  0  0  0
  149.4700  157.7620  133.7930 H   0  0  0  0  0  0  0  0  0  0  0  0
  144.0970  154.6528  133.4013 H   0  0  0  0  0  0  0  0  0  0  0  0
  143.8603  155.5756  131.8785 H   0  0  0  0  0  0  0  0  0  0  0  0
  144.8616  154.0843  131.8785 H   0  0  0  0  0  0  0  0  0  0  0  0
  146.6895  155.1377  130.9767 H   0  0  0  0  0  0  0  0  0  0  0  0
  147.2932  156.6956  131.6464 H   0  0  0  0  0  0  0  0  0  0  0  0
  149.2882  153.3644  134.2462 H   0  0  0  0  0  0  0  0  0  0  0  0
  147.6873  152.5244  134.3344 H   0  0  0  0  0  0  0  0  0  0  0  0
  149.6060  151.0702  135.2963 H   0  0  0  0  0  0  0  0  0  0  0  0
  149.7939  149.6461  134.2177 H   0  0  0  0  0  0  0  0  0  0  0  0
  151.0368  150.9430  134.2177 H   0  0  0  0  0  0  0  0  0  0  0  0
  149.9947  152.6091  131.5026 H   0  0  0  0  0  0  0  0  0  0  0  0
  151.0311  151.3340  131.8861 H   0  0  0  0  0  0  0  0  0  0  0  0
  147.2555  150.9411  132.2978 H   0  0  0  0  0  0  0  0  0  0  0  0
  148.0874  149.5416  132.7406 H   0  0  0  0  0  0  0  0  0  0  0  0
  142.9766  156.6985  134.2672 H   0  0  0  0  0  0  0  0  0  0  0  0
  1  2  1  0
  2  3  2  0
  3  4  1  0
  4  5  2  0
  5  6  1  0
  6  7  2  0
  7  8  1  0
  8  9  1  0
  8 10  2  0
  7 11  1  0
 11 12  1  0
 12 13  2  0
 12 14  1  0
 14 15  1  0
 14 16  1  0
 16 17  1  0
 17 18  2  0
 17 19  1  0
 19 20  1  0
 20 21  1  0
 21 22  1  0
 21 23  1  0
 23 24  1  0
 24 25  1  0
 11 26  1  0
 26 27  2  0
 27  2  1  0
 26  5  1  0
 25 21  1  0
  1 28  1  0
  1 29  1  0
  1 30  1  0
  3 31  1  0
  4 32  1  0
  6 33  1  0
  9 34  1  0
  9 35  1  0
 15 36  1  0
 15 37  1  0
 15 38  1  0
 16 39  1  0
 16 40  1  0
 20 41  1  0
 20 42  1  0
 22 43  1  0
 22 44  1  0
 22 45  1  0
 23 46  1  0
 23 47  1  0
 25 48  1  0
 25 49  1  0
 27 50  1  0
M  END
>  <UniqueID>  (91) 
90

>  <SMILES>  (91) 
Cc1ccc2cc(C(N)=O)n(C(=O)N(C)CC(=O)OCC3(C)COC3)c2c1

>  <Energy>  (91) 
146.33564468936487

>  <Genealogy>  (91) 
Cc1ccc2cc(C(N)=O)n(C(=O)N(C)CC(=O)OCC3(C)COC3)c2c1 (3D coordinates assigned)
Cc1ccc2cc(C(N)=O)n(C(=O)N(C)CC(=O)OCC3(C)COC3)c2c1 (nonaromatic ring conformer: 146.33564468936487 kcal/mol)

>  <smiles>  (91) 
Cc1ccc2cc(C(N)=O)n(C(=O)N(C)CC(=O)OCC3(C)COC3)c2c1

>  <score_type>  (91) 
oracle

>  <origin>  (91) 
adg

>  <m_score__min__energy>  (91) 
-7.7800000000000002

>  <m_primary>  (91) 
energy

$$$$
92:0
     RDKit          3D

 38 40  0  0  0  0  0  0  0  0999 V2000
  142.9760  161.0440  133.4320 N   0  0  0  0  0  0  0  0  0  0  0  0
  144.3590  161.2170  133.7380 C   0  0  0  0  0  0  0  0  0  0  0  0
  144.7590  162.3270  134.1760 O   0  0  0  0  0  0  0  0  0  0  0  0
  145.3070  160.1090  133.4970 C   0  0  0  0  0  0  0  0  0  0  0  0
  146.6750  160.2950  133.3120 C   0  0  0  0  0  0  0  0  0  0  0  0
  147.2070  159.0280  133.2240 C   0  0  0  0  0  0  0  0  0  0  0  0
  148.5250  158.6200  133.0470 C   0  0  0  0  0  0  0  0  0  0  0  0
  148.7850  157.2410  132.9820 C   0  0  0  0  0  0  0  0  0  0  0  0
  147.7280  156.2980  133.0700 C   0  0  0  0  0  0  0  0  0  0  0  0
  148.0250  154.8190  133.0380 C   0  0  0  0  0  0  0  0  0  0  0  0
  149.1310  154.5610  132.2470 F   0  0  0  0  0  0  0  0  0  0  0  0
  148.2820  154.3450  134.3120 F   0  0  0  0  0  0  0  0  0  0  0  0
  146.9340  154.1490  132.5190 F   0  0  0  0  0  0  0  0  0  0  0  0
  146.4040  156.7530  133.2720 C   0  0  0  0  0  0  0  0  0  0  0  0
  146.1780  158.1320  133.3500 C   0  0  0  0  0  0  0  0  0  0  0  0
  145.0040  158.7800  133.5130 N   0  0  0  0  0  0  0  0  0  0  0  0
  143.7090  158.1730  133.6350 C   0  0  0  0  0  0  0  0  0  0  0  0
  142.9920  158.0070  132.6100 O   0  0  0  0  0  0  0  0  0  0  0  0
  143.2520  157.7620  134.8900 O   0  0  0  0  0  0  0  0  0  0  0  0
  142.2340  158.4520  135.6100 C   0  0  0  0  0  0  0  0  0  0  0  0
  141.4350  159.2240  134.7180 O   0  0  0  0  0  0  0  0  0  0  0  0
  140.3150  158.7320  134.0710 N   0  0  0  0  0  0  0  0  0  0  0  0
  139.2800  158.0220  134.5710 C   0  0  0  0  0  0  0  0  0  0  0  0
  139.1550  157.6220  135.8960 O   0  0  0  0  0  0  0  0  0  0  0  0
  138.3640  157.7350  133.5780 C   0  0  0  0  0  0  0  0  0  0  0  0
  138.8650  158.2940  132.4150 C   0  0  0  0  0  0  0  0  0  0  0  0
  140.0620  158.8930  132.7620 C   0  0  0  0  0  0  0  0  0  0  0  0
  140.9030  159.5790  131.8920 O   0  0  0  0  0  0  0  0  0  0  0  0
  142.6050  160.1140  133.1370 H   0  0  0  0  0  0  0  0  0  0  0  0
  147.2155  161.2510  133.2495 H   0  0  0  0  0  0  0  0  0  0  0  0
  149.3390  159.3548  132.9605 H   0  0  0  0  0  0  0  0  0  0  0  0
  149.8198  156.8880  132.8615 H   0  0  0  0  0  0  0  0  0  0  0  0
  145.5717  156.0399  133.3656 H   0  0  0  0  0  0  0  0  0  0  0  0
  141.5963  157.7205  136.1279 H   0  0  0  0  0  0  0  0  0  0  0  0
  142.7059  159.1246  136.3414 H   0  0  0  0  0  0  0  0  0  0  0  0
  137.4242  157.1743  133.6891 H   0  0  0  0  0  0  0  0  0  0  0  0
  138.4041  158.2671  131.4166 H   0  0  0  0  0  0  0  0  0  0  0  0
  141.8730  159.7440  132.1310 H   0  0  0  0  0  0  0  0  0  0  0  0
  1  2  1  0
  2  3  2  0
  2  4  1  0
  4  5  2  0
  5  6  1  0
  6  7  2  0
  7  8  1  0
  8  9  2  0
  9 10  1  0
 10 11  1  0
 10 12  1  0
 10 13  1  0
  9 14  1  0
 14 15  2  0
 15 16  1  0
 16 17  1  0
 17 18  2  0
 17 19  1  0
 19 20  1  0
 20 21  1  0
 21 22  1  0
 22 23  1  0
 23 24  1  0
 23 25  2  0
 25 26  1  0
 26 27  2  0
 27 28  1  0
 16  4  1  0
 27 22  1  0
 15  6  1  0
  1 29  1  0
  5 30  1  0
  7 31  1  0
  8 32  1  0
 14 33  1  0
 20 34  1  0
 20 35  1  0
 25 36  1  0
 26 37  1  0
 28 38  1  0
M  CHG  2   1  -1  24  -1
M  END
>  <UniqueID>  (92) 
91

>  <SMILES>  (92) 
[NH-]C(=O)c1cc2ccc(C(F)(F)F)cc2n1C(=O)OCOn1c([O-])ccc1O

>  <Energy>  (92) 
105.97113337978507

>  <Genealogy>  (92) 
[NH-]C(=O)c1cc2ccc(C(F)(F)F)cc2n1C(=O)OCOn1c([O-])ccc1O (protonated)
[NH-]C(=O)c1cc2ccc(C(F)(F)F)cc2n1C(=O)OCOn1c([O-])ccc1O (3D coordinates assigned)
[NH-]C(=O)c1cc2ccc(C(F)(F)F)cc2n1C(=O)OCOn1c([O-])ccc1O (optimized conformer: 105.97113337978507 kcal/mol)

>  <smiles>  (92) 
NC(=O)c1cc2ccc(C(F)(F)F)cc2n1C(=O)OCOn1c(O)ccc1O

>  <score_type>  (92) 
oracle

>  <origin>  (92) 
adg

>  <m_score__min__energy>  (92) 
-6.21

>  <m_primary>  (92) 
energy

$$$$
93:0
     RDKit          3D

 43 44  0  0  0  0  0  0  0  0999 V2000
  148.6310  155.3900  132.6420 C   0  0  0  0  0  0  0  0  0  0  0  0
  148.0200  156.7510  132.8000 C   0  0  0  0  0  0  0  0  0  0  0  0
  148.8200  157.9100  132.6440 C   0  0  0  0  0  0  0  0  0  0  0  0
  148.2620  159.1910  132.8000 C   0  0  0  0  0  0  0  0  0  0  0  0
  146.9120  159.2780  133.1310 C   0  0  0  0  0  0  0  0  0  0  0  0
  146.1120  160.3840  133.3150 C   0  0  0  0  0  0  0  0  0  0  0  0
  144.8450  159.8790  133.6090 C   0  0  0  0  0  0  0  0  0  0  0  0
  143.6810  160.7330  133.9360 C   0  0  0  0  0  0  0  0  0  0  0  0
  142.5000  160.1820  134.5140 N   0  0  0  0  0  0  0  0  0  0  0  0
  143.7410  161.9770  133.7300 O   0  0  0  0  0  0  0  0  0  0  0  0
  144.8660  158.5150  133.6060 N   0  0  0  0  0  0  0  0  0  0  0  0
  143.7730  157.6110  133.8180 C   0  0  0  0  0  0  0  0  0  0  0  0
  143.7370  156.9120  134.8660 O   0  0  0  0  0  0  0  0  0  0  0  0
  142.7150  157.5290  132.8510 N   0  0  0  0  0  0  0  0  0  0  0  0
  141.5450  156.6640  133.0060 C   0  0  0  0  0  0  0  0  0  0  0  0
  140.9120  156.8370  134.3630 C   0  0  0  0  0  0  0  0  0  0  0  0
  141.3420  156.1570  135.3370 O   0  0  0  0  0  0  0  0  0  0  0  0
  139.8190  157.7630  134.5640 N   0  0  0  0  0  0  0  0  0  0  0  0
  139.0220  158.2340  133.4240 C   0  0  0  0  0  0  0  0  0  0  0  0
  139.4910  158.2320  135.9190 C   0  0  0  0  0  0  0  0  0  0  0  0
  140.6190  159.1050  136.4700 C   0  0  0  0  0  0  0  0  0  0  0  0
  141.8050  158.3670  136.5750 O   0  0  0  0  0  0  0  0  0  0  0  0
  146.1340  158.1630  133.3130 C   0  0  0  0  0  0  0  0  0  0  0  0
  146.6590  156.8770  133.1490 C   0  0  0  0  0  0  0  0  0  0  0  0
  148.8251  154.9577  133.6347 H   0  0  0  0  0  0  0  0  0  0  0  0
  147.9386  154.7393  132.0877 H   0  0  0  0  0  0  0  0  0  0  0  0
  149.5773  155.4750  132.0877 H   0  0  0  0  0  0  0  0  0  0  0  0
  149.8873  157.8066  132.3986 H   0  0  0  0  0  0  0  0  0  0  0  0
  148.8725  160.0960  132.6649 H   0  0  0  0  0  0  0  0  0  0  0  0
  146.4089  161.4409  133.2450 H   0  0  0  0  0  0  0  0  0  0  0  0
  142.4350  159.1640  134.7350 H   0  0  0  0  0  0  0  0  0  0  0  0
  142.8260  158.0590  131.9570 H   0  0  0  0  0  0  0  0  0  0  0  0
  140.8066  156.9178  132.2312 H   0  0  0  0  0  0  0  0  0  0  0  0
  141.8707  155.6181  132.9056 H   0  0  0  0  0  0  0  0  0  0  0  0
  138.1299  158.7612  133.7931 H   0  0  0  0  0  0  0  0  0  0  0  0
  139.6265  158.9200  132.8125 H   0  0  0  0  0  0  0  0  0  0  0  0
  138.7126  157.3736  132.8125 H   0  0  0  0  0  0  0  0  0  0  0  0
  138.5621  158.8201  135.8838 H   0  0  0  0  0  0  0  0  0  0  0  0
  139.3621  157.3596  136.5765 H   0  0  0  0  0  0  0  0  0  0  0  0
  140.7814  159.9564  135.7927 H   0  0  0  0  0  0  0  0  0  0  0  0
  140.3343  159.4643  137.4699 H   0  0  0  0  0  0  0  0  0  0  0  0
  142.1320  158.2210  135.6460 H   0  0  0  0  0  0  0  0  0  0  0  0
  146.0273  155.9873  133.2885 H   0  0  0  0  0  0  0  0  0  0  0  0
  1  2  1  0
  2  3  2  0
  3  4  1  0
  4  5  2  0
  5  6  1  0
  6  7  2  0
  7  8  1  0
  8  9  1  0
  8 10  2  0
  7 11  1  0
 11 12  1  0
 12 13  2  0
 12 14  1  0
 14 15  1  0
 15 16  1  0
 16 17  2  0
 16 18  1  0
 18 19  1  0
 18 20  1  0
 20 21  1  0
 21 22  1  0
 11 23  1  0
 23 24  2  0
 24  2  1  0
 23  5  1  0
  1 25  1  0
  1 26  1  0
  1 27  1  0
  3 28  1  0
  4 29  1  0
  6 30  1  0
  9 31  1  0
 14 32  1  0
 15 33  1  0
 15 34  1  0
 19 35  1  0
 19 36  1  0
 19 37  1  0
 20 38  1  0
 20 39  1  0
 21 40  1  0
 21 41  1  0
 22 42  1  0
 24 43  1  0
M  CHG  1   9  -1
M  END
>  <UniqueID>  (93) 
92

>  <SMILES>  (93) 
Cc1ccc2cc(C([NH-])=O)n(C(=O)NCC(=O)N(C)CCO)c2c1

>  <Energy>  (93) 
76.54295200706575

>  <Genealogy>  (93) 
Cc1ccc2cc(C([NH-])=O)n(C(=O)NCC(=O)N(C)CCO)c2c1 (protonated)
Cc1ccc2cc(C([NH-])=O)n(C(=O)NCC(=O)N(C)CCO)c2c1 (3D coordinates assigned)
Cc1ccc2cc(C([NH-])=O)n(C(=O)NCC(=O)N(C)CCO)c2c1 (optimized conformer: 76.54295200706575 kcal/mol)

>  <smiles>  (93) 
Cc1ccc2cc(C(N)=O)n(C(=O)NCC(=O)N(C)CCO)c2c1

>  <score_type>  (93) 
oracle

>  <origin>  (93) 
adg

>  <m_score__min__energy>  (93) 
-6.6100000000000003

>  <m_primary>  (93) 
energy

$$$$
94:0
     RDKit          3D

 40 41  0  0  0  0  0  0  0  0999 V2000
  148.2890  158.0980  134.2190 C   0  0  0  0  0  0  0  0  0  0  0  0
  147.7990  158.4480  132.8810 N   0  0  0  0  0  0  0  0  0  0  0  0
  148.7170  158.3390  131.7380 C   0  0  0  0  0  0  0  0  0  0  0  0
  149.2570  159.6860  131.3700 C   0  0  0  0  0  0  0  0  0  0  0  0
  150.3440  159.7860  130.7420 O   0  0  0  0  0  0  0  0  0  0  0  0
  148.5650  160.8360  131.7300 O   0  0  0  0  0  0  0  0  0  0  0  0
  146.4320  158.9020  132.7260 C   0  0  0  0  0  0  0  0  0  0  0  0
  146.1710  160.1120  132.3180 N   0  0  0  0  0  0  0  0  0  0  0  0
  145.3510  157.9860  132.9770 N   0  0  0  0  0  0  0  0  0  0  0  0
  144.1190  158.3600  133.6140 C   0  0  0  0  0  0  0  0  0  0  0  0
  143.9750  159.5110  134.1070 O   0  0  0  0  0  0  0  0  0  0  0  0
  143.0400  157.4190  133.6940 N   0  0  0  0  0  0  0  0  0  0  0  0
  143.0720  156.1420  134.1680 C   0  0  0  0  0  0  0  0  0  0  0  0
  144.2310  155.4930  134.8150 C   0  0  0  0  0  0  0  0  0  0  0  0
  144.0700  154.8480  136.0770 N   0  0  0  0  0  0  0  0  0  0  0  0
  145.3690  155.5260  134.2790 O   0  0  0  0  0  0  0  0  0  0  0  0
  141.8240  155.5390  134.0250 C   0  0  0  0  0  0  0  0  0  0  0  0
  141.0200  156.4980  133.4510 C   0  0  0  0  0  0  0  0  0  0  0  0
  139.6770  156.4460  133.0910 C   0  0  0  0  0  0  0  0  0  0  0  0
  139.1070  157.5900  132.5050 C   0  0  0  0  0  0  0  0  0  0  0  0
  139.8880  158.7520  132.2690 C   0  0  0  0  0  0  0  0  0  0  0  0
  139.2610  159.9890  131.6780 C   0  0  0  0  0  0  0  0  0  0  0  0
  137.8930  159.9380  131.8650 F   0  0  0  0  0  0  0  0  0  0  0  0
  139.7590  161.1240  132.2950 F   0  0  0  0  0  0  0  0  0  0  0  0
  139.5280  160.0800  130.3230 F   0  0  0  0  0  0  0  0  0  0  0  0
  141.2430  158.7720  132.6730 C   0  0  0  0  0  0  0  0  0  0  0  0
  141.7780  157.6240  133.2640 C   0  0  0  0  0  0  0  0  0  0  0  0
  147.6419  158.5602  134.9790 H   0  0  0  0  0  0  0  0  0  0  0  0
  148.2742  157.0048  134.3405 H   0  0  0  0  0  0  0  0  0  0  0  0
  149.3183  158.4666  134.3405 H   0  0  0  0  0  0  0  0  0  0  0  0
  149.5520  157.6750  132.0062 H   0  0  0  0  0  0  0  0  0  0  0  0
  148.1677  157.9284  130.8780 H   0  0  0  0  0  0  0  0  0  0  0  0
  145.1910  160.4190  132.1290 H   0  0  0  0  0  0  0  0  0  0  0  0
  146.9180  160.8180  132.1520 H   0  0  0  0  0  0  0  0  0  0  0  0
  145.4760  156.9860  132.7030 H   0  0  0  0  0  0  0  0  0  0  0  0
  144.6310  155.1440  136.9060 H   0  0  0  0  0  0  0  0  0  0  0  0
  141.5413  154.5149  134.3100 H   0  0  0  0  0  0  0  0  0  0  0  0
  139.0796  155.5379  133.2596 H   0  0  0  0  0  0  0  0  0  0  0  0
  138.0430  157.5847  132.2260 H   0  0  0  0  0  0  0  0  0  0  0  0
  141.8613  159.6698  132.5256 H   0  0  0  0  0  0  0  0  0  0  0  0
  1  2  1  0
  2  3  1  0
  3  4  1  0
  4  5  2  0
  4  6  1  0
  2  7  1  0
  7  8  2  0
  7  9  1  0
  9 10  1  0
 10 11  2  0
 10 12  1  0
 12 13  1  0
 13 14  1  0
 14 15  1  0
 14 16  2  0
 13 17  2  0
 17 18  1  0
 18 19  2  0
 19 20  1  0
 20 21  2  0
 21 22  1  0
 22 23  1  0
 22 24  1  0
 22 25  1  0
 21 26  1  0
 26 27  2  0
 27 12  1  0
 27 18  1  0
  1 28  1  0
  1 29  1  0
  1 30  1  0
  3 31  1  0
  3 32  1  0
  8 33  1  0
  8 34  1  0
  9 35  1  0
 15 36  1  0
 17 37  1  0
 19 38  1  0
 20 39  1  0
 26 40  1  0
M  CHG  3   6  -1   8   1  15  -1
M  END
>  <UniqueID>  (94) 
93

>  <SMILES>  (94) 
CN(CC(=O)[O-])C(=[NH2+])NC(=O)n1c(C([NH-])=O)cc2ccc(C(F)(F)F)cc21

>  <Energy>  (94) 
81.87342453922729

>  <Genealogy>  (94) 
CN(CC(=O)[O-])C(=[NH2+])NC(=O)n1c(C([NH-])=O)cc2ccc(C(F)(F)F)cc21 (protonated)
CN(CC(=O)[O-])C(=[NH2+])NC(=O)n1c(C([NH-])=O)cc2ccc(C(F)(F)F)cc21 (3D coordinates assigned)
CN(CC(=O)[O-])C(=[NH2+])NC(=O)n1c(C([NH-])=O)cc2ccc(C(F)(F)F)cc21 (optimized conformer: 81.87342453922729 kcal/mol)

>  <smiles>  (94) 
CN(CC(=O)O)C(=N)NC(=O)n1c(C(N)=O)cc2ccc(C(F)(F)F)cc21

>  <score_type>  (94) 
oracle

>  <origin>  (94) 
adg

>  <m_score__min__energy>  (94) 
-6.7000000000000002

>  <m_primary>  (94) 
energy

$$$$
95:0
     RDKit          3D

 62 63  0  0  0  0  0  0  0  0999 V2000
  140.8670  154.5140  139.8000 C   0  0  0  0  0  0  0  0  0  0  0  0
  141.3640  154.9030  138.4760 N   0  0  0  0  0  0  0  0  0  0  0  0
  140.5760  155.8700  137.6820 C   0  0  0  0  0  0  0  0  0  0  0  0
  141.3670  157.1580  137.3310 C   0  0  1  0  0  0  0  0  0  0  0  0
  142.1870  156.9120  136.2180 O   0  0  0  0  0  0  0  0  0  0  0  0
  140.5030  158.4270  137.0710 C   0  0  1  0  0  0  0  0  0  0  0  0
  141.2330  159.6020  137.3100 O   0  0  0  0  0  0  0  0  0  0  0  0
  139.8630  158.4610  135.6540 C   0  0  2  0  0  0  0  0  0  0  0  0
  139.5090  157.1740  135.2030 O   0  0  0  0  0  0  0  0  0  0  0  0
  140.7660  159.1870  134.6200 C   0  0  1  0  0  0  0  0  0  0  0  0
  142.1140  159.0840  134.9990 O   0  0  0  0  0  0  0  0  0  0  0  0
  140.5730  158.5990  133.2150 C   0  0  0  0  0  0  0  0  0  0  0  0
  141.1150  157.3070  133.1580 O   0  0  0  0  0  0  0  0  0  0  0  0
  142.6080  154.2960  138.0320 C   0  0  0  0  0  0  0  0  0  0  0  0
  143.4030  153.8340  138.8940 O   0  0  0  0  0  0  0  0  0  0  0  0
  143.0400  154.2430  136.5870 C   0  0  0  0  0  0  0  0  0  0  0  0
  144.4940  154.4420  136.4840 N   0  0  0  0  0  0  0  0  0  0  0  0
  144.8150  155.5540  135.5770 C   0  0  0  0  0  0  0  0  0  0  0  0
  143.8970  155.5180  134.3910 C   0  0  0  0  0  0  0  0  0  0  0  0
  143.3050  156.5700  134.0270 O   0  0  0  0  0  0  0  0  0  0  0  0
  143.7570  154.3200  133.6120 N   0  0  0  0  0  0  0  0  0  0  0  0
  142.6140  153.6290  133.3520 C   0  0  0  0  0  0  0  0  0  0  0  0
  141.2410  154.1090  133.6090 C   0  0  0  0  0  0  0  0  0  0  0  0
  140.9890  155.0070  134.6880 N   0  0  0  0  0  0  0  0  0  0  0  0
  140.2780  153.6900  132.9160 O   0  0  0  0  0  0  0  0  0  0  0  0
  142.9080  152.4060  132.7480 C   0  0  0  0  0  0  0  0  0  0  0  0
  144.2820  152.3670  132.6590 C   0  0  0  0  0  0  0  0  0  0  0  0
  145.1210  151.3480  132.2150 C   0  0  0  0  0  0  0  0  0  0  0  0
  146.5080  151.5400  132.3310 C   0  0  0  0  0  0  0  0  0  0  0  0
  147.0310  152.7470  132.8720 C   0  0  0  0  0  0  0  0  0  0  0  0
  148.5180  152.9250  133.0450 C   0  0  0  0  0  0  0  0  0  0  0  0
  148.9450  152.3250  134.2170 F   0  0  0  0  0  0  0  0  0  0  0  0
  149.1720  152.3400  131.9790 F   0  0  0  0  0  0  0  0  0  0  0  0
  148.8490  154.2660  133.0970 F   0  0  0  0  0  0  0  0  0  0  0  0
  146.1430  153.7470  133.3350 C   0  0  0  0  0  0  0  0  0  0  0  0
  144.7690  153.5320  133.1900 C   0  0  0  0  0  0  0  0  0  0  0  0
  141.4800  154.9938  140.5772 H   0  0  0  0  0  0  0  0  0  0  0  0
  139.8206  154.8355  139.9079 H   0  0  0  0  0  0  0  0  0  0  0  0
  140.9277  153.4210  139.9079 H   0  0  0  0  0  0  0  0  0  0  0  0
  140.2660  155.3835  136.7454 H   0  0  0  0  0  0  0  0  0  0  0  0
  139.7137  156.1717  138.2948 H   0  0  0  0  0  0  0  0  0  0  0  0
  141.9563  157.3912  138.2301 H   0  0  0  0  0  0  0  0  0  0  0  0
  141.6180  157.0010  135.4040 H   0  0  0  0  0  0  0  0  0  0  0  0
  139.6722  158.3720  137.7898 H   0  0  0  0  0  0  0  0  0  0  0  0
  142.1000  159.5080  136.8380 H   0  0  0  0  0  0  0  0  0  0  0  0
  138.9360  159.0457  135.7475 H   0  0  0  0  0  0  0  0  0  0  0  0
  140.3400  156.6540  135.0820 H   0  0  0  0  0  0  0  0  0  0  0  0
  140.4756  160.2477  134.5963 H   0  0  0  0  0  0  0  0  0  0  0  0
  142.4740  158.2630  134.5720 H   0  0  0  0  0  0  0  0  0  0  0  0
  139.4986  158.5540  132.9832 H   0  0  0  0  0  0  0  0  0  0  0  0
  141.0860  159.2388  132.4818 H   0  0  0  0  0  0  0  0  0  0  0  0
  141.4360  157.1050  134.0750 H   0  0  0  0  0  0  0  0  0  0  0  0
  142.7767  153.2620  136.1648 H   0  0  0  0  0  0  0  0  0  0  0  0
  142.5280  155.0413  136.0297 H   0  0  0  0  0  0  0  0  0  0  0  0
  144.8550  154.6830  137.4390 H   0  0  0  0  0  0  0  0  0  0  0  0
  144.6883  156.5084  136.1090 H   0  0  0  0  0  0  0  0  0  0  0  0
  145.8563  155.4577  135.2357 H   0  0  0  0  0  0  0  0  0  0  0  0
  141.3180  155.9980  134.6550 H   0  0  0  0  0  0  0  0  0  0  0  0
  142.1952  151.6376  132.4144 H   0  0  0  0  0  0  0  0  0  0  0  0
  144.7106  150.4216  131.7868 H   0  0  0  0  0  0  0  0  0  0  0  0
  147.1966  150.7486  132.0000 H   0  0  0  0  0  0  0  0  0  0  0  0
  146.5239  154.6697  133.7971 H   0  0  0  0  0  0  0  0  0  0  0  0
  1  2  1  0
  2  3  1  0
  3  4  1  0
  4  5  1  0
  4  6  1  0
  6  7  1  0
  6  8  1  0
  8  9  1  0
  8 10  1  0
 10 11  1  0
 10 12  1  0
 12 13  1  0
  2 14  1  0
 14 15  2  0
 14 16  1  0
 16 17  1  0
 17 18  1  0
 18 19  1  0
 19 20  2  0
 19 21  1  0
 21 22  1  0
 22 23  1  0
 23 24  1  0
 23 25  2  0
 22 26  2  0
 26 27  1  0
 27 28  2  0
 28 29  1  0
 29 30  2  0
 30 31  1  0
 31 32  1  0
 31 33  1  0
 31 34  1  0
 30 35  1  0
 35 36  2  0
 36 21  1  0
 36 27  1  0
  1 37  1  0
  1 38  1  0
  1 39  1  0
  3 40  1  0
  3 41  1  0
  4 42  1  1
  5 43  1  0
  6 44  1  1
  7 45  1  0
  8 46  1  1
  9 47  1  0
 10 48  1  6
 11 49  1  0
 12 50  1  0
 12 51  1  0
 13 52  1  0
 16 53  1  0
 16 54  1  0
 17 55  1  0
 18 56  1  0
 18 57  1  0
 24 58  1  0
 26 59  1  0
 28 60  1  0
 29 61  1  0
 35 62  1  0
M  CHG  1  24  -1
M  END
>  <UniqueID>  (95) 
94

>  <SMILES>  (95) 
CN(C[C@@H](O)[C@@H](O)[C@H](O)[C@@H](O)CO)C(=O)CNCC(=O)n1c(C([NH-])=O)cc2ccc(C(F)(F)F)cc21

>  <Energy>  (95) 
97.97826385514138

>  <Genealogy>  (95) 
CN(C[C@@H](O)[C@@H](O)[C@H](O)[C@@H](O)CO)C(=O)CNCC(=O)n1c(C([NH-])=O)cc2ccc(C(F)(F)F)cc21 (protonated)
CN(C[C@@H](O)[C@@H](O)[C@H](O)[C@@H](O)CO)C(=O)CNCC(=O)n1c(C([NH-])=O)cc2ccc(C(F)(F)F)cc21 (3D coordinates assigned)
CN(C[C@@H](O)[C@@H](O)[C@H](O)[C@@H](O)CO)C(=O)CNCC(=O)n1c(C([NH-])=O)cc2ccc(C(F)(F)F)cc21 (optimized conformer: 97.97826385514138 kcal/mol)

>  <smiles>  (95) 
CN(C[C@@H](O)[C@@H](O)[C@H](O)[C@@H](O)CO)C(=O)CNCC(=O)n1c(C(N)=O)cc2ccc(C(F)(F)F)cc21

>  <score_type>  (95) 
oracle

>  <origin>  (95) 
adg

>  <m_score__min__energy>  (95) 
-4.29

>  <m_primary>  (95) 
energy

$$$$
