0:0
     RDKit          3D

 48 49  0  0  0  0  0  0  0  0999 V2000
  138.7370  149.9650  131.6420 C   0  0  0  0  0  0  0  0  0  0  0  0
  140.2410  149.7970  131.9360 C   0  0  0  0  0  0  0  0  0  0  0  0
  140.8470  148.8320  130.8980 C   0  0  0  0  0  0  0  0  0  0  0  0
  140.4130  149.2050  133.3500 C   0  0  0  0  0  0  0  0  0  0  0  0
  140.9240  151.1860  131.8570 C   0  0  0  0  0  0  0  0  0  0  0  0
  140.5830  152.0140  132.9710 O   0  0  0  0  0  0  0  0  0  0  0  0
  140.9540  153.3570  133.0890 C   0  0  0  0  0  0  0  0  0  0  0  0
  140.0960  154.2760  132.9790 O   0  0  0  0  0  0  0  0  0  0  0  0
  142.2930  153.6670  133.3440 O   0  0  0  0  0  0  0  0  0  0  0  0
  143.2150  154.0290  132.3180 C   0  0  0  0  0  0  0  0  0  0  0  0
  144.0470  155.1000  132.7570 O   0  0  0  0  0  0  0  0  0  0  0  0
  143.7320  155.9070  133.8540 C   0  0  0  0  0  0  0  0  0  0  0  0
  143.4280  155.3850  134.9620 O   0  0  0  0  0  0  0  0  0  0  0  0
  143.7430  157.3370  133.7170 N   0  0  0  0  0  0  0  0  0  0  0  0
  142.6820  158.1860  133.8090 C   0  0  0  0  0  0  0  0  0  0  0  0
  141.2640  157.7880  133.9100 C   0  0  0  0  0  0  0  0  0  0  0  0
  140.8840  156.4120  133.9740 N   0  0  0  0  0  0  0  0  0  0  0  0
  140.3690  158.6750  133.8870 O   0  0  0  0  0  0  0  0  0  0  0  0
  143.1050  159.5110  133.7380 C   0  0  0  0  0  0  0  0  0  0  0  0
  144.4710  159.4470  133.5800 C   0  0  0  0  0  0  0  0  0  0  0  0
  145.4060  160.4710  133.4660 C   0  0  0  0  0  0  0  0  0  0  0  0
  146.7600  160.1170  133.3500 C   0  0  0  0  0  0  0  0  0  0  0  0
  147.1530  158.7550  133.3570 C   0  0  0  0  0  0  0  0  0  0  0  0
  148.6030  158.3800  133.2480 C   0  0  0  0  0  0  0  0  0  0  0  0
  149.2210  159.1750  132.3000 F   0  0  0  0  0  0  0  0  0  0  0  0
  148.7150  157.0530  132.8740 F   0  0  0  0  0  0  0  0  0  0  0  0
  146.1760  157.7430  133.4770 C   0  0  0  0  0  0  0  0  0  0  0  0
  144.8320  158.1240  133.5710 C   0  0  0  0  0  0  0  0  0  0  0  0
  138.1827  150.0269  132.5901 H   0  0  0  0  0  0  0  0  0  0  0  0
  138.5773  150.8866  131.0630 H   0  0  0  0  0  0  0  0  0  0  0  0
  138.3779  149.1014  131.0630 H   0  0  0  0  0  0  0  0  0  0  0  0
  141.3626  148.0110  131.4178 H   0  0  0  0  0  0  0  0  0  0  0  0
  140.0448  148.4205  130.2677 H   0  0  0  0  0  0  0  0  0  0  0  0
  141.5661  149.3758  130.2677 H   0  0  0  0  0  0  0  0  0  0  0  0
  140.1886  149.9772  134.1006 H   0  0  0  0  0  0  0  0  0  0  0  0
  139.7240  148.3572  133.4789 H   0  0  0  0  0  0  0  0  0  0  0  0
  141.4490  148.8584  133.4789 H   0  0  0  0  0  0  0  0  0  0  0  0
  142.0148  151.0450  131.8399 H   0  0  0  0  0  0  0  0  0  0  0  0
  140.5732  151.6858  130.9420 H   0  0  0  0  0  0  0  0  0  0  0  0
  143.8423  153.1600  132.0705 H   0  0  0  0  0  0  0  0  0  0  0  0
  142.6531  154.3529  131.4295 H   0  0  0  0  0  0  0  0  0  0  0  0
  141.5820  155.6520  133.8190 H   0  0  0  0  0  0  0  0  0  0  0  0
  139.8800  156.1510  134.0870 H   0  0  0  0  0  0  0  0  0  0  0  0
  142.4811  160.4151  133.7958 H   0  0  0  0  0  0  0  0  0  0  0  0
  145.0941  161.5258  133.4667 H   0  0  0  0  0  0  0  0  0  0  0  0
  147.5226  160.9038  133.2528 H   0  0  0  0  0  0  0  0  0  0  0  0
  149.0870  158.5290  134.2245 H   0  0  0  0  0  0  0  0  0  0  0  0
  146.4635  156.6814  133.4962 H   0  0  0  0  0  0  0  0  0  0  0  0
  1  2  1  0
  2  3  1  0
  2  4  1  0
  2  5  1  0
  5  6  1  0
  6  7  1  0
  7  8  2  0
  7  9  1  0
  9 10  1  0
 10 11  1  0
 11 12  1  0
 12 13  2  0
 12 14  1  0
 14 15  1  0
 15 16  1  0
 16 17  1  0
 16 18  2  0
 15 19  2  0
 19 20  1  0
 20 21  2  0
 21 22  1  0
 22 23  2  0
 23 24  1  0
 24 25  1  0
 24 26  1  0
 23 27  1  0
 27 28  2  0
 28 14  1  0
 28 20  1  0
  1 29  1  0
  1 30  1  0
  1 31  1  0
  3 32  1  0
  3 33  1  0
  3 34  1  0
  4 35  1  0
  4 36  1  0
  4 37  1  0
  5 38  1  0
  5 39  1  0
 10 40  1  0
 10 41  1  0
 17 42  1  0
 17 43  1  0
 19 44  1  0
 21 45  1  0
 22 46  1  0
 24 47  1  0
 27 48  1  0
M  END
>  <UniqueID>  (1) 
1

>  <SMILES>  (1) 
CC(C)(C)COC(=O)OCOC(=O)n1c(C(N)=O)cc2ccc(C(F)F)cc21

>  <Energy>  (1) 
77.29806335514037

>  <Genealogy>  (1) 
CC(C)(C)COC(=O)OCOC(=O)n1c(C(N)=O)cc2ccc(C(F)F)cc21 (3D coordinates assigned)
CC(C)(C)COC(=O)OCOC(=O)n1c(C(N)=O)cc2ccc(C(F)F)cc21 (optimized conformer: 77.29806335514037 kcal/mol)

>  <smiles>  (1) 
CC(C)(C)COC(=O)OCOC(=O)n1c(C(N)=O)cc2ccc(C(F)F)cc21

>  <score_type>  (1) 
oracle

>  <origin>  (1) 
adg

>  <m_score__min__energy>  (1) 
-6.5999999999999996

>  <m_primary>  (1) 
energy

$$$$
1:0
     RDKit          3D

 26 27  0  0  0  0  0  0  0  0999 V2000
  138.5070  158.3080  131.5800 N   0  0  0  0  0  0  0  0  0  0  0  0
  139.7750  158.7500  132.0610 C   0  0  0  0  0  0  0  0  0  0  0  0
  140.5600  159.3430  131.2740 O   0  0  0  0  0  0  0  0  0  0  0  0
  140.1630  158.4920  133.4630 C   0  0  0  0  0  0  0  0  0  0  0  0
  140.5470  159.4890  134.3580 C   0  0  0  0  0  0  0  0  0  0  0  0
  140.7810  158.8400  135.5490 C   0  0  0  0  0  0  0  0  0  0  0  0
  141.2190  159.3390  136.7720 C   0  0  0  0  0  0  0  0  0  0  0  0
  141.4150  158.4280  137.8240 C   0  0  0  0  0  0  0  0  0  0  0  0
  141.1630  157.0430  137.6420 C   0  0  0  0  0  0  0  0  0  0  0  0
  141.4350  156.0700  138.7590 C   0  0  0  0  0  0  0  0  0  0  0  0
  142.0110  156.7160  139.8410 F   0  0  0  0  0  0  0  0  0  0  0  0
  142.2990  155.0890  138.3080 F   0  0  0  0  0  0  0  0  0  0  0  0
  140.2610  155.4740  139.1870 F   0  0  0  0  0  0  0  0  0  0  0  0
  140.7440  156.5730  136.3750 C   0  0  0  0  0  0  0  0  0  0  0  0
  140.5390  157.5050  135.3530 C   0  0  0  0  0  0  0  0  0  0  0  0
  140.1540  157.2770  134.0790 N   0  0  0  0  0  0  0  0  0  0  0  0
  139.8710  155.9990  133.4890 C   0  0  0  0  0  0  0  0  0  0  0  0
  138.7350  155.7800  132.9910 O   0  0  0  0  0  0  0  0  0  0  0  0
  140.8870  154.9360  133.4660 C   0  0  0  0  0  0  0  0  0  0  0  0
  140.6680  153.8580  132.8550 O   0  0  0  0  0  0  0  0  0  0  0  0
  142.1050  155.1240  134.1080 O   0  0  0  0  0  0  0  0  0  0  0  0
  137.9510  157.5980  132.1070 H   0  0  0  0  0  0  0  0  0  0  0  0
  140.6427  160.5660  134.1555 H   0  0  0  0  0  0  0  0  0  0  0  0
  141.4061  160.4140  136.9111 H   0  0  0  0  0  0  0  0  0  0  0  0
  141.7679  158.7925  138.8000 H   0  0  0  0  0  0  0  0  0  0  0  0
  140.5832  155.4993  136.1980 H   0  0  0  0  0  0  0  0  0  0  0  0
  1  2  1  0
  2  3  2  0
  2  4  1  0
  4  5  2  0
  5  6  1  0
  6  7  2  0
  7  8  1  0
  8  9  2  0
  9 10  1  0
 10 11  1  0
 10 12  1  0
 10 13  1  0
  9 14  1  0
 14 15  2  0
 15 16  1  0
 16 17  1  0
 17 18  2  0
 17 19  1  0
 19 20  2  0
 19 21  1  0
 16  4  1  0
 15  6  1  0
  1 22  1  0
  5 23  1  0
  7 24  1  0
  8 25  1  0
 14 26  1  0
M  CHG  2   1  -1  21  -1
M  END
>  <UniqueID>  (2) 
2

>  <SMILES>  (2) 
[NH-]C(=O)c1cc2ccc(C(F)(F)F)cc2n1C(=O)C(=O)[O-]

>  <Energy>  (2) 
66.24919373061884

>  <Genealogy>  (2) 
[NH-]C(=O)c1cc2ccc(C(F)(F)F)cc2n1C(=O)C(=O)[O-] (protonated)
[NH-]C(=O)c1cc2ccc(C(F)(F)F)cc2n1C(=O)C(=O)[O-] (3D coordinates assigned)
[NH-]C(=O)c1cc2ccc(C(F)(F)F)cc2n1C(=O)C(=O)[O-] (optimized conformer: 66.24919373061884 kcal/mol)

>  <smiles>  (2) 
NC(=O)c1cc2ccc(C(F)(F)F)cc2n1C(=O)C(=O)O

>  <score_type>  (2) 
oracle

>  <origin>  (2) 
adg

>  <m_score__min__energy>  (2) 
-5.5800000000000001

>  <m_primary>  (2) 
energy

$$$$
2:0
     RDKit          3D

 42 44  0  0  0  0  0  0  0  0999 V2000
  141.3840  152.4510  132.6120 C   0  0  0  0  0  0  0  0  0  0  0  0
  141.5720  153.2570  133.8620 C   0  0  0  0  0  0  0  0  0  0  0  0
  142.2340  152.6960  134.9840 C   0  0  0  0  0  0  0  0  0  0  0  0
  142.4490  153.4610  136.1440 C   0  0  0  0  0  0  0  0  0  0  0  0
  141.9990  154.7770  136.1490 C   0  0  0  0  0  0  0  0  0  0  0  0
  142.0880  155.7450  137.1260 C   0  0  0  0  0  0  0  0  0  0  0  0
  141.4830  156.8760  136.5830 C   0  0  0  0  0  0  0  0  0  0  0  0
  141.3360  158.1610  137.2960 C   0  0  0  0  0  0  0  0  0  0  0  0
  141.1150  159.3620  136.5590 N   0  0  0  0  0  0  0  0  0  0  0  0
  141.4080  158.2120  138.5520 O   0  0  0  0  0  0  0  0  0  0  0  0
  141.0330  156.6150  135.3240 N   0  0  0  0  0  0  0  0  0  0  0  0
  140.3480  157.5170  134.4430 C   0  0  0  0  0  0  0  0  0  0  0  0
  139.2850  158.0700  134.8360 O   0  0  0  0  0  0  0  0  0  0  0  0
  140.8590  157.8080  133.0460 C   0  0  2  0  0  0  0  0  0  0  0  0
  142.2950  157.2550  132.8410 C   0  0  0  0  0  0  0  0  0  0  0  0
  143.4090  158.0600  133.5360 C   0  0  0  0  0  0  0  0  0  0  0  0
  143.3650  159.5790  133.3210 C   0  0  0  0  0  0  0  0  0  0  0  0
  142.3660  160.3160  134.2340 C   0  0  0  0  0  0  0  0  0  0  0  0
  140.9530  160.2390  133.8170 N   0  0  0  0  0  0  0  0  0  0  0  0
  140.6730  159.3230  132.7000 C   0  0  0  0  0  0  0  0  0  0  0  0
  141.3610  155.3320  135.0690 C   0  0  0  0  0  0  0  0  0  0  0  0
  141.1430  154.6000  133.9000 C   0  0  0  0  0  0  0  0  0  0  0  0
  141.1416  151.4118  132.8788 H   0  0  0  0  0  0  0  0  0  0  0  0
  140.5616  152.8790  132.0200 H   0  0  0  0  0  0  0  0  0  0  0  0
  142.3109  152.4709  132.0200 H   0  0  0  0  0  0  0  0  0  0  0  0
  142.5822  151.6533  134.9463 H   0  0  0  0  0  0  0  0  0  0  0  0
  142.9573  153.0320  137.0202 H   0  0  0  0  0  0  0  0  0  0  0  0
  142.5409  155.6455  138.1235 H   0  0  0  0  0  0  0  0  0  0  0  0
  140.4350  159.3890  135.7670 H   0  0  0  0  0  0  0  0  0  0  0  0
  140.2507  157.2636  132.3087 H   0  0  0  0  0  0  0  0  0  0  0  0
  142.3234  156.2268  133.2308 H   0  0  0  0  0  0  0  0  0  0  0  0
  142.4975  157.3193  131.7617 H   0  0  0  0  0  0  0  0  0  0  0  0
  143.3395  157.8695  134.6171 H   0  0  0  0  0  0  0  0  0  0  0  0
  144.3520  157.7201  133.0830 H   0  0  0  0  0  0  0  0  0  0  0  0
  144.3700  159.9838  133.5111 H   0  0  0  0  0  0  0  0  0  0  0  0
  143.0291  159.7429  132.2865 H   0  0  0  0  0  0  0  0  0  0  0  0
  142.4462  159.8849  135.2428 H   0  0  0  0  0  0  0  0  0  0  0  0
  142.6390  161.3805  134.1855 H   0  0  0  0  0  0  0  0  0  0  0  0
  140.3170  160.0710  134.6300 H   0  0  0  0  0  0  0  0  0  0  0  0
  139.6319  159.4779  132.3804 H   0  0  0  0  0  0  0  0  0  0  0  0
  141.4024  159.5572  131.9107 H   0  0  0  0  0  0  0  0  0  0  0  0
  140.6493  155.0592  133.0309 H   0  0  0  0  0  0  0  0  0  0  0  0
  1  2  1  0
  2  3  2  0
  3  4  1  0
  4  5  2  0
  5  6  1  0
  6  7  2  0
  7  8  1  0
  8  9  1  0
  8 10  2  0
  7 11  1  0
 11 12  1  0
 12 13  2  0
 12 14  1  0
 14 15  1  0
 15 16  1  0
 16 17  1  0
 17 18  1  0
 18 19  1  0
 19 20  1  0
 11 21  1  0
 21 22  2  0
 22  2  1  0
 21  5  1  0
 20 14  1  0
  1 23  1  0
  1 24  1  0
  1 25  1  0
  3 26  1  0
  4 27  1  0
  6 28  1  0
  9 29  1  0
 14 30  1  6
 15 31  1  0
 15 32  1  0
 16 33  1  0
 16 34  1  0
 17 35  1  0
 17 36  1  0
 18 37  1  0
 18 38  1  0
 19 39  1  0
 20 40  1  0
 20 41  1  0
 22 42  1  0
M  CHG  1   9  -1
M  END
>  <UniqueID>  (3) 
3

>  <SMILES>  (3) 
Cc1ccc2cc(C([NH-])=O)n(C(=O)[C@@H]3CCCCNC3)c2c1

>  <Energy>  (3) 
94.87472222540072

>  <Genealogy>  (3) 
Cc1ccc2cc(C([NH-])=O)n(C(=O)[C@@H]3CCCCNC3)c2c1 (protonated)
Cc1ccc2cc(C([NH-])=O)n(C(=O)[C@@H]3CCCCNC3)c2c1 (3D coordinates assigned)
Cc1ccc2cc(C([NH-])=O)n(C(=O)[C@@H]3CCCCNC3)c2c1 (nonaromatic ring conformer: 94.87472222540072 kcal/mol)

>  <smiles>  (3) 
Cc1ccc2cc(C(N)=O)n(C(=O)[C@@H]3CCCCNC3)c2c1

>  <score_type>  (3) 
oracle

>  <origin>  (3) 
adg

>  <m_score__min__energy>  (3) 
-5.7599999999999998

>  <m_primary>  (3) 
energy

$$$$
3:0
     RDKit          3D

 44 45  0  0  0  0  0  0  0  0999 V2000
  141.3510  157.6370  137.5350 C   0  0  0  0  0  0  0  0  0  0  0  0
  140.6870  156.8490  136.5540 O   0  0  0  0  0  0  0  0  0  0  0  0
  139.8040  157.3980  135.6160 C   0  0  0  0  0  0  0  0  0  0  0  0
  138.9360  158.2400  135.9680 O   0  0  0  0  0  0  0  0  0  0  0  0
  139.9190  156.9980  134.1690 C   0  0  0  0  0  0  0  0  0  0  0  0
  140.0300  158.1540  133.2550 N   0  0  0  0  0  0  0  0  0  0  0  0
  138.8500  158.2860  132.3820 C   0  0  0  0  0  0  0  0  0  0  0  0
  141.2980  158.1540  132.4900 C   0  0  0  0  0  0  0  0  0  0  0  0
  142.2550  157.0640  132.9900 C   0  0  0  0  0  0  0  0  0  0  0  0
  143.1810  157.5740  134.0590 C   0  0  0  0  0  0  0  0  0  0  0  0
  143.2320  156.9960  135.1760 O   0  0  0  0  0  0  0  0  0  0  0  0
  143.9480  158.7640  133.8380 N   0  0  0  0  0  0  0  0  0  0  0  0
  143.5420  160.0570  133.9490 C   0  0  0  0  0  0  0  0  0  0  0  0
  142.1600  160.5060  134.2170 C   0  0  0  0  0  0  0  0  0  0  0  0
  141.4090  159.9080  135.2710 N   0  0  0  0  0  0  0  0  0  0  0  0
  141.6370  161.4260  133.5300 O   0  0  0  0  0  0  0  0  0  0  0  0
  144.6150  160.9220  133.7300 C   0  0  0  0  0  0  0  0  0  0  0  0
  145.6980  160.1080  133.4850 C   0  0  0  0  0  0  0  0  0  0  0  0
  147.0310  160.4290  133.2340 C   0  0  0  0  0  0  0  0  0  0  0  0
  147.9430  159.3740  133.0590 C   0  0  0  0  0  0  0  0  0  0  0  0
  147.5100  158.0250  133.1310 C   0  0  0  0  0  0  0  0  0  0  0  0
  148.4930  156.8990  132.9810 C   0  0  0  0  0  0  0  0  0  0  0  0
  149.5640  157.3130  132.2100 F   0  0  0  0  0  0  0  0  0  0  0  0
  147.8770  155.8240  132.3670 F   0  0  0  0  0  0  0  0  0  0  0  0
  146.1480  157.7380  133.3720 C   0  0  0  0  0  0  0  0  0  0  0  0
  145.2660  158.8100  133.5500 C   0  0  0  0  0  0  0  0  0  0  0  0
  141.0613  157.2932  138.5390 H   0  0  0  0  0  0  0  0  0  0  0  0
  142.4393  157.5347  137.4123 H   0  0  0  0  0  0  0  0  0  0  0  0
  141.0657  158.6922  137.4123 H   0  0  0  0  0  0  0  0  0  0  0  0
  140.8142  156.3700  134.0495 H   0  0  0  0  0  0  0  0  0  0  0  0
  138.9983  156.4575  133.9040 H   0  0  0  0  0  0  0  0  0  0  0  0
  137.9459  158.3871  133.0004 H   0  0  0  0  0  0  0  0  0  0  0  0
  138.9615  159.1773  131.7470 H   0  0  0  0  0  0  0  0  0  0  0  0
  138.7619  157.3921  131.7470 H   0  0  0  0  0  0  0  0  0  0  0  0
  141.0749  157.9744  131.4279 H   0  0  0  0  0  0  0  0  0  0  0  0
  141.7847  159.1309  132.6276 H   0  0  0  0  0  0  0  0  0  0  0  0
  141.6630  156.2326  133.4002 H   0  0  0  0  0  0  0  0  0  0  0  0
  142.8683  156.7340  132.1386 H   0  0  0  0  0  0  0  0  0  0  0  0
  140.6370  159.2400  135.0620 H   0  0  0  0  0  0  0  0  0  0  0  0
  144.5989  162.0217  133.7491 H   0  0  0  0  0  0  0  0  0  0  0  0
  147.3595  161.4771  133.1746 H   0  0  0  0  0  0  0  0  0  0  0  0
  149.0025  159.5964  132.8644 H   0  0  0  0  0  0  0  0  0  0  0  0
  148.8524  156.5993  133.9765 H   0  0  0  0  0  0  0  0  0  0  0  0
  145.7899  156.6990  133.4185 H   0  0  0  0  0  0  0  0  0  0  0  0
  1  2  1  0
  2  3  1  0
  3  4  2  0
  3  5  1  0
  5  6  1  0
  6  7  1  0
  6  8  1  0
  8  9  1  0
  9 10  1  0
 10 11  2  0
 10 12  1  0
 12 13  1  0
 13 14  1  0
 14 15  1  0
 14 16  2  0
 13 17  2  0
 17 18  1  0
 18 19  2  0
 19 20  1  0
 20 21  2  0
 21 22  1  0
 22 23  1  0
 22 24  1  0
 21 25  1  0
 25 26  2  0
 26 12  1  0
 26 18  1  0
  1 27  1  0
  1 28  1  0
  1 29  1  0
  5 30  1  0
  5 31  1  0
  7 32  1  0
  7 33  1  0
  7 34  1  0
  8 35  1  0
  8 36  1  0
  9 37  1  0
  9 38  1  0
 15 39  1  0
 17 40  1  0
 19 41  1  0
 20 42  1  0
 22 43  1  0
 25 44  1  0
M  CHG  1  15  -1
M  END
>  <UniqueID>  (4) 
4

>  <SMILES>  (4) 
COC(=O)CN(C)CCC(=O)n1c(C([NH-])=O)cc2ccc(C(F)F)cc21

>  <Energy>  (4) 
80.15164857263834

>  <Genealogy>  (4) 
COC(=O)CN(C)CCC(=O)n1c(C([NH-])=O)cc2ccc(C(F)F)cc21 (protonated)
COC(=O)CN(C)CCC(=O)n1c(C([NH-])=O)cc2ccc(C(F)F)cc21 (3D coordinates assigned)
COC(=O)CN(C)CCC(=O)n1c(C([NH-])=O)cc2ccc(C(F)F)cc21 (optimized conformer: 80.15164857263834 kcal/mol)

>  <smiles>  (4) 
COC(=O)CN(C)CCC(=O)n1c(C(N)=O)cc2ccc(C(F)F)cc21

>  <score_type>  (4) 
oracle

>  <origin>  (4) 
adg

>  <m_score__min__energy>  (4) 
-5.8799999999999999

>  <m_primary>  (4) 
energy

$$$$
4:0
     RDKit          3D

 36 37  0  0  0  0  0  0  0  0999 V2000
  141.1840  159.6710  132.7150 N   0  0  0  0  0  0  0  0  0  0  0  0
  142.1390  159.9710  133.7340 C   0  0  0  0  0  0  0  0  0  0  0  0
  141.7410  160.4360  134.8350 O   0  0  0  0  0  0  0  0  0  0  0  0
  143.5760  159.6910  133.5430 C   0  0  0  0  0  0  0  0  0  0  0  0
  144.5600  160.6750  133.5810 C   0  0  0  0  0  0  0  0  0  0  0  0
  145.7510  160.0040  133.4160 C   0  0  0  0  0  0  0  0  0  0  0  0
  147.0530  160.4930  133.3550 C   0  0  0  0  0  0  0  0  0  0  0  0
  148.0920  159.5740  133.1320 C   0  0  0  0  0  0  0  0  0  0  0  0
  147.8100  158.1970  132.9660 C   0  0  0  0  0  0  0  0  0  0  0  0
  148.8760  157.2730  132.7260 N   0  0  0  0  0  0  0  0  0  0  0  0
  146.4800  157.7360  133.0320 C   0  0  0  0  0  0  0  0  0  0  0  0
  145.4650  158.6680  133.2780 C   0  0  0  0  0  0  0  0  0  0  0  0
  144.1310  158.4610  133.3540 N   0  0  0  0  0  0  0  0  0  0  0  0
  143.4420  157.2190  133.1310 C   0  0  0  0  0  0  0  0  0  0  0  0
  144.0650  156.1270  133.2310 O   0  0  0  0  0  0  0  0  0  0  0  0
  142.0810  157.2290  132.8010 O   0  0  0  0  0  0  0  0  0  0  0  0
  141.0700  156.6710  133.6380 C   0  0  0  0  0  0  0  0  0  0  0  0
  139.7370  157.2480  133.2840 C   0  0  0  0  0  0  0  0  0  0  0  0
  138.7780  157.1590  134.0990 O   0  0  0  0  0  0  0  0  0  0  0  0
  139.5840  157.9320  132.0750 O   0  0  0  0  0  0  0  0  0  0  0  0
  138.3530  158.5250  131.6770 C   0  0  0  0  0  0  0  0  0  0  0  0
  138.6330  159.7340  130.8490 C   0  0  0  0  0  0  0  0  0  0  0  0
  139.8200  160.1010  130.6430 O   0  0  0  0  0  0  0  0  0  0  0  0
  137.5820  160.4630  130.3100 O   0  0  0  0  0  0  0  0  0  0  0  0
  140.1770  159.9120  132.8530 H   0  0  0  0  0  0  0  0  0  0  0  0
  141.4560  159.1340  131.8630 H   0  0  0  0  0  0  0  0  0  0  0  0
  144.4167  161.7574  133.7143 H   0  0  0  0  0  0  0  0  0  0  0  0
  147.2619  161.5660  133.4776 H   0  0  0  0  0  0  0  0  0  0  0  0
  149.1327  159.9274  133.0861 H   0  0  0  0  0  0  0  0  0  0  0  0
  148.9320  156.7460  131.8270 H   0  0  0  0  0  0  0  0  0  0  0  0
  149.6130  157.1080  133.4470 H   0  0  0  0  0  0  0  0  0  0  0  0
  146.2453  156.6703  132.8936 H   0  0  0  0  0  0  0  0  0  0  0  0
  141.0432  155.5801  133.4991 H   0  0  0  0  0  0  0  0  0  0  0  0
  141.2988  156.9080  134.6875 H   0  0  0  0  0  0  0  0  0  0  0  0
  137.7708  157.8021  131.0866 H   0  0  0  0  0  0  0  0  0  0  0  0
  137.7780  158.8144  132.5690 H   0  0  0  0  0  0  0  0  0  0  0  0
  1  2  1  0
  2  3  2  0
  2  4  1  0
  4  5  2  0
  5  6  1  0
  6  7  2  0
  7  8  1  0
  8  9  2  0
  9 10  1  0
  9 11  1  0
 11 12  2  0
 12 13  1  0
 13 14  1  0
 14 15  2  0
 14 16  1  0
 16 17  1  0
 17 18  1  0
 18 19  2  0
 18 20  1  0
 20 21  1  0
 21 22  1  0
 22 23  2  0
 22 24  1  0
 13  4  1  0
 12  6  1  0
  1 25  1  0
  1 26  1  0
  5 27  1  0
  7 28  1  0
  8 29  1  0
 10 30  1  0
 10 31  1  0
 11 32  1  0
 17 33  1  0
 17 34  1  0
 21 35  1  0
 21 36  1  0
M  CHG  1  24  -1
M  END
>  <UniqueID>  (5) 
5

>  <SMILES>  (5) 
NC(=O)c1cc2ccc(N)cc2n1C(=O)OCC(=O)OCC(=O)[O-]

>  <Energy>  (5) 
68.75394155138096

>  <Genealogy>  (5) 
NC(=O)c1cc2ccc(N)cc2n1C(=O)OCC(=O)OCC(=O)[O-] (protonated)
NC(=O)c1cc2ccc(N)cc2n1C(=O)OCC(=O)OCC(=O)[O-] (3D coordinates assigned)
NC(=O)c1cc2ccc(N)cc2n1C(=O)OCC(=O)OCC(=O)[O-] (optimized conformer: 68.75394155138096 kcal/mol)

>  <smiles>  (5) 
NC(=O)c1cc2ccc(N)cc2n1C(=O)OCC(=O)OCC(=O)O

>  <score_type>  (5) 
oracle

>  <origin>  (5) 
adg

>  <m_score__min__energy>  (5) 
-6.3399999999999999

>  <m_primary>  (5) 
energy

$$$$
5:0
     RDKit          3D

 31 32  0  0  0  0  0  0  0  0999 V2000
  145.6100  160.8540  133.1690 N   0  0  0  0  0  0  0  0  0  0  0  0
  144.9380  159.7130  133.7030 C   0  0  0  0  0  0  0  0  0  0  0  0
  143.8270  159.8540  134.2790 O   0  0  0  0  0  0  0  0  0  0  0  0
  145.4900  158.3640  133.5150 C   0  0  0  0  0  0  0  0  0  0  0  0
  144.6910  157.2350  133.3800 C   0  0  0  0  0  0  0  0  0  0  0  0
  145.5670  156.1870  133.2440 C   0  0  0  0  0  0  0  0  0  0  0  0
  145.3110  154.8330  133.0510 C   0  0  0  0  0  0  0  0  0  0  0  0
  146.4070  153.9670  132.9210 C   0  0  0  0  0  0  0  0  0  0  0  0
  147.7350  154.4600  132.9960 C   0  0  0  0  0  0  0  0  0  0  0  0
  148.9050  153.5290  132.7940 C   0  0  0  0  0  0  0  0  0  0  0  0
  150.0300  154.2390  132.4110 F   0  0  0  0  0  0  0  0  0  0  0  0
  148.5920  152.6120  131.8100 F   0  0  0  0  0  0  0  0  0  0  0  0
  149.2000  152.8520  133.9640 F   0  0  0  0  0  0  0  0  0  0  0  0
  147.9540  155.8480  133.1670 C   0  0  0  0  0  0  0  0  0  0  0  0
  146.8420  156.6910  133.3110 C   0  0  0  0  0  0  0  0  0  0  0  0
  146.8150  158.0350  133.4880 N   0  0  0  0  0  0  0  0  0  0  0  0
  147.9410  158.9050  133.7340 C   0  0  0  0  0  0  0  0  0  0  0  0
  148.6680  158.7150  134.7440 O   0  0  0  0  0  0  0  0  0  0  0  0
  148.2070  160.0060  132.8530 N   0  0  0  0  0  0  0  0  0  0  0  0
  148.3400  159.9990  131.4240 C   0  0  0  0  0  0  0  0  0  0  0  0
  147.4010  160.4850  130.7370 O   0  0  0  0  0  0  0  0  0  0  0  0
  149.5390  159.4320  130.7150 C   0  0  0  0  0  0  0  0  0  0  0  0
  149.1320  158.6810  129.6270 F   0  0  0  0  0  0  0  0  0  0  0  0
  150.3540  160.4540  130.2600 F   0  0  0  0  0  0  0  0  0  0  0  0
  150.2690  158.6430  131.5840 F   0  0  0  0  0  0  0  0  0  0  0  0
  145.2120  161.8100  133.3040 H   0  0  0  0  0  0  0  0  0  0  0  0
  146.4850  160.7450  132.6100 H   0  0  0  0  0  0  0  0  0  0  0  0
  143.5919  157.1907  133.3818 H   0  0  0  0  0  0  0  0  0  0  0  0
  144.2799  154.4529  133.0018 H   0  0  0  0  0  0  0  0  0  0  0  0
  146.2345  152.8928  132.7590 H   0  0  0  0  0  0  0  0  0  0  0  0
  148.9749  156.2571  133.1866 H   0  0  0  0  0  0  0  0  0  0  0  0
  1  2  1  0
  2  3  2  0
  2  4  1  0
  4  5  2  0
  5  6  1  0
  6  7  2  0
  7  8  1  0
  8  9  2  0
  9 10  1  0
 10 11  1  0
 10 12  1  0
 10 13  1  0
  9 14  1  0
 14 15  2  0
 15 16  1  0
 16 17  1  0
 17 18  2  0
 17 19  1  0
 19 20  1  0
 20 21  2  0
 20 22  1  0
 22 23  1  0
 22 24  1  0
 22 25  1  0
 16  4  1  0
 15  6  1  0
  1 26  1  0
  1 27  1  0
  5 28  1  0
  7 29  1  0
  8 30  1  0
 14 31  1  0
M  CHG  1  19  -1
M  END
>  <UniqueID>  (6) 
6

>  <SMILES>  (6) 
NC(=O)c1cc2ccc(C(F)(F)F)cc2n1C(=O)[N-]C(=O)C(F)(F)F

>  <Energy>  (6) 
76.72255505539202

>  <Genealogy>  (6) 
NC(=O)c1cc2ccc(C(F)(F)F)cc2n1C(=O)[N-]C(=O)C(F)(F)F (protonated)
NC(=O)c1cc2ccc(C(F)(F)F)cc2n1C(=O)[N-]C(=O)C(F)(F)F (3D coordinates assigned)
NC(=O)c1cc2ccc(C(F)(F)F)cc2n1C(=O)[N-]C(=O)C(F)(F)F (optimized conformer: 76.72255505539202 kcal/mol)

>  <smiles>  (6) 
NC(=O)c1cc2ccc(C(F)(F)F)cc2n1C(=O)NC(=O)C(F)(F)F

>  <score_type>  (6) 
oracle

>  <origin>  (6) 
adg

>  <m_score__min__energy>  (6) 
-6.5899999999999999

>  <m_primary>  (6) 
energy

$$$$
7:0
     RDKit          3D

 31 33  0  0  0  0  0  0  0  0999 V2000
  148.7910  156.0990  133.3440 N   0  0  0  0  0  0  0  0  0  0  0  0
  147.4320  156.2030  132.9160 C   0  0  0  0  0  0  0  0  0  0  0  0
  146.9160  155.2550  132.2670 O   0  0  0  0  0  0  0  0  0  0  0  0
  146.6340  157.4200  133.1760 C   0  0  0  0  0  0  0  0  0  0  0  0
  145.2590  157.4080  133.3960 C   0  0  0  0  0  0  0  0  0  0  0  0
  144.9100  158.7260  133.5870 C   0  0  0  0  0  0  0  0  0  0  0  0
  143.6710  159.2920  133.8770 C   0  0  0  0  0  0  0  0  0  0  0  0
  143.6130  160.6820  134.0810 C   0  0  0  0  0  0  0  0  0  0  0  0
  144.7880  161.4720  134.0040 C   0  0  0  0  0  0  0  0  0  0  0  0
  144.7270  162.9520  134.2480 C   0  0  0  0  0  0  0  0  0  0  0  0
  146.0030  163.4840  134.2010 F   0  0  0  0  0  0  0  0  0  0  0  0
  143.9450  163.5550  133.2790 F   0  0  0  0  0  0  0  0  0  0  0  0
  146.0280  160.8610  133.7170 C   0  0  0  0  0  0  0  0  0  0  0  0
  146.0510  159.4790  133.4900 C   0  0  0  0  0  0  0  0  0  0  0  0
  147.1170  158.6920  133.2300 N   0  0  0  0  0  0  0  0  0  0  0  0
  148.4930  159.1020  133.1900 C   0  0  0  0  0  0  0  0  0  0  0  0
  149.2100  158.9770  134.2190 O   0  0  0  0  0  0  0  0  0  0  0  0
  149.0830  159.6340  131.9510 C   0  0  0  0  0  0  0  0  0  0  0  0
  148.6810  160.7690  131.2790 C   0  0  0  0  0  0  0  0  0  0  0  0
  149.5510  160.8460  130.2140 C   0  0  0  0  0  0  0  0  0  0  0  0
  150.3850  159.8330  130.2830 O   0  0  0  0  0  0  0  0  0  0  0  0
  150.1360  159.0830  131.3170 N   0  0  0  0  0  0  0  0  0  0  0  0
  149.3100  156.9280  133.7060 H   0  0  0  0  0  0  0  0  0  0  0  0
  149.3160  155.2080  133.2010 H   0  0  0  0  0  0  0  0  0  0  0  0
  144.5936  156.5322  133.4134 H   0  0  0  0  0  0  0  0  0  0  0  0
  142.7657  158.6708  133.9444 H   0  0  0  0  0  0  0  0  0  0  0  0
  142.6477  161.1608  134.3022 H   0  0  0  0  0  0  0  0  0  0  0  0
  144.2872  163.1349  135.2395 H   0  0  0  0  0  0  0  0  0  0  0  0
  146.9526  161.4552  133.6728 H   0  0  0  0  0  0  0  0  0  0  0  0
  147.8580  161.4529  131.5339 H   0  0  0  0  0  0  0  0  0  0  0  0
  149.5481  161.6243  129.4367 H   0  0  0  0  0  0  0  0  0  0  0  0
  1  2  1  0
  2  3  2  0
  2  4  1  0
  4  5  2  0
  5  6  1  0
  6  7  2  0
  7  8  1  0
  8  9  2  0
  9 10  1  0
 10 11  1  0
 10 12  1  0
  9 13  1  0
 13 14  2  0
 14 15  1  0
 15 16  1  0
 16 17  2  0
 16 18  1  0
 18 19  1  0
 19 20  2  0
 20 21  1  0
 21 22  1  0
 15  4  1  0
 22 18  2  0
 14  6  1  0
  1 23  1  0
  1 24  1  0
  5 25  1  0
  7 26  1  0
  8 27  1  0
 10 28  1  0
 13 29  1  0
 19 30  1  0
 20 31  1  0
M  END
>  <UniqueID>  (7) 
7

>  <SMILES>  (7) 
NC(=O)c1cc2ccc(C(F)F)cc2n1C(=O)c1ccon1

>  <Energy>  (7) 
103.12581965838287

>  <Genealogy>  (7) 
NC(=O)c1cc2ccc(C(F)F)cc2n1C(=O)c1ccon1 (3D coordinates assigned)
NC(=O)c1cc2ccc(C(F)F)cc2n1C(=O)c1ccon1 (optimized conformer: 103.12581965838287 kcal/mol)

>  <smiles>  (7) 
NC(=O)c1cc2ccc(C(F)F)cc2n1C(=O)c1ccon1

>  <score_type>  (7) 
oracle

>  <origin>  (7) 
adg

>  <m_score__min__energy>  (7) 
-7.5

>  <m_primary>  (7) 
energy

$$$$
8:0
     RDKit          3D

 42 43  0  0  0  0  0  0  0  0999 V2000
  146.4270  156.3140  133.1390 C   0  0  0  0  0  0  0  0  0  0  0  0
  145.1430  157.0590  133.3430 C   0  0  0  0  0  0  0  0  0  0  0  0
  145.1540  158.4690  133.4790 C   0  0  0  0  0  0  0  0  0  0  0  0
  143.9590  159.1750  133.7020 C   0  0  0  0  0  0  0  0  0  0  0  0
  142.7810  158.4430  133.8100 C   0  0  0  0  0  0  0  0  0  0  0  0
  141.4880  158.8700  134.0160 C   0  0  0  0  0  0  0  0  0  0  0  0
  140.7190  157.7090  134.0630 C   0  0  0  0  0  0  0  0  0  0  0  0
  139.2570  157.7100  134.2820 C   0  0  0  0  0  0  0  0  0  0  0  0
  138.3570  157.1000  133.3560 N   0  0  0  0  0  0  0  0  0  0  0  0
  138.7950  158.2280  135.3340 O   0  0  0  0  0  0  0  0  0  0  0  0
  141.5040  156.6080  133.8940 N   0  0  0  0  0  0  0  0  0  0  0  0
  141.0830  155.2340  133.8330 C   0  0  0  0  0  0  0  0  0  0  0  0
  140.0690  154.9400  133.1430 O   0  0  0  0  0  0  0  0  0  0  0  0
  141.7970  154.1950  134.5430 N   0  0  0  0  0  0  0  0  0  0  0  0
  142.3370  153.0590  133.7890 C   0  0  0  0  0  0  0  0  0  0  0  0
  142.1310  154.3330  135.9400 C   0  0  0  0  0  0  0  0  0  0  0  0
  142.7430  155.3610  136.3390 O   0  0  0  0  0  0  0  0  0  0  0  0
  141.7740  153.3100  136.8790 N   0  0  0  0  0  0  0  0  0  0  0  0
  141.3080  153.6050  138.2000 C   0  0  0  0  0  0  0  0  0  0  0  0
  141.4510  154.7600  138.6880 O   0  0  0  0  0  0  0  0  0  0  0  0
  140.6420  152.6120  138.9220 O   0  0  0  0  0  0  0  0  0  0  0  0
  140.9580  151.2300  138.7960 C   0  0  0  0  0  0  0  0  0  0  0  0
  140.1650  150.6480  137.6750 C   0  0  0  0  0  0  0  0  0  0  0  0
  139.1070  150.0080  137.9110 O   0  0  0  0  0  0  0  0  0  0  0  0
  140.6210  150.7670  136.3670 O   0  0  0  0  0  0  0  0  0  0  0  0
  142.7610  157.0760  133.7210 C   0  0  0  0  0  0  0  0  0  0  0  0
  143.9290  156.3500  133.4690 C   0  0  0  0  0  0  0  0  0  0  0  0
  146.8633  156.0608  134.1165 H   0  0  0  0  0  0  0  0  0  0  0  0
  146.2294  155.3903  132.5754 H   0  0  0  0  0  0  0  0  0  0  0  0
  147.1309  156.9440  132.5754 H   0  0  0  0  0  0  0  0  0  0  0  0
  146.1058  159.0161  133.4095 H   0  0  0  0  0  0  0  0  0  0  0  0
  143.9555  160.2716  133.7884 H   0  0  0  0  0  0  0  0  0  0  0  0
  141.1370  159.9072  134.1211 H   0  0  0  0  0  0  0  0  0  0  0  0
  138.7000  156.4940  132.5790 H   0  0  0  0  0  0  0  0  0  0  0  0
  137.3270  157.1690  133.5080 H   0  0  0  0  0  0  0  0  0  0  0  0
  142.7009  152.2934  134.4900 H   0  0  0  0  0  0  0  0  0  0  0  0
  141.5464  152.6302  133.1557 H   0  0  0  0  0  0  0  0  0  0  0  0
  143.1687  153.4014  133.1557 H   0  0  0  0  0  0  0  0  0  0  0  0
  141.6620  152.3310  136.5340 H   0  0  0  0  0  0  0  0  0  0  0  0
  142.0317  151.1153  138.5860 H   0  0  0  0  0  0  0  0  0  0  0  0
  140.7142  150.7073  139.7327 H   0  0  0  0  0  0  0  0  0  0  0  0
  143.9025  155.2547  133.3714 H   0  0  0  0  0  0  0  0  0  0  0  0
  1  2  1  0
  2  3  2  0
  3  4  1  0
  4  5  2  0
  5  6  1  0
  6  7  2  0
  7  8  1  0
  8  9  1  0
  8 10  2  0
  7 11  1  0
 11 12  1  0
 12 13  2  0
 12 14  1  0
 14 15  1  0
 14 16  1  0
 16 17  2  0
 16 18  1  0
 18 19  1  0
 19 20  2  0
 19 21  1  0
 21 22  1  0
 22 23  1  0
 23 24  2  0
 23 25  1  0
 11 26  1  0
 26 27  2  0
 27  2  1  0
 26  5  1  0
  1 28  1  0
  1 29  1  0
  1 30  1  0
  3 31  1  0
  4 32  1  0
  6 33  1  0
  9 34  1  0
  9 35  1  0
 15 36  1  0
 15 37  1  0
 15 38  1  0
 18 39  1  0
 22 40  1  0
 22 41  1  0
 27 42  1  0
M  CHG  1  25  -1
M  END
>  <UniqueID>  (8) 
8

>  <SMILES>  (8) 
Cc1ccc2cc(C(N)=O)n(C(=O)N(C)C(=O)NC(=O)OCC(=O)[O-])c2c1

>  <Energy>  (8) 
78.99541367957632

>  <Genealogy>  (8) 
Cc1ccc2cc(C(N)=O)n(C(=O)N(C)C(=O)NC(=O)OCC(=O)[O-])c2c1 (protonated)
Cc1ccc2cc(C(N)=O)n(C(=O)N(C)C(=O)NC(=O)OCC(=O)[O-])c2c1 (3D coordinates assigned)
Cc1ccc2cc(C(N)=O)n(C(=O)N(C)C(=O)NC(=O)OCC(=O)[O-])c2c1 (optimized conformer: 78.99541367957632 kcal/mol)

>  <smiles>  (8) 
Cc1ccc2cc(C(N)=O)n(C(=O)N(C)C(=O)NC(=O)OCC(=O)O)c2c1

>  <score_type>  (8) 
oracle

>  <origin>  (8) 
adg

>  <m_score__min__energy>  (8) 
-7.2800000000000002

>  <m_primary>  (8) 
energy

$$$$
9:0
     RDKit          3D

 50 53  0  0  0  0  0  0  0  0999 V2000
  139.1000  157.3420  133.1050 C   0  0  0  0  0  0  0  0  0  0  0  0
  139.7260  158.6150  133.4470 N   0  0  0  0  0  0  0  0  0  0  0  0
  140.5470  158.6550  134.6330 C   0  0  0  0  0  0  0  0  0  0  0  0
  140.9830  159.7660  135.0530 O   0  0  0  0  0  0  0  0  0  0  0  0
  140.9200  157.4660  135.2800 O   0  0  0  0  0  0  0  0  0  0  0  0
  141.9570  156.6160  134.7930 C   0  0  0  0  0  0  0  0  0  0  0  0
  143.1740  157.3540  134.7120 O   0  0  0  0  0  0  0  0  0  0  0  0
  143.6670  157.8720  133.5060 C   0  0  0  0  0  0  0  0  0  0  0  0
  142.9400  157.8590  132.4700 O   0  0  0  0  0  0  0  0  0  0  0  0
  144.9880  158.4530  133.4640 N   0  0  0  0  0  0  0  0  0  0  0  0
  145.2960  159.7830  133.4580 C   0  0  0  0  0  0  0  0  0  0  0  0
  144.3610  160.8900  133.7300 C   0  0  0  0  0  0  0  0  0  0  0  0
  142.9840  160.7740  133.3790 N   0  0  0  0  0  0  0  0  0  0  0  0
  144.7650  161.9230  134.3340 O   0  0  0  0  0  0  0  0  0  0  0  0
  146.6550  159.9770  133.2400 C   0  0  0  0  0  0  0  0  0  0  0  0
  147.1900  158.7150  133.1290 C   0  0  0  0  0  0  0  0  0  0  0  0
  148.5080  158.3230  132.9110 C   0  0  0  0  0  0  0  0  0  0  0  0
  148.7880  156.9490  132.8300 C   0  0  0  0  0  0  0  0  0  0  0  0
  147.7520  155.9880  132.9590 C   0  0  0  0  0  0  0  0  0  0  0  0
  148.0630  154.5350  132.8890 C   0  0  0  0  0  0  0  0  0  0  0  0
  147.2050  153.4690  133.1220 C   0  0  0  0  0  0  0  0  0  0  0  0
  147.8780  152.3100  132.9840 N   0  0  0  0  0  0  0  0  0  0  0  0
  149.1260  152.6100  132.6730 N   0  0  0  0  0  0  0  0  0  0  0  0
  150.1750  151.6220  132.4620 C   0  0  0  0  0  0  0  0  0  0  0  0
  149.2810  153.9450  132.6050 C   0  0  0  0  0  0  0  0  0  0  0  0
  146.4200  156.4300  133.1660 C   0  0  0  0  0  0  0  0  0  0  0  0
  146.1690  157.8100  133.2650 C   0  0  0  0  0  0  0  0  0  0  0  0
  139.5650  159.7410  132.5040 C   0  0  0  0  0  0  0  0  0  0  0  0
  138.3900  159.7180  131.5300 C   0  0  0  0  0  0  0  0  0  0  0  0
  139.7920  159.3510  131.0490 C   0  0  0  0  0  0  0  0  0  0  0  0
  138.8355  156.8040  134.0273 H   0  0  0  0  0  0  0  0  0  0  0  0
  138.1904  157.5275  132.5150 H   0  0  0  0  0  0  0  0  0  0  0  0
  139.8023  156.7349  132.5150 H   0  0  0  0  0  0  0  0  0  0  0  0
  142.0879  155.7663  135.4792 H   0  0  0  0  0  0  0  0  0  0  0  0
  141.6870  156.2412  133.7947 H   0  0  0  0  0  0  0  0  0  0  0  0
  142.6570  159.9980  132.7620 H   0  0  0  0  0  0  0  0  0  0  0  0
  147.1891  160.9362  133.1710 H   0  0  0  0  0  0  0  0  0  0  0  0
  149.3089  159.0696  132.8050 H   0  0  0  0  0  0  0  0  0  0  0  0
  149.8226  156.6140  132.6646 H   0  0  0  0  0  0  0  0  0  0  0  0
  146.1392  153.5570  133.3797 H   0  0  0  0  0  0  0  0  0  0  0  0
  150.5485  151.2702  133.4350 H   0  0  0  0  0  0  0  0  0  0  0  0
  149.7686  150.7710  131.8958 H   0  0  0  0  0  0  0  0  0  0  0  0
  151.0002  152.0786  131.8958 H   0  0  0  0  0  0  0  0  0  0  0  0
  150.2146  154.4750  132.3651 H   0  0  0  0  0  0  0  0  0  0  0  0
  145.5968  155.7049  133.2477 H   0  0  0  0  0  0  0  0  0  0  0  0
  139.9411  160.5001  133.2057 H   0  0  0  0  0  0  0  0  0  0  0  0
  137.6172  158.9402  131.6181 H   0  0  0  0  0  0  0  0  0  0  0  0
  137.6241  160.4427  131.2166 H   0  0  0  0  0  0  0  0  0  0  0  0
  140.0290  158.3086  130.7897 H   0  0  0  0  0  0  0  0  0  0  0  0
  140.4546  159.7021  130.2442 H   0  0  0  0  0  0  0  0  0  0  0  0
  1  2  1  0
  2  3  1  0
  3  4  2  0
  3  5  1  0
  5  6  1  0
  6  7  1  0
  7  8  1  0
  8  9  2  0
  8 10  1  0
 10 11  1  0
 11 12  1  0
 12 13  1  0
 12 14  2  0
 11 15  2  0
 15 16  1  0
 16 17  2  0
 17 18  1  0
 18 19  2  0
 19 20  1  0
 20 21  1  0
 21 22  2  0
 22 23  1  0
 23 24  1  0
 23 25  1  0
 19 26  1  0
 26 27  2  0
  2 28  1  0
 28 29  1  0
 29 30  1  0
 27 10  1  0
 30 28  1  0
 27 16  1  0
 25 20  2  0
  1 31  1  0
  1 32  1  0
  1 33  1  0
  6 34  1  0
  6 35  1  0
 13 36  1  0
 15 37  1  0
 17 38  1  0
 18 39  1  0
 21 40  1  0
 24 41  1  0
 24 42  1  0
 24 43  1  0
 25 44  1  0
 26 45  1  0
 28 46  1  0
 29 47  1  0
 29 48  1  0
 30 49  1  0
 30 50  1  0
M  CHG  1  13  -1
M  END
>  <UniqueID>  (9) 
9

>  <SMILES>  (9) 
CN(C(=O)OCOC(=O)n1c(C([NH-])=O)cc2ccc(-c3cnn(C)c3)cc21)C1CC1

>  <Energy>  (9) 
392.04629168212904

>  <Genealogy>  (9) 
CN(C(=O)OCOC(=O)n1c(C([NH-])=O)cc2ccc(-c3cnn(C)c3)cc21)C1CC1 (protonated)
CN(C(=O)OCOC(=O)n1c(C([NH-])=O)cc2ccc(-c3cnn(C)c3)cc21)C1CC1 (3D coordinates assigned)
CN(C(=O)OCOC(=O)n1c(C([NH-])=O)cc2ccc(-c3cnn(C)c3)cc21)C1CC1 (nonaromatic ring conformer: 392.04629168212904 kcal/mol)

>  <smiles>  (9) 
CN(C(=O)OCOC(=O)n1c(C(N)=O)cc2ccc(-c3cnn(C)c3)cc21)C1CC1

>  <score_type>  (9) 
oracle

>  <origin>  (9) 
adg

>  <m_score__min__energy>  (9) 
-8.3399999999999999

>  <m_primary>  (9) 
energy

$$$$
10:0
     RDKit          3D

 41 43  0  0  0  0  0  0  0  0999 V2000
  138.3770  147.9560  129.8810 N   0  0  0  0  0  0  0  0  0  0  0  0
  139.5910  147.7760  130.6070 C   0  0  0  0  0  0  0  0  0  0  0  0
  140.1130  146.6300  130.6570 O   0  0  0  0  0  0  0  0  0  0  0  0
  140.2350  148.9210  131.2940 C   0  0  0  0  0  0  0  0  0  0  0  0
  141.5910  148.8630  131.6580 C   0  0  0  0  0  0  0  0  0  0  0  0
  142.2000  149.9410  132.3080 C   0  0  0  0  0  0  0  0  0  0  0  0
  141.4650  151.1000  132.6090 C   0  0  0  0  0  0  0  0  0  0  0  0
  142.1140  152.2350  133.3020 C   0  0  0  0  0  0  0  0  0  0  0  0
  143.3580  152.4190  133.1840 O   0  0  0  0  0  0  0  0  0  0  0  0
  141.3370  153.0980  134.0870 O   0  0  0  0  0  0  0  0  0  0  0  0
  140.6540  154.2280  133.6180 C   0  0  0  0  0  0  0  0  0  0  0  0
  139.8780  154.1470  132.6280 O   0  0  0  0  0  0  0  0  0  0  0  0
  140.8330  155.4900  134.2830 N   0  0  0  0  0  0  0  0  0  0  0  0
  141.5260  155.7330  135.4320 C   0  0  0  0  0  0  0  0  0  0  0  0
  142.1170  154.7130  136.3190 C   0  0  0  0  0  0  0  0  0  0  0  0
  143.0790  153.7760  135.8310 N   0  0  0  0  0  0  0  0  0  0  0  0
  141.7270  154.6290  137.5140 O   0  0  0  0  0  0  0  0  0  0  0  0
  141.5650  157.0980  135.7040 C   0  0  0  0  0  0  0  0  0  0  0  0
  140.8540  157.6910  134.6870 C   0  0  0  0  0  0  0  0  0  0  0  0
  140.5920  159.0360  134.4470 C   0  0  0  0  0  0  0  0  0  0  0  0
  139.8640  159.3700  133.2930 C   0  0  0  0  0  0  0  0  0  0  0  0
  139.4060  158.3620  132.4060 C   0  0  0  0  0  0  0  0  0  0  0  0
  138.6800  158.7370  131.1390 C   0  0  0  0  0  0  0  0  0  0  0  0
  139.4700  159.5560  130.3490 F   0  0  0  0  0  0  0  0  0  0  0  0
  138.3590  157.6080  130.4060 F   0  0  0  0  0  0  0  0  0  0  0  0
  137.5170  159.4090  131.4630 F   0  0  0  0  0  0  0  0  0  0  0  0
  139.7200  157.0090  132.6700 C   0  0  0  0  0  0  0  0  0  0  0  0
  140.4240  156.7010  133.8400 C   0  0  0  0  0  0  0  0  0  0  0  0
  140.1090  151.1590  132.2450 C   0  0  0  0  0  0  0  0  0  0  0  0
  139.5010  150.0810  131.5940 C   0  0  0  0  0  0  0  0  0  0  0  0
  137.4670  148.0800  130.3780 H   0  0  0  0  0  0  0  0  0  0  0  0
  142.1787  147.9616  131.4296 H   0  0  0  0  0  0  0  0  0  0  0  0
  143.2627  149.8811  132.5858 H   0  0  0  0  0  0  0  0  0  0  0  0
  143.2960  153.7080  134.8110 H   0  0  0  0  0  0  0  0  0  0  0  0
  143.5150  153.0840  136.4800 H   0  0  0  0  0  0  0  0  0  0  0  0
  142.0590  157.5958  136.5514 H   0  0  0  0  0  0  0  0  0  0  0  0
  140.9442  159.8144  135.1399 H   0  0  0  0  0  0  0  0  0  0  0  0
  139.6464  160.4259  133.0745 H   0  0  0  0  0  0  0  0  0  0  0  0
  139.4176  156.2154  131.9709 H   0  0  0  0  0  0  0  0  0  0  0  0
  139.5212  152.0602  132.4739 H   0  0  0  0  0  0  0  0  0  0  0  0
  138.4389  150.1417  131.3143 H   0  0  0  0  0  0  0  0  0  0  0  0
  1  2  1  0
  2  3  2  0
  2  4  1  0
  4  5  2  0
  5  6  1  0
  6  7  2  0
  7  8  1  0
  8  9  2  0
  8 10  1  0
 10 11  1  0
 11 12  2  0
 11 13  1  0
 13 14  1  0
 14 15  1  0
 15 16  1  0
 15 17  2  0
 14 18  2  0
 18 19  1  0
 19 20  2  0
 20 21  1  0
 21 22  2  0
 22 23  1  0
 23 24  1  0
 23 25  1  0
 23 26  1  0
 22 27  1  0
 27 28  2  0
  7 29  1  0
 29 30  2  0
 30  4  1  0
 28 13  1  0
 28 19  1  0
  1 31  1  0
  5 32  1  0
  6 33  1  0
 16 34  1  0
 16 35  1  0
 18 36  1  0
 20 37  1  0
 21 38  1  0
 27 39  1  0
 29 40  1  0
 30 41  1  0
M  CHG  1   1  -1
M  END
>  <UniqueID>  (10) 
10

>  <SMILES>  (10) 
[NH-]C(=O)c1ccc(C(=O)OC(=O)n2c(C(N)=O)cc3ccc(C(F)(F)F)cc32)cc1

>  <Energy>  (10) 
85.16918292898339

>  <Genealogy>  (10) 
[NH-]C(=O)c1ccc(C(=O)OC(=O)n2c(C(N)=O)cc3ccc(C(F)(F)F)cc32)cc1 (protonated)
[NH-]C(=O)c1ccc(C(=O)OC(=O)n2c(C(N)=O)cc3ccc(C(F)(F)F)cc32)cc1 (3D coordinates assigned)
[NH-]C(=O)c1ccc(C(=O)OC(=O)n2c(C(N)=O)cc3ccc(C(F)(F)F)cc32)cc1 (optimized conformer: 85.16918292898339 kcal/mol)

>  <smiles>  (10) 
NC(=O)c1ccc(C(=O)OC(=O)n2c(C(N)=O)cc3ccc(C(F)(F)F)cc32)cc1

>  <score_type>  (10) 
oracle

>  <origin>  (10) 
adg

>  <m_score__min__energy>  (10) 
-8.3900000000000006

>  <m_primary>  (10) 
energy

$$$$
11:0
     RDKit          3D

 32 34  0  0  0  0  0  0  0  0999 V2000
  149.0300  159.1900  130.0980 C   0  0  0  0  0  0  0  0  0  0  0  0
  149.3590  159.2720  131.4130 C   0  0  0  0  0  0  0  0  0  0  0  0
  149.8650  160.4740  131.8110 O   0  0  0  0  0  0  0  0  0  0  0  0
  149.1130  158.0780  132.1780 C   0  0  0  0  0  0  0  0  0  0  0  0
  150.1420  157.2880  132.2070 O   0  0  0  0  0  0  0  0  0  0  0  0
  147.9810  157.6420  132.8610 N   0  0  0  0  0  0  0  0  0  0  0  0
  146.8580  158.2640  133.2230 C   0  0  0  0  0  0  0  0  0  0  0  0
  146.5490  159.6890  133.3440 C   0  0  0  0  0  0  0  0  0  0  0  0
  147.4720  160.7410  133.1830 N   0  0  0  0  0  0  0  0  0  0  0  0
  145.3520  160.0460  133.6330 O   0  0  0  0  0  0  0  0  0  0  0  0
  145.9190  157.3390  133.7100 C   0  0  0  0  0  0  0  0  0  0  0  0
  146.5120  156.1140  133.6400 C   0  0  0  0  0  0  0  0  0  0  0  0
  146.0040  154.8820  134.0000 C   0  0  0  0  0  0  0  0  0  0  0  0
  146.7900  153.7690  133.8400 C   0  0  0  0  0  0  0  0  0  0  0  0
  148.0570  153.9170  133.3260 C   0  0  0  0  0  0  0  0  0  0  0  0
  148.8890  152.7270  133.1560 C   0  0  0  0  0  0  0  0  0  0  0  0
  149.4560  152.3310  131.8650 C   0  0  0  0  0  0  0  0  0  0  0  0
  150.3450  150.8820  132.1970 S   0  0  0  0  0  0  0  0  0  0  0  0
  149.9040  150.9030  134.0170 N   0  0  0  0  0  0  0  0  0  0  0  0
  149.2230  151.8980  134.0900 N   0  0  0  0  0  0  0  0  0  0  0  0
  148.5430  155.1660  132.9710 C   0  0  0  0  0  0  0  0  0  0  0  0
  147.7640  156.3100  133.1250 C   0  0  0  0  0  0  0  0  0  0  0  0
  148.6146  158.2558  129.6922 H   0  0  0  0  0  0  0  0  0  0  0  0
  149.1789  160.0578  129.4387 H   0  0  0  0  0  0  0  0  0  0  0  0
  150.7490  160.8640  131.5520 H   0  0  0  0  0  0  0  0  0  0  0  0
  147.1800  161.6600  132.7820 H   0  0  0  0  0  0  0  0  0  0  0  0
  148.4780  160.5710  133.4790 H   0  0  0  0  0  0  0  0  0  0  0  0
  144.9054  157.5601  134.0756 H   0  0  0  0  0  0  0  0  0  0  0  0
  144.9863  154.7942  134.4082 H   0  0  0  0  0  0  0  0  0  0  0  0
  146.4128  152.7739  134.1184 H   0  0  0  0  0  0  0  0  0  0  0  0
  149.3423  152.8415  130.8973 H   0  0  0  0  0  0  0  0  0  0  0  0
  149.5600  155.2547  132.5612 H   0  0  0  0  0  0  0  0  0  0  0  0
  1  2  2  0
  2  3  1  0
  2  4  1  0
  4  5  2  0
  4  6  1  0
  6  7  1  0
  7  8  1  0
  8  9  1  0
  8 10  2  0
  7 11  2  0
 11 12  1  0
 12 13  2  0
 13 14  1  0
 14 15  2  0
 15 16  1  0
 16 17  2  0
 17 18  1  0
 18 19  1  0
 19 20  2  0
 15 21  1  0
 21 22  2  0
 22  6  1  0
 22 12  1  0
 20 16  1  0
  1 23  1  0
  1 24  1  0
  3 25  1  0
  9 26  1  0
  9 27  1  0
 11 28  1  0
 13 29  1  0
 14 30  1  0
 17 31  1  0
 21 32  1  0
M  END
>  <smiles>  (11) 
C=C(O)C(=O)n1c(C(N)=O)cc2ccc(-c3csnn3)cc21

>  <score_type>  (11) 
oracle

>  <origin>  (11) 
adg

>  <m_score__min__energy>  (11) 
-7.7400000000000002

>  <m_primary>  (11) 
energy

$$$$
12:0
     RDKit          3D

 36 37  0  0  0  0  0  0  0  0999 V2000
  141.0210  159.7650  132.5670 N   0  0  0  0  0  0  0  0  0  0  0  0
  141.1280  158.5880  133.3640 C   0  0  0  0  0  0  0  0  0  0  0  0
  140.4890  157.5500  133.0400 O   0  0  0  0  0  0  0  0  0  0  0  0
  142.0350  158.5700  134.5520 C   0  0  0  0  0  0  0  0  0  0  0  0
  143.3960  159.0810  134.1690 C   0  0  0  0  0  0  0  0  0  0  0  0
  143.6440  160.4750  134.1060 C   0  0  0  0  0  0  0  0  0  0  0  0
  144.9080  160.9600  133.7260 C   0  0  0  0  0  0  0  0  0  0  0  0
  145.8920  160.0300  133.4000 C   0  0  0  0  0  0  0  0  0  0  0  0
  147.1960  160.2250  133.0120 C   0  0  0  0  0  0  0  0  0  0  0  0
  147.7150  158.9480  132.8060 C   0  0  0  0  0  0  0  0  0  0  0  0
  149.0740  158.7040  132.2780 C   0  0  0  0  0  0  0  0  0  0  0  0
  149.6130  157.3850  132.2230 N   0  0  0  0  0  0  0  0  0  0  0  0
  149.7460  159.6650  131.8180 O   0  0  0  0  0  0  0  0  0  0  0  0
  146.7730  157.9980  133.0710 N   0  0  0  0  0  0  0  0  0  0  0  0
  146.9300  156.5700  133.0540 C   0  0  0  0  0  0  0  0  0  0  0  0
  147.0770  155.9650  131.9570 O   0  0  0  0  0  0  0  0  0  0  0  0
  146.9390  155.8550  134.2560 O   0  0  0  0  0  0  0  0  0  0  0  0
  146.8950  154.4310  134.3070 C   0  0  0  0  0  0  0  0  0  0  0  0
  148.1900  153.9270  134.5390 O   0  0  0  0  0  0  0  0  0  0  0  0
  148.8310  153.3140  133.0800 P   0  0  2  0  0  0  0  0  0  0  0  0
  147.6980  152.7780  132.2340 O   0  0  0  0  0  0  0  0  0  0  0  0
  149.9390  152.0650  133.3630 O   0  0  0  0  0  0  0  0  0  0  0  0
  149.6030  154.5620  132.2390 O   0  0  0  0  0  0  0  0  0  0  0  0
  145.6600  158.6790  133.4290 C   0  0  0  0  0  0  0  0  0  0  0  0
  144.4170  158.1690  133.8220 C   0  0  0  0  0  0  0  0  0  0  0  0
  141.7460  159.9960  131.8520 H   0  0  0  0  0  0  0  0  0  0  0  0
  141.6143  159.2107  135.3410 H   0  0  0  0  0  0  0  0  0  0  0  0
  142.1278  157.5373  134.9193 H   0  0  0  0  0  0  0  0  0  0  0  0
  142.8408  161.1836  134.3565 H   0  0  0  0  0  0  0  0  0  0  0  0
  145.1131  162.0400  133.6874 H   0  0  0  0  0  0  0  0  0  0  0  0
  147.7190  161.1850  132.8900 H   0  0  0  0  0  0  0  0  0  0  0  0
  149.0750  156.6030  131.7900 H   0  0  0  0  0  0  0  0  0  0  0  0
  146.2273  154.1142  135.1217 H   0  0  0  0  0  0  0  0  0  0  0  0
  146.5174  154.0423  133.3498 H   0  0  0  0  0  0  0  0  0  0  0  0
  148.9760  155.3260  132.2880 H   0  0  0  0  0  0  0  0  0  0  0  0
  144.2398  157.0840  133.8597 H   0  0  0  0  0  0  0  0  0  0  0  0
  1  2  1  0
  2  3  2  0
  2  4  1  0
  4  5  1  0
  5  6  2  0
  6  7  1  0
  7  8  2  0
  8  9  1  0
  9 10  2  0
 10 11  1  0
 11 12  1  0
 11 13  2  0
 10 14  1  0
 14 15  1  0
 15 16  2  0
 15 17  1  0
 17 18  1  0
 18 19  1  0
 19 20  1  0
 20 21  2  0
 20 22  1  1
 20 23  1  0
 14 24  1  0
 24 25  2  0
 25  5  1  0
 24  8  1  0
  1 26  1  0
  4 27  1  0
  4 28  1  0
  6 29  1  0
  7 30  1  0
  9 31  1  0
 12 32  1  0
 18 33  1  0
 18 34  1  0
 23 35  1  0
 25 36  1  0
M  CHG  3   1  -1  12  -1  22  -1
M  END
>  <UniqueID>  (12) 
11

>  <SMILES>  (12) 
[NH-]C(=O)Cc1ccc2cc(C([NH-])=O)n(C(=O)OCO[P@](=O)([O-])O)c2c1

>  <Energy>  (12) 
69.85175687159384

>  <Genealogy>  (12) 
[NH-]C(=O)Cc1ccc2cc(C([NH-])=O)n(C(=O)OCOP(=O)([O-])O)c2c1 (protonated)
[NH-]C(=O)Cc1ccc2cc(C([NH-])=O)n(C(=O)OCO[P@](=O)([O-])O)c2c1 (chirality)
[NH-]C(=O)Cc1ccc2cc(C([NH-])=O)n(C(=O)OCO[P@](=O)([O-])O)c2c1 (3D coordinates assigned)
[NH-]C(=O)Cc1ccc2cc(C([NH-])=O)n(C(=O)OCO[P@](=O)([O-])O)c2c1 (optimized conformer: 69.85175687159384 kcal/mol)

>  <smiles>  (12) 
NC(=O)Cc1ccc2cc(C(N)=O)n(C(=O)OCOP(=O)(O)O)c2c1

>  <score_type>  (12) 
oracle

>  <origin>  (12) 
adg

>  <m_score__min__energy>  (12) 
-6.2599999999999998

>  <m_primary>  (12) 
energy

$$$$
13:0
     RDKit          3D

 35 36  0  0  0  0  0  0  0  0999 V2000
  146.1090  155.1250  132.6250 C   0  0  0  0  0  0  0  0  0  0  0  0
  147.2700  155.6570  133.0300 C   0  0  0  0  0  0  0  0  0  0  0  0
  148.5540  155.0460  132.6070 C   0  0  0  0  0  0  0  0  0  0  0  0
  149.6060  155.7410  132.5630 O   0  0  0  0  0  0  0  0  0  0  0  0
  148.5950  153.6950  132.2470 O   0  0  0  0  0  0  0  0  0  0  0  0
  149.6700  152.8360  132.6020 C   0  0  0  0  0  0  0  0  0  0  0  0
  147.2650  156.8510  133.9160 C   0  0  0  0  0  0  0  0  0  0  0  0
  147.9330  156.8410  134.9870 O   0  0  0  0  0  0  0  0  0  0  0  0
  146.5230  158.0310  133.5680 N   0  0  0  0  0  0  0  0  0  0  0  0
  146.9970  159.1900  133.0290 C   0  0  0  0  0  0  0  0  0  0  0  0
  148.3900  159.4170  132.5810 C   0  0  0  0  0  0  0  0  0  0  0  0
  149.4410  158.5390  132.9880 N   0  0  0  0  0  0  0  0  0  0  0  0
  148.6630  160.4020  131.8470 O   0  0  0  0  0  0  0  0  0  0  0  0
  145.9680  160.1220  132.9010 C   0  0  0  0  0  0  0  0  0  0  0  0
  144.8410  159.4880  133.3750 C   0  0  0  0  0  0  0  0  0  0  0  0
  143.5360  159.9540  133.5040 C   0  0  0  0  0  0  0  0  0  0  0  0
  142.5790  159.0880  134.0590 C   0  0  0  0  0  0  0  0  0  0  0  0
  142.9340  157.7750  134.4610 C   0  0  0  0  0  0  0  0  0  0  0  0
  141.9110  156.8770  135.1100 C   0  0  0  0  0  0  0  0  0  0  0  0
  141.5060  155.8840  134.2330 F   0  0  0  0  0  0  0  0  0  0  0  0
  142.4670  156.2900  136.2310 F   0  0  0  0  0  0  0  0  0  0  0  0
  140.7940  157.6030  135.4860 F   0  0  0  0  0  0  0  0  0  0  0  0
  144.2770  157.3470  134.3350 C   0  0  0  0  0  0  0  0  0  0  0  0
  145.2040  158.2270  133.7670 C   0  0  0  0  0  0  0  0  0  0  0  0
  145.1571  155.5783  132.9388 H   0  0  0  0  0  0  0  0  0  0  0  0
  146.1076  154.2349  131.9787 H   0  0  0  0  0  0  0  0  0  0  0  0
  149.7450  152.7761  133.6978 H   0  0  0  0  0  0  0  0  0  0  0  0
  149.4879  151.8318  132.1915 H   0  0  0  0  0  0  0  0  0  0  0  0
  150.6092  153.2351  132.1915 H   0  0  0  0  0  0  0  0  0  0  0  0
  149.2460  157.6750  133.5400 H   0  0  0  0  0  0  0  0  0  0  0  0
  150.4250  158.7290  132.6910 H   0  0  0  0  0  0  0  0  0  0  0  0
  146.0408  161.1459  132.5055 H   0  0  0  0  0  0  0  0  0  0  0  0
  143.2622  160.9693  133.1813 H   0  0  0  0  0  0  0  0  0  0  0  0
  141.5417  159.4325  134.1833 H   0  0  0  0  0  0  0  0  0  0  0  0
  144.5842  156.3471  134.6753 H   0  0  0  0  0  0  0  0  0  0  0  0
  1  2  2  0
  2  3  1  0
  3  4  2  0
  3  5  1  0
  5  6  1  0
  2  7  1  0
  7  8  2  0
  7  9  1  0
  9 10  1  0
 10 11  1  0
 11 12  1  0
 11 13  2  0
 10 14  2  0
 14 15  1  0
 15 16  2  0
 16 17  1  0
 17 18  2  0
 18 19  1  0
 19 20  1  0
 19 21  1  0
 19 22  1  0
 18 23  1  0
 23 24  2  0
 24  9  1  0
 24 15  1  0
  1 25  1  0
  1 26  1  0
  6 27  1  0
  6 28  1  0
  6 29  1  0
 12 30  1  0
 12 31  1  0
 14 32  1  0
 16 33  1  0
 17 34  1  0
 23 35  1  0
M  END
>  <UniqueID>  (13) 
12

>  <SMILES>  (13) 
C=C(C(=O)OC)C(=O)n1c(C(N)=O)cc2ccc(C(F)(F)F)cc21

>  <Energy>  (13) 
73.61147351553463

>  <Genealogy>  (13) 
C=C(C(=O)OC)C(=O)n1c(C(N)=O)cc2ccc(C(F)(F)F)cc21 (3D coordinates assigned)
C=C(C(=O)OC)C(=O)n1c(C(N)=O)cc2ccc(C(F)(F)F)cc21 (optimized conformer: 73.61147351553463 kcal/mol)

>  <smiles>  (13) 
C=C(C(=O)OC)C(=O)n1c(C(N)=O)cc2ccc(C(F)(F)F)cc21

>  <score_type>  (13) 
oracle

>  <origin>  (13) 
adg

>  <m_score__min__energy>  (13) 
-6.0599999999999996

>  <m_primary>  (13) 
energy

$$$$
14:0
     RDKit          3D

 51 53  0  0  0  0  0  0  0  0999 V2000
  145.1040  156.2770  133.5290 N   0  0  0  0  0  0  0  0  0  0  0  0
  143.8910  156.2230  134.2840 C   0  0  0  0  0  0  0  0  0  0  0  0
  143.8850  155.6260  135.3920 O   0  0  0  0  0  0  0  0  0  0  0  0
  142.6630  156.8880  133.7910 C   0  0  0  0  0  0  0  0  0  0  0  0
  141.4280  156.2530  133.6670 C   0  0  0  0  0  0  0  0  0  0  0  0
  140.5920  157.1890  133.1040 C   0  0  0  0  0  0  0  0  0  0  0  0
  139.2410  157.1020  132.7770 C   0  0  0  0  0  0  0  0  0  0  0  0
  138.6190  158.2410  132.2400 C   0  0  0  0  0  0  0  0  0  0  0  0
  139.3490  159.4400  132.0450 C   0  0  0  0  0  0  0  0  0  0  0  0
  138.6590  160.6530  131.4910 C   0  0  0  0  0  0  0  0  0  0  0  0
  137.2930  160.4400  131.4660 F   0  0  0  0  0  0  0  0  0  0  0  0
  139.1060  160.8970  130.2050 F   0  0  0  0  0  0  0  0  0  0  0  0
  140.7190  159.4910  132.3890 C   0  0  0  0  0  0  0  0  0  0  0  0
  141.3180  158.3350  132.9050 C   0  0  0  0  0  0  0  0  0  0  0  0
  142.5920  158.1640  133.3190 N   0  0  0  0  0  0  0  0  0  0  0  0
  143.6240  159.1620  133.3440 C   0  0  0  0  0  0  0  0  0  0  0  0
  143.3520  160.3410  133.7010 O   0  0  0  0  0  0  0  0  0  0  0  0
  144.9350  158.8140  132.9970 O   0  0  0  0  0  0  0  0  0  0  0  0
  145.8370  159.7100  132.3500 C   0  0  0  0  0  0  0  0  0  0  0  0
  146.6530  160.4590  133.3560 C   0  0  0  0  0  0  0  0  0  0  0  0
  146.0960  161.3120  134.0990 O   0  0  0  0  0  0  0  0  0  0  0  0
  148.0310  160.2270  133.4390 O   0  0  0  0  0  0  0  0  0  0  0  0
  148.5990  158.9990  133.8840 C   0  0  0  0  0  0  0  0  0  0  0  0
  148.3780  157.8960  132.8290 C   0  0  0  0  0  0  0  0  0  0  0  0
  147.9130  156.6030  133.3790 N   0  0  0  0  0  0  0  0  0  0  0  0
  148.5120  155.4230  132.7330 C   0  0  0  0  0  0  0  0  0  0  0  0
  147.7900  154.1470  133.2190 C   0  0  0  0  0  0  0  0  0  0  0  0
  146.9650  154.3800  134.3490 O   0  0  0  0  0  0  0  0  0  0  0  0
  147.6860  155.0940  135.3350 C   0  0  0  0  0  0  0  0  0  0  0  0
  148.0030  156.5220  134.8490 C   0  0  0  0  0  0  0  0  0  0  0  0
  145.1340  156.7110  132.5810 H   0  0  0  0  0  0  0  0  0  0  0  0
  145.9730  155.8360  133.9040 H   0  0  0  0  0  0  0  0  0  0  0  0
  141.1758  155.2225  133.9576 H   0  0  0  0  0  0  0  0  0  0  0  0
  138.6784  156.1699  132.9344 H   0  0  0  0  0  0  0  0  0  0  0  0
  137.5539  158.2020  131.9679 H   0  0  0  0  0  0  0  0  0  0  0  0
  138.8853  161.5196  132.1296 H   0  0  0  0  0  0  0  0  0  0  0  0
  141.3000  160.4153  132.2548 H   0  0  0  0  0  0  0  0  0  0  0  0
  146.5092  159.1354  131.6958 H   0  0  0  0  0  0  0  0  0  0  0  0
  145.2543  160.4324  131.7596 H   0  0  0  0  0  0  0  0  0  0  0  0
  149.6784  159.1357  134.0460 H   0  0  0  0  0  0  0  0  0  0  0  0
  148.1129  158.6988  134.8240 H   0  0  0  0  0  0  0  0  0  0  0  0
  147.6258  158.2539  132.1106 H   0  0  0  0  0  0  0  0  0  0  0  0
  149.3580  157.7046  132.3674 H   0  0  0  0  0  0  0  0  0  0  0  0
  148.4075  155.5101  131.6414 H   0  0  0  0  0  0  0  0  0  0  0  0
  149.5784  155.3632  132.9960 H   0  0  0  0  0  0  0  0  0  0  0  0
  147.1641  153.7635  132.3997 H   0  0  0  0  0  0  0  0  0  0  0  0
  148.5620  153.4218  133.5159 H   0  0  0  0  0  0  0  0  0  0  0  0
  147.0833  155.1503  136.2534 H   0  0  0  0  0  0  0  0  0  0  0  0
  148.6322  154.5686  135.5319 H   0  0  0  0  0  0  0  0  0  0  0  0
  147.2823  157.2236  135.2944 H   0  0  0  0  0  0  0  0  0  0  0  0
  149.0269  156.7816  135.1560 H   0  0  0  0  0  0  0  0  0  0  0  0
  1  2  1  0
  2  3  2  0
  2  4  1  0
  4  5  2  0
  5  6  1  0
  6  7  2  0
  7  8  1  0
  8  9  2  0
  9 10  1  0
 10 11  1  0
 10 12  1  0
  9 13  1  0
 13 14  2  0
 14 15  1  0
 15 16  1  0
 16 17  2  0
 16 18  1  0
 18 19  1  0
 19 20  1  0
 20 21  2  0
 20 22  1  0
 22 23  1  0
 23 24  1  0
 24 25  1  0
 25 26  1  0
 26 27  1  0
 27 28  1  0
 28 29  1  0
 29 30  1  0
 15  4  1  0
 30 25  1  0
 14  6  1  0
  1 31  1  0
  1 32  1  0
  5 33  1  0
  7 34  1  0
  8 35  1  0
 10 36  1  0
 13 37  1  0
 19 38  1  0
 19 39  1  0
 23 40  1  0
 23 41  1  0
 24 42  1  0
 24 43  1  0
 26 44  1  0
 26 45  1  0
 27 46  1  0
 27 47  1  0
 29 48  1  0
 29 49  1  0
 30 50  1  0
 30 51  1  0
M  END
>  <UniqueID>  (14) 
13

>  <SMILES>  (14) 
NC(=O)c1cc2ccc(C(F)F)cc2n1C(=O)OCC(=O)OCCN1CCOCC1

>  <Energy>  (14) 
97.68302036890476

>  <Genealogy>  (14) 
NC(=O)c1cc2ccc(C(F)F)cc2n1C(=O)OCC(=O)OCCN1CCOCC1 (3D coordinates assigned)
NC(=O)c1cc2ccc(C(F)F)cc2n1C(=O)OCC(=O)OCCN1CCOCC1 (nonaromatic ring conformer: 97.68302036890476 kcal/mol)

>  <smiles>  (14) 
NC(=O)c1cc2ccc(C(F)F)cc2n1C(=O)OCC(=O)OCCN1CCOCC1

>  <score_type>  (14) 
oracle

>  <origin>  (14) 
adg

>  <m_score__min__energy>  (14) 
-7.5899999999999999

>  <m_primary>  (14) 
energy

$$$$
15:0
     RDKit          3D

 50 51  0  0  0  0  0  0  0  0999 V2000
  138.2450  160.1320  129.6860 C   0  0  0  0  0  0  0  0  0  0  0  0
  138.0990  160.4850  131.1630 C   0  0  0  0  0  0  0  0  0  0  0  0
  138.9490  159.6660  131.9630 O   0  0  0  0  0  0  0  0  0  0  0  0
  138.5180  158.4960  132.6020 C   0  0  0  0  0  0  0  0  0  0  0  0
  137.2860  158.2380  132.6920 O   0  0  0  0  0  0  0  0  0  0  0  0
  139.5450  157.5910  133.2520 C   0  0  0  0  0  0  0  0  0  0  0  0
  139.5580  157.9240  134.7590 C   0  0  0  0  0  0  0  0  0  0  0  0
  139.1690  156.1120  133.0410 C   0  0  0  0  0  0  0  0  0  0  0  0
  140.8550  157.8410  132.6170 N   0  0  0  0  0  0  0  0  0  0  0  0
  142.0940  157.2020  132.9660 C   0  0  0  0  0  0  0  0  0  0  0  0
  142.1650  155.8020  133.1820 C   0  0  0  0  0  0  0  0  0  0  0  0
  143.3900  155.1890  133.4970 C   0  0  0  0  0  0  0  0  0  0  0  0
  144.5210  155.9950  133.5810 C   0  0  0  0  0  0  0  0  0  0  0  0
  145.8330  155.6610  133.8370 C   0  0  0  0  0  0  0  0  0  0  0  0
  146.5400  156.8610  133.7680 C   0  0  0  0  0  0  0  0  0  0  0  0
  147.9940  156.9950  134.0240 C   0  0  0  0  0  0  0  0  0  0  0  0
  148.9290  157.0430  132.9440 N   0  0  0  0  0  0  0  0  0  0  0  0
  148.4240  157.0510  135.2060 O   0  0  0  0  0  0  0  0  0  0  0  0
  145.6960  157.8950  133.4910 N   0  0  0  0  0  0  0  0  0  0  0  0
  146.0420  159.2730  133.2750 C   0  0  0  0  0  0  0  0  0  0  0  0
  145.1930  160.1730  133.5150 O   0  0  0  0  0  0  0  0  0  0  0  0
  147.3710  159.6480  132.7720 C   0  0  0  0  0  0  0  0  0  0  0  0
  148.0600  160.4970  133.3990 O   0  0  0  0  0  0  0  0  0  0  0  0
  147.8530  159.0490  131.6000 O   0  0  0  0  0  0  0  0  0  0  0  0
  149.1360  159.2430  131.0670 C   0  0  0  0  0  0  0  0  0  0  0  0
  150.1330  158.6190  131.5230 O   0  0  0  0  0  0  0  0  0  0  0  0
  149.3070  160.1850  129.9200 C   0  0  0  0  0  0  0  0  0  0  0  0
  148.2050  160.1050  129.0910 F   0  0  0  0  0  0  0  0  0  0  0  0
  149.4380  161.4850  130.3730 F   0  0  0  0  0  0  0  0  0  0  0  0
  150.4390  159.8370  129.2060 F   0  0  0  0  0  0  0  0  0  0  0  0
  144.4670  157.3470  133.3710 C   0  0  0  0  0  0  0  0  0  0  0  0
  143.2670  157.9800  133.0330 C   0  0  0  0  0  0  0  0  0  0  0  0
  138.6638  159.1193  129.5907 H   0  0  0  0  0  0  0  0  0  0  0  0
  137.2583  160.1678  129.2012 H   0  0  0  0  0  0  0  0  0  0  0  0
  138.9182  160.8543  129.2012 H   0  0  0  0  0  0  0  0  0  0  0  0
  138.3712  161.5405  131.3107 H   0  0  0  0  0  0  0  0  0  0  0  0
  137.0555  160.3141  131.4661 H   0  0  0  0  0  0  0  0  0  0  0  0
  139.5216  156.9912  135.3409 H   0  0  0  0  0  0  0  0  0  0  0  0
  140.4783  158.4740  135.0051 H   0  0  0  0  0  0  0  0  0  0  0  0
  138.6834  158.5441  135.0051 H   0  0  0  0  0  0  0  0  0  0  0  0
  139.0445  155.6223  134.0181 H   0  0  0  0  0  0  0  0  0  0  0  0
  138.2266  156.0501  132.4771 H   0  0  0  0  0  0  0  0  0  0  0  0
  139.9675  155.6075  132.4771 H   0  0  0  0  0  0  0  0  0  0  0  0
  140.9190  158.6280  131.9290 H   0  0  0  0  0  0  0  0  0  0  0  0
  141.2538  155.1909  133.1024 H   0  0  0  0  0  0  0  0  0  0  0  0
  143.4526  154.1048  133.6718 H   0  0  0  0  0  0  0  0  0  0  0  0
  146.2369  154.6604  134.0505 H   0  0  0  0  0  0  0  0  0  0  0  0
  149.9510  157.1180  133.1410 H   0  0  0  0  0  0  0  0  0  0  0  0
  148.6150  157.0470  131.9490 H   0  0  0  0  0  0  0  0  0  0  0  0
  143.2392  159.0597  132.8243 H   0  0  0  0  0  0  0  0  0  0  0  0
  1  2  1  0
  2  3  1  0
  3  4  1  0
  4  5  2  0
  4  6  1  0
  6  7  1  0
  6  8  1  0
  6  9  1  0
  9 10  1  0
 10 11  2  0
 11 12  1  0
 12 13  2  0
 13 14  1  0
 14 15  2  0
 15 16  1  0
 16 17  1  0
 16 18  2  0
 15 19  1  0
 19 20  1  0
 20 21  2  0
 20 22  1  0
 22 23  2  0
 22 24  1  0
 24 25  1  0
 25 26  2  0
 25 27  1  0
 27 28  1  0
 27 29  1  0
 27 30  1  0
 19 31  1  0
 31 32  2  0
 32 10  1  0
 31 13  1  0
  1 33  1  0
  1 34  1  0
  1 35  1  0
  2 36  1  0
  2 37  1  0
  7 38  1  0
  7 39  1  0
  7 40  1  0
  8 41  1  0
  8 42  1  0
  8 43  1  0
  9 44  1  0
 11 45  1  0
 12 46  1  0
 14 47  1  0
 17 48  1  0
 17 49  1  0
 32 50  1  0
M  END
>  <UniqueID>  (15) 
14

>  <SMILES>  (15) 
CCOC(=O)C(C)(C)Nc1ccc2cc(C(N)=O)n(C(=O)C(=O)OC(=O)C(F)(F)F)c2c1

>  <Energy>  (15) 
88.35323654277644

>  <Genealogy>  (15) 
CCOC(=O)C(C)(C)Nc1ccc2cc(C(N)=O)n(C(=O)C(=O)OC(=O)C(F)(F)F)c2c1 (3D coordinates assigned)
CCOC(=O)C(C)(C)Nc1ccc2cc(C(N)=O)n(C(=O)C(=O)OC(=O)C(F)(F)F)c2c1 (optimized conformer: 88.35323654277644 kcal/mol)

>  <smiles>  (15) 
CCOC(=O)C(C)(C)Nc1ccc2cc(C(N)=O)n(C(=O)C(=O)OC(=O)C(F)(F)F)c2c1

>  <score_type>  (15) 
oracle

>  <origin>  (15) 
adg

>  <m_score__min__energy>  (15) 
-7.2300000000000004

>  <m_primary>  (15) 
energy

$$$$
16:0
     RDKit          3D

 55 57  0  0  0  0  0  0  0  0999 V2000
  141.1770  156.3330  137.7160 C   0  0  0  0  0  0  0  0  0  0  0  0
  141.0300  156.9890  136.4760 O   0  0  0  0  0  0  0  0  0  0  0  0
  140.2100  158.1260  136.6450 C   0  0  0  0  0  0  0  0  0  0  0  0
  140.5420  159.1530  135.5710 C   0  0  0  0  0  0  0  0  0  0  0  0
  139.7880  158.8810  134.3940 O   0  0  0  0  0  0  0  0  0  0  0  0
  139.7190  157.6090  133.8190 C   0  0  0  0  0  0  0  0  0  0  0  0
  138.6720  157.2380  133.2200 O   0  0  0  0  0  0  0  0  0  0  0  0
  140.8570  156.7410  133.9100 N   0  0  0  0  0  0  0  0  0  0  0  0
  140.8940  155.4040  133.3860 C   0  0  0  0  0  0  0  0  0  0  0  0
  139.8370  154.8480  132.9810 O   0  0  0  0  0  0  0  0  0  0  0  0
  142.1360  154.6800  133.3460 N   0  0  0  0  0  0  0  0  0  0  0  0
  143.3700  155.1240  133.7200 C   0  0  0  0  0  0  0  0  0  0  0  0
  143.7150  156.5090  134.0970 C   0  0  0  0  0  0  0  0  0  0  0  0
  144.5580  157.3150  133.2710 N   0  0  0  0  0  0  0  0  0  0  0  0
  143.3010  156.9730  135.1930 O   0  0  0  0  0  0  0  0  0  0  0  0
  144.3040  154.0930  133.6450 C   0  0  0  0  0  0  0  0  0  0  0  0
  143.6020  152.9990  133.1940 C   0  0  0  0  0  0  0  0  0  0  0  0
  144.0330  151.7020  132.9450 C   0  0  0  0  0  0  0  0  0  0  0  0
  143.0830  150.7620  132.5120 C   0  0  0  0  0  0  0  0  0  0  0  0
  141.7190  151.1260  132.3420 C   0  0  0  0  0  0  0  0  0  0  0  0
  140.7490  150.1500  131.9040 N   0  0  0  0  0  0  0  0  0  0  0  0
  141.0710  148.8110  131.4530 C   0  0  0  0  0  0  0  0  0  0  0  0
  139.7100  148.1350  131.3550 C   0  0  2  0  0  0  0  0  0  0  0  0
  139.6790  146.9710  130.3400 C   0  0  0  0  0  0  0  0  0  0  0  0
  138.3580  146.5520  130.1190 O   0  0  0  0  0  0  0  0  0  0  0  0
  138.7130  149.2160  131.1550 N   0  0  0  0  0  0  0  0  0  0  0  0
  138.5090  149.5750  129.7360 C   0  0  0  0  0  0  0  0  0  0  0  0
  139.3080  150.3660  131.8650 C   0  0  0  0  0  0  0  0  0  0  0  0
  141.3240  152.4600  132.6120 C   0  0  0  0  0  0  0  0  0  0  0  0
  142.2970  153.3780  133.0220 C   0  0  0  0  0  0  0  0  0  0  0  0
  141.0159  157.0521  138.5326 H   0  0  0  0  0  0  0  0  0  0  0  0
  140.4385  155.5212  137.7912 H   0  0  0  0  0  0  0  0  0  0  0  0
  142.1913  155.9140  137.7912 H   0  0  0  0  0  0  0  0  0  0  0  0
  139.1534  157.8327  136.5582 H   0  0  0  0  0  0  0  0  0  0  0  0
  140.3879  158.5629  137.6387 H   0  0  0  0  0  0  0  0  0  0  0  0
  140.2941  160.1595  135.9391 H   0  0  0  0  0  0  0  0  0  0  0  0
  141.6151  159.0984  135.3356 H   0  0  0  0  0  0  0  0  0  0  0  0
  141.7070  157.1080  134.3920 H   0  0  0  0  0  0  0  0  0  0  0  0
  144.7470  158.3080  133.5300 H   0  0  0  0  0  0  0  0  0  0  0  0
  145.0580  156.9100  132.4490 H   0  0  0  0  0  0  0  0  0  0  0  0
  145.3744  154.1430  133.8934 H   0  0  0  0  0  0  0  0  0  0  0  0
  145.0871  151.4194  133.0828 H   0  0  0  0  0  0  0  0  0  0  0  0
  143.3988  149.7296  132.3014 H   0  0  0  0  0  0  0  0  0  0  0  0
  141.5701  148.8351  130.4730 H   0  0  0  0  0  0  0  0  0  0  0  0
  141.7639  148.2858  132.1268 H   0  0  0  0  0  0  0  0  0  0  0  0
  139.4528  147.6014  132.2819 H   0  0  0  0  0  0  0  0  0  0  0  0
  140.1168  147.3075  129.3886 H   0  0  0  0  0  0  0  0  0  0  0  0
  140.2586  146.1281  130.7446 H   0  0  0  0  0  0  0  0  0  0  0  0
  137.7620  147.2540  130.4850 H   0  0  0  0  0  0  0  0  0  0  0  0
  137.9664  150.5298  129.6737 H   0  0  0  0  0  0  0  0  0  0  0  0
  139.4853  149.6749  129.2390 H   0  0  0  0  0  0  0  0  0  0  0  0
  137.9235  148.7875  129.2390 H   0  0  0  0  0  0  0  0  0  0  0  0
  139.0812  151.2988  131.3280 H   0  0  0  0  0  0  0  0  0  0  0  0
  138.8983  150.4512  132.8823 H   0  0  0  0  0  0  0  0  0  0  0  0
  140.2737  152.7675  132.5015 H   0  0  0  0  0  0  0  0  0  0  0  0
  1  2  1  0
  2  3  1  0
  3  4  1  0
  4  5  1  0
  5  6  1  0
  6  7  2  0
  6  8  1  0
  8  9  1  0
  9 10  2  0
  9 11  1  0
 11 12  1  0
 12 13  1  0
 13 14  1  0
 13 15  2  0
 12 16  2  0
 16 17  1  0
 17 18  2  0
 18 19  1  0
 19 20  2  0
 20 21  1  0
 21 22  1  0
 22 23  1  0
 23 24  1  0
 24 25  1  0
 23 26  1  0
 26 27  1  0
 26 28  1  0
 20 29  1  0
 29 30  2  0
 30 11  1  0
 30 17  1  0
 28 21  1  0
  1 31  1  0
  1 32  1  0
  1 33  1  0
  3 34  1  0
  3 35  1  0
  4 36  1  0
  4 37  1  0
  8 38  1  0
 14 39  1  0
 14 40  1  0
 16 41  1  0
 18 42  1  0
 19 43  1  0
 22 44  1  0
 22 45  1  0
 23 46  1  1
 24 47  1  0
 24 48  1  0
 25 49  1  0
 27 50  1  0
 27 51  1  0
 27 52  1  0
 28 53  1  0
 28 54  1  0
 29 55  1  0
M  END
>  <UniqueID>  (16) 
15

>  <SMILES>  (16) 
COCCOC(=O)NC(=O)n1c(C(N)=O)cc2ccc(N3C[C@H](CO)N(C)C3)cc21

>  <Energy>  (16) 
100.97826346136526

>  <Genealogy>  (16) 
COCCOC(=O)NC(=O)n1c(C(N)=O)cc2ccc(N3C[C@H](CO)N(C)C3)cc21 (chirality)
COCCOC(=O)NC(=O)n1c(C(N)=O)cc2ccc(N3C[C@H](CO)N(C)C3)cc21 (3D coordinates assigned)
COCCOC(=O)NC(=O)n1c(C(N)=O)cc2ccc(N3C[C@H](CO)N(C)C3)cc21 (nonaromatic ring conformer: 100.97826346136526 kcal/mol)

>  <smiles>  (16) 
COCCOC(=O)NC(=O)n1c(C(N)=O)cc2ccc(N3CC(CO)N(C)C3)cc21

>  <score_type>  (16) 
oracle

>  <origin>  (16) 
adg

>  <m_score__min__energy>  (16) 
-7.3399999999999999

>  <m_primary>  (16) 
energy

$$$$
17:0
     RDKit          3D

 46 47  0  0  0  0  0  0  0  0999 V2000
  142.6740  160.7030  133.8700 N   0  0  0  0  0  0  0  0  0  0  0  0
  144.0940  160.8390  133.8890 C   0  0  0  0  0  0  0  0  0  0  0  0
  144.6010  161.9720  134.0980 O   0  0  0  0  0  0  0  0  0  0  0  0
  144.9480  159.6630  133.6170 C   0  0  0  0  0  0  0  0  0  0  0  0
  146.2970  159.7630  133.2840 C   0  0  0  0  0  0  0  0  0  0  0  0
  146.7550  158.4690  133.2240 C   0  0  0  0  0  0  0  0  0  0  0  0
  148.0290  157.9860  132.9450 C   0  0  0  0  0  0  0  0  0  0  0  0
  148.2180  156.5960  132.9400 C   0  0  0  0  0  0  0  0  0  0  0  0
  147.1370  155.7170  133.2000 C   0  0  0  0  0  0  0  0  0  0  0  0
  147.3560  154.2260  133.1500 C   0  0  0  0  0  0  0  0  0  0  0  0
  148.1410  153.7170  134.3660 C   0  0  0  0  0  0  0  0  0  0  0  0
  147.5950  154.2520  135.6540 C   0  0  0  0  0  0  0  0  0  0  0  0
  147.7590  155.4640  135.9590 O   0  0  0  0  0  0  0  0  0  0  0  0
  146.9160  153.4100  136.5250 O   0  0  0  0  0  0  0  0  0  0  0  0
  145.8550  156.2440  133.4810 C   0  0  0  0  0  0  0  0  0  0  0  0
  145.7000  157.6360  133.5030 C   0  0  0  0  0  0  0  0  0  0  0  0
  144.5810  158.3550  133.7440 N   0  0  0  0  0  0  0  0  0  0  0  0
  143.2770  157.8360  134.0550 C   0  0  0  0  0  0  0  0  0  0  0  0
  142.7710  158.0440  135.1920 O   0  0  0  0  0  0  0  0  0  0  0  0
  142.5720  157.1010  133.0980 O   0  0  0  0  0  0  0  0  0  0  0  0
  141.2890  156.5380  133.3600 C   0  0  0  0  0  0  0  0  0  0  0  0
  140.1910  157.4750  132.8590 C   0  0  0  0  0  0  0  0  0  0  0  0
  139.9270  158.5590  133.8550 C   0  0  0  0  0  0  0  0  0  0  0  0
  140.1610  159.7610  133.5480 O   0  0  0  0  0  0  0  0  0  0  0  0
  139.3820  158.2340  135.1010 O   0  0  0  0  0  0  0  0  0  0  0  0
  140.1770  157.9250  136.2430 C   0  0  0  0  0  0  0  0  0  0  0  0
  140.6060  159.2020  136.9630 C   0  0  0  0  0  0  0  0  0  0  0  0
  141.1730  160.0960  136.0450 O   0  0  0  0  0  0  0  0  0  0  0  0
  142.2170  159.8120  134.1640 H   0  0  0  0  0  0  0  0  0  0  0  0
  146.8734  160.6830  133.1067 H   0  0  0  0  0  0  0  0  0  0  0  0
  148.8624  158.6725  132.7348 H   0  0  0  0  0  0  0  0  0  0  0  0
  149.2163  156.1836  132.7320 H   0  0  0  0  0  0  0  0  0  0  0  0
  146.3774  153.7244  133.1242 H   0  0  0  0  0  0  0  0  0  0  0  0
  147.9441  154.0000  132.2483 H   0  0  0  0  0  0  0  0  0  0  0  0
  148.0883  152.6185  134.3876 H   0  0  0  0  0  0  0  0  0  0  0  0
  149.1799  154.0651  134.2682 H   0  0  0  0  0  0  0  0  0  0  0  0
  145.0017  155.5781  133.6772 H   0  0  0  0  0  0  0  0  0  0  0  0
  141.2044  155.5701  132.8442 H   0  0  0  0  0  0  0  0  0  0  0  0
  141.1733  156.3960  134.4446 H   0  0  0  0  0  0  0  0  0  0  0  0
  140.5085  157.9277  131.9081 H   0  0  0  0  0  0  0  0  0  0  0  0
  139.2681  156.8939  132.7153 H   0  0  0  0  0  0  0  0  0  0  0  0
  139.5905  157.3008  136.9332 H   0  0  0  0  0  0  0  0  0  0  0  0
  141.0770  157.3858  135.9123 H   0  0  0  0  0  0  0  0  0  0  0  0
  139.7279  159.6690  137.4330 H   0  0  0  0  0  0  0  0  0  0  0  0
  141.3497  158.9522  137.7340 H   0  0  0  0  0  0  0  0  0  0  0  0
  141.2520  159.5980  135.1900 H   0  0  0  0  0  0  0  0  0  0  0  0
  1  2  1  0
  2  3  2  0
  2  4  1  0
  4  5  2  0
  5  6  1  0
  6  7  2  0
  7  8  1  0
  8  9  2  0
  9 10  1  0
 10 11  1  0
 11 12  1  0
 12 13  2  0
 12 14  1  0
  9 15  1  0
 15 16  2  0
 16 17  1  0
 17 18  1  0
 18 19  2  0
 18 20  1  0
 20 21  1  0
 21 22  1  0
 22 23  1  0
 23 24  2  0
 23 25  1  0
 25 26  1  0
 26 27  1  0
 27 28  1  0
 17  4  1  0
 16  6  1  0
  1 29  1  0
  5 30  1  0
  7 31  1  0
  8 32  1  0
 10 33  1  0
 10 34  1  0
 11 35  1  0
 11 36  1  0
 15 37  1  0
 21 38  1  0
 21 39  1  0
 22 40  1  0
 22 41  1  0
 26 42  1  0
 26 43  1  0
 27 44  1  0
 27 45  1  0
 28 46  1  0
M  CHG  2   1  -1  14  -1
M  END
>  <UniqueID>  (17) 
16

>  <SMILES>  (17) 
[NH-]C(=O)c1cc2ccc(CCC(=O)[O-])cc2n1C(=O)OCCC(=O)OCCO

>  <Energy>  (17) 
69.86328633645398

>  <Genealogy>  (17) 
[NH-]C(=O)c1cc2ccc(CCC(=O)[O-])cc2n1C(=O)OCCC(=O)OCCO (protonated)
[NH-]C(=O)c1cc2ccc(CCC(=O)[O-])cc2n1C(=O)OCCC(=O)OCCO (3D coordinates assigned)
[NH-]C(=O)c1cc2ccc(CCC(=O)[O-])cc2n1C(=O)OCCC(=O)OCCO (optimized conformer: 69.86328633645398 kcal/mol)

>  <smiles>  (17) 
NC(=O)c1cc2ccc(CCC(=O)O)cc2n1C(=O)OCCC(=O)OCCO

>  <score_type>  (17) 
oracle

>  <origin>  (17) 
adg

>  <m_score__min__energy>  (17) 
-6.0899999999999999

>  <m_primary>  (17) 
energy

$$$$
18:0
     RDKit          3D

 51 53  0  0  0  0  0  0  0  0999 V2000
  138.5120  158.7170  131.7680 C   0  0  0  0  0  0  0  0  0  0  0  0
  139.3490  157.8440  132.7160 C   0  0  0  0  0  0  0  0  0  0  0  0
  138.7350  157.8950  134.1300 C   0  0  0  0  0  0  0  0  0  0  0  0
  139.3030  156.5230  132.2310 O   0  0  0  0  0  0  0  0  0  0  0  0
  140.8200  158.3280  132.7450 C   0  0  0  0  0  0  0  0  0  0  0  0
  141.7350  157.2410  132.5990 O   0  0  0  0  0  0  0  0  0  0  0  0
  141.8730  156.2010  133.5260 C   0  0  0  0  0  0  0  0  0  0  0  0
  141.1640  156.1770  134.5690 O   0  0  0  0  0  0  0  0  0  0  0  0
  142.8500  155.1710  133.3000 N   0  0  0  0  0  0  0  0  0  0  0  0
  142.6520  153.8230  133.2400 C   0  0  0  0  0  0  0  0  0  0  0  0
  141.3460  153.1320  133.2420 C   0  0  0  0  0  0  0  0  0  0  0  0
  140.1380  153.8430  132.9840 N   0  0  0  0  0  0  0  0  0  0  0  0
  141.3000  151.8860  133.4240 O   0  0  0  0  0  0  0  0  0  0  0  0
  143.8670  153.1570  133.0900 C   0  0  0  0  0  0  0  0  0  0  0  0
  144.8220  154.1450  133.0470 C   0  0  0  0  0  0  0  0  0  0  0  0
  146.2040  154.0480  132.9200 C   0  0  0  0  0  0  0  0  0  0  0  0
  146.9530  155.2370  132.9350 C   0  0  0  0  0  0  0  0  0  0  0  0
  146.3120  156.4940  133.0800 C   0  0  0  0  0  0  0  0  0  0  0  0
  147.0900  157.7050  133.1150 N   0  0  0  0  0  0  0  0  0  0  0  0
  146.4500  158.9880  132.7850 C   0  0  0  0  0  0  0  0  0  0  0  0
  147.4750  160.1250  132.6710 C   0  0  0  0  0  0  0  0  0  0  0  0
  148.6680  159.6740  131.9360 N   0  0  0  0  0  0  0  0  0  0  0  0
  149.3140  160.5430  130.9870 C   0  0  0  0  0  0  0  0  0  0  0  0
  150.3190  160.1460  130.3410 O   0  0  0  0  0  0  0  0  0  0  0  0
  148.8420  161.8330  130.7720 O   0  0  0  0  0  0  0  0  0  0  0  0
  149.2810  158.3720  132.2520 C   0  0  0  0  0  0  0  0  0  0  0  0
  148.5320  157.6600  133.3790 C   0  0  0  0  0  0  0  0  0  0  0  0
  144.9070  156.5490  133.2150 C   0  0  0  0  0  0  0  0  0  0  0  0
  144.1840  155.3520  133.1750 C   0  0  0  0  0  0  0  0  0  0  0  0
  137.8695  159.3871  132.3580 H   0  0  0  0  0  0  0  0  0  0  0  0
  139.1820  159.3160  131.1337 H   0  0  0  0  0  0  0  0  0  0  0  0
  137.8854  158.0728  131.1337 H   0  0  0  0  0  0  0  0  0  0  0  0
  139.5365  157.8284  134.8804 H   0  0  0  0  0  0  0  0  0  0  0  0
  138.1897  158.8416  134.2590 H   0  0  0  0  0  0  0  0  0  0  0  0
  138.0409  157.0514  134.2590 H   0  0  0  0  0  0  0  0  0  0  0  0
  139.9580  155.9830  132.7460 H   0  0  0  0  0  0  0  0  0  0  0  0
  140.9776  159.0401  131.9216 H   0  0  0  0  0  0  0  0  0  0  0  0
  141.0057  158.8052  133.7186 H   0  0  0  0  0  0  0  0  0  0  0  0
  139.9920  154.8090  133.3530 H   0  0  0  0  0  0  0  0  0  0  0  0
  144.0278  152.0710  133.0207 H   0  0  0  0  0  0  0  0  0  0  0  0
  146.6957  153.0700  132.8111 H   0  0  0  0  0  0  0  0  0  0  0  0
  148.0474  155.1924  132.8333 H   0  0  0  0  0  0  0  0  0  0  0  0
  145.9231  158.8863  131.8248 H   0  0  0  0  0  0  0  0  0  0  0  0
  145.7504  159.2391  133.5958 H   0  0  0  0  0  0  0  0  0  0  0  0
  147.0188  160.9709  132.1359 H   0  0  0  0  0  0  0  0  0  0  0  0
  147.7769  160.4336  133.6827 H   0  0  0  0  0  0  0  0  0  0  0  0
  149.2597  157.7390  131.3527 H   0  0  0  0  0  0  0  0  0  0  0  0
  150.3155  158.5480  132.5818 H   0  0  0  0  0  0  0  0  0  0  0  0
  148.8619  156.6121  133.4332 H   0  0  0  0  0  0  0  0  0  0  0  0
  148.7449  158.1623  134.3342 H   0  0  0  0  0  0  0  0  0  0  0  0
  144.3926  157.5121  133.3487 H   0  0  0  0  0  0  0  0  0  0  0  0
  1  2  1  0
  2  3  1  0
  2  4  1  0
  2  5  1  0
  5  6  1  0
  6  7  1  0
  7  8  2  0
  7  9  1  0
  9 10  1  0
 10 11  1  0
 11 12  1  0
 11 13  2  0
 10 14  2  0
 14 15  1  0
 15 16  2  0
 16 17  1  0
 17 18  2  0
 18 19  1  0
 19 20  1  0
 20 21  1  0
 21 22  1  0
 22 23  1  0
 23 24  2  0
 23 25  1  0
 22 26  1  0
 26 27  1  0
 18 28  1  0
 28 29  2  0
 29  9  1  0
 29 15  1  0
 27 19  1  0
  1 30  1  0
  1 31  1  0
  1 32  1  0
  3 33  1  0
  3 34  1  0
  3 35  1  0
  4 36  1  0
  5 37  1  0
  5 38  1  0
 12 39  1  0
 14 40  1  0
 16 41  1  0
 17 42  1  0
 20 43  1  0
 20 44  1  0
 21 45  1  0
 21 46  1  0
 26 47  1  0
 26 48  1  0
 27 49  1  0
 27 50  1  0
 28 51  1  0
M  CHG  2  12  -1  25  -1
M  END
>  <UniqueID>  (18) 
17

>  <SMILES>  (18) 
CC(C)(O)COC(=O)n1c(C([NH-])=O)cc2ccc(N3CCN(C(=O)[O-])CC3)cc21

>  <Energy>  (18) 
90.97770839926932

>  <Genealogy>  (18) 
CC(C)(O)COC(=O)n1c(C([NH-])=O)cc2ccc(N3CCN(C(=O)[O-])CC3)cc21 (protonated)
CC(C)(O)COC(=O)n1c(C([NH-])=O)cc2ccc(N3CCN(C(=O)[O-])CC3)cc21 (3D coordinates assigned)
CC(C)(O)COC(=O)n1c(C([NH-])=O)cc2ccc(N3CCN(C(=O)[O-])CC3)cc21 (nonaromatic ring conformer: 90.97770839926932 kcal/mol)

>  <smiles>  (18) 
CC(C)(O)COC(=O)n1c(C(N)=O)cc2ccc(N3CCN(C(=O)O)CC3)cc21

>  <score_type>  (18) 
oracle

>  <origin>  (18) 
adg

>  <m_score__min__energy>  (18) 
-7.8700000000000001

>  <m_primary>  (18) 
energy

$$$$
19:0
     RDKit          3D

 38 39  0  0  0  0  0  0  0  0999 V2000
  142.2290  160.2700  133.2420 N   0  0  0  0  0  0  0  0  0  0  0  0
  143.5610  160.6860  133.5400 C   0  0  0  0  0  0  0  0  0  0  0  0
  143.7720  161.8810  133.8770 O   0  0  0  0  0  0  0  0  0  0  0  0
  144.6780  159.7270  133.4080 C   0  0  0  0  0  0  0  0  0  0  0  0
  146.0170  160.1120  133.3680 C   0  0  0  0  0  0  0  0  0  0  0  0
  146.7330  158.9360  133.3360 C   0  0  0  0  0  0  0  0  0  0  0  0
  148.1060  158.7280  133.2730 C   0  0  0  0  0  0  0  0  0  0  0  0
  148.5700  157.4040  133.2210 C   0  0  0  0  0  0  0  0  0  0  0  0
  147.6610  156.3140  133.2430 C   0  0  0  0  0  0  0  0  0  0  0  0
  148.1670  154.9000  133.1250 C   0  0  0  0  0  0  0  0  0  0  0  0
  149.4340  154.8790  132.5680 F   0  0  0  0  0  0  0  0  0  0  0  0
  147.3300  154.1460  132.3200 F   0  0  0  0  0  0  0  0  0  0  0  0
  148.2190  154.3280  134.3830 F   0  0  0  0  0  0  0  0  0  0  0  0
  146.2700  156.5700  133.2830 C   0  0  0  0  0  0  0  0  0  0  0  0
  145.8380  157.9000  133.3520 C   0  0  0  0  0  0  0  0  0  0  0  0
  144.5700  158.3680  133.3900 N   0  0  0  0  0  0  0  0  0  0  0  0
  143.3720  157.5780  133.3670 C   0  0  0  0  0  0  0  0  0  0  0  0
  142.7230  157.4470  132.2930 O   0  0  0  0  0  0  0  0  0  0  0  0
  142.9420  156.9360  134.5340 O   0  0  0  0  0  0  0  0  0  0  0  0
  141.6630  156.3190  134.6660 C   0  0  0  0  0  0  0  0  0  0  0  0
  140.5700  157.3390  134.5080 C   0  0  0  0  0  0  0  0  0  0  0  0
  139.7620  157.5200  135.4550 O   0  0  0  0  0  0  0  0  0  0  0  0
  140.3880  158.0760  133.2920 N   0  0  0  0  0  0  0  0  0  0  0  0
  139.3110  159.0280  133.0330 C   0  0  0  0  0  0  0  0  0  0  0  0
  139.4130  159.5710  131.6080 C   0  0  0  0  0  0  0  0  0  0  0  0
  140.6070  159.1430  131.0110 O   0  0  0  0  0  0  0  0  0  0  0  0
  142.0490  159.4190  132.6660 H   0  0  0  0  0  0  0  0  0  0  0  0
  146.4167  161.1368  133.3630 H   0  0  0  0  0  0  0  0  0  0  0  0
  148.8077  159.5751  133.2642 H   0  0  0  0  0  0  0  0  0  0  0  0
  149.6510  157.2090  133.1625 H   0  0  0  0  0  0  0  0  0  0  0  0
  145.5448  155.7432  133.2604 H   0  0  0  0  0  0  0  0  0  0  0  0
  141.5519  155.5459  133.8914 H   0  0  0  0  0  0  0  0  0  0  0  0
  141.5867  155.8664  135.6657 H   0  0  0  0  0  0  0  0  0  0  0  0
  138.3421  158.5230  133.1602 H   0  0  0  0  0  0  0  0  0  0  0  0
  139.3960  159.8652  133.7414 H   0  0  0  0  0  0  0  0  0  0  0  0
  138.5600  159.2048  131.0178 H   0  0  0  0  0  0  0  0  0  0  0  0
  139.4024  160.6704  131.6413 H   0  0  0  0  0  0  0  0  0  0  0  0
  141.2490  158.9760  131.7510 H   0  0  0  0  0  0  0  0  0  0  0  0
  1  2  1  0
  2  3  2  0
  2  4  1  0
  4  5  2  0
  5  6  1  0
  6  7  2  0
  7  8  1  0
  8  9  2  0
  9 10  1  0
 10 11  1  0
 10 12  1  0
 10 13  1  0
  9 14  1  0
 14 15  2  0
 15 16  1  0
 16 17  1  0
 17 18  2  0
 17 19  1  0
 19 20  1  0
 20 21  1  0
 21 22  2  0
 21 23  1  0
 23 24  1  0
 24 25  1  0
 25 26  1  0
 16  4  1  0
 15  6  1  0
  1 27  1  0
  5 28  1  0
  7 29  1  0
  8 30  1  0
 14 31  1  0
 20 32  1  0
 20 33  1  0
 24 34  1  0
 24 35  1  0
 25 36  1  0
 25 37  1  0
 26 38  1  0
M  CHG  2   1  -1  23  -1
M  END
>  <UniqueID>  (19) 
18

>  <SMILES>  (19) 
[NH-]C(=O)c1cc2ccc(C(F)(F)F)cc2n1C(=O)OCC(=O)[N-]CCO

>  <Energy>  (19) 
71.65405779817279

>  <Genealogy>  (19) 
[NH-]C(=O)c1cc2ccc(C(F)(F)F)cc2n1C(=O)OCC(=O)[N-]CCO (protonated)
[NH-]C(=O)c1cc2ccc(C(F)(F)F)cc2n1C(=O)OCC(=O)[N-]CCO (3D coordinates assigned)
[NH-]C(=O)c1cc2ccc(C(F)(F)F)cc2n1C(=O)OCC(=O)[N-]CCO (optimized conformer: 71.65405779817279 kcal/mol)

>  <smiles>  (19) 
NC(=O)c1cc2ccc(C(F)(F)F)cc2n1C(=O)OCC(=O)NCCO

>  <score_type>  (19) 
oracle

>  <origin>  (19) 
adg

>  <m_score__min__energy>  (19) 
-5.1500000000000004

>  <m_primary>  (19) 
energy

$$$$
20:0
     RDKit          3D

 69 71  0  0  0  0  0  0  0  0999 V2000
  140.0190  158.1180  136.8510 C   0  0  0  0  0  0  0  0  0  0  0  0
  140.6900  158.2260  135.4760 C   0  0  2  0  0  0  0  0  0  0  0  0
  142.0680  158.8960  135.6110 C   0  0  0  0  0  0  0  0  0  0  0  0
  142.6350  159.0840  134.2740 N   0  0  0  0  0  0  0  0  0  0  0  0
  143.9220  158.5400  133.9330 C   0  0  0  0  0  0  0  0  0  0  0  0
  144.9030  159.3590  133.3230 C   0  0  0  0  0  0  0  0  0  0  0  0
  146.1530  158.8290  132.9600 C   0  0  0  0  0  0  0  0  0  0  0  0
  146.3880  157.4820  133.2160 C   0  0  0  0  0  0  0  0  0  0  0  0
  147.5170  156.7240  132.9960 C   0  0  0  0  0  0  0  0  0  0  0  0
  147.2100  155.4530  133.4820 C   0  0  0  0  0  0  0  0  0  0  0  0
  148.1060  154.2760  133.3740 C   0  0  0  0  0  0  0  0  0  0  0  0
  147.6510  152.9700  133.7290 N   0  0  0  0  0  0  0  0  0  0  0  0
  149.3010  154.4260  133.0040 O   0  0  0  0  0  0  0  0  0  0  0  0
  145.9410  155.4290  133.9810 N   0  0  0  0  0  0  0  0  0  0  0  0
  145.2980  154.3540  134.6850 C   0  0  0  0  0  0  0  0  0  0  0  0
  145.8000  153.9210  135.7570 O   0  0  0  0  0  0  0  0  0  0  0  0
  144.1330  153.7830  134.1510 O   0  0  0  0  0  0  0  0  0  0  0  0
  144.0900  152.9520  133.0260 C   0  0  0  0  0  0  0  0  0  0  0  0
  145.1180  152.3390  132.6280 O   0  0  0  0  0  0  0  0  0  0  0  0
  142.8800  152.8140  132.3440 O   0  0  0  0  0  0  0  0  0  0  0  0
  141.6390  152.6290  133.0160 C   0  0  0  0  0  0  0  0  0  0  0  0
  141.4340  151.1410  133.3080 C   0  0  0  0  0  0  0  0  0  0  0  0
  142.3760  150.2440  132.4920 C   0  0  0  0  0  0  0  0  0  0  0  0
  141.6390  149.2970  131.7200 O   0  0  0  0  0  0  0  0  0  0  0  0
  140.2960  148.9760  131.9650 C   0  0  0  0  0  0  0  0  0  0  0  0
  139.8760  148.8620  133.1490 O   0  0  0  0  0  0  0  0  0  0  0  0
  139.3650  148.7130  130.8030 C   0  0  0  0  0  0  0  0  0  0  0  0
  139.4890  147.2330  130.3980 C   0  0  0  0  0  0  0  0  0  0  0  0
  139.7480  149.6130  129.6090 C   0  0  0  0  0  0  0  0  0  0  0  0
  137.9780  148.9870  131.2090 N   0  0  0  0  0  0  0  0  0  0  0  0
  145.4490  156.6760  133.8040 C   0  0  0  0  0  0  0  0  0  0  0  0
  144.1990  157.1790  134.1820 C   0  0  0  0  0  0  0  0  0  0  0  0
  141.8070  159.7690  133.2800 C   0  0  0  0  0  0  0  0  0  0  0  0
  140.4320  159.0820  133.2090 C   0  0  2  0  0  0  0  0  0  0  0  0
  139.5020  159.8590  132.2720 C   0  0  0  0  0  0  0  0  0  0  0  0
  139.8350  158.9990  134.5570 N   0  0  0  0  0  0  0  0  0  0  0  0
  140.7765  158.2399  137.6392 H   0  0  0  0  0  0  0  0  0  0  0  0
  139.2569  158.9050  136.9499 H   0  0  0  0  0  0  0  0  0  0  0  0
  139.5424  157.1316  136.9499 H   0  0  0  0  0  0  0  0  0  0  0  0
  140.8283  157.2147  135.0658 H   0  0  0  0  0  0  0  0  0  0  0  0
  141.9575  159.8720  136.1062 H   0  0  0  0  0  0  0  0  0  0  0  0
  142.7345  158.2613  136.2135 H   0  0  0  0  0  0  0  0  0  0  0  0
  144.6846  160.4200  133.1315 H   0  0  0  0  0  0  0  0  0  0  0  0
  146.9212  159.4594  132.4884 H   0  0  0  0  0  0  0  0  0  0  0  0
  148.4605  157.0515  132.5349 H   0  0  0  0  0  0  0  0  0  0  0  0
  146.6860  152.8000  134.0950 H   0  0  0  0  0  0  0  0  0  0  0  0
  148.3170  152.1660  133.6990 H   0  0  0  0  0  0  0  0  0  0  0  0
  141.6469  153.1906  133.9618 H   0  0  0  0  0  0  0  0  0  0  0  0
  140.8194  152.9941  132.3796 H   0  0  0  0  0  0  0  0  0  0  0  0
  141.6174  150.9634  134.3780 H   0  0  0  0  0  0  0  0  0  0  0  0
  140.4022  150.8850  133.0253 H   0  0  0  0  0  0  0  0  0  0  0  0
  142.9743  150.8720  131.8154 H   0  0  0  0  0  0  0  0  0  0  0  0
  143.0289  149.6967  133.1879 H   0  0  0  0  0  0  0  0  0  0  0  0
  139.5413  146.6086  131.3021 H   0  0  0  0  0  0  0  0  0  0  0  0
  138.6121  146.9414  129.8013 H   0  0  0  0  0  0  0  0  0  0  0  0
  140.4022  147.0914  129.8013 H   0  0  0  0  0  0  0  0  0  0  0  0
  140.1531  150.5650  129.9826 H   0  0  0  0  0  0  0  0  0  0  0  0
  140.5083  149.1060  128.9967 H   0  0  0  0  0  0  0  0  0  0  0  0
  138.8555  149.8094  128.9967 H   0  0  0  0  0  0  0  0  0  0  0  0
  137.4040  148.1210  131.0830 H   0  0  0  0  0  0  0  0  0  0  0  0
  137.9510  149.2280  132.2290 H   0  0  0  0  0  0  0  0  0  0  0  0
  143.4513  156.5298  134.6611 H   0  0  0  0  0  0  0  0  0  0  0  0
  141.6779  160.8219  133.5710 H   0  0  0  0  0  0  0  0  0  0  0  0
  142.2955  159.7221  132.2956 H   0  0  0  0  0  0  0  0  0  0  0  0
  140.5657  158.0638  132.8149 H   0  0  0  0  0  0  0  0  0  0  0  0
  138.7926  160.4517  132.8682 H   0  0  0  0  0  0  0  0  0  0  0  0
  140.0986  160.5309  131.6375 H   0  0  0  0  0  0  0  0  0  0  0  0
  138.9470  159.1524  131.6375 H   0  0  0  0  0  0  0  0  0  0  0  0
  138.9220  158.4920  134.4670 H   0  0  0  0  0  0  0  0  0  0  0  0
  1  2  1  0
  2  3  1  0
  3  4  1  0
  4  5  1  0
  5  6  2  0
  6  7  1  0
  7  8  2  0
  8  9  1  0
  9 10  2  0
 10 11  1  0
 11 12  1  0
 11 13  2  0
 10 14  1  0
 14 15  1  0
 15 16  2  0
 15 17  1  0
 17 18  1  0
 18 19  2  0
 18 20  1  0
 20 21  1  0
 21 22  1  0
 22 23  1  0
 23 24  1  0
 24 25  1  0
 25 26  2  0
 25 27  1  0
 27 28  1  0
 27 29  1  0
 27 30  1  0
 14 31  1  0
 31 32  2  0
  4 33  1  0
 33 34  1  0
 34 35  1  0
 34 36  1  0
 36  2  1  0
 32  5  1  0
 31  8  1  0
  1 37  1  0
  1 38  1  0
  1 39  1  0
  2 40  1  6
  3 41  1  0
  3 42  1  0
  6 43  1  0
  7 44  1  0
  9 45  1  0
 12 46  1  0
 12 47  1  0
 21 48  1  0
 21 49  1  0
 22 50  1  0
 22 51  1  0
 23 52  1  0
 23 53  1  0
 28 54  1  0
 28 55  1  0
 28 56  1  0
 29 57  1  0
 29 58  1  0
 29 59  1  0
 30 60  1  0
 30 61  1  0
 32 62  1  0
 33 63  1  0
 33 64  1  0
 34 65  1  6
 35 66  1  0
 35 67  1  0
 35 68  1  0
 36 69  1  0
M  END
>  <UniqueID>  (20) 
19

>  <SMILES>  (20) 
C[C@@H]1CN(c2ccc3cc(C(N)=O)n(C(=O)OC(=O)OCCCOC(=O)C(C)(C)N)c3c2)C[C@H](C)N1

>  <Energy>  (20) 
99.121954732576

>  <Genealogy>  (20) 
C[C@@H]1CN(c2ccc3cc(C(N)=O)n(C(=O)OC(=O)OCCCOC(=O)C(C)(C)N)c3c2)C[C@H](C)N1 (3D coordinates assigned)
C[C@@H]1CN(c2ccc3cc(C(N)=O)n(C(=O)OC(=O)OCCCOC(=O)C(C)(C)N)c3c2)C[C@H](C)N1 (nonaromatic ring conformer: 99.121954732576 kcal/mol)

>  <smiles>  (20) 
C[C@@H]1CN(c2ccc3cc(C(N)=O)n(C(=O)OC(=O)OCCCOC(=O)C(C)(C)N)c3c2)C[C@H](C)N1

>  <score_type>  (20) 
oracle

>  <origin>  (20) 
adg

>  <m_score__min__energy>  (20) 
-10.91

>  <m_primary>  (20) 
energy

$$$$
21:0
     RDKit          3D

 47 49  0  0  0  0  0  0  0  0999 V2000
  137.9990  160.2000  129.8330 C   0  0  0  0  0  0  0  0  0  0  0  0
  137.9940  160.1290  131.3050 N   0  0  0  0  0  0  0  0  0  0  0  0
  139.2550  160.6460  131.8550 C   0  0  0  0  0  0  0  0  0  0  0  0
  140.2150  159.4750  132.0130 C   0  0  0  0  0  0  0  0  0  0  0  0
  139.3340  158.2300  132.0000 C   0  0  1  0  0  0  0  0  0  0  0  0
  139.4420  157.4490  133.2520 N   0  0  0  0  0  0  0  0  0  0  0  0
  138.7390  157.8690  134.4720 C   0  0  0  0  0  0  0  0  0  0  0  0
  140.2170  156.2340  133.3030 C   0  0  0  0  0  0  0  0  0  0  0  0
  139.6410  155.1120  133.3020 O   0  0  0  0  0  0  0  0  0  0  0  0
  141.6160  156.3130  133.3580 O   0  0  0  0  0  0  0  0  0  0  0  0
  142.3930  156.1480  134.5120 C   0  0  0  0  0  0  0  0  0  0  0  0
  143.5660  155.6930  134.4430 O   0  0  0  0  0  0  0  0  0  0  0  0
  141.8530  156.5350  135.7870 N   0  0  0  0  0  0  0  0  0  0  0  0
  141.4650  157.7780  136.1910 C   0  0  0  0  0  0  0  0  0  0  0  0
  141.6650  159.0380  135.4440 C   0  0  0  0  0  0  0  0  0  0  0  0
  142.4920  159.0800  134.2840 N   0  0  0  0  0  0  0  0  0  0  0  0
  141.1380  160.1020  135.8640 O   0  0  0  0  0  0  0  0  0  0  0  0
  140.9200  157.7270  137.4710 C   0  0  0  0  0  0  0  0  0  0  0  0
  140.9950  156.4060  137.8490 C   0  0  0  0  0  0  0  0  0  0  0  0
  140.6020  155.7900  139.0320 C   0  0  0  0  0  0  0  0  0  0  0  0
  140.7860  154.4020  139.1440 C   0  0  0  0  0  0  0  0  0  0  0  0
  141.3300  153.6520  138.0690 C   0  0  0  0  0  0  0  0  0  0  0  0
  141.5590  152.1690  138.2170 C   0  0  0  0  0  0  0  0  0  0  0  0
  141.2390  151.5390  137.0290 F   0  0  0  0  0  0  0  0  0  0  0  0
  140.7680  151.6510  139.2290 F   0  0  0  0  0  0  0  0  0  0  0  0
  142.8830  151.9070  138.5260 F   0  0  0  0  0  0  0  0  0  0  0  0
  141.7360  154.3200  136.8910 C   0  0  0  0  0  0  0  0  0  0  0  0
  141.5610  155.7060  136.8150 C   0  0  0  0  0  0  0  0  0  0  0  0
  137.9090  158.7340  131.7610 C   0  0  0  0  0  0  0  0  0  0  0  0
  138.0729  161.2510  129.5168 H   0  0  0  0  0  0  0  0  0  0  0  0
  138.8599  159.6380  129.4417 H   0  0  0  0  0  0  0  0  0  0  0  0
  137.0680  159.7640  129.4417 H   0  0  0  0  0  0  0  0  0  0  0  0
  139.6843  161.3905  131.1683 H   0  0  0  0  0  0  0  0  0  0  0  0
  139.0781  161.1287  132.8274 H   0  0  0  0  0  0  0  0  0  0  0  0
  140.9318  159.4488  131.1791 H   0  0  0  0  0  0  0  0  0  0  0  0
  140.8061  159.5503  132.9376 H   0  0  0  0  0  0  0  0  0  0  0  0
  139.6510  157.5322  131.2110 H   0  0  0  0  0  0  0  0  0  0  0  0
  139.3028  157.5322  135.3544 H   0  0  0  0  0  0  0  0  0  0  0  0
  138.6546  158.9657  134.4874 H   0  0  0  0  0  0  0  0  0  0  0  0
  137.7333  157.4236  134.4874 H   0  0  0  0  0  0  0  0  0  0  0  0
  142.6200  158.2350  133.6850 H   0  0  0  0  0  0  0  0  0  0  0  0
  140.5150  158.5655  138.0565 H   0  0  0  0  0  0  0  0  0  0  0  0
  140.1607  156.3717  139.8547 H   0  0  0  0  0  0  0  0  0  0  0  0
  140.5050  153.8901  140.0762 H   0  0  0  0  0  0  0  0  0  0  0  0
  142.1796  153.7625  136.0529 H   0  0  0  0  0  0  0  0  0  0  0  0
  137.4189  158.1186  130.9922 H   0  0  0  0  0  0  0  0  0  0  0  0
  137.3190  158.6687  132.6871 H   0  0  0  0  0  0  0  0  0  0  0  0
  1  2  1  0
  2  3  1  0
  3  4  1  0
  4  5  1  0
  5  6  1  0
  6  7  1  0
  6  8  1  0
  8  9  2  0
  8 10  1  0
 10 11  1  0
 11 12  2  0
 11 13  1  0
 13 14  1  0
 14 15  1  0
 15 16  1  0
 15 17  2  0
 14 18  2  0
 18 19  1  0
 19 20  2  0
 20 21  1  0
 21 22  2  0
 22 23  1  0
 23 24  1  0
 23 25  1  0
 23 26  1  0
 22 27  1  0
 27 28  2  0
  5 29  1  0
 29  2  1  0
 28 13  1  0
 28 19  1  0
  1 30  1  0
  1 31  1  0
  1 32  1  0
  3 33  1  0
  3 34  1  0
  4 35  1  0
  4 36  1  0
  5 37  1  6
  7 38  1  0
  7 39  1  0
  7 40  1  0
 16 41  1  0
 18 42  1  0
 20 43  1  0
 21 44  1  0
 27 45  1  0
 29 46  1  0
 29 47  1  0
M  CHG  1  16  -1
M  END
>  <UniqueID>  (21) 
20

>  <SMILES>  (21) 
CN1CC[C@@H](N(C)C(=O)OC(=O)n2c(C([NH-])=O)cc3ccc(C(F)(F)F)cc32)C1

>  <Energy>  (21) 
91.41261307426643

>  <Genealogy>  (21) 
CN1CCC(N(C)C(=O)OC(=O)n2c(C([NH-])=O)cc3ccc(C(F)(F)F)cc32)C1 (protonated)
CN1CC[C@@H](N(C)C(=O)OC(=O)n2c(C([NH-])=O)cc3ccc(C(F)(F)F)cc32)C1 (chirality)
CN1CC[C@@H](N(C)C(=O)OC(=O)n2c(C([NH-])=O)cc3ccc(C(F)(F)F)cc32)C1 (3D coordinates assigned)
CN1CC[C@@H](N(C)C(=O)OC(=O)n2c(C([NH-])=O)cc3ccc(C(F)(F)F)cc32)C1 (nonaromatic ring conformer: 91.41261307426643 kcal/mol)

>  <smiles>  (21) 
CN1CCC(N(C)C(=O)OC(=O)n2c(C(N)=O)cc3ccc(C(F)(F)F)cc32)C1

>  <score_type>  (21) 
oracle

>  <origin>  (21) 
adg

>  <m_score__min__energy>  (21) 
-7.5999999999999996

>  <m_primary>  (21) 
energy

$$$$
22:0
     RDKit          3D

 41 42  0  0  0  0  0  0  0  0999 V2000
  139.4950  156.3650  133.0540 C   0  0  0  0  0  0  0  0  0  0  0  0
  139.4260  157.8050  132.7840 N   0  0  0  0  0  0  0  0  0  0  0  0
  138.7070  158.2940  131.6030 C   0  0  0  0  0  0  0  0  0  0  0  0
  140.0640  158.7670  133.6570 C   0  0  0  0  0  0  0  0  0  0  0  0
  140.1750  159.9670  133.2850 O   0  0  0  0  0  0  0  0  0  0  0  0
  140.5480  158.4070  135.0410 C   0  0  0  0  0  0  0  0  0  0  0  0
  141.8600  157.6120  134.9880 C   0  0  0  0  0  0  0  0  0  0  0  0
  142.9860  158.4310  134.4120 C   0  0  0  0  0  0  0  0  0  0  0  0
  142.8630  159.8410  134.3110 C   0  0  0  0  0  0  0  0  0  0  0  0
  143.9350  160.6210  133.8490 C   0  0  0  0  0  0  0  0  0  0  0  0
  145.1150  159.9690  133.5030 C   0  0  0  0  0  0  0  0  0  0  0  0
  146.3190  160.4790  133.0710 C   0  0  0  0  0  0  0  0  0  0  0  0
  147.1550  159.3730  132.9150 C   0  0  0  0  0  0  0  0  0  0  0  0
  148.5400  159.4330  132.3970 C   0  0  0  0  0  0  0  0  0  0  0  0
  149.5790  158.6470  132.9850 N   0  0  0  0  0  0  0  0  0  0  0  0
  148.8210  160.1990  131.4370 O   0  0  0  0  0  0  0  0  0  0  0  0
  146.4890  158.2290  133.2370 N   0  0  0  0  0  0  0  0  0  0  0  0
  147.0090  156.8930  133.2960 C   0  0  0  0  0  0  0  0  0  0  0  0
  147.8400  156.5860  134.1920 O   0  0  0  0  0  0  0  0  0  0  0  0
  146.6680  155.8990  132.2310 C   0  0  0  0  0  0  0  0  0  0  0  0
  145.4320  154.5930  132.9480 Br  0  0  0  0  0  0  0  0  0  0  0  0
  145.2440  158.6070  133.5900 C   0  0  0  0  0  0  0  0  0  0  0  0
  144.1970  157.8040  134.0470 C   0  0  0  0  0  0  0  0  0  0  0  0
  139.5031  156.1957  134.1409 H   0  0  0  0  0  0  0  0  0  0  0  0
  138.6197  155.8667  132.6118 H   0  0  0  0  0  0  0  0  0  0  0  0
  140.4139  155.9527  132.6118 H   0  0  0  0  0  0  0  0  0  0  0  0
  137.8367  158.8859  131.9226 H   0  0  0  0  0  0  0  0  0  0  0  0
  139.3776  158.9241  131.0003 H   0  0  0  0  0  0  0  0  0  0  0  0
  138.3674  157.4388  131.0003 H   0  0  0  0  0  0  0  0  0  0  0  0
  140.7129  159.3314  135.6139 H   0  0  0  0  0  0  0  0  0  0  0  0
  139.7831  157.7798  135.5223 H   0  0  0  0  0  0  0  0  0  0  0  0
  142.1304  157.3022  136.0083 H   0  0  0  0  0  0  0  0  0  0  0  0
  141.7049  156.7380  134.3383 H   0  0  0  0  0  0  0  0  0  0  0  0
  141.9189  160.3275  134.5974 H   0  0  0  0  0  0  0  0  0  0  0  0
  143.8451  161.7140  133.7631 H   0  0  0  0  0  0  0  0  0  0  0  0
  146.5687  161.5345  132.8878 H   0  0  0  0  0  0  0  0  0  0  0  0
  149.3790  157.9510  133.7370 H   0  0  0  0  0  0  0  0  0  0  0  0
  150.5610  158.7350  132.6390 H   0  0  0  0  0  0  0  0  0  0  0  0
  146.2022  156.4174  131.3799 H   0  0  0  0  0  0  0  0  0  0  0  0
  147.5839  155.3927  131.8922 H   0  0  0  0  0  0  0  0  0  0  0  0
  144.3127  156.7126  134.1206 H   0  0  0  0  0  0  0  0  0  0  0  0
  1  2  1  0
  2  3  1  0
  2  4  1  0
  4  5  2  0
  4  6  1  0
  6  7  1  0
  7  8  1  0
  8  9  2  0
  9 10  1  0
 10 11  2  0
 11 12  1  0
 12 13  2  0
 13 14  1  0
 14 15  1  0
 14 16  2  0
 13 17  1  0
 17 18  1  0
 18 19  2  0
 18 20  1  0
 20 21  1  0
 17 22  1  0
 22 23  2  0
 23  8  1  0
 22 11  1  0
  1 24  1  0
  1 25  1  0
  1 26  1  0
  3 27  1  0
  3 28  1  0
  3 29  1  0
  6 30  1  0
  6 31  1  0
  7 32  1  0
  7 33  1  0
  9 34  1  0
 10 35  1  0
 12 36  1  0
 15 37  1  0
 15 38  1  0
 20 39  1  0
 20 40  1  0
 23 41  1  0
M  END
>  <UniqueID>  (22) 
21

>  <SMILES>  (22) 
CN(C)C(=O)CCc1ccc2cc(C(N)=O)n(C(=O)CBr)c2c1

>  <Energy>  (22) 
71.82307118875202

>  <Genealogy>  (22) 
CN(C)C(=O)CCc1ccc2cc(C(N)=O)n(C(=O)CBr)c2c1 (3D coordinates assigned)
CN(C)C(=O)CCc1ccc2cc(C(N)=O)n(C(=O)CBr)c2c1 (optimized conformer: 71.82307118875202 kcal/mol)

>  <smiles>  (22) 
CN(C)C(=O)CCc1ccc2cc(C(N)=O)n(C(=O)CBr)c2c1

>  <score_type>  (22) 
oracle

>  <origin>  (22) 
adg

>  <m_score__min__energy>  (22) 
-7.5499999999999998

>  <m_primary>  (22) 
energy

$$$$
23:0
     RDKit          3D

 36 37  0  0  0  0  0  0  0  0999 V2000
  149.3250  162.3500  130.3560 C   0  0  0  0  0  0  0  0  0  0  0  0
  149.8930  161.0910  129.8970 N   0  0  0  0  0  0  0  0  0  0  0  0
  149.5070  159.8260  130.4410 C   0  0  0  0  0  0  0  0  0  0  0  0
  149.1240  158.8960  129.6810 O   0  0  0  0  0  0  0  0  0  0  0  0
  149.6040  159.5910  131.9140 C   0  0  0  0  0  0  0  0  0  0  0  0
  148.3100  159.0310  132.4350 C   0  0  0  0  0  0  0  0  0  0  0  0
  147.1640  159.8590  132.5300 C   0  0  0  0  0  0  0  0  0  0  0  0
  145.9470  159.3450  133.0070 C   0  0  0  0  0  0  0  0  0  0  0  0
  145.9010  158.0000  133.3640 C   0  0  0  0  0  0  0  0  0  0  0  0
  144.8650  157.2550  133.8780 C   0  0  0  0  0  0  0  0  0  0  0  0
  145.3820  155.9740  134.0530 C   0  0  0  0  0  0  0  0  0  0  0  0
  144.5710  154.8270  134.5110 C   0  0  0  0  0  0  0  0  0  0  0  0
  144.8200  154.2080  135.7710 N   0  0  0  0  0  0  0  0  0  0  0  0
  143.6760  154.3550  133.7590 O   0  0  0  0  0  0  0  0  0  0  0  0
  146.6890  155.9280  133.6660 N   0  0  0  0  0  0  0  0  0  0  0  0
  147.5950  154.8180  133.7690 C   0  0  0  0  0  0  0  0  0  0  0  0
  148.3640  154.5430  132.8070 O   0  0  0  0  0  0  0  0  0  0  0  0
  147.6350  154.0590  134.9420 O   0  0  0  0  0  0  0  0  0  0  0  0
  147.9750  154.6160  136.2060 C   0  0  0  0  0  0  0  0  0  0  0  0
  148.0080  153.5330  137.2320 C   0  0  0  0  0  0  0  0  0  0  0  0
  148.9580  153.4700  138.0560 O   0  0  0  0  0  0  0  0  0  0  0  0
  146.9900  152.5900  137.2840 O   0  0  0  0  0  0  0  0  0  0  0  0
  146.9920  157.1770  133.2470 C   0  0  0  0  0  0  0  0  0  0  0  0
  148.2220  157.6670  132.7920 C   0  0  0  0  0  0  0  0  0  0  0  0
  149.3164  162.3691  131.4558 H   0  0  0  0  0  0  0  0  0  0  0  0
  149.9333  163.1856  129.9796 H   0  0  0  0  0  0  0  0  0  0  0  0
  148.2960  162.4469  129.9796 H   0  0  0  0  0  0  0  0  0  0  0  0
  150.4165  158.8774  132.1157 H   0  0  0  0  0  0  0  0  0  0  0  0
  149.8110  160.5467  132.4178 H   0  0  0  0  0  0  0  0  0  0  0  0
  147.2281  160.9146  132.2272 H   0  0  0  0  0  0  0  0  0  0  0  0
  145.0572  159.9856  133.0958 H   0  0  0  0  0  0  0  0  0  0  0  0
  143.8445  157.5985  134.1031 H   0  0  0  0  0  0  0  0  0  0  0  0
  145.7620  153.8230  136.0030 H   0  0  0  0  0  0  0  0  0  0  0  0
  148.9646  155.0922  136.1430 H   0  0  0  0  0  0  0  0  0  0  0  0
  147.2245  155.3684  136.4899 H   0  0  0  0  0  0  0  0  0  0  0  0
  149.0981  157.0064  132.7144 H   0  0  0  0  0  0  0  0  0  0  0  0
  1  2  1  0
  2  3  1  0
  3  4  2  0
  3  5  1  0
  5  6  1  0
  6  7  2  0
  7  8  1  0
  8  9  2  0
  9 10  1  0
 10 11  2  0
 11 12  1  0
 12 13  1  0
 12 14  2  0
 11 15  1  0
 15 16  1  0
 16 17  2  0
 16 18  1  0
 18 19  1  0
 19 20  1  0
 20 21  2  0
 20 22  1  0
 15 23  1  0
 23 24  2  0
 24  6  1  0
 23  9  1  0
  1 25  1  0
  1 26  1  0
  1 27  1  0
  5 28  1  0
  5 29  1  0
  7 30  1  0
  8 31  1  0
 10 32  1  0
 13 33  1  0
 19 34  1  0
 19 35  1  0
 24 36  1  0
M  CHG  3   2  -1  13  -1  22  -1
M  END
>  <UniqueID>  (23) 
22

>  <SMILES>  (23) 
C[N-]C(=O)Cc1ccc2cc(C([NH-])=O)n(C(=O)OCC(=O)[O-])c2c1

>  <Energy>  (23) 
67.69397024293197

>  <Genealogy>  (23) 
C[N-]C(=O)Cc1ccc2cc(C([NH-])=O)n(C(=O)OCC(=O)[O-])c2c1 (protonated)
C[N-]C(=O)Cc1ccc2cc(C([NH-])=O)n(C(=O)OCC(=O)[O-])c2c1 (3D coordinates assigned)
C[N-]C(=O)Cc1ccc2cc(C([NH-])=O)n(C(=O)OCC(=O)[O-])c2c1 (optimized conformer: 67.69397024293197 kcal/mol)

>  <smiles>  (23) 
CNC(=O)Cc1ccc2cc(C(N)=O)n(C(=O)OCC(=O)O)c2c1

>  <score_type>  (23) 
oracle

>  <origin>  (23) 
adg

>  <m_score__min__energy>  (23) 
-6.4000000000000004

>  <m_primary>  (23) 
energy

$$$$
24:0
     RDKit          3D

 50 53  0  0  0  0  0  0  0  0999 V2000
  149.6320  159.6160  130.9720 C   0  0  0  0  0  0  0  0  0  0  0  0
  148.5310  159.1410  131.8570 C   0  0  0  0  0  0  0  0  0  0  0  0
  148.6370  158.0730  132.6710 N   0  0  0  0  0  0  0  0  0  0  0  0
  147.5050  158.0260  133.3040 O   0  0  0  0  0  0  0  0  0  0  0  0
  146.7380  159.0160  132.9150 C   0  0  0  0  0  0  0  0  0  0  0  0
  145.3790  159.2670  133.4330 C   0  0  0  0  0  0  0  0  0  0  0  0
  144.9120  160.5990  133.5770 C   0  0  0  0  0  0  0  0  0  0  0  0
  143.6240  160.8570  134.0780 C   0  0  0  0  0  0  0  0  0  0  0  0
  142.8250  159.7680  134.4150 C   0  0  0  0  0  0  0  0  0  0  0  0
  141.5540  159.7300  134.9440 C   0  0  0  0  0  0  0  0  0  0  0  0
  141.2590  158.3760  135.0970 C   0  0  0  0  0  0  0  0  0  0  0  0
  139.9610  157.8710  135.5950 C   0  0  0  0  0  0  0  0  0  0  0  0
  139.8230  157.3920  136.9300 N   0  0  0  0  0  0  0  0  0  0  0  0
  138.9660  157.8360  134.8230 O   0  0  0  0  0  0  0  0  0  0  0  0
  142.3040  157.6110  134.6760 N   0  0  0  0  0  0  0  0  0  0  0  0
  142.4260  156.1820  134.7360 C   0  0  0  0  0  0  0  0  0  0  0  0
  142.2490  155.5000  133.6920 O   0  0  0  0  0  0  0  0  0  0  0  0
  142.7660  155.5110  136.0040 C   0  0  0  0  0  0  0  0  0  0  0  0
  143.9310  155.0590  136.1720 O   0  0  0  0  0  0  0  0  0  0  0  0
  141.7790  155.3590  137.0360 N   0  0  0  0  0  0  0  0  0  0  0  0
  142.0430  154.6420  138.2840 C   0  0  0  0  0  0  0  0  0  0  0  0
  140.7310  154.2280  139.0060 C   0  0  2  0  0  0  0  0  0  0  0  0
  139.6800  155.0790  138.6130 O   0  0  0  0  0  0  0  0  0  0  0  0
  140.9000  154.2350  140.5530 C   0  0  0  0  0  0  0  0  0  0  0  0
  141.6220  152.9620  140.9880 C   0  0  0  0  0  0  0  0  0  0  0  0
  141.1580  151.7400  139.8000 S   0  0  0  0  0  0  0  0  0  0  0  0
  140.2040  150.7360  140.3820 O   0  0  0  0  0  0  0  0  0  0  0  0
  142.3600  151.0580  139.2130 O   0  0  0  0  0  0  0  0  0  0  0  0
  140.3590  152.7850  138.6160 C   0  0  0  0  0  0  0  0  0  0  0  0
  143.2560  158.4760  134.2660 C   0  0  0  0  0  0  0  0  0  0  0  0
  144.5390  158.1890  133.7890 C   0  0  0  0  0  0  0  0  0  0  0  0
  147.3500  159.7770  131.9850 N   0  0  0  0  0  0  0  0  0  0  0  0
  150.4684  159.9768  131.5887 H   0  0  0  0  0  0  0  0  0  0  0  0
  149.9759  158.7862  130.3370 H   0  0  0  0  0  0  0  0  0  0  0  0
  149.2644  160.4356  130.3370 H   0  0  0  0  0  0  0  0  0  0  0  0
  145.5643  161.4383  133.2938 H   0  0  0  0  0  0  0  0  0  0  0  0
  143.2589  161.8874  134.1999 H   0  0  0  0  0  0  0  0  0  0  0  0
  140.9090  160.5856  135.1928 H   0  0  0  0  0  0  0  0  0  0  0  0
  139.5520  156.4020  137.1210 H   0  0  0  0  0  0  0  0  0  0  0  0
  140.8490  155.8220  136.9260 H   0  0  0  0  0  0  0  0  0  0  0  0
  142.6245  153.7363  138.0571 H   0  0  0  0  0  0  0  0  0  0  0  0
  142.6002  155.3157  138.9516 H   0  0  0  0  0  0  0  0  0  0  0  0
  140.0750  155.9370  138.3070 H   0  0  0  0  0  0  0  0  0  0  0  0
  141.4901  155.1132  140.8541 H   0  0  0  0  0  0  0  0  0  0  0  0
  139.9104  154.2789  141.0314 H   0  0  0  0  0  0  0  0  0  0  0  0
  142.7114  153.1141  140.9800 H   0  0  0  0  0  0  0  0  0  0  0  0
  141.3516  152.6646  142.0119 H   0  0  0  0  0  0  0  0  0  0  0  0
  140.7186  152.5582  137.6015 H   0  0  0  0  0  0  0  0  0  0  0  0
  139.2692  152.6352  138.6161 H   0  0  0  0  0  0  0  0  0  0  0  0
  144.8853  157.1493  133.6935 H   0  0  0  0  0  0  0  0  0  0  0  0
  1  2  1  0
  2  3  2  0
  3  4  1  0
  4  5  1  0
  5  6  1  0
  6  7  2  0
  7  8  1  0
  8  9  2  0
  9 10  1  0
 10 11  2  0
 11 12  1  0
 12 13  1  0
 12 14  2  0
 11 15  1  0
 15 16  1  0
 16 17  2  0
 16 18  1  0
 18 19  2  0
 18 20  1  0
 20 21  1  0
 21 22  1  0
 22 23  1  1
 22 24  1  0
 24 25  1  0
 25 26  1  0
 26 27  2  0
 26 28  2  0
 26 29  1  0
 15 30  1  0
 30 31  2  0
  5 32  2  0
 32  2  1  0
 31  6  1  0
 30  9  1  0
 29 22  1  0
  1 33  1  0
  1 34  1  0
  1 35  1  0
  7 36  1  0
  8 37  1  0
 10 38  1  0
 13 39  1  0
 20 40  1  0
 21 41  1  0
 21 42  1  0
 23 43  1  0
 24 44  1  0
 24 45  1  0
 25 46  1  0
 25 47  1  0
 29 48  1  0
 29 49  1  0
 31 50  1  0
M  CHG  1  13  -1
M  END
>  <UniqueID>  (24) 
23

>  <SMILES>  (24) 
Cc1noc(-c2ccc3cc(C([NH-])=O)n(C(=O)C(=O)NC[C@]4(O)CCS(=O)(=O)C4)c3c2)n1

>  <Energy>  (24) 
121.89702397113994

>  <Genealogy>  (24) 
Cc1noc(-c2ccc3cc(C([NH-])=O)n(C(=O)C(=O)NCC4(O)CCS(=O)(=O)C4)c3c2)n1 (protonated)
Cc1noc(-c2ccc3cc(C([NH-])=O)n(C(=O)C(=O)NC[C@]4(O)CCS(=O)(=O)C4)c3c2)n1 (chirality)
Cc1noc(-c2ccc3cc(C([NH-])=O)n(C(=O)C(=O)NC[C@]4(O)CCS(=O)(=O)C4)c3c2)n1 (3D coordinates assigned)
Cc1noc(-c2ccc3cc(C([NH-])=O)n(C(=O)C(=O)NC[C@]4(O)CCS(=O)(=O)C4)c3c2)n1 (nonaromatic ring conformer: 121.89702397113994 kcal/mol)

>  <smiles>  (24) 
Cc1noc(-c2ccc3cc(C(N)=O)n(C(=O)C(=O)NCC4(O)CCS(=O)(=O)C4)c3c2)n1

>  <score_type>  (24) 
oracle

>  <origin>  (24) 
adg

>  <m_score__min__energy>  (24) 
-9.0600000000000005

>  <m_primary>  (24) 
energy

$$$$
25:0
     RDKit          3D

 28 29  0  0  0  0  0  0  0  0999 V2000
  150.0930  160.3960  129.9570 N   0  0  0  0  0  0  0  0  0  0  0  0
  149.1910  160.3670  131.0580 C   0  0  0  0  0  0  0  0  0  0  0  0
  148.5080  161.3910  131.3290 O   0  0  0  0  0  0  0  0  0  0  0  0
  149.0830  159.1970  131.8200 O   0  0  0  0  0  0  0  0  0  0  0  0
  148.4200  159.0970  133.0510 C   0  0  0  0  0  0  0  0  0  0  0  0
  148.8290  159.7340  134.0590 O   0  0  0  0  0  0  0  0  0  0  0  0
  147.2460  158.2760  133.1570 N   0  0  0  0  0  0  0  0  0  0  0  0
  145.9750  158.6720  133.4540 C   0  0  0  0  0  0  0  0  0  0  0  0
  145.5110  160.0700  133.5770 C   0  0  0  0  0  0  0  0  0  0  0  0
  146.4610  161.1230  133.7260 N   0  0  0  0  0  0  0  0  0  0  0  0
  144.2820  160.3420  133.5880 O   0  0  0  0  0  0  0  0  0  0  0  0
  145.1280  157.5710  133.5470 C   0  0  0  0  0  0  0  0  0  0  0  0
  145.9220  156.4770  133.2900 C   0  0  0  0  0  0  0  0  0  0  0  0
  145.5980  155.1230  133.2630 C   0  0  0  0  0  0  0  0  0  0  0  0
  146.6280  154.2060  132.9980 C   0  0  0  0  0  0  0  0  0  0  0  0
  147.9540  154.6530  132.7710 C   0  0  0  0  0  0  0  0  0  0  0  0
  149.0430  153.6530  132.5050 C   0  0  0  0  0  0  0  0  0  0  0  0
  150.2250  154.3160  132.2320 F   0  0  0  0  0  0  0  0  0  0  0  0
  149.2180  152.8470  133.6150 F   0  0  0  0  0  0  0  0  0  0  0  0
  148.2440  156.0350  132.8080 C   0  0  0  0  0  0  0  0  0  0  0  0
  147.1960  156.9280  133.0580 C   0  0  0  0  0  0  0  0  0  0  0  0
  151.0880  160.6830  130.0870 H   0  0  0  0  0  0  0  0  0  0  0  0
  147.3460  161.1310  133.1720 H   0  0  0  0  0  0  0  0  0  0  0  0
  144.0523  157.5749  133.7771 H   0  0  0  0  0  0  0  0  0  0  0  0
  144.5678  154.7824  133.4436 H   0  0  0  0  0  0  0  0  0  0  0  0
  146.4036  153.1296  132.9662 H   0  0  0  0  0  0  0  0  0  0  0  0
  148.7599  153.0325  131.6420 H   0  0  0  0  0  0  0  0  0  0  0  0
  149.2686  156.4003  132.6443 H   0  0  0  0  0  0  0  0  0  0  0  0
  1  2  1  0
  2  3  2  0
  2  4  1  0
  4  5  1  0
  5  6  2  0
  5  7  1  0
  7  8  1  0
  8  9  1  0
  9 10  1  0
  9 11  2  0
  8 12  2  0
 12 13  1  0
 13 14  2  0
 14 15  1  0
 15 16  2  0
 16 17  1  0
 17 18  1  0
 17 19  1  0
 16 20  1  0
 20 21  2  0
 21  7  1  0
 21 13  1  0
  1 22  1  0
 10 23  1  0
 12 24  1  0
 14 25  1  0
 15 26  1  0
 17 27  1  0
 20 28  1  0
M  CHG  2   1  -1  10  -1
M  END
>  <UniqueID>  (25) 
24

>  <SMILES>  (25) 
[NH-]C(=O)OC(=O)n1c(C([NH-])=O)cc2ccc(C(F)F)cc21

>  <Energy>  (25) 
67.34913658589473

>  <Genealogy>  (25) 
[NH-]C(=O)OC(=O)n1c(C([NH-])=O)cc2ccc(C(F)F)cc21 (protonated)
[NH-]C(=O)OC(=O)n1c(C([NH-])=O)cc2ccc(C(F)F)cc21 (3D coordinates assigned)
[NH-]C(=O)OC(=O)n1c(C([NH-])=O)cc2ccc(C(F)F)cc21 (optimized conformer: 67.34913658589473 kcal/mol)

>  <smiles>  (25) 
NC(=O)OC(=O)n1c(C(N)=O)cc2ccc(C(F)F)cc21

>  <score_type>  (25) 
oracle

>  <origin>  (25) 
adg

>  <m_score__min__energy>  (25) 
-5.6200000000000001

>  <m_primary>  (25) 
energy

$$$$
26:0
     RDKit          3D

 43 46  0  0  0  0  0  0  0  0999 V2000
  141.2910  160.5100  133.5140 C   0  0  0  0  0  0  0  0  0  0  0  0
  140.5960  159.2280  133.4930 N   0  0  0  0  0  0  0  0  0  0  0  0
  140.3830  158.3810  134.6500 C   0  0  0  0  0  0  0  0  0  0  0  0
  139.5850  157.1550  134.1400 C   0  0  2  0  0  0  0  0  0  0  0  0
  140.2410  155.9320  134.4770 O   0  0  0  0  0  0  0  0  0  0  0  0
  140.4180  154.8770  133.5750 C   0  0  0  0  0  0  0  0  0  0  0  0
  139.4490  154.4680  132.8800 O   0  0  0  0  0  0  0  0  0  0  0  0
  141.7140  154.2650  133.4390 N   0  0  0  0  0  0  0  0  0  0  0  0
  142.0010  152.9330  133.4730 C   0  0  0  0  0  0  0  0  0  0  0  0
  141.0120  151.8360  133.4770 C   0  0  0  0  0  0  0  0  0  0  0  0
  139.8780  151.8660  132.6110 N   0  0  0  0  0  0  0  0  0  0  0  0
  141.2020  150.8340  134.2150 O   0  0  0  0  0  0  0  0  0  0  0  0
  143.3750  152.7230  133.4550 C   0  0  0  0  0  0  0  0  0  0  0  0
  143.9320  153.9790  133.3960 C   0  0  0  0  0  0  0  0  0  0  0  0
  145.2710  154.3600  133.3710 C   0  0  0  0  0  0  0  0  0  0  0  0
  145.5640  155.7340  133.3510 C   0  0  0  0  0  0  0  0  0  0  0  0
  144.5230  156.6960  133.3650 C   0  0  0  0  0  0  0  0  0  0  0  0
  144.8390  158.1390  133.3580 C   0  0  0  0  0  0  0  0  0  0  0  0
  146.0410  158.6440  133.0030 N   0  0  0  0  0  0  0  0  0  0  0  0
  145.8750  159.9730  133.1430 C   0  0  0  0  0  0  0  0  0  0  0  0
  144.5940  160.2260  133.5740 C   0  0  0  0  0  0  0  0  0  0  0  0
  143.9810  159.0750  133.6950 O   0  0  0  0  0  0  0  0  0  0  0  0
  143.1760  156.2700  133.3920 C   0  0  0  0  0  0  0  0  0  0  0  0
  142.9100  154.8940  133.3900 C   0  0  0  0  0  0  0  0  0  0  0  0
  139.4800  157.2870  132.6080 C   0  0  0  0  0  0  0  0  0  0  0  0
  140.0880  158.6020  132.3340 C   0  0  0  0  0  0  0  0  0  0  0  0
  140.1600  159.1170  131.1850 O   0  0  0  0  0  0  0  0  0  0  0  0
  141.4586  160.8192  134.5563 H   0  0  0  0  0  0  0  0  0  0  0  0
  142.2589  160.4108  133.0008 H   0  0  0  0  0  0  0  0  0  0  0  0
  140.6797  161.2669  133.0008 H   0  0  0  0  0  0  0  0  0  0  0  0
  141.3470  158.0610  135.0722 H   0  0  0  0  0  0  0  0  0  0  0  0
  139.8398  158.9133  135.4447 H   0  0  0  0  0  0  0  0  0  0  0  0
  138.5909  157.1323  134.6104 H   0  0  0  0  0  0  0  0  0  0  0  0
  139.1590  151.1110  132.6600 H   0  0  0  0  0  0  0  0  0  0  0  0
  139.7910  152.5930  131.8670 H   0  0  0  0  0  0  0  0  0  0  0  0
  143.9036  151.7587  133.4821 H   0  0  0  0  0  0  0  0  0  0  0  0
  146.0744  153.6087  133.3670 H   0  0  0  0  0  0  0  0  0  0  0  0
  146.6121  156.0666  133.3242 H   0  0  0  0  0  0  0  0  0  0  0  0
  146.6426  160.7354  132.9441 H   0  0  0  0  0  0  0  0  0  0  0  0
  144.1620  161.2164  133.7800 H   0  0  0  0  0  0  0  0  0  0  0  0
  142.3549  157.0017  133.4141 H   0  0  0  0  0  0  0  0  0  0  0  0
  140.0377  156.4833  132.1049 H   0  0  0  0  0  0  0  0  0  0  0  0
  138.4461  157.2078  132.2408 H   0  0  0  0  0  0  0  0  0  0  0  0
  1  2  1  0
  2  3  1  0
  3  4  1  0
  4  5  1  0
  5  6  1  0
  6  7  2  0
  6  8  1  0
  8  9  1  0
  9 10  1  0
 10 11  1  0
 10 12  2  0
  9 13  2  0
 13 14  1  0
 14 15  2  0
 15 16  1  0
 16 17  2  0
 17 18  1  0
 18 19  2  0
 19 20  1  0
 20 21  2  0
 21 22  1  0
 17 23  1  0
 23 24  2  0
  4 25  1  0
 25 26  1  0
 26 27  2  0
 26  2  1  0
 24  8  1  0
 24 14  1  0
 22 18  1  0
  1 28  1  0
  1 29  1  0
  1 30  1  0
  3 31  1  0
  3 32  1  0
  4 33  1  1
 11 34  1  0
 11 35  1  0
 13 36  1  0
 15 37  1  0
 16 38  1  0
 20 39  1  0
 21 40  1  0
 23 41  1  0
 25 42  1  0
 25 43  1  0
M  END
>  <UniqueID>  (26) 
25

>  <SMILES>  (26) 
CN1C[C@H](OC(=O)n2c(C(N)=O)cc3ccc(-c4ncco4)cc32)CC1=O

>  <Energy>  (26) 
117.99510348328495

>  <Genealogy>  (26) 
CN1C[C@H](OC(=O)n2c(C(N)=O)cc3ccc(-c4ncco4)cc32)CC1=O (chirality)
CN1C[C@H](OC(=O)n2c(C(N)=O)cc3ccc(-c4ncco4)cc32)CC1=O (3D coordinates assigned)
CN1C[C@H](OC(=O)n2c(C(N)=O)cc3ccc(-c4ncco4)cc32)CC1=O (nonaromatic ring conformer: 117.99510348328495 kcal/mol)

>  <smiles>  (26) 
CN1CC(OC(=O)n2c(C(N)=O)cc3ccc(-c4ncco4)cc32)CC1=O

>  <score_type>  (26) 
oracle

>  <origin>  (26) 
adg

>  <m_score__min__energy>  (26) 
-7.6600000000000001

>  <m_primary>  (26) 
energy

$$$$
27:0
     RDKit          3D

 37 38  0  0  0  0  0  0  0  0999 V2000
  138.8700  147.8150  130.7430 N   0  0  0  0  0  0  0  0  0  0  0  0
  139.4370  149.0590  131.1460 C   0  0  0  0  0  0  0  0  0  0  0  0
  139.5500  149.9980  130.3140 O   0  0  0  0  0  0  0  0  0  0  0  0
  139.8580  149.2640  132.5670 C   0  0  0  0  0  0  0  0  0  0  0  0
  140.9430  150.3010  132.6390 C   0  0  0  0  0  0  0  0  0  0  0  0
  142.3030  149.9170  132.5320 C   0  0  0  0  0  0  0  0  0  0  0  0
  143.3250  150.8780  132.6080 C   0  0  0  0  0  0  0  0  0  0  0  0
  142.9590  152.2060  132.8070 C   0  0  0  0  0  0  0  0  0  0  0  0
  143.7410  153.3350  132.8850 C   0  0  0  0  0  0  0  0  0  0  0  0
  142.8510  154.3860  133.0830 C   0  0  0  0  0  0  0  0  0  0  0  0
  143.2800  155.7830  133.2870 C   0  0  0  0  0  0  0  0  0  0  0  0
  142.5460  156.8710  132.7220 N   0  0  0  0  0  0  0  0  0  0  0  0
  144.2830  156.0240  134.0100 O   0  0  0  0  0  0  0  0  0  0  0  0
  141.5670  153.9330  133.1130 N   0  0  0  0  0  0  0  0  0  0  0  0
  140.3670  154.7230  133.1830 C   0  0  0  0  0  0  0  0  0  0  0  0
  139.3130  154.3160  132.6220 O   0  0  0  0  0  0  0  0  0  0  0  0
  140.3760  155.9300  133.8960 O   0  0  0  0  0  0  0  0  0  0  0  0
  139.7520  157.1120  133.4810 C   0  0  0  0  0  0  0  0  0  0  0  0
  139.5520  157.3460  132.2560 O   0  0  0  0  0  0  0  0  0  0  0  0
  139.3640  158.0420  134.4520 O   0  0  0  0  0  0  0  0  0  0  0  0
  140.2630  158.9740  135.0470 C   0  0  0  0  0  0  0  0  0  0  0  0
  141.4980  159.1080  134.2140 C   0  0  0  0  0  0  0  0  0  0  0  0
  141.4130  159.4130  132.9950 O   0  0  0  0  0  0  0  0  0  0  0  0
  142.7440  158.8660  134.7780 O   0  0  0  0  0  0  0  0  0  0  0  0
  141.6500  152.5920  132.9450 C   0  0  0  0  0  0  0  0  0  0  0  0
  140.6100  151.6580  132.8520 C   0  0  0  0  0  0  0  0  0  0  0  0
  137.9230  147.5250  131.0750 H   0  0  0  0  0  0  0  0  0  0  0  0
  138.9933  149.6004  133.1578 H   0  0  0  0  0  0  0  0  0  0  0  0
  140.2398  148.3145  132.9702 H   0  0  0  0  0  0  0  0  0  0  0  0
  142.5606  148.8573  132.3882 H   0  0  0  0  0  0  0  0  0  0  0  0
  144.3823  150.5896  132.5131 H   0  0  0  0  0  0  0  0  0  0  0  0
  144.8367  153.3943  132.8074 H   0  0  0  0  0  0  0  0  0  0  0  0
  142.8830  157.8510  132.8450 H   0  0  0  0  0  0  0  0  0  0  0  0
  141.6360  156.7120  132.2370 H   0  0  0  0  0  0  0  0  0  0  0  0
  139.7701  159.9542  135.1255 H   0  0  0  0  0  0  0  0  0  0  0  0
  140.5435  158.6121  136.0472 H   0  0  0  0  0  0  0  0  0  0  0  0
  139.5600  151.9730  132.9425 H   0  0  0  0  0  0  0  0  0  0  0  0
  1  2  1  0
  2  3  2  0
  2  4  1  0
  4  5  1  0
  5  6  2  0
  6  7  1  0
  7  8  2  0
  8  9  1  0
  9 10  2  0
 10 11  1  0
 11 12  1  0
 11 13  2  0
 10 14  1  0
 14 15  1  0
 15 16  2  0
 15 17  1  0
 17 18  1  0
 18 19  2  0
 18 20  1  0
 20 21  1  0
 21 22  1  0
 22 23  2  0
 22 24  1  0
 14 25  1  0
 25 26  2  0
 26  5  1  0
 25  8  1  0
  1 27  1  0
  4 28  1  0
  4 29  1  0
  6 30  1  0
  7 31  1  0
  9 32  1  0
 12 33  1  0
 12 34  1  0
 21 35  1  0
 21 36  1  0
 26 37  1  0
M  CHG  2   1  -1  24  -1
M  END
>  <UniqueID>  (27) 
26

>  <SMILES>  (27) 
[NH-]C(=O)Cc1ccc2cc(C(N)=O)n(C(=O)OC(=O)OCC(=O)[O-])c2c1

>  <Energy>  (27) 
73.2131716601244

>  <Genealogy>  (27) 
[NH-]C(=O)Cc1ccc2cc(C(N)=O)n(C(=O)OC(=O)OCC(=O)[O-])c2c1 (protonated)
[NH-]C(=O)Cc1ccc2cc(C(N)=O)n(C(=O)OC(=O)OCC(=O)[O-])c2c1 (3D coordinates assigned)
[NH-]C(=O)Cc1ccc2cc(C(N)=O)n(C(=O)OC(=O)OCC(=O)[O-])c2c1 (optimized conformer: 73.2131716601244 kcal/mol)

>  <smiles>  (27) 
NC(=O)Cc1ccc2cc(C(N)=O)n(C(=O)OC(=O)OCC(=O)O)c2c1

>  <score_type>  (27) 
oracle

>  <origin>  (27) 
adg

>  <m_score__min__energy>  (27) 
-7.0300000000000002

>  <m_primary>  (27) 
energy

$$$$
28:0
     RDKit          3D

 43 44  0  0  0  0  0  0  0  0999 V2000
  140.3870  157.6920  132.5780 C   0  0  0  0  0  0  0  0  0  0  0  0
  139.5530  156.8210  133.4560 C   0  0  0  0  0  0  0  0  0  0  0  0
  138.3700  157.1650  133.7260 O   0  0  0  0  0  0  0  0  0  0  0  0
  140.1190  155.6650  134.0070 O   0  0  0  0  0  0  0  0  0  0  0  0
  141.4530  155.5440  134.4230 C   0  0  0  0  0  0  0  0  0  0  0  0
  142.2060  154.6560  133.9410 O   0  0  0  0  0  0  0  0  0  0  0  0
  141.9790  156.4830  135.4230 C   0  0  0  0  0  0  0  0  0  0  0  0
  142.0610  156.1250  136.6280 O   0  0  0  0  0  0  0  0  0  0  0  0
  142.3990  157.8050  135.0450 N   0  0  0  0  0  0  0  0  0  0  0  0
  141.8020  158.9880  135.3620 C   0  0  0  0  0  0  0  0  0  0  0  0
  140.5250  159.1430  136.0890 C   0  0  0  0  0  0  0  0  0  0  0  0
  139.5580  158.0960  136.0570 N   0  0  0  0  0  0  0  0  0  0  0  0
  140.2850  160.1830  136.7560 O   0  0  0  0  0  0  0  0  0  0  0  0
  142.5430  160.0570  134.8580 C   0  0  0  0  0  0  0  0  0  0  0  0
  143.6220  159.4840  134.2220 C   0  0  0  0  0  0  0  0  0  0  0  0
  144.6910  160.0790  133.5590 C   0  0  0  0  0  0  0  0  0  0  0  0
  145.6810  159.2400  133.0210 C   0  0  0  0  0  0  0  0  0  0  0  0
  145.5950  157.8310  133.1580 C   0  0  0  0  0  0  0  0  0  0  0  0
  146.6350  157.0080  132.5970 N   0  0  0  0  0  0  0  0  0  0  0  0
  147.9870  156.9350  133.1540 C   0  0  0  0  0  0  0  0  0  0  0  0
  148.7490  158.1920  132.8590 C   0  0  0  0  0  0  0  0  0  0  0  0
  149.0840  158.9540  133.8070 O   0  0  0  0  0  0  0  0  0  0  0  0
  149.1310  158.5010  131.5130 N   0  0  0  0  0  0  0  0  0  0  0  0
  149.8900  159.7110  131.1950 C   0  0  0  0  0  0  0  0  0  0  0  0
  149.4040  160.3260  129.9180 C   0  0  0  0  0  0  0  0  0  0  0  0
  148.5810  159.7460  129.2280 O   0  0  0  0  0  0  0  0  0  0  0  0
  144.4920  157.2650  133.8450 C   0  0  0  0  0  0  0  0  0  0  0  0
  143.5130  158.1250  134.3520 C   0  0  0  0  0  0  0  0  0  0  0  0
  141.0142  158.3470  133.2006 H   0  0  0  0  0  0  0  0  0  0  0  0
  141.0296  157.0645  131.9430 H   0  0  0  0  0  0  0  0  0  0  0  0
  139.7322  158.3068  131.9430 H   0  0  0  0  0  0  0  0  0  0  0  0
  139.7130  157.2390  135.4790 H   0  0  0  0  0  0  0  0  0  0  0  0
  142.3143  161.1291  134.9491 H   0  0  0  0  0  0  0  0  0  0  0  0
  144.7587  161.1724  133.4593 H   0  0  0  0  0  0  0  0  0  0  0  0
  146.5346  159.6819  132.4861 H   0  0  0  0  0  0  0  0  0  0  0  0
  146.4060  156.4330  131.7530 H   0  0  0  0  0  0  0  0  0  0  0  0
  147.9220  156.7992  134.2437 H   0  0  0  0  0  0  0  0  0  0  0  0
  148.5138  156.0855  132.6949 H   0  0  0  0  0  0  0  0  0  0  0  0
  148.8560  157.8400  130.7510 H   0  0  0  0  0  0  0  0  0  0  0  0
  149.7702  160.4368  132.0129 H   0  0  0  0  0  0  0  0  0  0  0  0
  150.9493  159.4402  131.0742 H   0  0  0  0  0  0  0  0  0  0  0  0
  149.7910  161.3055  129.6006 H   0  0  0  0  0  0  0  0  0  0  0  0
  144.4082  156.1761  133.9761 H   0  0  0  0  0  0  0  0  0  0  0  0
  1  2  1  0
  2  3  2  0
  2  4  1  0
  4  5  1  0
  5  6  2  0
  5  7  1  0
  7  8  2  0
  7  9  1  0
  9 10  1  0
 10 11  1  0
 11 12  1  0
 11 13  2  0
 10 14  2  0
 14 15  1  0
 15 16  2  0
 16 17  1  0
 17 18  2  0
 18 19  1  0
 19 20  1  0
 20 21  1  0
 21 22  2  0
 21 23  1  0
 23 24  1  0
 24 25  1  0
 25 26  2  0
 18 27  1  0
 27 28  2  0
 28  9  1  0
 28 15  1  0
  1 29  1  0
  1 30  1  0
  1 31  1  0
 12 32  1  0
 14 33  1  0
 16 34  1  0
 17 35  1  0
 19 36  1  0
 20 37  1  0
 20 38  1  0
 23 39  1  0
 24 40  1  0
 24 41  1  0
 25 42  1  0
 27 43  1  0
M  CHG  1  12  -1
M  END
>  <UniqueID>  (28) 
27

>  <SMILES>  (28) 
CC(=O)OC(=O)C(=O)n1c(C([NH-])=O)cc2ccc(NCC(=O)NCC=O)cc21

>  <Energy>  (28) 
75.94463138254355

>  <Genealogy>  (28) 
CC(=O)OC(=O)C(=O)n1c(C([NH-])=O)cc2ccc(NCC(=O)NCC=O)cc21 (protonated)
CC(=O)OC(=O)C(=O)n1c(C([NH-])=O)cc2ccc(NCC(=O)NCC=O)cc21 (3D coordinates assigned)
CC(=O)OC(=O)C(=O)n1c(C([NH-])=O)cc2ccc(NCC(=O)NCC=O)cc21 (optimized conformer: 75.94463138254355 kcal/mol)

>  <smiles>  (28) 
CC(=O)OC(=O)C(=O)n1c(C(N)=O)cc2ccc(NCC(=O)NCC=O)cc21

>  <score_type>  (28) 
oracle

>  <origin>  (28) 
adg

>  <m_score__min__energy>  (28) 
-7.0899999999999999

>  <m_primary>  (28) 
energy

$$$$
29:0
     RDKit          3D

 37 38  0  0  0  0  0  0  0  0999 V2000
  148.7750  152.0510  132.2620 C   0  0  0  0  0  0  0  0  0  0  0  0
  149.2680  153.3870  132.8070 C   0  0  0  0  0  0  0  0  0  0  0  0
  148.1330  154.3680  132.9160 C   0  0  0  0  0  0  0  0  0  0  0  0
  146.7960  153.9040  133.0100 C   0  0  0  0  0  0  0  0  0  0  0  0
  145.7310  154.8080  133.1560 C   0  0  0  0  0  0  0  0  0  0  0  0
  146.0320  156.1670  133.2040 C   0  0  0  0  0  0  0  0  0  0  0  0
  145.2050  157.2560  133.3700 C   0  0  0  0  0  0  0  0  0  0  0  0
  146.0490  158.3650  133.3710 C   0  0  0  0  0  0  0  0  0  0  0  0
  145.5780  159.7610  133.4960 C   0  0  0  0  0  0  0  0  0  0  0  0
  144.1850  160.0510  133.4140 N   0  0  0  0  0  0  0  0  0  0  0  0
  146.3980  160.7030  133.6630 O   0  0  0  0  0  0  0  0  0  0  0  0
  147.3430  157.9760  133.2060 N   0  0  0  0  0  0  0  0  0  0  0  0
  148.5120  158.8090  133.2070 C   0  0  0  0  0  0  0  0  0  0  0  0
  148.8210  159.4250  134.2610 O   0  0  0  0  0  0  0  0  0  0  0  0
  149.3450  158.9230  131.9830 C   0  0  0  0  0  0  0  0  0  0  0  0
  150.3280  158.1430  131.8620 O   0  0  0  0  0  0  0  0  0  0  0  0
  149.0770  159.8820  130.9330 N   0  0  0  0  0  0  0  0  0  0  0  0
  147.7530  160.4910  130.7580 C   0  0  0  0  0  0  0  0  0  0  0  0
  150.1420  160.1810  129.9690 C   0  0  0  0  0  0  0  0  0  0  0  0
  147.3180  156.6300  133.1100 C   0  0  0  0  0  0  0  0  0  0  0  0
  148.4000  155.7540  132.9820 C   0  0  0  0  0  0  0  0  0  0  0  0
  148.5281  151.3820  133.0995 H   0  0  0  0  0  0  0  0  0  0  0  0
  147.8780  152.2145  131.6466 H   0  0  0  0  0  0  0  0  0  0  0  0
  149.5632  151.5927  131.6466 H   0  0  0  0  0  0  0  0  0  0  0  0
  149.7071  153.2306  133.8034 H   0  0  0  0  0  0  0  0  0  0  0  0
  150.0221  153.7938  132.1172 H   0  0  0  0  0  0  0  0  0  0  0  0
  146.5909  152.8241  132.9681 H   0  0  0  0  0  0  0  0  0  0  0  0
  144.6922  154.4539  133.2301 H   0  0  0  0  0  0  0  0  0  0  0  0
  144.1104  157.2513  133.4787 H   0  0  0  0  0  0  0  0  0  0  0  0
  143.6140  159.7160  132.6050 H   0  0  0  0  0  0  0  0  0  0  0  0
  147.3099  160.6948  131.7440 H   0  0  0  0  0  0  0  0  0  0  0  0
  147.8537  161.4333  130.1994 H   0  0  0  0  0  0  0  0  0  0  0  0
  147.1031  159.8013  130.1994 H   0  0  0  0  0  0  0  0  0  0  0  0
  151.0641  160.4399  130.5100 H   0  0  0  0  0  0  0  0  0  0  0  0
  150.3229  159.2989  129.3372 H   0  0  0  0  0  0  0  0  0  0  0  0
  149.8374  161.0283  129.3372 H   0  0  0  0  0  0  0  0  0  0  0  0
  149.4314  156.1335  132.9339 H   0  0  0  0  0  0  0  0  0  0  0  0
  1  2  1  0
  2  3  1  0
  3  4  2  0
  4  5  1  0
  5  6  2  0
  6  7  1  0
  7  8  2  0
  8  9  1  0
  9 10  1  0
  9 11  2  0
  8 12  1  0
 12 13  1  0
 13 14  2  0
 13 15  1  0
 15 16  2  0
 15 17  1  0
 17 18  1  0
 17 19  1  0
 12 20  1  0
 20 21  2  0
 21  3  1  0
 20  6  1  0
  1 22  1  0
  1 23  1  0
  1 24  1  0
  2 25  1  0
  2 26  1  0
  4 27  1  0
  5 28  1  0
  7 29  1  0
 10 30  1  0
 18 31  1  0
 18 32  1  0
 18 33  1  0
 19 34  1  0
 19 35  1  0
 19 36  1  0
 21 37  1  0
M  CHG  1  10  -1
M  END
>  <UniqueID>  (29) 
28

>  <SMILES>  (29) 
CCc1ccc2cc(C([NH-])=O)n(C(=O)C(=O)N(C)C)c2c1

>  <Energy>  (29) 
73.41924771777026

>  <Genealogy>  (29) 
CCc1ccc2cc(C([NH-])=O)n(C(=O)C(=O)N(C)C)c2c1 (protonated)
CCc1ccc2cc(C([NH-])=O)n(C(=O)C(=O)N(C)C)c2c1 (3D coordinates assigned)
CCc1ccc2cc(C([NH-])=O)n(C(=O)C(=O)N(C)C)c2c1 (optimized conformer: 73.41924771777026 kcal/mol)

>  <smiles>  (29) 
CCc1ccc2cc(C(N)=O)n(C(=O)C(=O)N(C)C)c2c1

>  <score_type>  (29) 
oracle

>  <origin>  (29) 
adg

>  <m_score__min__energy>  (29) 
-6.7300000000000004

>  <m_primary>  (29) 
energy

$$$$
30:0
     RDKit          3D

 37 38  0  0  0  0  0  0  0  0999 V2000
  148.3850  154.1340  133.3570 C   0  0  0  0  0  0  0  0  0  0  0  0
  147.9620  155.0970  132.3460 N   0  0  0  0  0  0  0  0  0  0  0  0
  147.7950  156.5030  132.6050 C   0  0  0  0  0  0  0  0  0  0  0  0
  148.8940  157.4040  132.5550 C   0  0  0  0  0  0  0  0  0  0  0  0
  148.7100  158.7750  132.8010 C   0  0  0  0  0  0  0  0  0  0  0  0
  147.4250  159.2180  133.1000 C   0  0  0  0  0  0  0  0  0  0  0  0
  146.9650  160.4900  133.3560 C   0  0  0  0  0  0  0  0  0  0  0  0
  145.5970  160.3490  133.5810 C   0  0  0  0  0  0  0  0  0  0  0  0
  144.7190  161.4680  133.9800 C   0  0  0  0  0  0  0  0  0  0  0  0
  143.3180  161.3970  133.7270 N   0  0  0  0  0  0  0  0  0  0  0  0
  145.1960  162.5050  134.5120 O   0  0  0  0  0  0  0  0  0  0  0  0
  145.2260  159.0420  133.4600 N   0  0  0  0  0  0  0  0  0  0  0  0
  143.9050  158.4880  133.5620 C   0  0  0  0  0  0  0  0  0  0  0  0
  143.3930  157.8970  132.5710 O   0  0  0  0  0  0  0  0  0  0  0  0
  143.2040  158.5820  134.7690 O   0  0  0  0  0  0  0  0  0  0  0  0
  141.9470  157.9490  135.0000 C   0  0  0  0  0  0  0  0  0  0  0  0
  140.8030  158.9540  134.8370 C   0  0  0  0  0  0  0  0  0  0  0  0
  140.3590  159.0550  133.3760 C   0  0  0  0  0  0  0  0  0  0  0  0
  141.3250  159.7300  132.6200 O   0  0  0  0  0  0  0  0  0  0  0  0
  146.3580  158.3630  133.1700 C   0  0  0  0  0  0  0  0  0  0  0  0
  146.5070  156.9960  132.9120 C   0  0  0  0  0  0  0  0  0  0  0  0
  148.2023  154.5500  134.3588 H   0  0  0  0  0  0  0  0  0  0  0  0
  147.8135  153.2018  133.2372 H   0  0  0  0  0  0  0  0  0  0  0  0
  149.4581  153.9242  133.2372 H   0  0  0  0  0  0  0  0  0  0  0  0
  147.7730  154.7360  131.3830 H   0  0  0  0  0  0  0  0  0  0  0  0
  149.8992  157.0234  132.3211 H   0  0  0  0  0  0  0  0  0  0  0  0
  149.5559  159.4769  132.7586 H   0  0  0  0  0  0  0  0  0  0  0  0
  147.5523  161.4198  133.3782 H   0  0  0  0  0  0  0  0  0  0  0  0
  142.7820  160.5210  133.9150 H   0  0  0  0  0  0  0  0  0  0  0  0
  141.8156  157.1304  134.2771 H   0  0  0  0  0  0  0  0  0  0  0  0
  141.9305  157.5543  136.0266 H   0  0  0  0  0  0  0  0  0  0  0  0
  139.9494  158.6285  135.4497 H   0  0  0  0  0  0  0  0  0  0  0  0
  141.1590  159.9427  135.1620 H   0  0  0  0  0  0  0  0  0  0  0  0
  140.2209  158.0429  132.9679 H   0  0  0  0  0  0  0  0  0  0  0  0
  139.4124  159.6133  133.3275 H   0  0  0  0  0  0  0  0  0  0  0  0
  142.1860  159.6300  133.1060 H   0  0  0  0  0  0  0  0  0  0  0  0
  145.6402  156.3197  132.9474 H   0  0  0  0  0  0  0  0  0  0  0  0
  1  2  1  0
  2  3  1  0
  3  4  2  0
  4  5  1  0
  5  6  2  0
  6  7  1  0
  7  8  2  0
  8  9  1  0
  9 10  1  0
  9 11  2  0
  8 12  1  0
 12 13  1  0
 13 14  2  0
 13 15  1  0
 15 16  1  0
 16 17  1  0
 17 18  1  0
 18 19  1  0
 12 20  1  0
 20 21  2  0
 21  3  1  0
 20  6  1  0
  1 22  1  0
  1 23  1  0
  1 24  1  0
  2 25  1  0
  4 26  1  0
  5 27  1  0
  7 28  1  0
 10 29  1  0
 16 30  1  0
 16 31  1  0
 17 32  1  0
 17 33  1  0
 18 34  1  0
 18 35  1  0
 19 36  1  0
 21 37  1  0
M  CHG  1  10  -1
M  END
>  <UniqueID>  (30) 
29

>  <SMILES>  (30) 
CNc1ccc2cc(C([NH-])=O)n(C(=O)OCCCO)c2c1

>  <Energy>  (30) 
68.61917406616725

>  <Genealogy>  (30) 
CNc1ccc2cc(C([NH-])=O)n(C(=O)OCCCO)c2c1 (protonated)
CNc1ccc2cc(C([NH-])=O)n(C(=O)OCCCO)c2c1 (3D coordinates assigned)
CNc1ccc2cc(C([NH-])=O)n(C(=O)OCCCO)c2c1 (optimized conformer: 68.61917406616725 kcal/mol)

>  <smiles>  (30) 
CNc1ccc2cc(C(N)=O)n(C(=O)OCCCO)c2c1

>  <score_type>  (30) 
oracle

>  <origin>  (30) 
adg

>  <m_score__min__energy>  (30) 
-5.46

>  <m_primary>  (30) 
energy

$$$$
31:0
     RDKit          3D

 57 60  0  0  0  0  0  0  0  0999 V2000
  147.2680  157.4770  134.1020 C   0  0  0  0  0  0  0  0  0  0  0  0
  147.9540  156.1790  134.0160 N   0  0  0  0  0  0  0  0  0  0  0  0
  147.5130  155.2610  135.0990 C   0  0  0  0  0  0  0  0  0  0  0  0
  146.5050  154.2120  134.6120 C   0  0  0  0  0  0  0  0  0  0  0  0
  147.1260  153.3210  133.5120 C   0  0  0  0  0  0  0  0  0  0  0  0
  146.0430  152.6310  132.6580 C   0  0  0  0  0  0  0  0  0  0  0  0
  144.8170  152.5060  133.3850 O   0  0  0  0  0  0  0  0  0  0  0  0
  143.7300  153.3950  133.3530 C   0  0  0  0  0  0  0  0  0  0  0  0
  143.8590  154.7600  133.0310 C   0  0  0  0  0  0  0  0  0  0  0  0
  142.7360  155.5920  133.0200 C   0  0  0  0  0  0  0  0  0  0  0  0
  141.4630  155.0780  133.3150 C   0  0  0  0  0  0  0  0  0  0  0  0
  140.2740  155.9660  133.3000 C   0  0  0  0  0  0  0  0  0  0  0  0
  139.1950  155.5590  132.7910 O   0  0  0  0  0  0  0  0  0  0  0  0
  140.3330  157.2970  133.8400 N   0  0  0  0  0  0  0  0  0  0  0  0
  140.0550  158.4710  133.2070 C   0  0  0  0  0  0  0  0  0  0  0  0
  139.7070  158.6080  131.7740 C   0  0  0  0  0  0  0  0  0  0  0  0
  138.6270  157.8650  131.2080 N   0  0  0  0  0  0  0  0  0  0  0  0
  140.3570  159.3990  131.0400 O   0  0  0  0  0  0  0  0  0  0  0  0
  140.2110  159.5430  134.0850 C   0  0  0  0  0  0  0  0  0  0  0  0
  140.6080  158.9820  135.2790 C   0  0  0  0  0  0  0  0  0  0  0  0
  140.9050  159.5830  136.4990 C   0  0  0  0  0  0  0  0  0  0  0  0
  141.2770  158.7530  137.5690 C   0  0  0  0  0  0  0  0  0  0  0  0
  141.3560  157.3460  137.4040 C   0  0  0  0  0  0  0  0  0  0  0  0
  141.7180  156.4820  138.5840 C   0  0  0  0  0  0  0  0  0  0  0  0
  142.4970  155.4240  138.1520 F   0  0  0  0  0  0  0  0  0  0  0  0
  142.4220  157.1960  139.5390 F   0  0  0  0  0  0  0  0  0  0  0  0
  140.5680  155.9840  139.1730 F   0  0  0  0  0  0  0  0  0  0  0  0
  141.0340  156.7720  136.1500 C   0  0  0  0  0  0  0  0  0  0  0  0
  140.6770  157.6260  135.1030 C   0  0  0  0  0  0  0  0  0  0  0  0
  141.3370  153.7150  133.6330 C   0  0  0  0  0  0  0  0  0  0  0  0
  142.4600  152.8840  133.6430 C   0  0  0  0  0  0  0  0  0  0  0  0
  148.1220  154.1150  132.6250 C   0  0  0  0  0  0  0  0  0  0  0  0
  147.8200  155.6180  132.6500 C   0  0  0  0  0  0  0  0  0  0  0  0
  147.1253  157.7470  135.1588 H   0  0  0  0  0  0  0  0  0  0  0  0
  147.8769  158.2471  133.6058 H   0  0  0  0  0  0  0  0  0  0  0  0
  146.2887  157.4078  133.6058 H   0  0  0  0  0  0  0  0  0  0  0  0
  148.3953  154.7413  135.5008 H   0  0  0  0  0  0  0  0  0  0  0  0
  147.0141  155.8694  135.8677 H   0  0  0  0  0  0  0  0  0  0  0  0
  146.2043  153.5800  135.4606 H   0  0  0  0  0  0  0  0  0  0  0  0
  145.6312  154.7318  134.1922 H   0  0  0  0  0  0  0  0  0  0  0  0
  147.6963  152.5308  134.0222 H   0  0  0  0  0  0  0  0  0  0  0  0
  145.8644  153.2291  131.7522 H   0  0  0  0  0  0  0  0  0  0  0  0
  146.3963  151.6237  132.3923 H   0  0  0  0  0  0  0  0  0  0  0  0
  144.8487  155.1734  132.7869 H   0  0  0  0  0  0  0  0  0  0  0  0
  142.8504  156.6589  132.7781 H   0  0  0  0  0  0  0  0  0  0  0  0
  138.1090  157.1470  131.7620 H   0  0  0  0  0  0  0  0  0  0  0  0
  138.3660  158.0020  130.2070 H   0  0  0  0  0  0  0  0  0  0  0  0
  140.0511  160.6099  133.8700 H   0  0  0  0  0  0  0  0  0  0  0  0
  140.8500  160.6748  136.6212 H   0  0  0  0  0  0  0  0  0  0  0  0
  141.5100  159.1992  138.5471 H   0  0  0  0  0  0  0  0  0  0  0  0
  141.0641  155.6822  136.0039 H   0  0  0  0  0  0  0  0  0  0  0  0
  140.3477  153.2997  133.8756 H   0  0  0  0  0  0  0  0  0  0  0  0
  142.3446  151.8164  133.8815 H   0  0  0  0  0  0  0  0  0  0  0  0
  149.1435  153.9492  132.9978 H   0  0  0  0  0  0  0  0  0  0  0  0
  148.0213  153.7595  131.5889 H   0  0  0  0  0  0  0  0  0  0  0  0
  148.5241  156.1347  131.9812 H   0  0  0  0  0  0  0  0  0  0  0  0
  146.7819  155.7659  132.3176 H   0  0  0  0  0  0  0  0  0  0  0  0
  1  2  1  0
  2  3  1  0
  3  4  1  0
  4  5  1  0
  5  6  1  0
  6  7  1  0
  7  8  1  0
  8  9  2  0
  9 10  1  0
 10 11  2  0
 11 12  1  0
 12 13  2  0
 12 14  1  0
 14 15  1  0
 15 16  1  0
 16 17  1  0
 16 18  2  0
 15 19  2  0
 19 20  1  0
 20 21  2  0
 21 22  1  0
 22 23  2  0
 23 24  1  0
 24 25  1  0
 24 26  1  0
 24 27  1  0
 23 28  1  0
 28 29  2  0
 11 30  1  0
 30 31  2  0
  5 32  1  0
 32 33  1  0
 33  2  1  0
 31  8  1  0
 29 14  1  0
 29 20  1  0
  1 34  1  0
  1 35  1  0
  1 36  1  0
  3 37  1  0
  3 38  1  0
  4 39  1  0
  4 40  1  0
  5 41  1  0
  6 42  1  0
  6 43  1  0
  9 44  1  0
 10 45  1  0
 17 46  1  0
 17 47  1  0
 19 48  1  0
 21 49  1  0
 22 50  1  0
 28 51  1  0
 30 52  1  0
 31 53  1  0
 32 54  1  0
 32 55  1  0
 33 56  1  0
 33 57  1  0
M  END
>  <UniqueID>  (31) 
30

>  <SMILES>  (31) 
CN1CCC(COc2ccc(C(=O)n3c(C(N)=O)cc4ccc(C(F)(F)F)cc43)cc2)CC1

>  <Energy>  (31) 
110.12429176655559

>  <Genealogy>  (31) 
CN1CCC(COc2ccc(C(=O)n3c(C(N)=O)cc4ccc(C(F)(F)F)cc43)cc2)CC1 (3D coordinates assigned)
CN1CCC(COc2ccc(C(=O)n3c(C(N)=O)cc4ccc(C(F)(F)F)cc43)cc2)CC1 (nonaromatic ring conformer: 110.12429176655559 kcal/mol)

>  <smiles>  (31) 
CN1CCC(COc2ccc(C(=O)n3c(C(N)=O)cc4ccc(C(F)(F)F)cc43)cc2)CC1

>  <score_type>  (31) 
oracle

>  <origin>  (31) 
adg

>  <m_score__min__energy>  (31) 
-9.5399999999999991

>  <m_primary>  (31) 
energy

$$$$
32:0
     RDKit          3D

 42 43  0  0  0  0  0  0  0  0999 V2000
  145.9980  156.2360  132.9890 C   0  0  0  0  0  0  0  0  0  0  0  0
  146.3120  157.6080  133.3950 N   0  0  0  0  0  0  0  0  0  0  0  0
  147.5140  157.8710  134.1950 C   0  0  0  0  0  0  0  0  0  0  0  0
  148.3760  158.8750  133.5030 C   0  0  0  0  0  0  0  0  0  0  0  0
  148.4270  160.0610  133.9300 O   0  0  0  0  0  0  0  0  0  0  0  0
  149.0880  158.4920  132.3600 O   0  0  0  0  0  0  0  0  0  0  0  0
  149.6440  159.4220  131.4340 C   0  0  0  0  0  0  0  0  0  0  0  0
  148.5420  160.2480  130.7650 C   0  0  0  0  0  0  0  0  0  0  0  0
  148.1210  161.2840  131.6100 O   0  0  0  0  0  0  0  0  0  0  0  0
  145.5320  158.7040  132.8770 C   0  0  0  0  0  0  0  0  0  0  0  0
  145.9440  159.3650  131.8860 O   0  0  0  0  0  0  0  0  0  0  0  0
  144.2770  159.0540  133.4760 N   0  0  0  0  0  0  0  0  0  0  0  0
  143.8890  160.2700  133.9510 C   0  0  0  0  0  0  0  0  0  0  0  0
  144.6730  161.5210  133.8690 C   0  0  0  0  0  0  0  0  0  0  0  0
  146.0980  161.4970  133.8810 N   0  0  0  0  0  0  0  0  0  0  0  0
  144.0770  162.6260  133.7720 O   0  0  0  0  0  0  0  0  0  0  0  0
  142.6110  160.1880  134.5030 C   0  0  0  0  0  0  0  0  0  0  0  0
  142.2320  158.8710  134.3540 C   0  0  0  0  0  0  0  0  0  0  0  0
  141.0560  158.2260  134.7220 C   0  0  0  0  0  0  0  0  0  0  0  0
  140.9450  156.8530  134.4490 C   0  0  0  0  0  0  0  0  0  0  0  0
  142.0130  156.1440  133.8370 C   0  0  0  0  0  0  0  0  0  0  0  0
  141.8630  154.6810  133.5080 C   0  0  0  0  0  0  0  0  0  0  0  0
  141.9710  153.9090  134.6530 F   0  0  0  0  0  0  0  0  0  0  0  0
  140.6230  154.4680  132.9360 F   0  0  0  0  0  0  0  0  0  0  0  0
  142.8450  154.2760  132.6200 F   0  0  0  0  0  0  0  0  0  0  0  0
  143.1830  156.8420  133.4590 C   0  0  0  0  0  0  0  0  0  0  0  0
  143.2580  158.2110  133.7340 C   0  0  0  0  0  0  0  0  0  0  0  0
  145.8553  155.6124  133.8838 H   0  0  0  0  0  0  0  0  0  0  0  0
  145.0760  156.2330  132.3891 H   0  0  0  0  0  0  0  0  0  0  0  0
  146.8270  155.8323  132.3891 H   0  0  0  0  0  0  0  0  0  0  0  0
  147.2183  158.2614  135.1800 H   0  0  0  0  0  0  0  0  0  0  0  0
  148.0777  156.9347  134.3199 H   0  0  0  0  0  0  0  0  0  0  0  0
  150.3275  160.0982  131.9684 H   0  0  0  0  0  0  0  0  0  0  0  0
  150.1873  158.8640  130.6571 H   0  0  0  0  0  0  0  0  0  0  0  0
  148.9300  160.6789  129.8302 H   0  0  0  0  0  0  0  0  0  0  0  0
  147.6849  159.5916  130.5541 H   0  0  0  0  0  0  0  0  0  0  0  0
  147.4180  160.9020  132.1990 H   0  0  0  0  0  0  0  0  0  0  0  0
  146.6320  161.0030  133.1310 H   0  0  0  0  0  0  0  0  0  0  0  0
  142.0288  161.0016  134.9603 H   0  0  0  0  0  0  0  0  0  0  0  0
  140.2380  158.7745  135.2118 H   0  0  0  0  0  0  0  0  0  0  0  0
  140.0196  156.3199  134.7123 H   0  0  0  0  0  0  0  0  0  0  0  0
  144.0139  156.3209  132.9608 H   0  0  0  0  0  0  0  0  0  0  0  0
  1  2  1  0
  2  3  1  0
  3  4  1  0
  4  5  2  0
  4  6  1  0
  6  7  1  0
  7  8  1  0
  8  9  1  0
  2 10  1  0
 10 11  2  0
 10 12  1  0
 12 13  1  0
 13 14  1  0
 14 15  1  0
 14 16  2  0
 13 17  2  0
 17 18  1  0
 18 19  2  0
 19 20  1  0
 20 21  2  0
 21 22  1  0
 22 23  1  0
 22 24  1  0
 22 25  1  0
 21 26  1  0
 26 27  2  0
 27 12  1  0
 27 18  1  0
  1 28  1  0
  1 29  1  0
  1 30  1  0
  3 31  1  0
  3 32  1  0
  7 33  1  0
  7 34  1  0
  8 35  1  0
  8 36  1  0
  9 37  1  0
 15 38  1  0
 17 39  1  0
 19 40  1  0
 20 41  1  0
 26 42  1  0
M  CHG  1  15  -1
M  END
>  <UniqueID>  (32) 
31

>  <SMILES>  (32) 
CN(CC(=O)OCCO)C(=O)n1c(C([NH-])=O)cc2ccc(C(F)(F)F)cc21

>  <Energy>  (32) 
73.95054614544209

>  <Genealogy>  (32) 
CN(CC(=O)OCCO)C(=O)n1c(C([NH-])=O)cc2ccc(C(F)(F)F)cc21 (protonated)
CN(CC(=O)OCCO)C(=O)n1c(C([NH-])=O)cc2ccc(C(F)(F)F)cc21 (3D coordinates assigned)
CN(CC(=O)OCCO)C(=O)n1c(C([NH-])=O)cc2ccc(C(F)(F)F)cc21 (optimized conformer: 73.95054614544209 kcal/mol)

>  <smiles>  (32) 
CN(CC(=O)OCCO)C(=O)n1c(C(N)=O)cc2ccc(C(F)(F)F)cc21

>  <score_type>  (32) 
oracle

>  <origin>  (32) 
adg

>  <m_score__min__energy>  (32) 
-5.1600000000000001

>  <m_primary>  (32) 
energy

$$$$
33:0
     RDKit          3D

 56 59  0  0  0  0  0  0  0  0999 V2000
  149.6630  151.1760  133.7380 C   0  0  0  0  0  0  0  0  0  0  0  0
  148.6010  151.7940  133.0230 O   0  0  0  0  0  0  0  0  0  0  0  0
  148.5770  153.1630  132.7460 C   0  0  0  0  0  0  0  0  0  0  0  0
  149.5600  153.7050  132.1770 O   0  0  0  0  0  0  0  0  0  0  0  0
  147.3730  153.9870  133.1540 C   0  0  1  0  0  0  0  0  0  0  0  0
  147.1610  155.0430  132.2460 O   0  0  0  0  0  0  0  0  0  0  0  0
  146.1140  153.2060  133.3750 N   0  0  0  0  0  0  0  0  0  0  0  0
  145.1570  153.3190  132.2420 C   0  0  0  0  0  0  0  0  0  0  0  0
  144.3740  154.6450  132.2470 C   0  0  0  0  0  0  0  0  0  0  0  0
  144.0850  155.0900  133.6160 N   0  0  0  0  0  0  0  0  0  0  0  0
  143.8120  156.4860  133.8940 C   0  0  0  0  0  0  0  0  0  0  0  0
  142.5630  156.8660  134.4570 C   0  0  0  0  0  0  0  0  0  0  0  0
  142.2480  158.2150  134.6780 C   0  0  0  0  0  0  0  0  0  0  0  0
  143.1980  159.1700  134.3390 C   0  0  0  0  0  0  0  0  0  0  0  0
  143.1540  160.5370  134.4760 C   0  0  0  0  0  0  0  0  0  0  0  0
  144.3840  160.9920  134.0120 C   0  0  0  0  0  0  0  0  0  0  0  0
  144.7320  162.4240  133.9090 C   0  0  0  0  0  0  0  0  0  0  0  0
  145.8730  162.9270  134.6010 N   0  0  0  0  0  0  0  0  0  0  0  0
  144.0080  163.2170  133.2520 O   0  0  0  0  0  0  0  0  0  0  0  0
  145.1640  159.9470  133.6080 N   0  0  0  0  0  0  0  0  0  0  0  0
  146.5490  159.9990  133.2280 C   0  0  0  0  0  0  0  0  0  0  0  0
  147.2950  160.8880  133.7230 O   0  0  0  0  0  0  0  0  0  0  0  0
  147.0720  159.0470  132.3440 O   0  0  0  0  0  0  0  0  0  0  0  0
  148.4320  158.9320  132.0220 C   0  0  0  0  0  0  0  0  0  0  0  0
  149.1350  157.9990  132.5000 O   0  0  0  0  0  0  0  0  0  0  0  0
  149.0540  159.9220  131.1350 C   0  0  0  0  0  0  0  0  0  0  0  0
  148.8000  161.2740  131.1130 C   0  0  0  0  0  0  0  0  0  0  0  0
  149.6000  161.7880  130.1130 C   0  0  0  0  0  0  0  0  0  0  0  0
  150.2940  160.8180  129.5590 O   0  0  0  0  0  0  0  0  0  0  0  0
  149.9910  159.6840  130.1490 C   0  0  0  0  0  0  0  0  0  0  0  0
  144.4150  158.8370  133.8050 C   0  0  0  0  0  0  0  0  0  0  0  0
  144.7550  157.4980  133.5660 C   0  0  0  0  0  0  0  0  0  0  0  0
  144.0900  154.0630  134.6600 C   0  0  0  0  0  0  0  0  0  0  0  0
  145.4710  153.3880  134.7150 C   0  0  0  0  0  0  0  0  0  0  0  0
  149.4861  151.2790  134.8188 H   0  0  0  0  0  0  0  0  0  0  0  0
  149.7106  150.1091  133.4742 H   0  0  0  0  0  0  0  0  0  0  0  0
  150.6141  151.6617  133.4742 H   0  0  0  0  0  0  0  0  0  0  0  0
  147.6264  154.3947  134.1437 H   0  0  0  0  0  0  0  0  0  0  0  0
  147.8020  154.9510  131.5000 H   0  0  0  0  0  0  0  0  0  0  0  0
  146.4230  152.2030  133.3440 H   0  0  0  0  0  0  0  0  0  0  0  0
  145.7194  153.2474  131.2994 H   0  0  0  0  0  0  0  0  0  0  0  0
  144.4255  152.5041  132.3461 H   0  0  0  0  0  0  0  0  0  0  0  0
  144.9718  155.4158  131.7386 H   0  0  0  0  0  0  0  0  0  0  0  0
  143.4188  154.4856  131.7253 H   0  0  0  0  0  0  0  0  0  0  0  0
  141.8314  156.0891  134.7238 H   0  0  0  0  0  0  0  0  0  0  0  0
  141.2782  158.5076  135.1067 H   0  0  0  0  0  0  0  0  0  0  0  0
  142.3235  161.1420  134.8687 H   0  0  0  0  0  0  0  0  0  0  0  0
  146.8380  162.6860  134.2860 H   0  0  0  0  0  0  0  0  0  0  0  0
  148.1039  161.8297  131.7584 H   0  0  0  0  0  0  0  0  0  0  0  0
  149.6497  162.8480  129.8233 H   0  0  0  0  0  0  0  0  0  0  0  0
  150.4161  158.7011  129.8975 H   0  0  0  0  0  0  0  0  0  0  0  0
  145.7318  157.2358  133.1334 H   0  0  0  0  0  0  0  0  0  0  0  0
  143.8714  154.5287  135.6323 H   0  0  0  0  0  0  0  0  0  0  0  0
  143.3236  153.3076  134.4322 H   0  0  0  0  0  0  0  0  0  0  0  0
  146.1345  154.0081  135.3357 H   0  0  0  0  0  0  0  0  0  0  0  0
  145.3171  152.3823  135.1333 H   0  0  0  0  0  0  0  0  0  0  0  0
  1  2  1  0
  2  3  1  0
  3  4  2  0
  3  5  1  0
  5  6  1  0
  5  7  1  0
  7  8  1  0
  8  9  1  0
  9 10  1  0
 10 11  1  0
 11 12  2  0
 12 13  1  0
 13 14  2  0
 14 15  1  0
 15 16  2  0
 16 17  1  0
 17 18  1  0
 17 19  2  0
 16 20  1  0
 20 21  1  0
 21 22  2  0
 21 23  1  0
 23 24  1  0
 24 25  2  0
 24 26  1  0
 26 27  1  0
 27 28  2  0
 28 29  1  0
 29 30  1  0
 20 31  1  0
 31 32  2  0
 10 33  1  0
 33 34  1  0
 34  7  1  0
 32 11  1  0
 31 14  1  0
 30 26  2  0
  1 35  1  0
  1 36  1  0
  1 37  1  0
  5 38  1  1
  6 39  1  0
  7 40  1  0
  8 41  1  0
  8 42  1  0
  9 43  1  0
  9 44  1  0
 12 45  1  0
 13 46  1  0
 15 47  1  0
 18 48  1  0
 27 49  1  0
 28 50  1  0
 30 51  1  0
 32 52  1  0
 33 53  1  0
 33 54  1  0
 34 55  1  0
 34 56  1  0
M  CHG  2   7   1  18  -1
M  END
>  <UniqueID>  (33) 
32

>  <SMILES>  (33) 
COC(=O)[C@@H](O)[NH+]1CCN(c2ccc3cc(C([NH-])=O)n(C(=O)OC(=O)c4ccoc4)c3c2)CC1

>  <Energy>  (33) 
140.17723738177787

>  <Genealogy>  (33) 
COC(=O)C(O)[NH+]1CCN(c2ccc3cc(C([NH-])=O)n(C(=O)OC(=O)c4ccoc4)c3c2)CC1 (protonated)
COC(=O)[C@@H](O)[NH+]1CCN(c2ccc3cc(C([NH-])=O)n(C(=O)OC(=O)c4ccoc4)c3c2)CC1 (chirality)
COC(=O)[C@@H](O)[NH+]1CCN(c2ccc3cc(C([NH-])=O)n(C(=O)OC(=O)c4ccoc4)c3c2)CC1 (3D coordinates assigned)
COC(=O)[C@@H](O)[NH+]1CCN(c2ccc3cc(C([NH-])=O)n(C(=O)OC(=O)c4ccoc4)c3c2)CC1 (nonaromatic ring conformer: 140.17723738177787 kcal/mol)

>  <smiles>  (33) 
COC(=O)C(O)N1CCN(c2ccc3cc(C(N)=O)n(C(=O)OC(=O)c4ccoc4)c3c2)CC1

>  <score_type>  (33) 
oracle

>  <origin>  (33) 
adg

>  <m_score__min__energy>  (33) 
-8.0600000000000005

>  <m_primary>  (33) 
energy

$$$$
34:0
     RDKit          3D

 35 36  0  0  0  0  0  0  0  0999 V2000
  141.6930  158.5720  138.0000 C   0  0  0  0  0  0  0  0  0  0  0  0
  140.5950  159.0600  137.0520 C   0  0  1  0  0  0  0  0  0  0  0  0
  141.1700  159.8620  135.9740 N   0  0  0  0  0  0  0  0  0  0  0  0
  141.9760  159.4190  134.8690 C   0  0  0  0  0  0  0  0  0  0  0  0
  143.1870  159.1540  135.0940 O   0  0  0  0  0  0  0  0  0  0  0  0
  141.4610  159.2470  133.4890 C   0  0  0  0  0  0  0  0  0  0  0  0
  141.6010  160.1500  132.6250 O   0  0  0  0  0  0  0  0  0  0  0  0
  140.7790  158.0380  133.1250 N   0  0  0  0  0  0  0  0  0  0  0  0
  139.6360  157.9160  132.3920 C   0  0  0  0  0  0  0  0  0  0  0  0
  138.9200  159.0180  131.7140 C   0  0  0  0  0  0  0  0  0  0  0  0
  139.6030  159.9080  130.8350 N   0  0  0  0  0  0  0  0  0  0  0  0
  137.6810  159.1620  131.8940 O   0  0  0  0  0  0  0  0  0  0  0  0
  139.2390  156.5810  132.3290 C   0  0  0  0  0  0  0  0  0  0  0  0
  140.1800  155.8850  133.0550 C   0  0  0  0  0  0  0  0  0  0  0  0
  140.2610  154.5290  133.3510 C   0  0  0  0  0  0  0  0  0  0  0  0
  141.3220  154.0940  134.1640 C   0  0  0  0  0  0  0  0  0  0  0  0
  142.2860  155.0140  134.6540 C   0  0  0  0  0  0  0  0  0  0  0  0
  143.3850  154.5460  135.5730 C   0  0  0  0  0  0  0  0  0  0  0  0
  142.8670  154.3490  136.8400 F   0  0  0  0  0  0  0  0  0  0  0  0
  144.3970  155.4890  135.6410 F   0  0  0  0  0  0  0  0  0  0  0  0
  143.9300  153.3570  135.1190 F   0  0  0  0  0  0  0  0  0  0  0  0
  142.1510  156.3890  134.3510 C   0  0  0  0  0  0  0  0  0  0  0  0
  141.0960  156.7880  133.5270 C   0  0  0  0  0  0  0  0  0  0  0  0
  139.8800  157.8830  136.4580 C   0  0  0  0  0  0  0  0  0  0  0  0
  140.2160  156.7090  136.7690 O   0  0  0  0  0  0  0  0  0  0  0  0
  138.8150  158.0820  135.5890 O   0  0  0  0  0  0  0  0  0  0  0  0
  141.3690  158.7160  139.0413 H   0  0  0  0  0  0  0  0  0  0  0  0
  141.8848  157.5039  137.8200 H   0  0  0  0  0  0  0  0  0  0  0  0
  142.6143  159.1454  137.8200 H   0  0  0  0  0  0  0  0  0  0  0  0
  139.8884  159.6783  137.6251 H   0  0  0  0  0  0  0  0  0  0  0  0
  140.6390  159.8550  130.7130 H   0  0  0  0  0  0  0  0  0  0  0  0
  138.3605  156.1706  131.8096 H   0  0  0  0  0  0  0  0  0  0  0  0
  139.5176  153.8183  132.9609 H   0  0  0  0  0  0  0  0  0  0  0  0
  141.4064  153.0284  134.4236 H   0  0  0  0  0  0  0  0  0  0  0  0
  142.8601  157.1267  134.7547 H   0  0  0  0  0  0  0  0  0  0  0  0
  1  2  1  0
  2  3  1  0
  3  4  1  0
  4  5  2  0
  4  6  1  0
  6  7  2  0
  6  8  1  0
  8  9  1  0
  9 10  1  0
 10 11  1  0
 10 12  2  0
  9 13  2  0
 13 14  1  0
 14 15  2  0
 15 16  1  0
 16 17  2  0
 17 18  1  0
 18 19  1  0
 18 20  1  0
 18 21  1  0
 17 22  1  0
 22 23  2  0
  2 24  1  0
 24 25  2  0
 24 26  1  0
 23  8  1  0
 23 14  1  0
  1 27  1  0
  1 28  1  0
  1 29  1  0
  2 30  1  1
 11 31  1  0
 13 32  1  0
 15 33  1  0
 16 34  1  0
 22 35  1  0
M  CHG  3   3  -1  11  -1  26  -1
M  END
>  <UniqueID>  (34) 
33

>  <SMILES>  (34) 
C[C@@H]([N-]C(=O)C(=O)n1c(C([NH-])=O)cc2ccc(C(F)(F)F)cc21)C(=O)[O-]

>  <Energy>  (34) 
74.37089843370097

>  <Genealogy>  (34) 
CC([N-]C(=O)C(=O)n1c(C([NH-])=O)cc2ccc(C(F)(F)F)cc21)C(=O)[O-] (protonated)
C[C@@H]([N-]C(=O)C(=O)n1c(C([NH-])=O)cc2ccc(C(F)(F)F)cc21)C(=O)[O-] (chirality)
C[C@@H]([N-]C(=O)C(=O)n1c(C([NH-])=O)cc2ccc(C(F)(F)F)cc21)C(=O)[O-] (3D coordinates assigned)
C[C@@H]([N-]C(=O)C(=O)n1c(C([NH-])=O)cc2ccc(C(F)(F)F)cc21)C(=O)[O-] (optimized conformer: 74.37089843370097 kcal/mol)

>  <smiles>  (34) 
CC(NC(=O)C(=O)n1c(C(N)=O)cc2ccc(C(F)(F)F)cc21)C(=O)O

>  <score_type>  (34) 
oracle

>  <origin>  (34) 
adg

>  <m_score__min__energy>  (34) 
-6.4699999999999998

>  <m_primary>  (34) 
energy

$$$$
35:0
     RDKit          3D

 38 40  0  0  0  0  0  0  0  0999 V2000
  149.4370  157.3980  132.2160 N   0  0  0  0  0  0  0  0  0  0  0  0
  148.9980  158.7510  132.2940 C   0  0  0  0  0  0  0  0  0  0  0  0
  149.7600  159.6710  131.8920 O   0  0  0  0  0  0  0  0  0  0  0  0
  147.6450  159.0860  132.7850 C   0  0  0  0  0  0  0  0  0  0  0  0
  147.2240  160.3880  133.0440 C   0  0  0  0  0  0  0  0  0  0  0  0
  145.8970  160.2790  133.3910 C   0  0  0  0  0  0  0  0  0  0  0  0
  144.9870  161.2630  133.7610 C   0  0  0  0  0  0  0  0  0  0  0  0
  143.6830  160.8620  134.0990 C   0  0  0  0  0  0  0  0  0  0  0  0
  143.3110  159.4910  134.0740 C   0  0  0  0  0  0  0  0  0  0  0  0
  141.9340  159.0770  134.4470 C   0  0  0  0  0  0  0  0  0  0  0  0
  140.9210  158.6470  133.6100 C   0  0  0  0  0  0  0  0  0  0  0  0
  139.8280  158.3690  134.3440 N   0  0  0  0  0  0  0  0  0  0  0  0
  140.1030  158.6040  135.6180 N   0  0  0  0  0  0  0  0  0  0  0  0
  141.3740  159.0350  135.7110 C   0  0  0  0  0  0  0  0  0  0  0  0
  144.2720  158.5230  133.6930 C   0  0  0  0  0  0  0  0  0  0  0  0
  145.5570  158.9540  133.3410 C   0  0  0  0  0  0  0  0  0  0  0  0
  146.6210  158.2060  132.9720 N   0  0  0  0  0  0  0  0  0  0  0  0
  146.6730  156.7720  132.8980 C   0  0  0  0  0  0  0  0  0  0  0  0
  146.9810  156.2140  131.8100 O   0  0  0  0  0  0  0  0  0  0  0  0
  146.3570  156.0120  134.0330 O   0  0  0  0  0  0  0  0  0  0  0  0
  147.2710  155.6150  135.0160 C   0  0  0  0  0  0  0  0  0  0  0  0
  148.1890  156.3910  135.4030 O   0  0  0  0  0  0  0  0  0  0  0  0
  147.1480  154.3370  135.5690 O   0  0  0  0  0  0  0  0  0  0  0  0
  146.8330  154.1120  136.9380 C   0  0  0  0  0  0  0  0  0  0  0  0
  147.3150  152.8460  137.3230 O   0  0  0  0  0  0  0  0  0  0  0  0
  146.9750  152.6210  138.9790 P   0  0  0  0  0  0  0  0  0  0  0  0
  145.6150  151.9790  139.1460 O   0  0  0  0  0  0  0  0  0  0  0  0
  147.0040  154.1040  139.7950 O   0  0  0  0  0  0  0  0  0  0  0  0
  148.1480  151.6040  139.6460 O   0  0  0  0  0  0  0  0  0  0  0  0
  149.0390  156.7440  131.5050 H   0  0  0  0  0  0  0  0  0  0  0  0
  147.8245  161.3077  132.9840 H   0  0  0  0  0  0  0  0  0  0  0  0
  145.2788  162.3232  133.7884 H   0  0  0  0  0  0  0  0  0  0  0  0
  142.9400  161.6203  134.3869 H   0  0  0  0  0  0  0  0  0  0  0  0
  140.9966  158.5479  132.5171 H   0  0  0  0  0  0  0  0  0  0  0  0
  141.8867  159.3104  136.6444 H   0  0  0  0  0  0  0  0  0  0  0  0
  144.0141  157.4538  133.6739 H   0  0  0  0  0  0  0  0  0  0  0  0
  147.3056  154.8891  137.5566 H   0  0  0  0  0  0  0  0  0  0  0  0
  145.7424  154.1497  137.0769 H   0  0  0  0  0  0  0  0  0  0  0  0
  1  2  1  0
  2  3  2  0
  2  4  1  0
  4  5  2  0
  5  6  1  0
  6  7  2  0
  7  8  1  0
  8  9  2  0
  9 10  1  0
 10 11  1  0
 11 12  2  0
 12 13  1  0
 13 14  1  0
  9 15  1  0
 15 16  2  0
 16 17  1  0
 17 18  1  0
 18 19  2  0
 18 20  1  0
 20 21  1  0
 21 22  2  0
 21 23  1  0
 23 24  1  0
 24 25  1  0
 25 26  1  0
 26 27  2  0
 26 28  1  0
 26 29  1  0
 17  4  1  0
 16  6  1  0
 14 10  2  0
  1 30  1  0
  5 31  1  0
  7 32  1  0
  8 33  1  0
 11 34  1  0
 14 35  1  0
 15 36  1  0
 24 37  1  0
 24 38  1  0
M  CHG  4   1  -1  13  -1  28  -1  29  -1
M  END
>  <UniqueID>  (35) 
34

>  <SMILES>  (35) 
[NH-]C(=O)c1cc2ccc(-c3cn[n-]c3)cc2n1C(=O)OC(=O)OCOP(=O)([O-])[O-]

>  <Energy>  (35) 
110.0697256876221

>  <Genealogy>  (35) 
[NH-]C(=O)c1cc2ccc(-c3cn[n-]c3)cc2n1C(=O)OC(=O)OCOP(=O)([O-])[O-] (protonated)
[NH-]C(=O)c1cc2ccc(-c3cn[n-]c3)cc2n1C(=O)OC(=O)OCOP(=O)([O-])[O-] (3D coordinates assigned)
[NH-]C(=O)c1cc2ccc(-c3cn[n-]c3)cc2n1C(=O)OC(=O)OCOP(=O)([O-])[O-] (optimized conformer: 110.0697256876221 kcal/mol)

>  <smiles>  (35) 
NC(=O)c1cc2ccc(-c3cn[nH]c3)cc2n1C(=O)OC(=O)OCOP(=O)(O)O

>  <score_type>  (35) 
oracle

>  <origin>  (35) 
adg

>  <m_score__min__energy>  (35) 
-7.5999999999999996

>  <m_primary>  (35) 
energy

$$$$
36:0
     RDKit          3D

 34 35  0  0  0  0  0  0  0  0999 V2000
  142.1560  158.1990  134.5600 C   0  0  0  0  0  0  0  0  0  0  0  0
  143.4520  158.7990  134.1050 C   0  0  0  0  0  0  0  0  0  0  0  0
  143.6280  160.2060  134.1190 C   0  0  0  0  0  0  0  0  0  0  0  0
  144.8520  160.7790  133.7340 C   0  0  0  0  0  0  0  0  0  0  0  0
  145.8800  159.9220  133.3480 C   0  0  0  0  0  0  0  0  0  0  0  0
  147.1710  160.1990  132.9530 C   0  0  0  0  0  0  0  0  0  0  0  0
  147.7590  158.9580  132.7120 C   0  0  0  0  0  0  0  0  0  0  0  0
  149.1480  158.7820  132.2380 C   0  0  0  0  0  0  0  0  0  0  0  0
  149.7110  157.4820  132.0790 N   0  0  0  0  0  0  0  0  0  0  0  0
  149.8430  159.7930  131.9500 O   0  0  0  0  0  0  0  0  0  0  0  0
  146.8640  157.9580  132.9430 N   0  0  0  0  0  0  0  0  0  0  0  0
  147.0880  156.5440  132.8770 C   0  0  0  0  0  0  0  0  0  0  0  0
  147.0740  155.9730  131.7530 O   0  0  0  0  0  0  0  0  0  0  0  0
  147.3380  155.7820  134.0750 N   0  0  0  0  0  0  0  0  0  0  0  0
  148.0350  156.4110  135.2010 C   0  0  0  0  0  0  0  0  0  0  0  0
  146.8580  154.3980  134.1810 C   0  0  0  0  0  0  0  0  0  0  0  0
  146.2930  154.1570  135.5440 C   0  0  0  0  0  0  0  0  0  0  0  0
  145.1790  154.6470  135.8660 O   0  0  0  0  0  0  0  0  0  0  0  0
  146.9790  153.3530  136.4460 O   0  0  0  0  0  0  0  0  0  0  0  0
  145.7240  158.5610  133.3360 C   0  0  0  0  0  0  0  0  0  0  0  0
  144.5230  157.9620  133.7260 C   0  0  0  0  0  0  0  0  0  0  0  0
  142.1247  158.1845  135.6595 H   0  0  0  0  0  0  0  0  0  0  0  0
  141.3188  158.8011  134.1772 H   0  0  0  0  0  0  0  0  0  0  0  0
  142.0735  157.1711  134.1772 H   0  0  0  0  0  0  0  0  0  0  0  0
  142.7981  160.8554  134.4344 H   0  0  0  0  0  0  0  0  0  0  0  0
  144.9938  161.8698  133.7373 H   0  0  0  0  0  0  0  0  0  0  0  0
  147.6385  161.1894  132.8497 H   0  0  0  0  0  0  0  0  0  0  0  0
  149.1280  156.6810  131.7500 H   0  0  0  0  0  0  0  0  0  0  0  0
  147.6180  156.0347  136.1468 H   0  0  0  0  0  0  0  0  0  0  0  0
  149.1067  156.1684  135.1505 H   0  0  0  0  0  0  0  0  0  0  0  0
  147.9033  157.5019  135.1505 H   0  0  0  0  0  0  0  0  0  0  0  0
  146.0765  154.2244  133.4266 H   0  0  0  0  0  0  0  0  0  0  0  0
  147.6990  153.7096  134.0113 H   0  0  0  0  0  0  0  0  0  0  0  0
  144.4155  156.8673  133.7372 H   0  0  0  0  0  0  0  0  0  0  0  0
  1  2  1  0
  2  3  2  0
  3  4  1  0
  4  5  2  0
  5  6  1  0
  6  7  2  0
  7  8  1  0
  8  9  1  0
  8 10  2  0
  7 11  1  0
 11 12  1  0
 12 13  2  0
 12 14  1  0
 14 15  1  0
 14 16  1  0
 16 17  1  0
 17 18  2  0
 17 19  1  0
 11 20  1  0
 20 21  2  0
 21  2  1  0
 20  5  1  0
  1 22  1  0
  1 23  1  0
  1 24  1  0
  3 25  1  0
  4 26  1  0
  6 27  1  0
  9 28  1  0
 15 29  1  0
 15 30  1  0
 15 31  1  0
 16 32  1  0
 16 33  1  0
 21 34  1  0
M  CHG  2   9  -1  19  -1
M  END
>  <UniqueID>  (36) 
35

>  <SMILES>  (36) 
Cc1ccc2cc(C([NH-])=O)n(C(=O)N(C)CC(=O)[O-])c2c1

>  <Energy>  (36) 
69.8932026304292

>  <Genealogy>  (36) 
Cc1ccc2cc(C([NH-])=O)n(C(=O)N(C)CC(=O)[O-])c2c1 (protonated)
Cc1ccc2cc(C([NH-])=O)n(C(=O)N(C)CC(=O)[O-])c2c1 (3D coordinates assigned)
Cc1ccc2cc(C([NH-])=O)n(C(=O)N(C)CC(=O)[O-])c2c1 (optimized conformer: 69.8932026304292 kcal/mol)

>  <smiles>  (36) 
Cc1ccc2cc(C(N)=O)n(C(=O)N(C)CC(=O)O)c2c1

>  <score_type>  (36) 
oracle

>  <origin>  (36) 
adg

>  <m_score__min__energy>  (36) 
-6.25

>  <m_primary>  (36) 
energy

$$$$
37:0
     RDKit          3D

 34 35  0  0  0  0  0  0  0  0999 V2000
  144.0490  155.9260  134.5010 C   0  0  0  0  0  0  0  0  0  0  0  0
  145.2230  155.0630  134.6680 N   0  0  0  0  0  0  0  0  0  0  0  0
  145.5110  154.4820  135.9840 C   0  0  0  0  0  0  0  0  0  0  0  0
  146.9720  154.1900  136.1080 C   0  0  0  0  0  0  0  0  0  0  0  0
  147.3670  153.0230  136.3720 O   0  0  0  0  0  0  0  0  0  0  0  0
  147.8980  155.2180  135.9810 O   0  0  0  0  0  0  0  0  0  0  0  0
  145.9810  154.6530  133.5110 C   0  0  0  0  0  0  0  0  0  0  0  0
  145.6390  153.6260  132.8630 O   0  0  0  0  0  0  0  0  0  0  0  0
  147.1130  155.4140  133.0680 N   0  0  0  0  0  0  0  0  0  0  0  0
  148.3820  154.9670  132.8670 C   0  0  0  0  0  0  0  0  0  0  0  0
  148.8230  153.5570  132.9330 C   0  0  0  0  0  0  0  0  0  0  0  0
  148.1410  152.5980  133.7430 N   0  0  0  0  0  0  0  0  0  0  0  0
  149.7990  153.1830  132.2300 O   0  0  0  0  0  0  0  0  0  0  0  0
  149.2400  156.0340  132.6070 C   0  0  0  0  0  0  0  0  0  0  0  0
  148.4470  157.1590  132.6590 C   0  0  0  0  0  0  0  0  0  0  0  0
  148.7820  158.5030  132.5120 C   0  0  0  0  0  0  0  0  0  0  0  0
  147.7630  159.4580  132.6770 C   0  0  0  0  0  0  0  0  0  0  0  0
  146.4430  159.0550  132.9960 C   0  0  0  0  0  0  0  0  0  0  0  0
  145.4200  160.0370  133.1750 N   0  0  0  0  0  0  0  0  0  0  0  0
  146.1420  157.6860  133.1450 C   0  0  0  0  0  0  0  0  0  0  0  0
  147.1700  156.7570  132.9490 C   0  0  0  0  0  0  0  0  0  0  0  0
  143.6603  156.2117  135.4896 H   0  0  0  0  0  0  0  0  0  0  0  0
  144.3350  156.8304  133.9441 H   0  0  0  0  0  0  0  0  0  0  0  0
  143.2711  155.3831  133.9441 H   0  0  0  0  0  0  0  0  0  0  0  0
  145.2143  155.1935  136.7687 H   0  0  0  0  0  0  0  0  0  0  0  0
  144.9458  153.5449  136.0954 H   0  0  0  0  0  0  0  0  0  0  0  0
  147.2170  152.8100  134.1780 H   0  0  0  0  0  0  0  0  0  0  0  0
  148.5120  151.6260  133.8230 H   0  0  0  0  0  0  0  0  0  0  0  0
  150.3200  155.9876  132.4036 H   0  0  0  0  0  0  0  0  0  0  0  0
  149.8118  158.8080  132.2742 H   0  0  0  0  0  0  0  0  0  0  0  0
  147.9929  160.5270  132.5573 H   0  0  0  0  0  0  0  0  0  0  0  0
  145.4640  160.9530  132.6760 H   0  0  0  0  0  0  0  0  0  0  0  0
  144.6080  159.8520  133.8070 H   0  0  0  0  0  0  0  0  0  0  0  0
  145.1260  157.3567  133.4084 H   0  0  0  0  0  0  0  0  0  0  0  0
  1  2  1  0
  2  3  1  0
  3  4  1  0
  4  5  2  0
  4  6  1  0
  2  7  1  0
  7  8  2  0
  7  9  1  0
  9 10  1  0
 10 11  1  0
 11 12  1  0
 11 13  2  0
 10 14  2  0
 14 15  1  0
 15 16  2  0
 16 17  1  0
 17 18  2  0
 18 19  1  0
 18 20  1  0
 20 21  2  0
 21  9  1  0
 21 15  1  0
  1 22  1  0
  1 23  1  0
  1 24  1  0
  3 25  1  0
  3 26  1  0
 12 27  1  0
 12 28  1  0
 14 29  1  0
 16 30  1  0
 17 31  1  0
 19 32  1  0
 19 33  1  0
 20 34  1  0
M  CHG  1   6  -1
M  END
>  <UniqueID>  (37) 
36

>  <SMILES>  (37) 
CN(CC(=O)[O-])C(=O)n1c(C(N)=O)cc2ccc(N)cc21

>  <Energy>  (37) 
70.66743013015551

>  <Genealogy>  (37) 
CN(CC(=O)[O-])C(=O)n1c(C(N)=O)cc2ccc(N)cc21 (protonated)
CN(CC(=O)[O-])C(=O)n1c(C(N)=O)cc2ccc(N)cc21 (3D coordinates assigned)
CN(CC(=O)[O-])C(=O)n1c(C(N)=O)cc2ccc(N)cc21 (optimized conformer: 70.66743013015551 kcal/mol)

>  <smiles>  (37) 
CN(CC(=O)O)C(=O)n1c(C(N)=O)cc2ccc(N)cc21

>  <score_type>  (37) 
oracle

>  <origin>  (37) 
adg

>  <m_score__min__energy>  (37) 
-6.0199999999999996

>  <m_primary>  (37) 
energy

$$$$
38:0
     RDKit          3D

 44 45  0  0  0  0  0  0  0  0999 V2000
  137.6120  159.0330  131.5020 C   0  0  0  0  0  0  0  0  0  0  0  0
  138.9930  158.3710  131.6380 C   0  0  0  0  0  0  0  0  0  0  0  0
  140.0880  159.3080  131.1080 C   0  0  0  0  0  0  0  0  0  0  0  0
  139.2980  157.8960  133.0860 C   0  0  2  0  0  0  0  0  0  0  0  0
  140.4720  158.5860  133.6190 N   0  0  0  0  0  0  0  0  0  0  0  0
  140.6250  158.9480  134.9960 C   0  0  0  0  0  0  0  0  0  0  0  0
  139.7670  158.5940  135.8490 O   0  0  0  0  0  0  0  0  0  0  0  0
  141.8140  159.7540  135.4230 C   0  0  0  0  0  0  0  0  0  0  0  0
  142.4660  160.4380  134.2540 C   0  0  0  0  0  0  0  0  0  0  0  0
  141.7720  161.1410  133.4700 O   0  0  0  0  0  0  0  0  0  0  0  0
  143.8410  160.1780  133.9380 N   0  0  0  0  0  0  0  0  0  0  0  0
  144.8840  161.0550  133.9340 C   0  0  0  0  0  0  0  0  0  0  0  0
  144.7800  162.5150  134.1210 C   0  0  0  0  0  0  0  0  0  0  0  0
  143.8480  163.2670  133.3470 N   0  0  0  0  0  0  0  0  0  0  0  0
  145.4870  163.1020  134.9810 O   0  0  0  0  0  0  0  0  0  0  0  0
  146.0760  160.3910  133.6450 C   0  0  0  0  0  0  0  0  0  0  0  0
  145.7240  159.0720  133.4640 C   0  0  0  0  0  0  0  0  0  0  0  0
  146.5100  157.9690  133.1460 C   0  0  0  0  0  0  0  0  0  0  0  0
  145.8750  156.7200  133.0260 C   0  0  0  0  0  0  0  0  0  0  0  0
  144.4780  156.5920  133.2460 C   0  0  0  0  0  0  0  0  0  0  0  0
  143.8000  155.2560  133.0700 C   0  0  0  0  0  0  0  0  0  0  0  0
  144.0810  154.4560  134.1610 F   0  0  0  0  0  0  0  0  0  0  0  0
  144.2520  154.6280  131.9220 F   0  0  0  0  0  0  0  0  0  0  0  0
  142.4290  155.4120  132.9670 F   0  0  0  0  0  0  0  0  0  0  0  0
  143.7120  157.7430  133.5430 C   0  0  0  0  0  0  0  0  0  0  0  0
  144.3710  158.9720  133.6450 C   0  0  0  0  0  0  0  0  0  0  0  0
  139.5210  156.4100  133.1700 C   0  0  0  0  0  0  0  0  0  0  0  0
  139.1070  155.6570  132.2490 O   0  0  0  0  0  0  0  0  0  0  0  0
  140.2090  155.8600  134.2460 O   0  0  0  0  0  0  0  0  0  0  0  0
  137.1999  159.2305  132.5026 H   0  0  0  0  0  0  0  0  0  0  0  0
  137.7123  159.9810  130.9531 H   0  0  0  0  0  0  0  0  0  0  0  0
  136.9358  158.3612  130.9531 H   0  0  0  0  0  0  0  0  0  0  0  0
  138.9792  157.4604  131.0210 H   0  0  0  0  0  0  0  0  0  0  0  0
  140.6214  159.7645  131.9548 H   0  0  0  0  0  0  0  0  0  0  0  0
  140.7974  158.7330  130.4948 H   0  0  0  0  0  0  0  0  0  0  0  0
  139.6295  160.0978  130.4948 H   0  0  0  0  0  0  0  0  0  0  0  0
  138.4106  158.1428  133.6873 H   0  0  0  0  0  0  0  0  0  0  0  0
  141.4879  160.5159  136.1463 H   0  0  0  0  0  0  0  0  0  0  0  0
  142.5481  159.0716  135.8763 H   0  0  0  0  0  0  0  0  0  0  0  0
  142.9810  162.8210  132.9710 H   0  0  0  0  0  0  0  0  0  0  0  0
  147.0831  160.8280  133.5763 H   0  0  0  0  0  0  0  0  0  0  0  0
  147.5946  158.0707  132.9932 H   0  0  0  0  0  0  0  0  0  0  0  0
  146.4671  155.8323  132.7587 H   0  0  0  0  0  0  0  0  0  0  0  0
  142.6241  157.6732  133.6902 H   0  0  0  0  0  0  0  0  0  0  0  0
  1  2  1  0
  2  3  1  0
  2  4  1  0
  4  5  1  0
  5  6  1  0
  6  7  2  0
  6  8  1  0
  8  9  1  0
  9 10  2  0
  9 11  1  0
 11 12  1  0
 12 13  1  0
 13 14  1  0
 13 15  2  0
 12 16  2  0
 16 17  1  0
 17 18  2  0
 18 19  1  0
 19 20  2  0
 20 21  1  0
 21 22  1  0
 21 23  1  0
 21 24  1  0
 20 25  1  0
 25 26  2  0
  4 27  1  0
 27 28  2  0
 27 29  1  0
 26 11  1  0
 26 17  1  0
  1 30  1  0
  1 31  1  0
  1 32  1  0
  2 33  1  0
  3 34  1  0
  3 35  1  0
  3 36  1  0
  4 37  1  1
  8 38  1  0
  8 39  1  0
 14 40  1  0
 16 41  1  0
 18 42  1  0
 19 43  1  0
 25 44  1  0
M  CHG  3   5  -1  14  -1  29  -1
M  END
>  <UniqueID>  (38) 
37

>  <SMILES>  (38) 
CC(C)[C@H]([N-]C(=O)CC(=O)n1c(C([NH-])=O)cc2ccc(C(F)(F)F)cc21)C(=O)[O-]

>  <Energy>  (38) 
77.06852528055616

>  <Genealogy>  (38) 
CC(C)C([N-]C(=O)CC(=O)n1c(C([NH-])=O)cc2ccc(C(F)(F)F)cc21)C(=O)[O-] (protonated)
CC(C)[C@H]([N-]C(=O)CC(=O)n1c(C([NH-])=O)cc2ccc(C(F)(F)F)cc21)C(=O)[O-] (chirality)
CC(C)[C@H]([N-]C(=O)CC(=O)n1c(C([NH-])=O)cc2ccc(C(F)(F)F)cc21)C(=O)[O-] (3D coordinates assigned)
CC(C)[C@H]([N-]C(=O)CC(=O)n1c(C([NH-])=O)cc2ccc(C(F)(F)F)cc21)C(=O)[O-] (optimized conformer: 77.06852528055616 kcal/mol)

>  <smiles>  (38) 
CC(C)C(NC(=O)CC(=O)n1c(C(N)=O)cc2ccc(C(F)(F)F)cc21)C(=O)O

>  <score_type>  (38) 
oracle

>  <origin>  (38) 
adg

>  <m_score__min__energy>  (38) 
-7.6500000000000004

>  <m_primary>  (38) 
energy

$$$$
39:0
     RDKit          3D

 51 52  0  0  0  0  0  0  0  0999 V2000
  141.5160  159.3470  135.8420 C   0  0  0  0  0  0  0  0  0  0  0  0
  141.8210  158.9390  134.3960 C   0  0  0  0  0  0  0  0  0  0  0  0
  140.8790  159.6440  133.4130 C   0  0  0  0  0  0  0  0  0  0  0  0
  143.2730  159.2050  134.0470 C   0  0  0  0  0  0  0  0  0  0  0  0
  143.7650  160.5370  134.0460 C   0  0  0  0  0  0  0  0  0  0  0  0
  145.1030  160.8100  133.7190 C   0  0  0  0  0  0  0  0  0  0  0  0
  145.9310  159.7360  133.4060 C   0  0  0  0  0  0  0  0  0  0  0  0
  147.2550  159.7190  133.0370 C   0  0  0  0  0  0  0  0  0  0  0  0
  147.5660  158.3750  132.8350 C   0  0  0  0  0  0  0  0  0  0  0  0
  148.9220  157.8910  132.5050 C   0  0  0  0  0  0  0  0  0  0  0  0
  149.2240  156.5020  132.6040 N   0  0  0  0  0  0  0  0  0  0  0  0
  149.8120  158.6870  132.1020 O   0  0  0  0  0  0  0  0  0  0  0  0
  146.4730  157.5940  133.0660 N   0  0  0  0  0  0  0  0  0  0  0  0
  146.3600  156.1730  132.8970 C   0  0  0  0  0  0  0  0  0  0  0  0
  146.5840  155.6540  131.7690 O   0  0  0  0  0  0  0  0  0  0  0  0
  146.0200  155.3690  133.9900 O   0  0  0  0  0  0  0  0  0  0  0  0
  146.8100  155.2930  135.1710 C   0  0  0  0  0  0  0  0  0  0  0  0
  148.0930  154.7630  134.8510 O   0  0  0  0  0  0  0  0  0  0  0  0
  148.3370  153.3920  134.7390 C   0  0  0  0  0  0  0  0  0  0  0  0
  148.5240  152.6880  135.7690 O   0  0  0  0  0  0  0  0  0  0  0  0
  148.3210  152.7520  133.3730 C   0  0  1  0  0  0  0  0  0  0  0  0
  148.1420  153.7710  132.3340 N   0  0  0  0  0  0  0  0  0  0  0  0
  149.6120  151.9280  133.1200 C   0  0  0  0  0  0  0  0  0  0  0  0
  149.6850  151.4500  131.6600 C   0  0  0  0  0  0  0  0  0  0  0  0
  149.7000  150.7110  134.0580 C   0  0  0  0  0  0  0  0  0  0  0  0
  145.4810  158.4420  133.4170 C   0  0  0  0  0  0  0  0  0  0  0  0
  144.1490  158.1410  133.7220 C   0  0  0  0  0  0  0  0  0  0  0  0
  142.0287  158.6611  136.5324 H   0  0  0  0  0  0  0  0  0  0  0  0
  141.8696  160.3741  136.0155 H   0  0  0  0  0  0  0  0  0  0  0  0
  140.4309  159.2986  136.0155 H   0  0  0  0  0  0  0  0  0  0  0  0
  141.6481  157.8561  134.3095 H   0  0  0  0  0  0  0  0  0  0  0  0
  140.1214  160.2110  133.9738 H   0  0  0  0  0  0  0  0  0  0  0  0
  141.4580  160.3325  132.7800 H   0  0  0  0  0  0  0  0  0  0  0  0
  140.3817  158.8943  132.7800 H   0  0  0  0  0  0  0  0  0  0  0  0
  143.0893  161.3656  134.3047 H   0  0  0  0  0  0  0  0  0  0  0  0
  145.4852  161.8414  133.7105 H   0  0  0  0  0  0  0  0  0  0  0  0
  147.9268  160.5827  132.9248 H   0  0  0  0  0  0  0  0  0  0  0  0
  148.5050  155.8190  132.9300 H   0  0  0  0  0  0  0  0  0  0  0  0
  146.9256  156.2992  135.6002 H   0  0  0  0  0  0  0  0  0  0  0  0
  146.3144  154.6372  135.9020 H   0  0  0  0  0  0  0  0  0  0  0  0
  147.4697  152.0565  133.3329 H   0  0  0  0  0  0  0  0  0  0  0  0
  148.0170  154.7100  132.7790 H   0  0  0  0  0  0  0  0  0  0  0  0
  147.2710  153.5560  131.7960 H   0  0  0  0  0  0  0  0  0  0  0  0
  150.4618  152.5951  133.3267 H   0  0  0  0  0  0  0  0  0  0  0  0
  149.8510  150.3628  131.6380 H   0  0  0  0  0  0  0  0  0  0  0  0
  148.7402  151.6871  131.1489 H   0  0  0  0  0  0  0  0  0  0  0  0
  150.5159  151.9582  131.1489 H   0  0  0  0  0  0  0  0  0  0  0  0
  149.6754  151.0515  135.1037 H   0  0  0  0  0  0  0  0  0  0  0  0
  148.8479  150.0411  133.8704 H   0  0  0  0  0  0  0  0  0  0  0  0
  150.6396  150.1706  133.8704 H   0  0  0  0  0  0  0  0  0  0  0  0
  143.7904  157.1012  133.7096 H   0  0  0  0  0  0  0  0  0  0  0  0
  1  2  1  0
  2  3  1  0
  2  4  1  0
  4  5  2  0
  5  6  1  0
  6  7  2  0
  7  8  1  0
  8  9  2  0
  9 10  1  0
 10 11  1  0
 10 12  2  0
  9 13  1  0
 13 14  1  0
 14 15  2  0
 14 16  1  0
 16 17  1  0
 17 18  1  0
 18 19  1  0
 19 20  2  0
 19 21  1  0
 21 22  1  0
 21 23  1  0
 23 24  1  0
 23 25  1  0
 13 26  1  0
 26 27  2  0
 27  4  1  0
 26  7  1  0
  1 28  1  0
  1 29  1  0
  1 30  1  0
  2 31  1  0
  3 32  1  0
  3 33  1  0
  3 34  1  0
  5 35  1  0
  6 36  1  0
  8 37  1  0
 11 38  1  0
 17 39  1  0
 17 40  1  0
 21 41  1  1
 22 42  1  0
 22 43  1  0
 23 44  1  0
 24 45  1  0
 24 46  1  0
 24 47  1  0
 25 48  1  0
 25 49  1  0
 25 50  1  0
 27 51  1  0
M  CHG  1  11  -1
M  END
>  <UniqueID>  (39) 
38

>  <SMILES>  (39) 
CC(C)c1ccc2cc(C([NH-])=O)n(C(=O)OCOC(=O)[C@@H](N)C(C)C)c2c1

>  <Energy>  (39) 
77.00251229572216

>  <Genealogy>  (39) 
CC(C)c1ccc2cc(C([NH-])=O)n(C(=O)OCOC(=O)C(N)C(C)C)c2c1 (protonated)
CC(C)c1ccc2cc(C([NH-])=O)n(C(=O)OCOC(=O)[C@@H](N)C(C)C)c2c1 (chirality)
CC(C)c1ccc2cc(C([NH-])=O)n(C(=O)OCOC(=O)[C@@H](N)C(C)C)c2c1 (3D coordinates assigned)
CC(C)c1ccc2cc(C([NH-])=O)n(C(=O)OCOC(=O)[C@@H](N)C(C)C)c2c1 (optimized conformer: 77.00251229572216 kcal/mol)

>  <smiles>  (39) 
CC(C)c1ccc2cc(C(N)=O)n(C(=O)OCOC(=O)C(N)C(C)C)c2c1

>  <score_type>  (39) 
oracle

>  <origin>  (39) 
adg

>  <m_score__min__energy>  (39) 
-7.3700000000000001

>  <m_primary>  (39) 
energy

$$$$
40:0
     RDKit          3D

 45 46  0  0  0  0  0  0  0  0999 V2000
  139.8490  156.1750  133.4210 C   0  0  0  0  0  0  0  0  0  0  0  0
  139.0240  157.2140  134.0560 N   0  0  0  0  0  0  0  0  0  0  0  0
  138.7330  158.2760  133.0760 C   0  0  0  0  0  0  0  0  0  0  0  0
  139.7250  157.7630  135.2340 C   0  0  0  0  0  0  0  0  0  0  0  0
  141.0360  158.2970  134.8450 C   0  0  0  0  0  0  0  0  0  0  0  0
  142.1130  158.7330  134.5240 C   0  0  0  0  0  0  0  0  0  0  0  0
  143.3990  159.2530  134.1410 C   0  0  0  0  0  0  0  0  0  0  0  0
  143.6060  160.6510  134.0900 C   0  0  0  0  0  0  0  0  0  0  0  0
  144.8540  161.1710  133.7050 C   0  0  0  0  0  0  0  0  0  0  0  0
  145.8660  160.2700  133.3870 C   0  0  0  0  0  0  0  0  0  0  0  0
  147.1540  160.5000  132.9640 C   0  0  0  0  0  0  0  0  0  0  0  0
  147.7170  159.2370  132.7850 C   0  0  0  0  0  0  0  0  0  0  0  0
  149.1320  159.0230  132.4160 C   0  0  0  0  0  0  0  0  0  0  0  0
  149.6220  157.6970  132.2280 N   0  0  0  0  0  0  0  0  0  0  0  0
  149.9050  159.9980  132.2270 O   0  0  0  0  0  0  0  0  0  0  0  0
  146.8080  158.2640  133.0780 N   0  0  0  0  0  0  0  0  0  0  0  0
  146.9690  156.8400  132.9660 C   0  0  0  0  0  0  0  0  0  0  0  0
  147.2960  156.3260  131.8630 O   0  0  0  0  0  0  0  0  0  0  0  0
  146.7360  156.0270  134.0800 O   0  0  0  0  0  0  0  0  0  0  0  0
  147.2220  154.6940  134.1770 C   0  0  0  0  0  0  0  0  0  0  0  0
  146.8240  154.1050  135.5230 C   0  0  0  0  0  0  0  0  0  0  0  0
  147.5270  154.7740  136.5430 O   0  0  0  0  0  0  0  0  0  0  0  0
  147.8450  153.6600  137.7950 P   0  0  0  0  0  0  0  0  0  0  0  0
  149.3250  153.3560  137.8560 O   0  0  0  0  0  0  0  0  0  0  0  0
  146.9820  152.2270  137.5400 O   0  0  0  0  0  0  0  0  0  0  0  0
  147.3610  154.3380  139.2660 O   0  0  0  0  0  0  0  0  0  0  0  0
  145.6810  158.9120  133.4480 C   0  0  0  0  0  0  0  0  0  0  0  0
  144.4420  158.3670  133.8100 C   0  0  0  0  0  0  0  0  0  0  0  0
  140.3331  155.5653  134.1982 H   0  0  0  0  0  0  0  0  0  0  0  0
  139.2121  155.5328  132.7950 H   0  0  0  0  0  0  0  0  0  0  0  0
  140.6188  156.6498  132.7950 H   0  0  0  0  0  0  0  0  0  0  0  0
  138.4784  159.2051  133.6070 H   0  0  0  0  0  0  0  0  0  0  0  0
  139.6179  158.4450  132.4449 H   0  0  0  0  0  0  0  0  0  0  0  0
  137.8855  157.9703  132.4449 H   0  0  0  0  0  0  0  0  0  0  0  0
  139.1201  158.5704  135.6723 H   0  0  0  0  0  0  0  0  0  0  0  0
  139.8709  156.9586  135.9700 H   0  0  0  0  0  0  0  0  0  0  0  0
  142.7859  161.3353  134.3530 H   0  0  0  0  0  0  0  0  0  0  0  0
  145.0254  162.2565  133.6566 H   0  0  0  0  0  0  0  0  0  0  0  0
  147.6379  161.4743  132.8013 H   0  0  0  0  0  0  0  0  0  0  0  0
  149.2680  157.0990  131.4480 H   0  0  0  0  0  0  0  0  0  0  0  0
  146.7893  154.0863  133.3686 H   0  0  0  0  0  0  0  0  0  0  0  0
  148.3184  154.6963  134.0877 H   0  0  0  0  0  0  0  0  0  0  0  0
  145.7422  154.2328  135.6759 H   0  0  0  0  0  0  0  0  0  0  0  0
  147.0681  153.0327  135.5457 H   0  0  0  0  0  0  0  0  0  0  0  0
  144.2885  157.2780  133.8349 H   0  0  0  0  0  0  0  0  0  0  0  0
  1  2  1  0
  2  3  1  0
  2  4  1  0
  4  5  1  0
  5  6  3  0
  6  7  1  0
  7  8  2  0
  8  9  1  0
  9 10  2  0
 10 11  1  0
 11 12  2  0
 12 13  1  0
 13 14  1  0
 13 15  2  0
 12 16  1  0
 16 17  1  0
 17 18  2  0
 17 19  1  0
 19 20  1  0
 20 21  1  0
 21 22  1  0
 22 23  1  0
 23 24  2  0
 23 25  1  0
 23 26  1  0
 16 27  1  0
 27 28  2  0
 28  7  1  0
 27 10  1  0
  1 29  1  0
  1 30  1  0
  1 31  1  0
  3 32  1  0
  3 33  1  0
  3 34  1  0
  4 35  1  0
  4 36  1  0
  8 37  1  0
  9 38  1  0
 11 39  1  0
 14 40  1  0
 20 41  1  0
 20 42  1  0
 21 43  1  0
 21 44  1  0
 28 45  1  0
M  CHG  3  14  -1  25  -1  26  -1
M  END
>  <UniqueID>  (40) 
39

>  <SMILES>  (40) 
CN(C)CC#Cc1ccc2cc(C([NH-])=O)n(C(=O)OCCOP(=O)([O-])[O-])c2c1

>  <Energy>  (40) 
73.42834620529354

>  <Genealogy>  (40) 
CN(C)CC#Cc1ccc2cc(C([NH-])=O)n(C(=O)OCCOP(=O)([O-])[O-])c2c1 (protonated)
CN(C)CC#Cc1ccc2cc(C([NH-])=O)n(C(=O)OCCOP(=O)([O-])[O-])c2c1 (3D coordinates assigned)
CN(C)CC#Cc1ccc2cc(C([NH-])=O)n(C(=O)OCCOP(=O)([O-])[O-])c2c1 (optimized conformer: 73.42834620529354 kcal/mol)

>  <smiles>  (40) 
CN(C)CC#Cc1ccc2cc(C(N)=O)n(C(=O)OCCOP(=O)(O)O)c2c1

>  <score_type>  (40) 
oracle

>  <origin>  (40) 
adg

>  <m_score__min__energy>  (40) 
-8.0999999999999996

>  <m_primary>  (40) 
energy

$$$$
41:0
     RDKit          3D

 35 36  0  0  0  0  0  0  0  0999 V2000
  148.0300  160.3590  131.1070 C   0  0  0  0  0  0  0  0  0  0  0  0
  148.5890  159.5340  131.9450 C   0  0  0  0  0  0  0  0  0  0  0  0
  149.9910  159.8320  132.1590 O   0  0  0  0  0  0  0  0  0  0  0  0
  148.1010  158.4170  132.6730 C   0  0  0  0  0  0  0  0  0  0  0  0
  149.0470  157.5540  132.9920 O   0  0  0  0  0  0  0  0  0  0  0  0
  146.8350  158.0320  133.1360 N   0  0  0  0  0  0  0  0  0  0  0  0
  146.1850  156.8700  133.1800 C   0  0  0  0  0  0  0  0  0  0  0  0
  146.7200  155.5110  133.1100 C   0  0  0  0  0  0  0  0  0  0  0  0
  147.6930  155.1680  132.0990 N   0  0  0  0  0  0  0  0  0  0  0  0
  146.4000  154.5740  133.8770 O   0  0  0  0  0  0  0  0  0  0  0  0
  144.8350  157.0460  133.5180 C   0  0  0  0  0  0  0  0  0  0  0  0
  144.6690  158.3680  133.6920 C   0  0  0  0  0  0  0  0  0  0  0  0
  143.5220  159.0770  134.0360 C   0  0  0  0  0  0  0  0  0  0  0  0
  143.5590  160.4430  134.1620 C   0  0  0  0  0  0  0  0  0  0  0  0
  144.7620  161.0710  133.9380 C   0  0  0  0  0  0  0  0  0  0  0  0
  144.8390  162.5070  134.0620 N   0  0  0  0  0  0  0  0  0  0  0  0
  145.8870  163.1000  134.8500 C   0  0  0  0  0  0  0  0  0  0  0  0
  143.8560  163.3330  133.3890 C   0  0  0  0  0  0  0  0  0  0  0  0
  145.9040  160.3530  133.5940 C   0  0  0  0  0  0  0  0  0  0  0  0
  145.8810  158.9670  133.4620 C   0  0  0  0  0  0  0  0  0  0  0  0
  146.9656  160.2477  130.8529 H   0  0  0  0  0  0  0  0  0  0  0  0
  148.6222  161.1673  130.6532 H   0  0  0  0  0  0  0  0  0  0  0  0
  150.4330  159.0690  132.6840 H   0  0  0  0  0  0  0  0  0  0  0  0
  148.5700  155.7230  131.9710 H   0  0  0  0  0  0  0  0  0  0  0  0
  147.4360  154.3330  131.5280 H   0  0  0  0  0  0  0  0  0  0  0  0
  144.0695  156.2627  133.6197 H   0  0  0  0  0  0  0  0  0  0  0  0
  142.5785  158.5384  134.2082 H   0  0  0  0  0  0  0  0  0  0  0  0
  142.6591  161.0150  134.4324 H   0  0  0  0  0  0  0  0  0  0  0  0
  145.6598  162.9714  135.9186 H   0  0  0  0  0  0  0  0  0  0  0  0
  146.8435  162.6093  134.6169 H   0  0  0  0  0  0  0  0  0  0  0  0
  145.9588  164.1726  134.6169 H   0  0  0  0  0  0  0  0  0  0  0  0
  143.2388  163.8516  134.1373 H   0  0  0  0  0  0  0  0  0  0  0  0
  144.3695  164.0747  132.7595 H   0  0  0  0  0  0  0  0  0  0  0  0
  143.2139  162.6994  132.7595 H   0  0  0  0  0  0  0  0  0  0  0  0
  146.8467  160.8933  133.4224 H   0  0  0  0  0  0  0  0  0  0  0  0
  1  2  2  0
  2  3  1  0
  2  4  1  0
  4  5  2  0
  4  6  1  0
  6  7  1  0
  7  8  1  0
  8  9  1  0
  8 10  2  0
  7 11  2  0
 11 12  1  0
 12 13  2  0
 13 14  1  0
 14 15  2  0
 15 16  1  0
 16 17  1  0
 16 18  1  0
 15 19  1  0
 19 20  2  0
 20  6  1  0
 20 12  1  0
  1 21  1  0
  1 22  1  0
  3 23  1  0
  9 24  1  0
  9 25  1  0
 11 26  1  0
 13 27  1  0
 14 28  1  0
 17 29  1  0
 17 30  1  0
 17 31  1  0
 18 32  1  0
 18 33  1  0
 18 34  1  0
 19 35  1  0
M  END
>  <smiles>  (41) 
C=C(O)C(=O)n1c(C(N)=O)cc2ccc(N(C)C)cc21

>  <score_type>  (41) 
oracle

>  <origin>  (41) 
adg

>  <m_score__min__energy>  (41) 
-6.5899999999999999

>  <m_primary>  (41) 
energy

$$$$
42:0
     RDKit          3D

 52 53  0  0  0  0  0  0  0  0999 V2000
  138.7490  149.2020  129.4150 C   0  0  0  0  0  0  0  0  0  0  0  0
  139.3740  149.9900  130.2950 C   0  0  0  0  0  0  0  0  0  0  0  0
  139.0730  149.9530  131.7730 C   0  0  0  0  0  0  0  0  0  0  0  0
  140.2930  149.6050  132.6600 C   0  0  1  0  0  0  0  0  0  0  0  0
  140.9420  148.2900  132.2880 C   0  0  0  0  0  0  0  0  0  0  0  0
  141.9040  147.8350  132.9630 O   0  0  0  0  0  0  0  0  0  0  0  0
  140.4010  147.5030  131.2800 O   0  0  0  0  0  0  0  0  0  0  0  0
  141.2820  150.7620  132.7200 C   0  0  0  0  0  0  0  0  0  0  0  0
  142.6760  150.4960  132.7230 C   0  0  0  0  0  0  0  0  0  0  0  0
  143.6070  151.5410  132.8310 C   0  0  0  0  0  0  0  0  0  0  0  0
  143.1240  152.8410  132.9390 C   0  0  0  0  0  0  0  0  0  0  0  0
  143.8020  154.0290  133.0880 C   0  0  0  0  0  0  0  0  0  0  0  0
  142.8150  155.0100  133.1700 C   0  0  0  0  0  0  0  0  0  0  0  0
  143.0970  156.4610  133.2440 C   0  0  0  0  0  0  0  0  0  0  0  0
  142.2990  157.3990  132.5180 N   0  0  0  0  0  0  0  0  0  0  0  0
  144.0280  156.8890  133.9760 O   0  0  0  0  0  0  0  0  0  0  0  0
  141.5760  154.4500  133.0780 N   0  0  0  0  0  0  0  0  0  0  0  0
  140.3020  155.1060  133.1880 C   0  0  0  0  0  0  0  0  0  0  0  0
  139.2400  154.4530  132.9930 O   0  0  0  0  0  0  0  0  0  0  0  0
  140.2480  156.4730  133.4830 O   0  0  0  0  0  0  0  0  0  0  0  0
  139.0720  157.1350  133.9430 C   0  0  0  0  0  0  0  0  0  0  0  0
  138.7690  158.3580  133.0680 C   0  0  0  0  0  0  0  0  0  0  0  0
  139.9760  159.3020  132.9310 C   0  0  0  0  0  0  0  0  0  0  0  0
  140.9020  159.0400  133.9750 O   0  0  0  0  0  0  0  0  0  0  0  0
  141.7290  160.1600  134.2030 C   0  0  0  0  0  0  0  0  0  0  0  0
  140.5970  159.0650  131.6820 O   0  0  0  0  0  0  0  0  0  0  0  0
  139.7030  159.3650  130.6320 C   0  0  0  0  0  0  0  0  0  0  0  0
  141.7830  153.1210  132.9350 C   0  0  0  0  0  0  0  0  0  0  0  0
  140.8320  152.0990  132.8440 C   0  0  0  0  0  0  0  0  0  0  0  0
  139.0009  149.2632  128.3460 H   0  0  0  0  0  0  0  0  0  0  0  0
  137.9826  148.4922  129.7597 H   0  0  0  0  0  0  0  0  0  0  0  0
  140.1369  150.6923  129.9278 H   0  0  0  0  0  0  0  0  0  0  0  0
  138.6988  150.9427  132.0738 H   0  0  0  0  0  0  0  0  0  0  0  0
  138.3330  149.1535  131.9252 H   0  0  0  0  0  0  0  0  0  0  0  0
  139.9129  149.4541  133.6812 H   0  0  0  0  0  0  0  0  0  0  0  0
  143.0313  149.4583  132.6397 H   0  0  0  0  0  0  0  0  0  0  0  0
  144.6880  151.3376  132.8302 H   0  0  0  0  0  0  0  0  0  0  0  0
  144.8915  154.1739  133.1329 H   0  0  0  0  0  0  0  0  0  0  0  0
  141.5560  157.0830  131.8570 H   0  0  0  0  0  0  0  0  0  0  0  0
  142.4790  158.4230  132.6120 H   0  0  0  0  0  0  0  0  0  0  0  0
  138.2225  156.4377  133.8977 H   0  0  0  0  0  0  0  0  0  0  0  0
  139.2328  157.4687  134.9788 H   0  0  0  0  0  0  0  0  0  0  0  0
  138.4781  158.0105  132.0657 H   0  0  0  0  0  0  0  0  0  0  0  0
  137.9588  158.9219  133.5533 H   0  0  0  0  0  0  0  0  0  0  0  0
  139.6438  160.3487  132.9944 H   0  0  0  0  0  0  0  0  0  0  0  0
  141.8444  160.3163  135.2857 H   0  0  0  0  0  0  0  0  0  0  0  0
  142.7162  159.9850  133.7505 H   0  0  0  0  0  0  0  0  0  0  0  0
  141.2712  161.0520  133.7505 H   0  0  0  0  0  0  0  0  0  0  0  0
  138.7392  159.6884  131.0522 H   0  0  0  0  0  0  0  0  0  0  0  0
  140.1222  160.1717  130.0127 H   0  0  0  0  0  0  0  0  0  0  0  0
  139.5508  158.4687  130.0127 H   0  0  0  0  0  0  0  0  0  0  0  0
  139.7566  152.3293  132.8683 H   0  0  0  0  0  0  0  0  0  0  0  0
  1  2  2  0
  2  3  1  0
  3  4  1  0
  4  5  1  0
  5  6  2  0
  5  7  1  0
  4  8  1  0
  8  9  2  0
  9 10  1  0
 10 11  2  0
 11 12  1  0
 12 13  2  0
 13 14  1  0
 14 15  1  0
 14 16  2  0
 13 17  1  0
 17 18  1  0
 18 19  2  0
 18 20  1  0
 20 21  1  0
 21 22  1  0
 22 23  1  0
 23 24  1  0
 24 25  1  0
 23 26  1  0
 26 27  1  0
 17 28  1  0
 28 29  2  0
 29  8  1  0
 28 11  1  0
  1 30  1  0
  1 31  1  0
  2 32  1  0
  3 33  1  0
  3 34  1  0
  4 35  1  1
  9 36  1  0
 10 37  1  0
 12 38  1  0
 15 39  1  0
 15 40  1  0
 21 41  1  0
 21 42  1  0
 22 43  1  0
 22 44  1  0
 23 45  1  0
 25 46  1  0
 25 47  1  0
 25 48  1  0
 27 49  1  0
 27 50  1  0
 27 51  1  0
 29 52  1  0
M  CHG  1   7  -1
M  END
>  <UniqueID>  (42) 
40

>  <SMILES>  (42) 
C=CC[C@@H](C(=O)[O-])c1ccc2cc(C(N)=O)n(C(=O)OCCC(OC)OC)c2c1

>  <Energy>  (42) 
89.28801728139445

>  <Genealogy>  (42) 
C=CCC(C(=O)[O-])c1ccc2cc(C(N)=O)n(C(=O)OCCC(OC)OC)c2c1 (protonated)
C=CC[C@@H](C(=O)[O-])c1ccc2cc(C(N)=O)n(C(=O)OCCC(OC)OC)c2c1 (chirality)
C=CC[C@@H](C(=O)[O-])c1ccc2cc(C(N)=O)n(C(=O)OCCC(OC)OC)c2c1 (3D coordinates assigned)
C=CC[C@@H](C(=O)[O-])c1ccc2cc(C(N)=O)n(C(=O)OCCC(OC)OC)c2c1 (optimized conformer: 89.28801728139445 kcal/mol)

>  <smiles>  (42) 
C=CCC(C(=O)O)c1ccc2cc(C(N)=O)n(C(=O)OCCC(OC)OC)c2c1

>  <score_type>  (42) 
oracle

>  <origin>  (42) 
adg

>  <m_score__min__energy>  (42) 
-7.4100000000000001

>  <m_primary>  (42) 
energy

$$$$
43:0
     RDKit          3D

 50 51  0  0  0  0  0  0  0  0999 V2000
  140.3120  148.4470  130.6610 C   0  0  0  0  0  0  0  0  0  0  0  0
  140.0610  149.0690  132.0370 C   0  0  0  0  0  0  0  0  0  0  0  0
  139.0990  150.2490  131.9230 C   0  0  0  0  0  0  0  0  0  0  0  0
  141.2900  149.5240  132.6020 O   0  0  0  0  0  0  0  0  0  0  0  0
  141.3690  150.5450  133.5560 C   0  0  0  0  0  0  0  0  0  0  0  0
  140.9840  150.3460  134.7410 O   0  0  0  0  0  0  0  0  0  0  0  0
  141.8750  151.7900  133.1720 O   0  0  0  0  0  0  0  0  0  0  0  0
  141.0470  152.8890  132.7940 C   0  0  0  0  0  0  0  0  0  0  0  0
  141.5560  154.2010  133.3940 C   0  0  0  0  0  0  0  0  0  0  0  0
  140.4770  154.9560  133.9430 O   0  0  0  0  0  0  0  0  0  0  0  0
  139.8830  156.0450  133.2950 C   0  0  0  0  0  0  0  0  0  0  0  0
  139.1230  155.8630  132.3050 O   0  0  0  0  0  0  0  0  0  0  0  0
  140.1490  157.3780  133.7550 N   0  0  0  0  0  0  0  0  0  0  0  0
  140.0020  158.5400  133.0600 C   0  0  0  0  0  0  0  0  0  0  0  0
  139.6870  158.6400  131.6170 C   0  0  0  0  0  0  0  0  0  0  0  0
  138.4840  158.0740  131.0910 N   0  0  0  0  0  0  0  0  0  0  0  0
  140.4670  159.2520  130.8400 O   0  0  0  0  0  0  0  0  0  0  0  0
  140.2730  159.6350  133.8800 C   0  0  0  0  0  0  0  0  0  0  0  0
  140.5870  159.1000  135.1080 C   0  0  0  0  0  0  0  0  0  0  0  0
  140.9170  159.7330  136.3000 C   0  0  0  0  0  0  0  0  0  0  0  0
  141.1550  158.9340  137.4300 C   0  0  0  0  0  0  0  0  0  0  0  0
  141.0540  157.5140  137.3630 C   0  0  0  0  0  0  0  0  0  0  0  0
  141.2850  156.6960  138.5410 N   0  0  0  0  0  0  0  0  0  0  0  0
  140.6450  155.3810  138.6760 C   0  0  0  0  0  0  0  0  0  0  0  0
  142.1690  157.1660  139.6160 C   0  0  0  0  0  0  0  0  0  0  0  0
  140.7180  156.9150  136.1200 C   0  0  0  0  0  0  0  0  0  0  0  0
  140.5040  157.7370  135.0090 C   0  0  0  0  0  0  0  0  0  0  0  0
  140.7210  147.4335  130.7858 H   0  0  0  0  0  0  0  0  0  0  0  0
  139.3648  148.3942  130.1042 H   0  0  0  0  0  0  0  0  0  0  0  0
  141.0306  149.0664  130.1042 H   0  0  0  0  0  0  0  0  0  0  0  0
  139.6174  148.2993  132.6857 H   0  0  0  0  0  0  0  0  0  0  0  0
  138.8190  150.5924  132.9298 H   0  0  0  0  0  0  0  0  0  0  0  0
  139.5885  151.0699  131.3785 H   0  0  0  0  0  0  0  0  0  0  0  0
  138.1963  149.9349  131.3785 H   0  0  0  0  0  0  0  0  0  0  0  0
  141.0433  152.9742  131.6973 H   0  0  0  0  0  0  0  0  0  0  0  0
  140.0311  152.7048  133.1736 H   0  0  0  0  0  0  0  0  0  0  0  0
  142.2816  153.9768  134.1898 H   0  0  0  0  0  0  0  0  0  0  0  0
  142.0330  154.7924  132.5985 H   0  0  0  0  0  0  0  0  0  0  0  0
  138.2550  158.1830  130.0780 H   0  0  0  0  0  0  0  0  0  0  0  0
  137.8410  157.5100  131.6890 H   0  0  0  0  0  0  0  0  0  0  0  0
  140.2422  160.6993  133.6039 H   0  0  0  0  0  0  0  0  0  0  0  0
  140.9898  160.8291  136.3569 H   0  0  0  0  0  0  0  0  0  0  0  0
  141.4240  159.4124  138.3833 H   0  0  0  0  0  0  0  0  0  0  0  0
  140.5269  155.1384  139.7424 H   0  0  0  0  0  0  0  0  0  0  0  0
  139.6568  155.4029  138.1933 H   0  0  0  0  0  0  0  0  0  0  0  0
  141.2719  154.6168  138.1933 H   0  0  0  0  0  0  0  0  0  0  0  0
  141.7195  156.9270  140.5911 H   0  0  0  0  0  0  0  0  0  0  0  0
  143.1463  156.6684  139.5309 H   0  0  0  0  0  0  0  0  0  0  0  0
  142.3031  158.2545  139.5309 H   0  0  0  0  0  0  0  0  0  0  0  0
  140.6275  155.8222  136.0325 H   0  0  0  0  0  0  0  0  0  0  0  0
  1  2  1  0
  2  3  1  0
  2  4  1  0
  4  5  1  0
  5  6  2  0
  5  7  1  0
  7  8  1  0
  8  9  1  0
  9 10  1  0
 10 11  1  0
 11 12  2  0
 11 13  1  0
 13 14  1  0
 14 15  1  0
 15 16  1  0
 15 17  2  0
 14 18  2  0
 18 19  1  0
 19 20  2  0
 20 21  1  0
 21 22  2  0
 22 23  1  0
 23 24  1  0
 23 25  1  0
 22 26  1  0
 26 27  2  0
 27 13  1  0
 27 19  1  0
  1 28  1  0
  1 29  1  0
  1 30  1  0
  2 31  1  0
  3 32  1  0
  3 33  1  0
  3 34  1  0
  8 35  1  0
  8 36  1  0
  9 37  1  0
  9 38  1  0
 16 39  1  0
 16 40  1  0
 18 41  1  0
 20 42  1  0
 21 43  1  0
 24 44  1  0
 24 45  1  0
 24 46  1  0
 25 47  1  0
 25 48  1  0
 25 49  1  0
 26 50  1  0
M  END
>  <UniqueID>  (43) 
41

>  <SMILES>  (43) 
CC(C)OC(=O)OCCOC(=O)n1c(C(N)=O)cc2ccc(N(C)C)cc21

>  <Energy>  (43) 
77.91543623706025

>  <Genealogy>  (43) 
CC(C)OC(=O)OCCOC(=O)n1c(C(N)=O)cc2ccc(N(C)C)cc21 (3D coordinates assigned)
CC(C)OC(=O)OCCOC(=O)n1c(C(N)=O)cc2ccc(N(C)C)cc21 (optimized conformer: 77.91543623706025 kcal/mol)

>  <smiles>  (43) 
CC(C)OC(=O)OCCOC(=O)n1c(C(N)=O)cc2ccc(N(C)C)cc21

>  <score_type>  (43) 
oracle

>  <origin>  (43) 
adg

>  <m_score__min__energy>  (43) 
-7.0999999999999996

>  <m_primary>  (43) 
energy

$$$$
44:0
     RDKit          3D

 35 36  0  0  0  0  0  0  0  0999 V2000
  149.6260  160.5560  129.4170 C   0  0  0  0  0  0  0  0  0  0  0  0
  149.4480  160.6990  130.9290 C   0  0  1  0  0  0  0  0  0  0  0  0
  148.4580  161.6520  131.2100 O   0  0  0  0  0  0  0  0  0  0  0  0
  149.0450  159.3850  131.5230 C   0  0  0  0  0  0  0  0  0  0  0  0
  149.9310  158.5350  131.8150 O   0  0  0  0  0  0  0  0  0  0  0  0
  147.6840  159.1100  131.7150 O   0  0  0  0  0  0  0  0  0  0  0  0
  146.9960  159.2430  132.9280 C   0  0  0  0  0  0  0  0  0  0  0  0
  147.1470  160.2700  133.6460 O   0  0  0  0  0  0  0  0  0  0  0  0
  146.1110  158.1970  133.3610 N   0  0  0  0  0  0  0  0  0  0  0  0
  146.3990  156.8730  133.5070 C   0  0  0  0  0  0  0  0  0  0  0  0
  147.7370  156.2600  133.3980 C   0  0  0  0  0  0  0  0  0  0  0  0
  148.5480  156.4550  132.2380 N   0  0  0  0  0  0  0  0  0  0  0  0
  148.1960  155.5980  134.3670 O   0  0  0  0  0  0  0  0  0  0  0  0
  145.2520  156.1530  133.8310 C   0  0  0  0  0  0  0  0  0  0  0  0
  144.2440  157.0870  133.8950 C   0  0  0  0  0  0  0  0  0  0  0  0
  142.8870  156.9210  134.1550 C   0  0  0  0  0  0  0  0  0  0  0  0
  142.0630  158.0570  134.1110 C   0  0  0  0  0  0  0  0  0  0  0  0
  142.6040  159.3360  133.8160 C   0  0  0  0  0  0  0  0  0  0  0  0
  141.7000  160.5360  133.7060 C   0  0  0  0  0  0  0  0  0  0  0  0
  142.4570  161.6510  133.3970 F   0  0  0  0  0  0  0  0  0  0  0  0
  140.7520  160.3450  132.7150 F   0  0  0  0  0  0  0  0  0  0  0  0
  141.0360  160.7590  134.9010 F   0  0  0  0  0  0  0  0  0  0  0  0
  143.9840  159.4580  133.5300 C   0  0  0  0  0  0  0  0  0  0  0  0
  144.7870  158.3130  133.6050 C   0  0  0  0  0  0  0  0  0  0  0  0
  150.4681  159.8795  129.2093 H   0  0  0  0  0  0  0  0  0  0  0  0
  148.7065  160.1426  128.9770 H   0  0  0  0  0  0  0  0  0  0  0  0
  149.8315  161.5430  128.9770 H   0  0  0  0  0  0  0  0  0  0  0  0
  150.4041  161.0238  131.3652 H   0  0  0  0  0  0  0  0  0  0  0  0
  147.8080  161.2180  131.8230 H   0  0  0  0  0  0  0  0  0  0  0  0
  149.4760  155.9820  132.1620 H   0  0  0  0  0  0  0  0  0  0  0  0
  148.2720  157.1330  131.4960 H   0  0  0  0  0  0  0  0  0  0  0  0
  145.1695  155.0691  133.9997 H   0  0  0  0  0  0  0  0  0  0  0  0
  142.4722  155.9292  134.3881 H   0  0  0  0  0  0  0  0  0  0  0  0
  140.9855  157.9548  134.3074 H   0  0  0  0  0  0  0  0  0  0  0  0
  144.4170  160.4310  133.2547 H   0  0  0  0  0  0  0  0  0  0  0  0
  1  2  1  0
  2  3  1  0
  2  4  1  0
  4  5  2  0
  4  6  1  0
  6  7  1  0
  7  8  2  0
  7  9  1  0
  9 10  1  0
 10 11  1  0
 11 12  1  0
 11 13  2  0
 10 14  2  0
 14 15  1  0
 15 16  2  0
 16 17  1  0
 17 18  2  0
 18 19  1  0
 19 20  1  0
 19 21  1  0
 19 22  1  0
 18 23  1  0
 23 24  2  0
 24  9  1  0
 24 15  1  0
  1 25  1  0
  1 26  1  0
  1 27  1  0
  2 28  1  1
  3 29  1  0
 12 30  1  0
 12 31  1  0
 14 32  1  0
 16 33  1  0
 17 34  1  0
 23 35  1  0
M  END
>  <UniqueID>  (44) 
42

>  <SMILES>  (44) 
C[C@@H](O)C(=O)OC(=O)n1c(C(N)=O)cc2ccc(C(F)(F)F)cc21

>  <Energy>  (44) 
72.2765067079292

>  <Genealogy>  (44) 
C[C@@H](O)C(=O)OC(=O)n1c(C(N)=O)cc2ccc(C(F)(F)F)cc21 (chirality)
C[C@@H](O)C(=O)OC(=O)n1c(C(N)=O)cc2ccc(C(F)(F)F)cc21 (3D coordinates assigned)
C[C@@H](O)C(=O)OC(=O)n1c(C(N)=O)cc2ccc(C(F)(F)F)cc21 (optimized conformer: 72.2765067079292 kcal/mol)

>  <smiles>  (44) 
CC(O)C(=O)OC(=O)n1c(C(N)=O)cc2ccc(C(F)(F)F)cc21

>  <score_type>  (44) 
oracle

>  <origin>  (44) 
adg

>  <m_score__min__energy>  (44) 
-6.1699999999999999

>  <m_primary>  (44) 
energy

$$$$
45:0
     RDKit          3D

 37 38  0  0  0  0  0  0  0  0999 V2000
  144.0010  154.6970  132.0070 C   0  0  0  0  0  0  0  0  0  0  0  0
  144.3280  153.6700  133.0140 N   0  0  1  0  0  0  0  0  0  0  0  0
  145.7120  153.1600  132.8760 C   0  0  0  0  0  0  0  0  0  0  0  0
  145.7860  151.7560  132.3380 C   0  0  0  0  0  0  0  0  0  0  0  0
  144.7430  151.0610  132.2260 O   0  0  0  0  0  0  0  0  0  0  0  0
  147.0120  151.2170  131.9690 O   0  0  0  0  0  0  0  0  0  0  0  0
  144.0710  154.1450  134.3600 C   0  0  0  0  0  0  0  0  0  0  0  0
  145.0100  154.6250  135.0550 O   0  0  0  0  0  0  0  0  0  0  0  0
  142.7230  154.0430  134.9610 C   0  0  0  0  0  0  0  0  0  0  0  0
  142.5680  153.4920  136.0830 O   0  0  0  0  0  0  0  0  0  0  0  0
  141.5790  154.5630  134.2690 N   0  0  0  0  0  0  0  0  0  0  0  0
  140.7740  153.9130  133.3840 C   0  0  0  0  0  0  0  0  0  0  0  0
  140.9810  152.5410  132.8710 C   0  0  0  0  0  0  0  0  0  0  0  0
  142.2870  151.9800  132.7790 N   0  0  0  0  0  0  0  0  0  0  0  0
  139.9920  151.8620  132.4880 O   0  0  0  0  0  0  0  0  0  0  0  0
  139.7260  154.7410  132.9820 C   0  0  0  0  0  0  0  0  0  0  0  0
  139.9170  155.9250  133.6590 C   0  0  0  0  0  0  0  0  0  0  0  0
  139.1550  157.0890  133.6610 C   0  0  0  0  0  0  0  0  0  0  0  0
  139.5700  158.1450  134.4910 C   0  0  0  0  0  0  0  0  0  0  0  0
  140.7370  158.0260  135.2910 C   0  0  0  0  0  0  0  0  0  0  0  0
  141.1350  159.1410  136.2240 C   0  0  0  0  0  0  0  0  0  0  0  0
  140.7070  160.3470  135.7020 F   0  0  0  0  0  0  0  0  0  0  0  0
  142.5090  159.1790  136.3830 F   0  0  0  0  0  0  0  0  0  0  0  0
  140.5610  158.9600  137.4710 F   0  0  0  0  0  0  0  0  0  0  0  0
  141.4670  156.8160  135.2780 C   0  0  0  0  0  0  0  0  0  0  0  0
  141.0400  155.7890  134.4300 C   0  0  0  0  0  0  0  0  0  0  0  0
  143.7049  155.6269  132.5145 H   0  0  0  0  0  0  0  0  0  0  0  0
  144.8829  154.8875  131.3778 H   0  0  0  0  0  0  0  0  0  0  0  0
  143.1713  154.3425  131.3778 H   0  0  0  0  0  0  0  0  0  0  0  0
  143.6880  152.8650  132.8170 H   0  0  0  0  0  0  0  0  0  0  0  0
  146.2607  153.8240  132.1918 H   0  0  0  0  0  0  0  0  0  0  0  0
  146.1515  153.1427  133.8843 H   0  0  0  0  0  0  0  0  0  0  0  0
  142.8940  152.1610  131.9480 H   0  0  0  0  0  0  0  0  0  0  0  0
  138.9188  154.4997  132.2748 H   0  0  0  0  0  0  0  0  0  0  0  0
  138.2564  157.1801  133.0331 H   0  0  0  0  0  0  0  0  0  0  0  0
  138.9834  159.0750  134.5210 H   0  0  0  0  0  0  0  0  0  0  0  0
  142.3506  156.6849  135.9200 H   0  0  0  0  0  0  0  0  0  0  0  0
  1  2  1  0
  2  3  1  0
  3  4  1  0
  4  5  2  0
  4  6  1  0
  2  7  1  0
  7  8  2  0
  7  9  1  0
  9 10  2  0
  9 11  1  0
 11 12  1  0
 12 13  1  0
 13 14  1  0
 13 15  2  0
 12 16  2  0
 16 17  1  0
 17 18  2  0
 18 19  1  0
 19 20  2  0
 20 21  1  0
 21 22  1  0
 21 23  1  0
 21 24  1  0
 20 25  1  0
 25 26  2  0
 26 11  1  0
 26 17  1  0
  1 27  1  0
  1 28  1  0
  1 29  1  0
  2 30  1  6
  3 31  1  0
  3 32  1  0
 14 33  1  0
 16 34  1  0
 18 35  1  0
 19 36  1  0
 25 37  1  0
M  CHG  3   2   1   6  -1  14  -1
M  END
>  <UniqueID>  (45) 
43

>  <SMILES>  (45) 
C[N@@H+](CC(=O)[O-])C(=O)C(=O)n1c(C([NH-])=O)cc2ccc(C(F)(F)F)cc21

>  <Energy>  (45) 
80.96918959608881

>  <Genealogy>  (45) 
C[NH+](CC(=O)[O-])C(=O)C(=O)n1c(C([NH-])=O)cc2ccc(C(F)(F)F)cc21 (protonated)
C[N@@H+](CC(=O)[O-])C(=O)C(=O)n1c(C([NH-])=O)cc2ccc(C(F)(F)F)cc21 (chirality)
C[N@@H+](CC(=O)[O-])C(=O)C(=O)n1c(C([NH-])=O)cc2ccc(C(F)(F)F)cc21 (3D coordinates assigned)
C[N@@H+](CC(=O)[O-])C(=O)C(=O)n1c(C([NH-])=O)cc2ccc(C(F)(F)F)cc21 (optimized conformer: 80.96918959608881 kcal/mol)

>  <smiles>  (45) 
CN(CC(=O)O)C(=O)C(=O)n1c(C(N)=O)cc2ccc(C(F)(F)F)cc21

>  <score_type>  (45) 
oracle

>  <origin>  (45) 
adg

>  <m_score__min__energy>  (45) 
-6.0499999999999998

>  <m_primary>  (45) 
energy

$$$$
46:0
     RDKit          3D

 43 44  0  0  0  0  0  0  0  0999 V2000
  149.2460  161.9920  130.3530 C   0  0  0  0  0  0  0  0  0  0  0  0
  149.0020  160.6810  131.0400 C   0  0  0  0  0  0  0  0  0  0  0  0
  149.9870  159.6650  130.9940 C   0  0  0  0  0  0  0  0  0  0  0  0
  149.7840  158.4410  131.6510 C   0  0  0  0  0  0  0  0  0  0  0  0
  148.5980  158.2710  132.3610 C   0  0  0  0  0  0  0  0  0  0  0  0
  148.1410  157.1860  133.0720 C   0  0  0  0  0  0  0  0  0  0  0  0
  146.9000  157.5690  133.5760 C   0  0  0  0  0  0  0  0  0  0  0  0
  146.0960  156.7230  134.4820 C   0  0  0  0  0  0  0  0  0  0  0  0
  144.6720  156.7730  134.4230 N   0  0  0  0  0  0  0  0  0  0  0  0
  146.6510  155.9270  135.2850 O   0  0  0  0  0  0  0  0  0  0  0  0
  146.5970  158.8390  133.1840 N   0  0  0  0  0  0  0  0  0  0  0  0
  145.3950  159.5830  133.4430 C   0  0  0  0  0  0  0  0  0  0  0  0
  145.4410  160.6430  134.1250 O   0  0  0  0  0  0  0  0  0  0  0  0
  144.1720  159.1070  132.9640 O   0  0  0  0  0  0  0  0  0  0  0  0
  142.9170  159.6430  133.3660 C   0  0  0  0  0  0  0  0  0  0  0  0
  142.1570  158.6010  134.1150 C   0  0  0  0  0  0  0  0  0  0  0  0
  142.3070  158.4970  135.3610 O   0  0  0  0  0  0  0  0  0  0  0  0
  141.3220  157.7250  133.4020 O   0  0  0  0  0  0  0  0  0  0  0  0
  139.8910  157.6700  133.4700 C   0  0  0  0  0  0  0  0  0  0  0  0
  139.2610  158.7220  132.5370 C   0  0  0  0  0  0  0  0  0  0  0  0
  139.4700  156.2700  132.9950 C   0  0  0  0  0  0  0  0  0  0  0  0
  139.4090  157.8700  134.9190 C   0  0  0  0  0  0  0  0  0  0  0  0
  147.6480  159.2570  132.4430 C   0  0  0  0  0  0  0  0  0  0  0  0
  147.8180  160.4800  131.7810 C   0  0  0  0  0  0  0  0  0  0  0  0
  149.3926  162.7794  131.1070 H   0  0  0  0  0  0  0  0  0  0  0  0
  150.1452  161.9146  129.7241 H   0  0  0  0  0  0  0  0  0  0  0  0
  148.3792  162.2433  129.7241 H   0  0  0  0  0  0  0  0  0  0  0  0
  150.9205  159.8363  130.4380 H   0  0  0  0  0  0  0  0  0  0  0  0
  150.5380  157.6413  131.6064 H   0  0  0  0  0  0  0  0  0  0  0  0
  148.6481  156.2201  133.2129 H   0  0  0  0  0  0  0  0  0  0  0  0
  144.1600  157.6700  134.5760 H   0  0  0  0  0  0  0  0  0  0  0  0
  143.0805  160.5166  134.0142 H   0  0  0  0  0  0  0  0  0  0  0  0
  142.3452  159.9516  132.4785 H   0  0  0  0  0  0  0  0  0  0  0  0
  138.7884  159.5111  133.1403 H   0  0  0  0  0  0  0  0  0  0  0  0
  140.0429  159.1644  131.9023 H   0  0  0  0  0  0  0  0  0  0  0  0
  138.5019  158.2415  131.9023 H   0  0  0  0  0  0  0  0  0  0  0  0
  139.2773  155.6292  133.8680 H   0  0  0  0  0  0  0  0  0  0  0  0
  138.5556  156.3482  132.3885 H   0  0  0  0  0  0  0  0  0  0  0  0
  140.2758  155.8309  132.3885 H   0  0  0  0  0  0  0  0  0  0  0  0
  140.1955  157.5437  135.6154 H   0  0  0  0  0  0  0  0  0  0  0  0
  139.1878  158.9342  135.0883 H   0  0  0  0  0  0  0  0  0  0  0  0
  138.4994  157.2750  135.0883 H   0  0  0  0  0  0  0  0  0  0  0  0
  147.0481  161.2636  131.8374 H   0  0  0  0  0  0  0  0  0  0  0  0
  1  2  1  0
  2  3  2  0
  3  4  1  0
  4  5  2  0
  5  6  1  0
  6  7  2  0
  7  8  1  0
  8  9  1  0
  8 10  2  0
  7 11  1  0
 11 12  1  0
 12 13  2  0
 12 14  1  0
 14 15  1  0
 15 16  1  0
 16 17  2  0
 16 18  1  0
 18 19  1  0
 19 20  1  0
 19 21  1  0
 19 22  1  0
 11 23  1  0
 23 24  2  0
 24  2  1  0
 23  5  1  0
  1 25  1  0
  1 26  1  0
  1 27  1  0
  3 28  1  0
  4 29  1  0
  6 30  1  0
  9 31  1  0
 15 32  1  0
 15 33  1  0
 20 34  1  0
 20 35  1  0
 20 36  1  0
 21 37  1  0
 21 38  1  0
 21 39  1  0
 22 40  1  0
 22 41  1  0
 22 42  1  0
 24 43  1  0
M  CHG  1   9  -1
M  END
>  <UniqueID>  (46) 
44

>  <SMILES>  (46) 
Cc1ccc2cc(C([NH-])=O)n(C(=O)OCC(=O)OC(C)(C)C)c2c1

>  <Energy>  (46) 
71.70043268511459

>  <Genealogy>  (46) 
Cc1ccc2cc(C([NH-])=O)n(C(=O)OCC(=O)OC(C)(C)C)c2c1 (protonated)
Cc1ccc2cc(C([NH-])=O)n(C(=O)OCC(=O)OC(C)(C)C)c2c1 (3D coordinates assigned)
Cc1ccc2cc(C([NH-])=O)n(C(=O)OCC(=O)OC(C)(C)C)c2c1 (optimized conformer: 71.70043268511459 kcal/mol)

>  <smiles>  (46) 
Cc1ccc2cc(C(N)=O)n(C(=O)OCC(=O)OC(C)(C)C)c2c1

>  <score_type>  (46) 
oracle

>  <origin>  (46) 
adg

>  <m_score__min__energy>  (46) 
-6.7699999999999996

>  <m_primary>  (46) 
energy

$$$$
47:0
     RDKit          3D

 50 52  0  0  0  0  0  0  0  0999 V2000
  138.7780  149.4770  129.1910 C   0  0  0  0  0  0  0  0  0  0  0  0
  138.6910  148.4810  130.0760 C   0  0  0  0  0  0  0  0  0  0  0  0
  139.8330  148.0500  130.9130 C   0  0  0  0  0  0  0  0  0  0  0  0
  140.2090  146.8460  130.8880 O   0  0  0  0  0  0  0  0  0  0  0  0
  140.5540  148.9970  131.7250 N   0  0  0  0  0  0  0  0  0  0  0  0
  141.8650  148.6400  132.3010 C   0  0  0  0  0  0  0  0  0  0  0  0
  142.9560  149.6800  131.9710 C   0  0  0  0  0  0  0  0  0  0  0  0
  143.0460  150.8740  132.9360 C   0  0  0  0  0  0  0  0  0  0  0  0
  141.8500  151.7490  132.8850 N   0  0  0  0  0  0  0  0  0  0  0  0
  142.2410  153.1740  132.9900 C   0  0  0  0  0  0  0  0  0  0  0  0
  141.0590  154.0140  133.3770 C   0  0  0  0  0  0  0  0  0  0  0  0
  139.9290  153.7590  132.8780 O   0  0  0  0  0  0  0  0  0  0  0  0
  141.1900  155.0770  134.3330 N   0  0  0  0  0  0  0  0  0  0  0  0
  141.6710  155.0130  135.6080 C   0  0  0  0  0  0  0  0  0  0  0  0
  142.2710  153.8270  136.2550 C   0  0  0  0  0  0  0  0  0  0  0  0
  143.3880  153.9830  137.1290 N   0  0  0  0  0  0  0  0  0  0  0  0
  141.8250  152.6680  136.0270 O   0  0  0  0  0  0  0  0  0  0  0  0
  141.6300  156.2720  136.2030 C   0  0  0  0  0  0  0  0  0  0  0  0
  141.1200  157.1170  135.2410 C   0  0  0  0  0  0  0  0  0  0  0  0
  140.8700  158.4840  135.2870 C   0  0  0  0  0  0  0  0  0  0  0  0
  140.3380  159.0990  134.1400 C   0  0  0  0  0  0  0  0  0  0  0  0
  140.0880  158.3460  132.9620 C   0  0  0  0  0  0  0  0  0  0  0  0
  139.4580  159.0010  131.7610 C   0  0  0  0  0  0  0  0  0  0  0  0
  138.4510  158.2010  131.2420 F   0  0  0  0  0  0  0  0  0  0  0  0
  138.9090  160.2250  132.1040 F   0  0  0  0  0  0  0  0  0  0  0  0
  140.4240  159.1950  130.7900 F   0  0  0  0  0  0  0  0  0  0  0  0
  140.3470  156.9560  132.9610 C   0  0  0  0  0  0  0  0  0  0  0  0
  140.8690  156.3720  134.1210 C   0  0  0  0  0  0  0  0  0  0  0  0
  140.9280  151.5000  131.7420 C   0  0  0  0  0  0  0  0  0  0  0  0
  139.9450  150.3260  131.9420 C   0  0  0  0  0  0  0  0  0  0  0  0
  137.8993  149.7593  128.5925 H   0  0  0  0  0  0  0  0  0  0  0  0
  139.7284  150.0153  129.0604 H   0  0  0  0  0  0  0  0  0  0  0  0
  137.7295  147.9585  130.1878 H   0  0  0  0  0  0  0  0  0  0  0  0
  141.7632  148.5697  133.3940 H   0  0  0  0  0  0  0  0  0  0  0  0
  142.1736  147.6798  131.8620 H   0  0  0  0  0  0  0  0  0  0  0  0
  143.9280  149.1651  131.9773 H   0  0  0  0  0  0  0  0  0  0  0  0
  142.6844  150.1025  130.9923 H   0  0  0  0  0  0  0  0  0  0  0  0
  143.1561  150.4895  133.9607 H   0  0  0  0  0  0  0  0  0  0  0  0
  143.9116  151.4803  132.6309 H   0  0  0  0  0  0  0  0  0  0  0  0
  143.0258  153.2791  133.7535 H   0  0  0  0  0  0  0  0  0  0  0  0
  142.6157  153.5140  132.0133 H   0  0  0  0  0  0  0  0  0  0  0  0
  143.7170  154.9300  137.4160 H   0  0  0  0  0  0  0  0  0  0  0  0
  141.9394  156.5360  137.2250 H   0  0  0  0  0  0  0  0  0  0  0  0
  141.0824  159.0677  136.1949 H   0  0  0  0  0  0  0  0  0  0  0  0
  140.1128  160.1756  134.1552 H   0  0  0  0  0  0  0  0  0  0  0  0
  140.1427  156.3469  132.0681 H   0  0  0  0  0  0  0  0  0  0  0  0
  140.3390  152.4135  131.5731 H   0  0  0  0  0  0  0  0  0  0  0  0
  141.5640  151.2270  130.8871 H   0  0  0  0  0  0  0  0  0  0  0  0
  139.5596  150.3674  132.9715 H   0  0  0  0  0  0  0  0  0  0  0  0
  139.1497  150.4414  131.1909 H   0  0  0  0  0  0  0  0  0  0  0  0
  1  2  2  0
  2  3  1  0
  3  4  2  0
  3  5  1  0
  5  6  1  0
  6  7  1  0
  7  8  1  0
  8  9  1  0
  9 10  1  0
 10 11  1  0
 11 12  2  0
 11 13  1  0
 13 14  1  0
 14 15  1  0
 15 16  1  0
 15 17  2  0
 14 18  2  0
 18 19  1  0
 19 20  2  0
 20 21  1  0
 21 22  2  0
 22 23  1  0
 23 24  1  0
 23 25  1  0
 23 26  1  0
 22 27  1  0
 27 28  2  0
  9 29  1  0
 29 30  1  0
 30  5  1  0
 28 13  1  0
 28 19  1  0
  1 31  1  0
  1 32  1  0
  2 33  1  0
  6 34  1  0
  6 35  1  0
  7 36  1  0
  7 37  1  0
  8 38  1  0
  8 39  1  0
 10 40  1  0
 10 41  1  0
 16 42  1  0
 18 43  1  0
 20 44  1  0
 21 45  1  0
 27 46  1  0
 29 47  1  0
 29 48  1  0
 30 49  1  0
 30 50  1  0
M  CHG  1  16  -1
M  END
>  <UniqueID>  (47) 
45

>  <SMILES>  (47) 
C=CC(=O)N1CCCN(CC(=O)n2c(C([NH-])=O)cc3ccc(C(F)(F)F)cc32)CC1

>  <Energy>  (47) 
106.11625519332243

>  <Genealogy>  (47) 
C=CC(=O)N1CCCN(CC(=O)n2c(C([NH-])=O)cc3ccc(C(F)(F)F)cc32)CC1 (protonated)
C=CC(=O)N1CCCN(CC(=O)n2c(C([NH-])=O)cc3ccc(C(F)(F)F)cc32)CC1 (3D coordinates assigned)
C=CC(=O)N1CCCN(CC(=O)n2c(C([NH-])=O)cc3ccc(C(F)(F)F)cc32)CC1 (nonaromatic ring conformer: 106.11625519332243 kcal/mol)

>  <smiles>  (47) 
C=CC(=O)N1CCCN(CC(=O)n2c(C(N)=O)cc3ccc(C(F)(F)F)cc32)CC1

>  <score_type>  (47) 
oracle

>  <origin>  (47) 
adg

>  <m_score__min__energy>  (47) 
-6.0099999999999998

>  <m_primary>  (47) 
energy

$$$$
48:0
     RDKit          3D

 62 64  0  0  0  0  0  0  0  0999 V2000
  146.2020  153.4810  133.5840 C   0  0  0  0  0  0  0  0  0  0  0  0
  145.5850  154.3900  134.6490 C   0  0  2  0  0  0  0  0  0  0  0  0
  146.1950  155.7190  134.5860 N   0  0  0  0  0  0  0  0  0  0  0  0
  147.3300  156.0750  133.7860 C   0  0  0  0  0  0  0  0  0  0  0  0
  148.4390  155.5370  134.0460 O   0  0  0  0  0  0  0  0  0  0  0  0
  147.2480  157.0740  132.6970 C   0  0  0  0  0  0  0  0  0  0  0  0
  147.4050  156.7230  131.4980 O   0  0  0  0  0  0  0  0  0  0  0  0
  146.9730  158.4550  132.9870 N   0  0  0  0  0  0  0  0  0  0  0  0
  147.8110  159.5140  132.8140 C   0  0  0  0  0  0  0  0  0  0  0  0
  149.2240  159.4410  132.3920 C   0  0  0  0  0  0  0  0  0  0  0  0
  149.9760  158.2330  132.5160 N   0  0  0  0  0  0  0  0  0  0  0  0
  149.7920  160.4740  131.9500 O   0  0  0  0  0  0  0  0  0  0  0  0
  147.1470  160.7110  133.0770 C   0  0  0  0  0  0  0  0  0  0  0  0
  145.8620  160.3480  133.4120 C   0  0  0  0  0  0  0  0  0  0  0  0
  144.7680  161.1390  133.7440 C   0  0  0  0  0  0  0  0  0  0  0  0
  143.5440  160.4970  133.9950 C   0  0  0  0  0  0  0  0  0  0  0  0
  143.4250  159.0880  133.8790 C   0  0  0  0  0  0  0  0  0  0  0  0
  142.1650  158.4370  134.1400 N   0  0  0  0  0  0  0  0  0  0  0  0
  141.9640  157.6340  135.3540 C   0  0  0  0  0  0  0  0  0  0  0  0
  141.6030  156.2020  134.9540 C   0  0  0  0  0  0  0  0  0  0  0  0
  140.5700  156.1850  133.9060 N   0  0  0  0  0  0  0  0  0  0  0  0
  140.0900  154.9150  133.4270 C   0  0  0  0  0  0  0  0  0  0  0  0
  139.1320  154.8680  132.6110 O   0  0  0  0  0  0  0  0  0  0  0  0
  140.7030  153.7340  133.8800 O   0  0  0  0  0  0  0  0  0  0  0  0
  141.9080  153.1500  133.3660 C   0  0  0  0  0  0  0  0  0  0  0  0
  141.5820  151.9890  132.4070 C   0  0  0  0  0  0  0  0  0  0  0  0
  142.6920  152.5980  134.5670 C   0  0  0  0  0  0  0  0  0  0  0  0
  142.7660  154.2140  132.6580 C   0  0  0  0  0  0  0  0  0  0  0  0
  139.9940  157.4490  133.4180 C   0  0  0  0  0  0  0  0  0  0  0  0
  141.1100  158.4620  133.1130 C   0  0  0  0  0  0  0  0  0  0  0  0
  144.5630  158.3200  133.5390 C   0  0  0  0  0  0  0  0  0  0  0  0
  145.7790  158.9830  133.3370 C   0  0  0  0  0  0  0  0  0  0  0  0
  145.8050  153.8060  136.0130 C   0  0  0  0  0  0  0  0  0  0  0  0
  146.9440  153.3830  136.3520 O   0  0  0  0  0  0  0  0  0  0  0  0
  144.7340  153.6770  136.8920 O   0  0  0  0  0  0  0  0  0  0  0  0
  146.7552  152.6659  134.0734 H   0  0  0  0  0  0  0  0  0  0  0  0
  145.4040  153.0574  132.9565 H   0  0  0  0  0  0  0  0  0  0  0  0
  146.8903  154.0662  132.9565 H   0  0  0  0  0  0  0  0  0  0  0  0
  144.5049  154.4743  134.4588 H   0  0  0  0  0  0  0  0  0  0  0  0
  149.6090  157.4240  133.0600 H   0  0  0  0  0  0  0  0  0  0  0  0
  150.9550  158.1870  132.1580 H   0  0  0  0  0  0  0  0  0  0  0  0
  147.5614  161.7287  133.0274 H   0  0  0  0  0  0  0  0  0  0  0  0
  144.8580  162.2334  133.8082 H   0  0  0  0  0  0  0  0  0  0  0  0
  142.6669  161.0941  134.2851 H   0  0  0  0  0  0  0  0  0  0  0  0
  142.8893  157.6280  135.9489 H   0  0  0  0  0  0  0  0  0  0  0  0
  141.1501  158.0672  135.9539 H   0  0  0  0  0  0  0  0  0  0  0  0
  142.5046  155.6970  134.5770 H   0  0  0  0  0  0  0  0  0  0  0  0
  141.2083  155.6826  135.8397 H   0  0  0  0  0  0  0  0  0  0  0  0
  141.3299  151.0912  132.9905 H   0  0  0  0  0  0  0  0  0  0  0  0
  140.7270  152.2662  131.7729 H   0  0  0  0  0  0  0  0  0  0  0  0
  142.4564  151.7806  131.7729 H   0  0  0  0  0  0  0  0  0  0  0  0
  142.2163  152.9329  135.5006 H   0  0  0  0  0  0  0  0  0  0  0  0
  142.6934  151.4986  134.5300 H   0  0  0  0  0  0  0  0  0  0  0  0
  143.7275  152.9674  134.5300 H   0  0  0  0  0  0  0  0  0  0  0  0
  143.2698  154.8388  133.4103 H   0  0  0  0  0  0  0  0  0  0  0  0
  143.5198  153.7180  132.0289 H   0  0  0  0  0  0  0  0  0  0  0  0
  142.1215  154.8456  132.0289 H   0  0  0  0  0  0  0  0  0  0  0  0
  139.4191  157.2553  132.5004 H   0  0  0  0  0  0  0  0  0  0  0  0
  139.3356  157.8653  134.1946 H   0  0  0  0  0  0  0  0  0  0  0  0
  141.5563  158.2176  132.1377 H   0  0  0  0  0  0  0  0  0  0  0  0
  140.6658  159.4683  133.1027 H   0  0  0  0  0  0  0  0  0  0  0  0
  144.4940  157.2270  133.4357 H   0  0  0  0  0  0  0  0  0  0  0  0
  1  2  1  0
  2  3  1  0
  3  4  1  0
  4  5  2  0
  4  6  1  0
  6  7  2  0
  6  8  1  0
  8  9  1  0
  9 10  1  0
 10 11  1  0
 10 12  2  0
  9 13  2  0
 13 14  1  0
 14 15  2  0
 15 16  1  0
 16 17  2  0
 17 18  1  0
 18 19  1  0
 19 20  1  0
 20 21  1  0
 21 22  1  0
 22 23  2  0
 22 24  1  0
 24 25  1  0
 25 26  1  0
 25 27  1  0
 25 28  1  0
 21 29  1  0
 29 30  1  0
 17 31  1  0
 31 32  2  0
  2 33  1  0
 33 34  2  0
 33 35  1  0
 32  8  1  0
 32 14  1  0
 30 18  1  0
  1 36  1  0
  1 37  1  0
  1 38  1  0
  2 39  1  6
 11 40  1  0
 11 41  1  0
 13 42  1  0
 15 43  1  0
 16 44  1  0
 19 45  1  0
 19 46  1  0
 20 47  1  0
 20 48  1  0
 26 49  1  0
 26 50  1  0
 26 51  1  0
 27 52  1  0
 27 53  1  0
 27 54  1  0
 28 55  1  0
 28 56  1  0
 28 57  1  0
 29 58  1  0
 29 59  1  0
 30 60  1  0
 30 61  1  0
 31 62  1  0
M  CHG  2   3  -1  35  -1
M  END
>  <UniqueID>  (48) 
46

>  <SMILES>  (48) 
C[C@H]([N-]C(=O)C(=O)n1c(C(N)=O)cc2ccc(N3CCN(C(=O)OC(C)(C)C)CC3)cc21)C(=O)[O-]

>  <Energy>  (48) 
103.54909889064245

>  <Genealogy>  (48) 
C[C@H]([N-]C(=O)C(=O)n1c(C(N)=O)cc2ccc(N3CCN(C(=O)OC(C)(C)C)CC3)cc21)C(=O)[O-] (protonated)
C[C@H]([N-]C(=O)C(=O)n1c(C(N)=O)cc2ccc(N3CCN(C(=O)OC(C)(C)C)CC3)cc21)C(=O)[O-] (3D coordinates assigned)
C[C@H]([N-]C(=O)C(=O)n1c(C(N)=O)cc2ccc(N3CCN(C(=O)OC(C)(C)C)CC3)cc21)C(=O)[O-] (nonaromatic ring conformer: 103.54909889064245 kcal/mol)

>  <smiles>  (48) 
C[C@H](NC(=O)C(=O)n1c(C(N)=O)cc2ccc(N3CCN(C(=O)OC(C)(C)C)CC3)cc21)C(=O)O

>  <score_type>  (48) 
oracle

>  <origin>  (48) 
adg

>  <m_score__min__energy>  (48) 
-9.25

>  <m_primary>  (48) 
energy

$$$$
49:0
     RDKit          3D

 59 61  0  0  0  0  0  0  0  0999 V2000
  149.3760  153.8730  138.2580 C   0  0  0  0  0  0  0  0  0  0  0  0
  148.4160  152.9860  137.4570 C   0  0  0  0  0  0  0  0  0  0  0  0
  149.1770  151.9080  136.6790 C   0  0  0  0  0  0  0  0  0  0  0  0
  147.5820  153.8190  136.5260 C   0  0  0  0  0  0  0  0  0  0  0  0
  148.1080  154.7690  135.8840 O   0  0  0  0  0  0  0  0  0  0  0  0
  146.2200  153.5330  136.3870 O   0  0  0  0  0  0  0  0  0  0  0  0
  145.2710  154.4920  135.9320 C   0  0  0  0  0  0  0  0  0  0  0  0
  143.9480  154.0250  136.1780 O   0  0  0  0  0  0  0  0  0  0  0  0
  143.0220  153.7900  135.1530 C   0  0  0  0  0  0  0  0  0  0  0  0
  142.1600  152.8720  135.2730 O   0  0  0  0  0  0  0  0  0  0  0  0
  143.0390  154.6590  133.9180 C   0  0  0  0  0  0  0  0  0  0  0  0
  143.9680  154.0040  132.8790 C   0  0  0  0  0  0  0  0  0  0  0  0
  141.6010  154.7740  133.3760 C   0  0  0  0  0  0  0  0  0  0  0  0
  143.5390  155.9510  134.2900 O   0  0  0  0  0  0  0  0  0  0  0  0
  143.6380  157.0810  133.4640 C   0  0  0  0  0  0  0  0  0  0  0  0
  142.6810  157.4270  132.7190 O   0  0  0  0  0  0  0  0  0  0  0  0
  144.8640  157.8260  133.4420 N   0  0  0  0  0  0  0  0  0  0  0  0
  145.0300  159.1780  133.5040 C   0  0  0  0  0  0  0  0  0  0  0  0
  143.9680  160.1770  133.7500 C   0  0  0  0  0  0  0  0  0  0  0  0
  142.6300  159.9520  133.3130 N   0  0  0  0  0  0  0  0  0  0  0  0
  144.2370  161.2280  134.3920 O   0  0  0  0  0  0  0  0  0  0  0  0
  146.3760  159.5100  133.3660 C   0  0  0  0  0  0  0  0  0  0  0  0
  147.0360  158.3110  133.2230 C   0  0  0  0  0  0  0  0  0  0  0  0
  148.3880  158.0510  133.0280 C   0  0  0  0  0  0  0  0  0  0  0  0
  148.7860  156.7130  132.8660 C   0  0  0  0  0  0  0  0  0  0  0  0
  147.8320  155.6620  132.8940 C   0  0  0  0  0  0  0  0  0  0  0  0
  148.2600  154.2560  132.6950 C   0  0  0  0  0  0  0  0  0  0  0  0
  147.3370  153.2010  132.7970 C   0  0  0  0  0  0  0  0  0  0  0  0
  147.7560  151.8850  132.6040 C   0  0  0  0  0  0  0  0  0  0  0  0
  149.0930  151.6290  132.2980 C   0  0  0  0  0  0  0  0  0  0  0  0
  149.5070  150.3530  132.1010 F   0  0  0  0  0  0  0  0  0  0  0  0
  149.9810  152.6550  132.2020 N   0  0  0  0  0  0  0  0  0  0  0  0
  149.5990  153.9460  132.3950 C   0  0  0  0  0  0  0  0  0  0  0  0
  146.4660  155.9680  133.0950 C   0  0  0  0  0  0  0  0  0  0  0  0
  146.1010  157.3090  133.2730 C   0  0  0  0  0  0  0  0  0  0  0  0
  149.2076  153.7174  139.3338 H   0  0  0  0  0  0  0  0  0  0  0  0
  150.4141  153.6094  138.0075 H   0  0  0  0  0  0  0  0  0  0  0  0
  149.1951  154.9287  138.0075 H   0  0  0  0  0  0  0  0  0  0  0  0
  147.7476  152.4804  138.1695 H   0  0  0  0  0  0  0  0  0  0  0  0
  149.6629  151.2197  137.3861 H   0  0  0  0  0  0  0  0  0  0  0  0
  148.4735  151.3471  136.0461 H   0  0  0  0  0  0  0  0  0  0  0  0
  149.9410  152.3831  136.0461 H   0  0  0  0  0  0  0  0  0  0  0  0
  145.4274  155.4407  136.4664 H   0  0  0  0  0  0  0  0  0  0  0  0
  145.4038  154.6456  134.8509 H   0  0  0  0  0  0  0  0  0  0  0  0
  144.7610  153.4449  133.3971 H   0  0  0  0  0  0  0  0  0  0  0  0
  143.3857  153.3156  132.2489 H   0  0  0  0  0  0  0  0  0  0  0  0
  144.4208  154.7837  132.2489 H   0  0  0  0  0  0  0  0  0  0  0  0
  140.8953  154.8304  134.2179 H   0  0  0  0  0  0  0  0  0  0  0  0
  141.5122  155.6821  132.7616 H   0  0  0  0  0  0  0  0  0  0  0  0
  141.3690  153.8915  132.7616 H   0  0  0  0  0  0  0  0  0  0  0  0
  142.4350  159.5390  132.3730 H   0  0  0  0  0  0  0  0  0  0  0  0
  146.8177  160.5174  133.3704 H   0  0  0  0  0  0  0  0  0  0  0  0
  149.1239  158.8681  133.0013 H   0  0  0  0  0  0  0  0  0  0  0  0
  149.8498  156.4771  132.7156 H   0  0  0  0  0  0  0  0  0  0  0  0
  146.2830  153.4136  133.0293 H   0  0  0  0  0  0  0  0  0  0  0  0
  147.0386  151.0558  132.6923 H   0  0  0  0  0  0  0  0  0  0  0  0
  150.9800  152.4500  131.9730 H   0  0  0  0  0  0  0  0  0  0  0  0
  150.3421  154.7532  132.3160 H   0  0  0  0  0  0  0  0  0  0  0  0
  145.7075  155.1715  133.1112 H   0  0  0  0  0  0  0  0  0  0  0  0
  1  2  1  0
  2  3  1  0
  2  4  1  0
  4  5  2  0
  4  6  1  0
  6  7  1  0
  7  8  1  0
  8  9  1  0
  9 10  2  0
  9 11  1  0
 11 12  1  0
 11 13  1  0
 11 14  1  0
 14 15  1  0
 15 16  2  0
 15 17  1  0
 17 18  1  0
 18 19  1  0
 19 20  1  0
 19 21  2  0
 18 22  2  0
 22 23  1  0
 23 24  2  0
 24 25  1  0
 25 26  2  0
 26 27  1  0
 27 28  2  0
 28 29  1  0
 29 30  2  0
 30 31  1  0
 30 32  1  0
 32 33  2  0
 26 34  1  0
 34 35  2  0
 35 17  1  0
 35 23  1  0
 33 27  1  0
  1 36  1  0
  1 37  1  0
  1 38  1  0
  2 39  1  0
  3 40  1  0
  3 41  1  0
  3 42  1  0
  7 43  1  0
  7 44  1  0
 12 45  1  0
 12 46  1  0
 12 47  1  0
 13 48  1  0
 13 49  1  0
 13 50  1  0
 20 51  1  0
 22 52  1  0
 24 53  1  0
 25 54  1  0
 28 55  1  0
 29 56  1  0
 32 57  1  0
 33 58  1  0
 34 59  1  0
M  CHG  2  20  -1  32   1
M  END
>  <UniqueID>  (49) 
47

>  <SMILES>  (49) 
CC(C)C(=O)OCOC(=O)C(C)(C)OC(=O)n1c(C([NH-])=O)cc2ccc(-c3ccc(F)[nH+]c3)cc21

>  <Energy>  (49) 
90.61789563063857

>  <Genealogy>  (49) 
CC(C)C(=O)OCOC(=O)C(C)(C)OC(=O)n1c(C([NH-])=O)cc2ccc(-c3ccc(F)[nH+]c3)cc21 (protonated)
CC(C)C(=O)OCOC(=O)C(C)(C)OC(=O)n1c(C([NH-])=O)cc2ccc(-c3ccc(F)[nH+]c3)cc21 (3D coordinates assigned)
CC(C)C(=O)OCOC(=O)C(C)(C)OC(=O)n1c(C([NH-])=O)cc2ccc(-c3ccc(F)[nH+]c3)cc21 (optimized conformer: 90.61789563063857 kcal/mol)

>  <smiles>  (49) 
CC(C)C(=O)OCOC(=O)C(C)(C)OC(=O)n1c(C(N)=O)cc2ccc(-c3ccc(F)nc3)cc21

>  <score_type>  (49) 
oracle

>  <origin>  (49) 
adg

>  <m_score__min__energy>  (49) 
-8.4499999999999993

>  <m_primary>  (49) 
energy

$$$$
50:0
     RDKit          3D

 41 42  0  0  0  0  0  0  0  0999 V2000
  149.5720  160.9340  130.8690 C   0  0  0  0  0  0  0  0  0  0  0  0
  148.4870  159.8840  131.0950 C   0  0  2  0  0  0  0  0  0  0  0  0
  147.2250  160.4930  131.0100 O   0  0  0  0  0  0  0  0  0  0  0  0
  148.6620  159.2420  132.4400 C   0  0  0  0  0  0  0  0  0  0  0  0
  148.1730  159.7870  133.4680 O   0  0  0  0  0  0  0  0  0  0  0  0
  149.4040  158.0600  132.5450 O   0  0  0  0  0  0  0  0  0  0  0  0
  148.8410  156.8320  132.9900 C   0  0  0  0  0  0  0  0  0  0  0  0
  147.4230  156.8760  132.8560 O   0  0  0  0  0  0  0  0  0  0  0  0
  146.5580  156.7490  133.9440 C   0  0  0  0  0  0  0  0  0  0  0  0
  146.9420  156.1700  134.9980 O   0  0  0  0  0  0  0  0  0  0  0  0
  145.2630  157.2720  133.8380 O   0  0  0  0  0  0  0  0  0  0  0  0
  144.9280  158.4680  133.1880 C   0  0  0  0  0  0  0  0  0  0  0  0
  145.7090  158.9870  132.3450 O   0  0  0  0  0  0  0  0  0  0  0  0
  143.6660  159.0940  133.4690 N   0  0  0  0  0  0  0  0  0  0  0  0
  143.4410  160.3960  133.8060 C   0  0  0  0  0  0  0  0  0  0  0  0
  144.4380  161.4850  133.7790 C   0  0  0  0  0  0  0  0  0  0  0  0
  145.8340  161.2030  133.8230 N   0  0  0  0  0  0  0  0  0  0  0  0
  144.0540  162.6800  133.6660 O   0  0  0  0  0  0  0  0  0  0  0  0
  142.0960  160.5970  134.1090 C   0  0  0  0  0  0  0  0  0  0  0  0
  141.4960  159.3700  133.9400 C   0  0  0  0  0  0  0  0  0  0  0  0
  140.1700  158.9880  134.1260 C   0  0  0  0  0  0  0  0  0  0  0  0
  139.8370  157.6410  133.9110 C   0  0  0  0  0  0  0  0  0  0  0  0
  140.8260  156.7070  133.5140 C   0  0  0  0  0  0  0  0  0  0  0  0
  140.4670  155.2620  133.3380 C   0  0  0  0  0  0  0  0  0  0  0  0
  139.2210  155.1650  132.7470 F   0  0  0  0  0  0  0  0  0  0  0  0
  142.1640  157.1270  133.3510 C   0  0  0  0  0  0  0  0  0  0  0  0
  142.4650  158.4790  133.5530 C   0  0  0  0  0  0  0  0  0  0  0  0
  149.9429  161.2929  131.8404 H   0  0  0  0  0  0  0  0  0  0  0  0
  150.4020  160.4874  130.3019 H   0  0  0  0  0  0  0  0  0  0  0  0
  149.1528  161.7782  130.3019 H   0  0  0  0  0  0  0  0  0  0  0  0
  148.5675  159.1049  130.3227 H   0  0  0  0  0  0  0  0  0  0  0  0
  146.9410  160.6900  131.9410 H   0  0  0  0  0  0  0  0  0  0  0  0
  149.2400  156.0059  132.3831 H   0  0  0  0  0  0  0  0  0  0  0  0
  149.1018  156.6741  134.0469 H   0  0  0  0  0  0  0  0  0  0  0  0
  146.3540  160.9190  132.9630 H   0  0  0  0  0  0  0  0  0  0  0  0
  141.6155  161.5371  134.4178 H   0  0  0  0  0  0  0  0  0  0  0  0
  139.4069  159.7189  134.4319 H   0  0  0  0  0  0  0  0  0  0  0  0
  138.7983  157.3075  134.0521 H   0  0  0  0  0  0  0  0  0  0  0  0
  141.2158  154.7737  132.6970 H   0  0  0  0  0  0  0  0  0  0  0  0
  140.4462  154.7673  134.3202 H   0  0  0  0  0  0  0  0  0  0  0  0
  142.9501  156.4098  133.0723 H   0  0  0  0  0  0  0  0  0  0  0  0
  1  2  1  0
  2  3  1  0
  2  4  1  0
  4  5  2  0
  4  6  1  0
  6  7  1  0
  7  8  1  0
  8  9  1  0
  9 10  2  0
  9 11  1  0
 11 12  1  0
 12 13  2  0
 12 14  1  0
 14 15  1  0
 15 16  1  0
 16 17  1  0
 16 18  2  0
 15 19  2  0
 19 20  1  0
 20 21  2  0
 21 22  1  0
 22 23  2  0
 23 24  1  0
 24 25  1  0
 23 26  1  0
 26 27  2  0
 27 14  1  0
 27 20  1  0
  1 28  1  0
  1 29  1  0
  1 30  1  0
  2 31  1  6
  3 32  1  0
  7 33  1  0
  7 34  1  0
 17 35  1  0
 19 36  1  0
 21 37  1  0
 22 38  1  0
 24 39  1  0
 24 40  1  0
 26 41  1  0
M  CHG  1  17  -1
M  END
>  <UniqueID>  (50) 
48

>  <SMILES>  (50) 
C[C@H](O)C(=O)OCOC(=O)OC(=O)n1c(C([NH-])=O)cc2ccc(CF)cc21

>  <Energy>  (50) 
73.9951701192195

>  <Genealogy>  (50) 
C[C@H](O)C(=O)OCOC(=O)OC(=O)n1c(C([NH-])=O)cc2ccc(CF)cc21 (protonated)
C[C@H](O)C(=O)OCOC(=O)OC(=O)n1c(C([NH-])=O)cc2ccc(CF)cc21 (3D coordinates assigned)
C[C@H](O)C(=O)OCOC(=O)OC(=O)n1c(C([NH-])=O)cc2ccc(CF)cc21 (optimized conformer: 73.9951701192195 kcal/mol)

>  <smiles>  (50) 
C[C@H](O)C(=O)OCOC(=O)OC(=O)n1c(C(N)=O)cc2ccc(CF)cc21

>  <score_type>  (50) 
oracle

>  <origin>  (50) 
adg

>  <m_score__min__energy>  (50) 
-5.4800000000000004

>  <m_primary>  (50) 
energy

$$$$
51:0
     RDKit          3D

 45 46  0  0  0  0  0  0  0  0999 V2000
  143.3030  153.7600  132.6450 C   0  0  0  0  0  0  0  0  0  0  0  0
  142.6320  154.7040  133.4710 O   0  0  0  0  0  0  0  0  0  0  0  0
  142.9600  154.8930  134.8170 C   0  0  0  0  0  0  0  0  0  0  0  0
  142.0860  155.2680  135.6450 O   0  0  0  0  0  0  0  0  0  0  0  0
  144.3700  154.6810  135.2690 C   0  0  0  0  0  0  0  0  0  0  0  0
  145.1430  155.8610  135.0610 O   0  0  0  0  0  0  0  0  0  0  0  0
  145.3870  156.4070  133.7960 C   0  0  0  0  0  0  0  0  0  0  0  0
  145.7910  155.6710  132.8540 O   0  0  0  0  0  0  0  0  0  0  0  0
  145.1700  157.8070  133.5680 N   0  0  0  0  0  0  0  0  0  0  0  0
  146.0820  158.7300  133.1480 C   0  0  0  0  0  0  0  0  0  0  0  0
  147.4550  158.4410  132.6920 C   0  0  0  0  0  0  0  0  0  0  0  0
  147.7370  157.3180  131.8550 N   0  0  0  0  0  0  0  0  0  0  0  0
  148.3880  159.2300  133.0010 O   0  0  0  0  0  0  0  0  0  0  0  0
  145.5250  160.0060  133.1500 C   0  0  0  0  0  0  0  0  0  0  0  0
  144.2260  159.8340  133.5720 C   0  0  0  0  0  0  0  0  0  0  0  0
  143.2190  160.7720  133.7680 C   0  0  0  0  0  0  0  0  0  0  0  0
  141.9780  160.3180  134.2430 C   0  0  0  0  0  0  0  0  0  0  0  0
  141.7630  158.9410  134.5240 C   0  0  0  0  0  0  0  0  0  0  0  0
  140.4790  158.4890  135.0190 N   0  0  0  0  0  0  0  0  0  0  0  0
  140.2030  158.5330  136.4590 C   0  0  0  0  0  0  0  0  0  0  0  0
  139.4340  158.0090  134.0970 C   0  0  0  0  0  0  0  0  0  0  0  0
  140.0420  157.4760  132.7960 C   0  0  0  0  0  0  0  0  0  0  0  0
  140.5640  156.1270  132.9880 N   0  0  0  0  0  0  0  0  0  0  0  0
  142.8200  158.0220  134.3170 C   0  0  0  0  0  0  0  0  0  0  0  0
  144.0370  158.5000  133.8190 C   0  0  0  0  0  0  0  0  0  0  0  0
  143.8248  153.0259  133.2765 H   0  0  0  0  0  0  0  0  0  0  0  0
  142.5695  153.2417  132.0099 H   0  0  0  0  0  0  0  0  0  0  0  0
  144.0336  154.2824  132.0099 H   0  0  0  0  0  0  0  0  0  0  0  0
  144.3731  154.4301  136.3400 H   0  0  0  0  0  0  0  0  0  0  0  0
  144.8110  153.8590  134.6861 H   0  0  0  0  0  0  0  0  0  0  0  0
  146.9680  156.7500  131.4370 H   0  0  0  0  0  0  0  0  0  0  0  0
  148.7210  157.1050  131.5780 H   0  0  0  0  0  0  0  0  0  0  0  0
  146.0176  160.9498  132.8735 H   0  0  0  0  0  0  0  0  0  0  0  0
  143.3892  161.8381  133.5573 H   0  0  0  0  0  0  0  0  0  0  0  0
  141.1610  161.0376  134.3998 H   0  0  0  0  0  0  0  0  0  0  0  0
  141.1394  158.3837  137.0165 H   0  0  0  0  0  0  0  0  0  0  0  0
  139.7727  159.5111  136.7202 H   0  0  0  0  0  0  0  0  0  0  0  0
  139.4899  157.7372  136.7202 H   0  0  0  0  0  0  0  0  0  0  0  0
  138.8685  157.2017  134.5854 H   0  0  0  0  0  0  0  0  0  0  0  0
  138.7732  158.8534  133.8512 H   0  0  0  0  0  0  0  0  0  0  0  0
  139.2665  157.4560  132.0161 H   0  0  0  0  0  0  0  0  0  0  0  0
  140.8683  158.1364  132.4941 H   0  0  0  0  0  0  0  0  0  0  0  0
  141.3310  155.9810  132.2930 H   0  0  0  0  0  0  0  0  0  0  0  0
  141.0070  156.0790  133.9340 H   0  0  0  0  0  0  0  0  0  0  0  0
  142.6871  156.9537  134.5432 H   0  0  0  0  0  0  0  0  0  0  0  0
  1  2  1  0
  2  3  1  0
  3  4  2  0
  3  5  1  0
  5  6  1  0
  6  7  1  0
  7  8  2  0
  7  9  1  0
  9 10  1  0
 10 11  1  0
 11 12  1  0
 11 13  2  0
 10 14  2  0
 14 15  1  0
 15 16  2  0
 16 17  1  0
 17 18  2  0
 18 19  1  0
 19 20  1  0
 19 21  1  0
 21 22  1  0
 22 23  1  0
 18 24  1  0
 24 25  2  0
 25  9  1  0
 25 15  1  0
  1 26  1  0
  1 27  1  0
  1 28  1  0
  5 29  1  0
  5 30  1  0
 12 31  1  0
 12 32  1  0
 14 33  1  0
 16 34  1  0
 17 35  1  0
 20 36  1  0
 20 37  1  0
 20 38  1  0
 21 39  1  0
 21 40  1  0
 22 41  1  0
 22 42  1  0
 23 43  1  0
 23 44  1  0
 24 45  1  0
M  END
>  <UniqueID>  (51) 
49

>  <SMILES>  (51) 
COC(=O)COC(=O)n1c(C(N)=O)cc2ccc(N(C)CCN)cc21

>  <Energy>  (51) 
77.56831259588516

>  <Genealogy>  (51) 
COC(=O)COC(=O)n1c(C(N)=O)cc2ccc(N(C)CCN)cc21 (3D coordinates assigned)
COC(=O)COC(=O)n1c(C(N)=O)cc2ccc(N(C)CCN)cc21 (optimized conformer: 77.56831259588516 kcal/mol)

>  <smiles>  (51) 
COC(=O)COC(=O)n1c(C(N)=O)cc2ccc(N(C)CCN)cc21

>  <score_type>  (51) 
oracle

>  <origin>  (51) 
adg

>  <m_score__min__energy>  (51) 
-6.7300000000000004

>  <m_primary>  (51) 
energy

$$$$
52:0
     RDKit          3D

 40 41  0  0  0  0  0  0  0  0999 V2000
  138.1300  159.7930  131.1130 C   0  0  0  0  0  0  0  0  0  0  0  0
  139.3340  159.3810  131.9530 C   0  0  0  0  0  0  0  0  0  0  0  0
  138.9270  159.0110  133.2680 O   0  0  0  0  0  0  0  0  0  0  0  0
  139.1660  157.7480  133.8220 C   0  0  0  0  0  0  0  0  0  0  0  0
  139.1220  157.5710  135.0700 O   0  0  0  0  0  0  0  0  0  0  0  0
  139.5230  156.6100  132.9220 C   0  0  0  0  0  0  0  0  0  0  0  0
  140.8370  155.9680  133.3720 C   0  0  0  0  0  0  0  0  0  0  0  0
  141.9290  156.8590  133.1510 O   0  0  0  0  0  0  0  0  0  0  0  0
  142.6470  157.4690  134.1860 C   0  0  0  0  0  0  0  0  0  0  0  0
  142.5500  157.0400  135.3680 O   0  0  0  0  0  0  0  0  0  0  0  0
  143.4860  158.5990  133.9020 N   0  0  0  0  0  0  0  0  0  0  0  0
  143.1460  159.9190  133.9410 C   0  0  0  0  0  0  0  0  0  0  0  0
  141.7850  160.4580  134.1360 C   0  0  0  0  0  0  0  0  0  0  0  0
  140.9840  159.9890  135.2180 N   0  0  0  0  0  0  0  0  0  0  0  0
  141.3350  161.3600  133.3800 O   0  0  0  0  0  0  0  0  0  0  0  0
  144.2590  160.7170  133.6860 C   0  0  0  0  0  0  0  0  0  0  0  0
  145.2980  159.8400  133.4780 C   0  0  0  0  0  0  0  0  0  0  0  0
  146.6390  160.0900  133.2040 C   0  0  0  0  0  0  0  0  0  0  0  0
  147.5010  158.9890  133.0710 C   0  0  0  0  0  0  0  0  0  0  0  0
  147.0110  157.6630  133.2000 C   0  0  0  0  0  0  0  0  0  0  0  0
  147.9590  156.4930  133.1130 C   0  0  0  0  0  0  0  0  0  0  0  0
  147.4620  155.5250  132.2560 F   0  0  0  0  0  0  0  0  0  0  0  0
  148.1200  155.9420  134.3710 F   0  0  0  0  0  0  0  0  0  0  0  0
  149.1930  156.9000  132.6360 F   0  0  0  0  0  0  0  0  0  0  0  0
  145.6460  157.4520  133.5040 C   0  0  0  0  0  0  0  0  0  0  0  0
  144.8070  158.5680  133.6130 C   0  0  0  0  0  0  0  0  0  0  0  0
  137.2999  160.0771  131.7765 H   0  0  0  0  0  0  0  0  0  0  0  0
  138.4015  160.6494  130.4782 H   0  0  0  0  0  0  0  0  0  0  0  0
  137.8200  158.9498  130.4782 H   0  0  0  0  0  0  0  0  0  0  0  0
  139.8322  158.5248  131.4747 H   0  0  0  0  0  0  0  0  0  0  0  0
  140.0252  160.2338  132.0232 H   0  0  0  0  0  0  0  0  0  0  0  0
  138.7217  155.8570  132.9541 H   0  0  0  0  0  0  0  0  0  0  0  0
  139.6433  156.9894  131.8965 H   0  0  0  0  0  0  0  0  0  0  0  0
  140.7752  155.7299  134.4441 H   0  0  0  0  0  0  0  0  0  0  0  0
  141.0028  155.0501  132.7890 H   0  0  0  0  0  0  0  0  0  0  0  0
  140.0800  159.4960  135.0410 H   0  0  0  0  0  0  0  0  0  0  0  0
  144.2986  161.8159  133.6571 H   0  0  0  0  0  0  0  0  0  0  0  0
  147.0128  161.1188  133.0948 H   0  0  0  0  0  0  0  0  0  0  0  0
  148.5684  159.1563  132.8644 H   0  0  0  0  0  0  0  0  0  0  0  0
  145.2526  156.4354  133.6513 H   0  0  0  0  0  0  0  0  0  0  0  0
  1  2  1  0
  2  3  1  0
  3  4  1  0
  4  5  2  0
  4  6  1  0
  6  7  1  0
  7  8  1  0
  8  9  1  0
  9 10  2  0
  9 11  1  0
 11 12  1  0
 12 13  1  0
 13 14  1  0
 13 15  2  0
 12 16  2  0
 16 17  1  0
 17 18  2  0
 18 19  1  0
 19 20  2  0
 20 21  1  0
 21 22  1  0
 21 23  1  0
 21 24  1  0
 20 25  1  0
 25 26  2  0
 26 11  1  0
 26 17  1  0
  1 27  1  0
  1 28  1  0
  1 29  1  0
  2 30  1  0
  2 31  1  0
  6 32  1  0
  6 33  1  0
  7 34  1  0
  7 35  1  0
 14 36  1  0
 16 37  1  0
 18 38  1  0
 19 39  1  0
 25 40  1  0
M  CHG  1  14  -1
M  END
>  <UniqueID>  (52) 
50

>  <SMILES>  (52) 
CCOC(=O)CCOC(=O)n1c(C([NH-])=O)cc2ccc(C(F)(F)F)cc21

>  <Energy>  (52) 
70.59887968504387

>  <Genealogy>  (52) 
CCOC(=O)CCOC(=O)n1c(C([NH-])=O)cc2ccc(C(F)(F)F)cc21 (protonated)
CCOC(=O)CCOC(=O)n1c(C([NH-])=O)cc2ccc(C(F)(F)F)cc21 (3D coordinates assigned)
CCOC(=O)CCOC(=O)n1c(C([NH-])=O)cc2ccc(C(F)(F)F)cc21 (optimized conformer: 70.59887968504387 kcal/mol)

>  <smiles>  (52) 
CCOC(=O)CCOC(=O)n1c(C(N)=O)cc2ccc(C(F)(F)F)cc21

>  <score_type>  (52) 
oracle

>  <origin>  (52) 
adg

>  <m_score__min__energy>  (52) 
-5.75

>  <m_primary>  (52) 
energy

$$$$
53:0
     RDKit          3D

 42 43  0  0  0  0  0  0  0  0999 V2000
  140.9720  159.3220  137.4730 C   0  0  0  0  0  0  0  0  0  0  0  0
  141.4410  158.6610  136.3030 O   0  0  0  0  0  0  0  0  0  0  0  0
  140.5840  158.2320  135.2860 C   0  0  0  0  0  0  0  0  0  0  0  0
  139.3990  157.8830  135.5450 O   0  0  0  0  0  0  0  0  0  0  0  0
  141.1060  158.1120  133.8910 C   0  0  0  0  0  0  0  0  0  0  0  0
  142.4780  158.7210  133.8090 C   0  0  0  0  0  0  0  0  0  0  0  0
  142.6450  160.1290  133.8550 C   0  0  0  0  0  0  0  0  0  0  0  0
  143.9230  160.7040  133.7360 C   0  0  0  0  0  0  0  0  0  0  0  0
  145.0070  159.8500  133.5530 C   0  0  0  0  0  0  0  0  0  0  0  0
  146.3480  160.1320  133.4000 C   0  0  0  0  0  0  0  0  0  0  0  0
  146.9700  158.8940  133.2340 C   0  0  0  0  0  0  0  0  0  0  0  0
  148.4180  158.7270  132.9840 C   0  0  0  0  0  0  0  0  0  0  0  0
  148.8900  157.9640  131.8760 N   0  0  0  0  0  0  0  0  0  0  0  0
  149.2510  159.2810  133.7500 O   0  0  0  0  0  0  0  0  0  0  0  0
  146.0490  157.8910  133.2820 N   0  0  0  0  0  0  0  0  0  0  0  0
  146.2770  156.4800  133.1640 C   0  0  0  0  0  0  0  0  0  0  0  0
  146.5980  155.9990  132.0450 O   0  0  0  0  0  0  0  0  0  0  0  0
  146.1690  155.6060  134.3490 C   0  0  0  0  0  0  0  0  0  0  0  0
  145.0970  155.5980  135.0120 O   0  0  0  0  0  0  0  0  0  0  0  0
  147.2650  154.7760  134.7730 N   0  0  0  0  0  0  0  0  0  0  0  0
  148.0280  154.0510  133.7540 C   0  0  0  0  0  0  0  0  0  0  0  0
  147.7730  154.8590  136.1470 C   0  0  0  0  0  0  0  0  0  0  0  0
  147.7560  153.5050  136.7800 C   0  0  0  0  0  0  0  0  0  0  0  0
  146.6630  152.9760  137.1150 O   0  0  0  0  0  0  0  0  0  0  0  0
  148.9500  152.8490  137.0520 O   0  0  0  0  0  0  0  0  0  0  0  0
  144.8570  158.4900  133.4840 C   0  0  0  0  0  0  0  0  0  0  0  0
  143.6040  157.8890  133.6290 C   0  0  0  0  0  0  0  0  0  0  0  0
  141.3445  158.7970  138.3650 H   0  0  0  0  0  0  0  0  0  0  0  0
  141.3370  160.3597  137.4791 H   0  0  0  0  0  0  0  0  0  0  0  0
  139.8720  159.3202  137.4791 H   0  0  0  0  0  0  0  0  0  0  0  0
  141.1602  157.0496  133.6111 H   0  0  0  0  0  0  0  0  0  0  0  0
  140.4308  158.6415  133.2027 H   0  0  0  0  0  0  0  0  0  0  0  0
  141.7661  160.7776  133.9850 H   0  0  0  0  0  0  0  0  0  0  0  0
  144.0616  161.7941  133.7859 H   0  0  0  0  0  0  0  0  0  0  0  0
  146.8260  161.1227  133.4073 H   0  0  0  0  0  0  0  0  0  0  0  0
  148.3230  157.1810  131.4810 H   0  0  0  0  0  0  0  0  0  0  0  0
  148.7419  153.3726  134.2441 H   0  0  0  0  0  0  0  0  0  0  0  0
  147.3388  153.4669  133.1264 H   0  0  0  0  0  0  0  0  0  0  0  0
  148.5762  154.7691  133.1264 H   0  0  0  0  0  0  0  0  0  0  0  0
  148.8043  155.2413  136.1318 H   0  0  0  0  0  0  0  0  0  0  0  0
  147.1324  155.5381  136.7288 H   0  0  0  0  0  0  0  0  0  0  0  0
  143.4976  156.7945  133.6035 H   0  0  0  0  0  0  0  0  0  0  0  0
  1  2  1  0
  2  3  1  0
  3  4  2  0
  3  5  1  0
  5  6  1  0
  6  7  2  0
  7  8  1  0
  8  9  2  0
  9 10  1  0
 10 11  2  0
 11 12  1  0
 12 13  1  0
 12 14  2  0
 11 15  1  0
 15 16  1  0
 16 17  2  0
 16 18  1  0
 18 19  2  0
 18 20  1  0
 20 21  1  0
 20 22  1  0
 22 23  1  0
 23 24  2  0
 23 25  1  0
 15 26  1  0
 26 27  2  0
 27  6  1  0
 26  9  1  0
  1 28  1  0
  1 29  1  0
  1 30  1  0
  5 31  1  0
  5 32  1  0
  7 33  1  0
  8 34  1  0
 10 35  1  0
 13 36  1  0
 21 37  1  0
 21 38  1  0
 21 39  1  0
 22 40  1  0
 22 41  1  0
 27 42  1  0
M  CHG  2  13  -1  25  -1
M  END
>  <UniqueID>  (53) 
51

>  <SMILES>  (53) 
COC(=O)Cc1ccc2cc(C([NH-])=O)n(C(=O)C(=O)N(C)CC(=O)[O-])c2c1

>  <Energy>  (53) 
78.31458803102159

>  <Genealogy>  (53) 
COC(=O)Cc1ccc2cc(C([NH-])=O)n(C(=O)C(=O)N(C)CC(=O)[O-])c2c1 (protonated)
COC(=O)Cc1ccc2cc(C([NH-])=O)n(C(=O)C(=O)N(C)CC(=O)[O-])c2c1 (3D coordinates assigned)
COC(=O)Cc1ccc2cc(C([NH-])=O)n(C(=O)C(=O)N(C)CC(=O)[O-])c2c1 (optimized conformer: 78.31458803102159 kcal/mol)

>  <smiles>  (53) 
COC(=O)Cc1ccc2cc(C(N)=O)n(C(=O)C(=O)N(C)CC(=O)O)c2c1

>  <score_type>  (53) 
oracle

>  <origin>  (53) 
adg

>  <m_score__min__energy>  (53) 
-6.8300000000000001

>  <m_primary>  (53) 
energy

$$$$
54:0
     RDKit          3D

 30 31  0  0  0  0  0  0  0  0999 V2000
  147.7800  160.4940  130.6750 C   0  0  0  0  0  0  0  0  0  0  0  0
  148.4890  159.8080  131.5840 C   0  0  0  0  0  0  0  0  0  0  0  0
  149.8300  159.2810  131.2330 C   0  0  0  0  0  0  0  0  0  0  0  0
  150.5350  159.8490  130.3570 O   0  0  0  0  0  0  0  0  0  0  0  0
  150.3250  158.1410  131.8560 O   0  0  0  0  0  0  0  0  0  0  0  0
  147.9160  159.5680  132.9330 C   0  0  0  0  0  0  0  0  0  0  0  0
  148.4310  160.1240  133.9420 O   0  0  0  0  0  0  0  0  0  0  0  0
  146.7930  158.6900  133.1170 N   0  0  0  0  0  0  0  0  0  0  0  0
  145.5240  159.0290  133.4760 C   0  0  0  0  0  0  0  0  0  0  0  0
  145.0100  160.4050  133.6350 C   0  0  0  0  0  0  0  0  0  0  0  0
  145.9130  161.4730  133.9170 N   0  0  0  0  0  0  0  0  0  0  0  0
  143.7780  160.6470  133.5470 O   0  0  0  0  0  0  0  0  0  0  0  0
  144.7380  157.8870  133.6210 C   0  0  0  0  0  0  0  0  0  0  0  0
  145.5740  156.8300  133.3410 C   0  0  0  0  0  0  0  0  0  0  0  0
  145.3220  155.4610  133.3460 C   0  0  0  0  0  0  0  0  0  0  0  0
  146.3870  154.5950  133.0400 C   0  0  0  0  0  0  0  0  0  0  0  0
  147.6750  155.1090  132.7440 C   0  0  0  0  0  0  0  0  0  0  0  0
  148.8120  154.1790  132.4300 C   0  0  0  0  0  0  0  0  0  0  0  0
  149.9720  154.9090  132.2430 F   0  0  0  0  0  0  0  0  0  0  0  0
  148.9940  153.2960  133.4790 F   0  0  0  0  0  0  0  0  0  0  0  0
  147.8920  156.5040  132.7540 C   0  0  0  0  0  0  0  0  0  0  0  0
  146.8110  157.3420  133.0450 C   0  0  0  0  0  0  0  0  0  0  0  0
  146.7852  160.8853  130.9345 H   0  0  0  0  0  0  0  0  0  0  0  0
  148.1934  160.6653  129.6701 H   0  0  0  0  0  0  0  0  0  0  0  0
  146.8090  161.5700  133.3920 H   0  0  0  0  0  0  0  0  0  0  0  0
  143.6750  157.8404  133.9000 H   0  0  0  0  0  0  0  0  0  0  0  0
  144.3216  155.0690  133.5818 H   0  0  0  0  0  0  0  0  0  0  0  0
  146.2192  153.5079  133.0302 H   0  0  0  0  0  0  0  0  0  0  0  0
  148.5771  153.6187  131.5130 H   0  0  0  0  0  0  0  0  0  0  0  0
  148.8866  156.9213  132.5383 H   0  0  0  0  0  0  0  0  0  0  0  0
  1  2  2  0
  2  3  1  0
  3  4  2  0
  3  5  1  0
  2  6  1  0
  6  7  2  0
  6  8  1  0
  8  9  1  0
  9 10  1  0
 10 11  1  0
 10 12  2  0
  9 13  2  0
 13 14  1  0
 14 15  2  0
 15 16  1  0
 16 17  2  0
 17 18  1  0
 18 19  1  0
 18 20  1  0
 17 21  1  0
 21 22  2  0
 22  8  1  0
 22 14  1  0
  1 23  1  0
  1 24  1  0
 11 25  1  0
 13 26  1  0
 15 27  1  0
 16 28  1  0
 18 29  1  0
 21 30  1  0
M  CHG  2   5  -1  11  -1
M  END
>  <UniqueID>  (54) 
52

>  <SMILES>  (54) 
C=C(C(=O)[O-])C(=O)n1c(C([NH-])=O)cc2ccc(C(F)F)cc21

>  <Energy>  (54) 
70.91520482768684

>  <Genealogy>  (54) 
C=C(C(=O)[O-])C(=O)n1c(C([NH-])=O)cc2ccc(C(F)F)cc21 (protonated)
C=C(C(=O)[O-])C(=O)n1c(C([NH-])=O)cc2ccc(C(F)F)cc21 (3D coordinates assigned)
C=C(C(=O)[O-])C(=O)n1c(C([NH-])=O)cc2ccc(C(F)F)cc21 (optimized conformer: 70.91520482768684 kcal/mol)

>  <smiles>  (54) 
C=C(C(=O)O)C(=O)n1c(C(N)=O)cc2ccc(C(F)F)cc21

>  <score_type>  (54) 
oracle

>  <origin>  (54) 
adg

>  <m_score__min__energy>  (54) 
-6.0999999999999996

>  <m_primary>  (54) 
energy

$$$$
55:0
     RDKit          3D

 41 42  0  0  0  0  0  0  0  0999 V2000
  140.8310  156.7230  133.3520 C   0  0  0  0  0  0  0  0  0  0  0  0
  141.3590  158.1650  133.3090 C   0  0  0  0  0  0  0  0  0  0  0  0
  141.2120  158.7900  134.7090 C   0  0  0  0  0  0  0  0  0  0  0  0
  140.5490  158.9630  132.2690 C   0  0  0  0  0  0  0  0  0  0  0  0
  142.7410  158.0980  132.9290 O   0  0  0  0  0  0  0  0  0  0  0  0
  143.8310  157.8850  133.7850 C   0  0  0  0  0  0  0  0  0  0  0  0
  143.7410  157.0990  134.7670 O   0  0  0  0  0  0  0  0  0  0  0  0
  145.0750  158.5490  133.5170 N   0  0  0  0  0  0  0  0  0  0  0  0
  145.3550  159.8800  133.6170 C   0  0  0  0  0  0  0  0  0  0  0  0
  144.3780  160.9580  133.8770 C   0  0  0  0  0  0  0  0  0  0  0  0
  143.0430  160.8730  133.3840 N   0  0  0  0  0  0  0  0  0  0  0  0
  144.7400  161.9890  134.5030 O   0  0  0  0  0  0  0  0  0  0  0  0
  146.7040  160.1140  133.3530 C   0  0  0  0  0  0  0  0  0  0  0  0
  147.2420  158.8780  133.0770 C   0  0  0  0  0  0  0  0  0  0  0  0
  148.5470  158.5210  132.7550 C   0  0  0  0  0  0  0  0  0  0  0  0
  148.8250  157.1610  132.5460 C   0  0  0  0  0  0  0  0  0  0  0  0
  147.8070  156.1810  132.6680 C   0  0  0  0  0  0  0  0  0  0  0  0
  148.1370  154.7960  132.4540 N   0  0  0  0  0  0  0  0  0  0  0  0
  148.4660  153.8740  133.5430 C   0  0  0  0  0  0  0  0  0  0  0  0
  149.0820  152.6150  133.0130 C   0  0  0  0  0  0  0  0  0  0  0  0
  149.2740  152.4790  131.8150 O   0  0  0  0  0  0  0  0  0  0  0  0
  146.4910  156.5860  133.0000 C   0  0  0  0  0  0  0  0  0  0  0  0
  146.2390  157.9510  133.1830 C   0  0  0  0  0  0  0  0  0  0  0  0
  140.7150  156.4061  134.3990 H   0  0  0  0  0  0  0  0  0  0  0  0
  139.8566  156.6740  132.8439 H   0  0  0  0  0  0  0  0  0  0  0  0
  141.5434  156.0564  132.8439 H   0  0  0  0  0  0  0  0  0  0  0  0
  141.3928  158.0211  135.4746 H   0  0  0  0  0  0  0  0  0  0  0  0
  141.9434  159.6032  134.8261 H   0  0  0  0  0  0  0  0  0  0  0  0
  140.1948  159.1920  134.8261 H   0  0  0  0  0  0  0  0  0  0  0  0
  139.8576  159.6441  132.7868 H   0  0  0  0  0  0  0  0  0  0  0  0
  141.2359  159.5471  131.6389 H   0  0  0  0  0  0  0  0  0  0  0  0
  139.9752  158.2675  131.6389 H   0  0  0  0  0  0  0  0  0  0  0  0
  142.7990  160.2240  132.6030 H   0  0  0  0  0  0  0  0  0  0  0  0
  147.2272  161.0816  133.3632 H   0  0  0  0  0  0  0  0  0  0  0  0
  149.3372  159.2811  132.6668 H   0  0  0  0  0  0  0  0  0  0  0  0
  149.8473  156.8508  132.2838 H   0  0  0  0  0  0  0  0  0  0  0  0
  148.1300  154.4360  131.4720 H   0  0  0  0  0  0  0  0  0  0  0  0
  149.1769  154.3626  134.2256 H   0  0  0  0  0  0  0  0  0  0  0  0
  147.5385  153.6137  134.0741 H   0  0  0  0  0  0  0  0  0  0  0  0
  149.3627  151.8091  133.7070 H   0  0  0  0  0  0  0  0  0  0  0  0
  145.6855  155.8452  133.1115 H   0  0  0  0  0  0  0  0  0  0  0  0
  1  2  1  0
  2  3  1  0
  2  4  1  0
  2  5  1  0
  5  6  1  0
  6  7  2  0
  6  8  1  0
  8  9  1  0
  9 10  1  0
 10 11  1  0
 10 12  2  0
  9 13  2  0
 13 14  1  0
 14 15  2  0
 15 16  1  0
 16 17  2  0
 17 18  1  0
 18 19  1  0
 19 20  1  0
 20 21  2  0
 17 22  1  0
 22 23  2  0
 23  8  1  0
 23 14  1  0
  1 24  1  0
  1 25  1  0
  1 26  1  0
  3 27  1  0
  3 28  1  0
  3 29  1  0
  4 30  1  0
  4 31  1  0
  4 32  1  0
 11 33  1  0
 13 34  1  0
 15 35  1  0
 16 36  1  0
 18 37  1  0
 19 38  1  0
 19 39  1  0
 20 40  1  0
 22 41  1  0
M  CHG  1  11  -1
M  END
>  <UniqueID>  (55) 
53

>  <SMILES>  (55) 
CC(C)(C)OC(=O)n1c(C([NH-])=O)cc2ccc(NCC=O)cc21

>  <Energy>  (55) 
73.12301300416537

>  <Genealogy>  (55) 
CC(C)(C)OC(=O)n1c(C([NH-])=O)cc2ccc(NCC=O)cc21 (protonated)
CC(C)(C)OC(=O)n1c(C([NH-])=O)cc2ccc(NCC=O)cc21 (3D coordinates assigned)
CC(C)(C)OC(=O)n1c(C([NH-])=O)cc2ccc(NCC=O)cc21 (optimized conformer: 73.12301300416537 kcal/mol)

>  <smiles>  (55) 
CC(C)(C)OC(=O)n1c(C(N)=O)cc2ccc(NCC=O)cc21

>  <score_type>  (55) 
oracle

>  <origin>  (55) 
adg

>  <m_score__min__energy>  (55) 
-6.79

>  <m_primary>  (55) 
energy

$$$$
56:0
     RDKit          3D

 35 36  0  0  0  0  0  0  0  0999 V2000
  148.5050  153.5790  133.4090 C   0  0  0  0  0  0  0  0  0  0  0  0
  148.1840  154.5410  132.3600 N   0  0  0  0  0  0  0  0  0  0  0  0
  147.7980  155.9020  132.6210 C   0  0  0  0  0  0  0  0  0  0  0  0
  148.8050  156.8930  132.7470 C   0  0  0  0  0  0  0  0  0  0  0  0
  148.4720  158.2310  133.0160 C   0  0  0  0  0  0  0  0  0  0  0  0
  147.1250  158.5550  133.1390 C   0  0  0  0  0  0  0  0  0  0  0  0
  146.5270  159.7570  133.4450 C   0  0  0  0  0  0  0  0  0  0  0  0
  145.1600  159.4930  133.4700 C   0  0  0  0  0  0  0  0  0  0  0  0
  144.1340  160.5150  133.7560 C   0  0  0  0  0  0  0  0  0  0  0  0
  142.7790  160.3480  133.3340 N   0  0  0  0  0  0  0  0  0  0  0  0
  144.4670  161.5780  134.3460 O   0  0  0  0  0  0  0  0  0  0  0  0
  144.9210  158.1800  133.1920 N   0  0  0  0  0  0  0  0  0  0  0  0
  143.6610  157.4940  133.2580 C   0  0  0  0  0  0  0  0  0  0  0  0
  142.9010  157.4930  132.2540 O   0  0  0  0  0  0  0  0  0  0  0  0
  143.2610  156.7630  134.4710 C   0  0  0  0  0  0  0  0  0  0  0  0
  144.1280  156.1470  135.1500 O   0  0  0  0  0  0  0  0  0  0  0  0
  141.8850  156.7420  134.8660 N   0  0  0  0  0  0  0  0  0  0  0  0
  141.2670  157.7770  135.6850 C   0  0  0  0  0  0  0  0  0  0  0  0
  141.0170  159.0030  134.8660 C   0  0  0  0  0  0  0  0  0  0  0  0
  141.1090  160.1450  135.3880 O   0  0  0  0  0  0  0  0  0  0  0  0
  140.6480  158.8830  133.5320 O   0  0  0  0  0  0  0  0  0  0  0  0
  146.1350  157.6180  132.9990 C   0  0  0  0  0  0  0  0  0  0  0  0
  146.4380  156.2730  132.7610 C   0  0  0  0  0  0  0  0  0  0  0  0
  148.3497  154.0445  134.3935 H   0  0  0  0  0  0  0  0  0  0  0  0
  147.8517  152.6993  133.3122 H   0  0  0  0  0  0  0  0  0  0  0  0
  149.5556  153.2679  133.3122 H   0  0  0  0  0  0  0  0  0  0  0  0
  148.2340  154.2110  131.3700 H   0  0  0  0  0  0  0  0  0  0  0  0
  149.8617  156.6098  132.6324 H   0  0  0  0  0  0  0  0  0  0  0  0
  149.2523  158.9985  133.1259 H   0  0  0  0  0  0  0  0  0  0  0  0
  147.0236  160.7209  133.6303 H   0  0  0  0  0  0  0  0  0  0  0  0
  142.0590  161.0570  133.5980 H   0  0  0  0  0  0  0  0  0  0  0  0
  142.5060  159.5860  132.6770 H   0  0  0  0  0  0  0  0  0  0  0  0
  140.3113  157.4040  136.0818 H   0  0  0  0  0  0  0  0  0  0  0  0
  141.9442  158.0309  136.5138 H   0  0  0  0  0  0  0  0  0  0  0  0
  145.6388  155.5211  132.6844 H   0  0  0  0  0  0  0  0  0  0  0  0
  1  2  1  0
  2  3  1  0
  3  4  2  0
  4  5  1  0
  5  6  2  0
  6  7  1  0
  7  8  2  0
  8  9  1  0
  9 10  1  0
  9 11  2  0
  8 12  1  0
 12 13  1  0
 13 14  2  0
 13 15  1  0
 15 16  2  0
 15 17  1  0
 17 18  1  0
 18 19  1  0
 19 20  2  0
 19 21  1  0
 12 22  1  0
 22 23  2  0
 23  3  1  0
 22  6  1  0
  1 24  1  0
  1 25  1  0
  1 26  1  0
  2 27  1  0
  4 28  1  0
  5 29  1  0
  7 30  1  0
 10 31  1  0
 10 32  1  0
 18 33  1  0
 18 34  1  0
 23 35  1  0
M  CHG  2  17  -1  21  -1
M  END
>  <UniqueID>  (56) 
54

>  <SMILES>  (56) 
CNc1ccc2cc(C(N)=O)n(C(=O)C(=O)[N-]CC(=O)[O-])c2c1

>  <Energy>  (56) 
70.6617650442969

>  <Genealogy>  (56) 
CNc1ccc2cc(C(N)=O)n(C(=O)C(=O)[N-]CC(=O)[O-])c2c1 (protonated)
CNc1ccc2cc(C(N)=O)n(C(=O)C(=O)[N-]CC(=O)[O-])c2c1 (3D coordinates assigned)
CNc1ccc2cc(C(N)=O)n(C(=O)C(=O)[N-]CC(=O)[O-])c2c1 (optimized conformer: 70.6617650442969 kcal/mol)

>  <smiles>  (56) 
CNc1ccc2cc(C(N)=O)n(C(=O)C(=O)NCC(=O)O)c2c1

>  <score_type>  (56) 
oracle

>  <origin>  (56) 
adg

>  <m_score__min__energy>  (56) 
-6.8399999999999999

>  <m_primary>  (56) 
energy

$$$$
57:0
     RDKit          3D

 43 44  0  0  0  0  0  0  0  0999 V2000
  139.9370  158.2540  132.6180 C   0  0  0  0  0  0  0  0  0  0  0  0
  141.1460  158.4790  133.3080 O   0  0  0  0  0  0  0  0  0  0  0  0
  141.1740  159.7850  133.8560 C   0  0  0  0  0  0  0  0  0  0  0  0
  141.2840  159.7070  135.3740 C   0  0  0  0  0  0  0  0  0  0  0  0
  141.9750  158.5190  135.7510 O   0  0  0  0  0  0  0  0  0  0  0  0
  141.3660  157.4900  136.4730 C   0  0  0  0  0  0  0  0  0  0  0  0
  140.2730  157.6890  137.0730 O   0  0  0  0  0  0  0  0  0  0  0  0
  141.9840  156.2390  136.5190 O   0  0  0  0  0  0  0  0  0  0  0  0
  141.4470  155.0850  135.8760 C   0  0  0  0  0  0  0  0  0  0  0  0
  140.6220  155.4700  134.7810 O   0  0  0  0  0  0  0  0  0  0  0  0
  140.7850  154.9630  133.4860 C   0  0  0  0  0  0  0  0  0  0  0  0
  139.9110  155.2030  132.6110 O   0  0  0  0  0  0  0  0  0  0  0  0
  141.9650  154.2050  133.1510 N   0  0  0  0  0  0  0  0  0  0  0  0
  143.2520  154.6570  133.0920 C   0  0  0  0  0  0  0  0  0  0  0  0
  143.6840  156.0580  133.2260 C   0  0  0  0  0  0  0  0  0  0  0  0
  142.8980  156.9960  133.9610 N   0  0  0  0  0  0  0  0  0  0  0  0
  144.7190  156.4490  132.6250 O   0  0  0  0  0  0  0  0  0  0  0  0
  144.1430  153.6070  132.9120 C   0  0  0  0  0  0  0  0  0  0  0  0
  143.3610  152.4810  132.8270 C   0  0  0  0  0  0  0  0  0  0  0  0
  143.7310  151.1540  132.6340 C   0  0  0  0  0  0  0  0  0  0  0  0
  142.7140  150.1890  132.5690 C   0  0  0  0  0  0  0  0  0  0  0  0
  141.3500  150.5650  132.6700 C   0  0  0  0  0  0  0  0  0  0  0  0
  140.2660  149.5180  132.6260 C   0  0  0  0  0  0  0  0  0  0  0  0
  139.0390  150.0980  132.3560 F   0  0  0  0  0  0  0  0  0  0  0  0
  140.5270  148.5800  131.6420 F   0  0  0  0  0  0  0  0  0  0  0  0
  140.2020  148.8790  133.8510 F   0  0  0  0  0  0  0  0  0  0  0  0
  141.0160  151.9210  132.8910 C   0  0  0  0  0  0  0  0  0  0  0  0
  142.0510  152.8650  132.9700 C   0  0  0  0  0  0  0  0  0  0  0  0
  139.1237  158.1026  133.3430 H   0  0  0  0  0  0  0  0  0  0  0  0
  139.7077  159.1249  131.9864 H   0  0  0  0  0  0  0  0  0  0  0  0
  140.0364  157.3589  131.9864 H   0  0  0  0  0  0  0  0  0  0  0  0
  142.0408  160.3306  133.4548 H   0  0  0  0  0  0  0  0  0  0  0  0
  140.2466  160.3115  133.5862 H   0  0  0  0  0  0  0  0  0  0  0  0
  141.8361  160.5831  135.7449 H   0  0  0  0  0  0  0  0  0  0  0  0
  140.2740  159.6915  135.8094 H   0  0  0  0  0  0  0  0  0  0  0  0
  142.2720  154.4583  135.5063 H   0  0  0  0  0  0  0  0  0  0  0  0
  140.8412  154.5205  136.6001 H   0  0  0  0  0  0  0  0  0  0  0  0
  143.2130  157.9870  134.0580 H   0  0  0  0  0  0  0  0  0  0  0  0
  141.9740  156.7190  134.3630 H   0  0  0  0  0  0  0  0  0  0  0  0
  145.2398  153.6647  132.8507 H   0  0  0  0  0  0  0  0  0  0  0  0
  144.7890  150.8695  132.5353 H   0  0  0  0  0  0  0  0  0  0  0  0
  142.9776  149.1291  132.4383 H   0  0  0  0  0  0  0  0  0  0  0  0
  139.9657  152.2297  132.9989 H   0  0  0  0  0  0  0  0  0  0  0  0
  1  2  1  0
  2  3  1  0
  3  4  1  0
  4  5  1  0
  5  6  1  0
  6  7  2  0
  6  8  1  0
  8  9  1  0
  9 10  1  0
 10 11  1  0
 11 12  2  0
 11 13  1  0
 13 14  1  0
 14 15  1  0
 15 16  1  0
 15 17  2  0
 14 18  2  0
 18 19  1  0
 19 20  2  0
 20 21  1  0
 21 22  2  0
 22 23  1  0
 23 24  1  0
 23 25  1  0
 23 26  1  0
 22 27  1  0
 27 28  2  0
 28 13  1  0
 28 19  1  0
  1 29  1  0
  1 30  1  0
  1 31  1  0
  3 32  1  0
  3 33  1  0
  4 34  1  0
  4 35  1  0
  9 36  1  0
  9 37  1  0
 16 38  1  0
 16 39  1  0
 18 40  1  0
 20 41  1  0
 21 42  1  0
 27 43  1  0
M  END
>  <UniqueID>  (57) 
55

>  <SMILES>  (57) 
COCCOC(=O)OCOC(=O)n1c(C(N)=O)cc2ccc(C(F)(F)F)cc21

>  <Energy>  (57) 
80.20399056715016

>  <Genealogy>  (57) 
COCCOC(=O)OCOC(=O)n1c(C(N)=O)cc2ccc(C(F)(F)F)cc21 (3D coordinates assigned)
COCCOC(=O)OCOC(=O)n1c(C(N)=O)cc2ccc(C(F)(F)F)cc21 (optimized conformer: 80.20399056715016 kcal/mol)

>  <smiles>  (57) 
COCCOC(=O)OCOC(=O)n1c(C(N)=O)cc2ccc(C(F)(F)F)cc21

>  <score_type>  (57) 
oracle

>  <origin>  (57) 
adg

>  <m_score__min__energy>  (57) 
-5.1699999999999999

>  <m_primary>  (57) 
energy

$$$$
58:0
     RDKit          3D

 39 40  0  0  0  0  0  0  0  0999 V2000
  146.0400  154.5220  135.3670 C   0  0  0  0  0  0  0  0  0  0  0  0
  146.9330  155.3000  134.4470 C   0  0  0  0  0  0  0  0  0  0  0  0
  148.0260  154.6570  133.8190 C   0  0  0  0  0  0  0  0  0  0  0  0
  148.8630  155.3600  132.9350 C   0  0  0  0  0  0  0  0  0  0  0  0
  148.5800  156.7040  132.7000 C   0  0  0  0  0  0  0  0  0  0  0  0
  149.2120  157.6140  131.8850 C   0  0  0  0  0  0  0  0  0  0  0  0
  148.4990  158.8040  132.0400 C   0  0  0  0  0  0  0  0  0  0  0  0
  148.8030  160.0350  131.2720 C   0  0  0  0  0  0  0  0  0  0  0  0
  147.7660  160.8580  130.7380 N   0  0  0  0  0  0  0  0  0  0  0  0
  150.0040  160.3860  131.1190 O   0  0  0  0  0  0  0  0  0  0  0  0
  147.4660  158.6350  132.9100 N   0  0  0  0  0  0  0  0  0  0  0  0
  146.4190  159.5690  133.2270 C   0  0  0  0  0  0  0  0  0  0  0  0
  146.6870  160.7990  133.3340 O   0  0  0  0  0  0  0  0  0  0  0  0
  145.0930  159.0890  133.4900 N   0  0  0  0  0  0  0  0  0  0  0  0
  143.9870  159.9290  133.8500 C   0  0  0  0  0  0  0  0  0  0  0  0
  144.0710  161.1800  133.7290 O   0  0  0  0  0  0  0  0  0  0  0  0
  142.7820  159.3340  134.3560 N   0  0  0  0  0  0  0  0  0  0  0  0
  141.5520  160.1030  134.5640 C   0  0  0  0  0  0  0  0  0  0  0  0
  140.6050  159.3840  135.5350 C   0  0  0  0  0  0  0  0  0  0  0  0
  141.3450  158.6910  136.6400 C   0  0  0  0  0  0  0  0  0  0  0  0
  141.3950  159.2090  137.7860 O   0  0  0  0  0  0  0  0  0  0  0  0
  142.0240  157.5030  136.3930 O   0  0  0  0  0  0  0  0  0  0  0  0
  147.5220  157.3440  133.2990 C   0  0  0  0  0  0  0  0  0  0  0  0
  146.6740  156.6640  134.1850 C   0  0  0  0  0  0  0  0  0  0  0  0
  146.3014  154.7497  136.4110 H   0  0  0  0  0  0  0  0  0  0  0  0
  144.9918  154.8000  135.1824 H   0  0  0  0  0  0  0  0  0  0  0  0
  146.1718  153.4456  135.1824 H   0  0  0  0  0  0  0  0  0  0  0  0
  148.2230  153.5946  134.0250 H   0  0  0  0  0  0  0  0  0  0  0  0
  149.7141  154.8650  132.4445 H   0  0  0  0  0  0  0  0  0  0  0  0
  150.0914  157.4410  131.2473 H   0  0  0  0  0  0  0  0  0  0  0  0
  148.0010  161.6120  130.0570 H   0  0  0  0  0  0  0  0  0  0  0  0
  146.8100  160.8480  131.1610 H   0  0  0  0  0  0  0  0  0  0  0  0
  144.9270  158.0630  133.4290 H   0  0  0  0  0  0  0  0  0  0  0  0
  142.7750  158.3140  134.5940 H   0  0  0  0  0  0  0  0  0  0  0  0
  141.8108  161.0884  134.9788 H   0  0  0  0  0  0  0  0  0  0  0  0
  141.0413  160.2116  133.5958 H   0  0  0  0  0  0  0  0  0  0  0  0
  139.9215  160.1243  135.9764 H   0  0  0  0  0  0  0  0  0  0  0  0
  140.0549  158.6199  134.9662 H   0  0  0  0  0  0  0  0  0  0  0  0
  145.8285  157.1795  134.6639 H   0  0  0  0  0  0  0  0  0  0  0  0
  1  2  1  0
  2  3  2  0
  3  4  1  0
  4  5  2  0
  5  6  1  0
  6  7  2  0
  7  8  1  0
  8  9  1  0
  8 10  2  0
  7 11  1  0
 11 12  1  0
 12 13  2  0
 12 14  1  0
 14 15  1  0
 15 16  2  0
 15 17  1  0
 17 18  1  0
 18 19  1  0
 19 20  1  0
 20 21  2  0
 20 22  1  0
 11 23  1  0
 23 24  2  0
 24  2  1  0
 23  5  1  0
  1 25  1  0
  1 26  1  0
  1 27  1  0
  3 28  1  0
  4 29  1  0
  6 30  1  0
  9 31  1  0
  9 32  1  0
 14 33  1  0
 17 34  1  0
 18 35  1  0
 18 36  1  0
 19 37  1  0
 19 38  1  0
 24 39  1  0
M  CHG  1  22  -1
M  END
>  <UniqueID>  (58) 
56

>  <SMILES>  (58) 
Cc1ccc2cc(C(N)=O)n(C(=O)NC(=O)NCCC(=O)[O-])c2c1

>  <Energy>  (58) 
77.66292822175774

>  <Genealogy>  (58) 
Cc1ccc2cc(C(N)=O)n(C(=O)NC(=O)NCCC(=O)[O-])c2c1 (protonated)
Cc1ccc2cc(C(N)=O)n(C(=O)NC(=O)NCCC(=O)[O-])c2c1 (3D coordinates assigned)
Cc1ccc2cc(C(N)=O)n(C(=O)NC(=O)NCCC(=O)[O-])c2c1 (optimized conformer: 77.66292822175774 kcal/mol)

>  <smiles>  (58) 
Cc1ccc2cc(C(N)=O)n(C(=O)NC(=O)NCCC(=O)O)c2c1

>  <score_type>  (58) 
oracle

>  <origin>  (58) 
adg

>  <m_score__min__energy>  (58) 
-8.0399999999999991

>  <m_primary>  (58) 
energy

$$$$
59:0
     RDKit          3D

 38 39  0  0  0  0  0  0  0  0999 V2000
  144.1630  154.3300  131.5590 C   0  0  0  0  0  0  0  0  0  0  0  0
  144.1820  155.5730  132.2520 O   0  0  0  0  0  0  0  0  0  0  0  0
  143.6770  155.7190  133.5470 C   0  0  0  0  0  0  0  0  0  0  0  0
  144.2800  155.2170  134.5350 O   0  0  0  0  0  0  0  0  0  0  0  0
  142.3990  156.4680  133.7570 C   0  0  0  0  0  0  0  0  0  0  0  0
  142.5050  157.7880  133.2290 O   0  0  0  0  0  0  0  0  0  0  0  0
  143.5480  158.6630  133.5510 C   0  0  0  0  0  0  0  0  0  0  0  0
  143.3340  159.6660  134.2870 O   0  0  0  0  0  0  0  0  0  0  0  0
  144.8620  158.3960  133.0430 N   0  0  0  0  0  0  0  0  0  0  0  0
  146.0020  159.2360  133.2770 C   0  0  0  0  0  0  0  0  0  0  0  0
  145.8620  160.3740  133.8000 O   0  0  0  0  0  0  0  0  0  0  0  0
  147.3120  158.7920  132.8890 N   0  0  0  0  0  0  0  0  0  0  0  0
  147.8500  157.5530  133.0590 C   0  0  0  0  0  0  0  0  0  0  0  0
  147.2400  156.4430  133.8210 C   0  0  0  0  0  0  0  0  0  0  0  0
  146.5610  155.3740  133.1620 N   0  0  0  0  0  0  0  0  0  0  0  0
  147.2800  156.4630  135.0810 O   0  0  0  0  0  0  0  0  0  0  0  0
  149.0890  157.4640  132.4300 C   0  0  0  0  0  0  0  0  0  0  0  0
  149.3000  158.7020  131.8660 C   0  0  0  0  0  0  0  0  0  0  0  0
  150.3630  159.1670  131.0970 C   0  0  0  0  0  0  0  0  0  0  0  0
  150.2910  160.4790  130.5990 C   0  0  0  0  0  0  0  0  0  0  0  0
  149.1610  161.2890  130.8660 C   0  0  0  0  0  0  0  0  0  0  0  0
  149.0910  162.6150  130.3350 N   0  0  0  0  0  0  0  0  0  0  0  0
  148.1000  160.7840  131.6450 C   0  0  0  0  0  0  0  0  0  0  0  0
  148.2090  159.4840  132.1530 C   0  0  0  0  0  0  0  0  0  0  0  0
  144.1504  153.5049  132.2863 H   0  0  0  0  0  0  0  0  0  0  0  0
  143.2639  154.2760  130.9275 H   0  0  0  0  0  0  0  0  0  0  0  0
  145.0600  154.2485  130.9275 H   0  0  0  0  0  0  0  0  0  0  0  0
  141.5804  155.9384  133.2477 H   0  0  0  0  0  0  0  0  0  0  0  0
  142.1947  156.5303  134.8361 H   0  0  0  0  0  0  0  0  0  0  0  0
  144.9900  157.5370  132.4620 H   0  0  0  0  0  0  0  0  0  0  0  0
  146.3440  155.4190  132.1420 H   0  0  0  0  0  0  0  0  0  0  0  0
  146.1830  154.5740  133.7160 H   0  0  0  0  0  0  0  0  0  0  0  0
  149.7568  156.5908  132.3918 H   0  0  0  0  0  0  0  0  0  0  0  0
  151.2325  158.5272  130.8857 H   0  0  0  0  0  0  0  0  0  0  0  0
  151.1195  160.8800  129.9967 H   0  0  0  0  0  0  0  0  0  0  0  0
  149.9290  163.2380  130.3410 H   0  0  0  0  0  0  0  0  0  0  0  0
  148.1990  162.9840  129.9360 H   0  0  0  0  0  0  0  0  0  0  0  0
  147.2089  161.3960  131.8486 H   0  0  0  0  0  0  0  0  0  0  0  0
  1  2  1  0
  2  3  1  0
  3  4  2  0
  3  5  1  0
  5  6  1  0
  6  7  1  0
  7  8  2  0
  7  9  1  0
  9 10  1  0
 10 11  2  0
 10 12  1  0
 12 13  1  0
 13 14  1  0
 14 15  1  0
 14 16  2  0
 13 17  2  0
 17 18  1  0
 18 19  2  0
 19 20  1  0
 20 21  2  0
 21 22  1  0
 21 23  1  0
 23 24  2  0
 24 12  1  0
 24 18  1  0
  1 25  1  0
  1 26  1  0
  1 27  1  0
  5 28  1  0
  5 29  1  0
  9 30  1  0
 15 31  1  0
 15 32  1  0
 17 33  1  0
 19 34  1  0
 20 35  1  0
 22 36  1  0
 22 37  1  0
 23 38  1  0
M  END
>  <UniqueID>  (59) 
57

>  <SMILES>  (59) 
COC(=O)COC(=O)NC(=O)n1c(C(N)=O)cc2ccc(N)cc21

>  <Energy>  (59) 
72.33066603736799

>  <Genealogy>  (59) 
COC(=O)COC(=O)NC(=O)n1c(C(N)=O)cc2ccc(N)cc21 (3D coordinates assigned)
COC(=O)COC(=O)NC(=O)n1c(C(N)=O)cc2ccc(N)cc21 (optimized conformer: 72.33066603736799 kcal/mol)

>  <smiles>  (59) 
COC(=O)COC(=O)NC(=O)n1c(C(N)=O)cc2ccc(N)cc21

>  <score_type>  (59) 
oracle

>  <origin>  (59) 
adg

>  <m_score__min__energy>  (59) 
-6.2999999999999998

>  <m_primary>  (59) 
energy

$$$$
60:0
     RDKit          3D

 42 43  0  0  0  0  0  0  0  0999 V2000
  139.8710  156.1460  133.5930 C   0  0  0  0  0  0  0  0  0  0  0  0
  140.4150  157.5110  133.7510 N   0  0  0  0  0  0  0  0  0  0  0  0
  139.7870  158.4110  132.7660 C   0  0  0  0  0  0  0  0  0  0  0  0
  140.1910  158.0280  135.1200 C   0  0  0  0  0  0  0  0  0  0  0  0
  141.2260  159.0450  135.5050 C   0  0  0  0  0  0  0  0  0  0  0  0
  141.3630  159.3750  136.7150 O   0  0  0  0  0  0  0  0  0  0  0  0
  142.0120  159.6340  134.5100 O   0  0  0  0  0  0  0  0  0  0  0  0
  143.4270  159.5090  134.4700 C   0  0  0  0  0  0  0  0  0  0  0  0
  143.7870  158.3980  133.5390 C   0  0  0  0  0  0  0  0  0  0  0  0
  143.0000  158.0820  132.6080 O   0  0  0  0  0  0  0  0  0  0  0  0
  144.9560  157.6080  133.7810 N   0  0  0  0  0  0  0  0  0  0  0  0
  145.0320  156.3980  134.4020 C   0  0  0  0  0  0  0  0  0  0  0  0
  143.9120  155.7080  135.0720 C   0  0  0  0  0  0  0  0  0  0  0  0
  142.5830  156.2060  134.9340 N   0  0  0  0  0  0  0  0  0  0  0  0
  144.1130  154.6640  135.7470 O   0  0  0  0  0  0  0  0  0  0  0  0
  146.3410  155.9200  134.3740 C   0  0  0  0  0  0  0  0  0  0  0  0
  147.0660  156.8870  133.7130 C   0  0  0  0  0  0  0  0  0  0  0  0
  148.4180  156.9270  133.3850 C   0  0  0  0  0  0  0  0  0  0  0  0
  148.8900  158.0450  132.6760 C   0  0  0  0  0  0  0  0  0  0  0  0
  148.0140  159.1030  132.3210 C   0  0  0  0  0  0  0  0  0  0  0  0
  148.5170  160.2690  131.5090 C   0  0  0  0  0  0  0  0  0  0  0  0
  148.0110  160.2280  130.2220 F   0  0  0  0  0  0  0  0  0  0  0  0
  149.8990  160.2470  131.4310 F   0  0  0  0  0  0  0  0  0  0  0  0
  148.1190  161.4480  132.1120 F   0  0  0  0  0  0  0  0  0  0  0  0
  146.6410  159.0140  132.6550 C   0  0  0  0  0  0  0  0  0  0  0  0
  146.2050  157.8940  133.3680 C   0  0  0  0  0  0  0  0  0  0  0  0
  139.6950  155.7043  134.5849 H   0  0  0  0  0  0  0  0  0  0  0  0
  138.9222  156.1913  133.0382 H   0  0  0  0  0  0  0  0  0  0  0  0
  140.5909  155.5263  133.0382 H   0  0  0  0  0  0  0  0  0  0  0  0
  141.4450  157.4870  133.5530 H   0  0  0  0  0  0  0  0  0  0  0  0
  139.2345  159.2029  133.2929 H   0  0  0  0  0  0  0  0  0  0  0  0
  140.5656  158.8647  132.1352 H   0  0  0  0  0  0  0  0  0  0  0  0
  139.0925  157.8368  132.1352 H   0  0  0  0  0  0  0  0  0  0  0  0
  139.1966  158.4961  135.1661 H   0  0  0  0  0  0  0  0  0  0  0  0
  140.2618  157.1837  135.8215 H   0  0  0  0  0  0  0  0  0  0  0  0
  143.8711  160.4496  134.1121 H   0  0  0  0  0  0  0  0  0  0  0  0
  143.8111  159.2911  135.4775 H   0  0  0  0  0  0  0  0  0  0  0  0
  142.4010  157.1460  134.5190 H   0  0  0  0  0  0  0  0  0  0  0  0
  146.7151  154.9732  134.7906 H   0  0  0  0  0  0  0  0  0  0  0  0
  149.0958  156.1094  133.6716 H   0  0  0  0  0  0  0  0  0  0  0  0
  149.9515  158.1003  132.3929 H   0  0  0  0  0  0  0  0  0  0  0  0
  145.9361  159.8056  132.3610 H   0  0  0  0  0  0  0  0  0  0  0  0
  1  2  1  0
  2  3  1  0
  2  4  1  0
  4  5  1  0
  5  6  2  0
  5  7  1  0
  7  8  1  0
  8  9  1  0
  9 10  2  0
  9 11  1  0
 11 12  1  0
 12 13  1  0
 13 14  1  0
 13 15  2  0
 12 16  2  0
 16 17  1  0
 17 18  2  0
 18 19  1  0
 19 20  2  0
 20 21  1  0
 21 22  1  0
 21 23  1  0
 21 24  1  0
 20 25  1  0
 25 26  2  0
 26 11  1  0
 26 17  1  0
  1 27  1  0
  1 28  1  0
  1 29  1  0
  2 30  1  0
  3 31  1  0
  3 32  1  0
  3 33  1  0
  4 34  1  0
  4 35  1  0
  8 36  1  0
  8 37  1  0
 14 38  1  0
 16 39  1  0
 18 40  1  0
 19 41  1  0
 25 42  1  0
M  CHG  2   2   1  14  -1
M  END
>  <UniqueID>  (60) 
58

>  <SMILES>  (60) 
C[NH+](C)CC(=O)OCC(=O)n1c(C([NH-])=O)cc2ccc(C(F)(F)F)cc21

>  <Energy>  (60) 
78.70759715997283

>  <Genealogy>  (60) 
C[NH+](C)CC(=O)OCC(=O)n1c(C([NH-])=O)cc2ccc(C(F)(F)F)cc21 (protonated)
C[NH+](C)CC(=O)OCC(=O)n1c(C([NH-])=O)cc2ccc(C(F)(F)F)cc21 (3D coordinates assigned)
C[NH+](C)CC(=O)OCC(=O)n1c(C([NH-])=O)cc2ccc(C(F)(F)F)cc21 (optimized conformer: 78.70759715997283 kcal/mol)

>  <smiles>  (60) 
CN(C)CC(=O)OCC(=O)n1c(C(N)=O)cc2ccc(C(F)(F)F)cc21

>  <score_type>  (60) 
oracle

>  <origin>  (60) 
adg

>  <m_score__min__energy>  (60) 
-4.5499999999999998

>  <m_primary>  (60) 
energy

$$$$
61:0
     RDKit          3D

 40 41  0  0  0  0  0  0  0  0999 V2000
  142.9320  156.5120  135.3070 C   0  0  0  0  0  0  0  0  0  0  0  0
  142.4810  157.6410  134.4770 N   0  0  2  0  0  0  0  0  0  0  0  0
  141.1300  157.4290  134.0020 C   0  0  0  0  0  0  0  0  0  0  0  0
  140.9040  156.6010  133.1270 O   0  0  0  0  0  0  0  0  0  0  0  0
  139.9840  158.2410  134.5450 C   0  0  0  0  0  0  0  0  0  0  0  0
  140.0620  158.3020  136.0350 C   0  0  0  0  0  0  0  0  0  0  0  0
  139.1070  157.8740  136.7360 O   0  0  0  0  0  0  0  0  0  0  0  0
  141.1680  158.8720  136.6520 O   0  0  0  0  0  0  0  0  0  0  0  0
  143.3440  157.8600  133.3400 C   0  0  0  0  0  0  0  0  0  0  0  0
  142.9980  157.4800  132.1860 O   0  0  0  0  0  0  0  0  0  0  0  0
  144.5260  158.6570  133.4870 N   0  0  0  0  0  0  0  0  0  0  0  0
  144.6140  160.0080  133.6340 C   0  0  0  0  0  0  0  0  0  0  0  0
  143.4750  160.9300  133.8100 C   0  0  0  0  0  0  0  0  0  0  0  0
  142.1820  160.4140  134.1180 N   0  0  0  0  0  0  0  0  0  0  0  0
  143.6270  162.1730  133.6730 O   0  0  0  0  0  0  0  0  0  0  0  0
  145.9500  160.4100  133.6400 C   0  0  0  0  0  0  0  0  0  0  0  0
  146.6800  159.2510  133.4870 C   0  0  0  0  0  0  0  0  0  0  0  0
  148.0560  159.0590  133.4030 C   0  0  0  0  0  0  0  0  0  0  0  0
  148.5280  157.7480  133.2120 C   0  0  0  0  0  0  0  0  0  0  0  0
  147.6190  156.6680  133.1070 C   0  0  0  0  0  0  0  0  0  0  0  0
  148.1130  155.3330  132.9010 C   0  0  0  0  0  0  0  0  0  0  0  0
  148.5250  154.2140  132.7280 C   0  0  0  0  0  0  0  0  0  0  0  0
  149.0260  152.8510  132.5160 C   0  0  0  0  0  0  0  0  0  0  0  0
  148.8850  152.1020  133.6910 O   0  0  0  0  0  0  0  0  0  0  0  0
  146.2310  156.8970  133.1960 C   0  0  0  0  0  0  0  0  0  0  0  0
  145.7940  158.2090  133.3970 C   0  0  0  0  0  0  0  0  0  0  0  0
  142.8274  156.7738  136.3703 H   0  0  0  0  0  0  0  0  0  0  0  0
  142.3187  155.6261  135.0855 H   0  0  0  0  0  0  0  0  0  0  0  0
  143.9869  156.2924  135.0855 H   0  0  0  0  0  0  0  0  0  0  0  0
  142.5070  158.4970  135.0790 H   0  0  0  0  0  0  0  0  0  0  0  0
  140.0339  159.2607  134.1356 H   0  0  0  0  0  0  0  0  0  0  0  0
  139.0353  157.7674  134.2522 H   0  0  0  0  0  0  0  0  0  0  0  0
  142.0510  159.7190  134.8850 H   0  0  0  0  0  0  0  0  0  0  0  0
  146.3381  161.4339  133.7446 H   0  0  0  0  0  0  0  0  0  0  0  0
  148.7527  159.9064  133.4835 H   0  0  0  0  0  0  0  0  0  0  0  0
  149.6098  157.5608  133.1438 H   0  0  0  0  0  0  0  0  0  0  0  0
  148.4523  152.3733  131.7082 H   0  0  0  0  0  0  0  0  0  0  0  0
  150.0901  152.8955  132.2410 H   0  0  0  0  0  0  0  0  0  0  0  0
  147.9450  151.7830  133.7150 H   0  0  0  0  0  0  0  0  0  0  0  0
  145.5134  156.0678  133.1098 H   0  0  0  0  0  0  0  0  0  0  0  0
  1  2  1  0
  2  3  1  0
  3  4  2  0
  3  5  1  0
  5  6  1  0
  6  7  2  0
  6  8  1  0
  2  9  1  0
  9 10  2  0
  9 11  1  0
 11 12  1  0
 12 13  1  0
 13 14  1  0
 13 15  2  0
 12 16  2  0
 16 17  1  0
 17 18  2  0
 18 19  1  0
 19 20  2  0
 20 21  1  0
 21 22  3  0
 22 23  1  0
 23 24  1  0
 20 25  1  0
 25 26  2  0
 26 11  1  0
 26 17  1  0
  1 27  1  0
  1 28  1  0
  1 29  1  0
  2 30  1  1
  5 31  1  0
  5 32  1  0
 14 33  1  0
 16 34  1  0
 18 35  1  0
 19 36  1  0
 23 37  1  0
 23 38  1  0
 24 39  1  0
 25 40  1  0
M  CHG  3   2   1   8  -1  14  -1
M  END
>  <UniqueID>  (61) 
59

>  <SMILES>  (61) 
C[NH+](C(=O)CC(=O)[O-])C(=O)n1c(C([NH-])=O)cc2ccc(C#CCO)cc21

>  <Energy>  (61) 
74.05956279857946

>  <Genealogy>  (61) 
C[NH+](C(=O)CC(=O)[O-])C(=O)n1c(C([NH-])=O)cc2ccc(C#CCO)cc21 (protonated)
C[NH+](C(=O)CC(=O)[O-])C(=O)n1c(C([NH-])=O)cc2ccc(C#CCO)cc21 (3D coordinates assigned)
C[NH+](C(=O)CC(=O)[O-])C(=O)n1c(C([NH-])=O)cc2ccc(C#CCO)cc21 (optimized conformer: 74.05956279857946 kcal/mol)

>  <smiles>  (61) 
CN(C(=O)CC(=O)O)C(=O)n1c(C(N)=O)cc2ccc(C#CCO)cc21

>  <score_type>  (61) 
oracle

>  <origin>  (61) 
adg

>  <m_score__min__energy>  (61) 
-7.1699999999999999

>  <m_primary>  (61) 
energy

$$$$
62:0
     RDKit          3D

 36 37  0  0  0  0  0  0  0  0999 V2000
  138.9399  161.4812  131.0146 H   0  0  0  0  0  0  0  0  0  0  0  0
  138.8830  160.5090  131.5260 C   0  0  0  0  0  0  0  0  0  0  0  0
  137.8980  159.5420  131.0110 C   0  0  0  0  0  0  0  0  0  0  0  0
  136.7190  159.8870  130.7360 O   0  0  0  0  0  0  0  0  0  0  0  0
  138.3040  158.2410  130.7420 O   0  0  0  0  0  0  0  0  0  0  0  0
  139.7180  160.3170  132.5600 C   0  0  0  0  0  0  0  0  0  0  0  0
  140.2800  161.1944  132.9124 H   0  0  0  0  0  0  0  0  0  0  0  0
  139.9570  159.0430  133.2720 C   0  0  0  0  0  0  0  0  0  0  0  0
  139.0230  158.5700  133.9740 O   0  0  0  0  0  0  0  0  0  0  0  0
  141.2310  158.3710  133.2580 N   0  0  0  0  0  0  0  0  0  0  0  0
  141.4490  157.0250  133.2500 C   0  0  0  0  0  0  0  0  0  0  0  0
  140.4150  155.9750  133.1240 C   0  0  0  0  0  0  0  0  0  0  0  0
  140.7180  154.7790  133.3780 O   0  0  0  0  0  0  0  0  0  0  0  0
  139.0920  156.2760  132.6740 N   0  0  0  0  0  0  0  0  0  0  0  0
  138.8480  157.2120  132.2850 H   0  0  0  0  0  0  0  0  0  0  0  0
  138.3680  155.5230  132.6430 H   0  0  0  0  0  0  0  0  0  0  0  0
  142.8070  156.7460  133.3800 C   0  0  0  0  0  0  0  0  0  0  0  0
  143.2852  155.7557  133.4047 H   0  0  0  0  0  0  0  0  0  0  0  0
  143.4230  157.9720  133.4710 C   0  0  0  0  0  0  0  0  0  0  0  0
  144.7660  158.2850  133.6410 C   0  0  0  0  0  0  0  0  0  0  0  0
  145.5300  157.4947  133.6827 H   0  0  0  0  0  0  0  0  0  0  0  0
  145.1200  159.6370  133.7580 C   0  0  0  0  0  0  0  0  0  0  0  0
  146.1785  159.9108  133.8787 H   0  0  0  0  0  0  0  0  0  0  0  0
  144.1310  160.6610  133.7230 C   0  0  0  0  0  0  0  0  0  0  0  0
  144.5050  162.0570  133.8540 N   0  0  0  0  0  0  0  0  0  0  0  0
  145.7840  162.4310  134.4700 C   0  0  0  0  0  0  0  0  0  0  0  0
  145.6858  162.4023  135.5652 H   0  0  0  0  0  0  0  0  0  0  0  0
  146.5644  161.7234  134.1532 H   0  0  0  0  0  0  0  0  0  0  0  0
  146.0602  163.4475  134.1532 H   0  0  0  0  0  0  0  0  0  0  0  0
  143.6080  163.1180  133.3810 C   0  0  0  0  0  0  0  0  0  0  0  0
  143.1681  163.6383  134.2446 H   0  0  0  0  0  0  0  0  0  0  0  0
  144.1777  163.8353  132.7719 H   0  0  0  0  0  0  0  0  0  0  0  0
  142.8059  162.6756  132.7719 H   0  0  0  0  0  0  0  0  0  0  0  0
  142.7710  160.2910  133.5600 C   0  0  0  0  0  0  0  0  0  0  0  0
  141.9805  161.0559  133.5525 H   0  0  0  0  0  0  0  0  0  0  0  0
  142.4520  158.9370  133.4090 C   0  0  0  0  0  0  0  0  0  0  0  0
  1  2  1  0
  2  3  1  0
  3  4  2  0
  3  5  1  0
  2  6  2  0
  6  7  1  0
  6  8  1  0
  8  9  2  0
  8 10  1  0
 10 11  1  0
 11 12  1  0
 12 13  2  0
 12 14  1  0
 14 15  1  0
 14 16  1  0
 11 17  2  0
 17 18  1  0
 17 19  1  0
 19 20  2  0
 20 21  1  0
 20 22  1  0
 22 23  1  0
 22 24  2  0
 24 25  1  0
 25 26  1  0
 26 27  1  0
 26 28  1  0
 26 29  1  0
 25 30  1  0
 30 31  1  0
 30 32  1  0
 30 33  1  0
 24 34  1  0
 34 35  1  0
 34 36  2  0
 36 10  1  0
 36 19  1  0
M  CHG  1   5  -1
M  END
>  <UniqueID>  (62) 
60

>  <SMILES>  (62) 
CN(C)c1ccc2cc(C(N)=O)n(C(=O)/C=C\C(=O)[O-])c2c1

>  <Energy>  (62) 
82.7991421712851

>  <Genealogy>  (62) 
CN(C)c1ccc2cc(C(N)=O)n(C(=O)/C=C\C(=O)[O-])c2c1 (protonated)
CN(C)c1ccc2cc(C(N)=O)n(C(=O)/C=C\C(=O)[O-])c2c1 (cis-trans isomerization)
CN(C)c1ccc2cc(C(N)=O)n(C(=O)/C=C\C(=O)[O-])c2c1 (3D coordinates assigned)
CN(C)c1ccc2cc(C(N)=O)n(C(=O)/C=C\C(=O)[O-])c2c1 (optimized conformer: 82.7991421712851 kcal/mol)

>  <smiles>  (62) 
CN(C)c1ccc2cc(C(N)=O)n(C(=O)/C=C\C(=O)O)c2c1

>  <score_type>  (62) 
oracle

>  <origin>  (62) 
adg

>  <m_score__min__energy>  (62) 
-6.9699999999999998

>  <m_primary>  (62) 
energy

$$$$
63:0
     RDKit          3D

 40 41  0  0  0  0  0  0  0  0999 V2000
  142.1440  154.4380  133.3860 C   0  0  0  0  0  0  0  0  0  0  0  0
  143.5220  154.6690  132.9360 N   0  0  0  0  0  0  0  0  0  0  0  0
  144.2560  153.5660  132.3040 C   0  0  0  0  0  0  0  0  0  0  0  0
  144.1490  155.9670  133.1120 C   0  0  0  0  0  0  0  0  0  0  0  0
  145.5670  156.0910  133.1480 C   0  0  0  0  0  0  0  0  0  0  0  0
  146.1810  157.3410  133.3280 C   0  0  0  0  0  0  0  0  0  0  0  0
  145.3650  158.4570  133.4620 C   0  0  0  0  0  0  0  0  0  0  0  0
  145.6980  159.7760  133.6700 C   0  0  0  0  0  0  0  0  0  0  0  0
  144.4850  160.4570  133.7380 C   0  0  0  0  0  0  0  0  0  0  0  0
  144.3810  161.9250  133.8740 C   0  0  0  0  0  0  0  0  0  0  0  0
  143.2380  162.6060  133.3640 N   0  0  0  0  0  0  0  0  0  0  0  0
  145.2760  162.5820  134.4680 O   0  0  0  0  0  0  0  0  0  0  0  0
  143.4430  159.5900  133.5850 N   0  0  0  0  0  0  0  0  0  0  0  0
  142.0390  159.8840  133.6550 C   0  0  0  0  0  0  0  0  0  0  0  0
  141.5750  160.4960  134.6560 O   0  0  0  0  0  0  0  0  0  0  0  0
  141.1690  159.4680  132.5940 N   0  0  0  0  0  0  0  0  0  0  0  0
  139.7500  159.1330  132.7240 C   0  0  1  0  0  0  0  0  0  0  0  0
  139.1080  158.8310  131.3550 C   0  0  0  0  0  0  0  0  0  0  0  0
  138.2110  159.9470  130.9140 C   0  0  0  0  0  0  0  0  0  0  0  0
  138.6980  160.9820  130.3880 O   0  0  0  0  0  0  0  0  0  0  0  0
  136.8370  159.8530  131.1040 O   0  0  0  0  0  0  0  0  0  0  0  0
  139.5650  158.0070  133.7050 C   0  0  0  0  0  0  0  0  0  0  0  0
  139.1080  158.2200  134.8590 O   0  0  0  0  0  0  0  0  0  0  0  0
  139.8510  156.7050  133.3140 O   0  0  0  0  0  0  0  0  0  0  0  0
  144.0010  158.3700  133.4150 C   0  0  0  0  0  0  0  0  0  0  0  0
  143.3590  157.1370  133.2550 C   0  0  0  0  0  0  0  0  0  0  0  0
  142.1133  154.4329  134.4856 H   0  0  0  0  0  0  0  0  0  0  0  0
  141.4945  155.2398  133.0048 H   0  0  0  0  0  0  0  0  0  0  0  0
  141.7915  153.4682  133.0048 H   0  0  0  0  0  0  0  0  0  0  0  0
  144.6867  152.9188  133.0822 H   0  0  0  0  0  0  0  0  0  0  0  0
  143.5679  152.9788  131.6781 H   0  0  0  0  0  0  0  0  0  0  0  0
  145.0634  153.9739  131.6781 H   0  0  0  0  0  0  0  0  0  0  0  0
  146.1917  155.1930  133.0329 H   0  0  0  0  0  0  0  0  0  0  0  0
  147.2766  157.4337  133.3619 H   0  0  0  0  0  0  0  0  0  0  0  0
  146.7079  160.2020  133.7628 H   0  0  0  0  0  0  0  0  0  0  0  0
  142.2730  162.2650  133.5710 H   0  0  0  0  0  0  0  0  0  0  0  0
  139.2217  160.0115  133.1229 H   0  0  0  0  0  0  0  0  0  0  0  0
  139.9043  158.6955  130.6083 H   0  0  0  0  0  0  0  0  0  0  0  0
  138.5028  157.9174  131.4503 H   0  0  0  0  0  0  0  0  0  0  0  0
  142.2608  157.0758  133.2403 H   0  0  0  0  0  0  0  0  0  0  0  0
  1  2  1  0
  2  3  1  0
  2  4  1  0
  4  5  2  0
  5  6  1  0
  6  7  2  0
  7  8  1  0
  8  9  2  0
  9 10  1  0
 10 11  1  0
 10 12  2  0
  9 13  1  0
 13 14  1  0
 14 15  2  0
 14 16  1  0
 16 17  1  0
 17 18  1  0
 18 19  1  0
 19 20  2  0
 19 21  1  0
 17 22  1  0
 22 23  2  0
 22 24  1  0
 13 25  1  0
 25 26  2  0
 26  4  1  0
 25  7  1  0
  1 27  1  0
  1 28  1  0
  1 29  1  0
  3 30  1  0
  3 31  1  0
  3 32  1  0
  5 33  1  0
  6 34  1  0
  8 35  1  0
 11 36  1  0
 17 37  1  1
 18 38  1  0
 18 39  1  0
 26 40  1  0
M  CHG  4  11  -1  16  -1  21  -1  24  -1
M  END
>  <UniqueID>  (63) 
61

>  <SMILES>  (63) 
CN(C)c1ccc2cc(C([NH-])=O)n(C(=O)[N-][C@@H](CC(=O)[O-])C(=O)[O-])c2c1

>  <Energy>  (63) 
76.64274701133971

>  <Genealogy>  (63) 
CN(C)c1ccc2cc(C([NH-])=O)n(C(=O)[N-][C@@H](CC(=O)[O-])C(=O)[O-])c2c1 (protonated)
CN(C)c1ccc2cc(C([NH-])=O)n(C(=O)[N-][C@@H](CC(=O)[O-])C(=O)[O-])c2c1 (3D coordinates assigned)
CN(C)c1ccc2cc(C([NH-])=O)n(C(=O)[N-][C@@H](CC(=O)[O-])C(=O)[O-])c2c1 (optimized conformer: 76.64274701133971 kcal/mol)

>  <smiles>  (63) 
CN(C)c1ccc2cc(C(N)=O)n(C(=O)N[C@@H](CC(=O)O)C(=O)O)c2c1

>  <score_type>  (63) 
oracle

>  <origin>  (63) 
adg

>  <m_score__min__energy>  (63) 
-6.9900000000000002

>  <m_primary>  (63) 
energy

$$$$
64:0
     RDKit          3D

 31 32  0  0  0  0  0  0  0  0999 V2000
  146.6210  160.4740  132.9640 N   0  0  0  0  0  0  0  0  0  0  0  0
  145.8710  159.3690  133.4710 C   0  0  0  0  0  0  0  0  0  0  0  0
  144.7770  159.5860  134.0550 O   0  0  0  0  0  0  0  0  0  0  0  0
  146.3500  157.9810  133.2820 C   0  0  0  0  0  0  0  0  0  0  0  0
  145.5300  156.8580  133.3600 C   0  0  0  0  0  0  0  0  0  0  0  0
  146.3740  155.7800  133.2230 C   0  0  0  0  0  0  0  0  0  0  0  0
  146.0890  154.4170  133.2130 C   0  0  0  0  0  0  0  0  0  0  0  0
  147.1550  153.5220  133.0250 C   0  0  0  0  0  0  0  0  0  0  0  0
  148.4770  154.0020  132.8450 C   0  0  0  0  0  0  0  0  0  0  0  0
  149.6120  153.0430  132.6260 C   0  0  0  0  0  0  0  0  0  0  0  0
  149.5490  152.5310  131.3430 F   0  0  0  0  0  0  0  0  0  0  0  0
  149.5260  152.0050  133.5360 F   0  0  0  0  0  0  0  0  0  0  0  0
  148.7270  155.3930  132.8600 C   0  0  0  0  0  0  0  0  0  0  0  0
  147.6480  156.2610  133.0680 C   0  0  0  0  0  0  0  0  0  0  0  0
  147.6500  157.6120  133.1030 N   0  0  0  0  0  0  0  0  0  0  0  0
  148.7830  158.4730  132.9040 C   0  0  0  0  0  0  0  0  0  0  0  0
  149.0580  159.3600  133.7570 O   0  0  0  0  0  0  0  0  0  0  0  0
  149.5850  158.3150  131.7670 O   0  0  0  0  0  0  0  0  0  0  0  0
  149.3450  158.9960  130.5380 C   0  0  0  0  0  0  0  0  0  0  0  0
  148.6550  160.2980  130.7900 C   0  0  0  0  0  0  0  0  0  0  0  0
  149.2410  161.2090  131.4310 O   0  0  0  0  0  0  0  0  0  0  0  0
  147.3540  160.4970  130.3450 O   0  0  0  0  0  0  0  0  0  0  0  0
  146.2550  161.4470  133.0690 H   0  0  0  0  0  0  0  0  0  0  0  0
  147.5570  160.3380  132.5230 H   0  0  0  0  0  0  0  0  0  0  0  0
  144.4393  156.8372  133.5011 H   0  0  0  0  0  0  0  0  0  0  0  0
  145.0601  154.0523  133.3482 H   0  0  0  0  0  0  0  0  0  0  0  0
  146.9625  152.4390  133.0173 H   0  0  0  0  0  0  0  0  0  0  0  0
  150.5649  153.5752  132.7629 H   0  0  0  0  0  0  0  0  0  0  0  0
  149.7444  155.7842  132.7119 H   0  0  0  0  0  0  0  0  0  0  0  0
  150.3048  159.1858  130.0353 H   0  0  0  0  0  0  0  0  0  0  0  0
  148.7028  158.3690  129.9020 H   0  0  0  0  0  0  0  0  0  0  0  0
  1  2  1  0
  2  3  2  0
  2  4  1  0
  4  5  2  0
  5  6  1  0
  6  7  2  0
  7  8  1  0
  8  9  2  0
  9 10  1  0
 10 11  1  0
 10 12  1  0
  9 13  1  0
 13 14  2  0
 14 15  1  0
 15 16  1  0
 16 17  2  0
 16 18  1  0
 18 19  1  0
 19 20  1  0
 20 21  2  0
 20 22  1  0
 15  4  1  0
 14  6  1  0
  1 23  1  0
  1 24  1  0
  5 25  1  0
  7 26  1  0
  8 27  1  0
 10 28  1  0
 13 29  1  0
 19 30  1  0
 19 31  1  0
M  CHG  1  22  -1
M  END
>  <UniqueID>  (64) 
62

>  <SMILES>  (64) 
NC(=O)c1cc2ccc(C(F)F)cc2n1C(=O)OCC(=O)[O-]

>  <Energy>  (64) 
67.30590312685219

>  <Genealogy>  (64) 
NC(=O)c1cc2ccc(C(F)F)cc2n1C(=O)OCC(=O)[O-] (protonated)
NC(=O)c1cc2ccc(C(F)F)cc2n1C(=O)OCC(=O)[O-] (3D coordinates assigned)
NC(=O)c1cc2ccc(C(F)F)cc2n1C(=O)OCC(=O)[O-] (optimized conformer: 67.30590312685219 kcal/mol)

>  <smiles>  (64) 
NC(=O)c1cc2ccc(C(F)F)cc2n1C(=O)OCC(=O)O

>  <score_type>  (64) 
oracle

>  <origin>  (64) 
adg

>  <m_score__min__energy>  (64) 
-5.8200000000000003

>  <m_primary>  (64) 
energy

$$$$
65:0
     RDKit          3D

 48 49  0  0  0  0  0  0  0  0999 V2000
  139.9480  147.3640  130.5610 C   0  0  0  0  0  0  0  0  0  0  0  0
  139.6960  148.6740  131.1710 N   0  0  0  0  0  0  0  0  0  0  0  0
  138.3520  149.2640  131.1020 C   0  0  0  0  0  0  0  0  0  0  0  0
  140.7570  149.3170  131.9090 C   0  0  0  0  0  0  0  0  0  0  0  0
  141.7620  148.6380  132.2640 O   0  0  0  0  0  0  0  0  0  0  0  0
  140.6720  150.7650  132.3320 C   0  0  0  0  0  0  0  0  0  0  0  0
  141.5010  151.0640  133.5950 C   0  0  0  0  0  0  0  0  0  0  0  0
  142.6220  152.0910  133.3670 C   0  0  0  0  0  0  0  0  0  0  0  0
  142.4050  153.2940  134.1760 N   0  0  0  0  0  0  0  0  0  0  0  0
  141.5410  154.3790  133.7910 C   0  0  0  0  0  0  0  0  0  0  0  0
  140.2280  154.0830  133.3420 C   0  0  0  0  0  0  0  0  0  0  0  0
  139.3650  155.1050  132.9110 C   0  0  0  0  0  0  0  0  0  0  0  0
  139.8340  156.4140  132.9570 C   0  0  0  0  0  0  0  0  0  0  0  0
  139.2320  157.5860  132.5590 C   0  0  0  0  0  0  0  0  0  0  0  0
  140.1660  158.5900  132.8160 C   0  0  0  0  0  0  0  0  0  0  0  0
  139.9060  160.0270  132.5680 C   0  0  0  0  0  0  0  0  0  0  0  0
  138.7470  160.4550  131.8490 N   0  0  0  0  0  0  0  0  0  0  0  0
  140.7220  160.8930  132.9920 O   0  0  0  0  0  0  0  0  0  0  0  0
  141.2970  158.0550  133.3560 N   0  0  0  0  0  0  0  0  0  0  0  0
  142.4940  158.7320  133.7600 C   0  0  0  0  0  0  0  0  0  0  0  0
  143.4930  158.7460  132.9900 O   0  0  0  0  0  0  0  0  0  0  0  0
  142.5390  159.3930  134.9910 O   0  0  0  0  0  0  0  0  0  0  0  0
  141.3630  159.7300  135.7200 C   0  0  0  0  0  0  0  0  0  0  0  0
  140.9670  158.5740  136.5750 C   0  0  0  0  0  0  0  0  0  0  0  0
  139.9250  157.9160  136.3150 O   0  0  0  0  0  0  0  0  0  0  0  0
  141.7260  158.2400  137.6890 O   0  0  0  0  0  0  0  0  0  0  0  0
  141.0800  156.7240  133.4320 C   0  0  0  0  0  0  0  0  0  0  0  0
  141.9660  155.7280  133.8560 C   0  0  0  0  0  0  0  0  0  0  0  0
  140.0925  146.6130  131.3517 H   0  0  0  0  0  0  0  0  0  0  0  0
  139.0883  147.0786  129.9369 H   0  0  0  0  0  0  0  0  0  0  0  0
  140.8522  147.4180  129.9369 H   0  0  0  0  0  0  0  0  0  0  0  0
  137.9720  149.4308  132.1207 H   0  0  0  0  0  0  0  0  0  0  0  0
  138.4000  150.2238  130.5668 H   0  0  0  0  0  0  0  0  0  0  0  0
  137.6779  148.5791  130.5668 H   0  0  0  0  0  0  0  0  0  0  0  0
  141.0435  151.3943  131.5099 H   0  0  0  0  0  0  0  0  0  0  0  0
  139.6193  150.9819  132.5660 H   0  0  0  0  0  0  0  0  0  0  0  0
  140.8250  151.4535  134.3704 H   0  0  0  0  0  0  0  0  0  0  0  0
  141.9831  150.1218  133.8948 H   0  0  0  0  0  0  0  0  0  0  0  0
  143.5856  151.6394  133.6453 H   0  0  0  0  0  0  0  0  0  0  0  0
  142.6233  152.3783  132.3052 H   0  0  0  0  0  0  0  0  0  0  0  0
  142.6880  153.2320  135.1820 H   0  0  0  0  0  0  0  0  0  0  0  0
  139.8808  153.0393  133.3311 H   0  0  0  0  0  0  0  0  0  0  0  0
  138.3515  154.8773  132.5490 H   0  0  0  0  0  0  0  0  0  0  0  0
  138.2266  157.7058  132.1290 H   0  0  0  0  0  0  0  0  0  0  0  0
  138.1890  161.2730  132.1790 H   0  0  0  0  0  0  0  0  0  0  0  0
  141.5623  160.6058  136.3550 H   0  0  0  0  0  0  0  0  0  0  0  0
  140.5491  159.9666  135.0189 H   0  0  0  0  0  0  0  0  0  0  0  0
  142.9675  155.9863  134.2304 H   0  0  0  0  0  0  0  0  0  0  0  0
  1  2  1  0
  2  3  1  0
  2  4  1  0
  4  5  2  0
  4  6  1  0
  6  7  1  0
  7  8  1  0
  8  9  1  0
  9 10  1  0
 10 11  2  0
 11 12  1  0
 12 13  2  0
 13 14  1  0
 14 15  2  0
 15 16  1  0
 16 17  1  0
 16 18  2  0
 15 19  1  0
 19 20  1  0
 20 21  2  0
 20 22  1  0
 22 23  1  0
 23 24  1  0
 24 25  2  0
 24 26  1  0
 19 27  1  0
 27 28  2  0
 28 10  1  0
 27 13  1  0
  1 29  1  0
  1 30  1  0
  1 31  1  0
  3 32  1  0
  3 33  1  0
  3 34  1  0
  6 35  1  0
  6 36  1  0
  7 37  1  0
  7 38  1  0
  8 39  1  0
  8 40  1  0
  9 41  1  0
 11 42  1  0
 12 43  1  0
 14 44  1  0
 17 45  1  0
 23 46  1  0
 23 47  1  0
 28 48  1  0
M  CHG  2  17  -1  26  -1
M  END
>  <UniqueID>  (65) 
63

>  <SMILES>  (65) 
CN(C)C(=O)CCCNc1ccc2cc(C([NH-])=O)n(C(=O)OCC(=O)[O-])c2c1

>  <Energy>  (65) 
76.00903901247307

>  <Genealogy>  (65) 
CN(C)C(=O)CCCNc1ccc2cc(C([NH-])=O)n(C(=O)OCC(=O)[O-])c2c1 (protonated)
CN(C)C(=O)CCCNc1ccc2cc(C([NH-])=O)n(C(=O)OCC(=O)[O-])c2c1 (3D coordinates assigned)
CN(C)C(=O)CCCNc1ccc2cc(C([NH-])=O)n(C(=O)OCC(=O)[O-])c2c1 (optimized conformer: 76.00903901247307 kcal/mol)

>  <smiles>  (65) 
CN(C)C(=O)CCCNc1ccc2cc(C(N)=O)n(C(=O)OCC(=O)O)c2c1

>  <score_type>  (65) 
oracle

>  <origin>  (65) 
adg

>  <m_score__min__energy>  (65) 
-7.6600000000000001

>  <m_primary>  (65) 
energy

$$$$
66:0
     RDKit          3D

 43 44  0  0  0  0  0  0  0  0999 V2000
  146.7810  157.4620  134.0970 C   0  0  0  0  0  0  0  0  0  0  0  0
  145.3900  157.1630  134.0600 O   0  0  0  0  0  0  0  0  0  0  0  0
  144.8190  156.3460  133.0790 C   0  0  0  0  0  0  0  0  0  0  0  0
  143.6460  156.5660  132.6690 O   0  0  0  0  0  0  0  0  0  0  0  0
  145.5750  155.1700  132.5430 C   0  0  0  0  0  0  0  0  0  0  0  0
  145.2130  153.9700  133.2250 O   0  0  0  0  0  0  0  0  0  0  0  0
  144.5470  152.9020  132.6100 C   0  0  0  0  0  0  0  0  0  0  0  0
  145.1740  152.1050  131.8620 O   0  0  0  0  0  0  0  0  0  0  0  0
  143.1070  152.7180  132.8450 C   0  0  0  0  0  0  0  0  0  0  0  0
  142.6580  151.5460  132.9720 O   0  0  0  0  0  0  0  0  0  0  0  0
  142.2280  153.8520  132.9340 N   0  0  0  0  0  0  0  0  0  0  0  0
  140.8110  153.7520  133.1640 C   0  0  0  0  0  0  0  0  0  0  0  0
  140.2590  152.6220  133.2650 O   0  0  0  0  0  0  0  0  0  0  0  0
  139.9810  154.9670  133.2690 C   0  0  0  0  0  0  0  0  0  0  0  0
  138.7530  154.9150  132.9910 O   0  0  0  0  0  0  0  0  0  0  0  0
  140.5530  156.2120  133.7030 N   0  0  0  0  0  0  0  0  0  0  0  0
  141.4280  156.4050  134.7290 C   0  0  0  0  0  0  0  0  0  0  0  0
  142.0580  155.3270  135.5260 C   0  0  0  0  0  0  0  0  0  0  0  0
  143.3900  154.8890  135.2460 N   0  0  0  0  0  0  0  0  0  0  0  0
  141.4160  154.7710  136.4550 O   0  0  0  0  0  0  0  0  0  0  0  0
  141.6960  157.7650  134.8880 C   0  0  0  0  0  0  0  0  0  0  0  0
  140.9440  158.4000  133.9260 C   0  0  0  0  0  0  0  0  0  0  0  0
  140.8180  159.7570  133.6380 C   0  0  0  0  0  0  0  0  0  0  0  0
  139.9440  160.1310  132.6020 C   0  0  0  0  0  0  0  0  0  0  0  0
  139.2040  159.1520  131.8950 C   0  0  0  0  0  0  0  0  0  0  0  0
  138.2970  159.5610  130.7730 C   0  0  0  0  0  0  0  0  0  0  0  0
  139.3670  157.7850  132.2060 C   0  0  0  0  0  0  0  0  0  0  0  0
  140.2590  157.4410  133.2270 C   0  0  0  0  0  0  0  0  0  0  0  0
  147.1130  157.5334  135.1433 H   0  0  0  0  0  0  0  0  0  0  0  0
  147.3413  156.6638  133.5882 H   0  0  0  0  0  0  0  0  0  0  0  0
  146.9638  158.4200  133.5882 H   0  0  0  0  0  0  0  0  0  0  0  0
  145.3497  155.0562  131.4723 H   0  0  0  0  0  0  0  0  0  0  0  0
  146.6497  155.3473  132.6963 H   0  0  0  0  0  0  0  0  0  0  0  0
  142.6440  154.8060  132.8400 H   0  0  0  0  0  0  0  0  0  0  0  0
  143.8070  154.1030  135.7920 H   0  0  0  0  0  0  0  0  0  0  0  0
  143.9830  155.3680  134.5330 H   0  0  0  0  0  0  0  0  0  0  0  0
  142.3661  158.2308  135.6256 H   0  0  0  0  0  0  0  0  0  0  0  0
  141.3842  160.5120  134.2031 H   0  0  0  0  0  0  0  0  0  0  0  0
  139.8340  161.1932  132.3383 H   0  0  0  0  0  0  0  0  0  0  0  0
  137.3679  159.9800  131.1867 H   0  0  0  0  0  0  0  0  0  0  0  0
  138.7981  160.3203  130.1546 H   0  0  0  0  0  0  0  0  0  0  0  0
  138.0597  158.6828  130.1546 H   0  0  0  0  0  0  0  0  0  0  0  0
  138.8076  157.0110  131.6601 H   0  0  0  0  0  0  0  0  0  0  0  0
  1  2  1  0
  2  3  1  0
  3  4  2  0
  3  5  1  0
  5  6  1  0
  6  7  1  0
  7  8  2  0
  7  9  1  0
  9 10  2  0
  9 11  1  0
 11 12  1  0
 12 13  2  0
 12 14  1  0
 14 15  2  0
 14 16  1  0
 16 17  1  0
 17 18  1  0
 18 19  1  0
 18 20  2  0
 17 21  2  0
 21 22  1  0
 22 23  2  0
 23 24  1  0
 24 25  2  0
 25 26  1  0
 25 27  1  0
 27 28  2  0
 28 16  1  0
 28 22  1  0
  1 29  1  0
  1 30  1  0
  1 31  1  0
  5 32  1  0
  5 33  1  0
 11 34  1  0
 19 35  1  0
 19 36  1  0
 21 37  1  0
 23 38  1  0
 24 39  1  0
 26 40  1  0
 26 41  1  0
 26 42  1  0
 27 43  1  0
M  END
>  <UniqueID>  (66) 
64

>  <SMILES>  (66) 
COC(=O)COC(=O)C(=O)NC(=O)C(=O)n1c(C(N)=O)cc2ccc(C)cc21

>  <Energy>  (66) 
76.76814264253035

>  <Genealogy>  (66) 
COC(=O)COC(=O)C(=O)NC(=O)C(=O)n1c(C(N)=O)cc2ccc(C)cc21 (3D coordinates assigned)
COC(=O)COC(=O)C(=O)NC(=O)C(=O)n1c(C(N)=O)cc2ccc(C)cc21 (optimized conformer: 76.76814264253035 kcal/mol)

>  <smiles>  (66) 
COC(=O)COC(=O)C(=O)NC(=O)C(=O)n1c(C(N)=O)cc2ccc(C)cc21

>  <score_type>  (66) 
oracle

>  <origin>  (66) 
adg

>  <m_score__min__energy>  (66) 
-7.8300000000000001

>  <m_primary>  (66) 
energy

$$$$
67:0
     RDKit          3D

 43 44  0  0  0  0  0  0  0  0999 V2000
  145.1440  152.6850  132.7920 C   0  0  0  0  0  0  0  0  0  0  0  0
  145.3710  153.5020  133.9350 O   0  0  0  0  0  0  0  0  0  0  0  0
  144.8450  154.7920  134.0560 C   0  0  0  0  0  0  0  0  0  0  0  0
  145.2040  155.5460  135.0020 O   0  0  0  0  0  0  0  0  0  0  0  0
  143.9000  155.3020  133.0100 C   0  0  0  0  0  0  0  0  0  0  0  0
  144.4870  155.1730  131.7620 F   0  0  0  0  0  0  0  0  0  0  0  0
  142.7450  154.5360  133.0140 F   0  0  0  0  0  0  0  0  0  0  0  0
  143.5880  156.7550  133.2800 C   0  0  0  0  0  0  0  0  0  0  0  0
  142.2880  157.1600  133.6850 C   0  0  0  0  0  0  0  0  0  0  0  0
  142.0130  158.5090  133.9730 C   0  0  0  0  0  0  0  0  0  0  0  0
  143.0570  159.4230  133.8740 C   0  0  0  0  0  0  0  0  0  0  0  0
  143.0690  160.7820  134.0960 C   0  0  0  0  0  0  0  0  0  0  0  0
  144.3850  161.1820  133.8700 C   0  0  0  0  0  0  0  0  0  0  0  0
  144.8660  162.5610  134.0960 C   0  0  0  0  0  0  0  0  0  0  0  0
  145.9430  162.7970  135.0000 N   0  0  0  0  0  0  0  0  0  0  0  0
  144.3610  163.5320  133.4720 O   0  0  0  0  0  0  0  0  0  0  0  0
  145.1530  160.1130  133.5130 N   0  0  0  0  0  0  0  0  0  0  0  0
  146.5480  160.0950  133.1740 C   0  0  0  0  0  0  0  0  0  0  0  0
  147.2930  161.0460  133.5330 O   0  0  0  0  0  0  0  0  0  0  0  0
  147.0550  159.0270  132.4180 O   0  0  0  0  0  0  0  0  0  0  0  0
  148.1680  158.1900  132.7610 C   0  0  0  0  0  0  0  0  0  0  0  0
  147.8070  156.7040  132.5700 C   0  0  0  0  0  0  0  0  0  0  0  0
  148.4770  158.4380  134.2450 C   0  0  0  0  0  0  0  0  0  0  0  0
  149.4050  158.5630  131.9230 C   0  0  0  0  0  0  0  0  0  0  0  0
  144.3250  159.0460  133.5210 C   0  0  0  0  0  0  0  0  0  0  0  0
  144.6220  157.7170  133.2010 C   0  0  0  0  0  0  0  0  0  0  0  0
  144.8625  151.6720  133.1154 H   0  0  0  0  0  0  0  0  0  0  0  0
  144.3316  153.1162  132.1886 H   0  0  0  0  0  0  0  0  0  0  0  0
  146.0624  152.6353  132.1886 H   0  0  0  0  0  0  0  0  0  0  0  0
  141.4878  156.4105  133.7743 H   0  0  0  0  0  0  0  0  0  0  0  0
  141.0034  158.8314  134.2675 H   0  0  0  0  0  0  0  0  0  0  0  0
  142.2202  161.4171  134.3894 H   0  0  0  0  0  0  0  0  0  0  0  0
  146.9300  162.8410  134.6590 H   0  0  0  0  0  0  0  0  0  0  0  0
  147.6908  156.2255  133.5537 H   0  0  0  0  0  0  0  0  0  0  0  0
  146.8635  156.6249  132.0100 H   0  0  0  0  0  0  0  0  0  0  0  0
  148.6090  156.2009  132.0100 H   0  0  0  0  0  0  0  0  0  0  0  0
  147.7693  157.8700  134.8668 H   0  0  0  0  0  0  0  0  0  0  0  0
  149.5037  158.1103  134.4655 H   0  0  0  0  0  0  0  0  0  0  0  0
  148.3793  159.5112  134.4655 H   0  0  0  0  0  0  0  0  0  0  0  0
  150.2398  158.8147  132.5936 H   0  0  0  0  0  0  0  0  0  0  0  0
  149.6887  157.7105  131.2884 H   0  0  0  0  0  0  0  0  0  0  0  0
  149.1701  159.4303  131.2884 H   0  0  0  0  0  0  0  0  0  0  0  0
  145.6377  157.4263  132.8946 H   0  0  0  0  0  0  0  0  0  0  0  0
  1  2  1  0
  2  3  1  0
  3  4  2  0
  3  5  1  0
  5  6  1  0
  5  7  1  0
  5  8  1  0
  8  9  2  0
  9 10  1  0
 10 11  2  0
 11 12  1  0
 12 13  2  0
 13 14  1  0
 14 15  1  0
 14 16  2  0
 13 17  1  0
 17 18  1  0
 18 19  2  0
 18 20  1  0
 20 21  1  0
 21 22  1  0
 21 23  1  0
 21 24  1  0
 17 25  1  0
 25 26  2  0
 26  8  1  0
 25 11  1  0
  1 27  1  0
  1 28  1  0
  1 29  1  0
  9 30  1  0
 10 31  1  0
 12 32  1  0
 15 33  1  0
 22 34  1  0
 22 35  1  0
 22 36  1  0
 23 37  1  0
 23 38  1  0
 23 39  1  0
 24 40  1  0
 24 41  1  0
 24 42  1  0
 26 43  1  0
M  CHG  1  15  -1
M  END
>  <UniqueID>  (67) 
65

>  <SMILES>  (67) 
COC(=O)C(F)(F)c1ccc2cc(C([NH-])=O)n(C(=O)OC(C)(C)C)c2c1

>  <Energy>  (67) 
73.53528201751956

>  <Genealogy>  (67) 
COC(=O)C(F)(F)c1ccc2cc(C([NH-])=O)n(C(=O)OC(C)(C)C)c2c1 (protonated)
COC(=O)C(F)(F)c1ccc2cc(C([NH-])=O)n(C(=O)OC(C)(C)C)c2c1 (3D coordinates assigned)
COC(=O)C(F)(F)c1ccc2cc(C([NH-])=O)n(C(=O)OC(C)(C)C)c2c1 (optimized conformer: 73.53528201751956 kcal/mol)

>  <smiles>  (67) 
COC(=O)C(F)(F)c1ccc2cc(C(N)=O)n(C(=O)OC(C)(C)C)c2c1

>  <score_type>  (67) 
oracle

>  <origin>  (67) 
adg

>  <m_score__min__energy>  (67) 
-6.4100000000000001

>  <m_primary>  (67) 
energy

$$$$
68:0
     RDKit          3D

 39 41  0  0  0  0  0  0  0  0999 V2000
  139.8550  157.4910  136.2750 C   0  0  0  0  0  0  0  0  0  0  0  0
  140.4760  157.7150  134.9530 N   0  0  1  0  0  0  0  0  0  0  0  0
  141.8330  157.2100  134.9160 C   0  0  0  0  0  0  0  0  0  0  0  0
  142.2560  156.4510  135.8330 O   0  0  0  0  0  0  0  0  0  0  0  0
  142.7270  157.5080  133.7750 C   0  0  0  0  0  0  0  0  0  0  0  0
  142.8150  156.6970  132.8130 O   0  0  0  0  0  0  0  0  0  0  0  0
  143.5080  158.7120  133.7560 N   0  0  0  0  0  0  0  0  0  0  0  0
  143.0640  159.9950  133.8480 C   0  0  0  0  0  0  0  0  0  0  0  0
  141.6640  160.4080  134.0880 C   0  0  0  0  0  0  0  0  0  0  0  0
  141.0720  160.2010  135.3680 N   0  0  0  0  0  0  0  0  0  0  0  0
  140.9790  160.9240  133.1660 O   0  0  0  0  0  0  0  0  0  0  0  0
  144.1280  160.8890  133.7320 C   0  0  0  0  0  0  0  0  0  0  0  0
  145.2460  160.1040  133.5600 C   0  0  0  0  0  0  0  0  0  0  0  0
  146.5750  160.4640  133.3630 C   0  0  0  0  0  0  0  0  0  0  0  0
  147.5160  159.4380  133.1730 C   0  0  0  0  0  0  0  0  0  0  0  0
  147.1190  158.0750  133.1920 C   0  0  0  0  0  0  0  0  0  0  0  0
  148.1250  156.9850  132.9280 C   0  0  0  0  0  0  0  0  0  0  0  0
  149.2600  157.5380  132.3660 F   0  0  0  0  0  0  0  0  0  0  0  0
  147.6050  156.0410  132.0590 F   0  0  0  0  0  0  0  0  0  0  0  0
  148.4720  156.3440  134.1060 F   0  0  0  0  0  0  0  0  0  0  0  0
  145.7530  157.7520  133.3680 C   0  0  0  0  0  0  0  0  0  0  0  0
  144.8440  158.7940  133.5740 C   0  0  0  0  0  0  0  0  0  0  0  0
  139.7350  157.2200  133.7610 C   0  0  0  0  0  0  0  0  0  0  0  0
  138.3790  157.8720  133.4990 C   0  0  0  0  0  0  0  0  0  0  0  0
  139.5410  158.1410  132.5530 C   0  0  0  0  0  0  0  0  0  0  0  0
  140.5737  157.7502  137.0664 H   0  0  0  0  0  0  0  0  0  0  0  0
  138.9598  158.1229  136.3714 H   0  0  0  0  0  0  0  0  0  0  0  0
  139.5693  156.4331  136.3714 H   0  0  0  0  0  0  0  0  0  0  0  0
  140.5200  158.7550  134.8480 H   0  0  0  0  0  0  0  0  0  0  0  0
  140.0890  159.8620  135.4550 H   0  0  0  0  0  0  0  0  0  0  0  0
  144.0835  161.9875  133.7698 H   0  0  0  0  0  0  0  0  0  0  0  0
  146.8803  161.5208  133.3562 H   0  0  0  0  0  0  0  0  0  0  0  0
  148.5730  159.6939  133.0076 H   0  0  0  0  0  0  0  0  0  0  0  0
  145.4141  156.7058  133.3433 H   0  0  0  0  0  0  0  0  0  0  0  0
  140.1231  156.1977  133.8808 H   0  0  0  0  0  0  0  0  0  0  0  0
  137.5297  157.2579  133.1650 H   0  0  0  0  0  0  0  0  0  0  0  0
  137.6942  158.5017  134.0859 H   0  0  0  0  0  0  0  0  0  0  0  0
  139.5315  157.7204  131.5366 H   0  0  0  0  0  0  0  0  0  0  0  0
  140.0430  159.0438  132.1747 H   0  0  0  0  0  0  0  0  0  0  0  0
  1  2  1  0
  2  3  1  0
  3  4  2  0
  3  5  1  0
  5  6  2  0
  5  7  1  0
  7  8  1  0
  8  9  1  0
  9 10  1  0
  9 11  2  0
  8 12  2  0
 12 13  1  0
 13 14  2  0
 14 15  1  0
 15 16  2  0
 16 17  1  0
 17 18  1  0
 17 19  1  0
 17 20  1  0
 16 21  1  0
 21 22  2  0
  2 23  1  0
 23 24  1  0
 24 25  1  0
 22  7  1  0
 25 23  1  0
 22 13  1  0
  1 26  1  0
  1 27  1  0
  1 28  1  0
  2 29  1  6
 10 30  1  0
 12 31  1  0
 14 32  1  0
 15 33  1  0
 21 34  1  0
 23 35  1  0
 24 36  1  0
 24 37  1  0
 25 38  1  0
 25 39  1  0
M  CHG  2   2   1  10  -1
M  END
>  <UniqueID>  (68) 
66

>  <SMILES>  (68) 
C[N@@H+](C(=O)C(=O)n1c(C([NH-])=O)cc2ccc(C(F)(F)F)cc21)C1CC1

>  <Energy>  (68) 
355.3722956388792

>  <Genealogy>  (68) 
C[NH+](C(=O)C(=O)n1c(C([NH-])=O)cc2ccc(C(F)(F)F)cc21)C1CC1 (protonated)
C[N@@H+](C(=O)C(=O)n1c(C([NH-])=O)cc2ccc(C(F)(F)F)cc21)C1CC1 (chirality)
C[N@@H+](C(=O)C(=O)n1c(C([NH-])=O)cc2ccc(C(F)(F)F)cc21)C1CC1 (3D coordinates assigned)
C[N@@H+](C(=O)C(=O)n1c(C([NH-])=O)cc2ccc(C(F)(F)F)cc21)C1CC1 (nonaromatic ring conformer: 355.3722956388792 kcal/mol)

>  <smiles>  (68) 
CN(C(=O)C(=O)n1c(C(N)=O)cc2ccc(C(F)(F)F)cc21)C1CC1

>  <score_type>  (68) 
oracle

>  <origin>  (68) 
adg

>  <m_score__min__energy>  (68) 
-5.5300000000000002

>  <m_primary>  (68) 
energy

$$$$
69:0
     RDKit          3D

109115  0  0  0  0  0  0  0  0999 V2000
  143.2420  160.0700  133.3220 C   0  0  0  0  0  0  0  0  0  0  0  0
  144.1850  161.1820  133.6670 C   0  0  0  0  0  0  0  0  0  0  0  0
  143.7330  162.4550  133.8450 N   0  0  0  0  0  0  0  0  0  0  0  0
  144.7260  163.3280  134.1080 C   0  0  0  0  0  0  0  0  0  0  0  0
  146.2150  162.5580  134.1240 S   0  0  0  0  0  0  0  0  0  0  0  0
  145.5700  161.0350  133.8020 C   0  0  0  0  0  0  0  0  0  0  0  0
  146.3650  159.8080  133.5980 C   0  0  0  0  0  0  0  0  0  0  0  0
  147.5690  159.8430  132.8710 C   0  0  0  0  0  0  0  0  0  0  0  0
  148.3390  158.6850  132.7270 C   0  0  0  0  0  0  0  0  0  0  0  0
  147.9200  157.4790  133.3110 C   0  0  0  0  0  0  0  0  0  0  0  0
  148.7820  156.2550  133.2000 C   0  0  0  0  0  0  0  0  0  0  0  0
  148.2050  155.3250  132.2380 N   0  0  0  0  0  0  0  0  0  0  0  0
  148.4460  153.9120  132.2430 C   0  0  0  0  0  0  0  0  0  0  0  0
  149.2670  153.4360  131.4210 O   0  0  0  0  0  0  0  0  0  0  0  0
  147.7930  153.0060  133.2700 C   0  0  2  0  0  0  0  0  0  0  0  0
  148.8150  152.0250  133.8430 C   0  0  0  0  0  0  0  0  0  0  0  0
  148.6330  150.7500  133.0300 C   0  0  1  0  0  0  0  0  0  0  0  0
  148.9520  149.6200  133.7980 O   0  0  0  0  0  0  0  0  0  0  0  0
  147.1620  150.7630  132.6210 C   0  0  0  0  0  0  0  0  0  0  0  0
  146.7630  152.1630  132.6630 N   0  0  0  0  0  0  0  0  0  0  0  0
  145.5280  152.6970  132.1430 C   0  0  0  0  0  0  0  0  0  0  0  0
  145.2650  152.5140  130.9210 O   0  0  0  0  0  0  0  0  0  0  0  0
  144.5460  153.5350  132.9540 C   0  0  1  0  0  0  0  0  0  0  0  0
  144.3700  154.9020  132.4250 N   0  0  0  0  0  0  0  0  0  0  0  0
  143.9500  156.1430  133.0110 C   0  0  0  0  0  0  0  0  0  0  0  0
  144.3660  157.2490  132.5880 O   0  0  0  0  0  0  0  0  0  0  0  0
  142.9890  156.1280  134.1220 C   0  0  0  0  0  0  0  0  0  0  0  0
  143.2320  155.7490  135.4290 C   0  0  0  0  0  0  0  0  0  0  0  0
  142.1310  155.9930  136.1690 N   0  0  0  0  0  0  0  0  0  0  0  0
  141.2080  156.4970  135.3640 N   0  0  0  0  0  0  0  0  0  0  0  0
  139.9150  157.0070  135.8210 C   0  0  0  0  0  0  0  0  0  0  0  0
  139.9900  157.3980  137.3050 C   0  0  0  0  0  0  0  0  0  0  0  0
  140.2280  158.7870  137.4640 O   0  0  0  0  0  0  0  0  0  0  0  0
  141.3640  159.0130  138.2710 C   0  0  0  0  0  0  0  0  0  0  0  0
  141.9920  157.6680  138.6390 C   0  0  0  0  0  0  0  0  0  0  0  0
  141.3320  157.0840  139.7660 O   0  0  0  0  0  0  0  0  0  0  0  0
  141.3750  155.7250  140.1200 C   0  0  0  0  0  0  0  0  0  0  0  0
  140.2520  155.1670  140.7350 C   0  0  0  0  0  0  0  0  0  0  0  0
  140.2420  153.8100  141.0640 C   0  0  0  0  0  0  0  0  0  0  0  0
  141.3240  153.0350  140.7850 N   0  0  0  0  0  0  0  0  0  0  0  0
  142.4460  153.5370  140.1990 C   0  0  0  0  0  0  0  0  0  0  0  0
  143.5810  152.6260  139.8910 C   0  0  0  0  0  0  0  0  0  0  0  0
  143.7530  151.3990  140.5900 C   0  0  0  0  0  0  0  0  0  0  0  0
  144.8420  150.5560  140.3160 C   0  0  0  0  0  0  0  0  0  0  0  0
  145.7490  150.9620  139.3460 C   0  0  0  0  0  0  0  0  0  0  0  0
  146.9100  150.3620  138.9190 C   0  0  0  0  0  0  0  0  0  0  0  0
  147.4360  151.2220  137.9550 C   0  0  0  0  0  0  0  0  0  0  0  0
  148.6590  150.9220  137.1770 C   0  0  0  0  0  0  0  0  0  0  0  0
  148.8560  149.6390  136.5780 N   0  0  0  0  0  0  0  0  0  0  0  0
  149.5670  151.7910  137.0830 O   0  0  0  0  0  0  0  0  0  0  0  0
  146.6360  152.3140  137.8010 N   0  0  0  0  0  0  0  0  0  0  0  0
  146.8600  153.4670  136.9750 C   0  0  0  0  0  0  0  0  0  0  0  0
  146.1470  153.6620  135.9600 O   0  0  0  0  0  0  0  0  0  0  0  0
  147.8500  154.3840  137.2980 O   0  0  0  0  0  0  0  0  0  0  0  0
  145.6040  152.1360  138.6550 C   0  0  0  0  0  0  0  0  0  0  0  0
  144.5370  153.0010  138.9180 C   0  0  0  0  0  0  0  0  0  0  0  0
  142.4930  154.9070  139.8790 C   0  0  0  0  0  0  0  0  0  0  0  0
  141.6950  156.6020  134.1130 C   0  0  0  0  0  0  0  0  0  0  0  0
  143.2630  152.7530  133.4490 C   0  0  0  0  0  0  0  0  0  0  0  0
  143.1820  152.8690  134.9940 C   0  0  0  0  0  0  0  0  0  0  0  0
  141.9670  153.3820  132.8810 C   0  0  0  0  0  0  0  0  0  0  0  0
  143.2950  151.2440  133.1240 C   0  0  0  0  0  0  0  0  0  0  0  0
  146.6930  157.4340  133.9960 C   0  0  0  0  0  0  0  0  0  0  0  0
  145.9230  158.5900  134.1380 C   0  0  0  0  0  0  0  0  0  0  0  0
  142.8568  159.6157  134.2468 H   0  0  0  0  0  0  0  0  0  0  0  0
  142.4035  160.4698  132.7330 H   0  0  0  0  0  0  0  0  0  0  0  0
  143.7735  159.3080  132.7330 H   0  0  0  0  0  0  0  0  0  0  0  0
  144.5787  164.4031  134.2882 H   0  0  0  0  0  0  0  0  0  0  0  0
  147.9059  160.7852  132.4141 H   0  0  0  0  0  0  0  0  0  0  0  0
  149.2772  158.7189  132.1537 H   0  0  0  0  0  0  0  0  0  0  0  0
  149.7884  156.5473  132.8657 H   0  0  0  0  0  0  0  0  0  0  0  0
  148.8431  155.7659  134.1834 H   0  0  0  0  0  0  0  0  0  0  0  0
  147.3700  153.6709  134.0375 H   0  0  0  0  0  0  0  0  0  0  0  0
  149.8360  152.4169  133.7249 H   0  0  0  0  0  0  0  0  0  0  0  0
  148.6668  151.8543  134.9195 H   0  0  0  0  0  0  0  0  0  0  0  0
  149.2970  150.7067  132.1541 H   0  0  0  0  0  0  0  0  0  0  0  0
  148.5270  149.7530  134.6860 H   0  0  0  0  0  0  0  0  0  0  0  0
  147.0410  150.3583  131.6053 H   0  0  0  0  0  0  0  0  0  0  0  0
  146.5459  150.1412  133.2872 H   0  0  0  0  0  0  0  0  0  0  0  0
  145.0264  153.7332  133.9235 H   0  0  0  0  0  0  0  0  0  0  0  0
  144.1716  155.3180  135.8049 H   0  0  0  0  0  0  0  0  0  0  0  0
  139.6430  157.8914  135.2261 H   0  0  0  0  0  0  0  0  0  0  0  0
  139.1560  156.2207  135.6962 H   0  0  0  0  0  0  0  0  0  0  0  0
  139.0376  157.1403  137.7913 H   0  0  0  0  0  0  0  0  0  0  0  0
  140.8250  156.8494  137.7652 H   0  0  0  0  0  0  0  0  0  0  0  0
  142.0942  159.6212  137.7171 H   0  0  0  0  0  0  0  0  0  0  0  0
  141.0682  159.5467  139.1862 H   0  0  0  0  0  0  0  0  0  0  0  0
  141.9090  156.9855  137.7803 H   0  0  0  0  0  0  0  0  0  0  0  0
  143.0478  157.8342  138.8992 H   0  0  0  0  0  0  0  0  0  0  0  0
  139.3774  155.7951  140.9597 H   0  0  0  0  0  0  0  0  0  0  0  0
  139.3590  153.3680  141.5488 H   0  0  0  0  0  0  0  0  0  0  0  0
  143.0213  151.1060  141.3573 H   0  0  0  0  0  0  0  0  0  0  0  0
  144.9724  149.6046  140.8525 H   0  0  0  0  0  0  0  0  0  0  0  0
  147.3337  149.4073  139.2640 H   0  0  0  0  0  0  0  0  0  0  0  0
  149.5710  149.5060  135.8300 H   0  0  0  0  0  0  0  0  0  0  0  0
  144.4429  153.9550  138.3785 H   0  0  0  0  0  0  0  0  0  0  0  0
  143.4050  155.3379  139.4401 H   0  0  0  0  0  0  0  0  0  0  0  0
  141.1557  156.9962  133.2390 H   0  0  0  0  0  0  0  0  0  0  0  0
  143.7541  152.0496  135.4537 H   0  0  0  0  0  0  0  0  0  0  0  0
  143.6036  153.8340  135.3119 H   0  0  0  0  0  0  0  0  0  0  0  0
  142.1308  152.8056  135.3119 H   0  0  0  0  0  0  0  0  0  0  0  0
  141.3179  153.6970  133.7113 H   0  0  0  0  0  0  0  0  0  0  0  0
  142.2234  154.2559  132.2641 H   0  0  0  0  0  0  0  0  0  0  0  0
  141.4391  152.6399  132.2641 H   0  0  0  0  0  0  0  0  0  0  0  0
  143.3072  150.6674  134.0607 H   0  0  0  0  0  0  0  0  0  0  0  0
  142.4023  150.9757  132.5399 H   0  0  0  0  0  0  0  0  0  0  0  0
  144.1982  151.0138  132.5399 H   0  0  0  0  0  0  0  0  0  0  0  0
  146.3381  156.4839  134.4219 H   0  0  0  0  0  0  0  0  0  0  0  0
  144.9646  158.5461  134.6761 H   0  0  0  0  0  0  0  0  0  0  0  0
  1  2  1  0
  2  3  1  0
  3  4  2  0
  4  5  1  0
  5  6  1  0
  6  7  1  0
  7  8  2  0
  8  9  1  0
  9 10  2  0
 10 11  1  0
 11 12  1  0
 12 13  1  0
 13 14  2  0
 13 15  1  0
 15 16  1  0
 16 17  1  0
 17 18  1  0
 17 19  1  0
 19 20  1  0
 20 21  1  0
 21 22  2  0
 21 23  1  0
 23 24  1  0
 24 25  1  0
 25 26  2  0
 25 27  1  0
 27 28  1  0
 28 29  2  0
 29 30  1  0
 30 31  1  0
 31 32  1  0
 32 33  1  0
 33 34  1  0
 34 35  1  0
 35 36  1  0
 36 37  1  0
 37 38  2  0
 38 39  1  0
 39 40  2  0
 40 41  1  0
 41 42  1  0
 42 43  2  0
 43 44  1  0
 44 45  2  0
 45 46  1  0
 46 47  2  0
 47 48  1  0
 48 49  1  0
 48 50  2  0
 47 51  1  0
 51 52  1  0
 52 53  2  0
 52 54  1  0
 51 55  1  0
 55 56  2  0
 41 57  2  0
 30 58  1  0
 23 59  1  0
 59 60  1  0
 59 61  1  0
 59 62  1  0
 10 63  1  0
 63 64  2  0
  6  2  2  0
 64  7  1  0
 20 15  1  0
 58 27  2  0
 57 37  1  0
 56 42  1  0
 55 45  1  0
  1 65  1  0
  1 66  1  0
  1 67  1  0
  4 68  1  0
  8 69  1  0
  9 70  1  0
 11 71  1  0
 11 72  1  0
 15 73  1  1
 16 74  1  0
 16 75  1  0
 17 76  1  6
 18 77  1  0
 19 78  1  0
 19 79  1  0
 23 80  1  1
 28 81  1  0
 31 82  1  0
 31 83  1  0
 32 84  1  0
 32 85  1  0
 34 86  1  0
 34 87  1  0
 35 88  1  0
 35 89  1  0
 38 90  1  0
 39 91  1  0
 43 92  1  0
 44 93  1  0
 46 94  1  0
 49 95  1  0
 56 96  1  0
 57 97  1  0
 58 98  1  0
 60 99  1  0
 60100  1  0
 60101  1  0
 61102  1  0
 61103  1  0
 61104  1  0
 62105  1  0
 62106  1  0
 62107  1  0
 63108  1  0
 64109  1  0
M  CHG  4  12  -1  24  -1  49  -1  54  -1
M  END
>  <UniqueID>  (69) 
67

>  <SMILES>  (69) 
Cc1ncsc1-c1ccc(C[N-]C(=O)[C@@H]2C[C@@H](O)CN2C(=O)[C@@H]([N-]C(=O)c2cnn(CCOCCOc3ccnc(-c4ccc5cc(C([NH-])=O)n(C(=O)[O-])c5c4)c3)c2)C(C)(C)C)cc1

>  <Energy>  (69) 
238.673160347315

>  <Genealogy>  (69) 
Cc1ncsc1-c1ccc(C[N-]C(=O)[C@@H]2C[C@@H](O)CN2C(=O)[C@@H]([N-]C(=O)c2cnn(CCOCCOc3ccnc(-c4ccc5cc(C([NH-])=O)n(C(=O)[O-])c5c4)c3)c2)C(C)(C)C)cc1 (protonated)
Cc1ncsc1-c1ccc(C[N-]C(=O)[C@@H]2C[C@@H](O)CN2C(=O)[C@@H]([N-]C(=O)c2cnn(CCOCCOc3ccnc(-c4ccc5cc(C([NH-])=O)n(C(=O)[O-])c5c4)c3)c2)C(C)(C)C)cc1 (3D coordinates assigned)
Cc1ncsc1-c1ccc(C[N-]C(=O)[C@@H]2C[C@@H](O)CN2C(=O)[C@@H]([N-]C(=O)c2cnn(CCOCCOc3ccnc(-c4ccc5cc(C([NH-])=O)n(C(=O)[O-])c5c4)c3)c2)C(C)(C)C)cc1 (nonaromatic ring conformer: 238.673160347315 kcal/mol)

>  <smiles>  (69) 
Cc1ncsc1-c1ccc(CNC(=O)[C@@H]2C[C@@H](O)CN2C(=O)[C@@H](NC(=O)c2cnn(CCOCCOc3ccnc(-c4ccc5cc(C(N)=O)n(C(=O)O)c5c4)c3)c2)C(C)(C)C)cc1

>  <score_type>  (69) 
oracle

>  <origin>  (69) 
adg

>  <m_score__min__energy>  (69) 
-13.359999999999999

>  <m_primary>  (69) 
energy

$$$$
70:0
     RDKit          3D

 47 49  0  0  0  0  0  0  0  0999 V2000
  150.1590  159.3430  131.1910 C   0  0  0  0  0  0  0  0  0  0  0  0
  148.7060  159.5500  131.2510 N   0  0  0  0  0  0  0  0  0  0  0  0
  148.0950  160.5400  130.3550 C   0  0  0  0  0  0  0  0  0  0  0  0
  147.8890  158.7950  132.1850 C   0  0  0  0  0  0  0  0  0  0  0  0
  146.7600  159.3950  132.8150 C   0  0  0  0  0  0  0  0  0  0  0  0
  145.9520  158.6680  133.7070 C   0  0  0  0  0  0  0  0  0  0  0  0
  146.2890  157.3440  133.9610 C   0  0  0  0  0  0  0  0  0  0  0  0
  145.6680  156.4040  134.7560 C   0  0  0  0  0  0  0  0  0  0  0  0
  146.4270  155.2430  134.6120 C   0  0  0  0  0  0  0  0  0  0  0  0
  146.1500  153.9790  135.3250 C   0  0  0  0  0  0  0  0  0  0  0  0
  147.1500  153.3980  136.1570 N   0  0  0  0  0  0  0  0  0  0  0  0
  145.0430  153.3930  135.1870 O   0  0  0  0  0  0  0  0  0  0  0  0
  147.4700  155.4610  133.7640 N   0  0  0  0  0  0  0  0  0  0  0  0
  148.4410  154.5150  133.2950 C   0  0  0  0  0  0  0  0  0  0  0  0
  149.4230  154.9340  132.6220 O   0  0  0  0  0  0  0  0  0  0  0  0
  148.2150  153.0970  133.4820 N   0  0  1  0  0  0  0  0  0  0  0  0
  147.1150  152.6560  132.6040 C   0  0  0  0  0  0  0  0  0  0  0  0
  149.4750  152.2990  133.3610 C   0  0  2  0  0  0  0  0  0  0  0  0
  149.5350  151.3650  132.1510 C   0  0  0  0  0  0  0  0  0  0  0  0
  149.2180  149.9760  132.6870 C   0  0  0  0  0  0  0  0  0  0  0  0
  149.2200  150.0240  134.1500 N   0  0  0  0  0  0  0  0  0  0  0  0
  149.6830  151.3530  134.5470 C   0  0  0  0  0  0  0  0  0  0  0  0
  147.3730  156.7490  133.3780 C   0  0  0  0  0  0  0  0  0  0  0  0
  148.1930  157.4410  132.4830 C   0  0  0  0  0  0  0  0  0  0  0  0
  150.5636  159.2854  132.2122 H   0  0  0  0  0  0  0  0  0  0  0  0
  150.3740  158.4052  130.6579 H   0  0  0  0  0  0  0  0  0  0  0  0
  150.6274  160.1835  130.6579 H   0  0  0  0  0  0  0  0  0  0  0  0
  147.6101  161.3257  130.9529 H   0  0  0  0  0  0  0  0  0  0  0  0
  148.8729  160.9896  129.7204 H   0  0  0  0  0  0  0  0  0  0  0  0
  147.3443  160.0462  129.7204 H   0  0  0  0  0  0  0  0  0  0  0  0
  146.5164  160.4458  132.5995 H   0  0  0  0  0  0  0  0  0  0  0  0
  145.0796  159.1332  134.1891 H   0  0  0  0  0  0  0  0  0  0  0  0
  144.7669  156.5406  135.3719 H   0  0  0  0  0  0  0  0  0  0  0  0
  148.0080  152.9680  135.7450 H   0  0  0  0  0  0  0  0  0  0  0  0
  147.8720  152.9830  134.4660 H   0  0  0  0  0  0  0  0  0  0  0  0
  146.2685  152.3166  133.2190 H   0  0  0  0  0  0  0  0  0  0  0  0
  146.7938  153.4949  131.9691 H   0  0  0  0  0  0  0  0  0  0  0  0
  147.4623  151.8276  131.9691 H   0  0  0  0  0  0  0  0  0  0  0  0
  150.2349  153.0909  133.2876 H   0  0  0  0  0  0  0  0  0  0  0  0
  148.7912  151.6645  131.3980 H   0  0  0  0  0  0  0  0  0  0  0  0
  150.5199  151.3966  131.6621 H   0  0  0  0  0  0  0  0  0  0  0  0
  148.2276  149.6584  132.3287 H   0  0  0  0  0  0  0  0  0  0  0  0
  149.9734  149.2579  132.3352 H   0  0  0  0  0  0  0  0  0  0  0  0
  149.8870  149.3060  134.5210 H   0  0  0  0  0  0  0  0  0  0  0  0
  149.1043  151.7069  135.4130 H   0  0  0  0  0  0  0  0  0  0  0  0
  150.7460  151.3197  134.8281 H   0  0  0  0  0  0  0  0  0  0  0  0
  149.0581  156.9456  132.0180 H   0  0  0  0  0  0  0  0  0  0  0  0
  1  2  1  0
  2  3  1  0
  2  4  1  0
  4  5  2  0
  5  6  1  0
  6  7  2  0
  7  8  1  0
  8  9  2  0
  9 10  1  0
 10 11  1  0
 10 12  2  0
  9 13  1  0
 13 14  1  0
 14 15  2  0
 14 16  1  0
 16 17  1  0
 16 18  1  0
 18 19  1  0
 19 20  1  0
 20 21  1  0
 21 22  1  0
 13 23  1  0
 23 24  2  0
 24  4  1  0
 23  7  1  0
 22 18  1  0
  1 25  1  0
  1 26  1  0
  1 27  1  0
  3 28  1  0
  3 29  1  0
  3 30  1  0
  5 31  1  0
  6 32  1  0
  8 33  1  0
 11 34  1  0
 16 35  1  1
 17 36  1  0
 17 37  1  0
 17 38  1  0
 18 39  1  6
 19 40  1  0
 19 41  1  0
 20 42  1  0
 20 43  1  0
 21 44  1  0
 22 45  1  0
 22 46  1  0
 24 47  1  0
M  CHG  2  11  -1  16   1
M  END
>  <UniqueID>  (70) 
68

>  <SMILES>  (70) 
CN(C)c1ccc2cc(C([NH-])=O)n(C(=O)[N@@H+](C)[C@@H]3CCNC3)c2c1

>  <Energy>  (70) 
97.96700174639278

>  <Genealogy>  (70) 
CN(C)c1ccc2cc(C([NH-])=O)n(C(=O)[NH+](C)[C@@H]3CCNC3)c2c1 (protonated)
CN(C)c1ccc2cc(C([NH-])=O)n(C(=O)[N@@H+](C)[C@@H]3CCNC3)c2c1 (chirality)
CN(C)c1ccc2cc(C([NH-])=O)n(C(=O)[N@@H+](C)[C@@H]3CCNC3)c2c1 (3D coordinates assigned)
CN(C)c1ccc2cc(C([NH-])=O)n(C(=O)[N@@H+](C)[C@@H]3CCNC3)c2c1 (nonaromatic ring conformer: 97.96700174639278 kcal/mol)

>  <smiles>  (70) 
CN(C)c1ccc2cc(C(N)=O)n(C(=O)N(C)[C@@H]3CCNC3)c2c1

>  <score_type>  (70) 
oracle

>  <origin>  (70) 
adg

>  <m_score__min__energy>  (70) 
-6.8099999999999996

>  <m_primary>  (70) 
energy

$$$$
71:0
     RDKit          3D

 54 56  0  0  0  0  0  0  0  0999 V2000
  144.4500  153.7130  135.4380 C   0  0  0  0  0  0  0  0  0  0  0  0
  145.7860  154.4850  135.3900 C   0  0  1  0  0  0  0  0  0  0  0  0
  146.8690  153.7350  136.1310 C   0  0  0  0  0  0  0  0  0  0  0  0
  146.5870  152.9840  137.1030 O   0  0  0  0  0  0  0  0  0  0  0  0
  148.1880  153.8320  135.7030 O   0  0  0  0  0  0  0  0  0  0  0  0
  146.2320  154.8670  134.0170 N   0  0  1  0  0  0  0  0  0  0  0  0
  145.5710  154.1190  132.9260 C   0  0  0  0  0  0  0  0  0  0  0  0
  146.1820  156.3110  133.8190 C   0  0  0  0  0  0  0  0  0  0  0  0
  147.2870  157.0420  133.2890 C   0  0  0  0  0  0  0  0  0  0  0  0
  147.2070  158.4290  133.0810 C   0  0  0  0  0  0  0  0  0  0  0  0
  146.0120  159.0680  133.3950 C   0  0  0  0  0  0  0  0  0  0  0  0
  145.6610  160.3960  133.2930 C   0  0  0  0  0  0  0  0  0  0  0  0
  144.3400  160.4620  133.7320 C   0  0  0  0  0  0  0  0  0  0  0  0
  143.5310  161.7000  133.7180 C   0  0  0  0  0  0  0  0  0  0  0  0
  142.1070  161.6480  133.7370 N   0  0  0  0  0  0  0  0  0  0  0  0
  144.1050  162.8200  133.6550 O   0  0  0  0  0  0  0  0  0  0  0  0
  143.9000  159.2260  134.1020 N   0  0  0  0  0  0  0  0  0  0  0  0
  142.6250  158.8630  134.6480 C   0  0  0  0  0  0  0  0  0  0  0  0
  142.2440  159.4000  135.7230 O   0  0  0  0  0  0  0  0  0  0  0  0
  141.7640  157.8850  133.9480 C   0  0  0  0  0  0  0  0  0  0  0  0
  141.9920  156.6540  134.1060 O   0  0  0  0  0  0  0  0  0  0  0  0
  140.6650  158.2940  133.1090 N   0  0  0  0  0  0  0  0  0  0  0  0
  140.7320  159.5200  132.3020 C   0  0  0  0  0  0  0  0  0  0  0  0
  139.9080  159.3570  131.0160 C   0  0  0  0  0  0  0  0  0  0  0  0
  138.5010  158.9500  131.2660 N   0  0  0  0  0  0  0  0  0  0  0  0
  137.5840  160.0950  131.1510 C   0  0  0  0  0  0  0  0  0  0  0  0
  138.2770  158.2350  132.5470 C   0  0  0  0  0  0  0  0  0  0  0  0
  139.4990  157.4140  132.9720 C   0  0  0  0  0  0  0  0  0  0  0  0
  144.9320  158.3860  133.8830 C   0  0  0  0  0  0  0  0  0  0  0  0
  144.9810  157.0080  134.1090 C   0  0  0  0  0  0  0  0  0  0  0  0
  144.1606  153.5458  136.4860 H   0  0  0  0  0  0  0  0  0  0  0  0
  143.6694  154.2992  134.9311 H   0  0  0  0  0  0  0  0  0  0  0  0
  144.5681  152.7439  134.9311 H   0  0  0  0  0  0  0  0  0  0  0  0
  145.5931  155.4388  135.9028 H   0  0  0  0  0  0  0  0  0  0  0  0
  147.2420  154.5910  133.9490 H   0  0  0  0  0  0  0  0  0  0  0  0
  144.9004  153.3602  133.3555 H   0  0  0  0  0  0  0  0  0  0  0  0
  144.9874  154.8149  132.3054 H   0  0  0  0  0  0  0  0  0  0  0  0
  146.3335  153.6255  132.3054 H   0  0  0  0  0  0  0  0  0  0  0  0
  148.2171  156.5105  133.0391 H   0  0  0  0  0  0  0  0  0  0  0  0
  148.0632  158.9926  132.6820 H   0  0  0  0  0  0  0  0  0  0  0  0
  146.2893  161.2271  132.9403 H   0  0  0  0  0  0  0  0  0  0  0  0
  141.6010  160.9720  134.3500 H   0  0  0  0  0  0  0  0  0  0  0  0
  140.3306  160.3613  132.8860 H   0  0  0  0  0  0  0  0  0  0  0  0
  141.7807  159.7146  132.0330 H   0  0  0  0  0  0  0  0  0  0  0  0
  139.9034  160.3178  130.4804 H   0  0  0  0  0  0  0  0  0  0  0  0
  140.3788  158.5559  130.4273 H   0  0  0  0  0  0  0  0  0  0  0  0
  137.3048  160.4436  132.1563 H   0  0  0  0  0  0  0  0  0  0  0  0
  138.0819  160.9101  130.6054 H   0  0  0  0  0  0  0  0  0  0  0  0
  136.6798  159.7872  130.6054 H   0  0  0  0  0  0  0  0  0  0  0  0
  138.0562  158.9739  133.3314 H   0  0  0  0  0  0  0  0  0  0  0  0
  137.4362  157.5404  132.4039 H   0  0  0  0  0  0  0  0  0  0  0  0
  139.2940  156.9264  133.9365 H   0  0  0  0  0  0  0  0  0  0  0  0
  139.7076  156.6506  132.2080 H   0  0  0  0  0  0  0  0  0  0  0  0
  144.1046  156.4736  134.5044 H   0  0  0  0  0  0  0  0  0  0  0  0
  1  2  1  0
  2  3  1  0
  3  4  2  0
  3  5  1  0
  2  6  1  0
  6  7  1  0
  6  8  1  0
  8  9  2  0
  9 10  1  0
 10 11  2  0
 11 12  1  0
 12 13  2  0
 13 14  1  0
 14 15  1  0
 14 16  2  0
 13 17  1  0
 17 18  1  0
 18 19  2  0
 18 20  1  0
 20 21  2  0
 20 22  1  0
 22 23  1  0
 23 24  1  0
 24 25  1  0
 25 26  1  0
 25 27  1  0
 27 28  1  0
 17 29  1  0
 29 30  2  0
 30  8  1  0
 29 11  1  0
 28 22  1  0
  1 31  1  0
  1 32  1  0
  1 33  1  0
  2 34  1  1
  6 35  1  1
  7 36  1  0
  7 37  1  0
  7 38  1  0
  9 39  1  0
 10 40  1  0
 12 41  1  0
 15 42  1  0
 23 43  1  0
 23 44  1  0
 24 45  1  0
 24 46  1  0
 26 47  1  0
 26 48  1  0
 26 49  1  0
 27 50  1  0
 27 51  1  0
 28 52  1  0
 28 53  1  0
 30 54  1  0
M  CHG  3   5  -1   6   1  15  -1
M  END
>  <UniqueID>  (71) 
69

>  <SMILES>  (71) 
C[C@@H](C(=O)[O-])[N@@H+](C)c1ccc2cc(C([NH-])=O)n(C(=O)C(=O)N3CCN(C)CC3)c2c1

>  <Energy>  (71) 
112.5932483014404

>  <Genealogy>  (71) 
CC(C(=O)[O-])[NH+](C)c1ccc2cc(C([NH-])=O)n(C(=O)C(=O)N3CCN(C)CC3)c2c1 (protonated)
C[C@@H](C(=O)[O-])[N@@H+](C)c1ccc2cc(C([NH-])=O)n(C(=O)C(=O)N3CCN(C)CC3)c2c1 (chirality)
C[C@@H](C(=O)[O-])[N@@H+](C)c1ccc2cc(C([NH-])=O)n(C(=O)C(=O)N3CCN(C)CC3)c2c1 (3D coordinates assigned)
C[C@@H](C(=O)[O-])[N@@H+](C)c1ccc2cc(C([NH-])=O)n(C(=O)C(=O)N3CCN(C)CC3)c2c1 (nonaromatic ring conformer: 112.5932483014404 kcal/mol)

>  <smiles>  (71) 
CC(C(=O)O)N(C)c1ccc2cc(C(N)=O)n(C(=O)C(=O)N3CCN(C)CC3)c2c1

>  <score_type>  (71) 
oracle

>  <origin>  (71) 
adg

>  <m_score__min__energy>  (71) 
-8.2300000000000004

>  <m_primary>  (71) 
energy

$$$$
72:0
     RDKit          3D

 52 54  0  0  0  0  0  0  0  0999 V2000
  141.0830  159.1040  137.5070 C   0  0  0  0  0  0  0  0  0  0  0  0
  140.6340  157.7750  137.3590 O   0  0  0  0  0  0  0  0  0  0  0  0
  141.7330  156.8820  137.3120 C   0  0  0  0  0  0  0  0  0  0  0  0
  141.3730  155.5990  136.5510 C   0  0  0  0  0  0  0  0  0  0  0  0
  142.5260  155.0550  135.7000 C   0  0  0  0  0  0  0  0  0  0  0  0
  142.1380  154.9370  134.3320 O   0  0  0  0  0  0  0  0  0  0  0  0
  141.3190  155.8540  133.6640 C   0  0  0  0  0  0  0  0  0  0  0  0
  140.4300  155.4540  132.8650 O   0  0  0  0  0  0  0  0  0  0  0  0
  141.5040  157.2620  133.8920 N   0  0  0  0  0  0  0  0  0  0  0  0
  140.5340  158.1850  134.1450 C   0  0  0  0  0  0  0  0  0  0  0  0
  139.1170  157.8920  134.4400 C   0  0  0  0  0  0  0  0  0  0  0  0
  138.2980  157.1840  133.5080 N   0  0  0  0  0  0  0  0  0  0  0  0
  138.6350  158.2240  135.5560 O   0  0  0  0  0  0  0  0  0  0  0  0
  141.0630  159.4720  134.1360 C   0  0  0  0  0  0  0  0  0  0  0  0
  142.4050  159.3090  133.8810 C   0  0  0  0  0  0  0  0  0  0  0  0
  143.4050  160.2640  133.7380 C   0  0  0  0  0  0  0  0  0  0  0  0
  144.7000  159.8200  133.4320 C   0  0  0  0  0  0  0  0  0  0  0  0
  144.9770  158.4400  133.2720 C   0  0  0  0  0  0  0  0  0  0  0  0
  146.3230  158.0330  132.9580 N   0  0  0  0  0  0  0  0  0  0  0  0
  147.5230  158.7570  133.3790 C   0  0  0  0  0  0  0  0  0  0  0  0
  148.6520  158.5540  132.4140 C   0  0  0  0  0  0  0  0  0  0  0  0
  149.2260  157.4350  132.3280 O   0  0  0  0  0  0  0  0  0  0  0  0
  149.0330  159.6100  131.5360 N   0  0  0  0  0  0  0  0  0  0  0  0
  148.6150  160.9950  131.2550 C   0  0  0  0  0  0  0  0  0  0  0  0
  149.5740  161.2240  130.1360 C   0  0  0  0  0  0  0  0  0  0  0  0
  149.9920  159.8230  130.4400 C   0  0  0  0  0  0  0  0  0  0  0  0
  143.9280  157.4970  133.4190 C   0  0  0  0  0  0  0  0  0  0  0  0
  142.6480  157.9670  133.7390 C   0  0  0  0  0  0  0  0  0  0  0  0
  141.1649  159.3464  138.5768 H   0  0  0  0  0  0  0  0  0  0  0  0
  142.0680  159.2135  137.0298 H   0  0  0  0  0  0  0  0  0  0  0  0
  140.3662  159.7885  137.0298 H   0  0  0  0  0  0  0  0  0  0  0  0
  142.5751  157.3757  136.8049 H   0  0  0  0  0  0  0  0  0  0  0  0
  142.0060  156.6109  138.3425 H   0  0  0  0  0  0  0  0  0  0  0  0
  141.0848  154.8289  137.2817 H   0  0  0  0  0  0  0  0  0  0  0  0
  140.5503  155.8475  135.8643 H   0  0  0  0  0  0  0  0  0  0  0  0
  143.3826  155.7411  135.7734 H   0  0  0  0  0  0  0  0  0  0  0  0
  142.7992  154.0576  136.0749 H   0  0  0  0  0  0  0  0  0  0  0  0
  137.2890  157.0190  133.7160 H   0  0  0  0  0  0  0  0  0  0  0  0
  138.7080  156.7550  132.6480 H   0  0  0  0  0  0  0  0  0  0  0  0
  140.5238  160.4170  134.2980 H   0  0  0  0  0  0  0  0  0  0  0  0
  143.1874  161.3352  133.8611 H   0  0  0  0  0  0  0  0  0  0  0  0
  145.5114  160.5534  133.3147 H   0  0  0  0  0  0  0  0  0  0  0  0
  146.4600  157.2140  132.3220 H   0  0  0  0  0  0  0  0  0  0  0  0
  147.2910  159.8307  133.4374 H   0  0  0  0  0  0  0  0  0  0  0  0
  147.8335  158.3704  134.3609 H   0  0  0  0  0  0  0  0  0  0  0  0
  147.5648  161.0653  130.9356 H   0  0  0  0  0  0  0  0  0  0  0  0
  148.6427  161.7071  132.0930 H   0  0  0  0  0  0  0  0  0  0  0  0
  149.1200  161.3796  129.1462 H   0  0  0  0  0  0  0  0  0  0  0  0
  150.2690  162.0752  130.0876 H   0  0  0  0  0  0  0  0  0  0  0  0
  149.8298  159.1383  129.5945 H   0  0  0  0  0  0  0  0  0  0  0  0
  151.0556  159.6544  130.6643 H   0  0  0  0  0  0  0  0  0  0  0  0
  144.1153  156.4214  133.2848 H   0  0  0  0  0  0  0  0  0  0  0  0
  1  2  1  0
  2  3  1  0
  3  4  1  0
  4  5  1  0
  5  6  1  0
  6  7  1  0
  7  8  2  0
  7  9  1  0
  9 10  1  0
 10 11  1  0
 11 12  1  0
 11 13  2  0
 10 14  2  0
 14 15  1  0
 15 16  2  0
 16 17  1  0
 17 18  2  0
 18 19  1  0
 19 20  1  0
 20 21  1  0
 21 22  2  0
 21 23  1  0
 23 24  1  0
 24 25  1  0
 25 26  1  0
 18 27  1  0
 27 28  2  0
 28  9  1  0
 28 15  1  0
 26 23  1  0
  1 29  1  0
  1 30  1  0
  1 31  1  0
  3 32  1  0
  3 33  1  0
  4 34  1  0
  4 35  1  0
  5 36  1  0
  5 37  1  0
 12 38  1  0
 12 39  1  0
 14 40  1  0
 16 41  1  0
 17 42  1  0
 19 43  1  0
 20 44  1  0
 20 45  1  0
 24 46  1  0
 24 47  1  0
 25 48  1  0
 25 49  1  0
 26 50  1  0
 26 51  1  0
 27 52  1  0
M  END
>  <UniqueID>  (72) 
70

>  <SMILES>  (72) 
COCCCOC(=O)n1c(C(N)=O)cc2ccc(NCC(=O)N3CCC3)cc21

>  <Energy>  (72) 
129.16333899174523

>  <Genealogy>  (72) 
COCCCOC(=O)n1c(C(N)=O)cc2ccc(NCC(=O)N3CCC3)cc21 (3D coordinates assigned)
COCCCOC(=O)n1c(C(N)=O)cc2ccc(NCC(=O)N3CCC3)cc21 (nonaromatic ring conformer: 129.16333899174523 kcal/mol)

>  <smiles>  (72) 
COCCCOC(=O)n1c(C(N)=O)cc2ccc(NCC(=O)N3CCC3)cc21

>  <score_type>  (72) 
oracle

>  <origin>  (72) 
adg

>  <m_score__min__energy>  (72) 
-7.5

>  <m_primary>  (72) 
energy

$$$$
73:0
     RDKit          3D

 33 34  0  0  0  0  0  0  0  0999 V2000
  144.6570  156.6390  134.3410 N   0  0  0  0  0  0  0  0  0  0  0  0
  146.0760  156.5250  134.3980 C   0  0  0  0  0  0  0  0  0  0  0  0
  146.5990  155.7440  135.2360 O   0  0  0  0  0  0  0  0  0  0  0  0
  146.9400  157.3510  133.5300 C   0  0  0  0  0  0  0  0  0  0  0  0
  148.2470  157.0030  133.1950 C   0  0  0  0  0  0  0  0  0  0  0  0
  148.7300  158.0610  132.4590 C   0  0  0  0  0  0  0  0  0  0  0  0
  149.9740  158.2400  131.8610 C   0  0  0  0  0  0  0  0  0  0  0  0
  150.1880  159.4210  131.1310 C   0  0  0  0  0  0  0  0  0  0  0  0
  149.1610  160.3870  131.0060 C   0  0  0  0  0  0  0  0  0  0  0  0
  149.3870  161.5790  130.2490 N   0  0  0  0  0  0  0  0  0  0  0  0
  147.9110  160.1720  131.6240 C   0  0  0  0  0  0  0  0  0  0  0  0
  147.7310  158.9950  132.3620 C   0  0  0  0  0  0  0  0  0  0  0  0
  146.6230  158.5730  133.0120 N   0  0  0  0  0  0  0  0  0  0  0  0
  145.3490  159.2350  133.0490 C   0  0  0  0  0  0  0  0  0  0  0  0
  144.3260  158.6450  132.6050 O   0  0  0  0  0  0  0  0  0  0  0  0
  145.2550  160.5210  133.5980 O   0  0  0  0  0  0  0  0  0  0  0  0
  144.0590  161.2130  133.8300 C   0  0  0  0  0  0  0  0  0  0  0  0
  143.9920  162.4650  133.6910 O   0  0  0  0  0  0  0  0  0  0  0  0
  142.8670  160.4690  134.2420 C   0  0  0  0  0  0  0  0  0  0  0  0
  141.7290  160.8670  133.8700 O   0  0  0  0  0  0  0  0  0  0  0  0
  143.0100  159.3280  135.0430 O   0  0  0  0  0  0  0  0  0  0  0  0
  141.9930  158.4030  135.3130 C   0  0  0  0  0  0  0  0  0  0  0  0
  142.0520  157.2220  134.8780 O   0  0  0  0  0  0  0  0  0  0  0  0
  140.8390  158.8170  136.1160 C   0  0  0  0  0  0  0  0  0  0  0  0
  140.9750  159.6840  137.0190 O   0  0  0  0  0  0  0  0  0  0  0  0
  139.5890  158.2570  135.8850 O   0  0  0  0  0  0  0  0  0  0  0  0
  144.1870  157.5610  134.4780 H   0  0  0  0  0  0  0  0  0  0  0  0
  148.7799  156.0785  133.4622 H   0  0  0  0  0  0  0  0  0  0  0  0
  150.7643  157.4810  131.9569 H   0  0  0  0  0  0  0  0  0  0  0  0
  151.1626  159.5967  130.6522 H   0  0  0  0  0  0  0  0  0  0  0  0
  150.3250  162.0380  130.2410 H   0  0  0  0  0  0  0  0  0  0  0  0
  148.6180  162.0110  129.6890 H   0  0  0  0  0  0  0  0  0  0  0  0
  147.0997  160.9087  131.5289 H   0  0  0  0  0  0  0  0  0  0  0  0
  1  2  1  0
  2  3  2  0
  2  4  1  0
  4  5  2  0
  5  6  1  0
  6  7  2  0
  7  8  1  0
  8  9  2  0
  9 10  1  0
  9 11  1  0
 11 12  2  0
 12 13  1  0
 13 14  1  0
 14 15  2  0
 14 16  1  0
 16 17  1  0
 17 18  2  0
 17 19  1  0
 19 20  2  0
 19 21  1  0
 21 22  1  0
 22 23  2  0
 22 24  1  0
 24 25  2  0
 24 26  1  0
 13  4  1  0
 12  6  1  0
  1 27  1  0
  5 28  1  0
  7 29  1  0
  8 30  1  0
 10 31  1  0
 10 32  1  0
 11 33  1  0
M  CHG  2   1  -1  26  -1
M  END
>  <UniqueID>  (73) 
71

>  <SMILES>  (73) 
[NH-]C(=O)c1cc2ccc(N)cc2n1C(=O)OC(=O)C(=O)OC(=O)C(=O)[O-]

>  <Energy>  (73) 
71.04692599565821

>  <Genealogy>  (73) 
[NH-]C(=O)c1cc2ccc(N)cc2n1C(=O)OC(=O)C(=O)OC(=O)C(=O)[O-] (protonated)
[NH-]C(=O)c1cc2ccc(N)cc2n1C(=O)OC(=O)C(=O)OC(=O)C(=O)[O-] (3D coordinates assigned)
[NH-]C(=O)c1cc2ccc(N)cc2n1C(=O)OC(=O)C(=O)OC(=O)C(=O)[O-] (optimized conformer: 71.04692599565821 kcal/mol)

>  <smiles>  (73) 
NC(=O)c1cc2ccc(N)cc2n1C(=O)OC(=O)C(=O)OC(=O)C(=O)O

>  <score_type>  (73) 
oracle

>  <origin>  (73) 
adg

>  <m_score__min__energy>  (73) 
-6.5700000000000003

>  <m_primary>  (73) 
energy

$$$$
74:0
     RDKit          3D

 46 48  0  0  0  0  0  0  0  0999 V2000
  138.7650  160.5670  129.9820 C   0  0  0  0  0  0  0  0  0  0  0  0
  138.9180  159.7980  131.2620 C   0  0  0  0  0  0  0  0  0  0  0  0
  137.8540  158.9940  131.7390 C   0  0  0  0  0  0  0  0  0  0  0  0
  138.0000  158.2350  132.9130 C   0  0  0  0  0  0  0  0  0  0  0  0
  139.2210  158.2940  133.5790 C   0  0  0  0  0  0  0  0  0  0  0  0
  139.6410  157.6510  134.7220 C   0  0  0  0  0  0  0  0  0  0  0  0
  140.9550  158.0730  134.9200 C   0  0  0  0  0  0  0  0  0  0  0  0
  141.7740  157.6870  136.0880 C   0  0  0  0  0  0  0  0  0  0  0  0
  142.6490  156.5640  136.0030 N   0  0  0  0  0  0  0  0  0  0  0  0
  141.6910  158.3230  137.1720 O   0  0  0  0  0  0  0  0  0  0  0  0
  141.3320  158.9330  133.9330 N   0  0  0  0  0  0  0  0  0  0  0  0
  142.6120  159.5580  133.7450 C   0  0  0  0  0  0  0  0  0  0  0  0
  142.7110  160.8080  133.8620 O   0  0  0  0  0  0  0  0  0  0  0  0
  143.7910  158.7540  133.3580 C   0  0  0  0  0  0  0  0  0  0  0  0
  144.7070  159.3040  132.6840 O   0  0  0  0  0  0  0  0  0  0  0  0
  143.9380  157.3830  133.8030 N   0  0  2  0  0  0  0  0  0  0  0  0
  145.3380  157.1200  134.1810 C   0  0  0  0  0  0  0  0  0  0  0  0
  145.6580  155.6000  134.2590 C   0  0  2  0  0  0  0  0  0  0  0  0
  146.6160  155.1370  133.1520 C   0  0  0  0  0  0  0  0  0  0  0  0
  144.5040  154.7700  134.3370 O   0  0  0  0  0  0  0  0  0  0  0  0
  143.5170  155.0070  133.3370 C   0  0  2  0  0  0  0  0  0  0  0  0
  143.5800  153.9410  132.2400 C   0  0  0  0  0  0  0  0  0  0  0  0
  143.5100  156.4400  132.7610 C   0  0  0  0  0  0  0  0  0  0  0  0
  140.2600  159.0640  133.1260 C   0  0  0  0  0  0  0  0  0  0  0  0
  140.1470  159.8210  131.9560 C   0  0  0  0  0  0  0  0  0  0  0  0
  138.5551  161.6222  130.2110 H   0  0  0  0  0  0  0  0  0  0  0  0
  139.6948  160.4964  129.3985 H   0  0  0  0  0  0  0  0  0  0  0  0
  137.9330  160.1459  129.3985 H   0  0  0  0  0  0  0  0  0  0  0  0
  136.9040  158.9633  131.1852 H   0  0  0  0  0  0  0  0  0  0  0  0
  137.1756  157.6141  133.2934 H   0  0  0  0  0  0  0  0  0  0  0  0
  139.0631  156.9532  135.3458 H   0  0  0  0  0  0  0  0  0  0  0  0
  142.8640  156.1190  135.0840 H   0  0  0  0  0  0  0  0  0  0  0  0
  143.3280  157.2310  134.6420 H   0  0  0  0  0  0  0  0  0  0  0  0
  145.5284  157.5716  135.1658 H   0  0  0  0  0  0  0  0  0  0  0  0
  145.9820  157.5579  133.4041 H   0  0  0  0  0  0  0  0  0  0  0  0
  146.1832  155.4759  135.2176 H   0  0  0  0  0  0  0  0  0  0  0  0
  147.5180  154.7011  133.6063 H   0  0  0  0  0  0  0  0  0  0  0  0
  146.1173  154.3805  132.5283 H   0  0  0  0  0  0  0  0  0  0  0  0
  146.8990  155.9978  132.5283 H   0  0  0  0  0  0  0  0  0  0  0  0
  142.5487  154.9204  133.8517 H   0  0  0  0  0  0  0  0  0  0  0  0
  143.6389  152.9438  132.7007 H   0  0  0  0  0  0  0  0  0  0  0  0
  142.6766  154.0036  131.6156 H   0  0  0  0  0  0  0  0  0  0  0  0
  144.4697  154.1096  131.6156 H   0  0  0  0  0  0  0  0  0  0  0  0
  142.4939  156.6972  132.4273 H   0  0  0  0  0  0  0  0  0  0  0  0
  144.1994  156.4973  131.9058 H   0  0  0  0  0  0  0  0  0  0  0  0
  140.9932  160.4186  131.5861 H   0  0  0  0  0  0  0  0  0  0  0  0
  1  2  1  0
  2  3  2  0
  3  4  1  0
  4  5  2  0
  5  6  1  0
  6  7  2  0
  7  8  1  0
  8  9  1  0
  8 10  2  0
  7 11  1  0
 11 12  1  0
 12 13  2  0
 12 14  1  0
 14 15  2  0
 14 16  1  0
 16 17  1  0
 17 18  1  0
 18 19  1  0
 18 20  1  0
 20 21  1  0
 21 22  1  0
 21 23  1  0
 11 24  1  0
 24 25  2  0
 25  2  1  0
 24  5  1  0
 23 16  1  0
  1 26  1  0
  1 27  1  0
  1 28  1  0
  3 29  1  0
  4 30  1  0
  6 31  1  0
  9 32  1  0
 16 33  1  1
 17 34  1  0
 17 35  1  0
 18 36  1  1
 19 37  1  0
 19 38  1  0
 19 39  1  0
 21 40  1  1
 22 41  1  0
 22 42  1  0
 22 43  1  0
 23 44  1  0
 23 45  1  0
 25 46  1  0
M  CHG  2   9  -1  16   1
M  END
>  <UniqueID>  (74) 
72

>  <SMILES>  (74) 
Cc1ccc2cc(C([NH-])=O)n(C(=O)C(=O)[NH+]3C[C@@H](C)O[C@@H](C)C3)c2c1

>  <Energy>  (74) 
99.26915853835705

>  <Genealogy>  (74) 
Cc1ccc2cc(C([NH-])=O)n(C(=O)C(=O)[NH+]3CC(C)OC(C)C3)c2c1 (protonated)
Cc1ccc2cc(C([NH-])=O)n(C(=O)C(=O)[NH+]3C[C@@H](C)O[C@@H](C)C3)c2c1 (chirality)
Cc1ccc2cc(C([NH-])=O)n(C(=O)C(=O)[NH+]3C[C@@H](C)O[C@@H](C)C3)c2c1 (3D coordinates assigned)
Cc1ccc2cc(C([NH-])=O)n(C(=O)C(=O)[NH+]3C[C@@H](C)O[C@@H](C)C3)c2c1 (nonaromatic ring conformer: 99.26915853835705 kcal/mol)

>  <smiles>  (74) 
Cc1ccc2cc(C(N)=O)n(C(=O)C(=O)N3CC(C)OC(C)C3)c2c1

>  <score_type>  (74) 
oracle

>  <origin>  (74) 
adg

>  <m_score__min__energy>  (74) 
-7.29

>  <m_primary>  (74) 
energy

$$$$
75:0
     RDKit          3D

 41 42  0  0  0  0  0  0  0  0999 V2000
  139.8490  159.3530  131.3290 C   0  0  0  0  0  0  0  0  0  0  0  0
  139.2850  159.2740  132.7440 C   0  0  0  0  0  0  0  0  0  0  0  0
  140.3380  159.2930  133.7060 O   0  0  0  0  0  0  0  0  0  0  0  0
  140.5190  158.2910  134.6660 C   0  0  0  0  0  0  0  0  0  0  0  0
  139.5620  157.5450  135.0040 O   0  0  0  0  0  0  0  0  0  0  0  0
  141.8470  158.1070  135.2710 C   0  0  0  0  0  0  0  0  0  0  0  0
  142.0930  158.6630  136.3760 O   0  0  0  0  0  0  0  0  0  0  0  0
  142.8640  157.3120  134.6300 N   0  0  0  0  0  0  0  0  0  0  0  0
  143.1450  155.9710  135.1490 C   0  0  0  0  0  0  0  0  0  0  0  0
  143.4620  157.7210  133.3810 C   0  0  0  0  0  0  0  0  0  0  0  0
  142.8820  157.4590  132.2920 O   0  0  0  0  0  0  0  0  0  0  0  0
  144.7030  158.4510  133.3530 N   0  0  0  0  0  0  0  0  0  0  0  0
  144.8770  159.7950  133.4970 C   0  0  0  0  0  0  0  0  0  0  0  0
  143.7880  160.7930  133.6120 C   0  0  0  0  0  0  0  0  0  0  0  0
  142.4580  160.4810  133.1900 N   0  0  0  0  0  0  0  0  0  0  0  0
  144.0190  161.9290  134.1030 O   0  0  0  0  0  0  0  0  0  0  0  0
  146.2340  160.1160  133.4480 C   0  0  0  0  0  0  0  0  0  0  0  0
  146.8880  158.9160  133.2810 C   0  0  0  0  0  0  0  0  0  0  0  0
  148.2480  158.6450  133.1740 C   0  0  0  0  0  0  0  0  0  0  0  0
  148.6420  157.3030  133.0350 C   0  0  0  0  0  0  0  0  0  0  0  0
  147.6790  156.2650  133.0150 C   0  0  0  0  0  0  0  0  0  0  0  0
  148.1220  154.8360  132.8790 C   0  0  0  0  0  0  0  0  0  0  0  0
  148.0320  154.2020  134.1050 F   0  0  0  0  0  0  0  0  0  0  0  0
  149.4320  154.7950  132.4390 F   0  0  0  0  0  0  0  0  0  0  0  0
  146.3070  156.5790  133.1300 C   0  0  0  0  0  0  0  0  0  0  0  0
  145.9420  157.9260  133.2380 C   0  0  0  0  0  0  0  0  0  0  0  0
  140.9374  159.5054  131.3761 H   0  0  0  0  0  0  0  0  0  0  0  0
  139.6328  158.4158  130.7952 H   0  0  0  0  0  0  0  0  0  0  0  0
  139.3836  160.1947  130.7952 H   0  0  0  0  0  0  0  0  0  0  0  0
  138.6215  160.1341  132.9172 H   0  0  0  0  0  0  0  0  0  0  0  0
  138.7245  158.3335  132.8503 H   0  0  0  0  0  0  0  0  0  0  0  0
  143.1400  155.9950  136.2487 H   0  0  0  0  0  0  0  0  0  0  0  0
  142.3740  155.2714  134.7940 H   0  0  0  0  0  0  0  0  0  0  0  0
  144.1321  155.6398  134.7940 H   0  0  0  0  0  0  0  0  0  0  0  0
  141.6940  161.1810  133.3130 H   0  0  0  0  0  0  0  0  0  0  0  0
  142.2320  159.5790  132.7150 H   0  0  0  0  0  0  0  0  0  0  0  0
  146.6856  161.1160  133.5262 H   0  0  0  0  0  0  0  0  0  0  0  0
  148.9916  159.4552  133.1974 H   0  0  0  0  0  0  0  0  0  0  0  0
  149.7098  157.0564  132.9408 H   0  0  0  0  0  0  0  0  0  0  0  0
  147.4736  154.3248  132.1522 H   0  0  0  0  0  0  0  0  0  0  0  0
  145.5450  155.7857  133.1346 H   0  0  0  0  0  0  0  0  0  0  0  0
  1  2  1  0
  2  3  1  0
  3  4  1  0
  4  5  2  0
  4  6  1  0
  6  7  2  0
  6  8  1  0
  8  9  1  0
  8 10  1  0
 10 11  2  0
 10 12  1  0
 12 13  1  0
 13 14  1  0
 14 15  1  0
 14 16  2  0
 13 17  2  0
 17 18  1  0
 18 19  2  0
 19 20  1  0
 20 21  2  0
 21 22  1  0
 22 23  1  0
 22 24  1  0
 21 25  1  0
 25 26  2  0
 26 12  1  0
 26 18  1  0
  1 27  1  0
  1 28  1  0
  1 29  1  0
  2 30  1  0
  2 31  1  0
  9 32  1  0
  9 33  1  0
  9 34  1  0
 15 35  1  0
 15 36  1  0
 17 37  1  0
 19 38  1  0
 20 39  1  0
 22 40  1  0
 25 41  1  0
M  END
>  <UniqueID>  (75) 
73

>  <SMILES>  (75) 
CCOC(=O)C(=O)N(C)C(=O)n1c(C(N)=O)cc2ccc(C(F)F)cc21

>  <Energy>  (75) 
76.12915402722857

>  <Genealogy>  (75) 
CCOC(=O)C(=O)N(C)C(=O)n1c(C(N)=O)cc2ccc(C(F)F)cc21 (3D coordinates assigned)
CCOC(=O)C(=O)N(C)C(=O)n1c(C(N)=O)cc2ccc(C(F)F)cc21 (optimized conformer: 76.12915402722857 kcal/mol)

>  <smiles>  (75) 
CCOC(=O)C(=O)N(C)C(=O)n1c(C(N)=O)cc2ccc(C(F)F)cc21

>  <score_type>  (75) 
oracle

>  <origin>  (75) 
adg

>  <m_score__min__energy>  (75) 
-6.2699999999999996

>  <m_primary>  (75) 
energy

$$$$
76:0
     RDKit          3D

 44 45  0  0  0  0  0  0  0  0999 V2000
  149.4940  160.0680  130.6790 C   0  0  0  0  0  0  0  0  0  0  0  0
  148.3390  160.2690  131.3250 C   0  0  0  0  0  0  0  0  0  0  0  0
  147.8010  159.2900  132.3530 C   0  0  0  0  0  0  0  0  0  0  0  0
  148.1100  157.8560  131.8830 C   0  0  0  0  0  0  0  0  0  0  0  0
  148.4760  159.5570  133.7130 C   0  0  0  0  0  0  0  0  0  0  0  0
  146.3490  159.4820  132.4530 N   0  0  0  0  0  0  0  0  0  0  0  0
  145.4650  158.9000  133.4220 C   0  0  0  0  0  0  0  0  0  0  0  0
  145.8270  157.9030  134.1020 O   0  0  0  0  0  0  0  0  0  0  0  0
  144.1500  159.4470  133.6040 N   0  0  0  0  0  0  0  0  0  0  0  0
  143.8090  160.7610  133.7300 C   0  0  0  0  0  0  0  0  0  0  0  0
  144.7620  161.8830  133.8740 C   0  0  0  0  0  0  0  0  0  0  0  0
  146.1500  161.6360  134.1070 N   0  0  0  0  0  0  0  0  0  0  0  0
  144.3610  163.0700  133.7620 O   0  0  0  0  0  0  0  0  0  0  0  0
  142.4250  160.9000  133.8070 C   0  0  0  0  0  0  0  0  0  0  0  0
  141.9270  159.6190  133.7250 C   0  0  0  0  0  0  0  0  0  0  0  0
  140.6120  159.1700  133.7380 C   0  0  0  0  0  0  0  0  0  0  0  0
  140.3830  157.7910  133.6080 C   0  0  0  0  0  0  0  0  0  0  0  0
  141.4640  156.8760  133.4590 C   0  0  0  0  0  0  0  0  0  0  0  0
  141.2170  155.4530  133.3120 N   0  0  0  0  0  0  0  0  0  0  0  0
  142.3140  154.4860  133.4500 C   0  0  0  0  0  0  0  0  0  0  0  0
  139.8660  154.9550  133.0230 C   0  0  0  0  0  0  0  0  0  0  0  0
  142.7900  157.3840  133.4520 C   0  0  0  0  0  0  0  0  0  0  0  0
  142.9850  158.7620  133.6030 C   0  0  0  0  0  0  0  0  0  0  0  0
  149.8469  160.8037  129.9413 H   0  0  0  0  0  0  0  0  0  0  0  0
  150.0903  159.1671  130.8858 H   0  0  0  0  0  0  0  0  0  0  0  0
  147.7585  161.1766  131.1029 H   0  0  0  0  0  0  0  0  0  0  0  0
  148.2502  157.2053  132.7588 H   0  0  0  0  0  0  0  0  0  0  0  0
  147.2722  157.4801  131.2773 H   0  0  0  0  0  0  0  0  0  0  0  0
  149.0282  157.8585  131.2773 H   0  0  0  0  0  0  0  0  0  0  0  0
  147.7858  159.2840  134.5248 H   0  0  0  0  0  0  0  0  0  0  0  0
  149.3923  158.9536  133.7923 H   0  0  0  0  0  0  0  0  0  0  0  0
  148.7316  160.6240  133.7923 H   0  0  0  0  0  0  0  0  0  0  0  0
  146.5120  160.6670  134.2490 H   0  0  0  0  0  0  0  0  0  0  0  0
  146.8190  162.4340  134.1800 H   0  0  0  0  0  0  0  0  0  0  0  0
  141.8525  161.8335  133.9111 H   0  0  0  0  0  0  0  0  0  0  0  0
  139.7745  159.8748  133.8470 H   0  0  0  0  0  0  0  0  0  0  0  0
  139.3509  157.4108  133.6215 H   0  0  0  0  0  0  0  0  0  0  0  0
  142.5147  154.3090  134.5169 H   0  0  0  0  0  0  0  0  0  0  0  0
  142.0305  153.5386  132.9682 H   0  0  0  0  0  0  0  0  0  0  0  0
  143.2183  154.8861  132.9682 H   0  0  0  0  0  0  0  0  0  0  0  0
  139.3372  154.7601  133.9677 H   0  0  0  0  0  0  0  0  0  0  0  0
  139.3138  155.7087  132.4424 H   0  0  0  0  0  0  0  0  0  0  0  0
  139.9351  154.0232  132.4424 H   0  0  0  0  0  0  0  0  0  0  0  0
  143.6484  156.7070  133.3301 H   0  0  0  0  0  0  0  0  0  0  0  0
  1  2  2  0
  2  3  1  0
  3  4  1  0
  3  5  1  0
  3  6  1  0
  6  7  1  0
  7  8  2  0
  7  9  1  0
  9 10  1  0
 10 11  1  0
 11 12  1  0
 11 13  2  0
 10 14  2  0
 14 15  1  0
 15 16  2  0
 16 17  1  0
 17 18  2  0
 18 19  1  0
 19 20  1  0
 19 21  1  0
 18 22  1  0
 22 23  2  0
 23  9  1  0
 23 15  1  0
  1 24  1  0
  1 25  1  0
  2 26  1  0
  4 27  1  0
  4 28  1  0
  4 29  1  0
  5 30  1  0
  5 31  1  0
  5 32  1  0
 12 33  1  0
 12 34  1  0
 14 35  1  0
 16 36  1  0
 17 37  1  0
 20 38  1  0
 20 39  1  0
 20 40  1  0
 21 41  1  0
 21 42  1  0
 21 43  1  0
 22 44  1  0
M  CHG  1   6  -1
M  END
>  <UniqueID>  (76) 
74

>  <SMILES>  (76) 
C=CC(C)(C)[N-]C(=O)n1c(C(N)=O)cc2ccc(N(C)C)cc21

>  <Energy>  (76) 
78.64085779805444

>  <Genealogy>  (76) 
C=CC(C)(C)[N-]C(=O)n1c(C(N)=O)cc2ccc(N(C)C)cc21 (protonated)
C=CC(C)(C)[N-]C(=O)n1c(C(N)=O)cc2ccc(N(C)C)cc21 (3D coordinates assigned)
C=CC(C)(C)[N-]C(=O)n1c(C(N)=O)cc2ccc(N(C)C)cc21 (optimized conformer: 78.64085779805444 kcal/mol)

>  <smiles>  (76) 
C=CC(C)(C)NC(=O)n1c(C(N)=O)cc2ccc(N(C)C)cc21

>  <score_type>  (76) 
oracle

>  <origin>  (76) 
adg

>  <m_score__min__energy>  (76) 
-7.4800000000000004

>  <m_primary>  (76) 
energy

$$$$
77:0
     RDKit          3D

 54 55  0  0  0  0  0  0  0  0999 V2000
  140.9690  159.1290  136.9770 C   0  0  0  0  0  0  0  0  0  0  0  0
  140.7190  157.7110  136.4270 C   0  0  0  0  0  0  0  0  0  0  0  0
  141.8860  157.3260  135.5030 C   0  0  0  0  0  0  0  0  0  0  0  0
  140.6350  156.6910  137.5790 C   0  0  0  0  0  0  0  0  0  0  0  0
  139.5250  157.6860  135.6320 O   0  0  0  0  0  0  0  0  0  0  0  0
  139.4550  157.5090  134.2420 C   0  0  0  0  0  0  0  0  0  0  0  0
  139.4430  156.3590  133.7260 O   0  0  0  0  0  0  0  0  0  0  0  0
  139.4030  158.6670  133.4070 N   0  0  0  0  0  0  0  0  0  0  0  0
  140.5860  159.2780  132.8170 C   0  0  0  0  0  0  0  0  0  0  0  0
  141.2960  160.1630  133.8410 C   0  0  0  0  0  0  0  0  0  0  0  0
  142.6310  160.5270  133.3710 N   0  0  0  0  0  0  0  0  0  0  0  0
  143.7380  159.6190  133.3540 C   0  0  0  0  0  0  0  0  0  0  0  0
  143.6810  158.5490  132.6890 O   0  0  0  0  0  0  0  0  0  0  0  0
  144.9970  159.9790  134.0720 C   0  0  0  0  0  0  0  0  0  0  0  0
  146.0900  159.0180  133.6900 C   0  0  0  0  0  0  0  0  0  0  0  0
  147.2810  159.4990  133.0910 C   0  0  0  0  0  0  0  0  0  0  0  0
  148.2950  158.6100  132.6980 C   0  0  0  0  0  0  0  0  0  0  0  0
  148.0880  157.2500  132.9080 C   0  0  0  0  0  0  0  0  0  0  0  0
  148.9060  156.1730  132.6460 C   0  0  0  0  0  0  0  0  0  0  0  0
  148.1860  155.0540  133.0580 C   0  0  0  0  0  0  0  0  0  0  0  0
  148.6530  153.6640  132.8800 C   0  0  0  0  0  0  0  0  0  0  0  0
  147.7510  152.5680  133.0150 N   0  0  0  0  0  0  0  0  0  0  0  0
  149.8540  153.4410  132.5710 O   0  0  0  0  0  0  0  0  0  0  0  0
  146.9780  155.4280  133.5640 N   0  0  0  0  0  0  0  0  0  0  0  0
  145.9870  154.5980  134.1860 C   0  0  0  0  0  0  0  0  0  0  0  0
  145.2170  153.9010  133.4730 O   0  0  0  0  0  0  0  0  0  0  0  0
  145.7790  154.6520  135.6690 C   0  0  0  0  0  0  0  0  0  0  0  0
  146.9900  154.1260  136.3670 C   0  0  0  0  0  0  0  0  0  0  0  0
  146.9660  152.9880  136.9080 O   0  0  0  0  0  0  0  0  0  0  0  0
  148.1340  154.9080  136.4570 O   0  0  0  0  0  0  0  0  0  0  0  0
  146.9310  156.7710  133.4630 C   0  0  0  0  0  0  0  0  0  0  0  0
  145.9080  157.6300  133.8700 C   0  0  0  0  0  0  0  0  0  0  0  0
  140.9642  159.1019  138.0767 H   0  0  0  0  0  0  0  0  0  0  0  0
  141.9451  159.4926  136.6234 H   0  0  0  0  0  0  0  0  0  0  0  0
  140.1761  159.8045  136.6234 H   0  0  0  0  0  0  0  0  0  0  0  0
  142.7562  157.0389  136.1116 H   0  0  0  0  0  0  0  0  0  0  0  0
  141.5870  156.4789  134.8682 H   0  0  0  0  0  0  0  0  0  0  0  0
  142.1498  158.1848  134.8682 H   0  0  0  0  0  0  0  0  0  0  0  0
  140.6786  157.2210  138.5419 H   0  0  0  0  0  0  0  0  0  0  0  0
  139.6881  156.1357  137.5087 H   0  0  0  0  0  0  0  0  0  0  0  0
  141.4783  155.9882  137.5087 H   0  0  0  0  0  0  0  0  0  0  0  0
  141.2737  158.4873  132.4827 H   0  0  0  0  0  0  0  0  0  0  0  0
  140.2784  159.8981  131.9621 H   0  0  0  0  0  0  0  0  0  0  0  0
  140.7063  161.0782  133.9979 H   0  0  0  0  0  0  0  0  0  0  0  0
  141.3928  159.6052  134.7841 H   0  0  0  0  0  0  0  0  0  0  0  0
  145.2958  161.0012  133.7965 H   0  0  0  0  0  0  0  0  0  0  0  0
  144.8263  159.9245  135.1573 H   0  0  0  0  0  0  0  0  0  0  0  0
  147.4126  160.5795  132.9323 H   0  0  0  0  0  0  0  0  0  0  0  0
  149.2243  158.9776  132.2383 H   0  0  0  0  0  0  0  0  0  0  0  0
  149.9136  156.1925  132.2051 H   0  0  0  0  0  0  0  0  0  0  0  0
  146.9670  152.6010  133.7070 H   0  0  0  0  0  0  0  0  0  0  0  0
  145.6037  155.6937  135.9759 H   0  0  0  0  0  0  0  0  0  0  0  0
  144.9079  154.0361  135.9372 H   0  0  0  0  0  0  0  0  0  0  0  0
  144.9847  157.2353  134.3190 H   0  0  0  0  0  0  0  0  0  0  0  0
  1  2  1  0
  2  3  1  0
  2  4  1  0
  2  5  1  0
  5  6  1  0
  6  7  2  0
  6  8  1  0
  8  9  1  0
  9 10  1  0
 10 11  1  0
 11 12  1  0
 12 13  2  0
 12 14  1  0
 14 15  1  0
 15 16  2  0
 16 17  1  0
 17 18  2  0
 18 19  1  0
 19 20  2  0
 20 21  1  0
 21 22  1  0
 21 23  2  0
 20 24  1  0
 24 25  1  0
 25 26  2  0
 25 27  1  0
 27 28  1  0
 28 29  2  0
 28 30  1  0
 24 31  1  0
 31 32  2  0
 32 15  1  0
 31 18  1  0
  1 33  1  0
  1 34  1  0
  1 35  1  0
  3 36  1  0
  3 37  1  0
  3 38  1  0
  4 39  1  0
  4 40  1  0
  4 41  1  0
  9 42  1  0
  9 43  1  0
 10 44  1  0
 10 45  1  0
 14 46  1  0
 14 47  1  0
 16 48  1  0
 17 49  1  0
 19 50  1  0
 22 51  1  0
 27 52  1  0
 27 53  1  0
 32 54  1  0
M  CHG  4   8  -1  11  -1  22  -1  30  -1
M  END
>  <UniqueID>  (77) 
75

>  <SMILES>  (77) 
CC(C)(C)OC(=O)[N-]CC[N-]C(=O)Cc1ccc2cc(C([NH-])=O)n(C(=O)CC(=O)[O-])c2c1

>  <Energy>  (77) 
74.45912618902578

>  <Genealogy>  (77) 
CC(C)(C)OC(=O)[N-]CC[N-]C(=O)Cc1ccc2cc(C([NH-])=O)n(C(=O)CC(=O)[O-])c2c1 (protonated)
CC(C)(C)OC(=O)[N-]CC[N-]C(=O)Cc1ccc2cc(C([NH-])=O)n(C(=O)CC(=O)[O-])c2c1 (3D coordinates assigned)
CC(C)(C)OC(=O)[N-]CC[N-]C(=O)Cc1ccc2cc(C([NH-])=O)n(C(=O)CC(=O)[O-])c2c1 (optimized conformer: 74.45912618902578 kcal/mol)

>  <smiles>  (77) 
CC(C)(C)OC(=O)NCCNC(=O)Cc1ccc2cc(C(N)=O)n(C(=O)CC(=O)O)c2c1

>  <score_type>  (77) 
oracle

>  <origin>  (77) 
adg

>  <m_score__min__energy>  (77) 
-7.8099999999999996

>  <m_primary>  (77) 
energy

$$$$
78:0
     RDKit          3D

 31 32  0  0  0  0  0  0  0  0999 V2000
  142.9840  160.8200  133.3690 N   0  0  0  0  0  0  0  0  0  0  0  0
  144.3530  160.9700  133.7340 C   0  0  0  0  0  0  0  0  0  0  0  0
  144.7240  162.0250  134.3140 O   0  0  0  0  0  0  0  0  0  0  0  0
  145.3260  159.8870  133.4880 C   0  0  0  0  0  0  0  0  0  0  0  0
  146.6920  160.1040  133.3140 C   0  0  0  0  0  0  0  0  0  0  0  0
  147.2490  158.8500  133.1970 C   0  0  0  0  0  0  0  0  0  0  0  0
  148.5720  158.4700  133.0000 C   0  0  0  0  0  0  0  0  0  0  0  0
  148.8550  157.0980  132.8900 C   0  0  0  0  0  0  0  0  0  0  0  0
  147.8170  156.1370  132.9830 C   0  0  0  0  0  0  0  0  0  0  0  0
  148.1200  154.6730  132.8440 C   0  0  0  0  0  0  0  0  0  0  0  0
  148.0360  154.0620  134.0830 F   0  0  0  0  0  0  0  0  0  0  0  0
  149.3960  154.5020  132.3370 F   0  0  0  0  0  0  0  0  0  0  0  0
  146.4830  156.5610  133.1810 C   0  0  0  0  0  0  0  0  0  0  0  0
  146.2360  157.9320  133.2960 C   0  0  0  0  0  0  0  0  0  0  0  0
  145.0490  158.5530  133.4690 N   0  0  0  0  0  0  0  0  0  0  0  0
  143.7680  157.9080  133.5260 C   0  0  0  0  0  0  0  0  0  0  0  0
  143.0390  157.8950  132.4980 O   0  0  0  0  0  0  0  0  0  0  0  0
  143.2310  157.4240  134.8440 C   0  0  0  0  0  0  0  0  0  0  0  0
  141.5700  158.0830  135.2120 P   0  0  1  0  0  0  0  0  0  0  0  0
  140.5710  156.9520  135.3250 O   0  0  0  0  0  0  0  0  0  0  0  0
  141.6270  158.9210  136.6800 O   0  0  0  0  0  0  0  0  0  0  0  0
  141.0890  159.1520  133.9890 O   0  0  0  0  0  0  0  0  0  0  0  0
  142.6780  160.0430  132.7400 H   0  0  0  0  0  0  0  0  0  0  0  0
  147.2141  161.0715  133.2778 H   0  0  0  0  0  0  0  0  0  0  0  0
  149.3730  159.2209  132.9323 H   0  0  0  0  0  0  0  0  0  0  0  0
  149.8916  156.7666  132.7302 H   0  0  0  0  0  0  0  0  0  0  0  0
  147.3904  154.2196  132.1568 H   0  0  0  0  0  0  0  0  0  0  0  0
  145.6617  155.8318  133.2429 H   0  0  0  0  0  0  0  0  0  0  0  0
  143.1765  156.3256  134.8198 H   0  0  0  0  0  0  0  0  0  0  0  0
  143.9118  157.7801  135.6312 H   0  0  0  0  0  0  0  0  0  0  0  0
  141.9290  159.4360  133.5460 H   0  0  0  0  0  0  0  0  0  0  0  0
  1  2  1  0
  2  3  2  0
  2  4  1  0
  4  5  2  0
  5  6  1  0
  6  7  2  0
  7  8  1  0
  8  9  2  0
  9 10  1  0
 10 11  1  0
 10 12  1  0
  9 13  1  0
 13 14  2  0
 14 15  1  0
 15 16  1  0
 16 17  2  0
 16 18  1  0
 18 19  1  0
 19 20  2  0
 19 21  1  1
 19 22  1  0
 15  4  1  0
 14  6  1  0
  1 23  1  0
  5 24  1  0
  7 25  1  0
  8 26  1  0
 10 27  1  0
 13 28  1  0
 18 29  1  0
 18 30  1  0
 22 31  1  0
M  CHG  2   1  -1  21  -1
M  END
>  <UniqueID>  (78) 
76

>  <SMILES>  (78) 
[NH-]C(=O)c1cc2ccc(C(F)F)cc2n1C(=O)C[P@@](=O)([O-])O

>  <Energy>  (78) 
67.14607069146263

>  <Genealogy>  (78) 
[NH-]C(=O)c1cc2ccc(C(F)F)cc2n1C(=O)CP(=O)([O-])O (protonated)
[NH-]C(=O)c1cc2ccc(C(F)F)cc2n1C(=O)C[P@@](=O)([O-])O (chirality)
[NH-]C(=O)c1cc2ccc(C(F)F)cc2n1C(=O)C[P@@](=O)([O-])O (3D coordinates assigned)
[NH-]C(=O)c1cc2ccc(C(F)F)cc2n1C(=O)C[P@@](=O)([O-])O (optimized conformer: 67.14607069146263 kcal/mol)

>  <smiles>  (78) 
NC(=O)c1cc2ccc(C(F)F)cc2n1C(=O)CP(=O)(O)O

>  <score_type>  (78) 
oracle

>  <origin>  (78) 
adg

>  <m_score__min__energy>  (78) 
-5.6100000000000003

>  <m_primary>  (78) 
energy

$$$$
79:0
     RDKit          3D

 42 43  0  0  0  0  0  0  0  0999 V2000
  139.7310  156.2140  133.4080 C   0  0  0  0  0  0  0  0  0  0  0  0
  140.6020  156.6910  134.3030 C   0  0  0  0  0  0  0  0  0  0  0  0
  141.9210  156.0040  134.5100 C   0  0  0  0  0  0  0  0  0  0  0  0
  142.9390  156.9950  134.5850 O   0  0  0  0  0  0  0  0  0  0  0  0
  143.2950  157.8110  133.5090 C   0  0  0  0  0  0  0  0  0  0  0  0
  142.5610  157.8690  132.4850 O   0  0  0  0  0  0  0  0  0  0  0  0
  144.4990  158.5920  133.5790 N   0  0  0  0  0  0  0  0  0  0  0  0
  144.6000  159.9510  133.6480 C   0  0  0  0  0  0  0  0  0  0  0  0
  143.4800  160.8950  133.8380 C   0  0  0  0  0  0  0  0  0  0  0  0
  142.1690  160.3970  134.0970 N   0  0  0  0  0  0  0  0  0  0  0  0
  143.6590  162.1370  133.7330 O   0  0  0  0  0  0  0  0  0  0  0  0
  145.9340  160.3460  133.5880 C   0  0  0  0  0  0  0  0  0  0  0  0
  146.6560  159.1800  133.4880 C   0  0  0  0  0  0  0  0  0  0  0  0
  148.0310  158.9850  133.3940 C   0  0  0  0  0  0  0  0  0  0  0  0
  148.5030  157.6690  133.2740 C   0  0  0  0  0  0  0  0  0  0  0  0
  147.5990  156.5750  133.2220 C   0  0  0  0  0  0  0  0  0  0  0  0
  148.1180  155.1630  133.1280 C   0  0  0  0  0  0  0  0  0  0  0  0
  149.3990  155.1420  132.6050 F   0  0  0  0  0  0  0  0  0  0  0  0
  147.3040  154.3990  132.3090 F   0  0  0  0  0  0  0  0  0  0  0  0
  148.1390  154.6010  134.3910 F   0  0  0  0  0  0  0  0  0  0  0  0
  146.2100  156.8130  133.3420 C   0  0  0  0  0  0  0  0  0  0  0  0
  145.7680  158.1350  133.4810 C   0  0  0  0  0  0  0  0  0  0  0  0
  140.3180  157.9470  135.0330 C   0  0  0  0  0  0  0  0  0  0  0  0
  139.8530  158.9300  134.3940 O   0  0  0  0  0  0  0  0  0  0  0  0
  140.5480  158.0710  136.4500 N   0  0  0  0  0  0  0  0  0  0  0  0
  140.9460  159.3670  136.9990 C   0  0  0  0  0  0  0  0  0  0  0  0
  140.3920  156.9250  137.3510 C   0  0  0  0  0  0  0  0  0  0  0  0
  138.7651  156.7185  133.2576 H   0  0  0  0  0  0  0  0  0  0  0  0
  139.9802  155.3171  132.8220 H   0  0  0  0  0  0  0  0  0  0  0  0
  141.8957  155.4264  135.4458 H   0  0  0  0  0  0  0  0  0  0  0  0
  142.1238  155.3177  133.6746 H   0  0  0  0  0  0  0  0  0  0  0  0
  141.9140  159.4130  133.8640 H   0  0  0  0  0  0  0  0  0  0  0  0
  146.3269  161.3731  133.6149 H   0  0  0  0  0  0  0  0  0  0  0  0
  148.7267  159.8369  133.4132 H   0  0  0  0  0  0  0  0  0  0  0  0
  149.5857  157.4826  133.2196 H   0  0  0  0  0  0  0  0  0  0  0  0
  145.4930  155.9789  133.3265 H   0  0  0  0  0  0  0  0  0  0  0  0
  140.9315  159.3198  138.0979 H   0  0  0  0  0  0  0  0  0  0  0  0
  141.9615  159.6143  136.6560 H   0  0  0  0  0  0  0  0  0  0  0  0
  140.2443  160.1416  136.6560 H   0  0  0  0  0  0  0  0  0  0  0  0
  140.4390  157.2699  138.3945 H   0  0  0  0  0  0  0  0  0  0  0  0
  139.4201  156.4438  137.1673 H   0  0  0  0  0  0  0  0  0  0  0  0
  141.1999  156.2015  137.1673 H   0  0  0  0  0  0  0  0  0  0  0  0
  1  2  2  0
  2  3  1  0
  3  4  1  0
  4  5  1  0
  5  6  2  0
  5  7  1  0
  7  8  1  0
  8  9  1  0
  9 10  1  0
  9 11  2  0
  8 12  2  0
 12 13  1  0
 13 14  2  0
 14 15  1  0
 15 16  2  0
 16 17  1  0
 17 18  1  0
 17 19  1  0
 17 20  1  0
 16 21  1  0
 21 22  2  0
  2 23  1  0
 23 24  2  0
 23 25  1  0
 25 26  1  0
 25 27  1  0
 22  7  1  0
 22 13  1  0
  1 28  1  0
  1 29  1  0
  3 30  1  0
  3 31  1  0
 10 32  1  0
 12 33  1  0
 14 34  1  0
 15 35  1  0
 21 36  1  0
 26 37  1  0
 26 38  1  0
 26 39  1  0
 27 40  1  0
 27 41  1  0
 27 42  1  0
M  CHG  1  10  -1
M  END
>  <UniqueID>  (79) 
77

>  <SMILES>  (79) 
C=C(COC(=O)n1c(C([NH-])=O)cc2ccc(C(F)(F)F)cc21)C(=O)N(C)C

>  <Energy>  (79) 
79.94391557181756

>  <Genealogy>  (79) 
C=C(COC(=O)n1c(C([NH-])=O)cc2ccc(C(F)(F)F)cc21)C(=O)N(C)C (protonated)
C=C(COC(=O)n1c(C([NH-])=O)cc2ccc(C(F)(F)F)cc21)C(=O)N(C)C (3D coordinates assigned)
C=C(COC(=O)n1c(C([NH-])=O)cc2ccc(C(F)(F)F)cc21)C(=O)N(C)C (optimized conformer: 79.94391557181756 kcal/mol)

>  <smiles>  (79) 
C=C(COC(=O)n1c(C(N)=O)cc2ccc(C(F)(F)F)cc21)C(=O)N(C)C

>  <score_type>  (79) 
oracle

>  <origin>  (79) 
adg

>  <m_score__min__energy>  (79) 
-6.8200000000000003

>  <m_primary>  (79) 
energy

$$$$
80:0
     RDKit          3D

 46 47  0  0  0  0  0  0  0  0999 V2000
  141.7990  155.6790  136.7590 C   0  0  0  0  0  0  0  0  0  0  0  0
  141.7480  157.0580  136.4750 O   0  0  0  0  0  0  0  0  0  0  0  0
  140.8240  157.6880  137.3390 C   0  0  0  0  0  0  0  0  0  0  0  0
  139.5280  157.9610  136.5760 C   0  0  0  0  0  0  0  0  0  0  0  0
  139.5020  157.2300  135.3520 O   0  0  0  0  0  0  0  0  0  0  0  0
  139.1820  157.8070  134.1160 C   0  0  0  0  0  0  0  0  0  0  0  0
  137.9770  157.8700  133.7400 O   0  0  0  0  0  0  0  0  0  0  0  0
  140.2470  158.2360  133.2470 N   0  0  2  0  0  0  0  0  0  0  0  0
  139.7470  158.9210  132.0430 C   0  0  0  0  0  0  0  0  0  0  0  0
  141.0540  157.0890  132.9190 C   0  0  0  0  0  0  0  0  0  0  0  0
  140.5690  155.9230  132.9870 O   0  0  0  0  0  0  0  0  0  0  0  0
  142.4080  157.2820  132.6130 O   0  0  0  0  0  0  0  0  0  0  0  0
  143.4410  157.3950  133.5510 C   0  0  0  0  0  0  0  0  0  0  0  0
  143.6870  156.4550  134.3570 O   0  0  0  0  0  0  0  0  0  0  0  0
  144.1880  158.6190  133.6330 N   0  0  0  0  0  0  0  0  0  0  0  0
  143.7110  159.8860  133.7950 C   0  0  0  0  0  0  0  0  0  0  0  0
  142.3140  160.2550  134.1090 C   0  0  0  0  0  0  0  0  0  0  0  0
  141.5840  159.5690  135.1250 N   0  0  0  0  0  0  0  0  0  0  0  0
  141.7720  161.2200  133.5060 O   0  0  0  0  0  0  0  0  0  0  0  0
  144.7430  160.8160  133.6820 C   0  0  0  0  0  0  0  0  0  0  0  0
  145.8780  160.0750  133.4500 C   0  0  0  0  0  0  0  0  0  0  0  0
  147.1900  160.4900  133.2350 C   0  0  0  0  0  0  0  0  0  0  0  0
  148.1580  159.5060  132.9750 C   0  0  0  0  0  0  0  0  0  0  0  0
  147.7970  158.1380  132.9170 C   0  0  0  0  0  0  0  0  0  0  0  0
  148.8390  157.0950  132.6500 C   0  0  0  0  0  0  0  0  0  0  0  0
  146.4620  157.7530  133.1600 C   0  0  0  0  0  0  0  0  0  0  0  0
  145.5180  158.7520  133.4270 C   0  0  0  0  0  0  0  0  0  0  0  0
  141.8045  155.5290  137.8487 H   0  0  0  0  0  0  0  0  0  0  0  0
  140.9186  155.1825  136.3250 H   0  0  0  0  0  0  0  0  0  0  0  0
  142.7137  155.2488  136.3250 H   0  0  0  0  0  0  0  0  0  0  0  0
  140.6149  157.0311  138.1962 H   0  0  0  0  0  0  0  0  0  0  0  0
  141.2456  158.6367  137.7026 H   0  0  0  0  0  0  0  0  0  0  0  0
  138.6723  157.6570  137.1968 H   0  0  0  0  0  0  0  0  0  0  0  0
  139.4705  159.0356  136.3482 H   0  0  0  0  0  0  0  0  0  0  0  0
  140.8420  158.9180  133.7740 H   0  0  0  0  0  0  0  0  0  0  0  0
  139.1226  159.7764  132.3405 H   0  0  0  0  0  0  0  0  0  0  0  0
  140.5979  159.2787  131.4446 H   0  0  0  0  0  0  0  0  0  0  0  0
  139.1470  158.2196  131.4446 H   0  0  0  0  0  0  0  0  0  0  0  0
  141.2670  158.5850  134.9860 H   0  0  0  0  0  0  0  0  0  0  0  0
  144.6659  161.9104  133.7615 H   0  0  0  0  0  0  0  0  0  0  0  0
  147.4599  161.5559  133.2678 H   0  0  0  0  0  0  0  0  0  0  0  0
  149.2057  159.8006  132.8151 H   0  0  0  0  0  0  0  0  0  0  0  0
  149.2246  156.7090  133.6051 H   0  0  0  0  0  0  0  0  0  0  0  0
  148.3933  156.2703  132.0744 H   0  0  0  0  0  0  0  0  0  0  0  0
  149.6641  157.5399  132.0744 H   0  0  0  0  0  0  0  0  0  0  0  0
  146.1694  156.6928  133.1402 H   0  0  0  0  0  0  0  0  0  0  0  0
  1  2  1  0
  2  3  1  0
  3  4  1  0
  4  5  1  0
  5  6  1  0
  6  7  2  0
  6  8  1  0
  8  9  1  0
  8 10  1  0
 10 11  2  0
 10 12  1  0
 12 13  1  0
 13 14  2  0
 13 15  1  0
 15 16  1  0
 16 17  1  0
 17 18  1  0
 17 19  2  0
 16 20  2  0
 20 21  1  0
 21 22  2  0
 22 23  1  0
 23 24  2  0
 24 25  1  0
 24 26  1  0
 26 27  2  0
 27 15  1  0
 27 21  1  0
  1 28  1  0
  1 29  1  0
  1 30  1  0
  3 31  1  0
  3 32  1  0
  4 33  1  0
  4 34  1  0
  8 35  1  1
  9 36  1  0
  9 37  1  0
  9 38  1  0
 18 39  1  0
 20 40  1  0
 22 41  1  0
 23 42  1  0
 25 43  1  0
 25 44  1  0
 25 45  1  0
 26 46  1  0
M  CHG  2   8   1  18  -1
M  END
>  <UniqueID>  (80) 
78

>  <SMILES>  (80) 
COCCOC(=O)[NH+](C)C(=O)OC(=O)n1c(C([NH-])=O)cc2ccc(C)cc21

>  <Energy>  (80) 
82.32151469704654

>  <Genealogy>  (80) 
COCCOC(=O)[NH+](C)C(=O)OC(=O)n1c(C([NH-])=O)cc2ccc(C)cc21 (protonated)
COCCOC(=O)[NH+](C)C(=O)OC(=O)n1c(C([NH-])=O)cc2ccc(C)cc21 (3D coordinates assigned)
COCCOC(=O)[NH+](C)C(=O)OC(=O)n1c(C([NH-])=O)cc2ccc(C)cc21 (optimized conformer: 82.32151469704654 kcal/mol)

>  <smiles>  (80) 
COCCOC(=O)N(C)C(=O)OC(=O)n1c(C(N)=O)cc2ccc(C)cc21

>  <score_type>  (80) 
oracle

>  <origin>  (80) 
adg

>  <m_score__min__energy>  (80) 
-6.0800000000000001

>  <m_primary>  (80) 
energy

$$$$
81:0
     RDKit          3D

 42 44  0  0  0  0  0  0  0  0999 V2000
  149.9730  150.6800  129.7980 C   0  0  0  0  0  0  0  0  0  0  0  0
  150.1840  150.8360  131.0980 C   0  0  0  0  0  0  0  0  0  0  0  0
  151.4560  150.7250  131.5960 O   0  0  0  0  0  0  0  0  0  0  0  0
  148.9840  151.1260  131.9160 C   0  0  0  0  0  0  0  0  0  0  0  0
  148.0570  150.2670  131.7160 O   0  0  0  0  0  0  0  0  0  0  0  0
  148.8910  152.2150  132.7960 N   0  0  0  0  0  0  0  0  0  0  0  0
  149.2440  151.8730  134.2140 C   0  0  0  0  0  0  0  0  0  0  0  0
  148.4310  153.5080  132.6260 C   0  0  0  0  0  0  0  0  0  0  0  0
  149.4100  154.3020  132.2080 O   0  0  0  0  0  0  0  0  0  0  0  0
  147.2170  154.1750  132.7880 N   0  0  0  0  0  0  0  0  0  0  0  0
  145.9610  153.7800  132.9970 C   0  0  0  0  0  0  0  0  0  0  0  0
  145.3690  152.4460  132.7340 C   0  0  0  0  0  0  0  0  0  0  0  0
  145.9920  151.4960  131.8810 N   0  0  0  0  0  0  0  0  0  0  0  0
  144.2790  152.1020  133.2540 O   0  0  0  0  0  0  0  0  0  0  0  0
  145.1250  154.8270  133.3330 C   0  0  0  0  0  0  0  0  0  0  0  0
  145.9120  155.9420  133.3240 C   0  0  0  0  0  0  0  0  0  0  0  0
  145.5650  157.2500  133.5910 C   0  0  0  0  0  0  0  0  0  0  0  0
  146.5450  158.2190  133.5210 C   0  0  0  0  0  0  0  0  0  0  0  0
  147.8420  157.8810  133.1920 C   0  0  0  0  0  0  0  0  0  0  0  0
  148.8450  158.8840  133.1210 N   0  0  0  0  0  0  0  0  0  0  0  0
  148.9500  159.8220  132.1470 C   0  0  0  0  0  0  0  0  0  0  0  0
  148.5210  161.0450  131.8770 N   0  0  0  0  0  0  0  0  0  0  0  0
  148.8030  161.7040  130.8210 C   0  0  0  0  0  0  0  0  0  0  0  0
  149.6220  161.1120  129.8660 C   0  0  0  0  0  0  0  0  0  0  0  0
  149.9770  159.4740  130.6170 S   0  0  0  0  0  0  0  0  0  0  0  0
  148.1370  156.5370  132.9310 C   0  0  0  0  0  0  0  0  0  0  0  0
  147.1820  155.5460  132.9910 C   0  0  0  0  0  0  0  0  0  0  0  0
  148.9546  150.7678  129.3917 H   0  0  0  0  0  0  0  0  0  0  0  0
  150.8164  150.4628  129.1261 H   0  0  0  0  0  0  0  0  0  0  0  0
  152.1850  151.4120  131.5390 H   0  0  0  0  0  0  0  0  0  0  0  0
  148.6265  152.4713  134.9001 H   0  0  0  0  0  0  0  0  0  0  0  0
  149.0572  150.8035  134.3906 H   0  0  0  0  0  0  0  0  0  0  0  0
  150.3071  152.0936  134.3906 H   0  0  0  0  0  0  0  0  0  0  0  0
  146.5700  151.8310  131.0770 H   0  0  0  0  0  0  0  0  0  0  0  0
  145.8790  150.4740  132.0490 H   0  0  0  0  0  0  0  0  0  0  0  0
  144.0501  154.7733  133.5602 H   0  0  0  0  0  0  0  0  0  0  0  0
  144.5302  157.5148  133.8539 H   0  0  0  0  0  0  0  0  0  0  0  0
  146.2905  159.2687  133.7290 H   0  0  0  0  0  0  0  0  0  0  0  0
  149.5540  158.8650  133.9160 H   0  0  0  0  0  0  0  0  0  0  0  0
  148.4065  162.7188  130.6696 H   0  0  0  0  0  0  0  0  0  0  0  0
  149.9689  161.5206  128.9054 H   0  0  0  0  0  0  0  0  0  0  0  0
  149.1693  156.2626  132.6684 H   0  0  0  0  0  0  0  0  0  0  0  0
  1  2  2  0
  2  3  1  0
  2  4  1  0
  4  5  2  0
  4  6  1  0
  6  7  1  0
  6  8  1  0
  8  9  2  0
  8 10  1  0
 10 11  1  0
 11 12  1  0
 12 13  1  0
 12 14  2  0
 11 15  2  0
 15 16  1  0
 16 17  2  0
 17 18  1  0
 18 19  2  0
 19 20  1  0
 20 21  1  0
 21 22  2  0
 22 23  1  0
 23 24  2  0
 24 25  1  0
 19 26  1  0
 26 27  2  0
 27 10  1  0
 27 16  1  0
 25 21  1  0
  1 28  1  0
  1 29  1  0
  3 30  1  0
  7 31  1  0
  7 32  1  0
  7 33  1  0
 13 34  1  0
 13 35  1  0
 15 36  1  0
 17 37  1  0
 18 38  1  0
 20 39  1  0
 23 40  1  0
 24 41  1  0
 26 42  1  0
M  END
>  <smiles>  (81) 
C=C(O)C(=O)N(C)C(=O)n1c(C(N)=O)cc2ccc(Nc3nccs3)cc21

>  <score_type>  (81) 
oracle

>  <origin>  (81) 
adg

>  <m_score__min__energy>  (81) 
-8.7899999999999991

>  <m_primary>  (81) 
energy

$$$$
82:0
     RDKit          3D

 46 49  0  0  0  0  0  0  0  0999 V2000
  145.1230  161.9750  134.4420 N   0  0  0  0  0  0  0  0  0  0  0  0
  145.5090  160.9660  134.0290 C   0  0  0  0  0  0  0  0  0  0  0  0
  145.9980  159.6830  133.5080 C   0  0  0  0  0  0  0  0  0  0  0  0
  145.1170  158.4720  133.6430 C   0  0  0  0  0  0  0  0  0  0  0  0
  145.6710  157.2240  134.0250 C   0  0  0  0  0  0  0  0  0  0  0  0
  144.8620  156.0760  134.1020 C   0  0  0  0  0  0  0  0  0  0  0  0
  143.5120  156.2070  133.7880 C   0  0  0  0  0  0  0  0  0  0  0  0
  142.5180  155.2560  133.7330 C   0  0  0  0  0  0  0  0  0  0  0  0
  141.3740  155.9380  133.3160 C   0  0  0  0  0  0  0  0  0  0  0  0
  140.0390  155.3180  133.1650 C   0  0  0  0  0  0  0  0  0  0  0  0
  138.8510  156.0510  133.4690 N   0  0  0  0  0  0  0  0  0  0  0  0
  139.9360  154.1330  132.7450 O   0  0  0  0  0  0  0  0  0  0  0  0
  141.6510  157.2600  133.1330 N   0  0  0  0  0  0  0  0  0  0  0  0
  140.7740  158.2780  132.6250 C   0  0  0  0  0  0  0  0  0  0  0  0
  140.9810  158.7650  131.4820 O   0  0  0  0  0  0  0  0  0  0  0  0
  139.6360  158.7540  133.4360 C   0  0  0  0  0  0  0  0  0  0  0  0
  138.5290  158.9590  132.8710 O   0  0  0  0  0  0  0  0  0  0  0  0
  139.7330  158.9460  134.8520 N   0  0  0  0  0  0  0  0  0  0  0  0
  140.9670  159.2570  135.5610 C   0  0  0  0  0  0  0  0  0  0  0  0
  141.1560  158.2770  136.6830 C   0  0  0  0  0  0  0  0  0  0  0  0
  140.8190  156.9230  136.5190 C   0  0  0  0  0  0  0  0  0  0  0  0
  141.0130  156.0180  137.5690 C   0  0  0  0  0  0  0  0  0  0  0  0
  141.5510  156.4570  138.7850 C   0  0  0  0  0  0  0  0  0  0  0  0
  141.7290  155.5790  139.8050 F   0  0  0  0  0  0  0  0  0  0  0  0
  141.9060  157.8010  138.9470 C   0  0  0  0  0  0  0  0  0  0  0  0
  142.4410  158.2240  140.1190 F   0  0  0  0  0  0  0  0  0  0  0  0
  141.7150  158.7070  137.8990 C   0  0  0  0  0  0  0  0  0  0  0  0
  142.9630  157.4060  133.4180 C   0  0  0  0  0  0  0  0  0  0  0  0
  143.7480  158.5610  133.3140 C   0  0  0  0  0  0  0  0  0  0  0  0
  146.9120  159.7550  132.2940 C   0  0  0  0  0  0  0  0  0  0  0  0
  147.4950  159.4450  133.6670 C   0  0  0  0  0  0  0  0  0  0  0  0
  146.7426  157.1530  134.2631 H   0  0  0  0  0  0  0  0  0  0  0  0
  145.2829  155.1047  134.4011 H   0  0  0  0  0  0  0  0  0  0  0  0
  142.6067  154.1851  133.9680 H   0  0  0  0  0  0  0  0  0  0  0  0
  138.8930  157.0070  133.8860 H   0  0  0  0  0  0  0  0  0  0  0  0
  137.9140  155.6120  133.3260 H   0  0  0  0  0  0  0  0  0  0  0  0
  141.8171  159.1884  134.8663 H   0  0  0  0  0  0  0  0  0  0  0  0
  140.9103  160.2771  135.9687 H   0  0  0  0  0  0  0  0  0  0  0  0
  140.4017  156.5733  135.5632 H   0  0  0  0  0  0  0  0  0  0  0  0
  140.7423  154.9598  137.4387 H   0  0  0  0  0  0  0  0  0  0  0  0
  142.0034  159.7608  138.0268 H   0  0  0  0  0  0  0  0  0  0  0  0
  143.3082  159.5138  132.9840 H   0  0  0  0  0  0  0  0  0  0  0  0
  146.8680  158.9694  131.5253 H   0  0  0  0  0  0  0  0  0  0  0  0
  147.1129  160.5058  131.5156 H   0  0  0  0  0  0  0  0  0  0  0  0
  147.8711  158.4357  133.8900 H   0  0  0  0  0  0  0  0  0  0  0  0
  148.2902  159.8788  134.2911 H   0  0  0  0  0  0  0  0  0  0  0  0
  1  2  3  0
  2  3  1  0
  3  4  1  0
  4  5  2  0
  5  6  1  0
  6  7  2  0
  7  8  1  0
  8  9  2  0
  9 10  1  0
 10 11  1  0
 10 12  2  0
  9 13  1  0
 13 14  1  0
 14 15  2  0
 14 16  1  0
 16 17  2  0
 16 18  1  0
 18 19  1  0
 19 20  1  0
 20 21  2  0
 21 22  1  0
 22 23  2  0
 23 24  1  0
 23 25  1  0
 25 26  1  0
 25 27  2  0
 13 28  1  0
 28 29  2  0
  3 30  1  0
 30 31  1  0
 31  3  1  0
 29  4  1  0
 28  7  1  0
 27 20  1  0
  5 32  1  0
  6 33  1  0
  8 34  1  0
 11 35  1  0
 11 36  1  0
 19 37  1  0
 19 38  1  0
 21 39  1  0
 22 40  1  0
 27 41  1  0
 29 42  1  0
 30 43  1  0
 30 44  1  0
 31 45  1  0
 31 46  1  0
M  CHG  1  18  -1
M  END
>  <UniqueID>  (82) 
79

>  <SMILES>  (82) 
N#CC1(c2ccc3cc(C(N)=O)n(C(=O)C(=O)[N-]Cc4ccc(F)c(F)c4)c3c2)CC1

>  <Energy>  (82) 
354.43174579894236

>  <Genealogy>  (82) 
N#CC1(c2ccc3cc(C(N)=O)n(C(=O)C(=O)[N-]Cc4ccc(F)c(F)c4)c3c2)CC1 (protonated)
N#CC1(c2ccc3cc(C(N)=O)n(C(=O)C(=O)[N-]Cc4ccc(F)c(F)c4)c3c2)CC1 (3D coordinates assigned)
N#CC1(c2ccc3cc(C(N)=O)n(C(=O)C(=O)[N-]Cc4ccc(F)c(F)c4)c3c2)CC1 (nonaromatic ring conformer: 354.43174579894236 kcal/mol)

>  <smiles>  (82) 
N#CC1(c2ccc3cc(C(N)=O)n(C(=O)C(=O)NCc4ccc(F)c(F)c4)c3c2)CC1

>  <score_type>  (82) 
oracle

>  <origin>  (82) 
adg

>  <m_score__min__energy>  (82) 
-9.3499999999999996

>  <m_primary>  (82) 
energy

$$$$
83:0
     RDKit          3D

 39 40  0  0  0  0  0  0  0  0999 V2000
  138.5000  160.4880  131.2000 C   0  0  0  0  0  0  0  0  0  0  0  0
  139.2070  159.4420  131.9440 N   0  0  0  0  0  0  0  0  0  0  0  0
  138.8410  158.0320  131.7850 C   0  0  0  0  0  0  0  0  0  0  0  0
  140.2750  159.7970  132.8380 C   0  0  0  0  0  0  0  0  0  0  0  0
  140.6010  161.0080  132.9800 O   0  0  0  0  0  0  0  0  0  0  0  0
  140.9460  158.7890  133.5470 O   0  0  0  0  0  0  0  0  0  0  0  0
  141.5740  158.9540  134.7880 C   0  0  0  0  0  0  0  0  0  0  0  0
  140.9150  159.3070  135.8050 O   0  0  0  0  0  0  0  0  0  0  0  0
  142.9520  158.7220  134.8710 O   0  0  0  0  0  0  0  0  0  0  0  0
  143.7770  158.3590  133.7970 C   0  0  0  0  0  0  0  0  0  0  0  0
  143.3960  157.5050  132.9510 O   0  0  0  0  0  0  0  0  0  0  0  0
  145.0740  158.9650  133.6610 N   0  0  0  0  0  0  0  0  0  0  0  0
  145.3660  160.2950  133.5900 C   0  0  0  0  0  0  0  0  0  0  0  0
  144.4130  161.4030  133.8000 C   0  0  0  0  0  0  0  0  0  0  0  0
  143.0110  161.2220  133.5940 N   0  0  0  0  0  0  0  0  0  0  0  0
  144.8370  162.5120  134.2200 O   0  0  0  0  0  0  0  0  0  0  0  0
  146.7210  160.4880  133.3380 C   0  0  0  0  0  0  0  0  0  0  0  0
  147.2620  159.2240  133.2700 C   0  0  0  0  0  0  0  0  0  0  0  0
  148.5690  158.8260  133.0140 C   0  0  0  0  0  0  0  0  0  0  0  0
  148.8390  157.4490  132.9560 C   0  0  0  0  0  0  0  0  0  0  0  0
  147.8060  156.4970  133.1590 C   0  0  0  0  0  0  0  0  0  0  0  0
  148.0960  155.0230  133.0290 C   0  0  0  0  0  0  0  0  0  0  0  0
  149.2380  154.8140  132.2770 F   0  0  0  0  0  0  0  0  0  0  0  0
  147.0440  154.3710  132.4080 F   0  0  0  0  0  0  0  0  0  0  0  0
  148.2780  154.4830  134.2880 F   0  0  0  0  0  0  0  0  0  0  0  0
  146.4840  156.9430  133.3890 C   0  0  0  0  0  0  0  0  0  0  0  0
  146.2470  158.3220  133.4660 C   0  0  0  0  0  0  0  0  0  0  0  0
  138.0283  161.1860  131.9073 H   0  0  0  0  0  0  0  0  0  0  0  0
  139.2146  161.0346  130.5671 H   0  0  0  0  0  0  0  0  0  0  0  0
  137.7264  160.0287  130.5671 H   0  0  0  0  0  0  0  0  0  0  0  0
  138.7212  157.5703  132.7762 H   0  0  0  0  0  0  0  0  0  0  0  0
  137.8942  157.9593  131.2297 H   0  0  0  0  0  0  0  0  0  0  0  0
  139.6329  157.5080  131.2297 H   0  0  0  0  0  0  0  0  0  0  0  0
  142.6100  160.2750  133.4130 H   0  0  0  0  0  0  0  0  0  0  0  0
  142.3580  162.0280  133.7080 H   0  0  0  0  0  0  0  0  0  0  0  0
  147.2475  161.4464  133.2186 H   0  0  0  0  0  0  0  0  0  0  0  0
  149.3675  159.5670  132.8615 H   0  0  0  0  0  0  0  0  0  0  0  0
  149.8632  157.1042  132.7508 H   0  0  0  0  0  0  0  0  0  0  0  0
  145.6600  156.2235  133.5049 H   0  0  0  0  0  0  0  0  0  0  0  0
  1  2  1  0
  2  3  1  0
  2  4  1  0
  4  5  2  0
  4  6  1  0
  6  7  1  0
  7  8  2  0
  7  9  1  0
  9 10  1  0
 10 11  2  0
 10 12  1  0
 12 13  1  0
 13 14  1  0
 14 15  1  0
 14 16  2  0
 13 17  2  0
 17 18  1  0
 18 19  2  0
 19 20  1  0
 20 21  2  0
 21 22  1  0
 22 23  1  0
 22 24  1  0
 22 25  1  0
 21 26  1  0
 26 27  2  0
 27 12  1  0
 27 18  1  0
  1 28  1  0
  1 29  1  0
  1 30  1  0
  3 31  1  0
  3 32  1  0
  3 33  1  0
 15 34  1  0
 15 35  1  0
 17 36  1  0
 19 37  1  0
 20 38  1  0
 26 39  1  0
M  END
>  <UniqueID>  (83) 
80

>  <SMILES>  (83) 
CN(C)C(=O)OC(=O)OC(=O)n1c(C(N)=O)cc2ccc(C(F)(F)F)cc21

>  <Energy>  (83) 
77.77636642594004

>  <Genealogy>  (83) 
CN(C)C(=O)OC(=O)OC(=O)n1c(C(N)=O)cc2ccc(C(F)(F)F)cc21 (3D coordinates assigned)
CN(C)C(=O)OC(=O)OC(=O)n1c(C(N)=O)cc2ccc(C(F)(F)F)cc21 (optimized conformer: 77.77636642594004 kcal/mol)

>  <smiles>  (83) 
CN(C)C(=O)OC(=O)OC(=O)n1c(C(N)=O)cc2ccc(C(F)(F)F)cc21

>  <score_type>  (83) 
oracle

>  <origin>  (83) 
adg

>  <m_score__min__energy>  (83) 
-6.5

>  <m_primary>  (83) 
energy

$$$$
84:0
     RDKit          3D

 46 47  0  0  0  0  0  0  0  0999 V2000
  149.6070  150.7430  133.2880 C   0  0  0  0  0  0  0  0  0  0  0  0
  149.3690  152.0500  133.7970 O   0  0  0  0  0  0  0  0  0  0  0  0
  149.0830  153.1400  132.9690 C   0  0  0  0  0  0  0  0  0  0  0  0
  149.6360  153.2550  131.8420 O   0  0  0  0  0  0  0  0  0  0  0  0
  148.0700  154.1510  133.4080 C   0  0  0  0  0  0  0  0  0  0  0  0
  147.5160  154.8590  132.2460 N   0  0  0  0  0  0  0  0  0  0  0  0
  147.4510  156.2740  132.5180 C   0  0  0  0  0  0  0  0  0  0  0  0
  148.6270  157.0660  132.4700 C   0  0  0  0  0  0  0  0  0  0  0  0
  148.5780  158.4420  132.7490 C   0  0  0  0  0  0  0  0  0  0  0  0
  147.3460  158.9950  133.0900 C   0  0  0  0  0  0  0  0  0  0  0  0
  147.0130  160.2970  133.3820 C   0  0  0  0  0  0  0  0  0  0  0  0
  145.6430  160.2780  133.6410 C   0  0  0  0  0  0  0  0  0  0  0  0
  144.8830  161.4660  134.0800 C   0  0  0  0  0  0  0  0  0  0  0  0
  143.5110  161.6270  133.7330 N   0  0  0  0  0  0  0  0  0  0  0  0
  145.4390  162.3270  134.8140 O   0  0  0  0  0  0  0  0  0  0  0  0
  145.1490  159.0150  133.5070 N   0  0  0  0  0  0  0  0  0  0  0  0
  143.7770  158.5980  133.5900 C   0  0  0  0  0  0  0  0  0  0  0  0
  143.2550  157.9750  132.6270 O   0  0  0  0  0  0  0  0  0  0  0  0
  143.0300  158.9120  134.7350 O   0  0  0  0  0  0  0  0  0  0  0  0
  141.6050  158.8110  134.8780 C   0  0  0  0  0  0  0  0  0  0  0  0
  141.2450  157.3210  134.7690 C   0  0  0  0  0  0  0  0  0  0  0  0
  140.8890  159.5790  133.7500 C   0  0  0  0  0  0  0  0  0  0  0  0
  141.1620  159.3310  136.2580 C   0  0  0  0  0  0  0  0  0  0  0  0
  146.2040  158.2400  133.1700 C   0  0  0  0  0  0  0  0  0  0  0  0
  146.2200  156.8720  132.8780 C   0  0  0  0  0  0  0  0  0  0  0  0
  149.7348  150.0411  134.1253 H   0  0  0  0  0  0  0  0  0  0  0  0
  148.7515  150.4278  132.6726 H   0  0  0  0  0  0  0  0  0  0  0  0
  150.5187  150.7496  132.6726 H   0  0  0  0  0  0  0  0  0  0  0  0
  147.2560  153.6398  133.9428 H   0  0  0  0  0  0  0  0  0  0  0  0
  148.5582  154.8806  134.0709 H   0  0  0  0  0  0  0  0  0  0  0  0
  146.5570  154.4960  132.0340 H   0  0  0  0  0  0  0  0  0  0  0  0
  148.1200  154.6880  131.4070 H   0  0  0  0  0  0  0  0  0  0  0  0
  149.5880  156.5974  132.2114 H   0  0  0  0  0  0  0  0  0  0  0  0
  149.4844  159.0633  132.6997 H   0  0  0  0  0  0  0  0  0  0  0  0
  147.6845  161.1680  133.4061 H   0  0  0  0  0  0  0  0  0  0  0  0
  142.8720  160.8040  133.6680 H   0  0  0  0  0  0  0  0  0  0  0  0
  141.1418  156.8940  135.7775 H   0  0  0  0  0  0  0  0  0  0  0  0
  140.2947  157.2122  134.2257 H   0  0  0  0  0  0  0  0  0  0  0  0
  142.0408  156.7903  134.2257 H   0  0  0  0  0  0  0  0  0  0  0  0
  140.2010  160.3170  134.1882 H   0  0  0  0  0  0  0  0  0  0  0  0
  141.6344  160.0966  133.1283 H   0  0  0  0  0  0  0  0  0  0  0  0
  140.3205  158.8716  133.1283 H   0  0  0  0  0  0  0  0  0  0  0  0
  141.6593  158.7473  137.0467 H   0  0  0  0  0  0  0  0  0  0  0  0
  141.4388  160.3910  136.3566 H   0  0  0  0  0  0  0  0  0  0  0  0
  140.0715  159.2261  136.3566 H   0  0  0  0  0  0  0  0  0  0  0  0
  145.2973  156.2751  132.9271 H   0  0  0  0  0  0  0  0  0  0  0  0
  1  2  1  0
  2  3  1  0
  3  4  2  0
  3  5  1  0
  5  6  1  0
  6  7  1  0
  7  8  2  0
  8  9  1  0
  9 10  2  0
 10 11  1  0
 11 12  2  0
 12 13  1  0
 13 14  1  0
 13 15  2  0
 12 16  1  0
 16 17  1  0
 17 18  2  0
 17 19  1  0
 19 20  1  0
 20 21  1  0
 20 22  1  0
 20 23  1  0
 16 24  1  0
 24 25  2  0
 25  7  1  0
 24 10  1  0
  1 26  1  0
  1 27  1  0
  1 28  1  0
  5 29  1  0
  5 30  1  0
  6 31  1  0
  6 32  1  0
  8 33  1  0
  9 34  1  0
 11 35  1  0
 14 36  1  0
 21 37  1  0
 21 38  1  0
 21 39  1  0
 22 40  1  0
 22 41  1  0
 22 42  1  0
 23 43  1  0
 23 44  1  0
 23 45  1  0
 25 46  1  0
M  CHG  2   6   1  14  -1
M  END
>  <UniqueID>  (84) 
81

>  <SMILES>  (84) 
COC(=O)C[NH2+]c1ccc2cc(C([NH-])=O)n(C(=O)OC(C)(C)C)c2c1

>  <Energy>  (84) 
76.93955794048074

>  <Genealogy>  (84) 
COC(=O)C[NH2+]c1ccc2cc(C([NH-])=O)n(C(=O)OC(C)(C)C)c2c1 (protonated)
COC(=O)C[NH2+]c1ccc2cc(C([NH-])=O)n(C(=O)OC(C)(C)C)c2c1 (3D coordinates assigned)
COC(=O)C[NH2+]c1ccc2cc(C([NH-])=O)n(C(=O)OC(C)(C)C)c2c1 (optimized conformer: 76.93955794048074 kcal/mol)

>  <smiles>  (84) 
COC(=O)CNc1ccc2cc(C(N)=O)n(C(=O)OC(C)(C)C)c2c1

>  <score_type>  (84) 
oracle

>  <origin>  (84) 
adg

>  <m_score__min__energy>  (84) 
-6.8799999999999999

>  <m_primary>  (84) 
energy

$$$$
85:0
     RDKit          3D

 43 44  0  0  0  0  0  0  0  0999 V2000
  149.0190  151.1010  131.8930 C   0  0  0  0  0  0  0  0  0  0  0  0
  149.8090  152.2270  132.2510 O   0  0  0  0  0  0  0  0  0  0  0  0
  149.2590  153.4930  132.4720 C   0  0  0  0  0  0  0  0  0  0  0  0
  149.9370  154.5360  132.2600 O   0  0  0  0  0  0  0  0  0  0  0  0
  147.8670  153.6080  133.0060 C   0  0  0  0  0  0  0  0  0  0  0  0
  147.8060  154.6400  134.1270 C   0  0  0  0  0  0  0  0  0  0  0  0
  146.7770  155.5820  133.8440 O   0  0  0  0  0  0  0  0  0  0  0  0
  146.8240  156.4440  132.7440 C   0  0  0  0  0  0  0  0  0  0  0  0
  147.0060  155.9850  131.5830 O   0  0  0  0  0  0  0  0  0  0  0  0
  146.6870  157.8600  132.9420 N   0  0  0  0  0  0  0  0  0  0  0  0
  147.5910  158.8330  132.6390 C   0  0  0  0  0  0  0  0  0  0  0  0
  148.9870  158.6170  132.2000 C   0  0  0  0  0  0  0  0  0  0  0  0
  149.5740  157.3190  132.2400 N   0  0  0  0  0  0  0  0  0  0  0  0
  149.6840  159.5990  131.8320 O   0  0  0  0  0  0  0  0  0  0  0  0
  147.0500  160.0950  132.8740 C   0  0  0  0  0  0  0  0  0  0  0  0
  145.7780  159.8640  133.3440 C   0  0  0  0  0  0  0  0  0  0  0  0
  144.7840  160.7650  133.7160 C   0  0  0  0  0  0  0  0  0  0  0  0
  143.5450  160.2460  134.1280 C   0  0  0  0  0  0  0  0  0  0  0  0
  143.3240  158.8460  134.1610 C   0  0  0  0  0  0  0  0  0  0  0  0
  141.9790  158.3050  134.5550 C   0  0  0  0  0  0  0  0  0  0  0  0
  141.0120  159.4290  134.7460 C   0  0  0  0  0  0  0  0  0  0  0  0
  140.2690  159.7840  133.7900 O   0  0  0  0  0  0  0  0  0  0  0  0
  140.9090  160.0440  135.9960 O   0  0  0  0  0  0  0  0  0  0  0  0
  140.9690  159.3150  137.2160 C   0  0  0  0  0  0  0  0  0  0  0  0
  144.3530  157.9630  133.7640 C   0  0  0  0  0  0  0  0  0  0  0  0
  145.5820  158.5070  133.3750 C   0  0  0  0  0  0  0  0  0  0  0  0
  148.6652  150.5967  132.8043 H   0  0  0  0  0  0  0  0  0  0  0  0
  148.1550  151.4333  131.2988 H   0  0  0  0  0  0  0  0  0  0  0  0
  149.6254  150.4016  131.2988 H   0  0  0  0  0  0  0  0  0  0  0  0
  147.1924  153.9163  132.1936 H   0  0  0  0  0  0  0  0  0  0  0  0
  147.5587  152.6309  133.4062 H   0  0  0  0  0  0  0  0  0  0  0  0
  147.5898  154.1349  135.0800 H   0  0  0  0  0  0  0  0  0  0  0  0
  148.7720  155.1608  134.2012 H   0  0  0  0  0  0  0  0  0  0  0  0
  149.0880  156.4960  131.8210 H   0  0  0  0  0  0  0  0  0  0  0  0
  147.5365  161.0690  132.7171 H   0  0  0  0  0  0  0  0  0  0  0  0
  144.9631  161.8500  133.6882 H   0  0  0  0  0  0  0  0  0  0  0  0
  142.7392  160.9322  134.4277 H   0  0  0  0  0  0  0  0  0  0  0  0
  141.6090  157.6367  133.7635 H   0  0  0  0  0  0  0  0  0  0  0  0
  142.0761  157.7478  135.4984 H   0  0  0  0  0  0  0  0  0  0  0  0
  140.9115  160.0136  138.0638 H   0  0  0  0  0  0  0  0  0  0  0  0
  140.1258  158.6102  137.2638 H   0  0  0  0  0  0  0  0  0  0  0  0
  141.9161  158.7575  137.2638 H   0  0  0  0  0  0  0  0  0  0  0  0
  144.1919  156.8749  133.7608 H   0  0  0  0  0  0  0  0  0  0  0  0
  1  2  1  0
  2  3  1  0
  3  4  2  0
  3  5  1  0
  5  6  1  0
  6  7  1  0
  7  8  1  0
  8  9  2  0
  8 10  1  0
 10 11  1  0
 11 12  1  0
 12 13  1  0
 12 14  2  0
 11 15  2  0
 15 16  1  0
 16 17  2  0
 17 18  1  0
 18 19  2  0
 19 20  1  0
 20 21  1  0
 21 22  2  0
 21 23  1  0
 23 24  1  0
 19 25  1  0
 25 26  2  0
 26 10  1  0
 26 16  1  0
  1 27  1  0
  1 28  1  0
  1 29  1  0
  5 30  1  0
  5 31  1  0
  6 32  1  0
  6 33  1  0
 13 34  1  0
 15 35  1  0
 17 36  1  0
 18 37  1  0
 20 38  1  0
 20 39  1  0
 24 40  1  0
 24 41  1  0
 24 42  1  0
 25 43  1  0
M  CHG  1  13  -1
M  END
>  <UniqueID>  (85) 
82

>  <SMILES>  (85) 
COC(=O)CCOC(=O)n1c(C([NH-])=O)cc2ccc(CC(=O)OC)cc21

>  <Energy>  (85) 
69.85595559565442

>  <Genealogy>  (85) 
COC(=O)CCOC(=O)n1c(C([NH-])=O)cc2ccc(CC(=O)OC)cc21 (protonated)
COC(=O)CCOC(=O)n1c(C([NH-])=O)cc2ccc(CC(=O)OC)cc21 (3D coordinates assigned)
COC(=O)CCOC(=O)n1c(C([NH-])=O)cc2ccc(CC(=O)OC)cc21 (optimized conformer: 69.85595559565442 kcal/mol)

>  <smiles>  (85) 
COC(=O)CCOC(=O)n1c(C(N)=O)cc2ccc(CC(=O)OC)cc21

>  <score_type>  (85) 
oracle

>  <origin>  (85) 
adg

>  <m_score__min__energy>  (85) 
-6.0599999999999996

>  <m_primary>  (85) 
energy

$$$$
86:0
     RDKit          3D

 49 51  0  0  0  0  0  0  0  0999 V2000
  141.5200  150.9770  132.6090 C   0  0  0  0  0  0  0  0  0  0  0  0
  142.4580  152.0490  132.9460 N   0  0  0  0  0  0  0  0  0  0  0  0
  142.0440  153.0970  133.8830 C   0  0  0  0  0  0  0  0  0  0  0  0
  143.8510  151.9080  132.6090 C   0  0  0  0  0  0  0  0  0  0  0  0
  144.3230  150.7660  132.3570 O   0  0  0  0  0  0  0  0  0  0  0  0
  144.7210  153.0510  132.5760 N   0  0  0  0  0  0  0  0  0  0  0  0
  144.4020  154.1910  131.7110 C   0  0  0  0  0  0  0  0  0  0  0  0
  144.7330  155.5030  132.4330 C   0  0  0  0  0  0  0  0  0  0  0  0
  146.0390  155.4360  133.1120 N   0  0  0  0  0  0  0  0  0  0  0  0
  146.4640  156.5350  133.9410 C   0  0  0  0  0  0  0  0  0  0  0  0
  147.3100  156.3500  134.8580 O   0  0  0  0  0  0  0  0  0  0  0  0
  145.9250  157.8500  133.7440 N   0  0  0  0  0  0  0  0  0  0  0  0
  146.5210  158.9080  133.1280 C   0  0  0  0  0  0  0  0  0  0  0  0
  147.9280  158.9680  132.6790 C   0  0  0  0  0  0  0  0  0  0  0  0
  148.9640  158.2600  133.3620 N   0  0  0  0  0  0  0  0  0  0  0  0
  148.2290  159.6950  131.6950 O   0  0  0  0  0  0  0  0  0  0  0  0
  145.6120  159.9520  132.9650 C   0  0  0  0  0  0  0  0  0  0  0  0
  144.4290  159.4930  133.5020 C   0  0  0  0  0  0  0  0  0  0  0  0
  143.1870  160.1100  133.5940 C   0  0  0  0  0  0  0  0  0  0  0  0
  142.1310  159.3810  134.1670 C   0  0  0  0  0  0  0  0  0  0  0  0
  142.3250  158.0450  134.6070 C   0  0  0  0  0  0  0  0  0  0  0  0
  141.1990  157.2880  135.2650 C   0  0  0  0  0  0  0  0  0  0  0  0
  140.5110  158.1080  136.1430 F   0  0  0  0  0  0  0  0  0  0  0  0
  140.3260  156.8370  134.2920 F   0  0  0  0  0  0  0  0  0  0  0  0
  141.6830  156.2020  135.9750 F   0  0  0  0  0  0  0  0  0  0  0  0
  143.6070  157.4600  134.5070 C   0  0  0  0  0  0  0  0  0  0  0  0
  144.6440  158.2200  133.9570 C   0  0  0  0  0  0  0  0  0  0  0  0
  146.8670  154.2280  132.9830 C   0  0  0  0  0  0  0  0  0  0  0  0
  146.0230  152.9790  133.2550 C   0  0  0  0  0  0  0  0  0  0  0  0
  141.1278  150.5288  133.5338 H   0  0  0  0  0  0  0  0  0  0  0  0
  140.6877  151.3898  132.0200 H   0  0  0  0  0  0  0  0  0  0  0  0
  142.0396  150.2069  132.0200 H   0  0  0  0  0  0  0  0  0  0  0  0
  142.1840  152.7425  134.9148 H   0  0  0  0  0  0  0  0  0  0  0  0
  142.6539  153.9975  133.7187 H   0  0  0  0  0  0  0  0  0  0  0  0
  140.9833  153.3376  133.7187 H   0  0  0  0  0  0  0  0  0  0  0  0
  144.9941  154.1241  130.7864 H   0  0  0  0  0  0  0  0  0  0  0  0
  143.3293  154.1721  131.4680 H   0  0  0  0  0  0  0  0  0  0  0  0
  144.7555  156.3196  131.6963 H   0  0  0  0  0  0  0  0  0  0  0  0
  143.9591  155.6806  133.1942 H   0  0  0  0  0  0  0  0  0  0  0  0
  148.7920  157.7960  134.2800 H   0  0  0  0  0  0  0  0  0  0  0  0
  149.9470  158.3100  133.0180 H   0  0  0  0  0  0  0  0  0  0  0  0
  145.7992  160.9337  132.5054 H   0  0  0  0  0  0  0  0  0  0  0  0
  143.0353  161.1368  133.2297 H   0  0  0  0  0  0  0  0  0  0  0  0
  141.1424  159.8509  134.2760 H   0  0  0  0  0  0  0  0  0  0  0  0
  143.7852  156.4313  134.8535 H   0  0  0  0  0  0  0  0  0  0  0  0
  147.2768  154.1751  131.9636 H   0  0  0  0  0  0  0  0  0  0  0  0
  147.6872  154.2742  133.7145 H   0  0  0  0  0  0  0  0  0  0  0  0
  146.5668  152.0941  132.8927 H   0  0  0  0  0  0  0  0  0  0  0  0
  145.8444  152.9120  134.3383 H   0  0  0  0  0  0  0  0  0  0  0  0
  1  2  1  0
  2  3  1  0
  2  4  1  0
  4  5  2  0
  4  6  1  0
  6  7  1  0
  7  8  1  0
  8  9  1  0
  9 10  1  0
 10 11  2  0
 10 12  1  0
 12 13  1  0
 13 14  1  0
 14 15  1  0
 14 16  2  0
 13 17  2  0
 17 18  1  0
 18 19  2  0
 19 20  1  0
 20 21  2  0
 21 22  1  0
 22 23  1  0
 22 24  1  0
 22 25  1  0
 21 26  1  0
 26 27  2  0
  9 28  1  0
 28 29  1  0
 29  6  1  0
 27 12  1  0
 27 18  1  0
  1 30  1  0
  1 31  1  0
  1 32  1  0
  3 33  1  0
  3 34  1  0
  3 35  1  0
  7 36  1  0
  7 37  1  0
  8 38  1  0
  8 39  1  0
 15 40  1  0
 15 41  1  0
 17 42  1  0
 19 43  1  0
 20 44  1  0
 26 45  1  0
 28 46  1  0
 28 47  1  0
 29 48  1  0
 29 49  1  0
M  END
>  <UniqueID>  (86) 
83

>  <SMILES>  (86) 
CN(C)C(=O)N1CCN(C(=O)n2c(C(N)=O)cc3ccc(C(F)(F)F)cc32)CC1

>  <Energy>  (86) 
92.9205879824417

>  <Genealogy>  (86) 
CN(C)C(=O)N1CCN(C(=O)n2c(C(N)=O)cc3ccc(C(F)(F)F)cc32)CC1 (3D coordinates assigned)
CN(C)C(=O)N1CCN(C(=O)n2c(C(N)=O)cc3ccc(C(F)(F)F)cc32)CC1 (nonaromatic ring conformer: 92.9205879824417 kcal/mol)

>  <smiles>  (86) 
CN(C)C(=O)N1CCN(C(=O)n2c(C(N)=O)cc3ccc(C(F)(F)F)cc32)CC1

>  <score_type>  (86) 
oracle

>  <origin>  (86) 
adg

>  <m_score__min__energy>  (86) 
-7.6399999999999997

>  <m_primary>  (86) 
energy

$$$$
87:0
     RDKit          3D

 41 43  0  0  0  0  0  0  0  0999 V2000
  148.5060  159.7350  130.2030 C   0  0  0  0  0  0  0  0  0  0  0  0
  149.2690  159.9350  131.4460 N   0  0  0  0  0  0  0  0  0  0  0  0
  150.0290  158.7280  131.8260 C   0  0  0  0  0  0  0  0  0  0  0  0
  149.1170  157.5950  132.3310 C   0  0  0  0  0  0  0  0  0  0  0  0
  148.0050  158.0830  133.2950 C   0  0  0  0  0  0  0  0  0  0  0  0
  146.6750  157.9340  132.6830 N   0  0  0  0  0  0  0  0  0  0  0  0
  145.4500  158.4190  133.2690 C   0  0  0  0  0  0  0  0  0  0  0  0
  145.1660  159.8090  133.3710 C   0  0  0  0  0  0  0  0  0  0  0  0
  143.9670  160.2560  133.9530 C   0  0  0  0  0  0  0  0  0  0  0  0
  143.0710  159.3000  134.4190 C   0  0  0  0  0  0  0  0  0  0  0  0
  141.8500  159.4570  135.0330 C   0  0  0  0  0  0  0  0  0  0  0  0
  141.3910  158.1650  135.2800 C   0  0  0  0  0  0  0  0  0  0  0  0
  140.0560  157.8770  135.8430 C   0  0  0  0  0  0  0  0  0  0  0  0
  139.9460  157.2400  137.1130 N   0  0  0  0  0  0  0  0  0  0  0  0
  139.0110  158.2320  135.2380 O   0  0  0  0  0  0  0  0  0  0  0  0
  142.3020  157.2440  134.8500 N   0  0  0  0  0  0  0  0  0  0  0  0
  142.2690  155.8140  134.9870 C   0  0  0  0  0  0  0  0  0  0  0  0
  141.3700  155.2460  135.6630 O   0  0  0  0  0  0  0  0  0  0  0  0
  143.3190  157.9580  134.3180 C   0  0  0  0  0  0  0  0  0  0  0  0
  144.5080  157.4830  133.7530 C   0  0  0  0  0  0  0  0  0  0  0  0
  148.2400  159.5370  133.7390 C   0  0  0  0  0  0  0  0  0  0  0  0
  148.4310  160.4900  132.5400 C   0  0  0  0  0  0  0  0  0  0  0  0
  147.4689  159.4632  130.4491 H   0  0  0  0  0  0  0  0  0  0  0  0
  148.5118  160.6650  129.6156 H   0  0  0  0  0  0  0  0  0  0  0  0
  148.9672  158.9274  129.6156 H   0  0  0  0  0  0  0  0  0  0  0  0
  150.5846  158.3691  130.9471 H   0  0  0  0  0  0  0  0  0  0  0  0
  150.7075  159.0035  132.6468 H   0  0  0  0  0  0  0  0  0  0  0  0
  148.6404  157.1176  131.4621 H   0  0  0  0  0  0  0  0  0  0  0  0
  149.7510  156.8946  132.8945 H   0  0  0  0  0  0  0  0  0  0  0  0
  148.0455  157.4487  134.1928 H   0  0  0  0  0  0  0  0  0  0  0  0
  146.6070  157.4730  131.7460 H   0  0  0  0  0  0  0  0  0  0  0  0
  145.8924  160.5421  132.9904 H   0  0  0  0  0  0  0  0  0  0  0  0
  143.7442  161.3299  134.0373 H   0  0  0  0  0  0  0  0  0  0  0  0
  141.3434  160.4024  135.2772 H   0  0  0  0  0  0  0  0  0  0  0  0
  140.3700  156.3000  137.2810 H   0  0  0  0  0  0  0  0  0  0  0  0
  143.0411  155.2052  134.4937 H   0  0  0  0  0  0  0  0  0  0  0  0
  144.7055  156.4029  133.6869 H   0  0  0  0  0  0  0  0  0  0  0  0
  147.3712  159.8735  134.3238 H   0  0  0  0  0  0  0  0  0  0  0  0
  149.1613  159.5616  134.3396 H   0  0  0  0  0  0  0  0  0  0  0  0
  147.4394  160.7280  132.1276 H   0  0  0  0  0  0  0  0  0  0  0  0
  148.9585  161.3762  132.9226 H   0  0  0  0  0  0  0  0  0  0  0  0
  1  2  1  0
  2  3  1  0
  3  4  1  0
  4  5  1  0
  5  6  1  0
  6  7  1  0
  7  8  2  0
  8  9  1  0
  9 10  2  0
 10 11  1  0
 11 12  2  0
 12 13  1  0
 13 14  1  0
 13 15  2  0
 12 16  1  0
 16 17  1  0
 17 18  2  0
 16 19  1  0
 19 20  2  0
  5 21  1  0
 21 22  1  0
 22  2  1  0
 20  7  1  0
 19 10  1  0
  1 23  1  0
  1 24  1  0
  1 25  1  0
  3 26  1  0
  3 27  1  0
  4 28  1  0
  4 29  1  0
  5 30  1  0
  6 31  1  0
  8 32  1  0
  9 33  1  0
 11 34  1  0
 14 35  1  0
 17 36  1  0
 20 37  1  0
 21 38  1  0
 21 39  1  0
 22 40  1  0
 22 41  1  0
M  CHG  1  14  -1
M  END
>  <UniqueID>  (87) 
84

>  <SMILES>  (87) 
CN1CCC(Nc2ccc3cc(C([NH-])=O)n(C=O)c3c2)CC1

>  <Energy>  (87) 
89.70584648151456

>  <Genealogy>  (87) 
CN1CCC(Nc2ccc3cc(C([NH-])=O)n(C=O)c3c2)CC1 (protonated)
CN1CCC(Nc2ccc3cc(C([NH-])=O)n(C=O)c3c2)CC1 (3D coordinates assigned)
CN1CCC(Nc2ccc3cc(C([NH-])=O)n(C=O)c3c2)CC1 (nonaromatic ring conformer: 89.70584648151456 kcal/mol)

>  <smiles>  (87) 
CN1CCC(Nc2ccc3cc(C(N)=O)n(C=O)c3c2)CC1

>  <score_type>  (87) 
oracle

>  <origin>  (87) 
adg

>  <m_score__min__energy>  (87) 
-7.4900000000000002

>  <m_primary>  (87) 
energy

$$$$
88:0
     RDKit          3D

 49 50  0  0  0  0  0  0  0  0999 V2000
  147.9210  151.3560  132.2000 C   0  0  0  0  0  0  0  0  0  0  0  0
  149.2000  151.9470  132.7980 C   0  0  0  0  0  0  0  0  0  0  0  0
  150.3800  151.0010  132.5880 C   0  0  0  0  0  0  0  0  0  0  0  0
  149.4960  153.2020  132.1840 O   0  0  0  0  0  0  0  0  0  0  0  0
  148.9790  154.4210  132.6340 C   0  0  0  0  0  0  0  0  0  0  0  0
  149.5390  155.5100  132.3210 O   0  0  0  0  0  0  0  0  0  0  0  0
  147.8220  154.4190  133.4180 O   0  0  0  0  0  0  0  0  0  0  0  0
  146.5150  154.3570  132.8570 C   0  0  0  0  0  0  0  0  0  0  0  0
  145.9850  155.6750  132.7670 O   0  0  0  0  0  0  0  0  0  0  0  0
  145.7420  156.4860  133.8790 C   0  0  0  0  0  0  0  0  0  0  0  0
  145.6990  155.9730  135.0290 O   0  0  0  0  0  0  0  0  0  0  0  0
  145.5070  157.8980  133.6960 N   0  0  0  0  0  0  0  0  0  0  0  0
  146.4340  158.8980  133.6710 C   0  0  0  0  0  0  0  0  0  0  0  0
  147.8950  158.7220  133.6640 C   0  0  0  0  0  0  0  0  0  0  0  0
  148.4730  157.4280  133.4920 N   0  0  0  0  0  0  0  0  0  0  0  0
  148.6430  159.7320  133.7410 O   0  0  0  0  0  0  0  0  0  0  0  0
  145.8220  160.1460  133.6960 C   0  0  0  0  0  0  0  0  0  0  0  0
  144.4720  159.8850  133.7080 C   0  0  0  0  0  0  0  0  0  0  0  0
  143.3960  160.7630  133.7300 C   0  0  0  0  0  0  0  0  0  0  0  0
  142.1000  160.2240  133.7340 C   0  0  0  0  0  0  0  0  0  0  0  0
  141.8880  158.8140  133.6930 C   0  0  0  0  0  0  0  0  0  0  0  0
  140.4850  158.1850  133.7150 C   0  0  0  0  0  0  0  0  0  0  0  0
  139.7920  158.2690  135.0920 C   0  0  0  0  0  0  0  0  0  0  0  0
  140.5850  156.7030  133.3030 C   0  0  0  0  0  0  0  0  0  0  0  0
  139.6200  158.8900  132.7460 C   0  0  0  0  0  0  0  0  0  0  0  0
  138.9440  159.4430  131.9880 N   0  0  0  0  0  0  0  0  0  0  0  0
  143.0240  157.9620  133.6790 C   0  0  0  0  0  0  0  0  0  0  0  0
  144.3050  158.5270  133.7020 C   0  0  0  0  0  0  0  0  0  0  0  0
  147.2468  151.0445  133.0114 H   0  0  0  0  0  0  0  0  0  0  0  0
  147.4218  152.1147  131.5794 H   0  0  0  0  0  0  0  0  0  0  0  0
  148.1753  150.4841  131.5794 H   0  0  0  0  0  0  0  0  0  0  0  0
  149.0374  152.0899  133.8765 H   0  0  0  0  0  0  0  0  0  0  0  0
  150.7747  150.6846  133.5648 H   0  0  0  0  0  0  0  0  0  0  0  0
  150.0459  150.1177  132.0239 H   0  0  0  0  0  0  0  0  0  0  0  0
  151.1695  151.5192  132.0239 H   0  0  0  0  0  0  0  0  0  0  0  0
  146.5657  153.9108  131.8528 H   0  0  0  0  0  0  0  0  0  0  0  0
  145.8662  153.7389  133.4950 H   0  0  0  0  0  0  0  0  0  0  0  0
  149.5100  157.3110  133.4940 H   0  0  0  0  0  0  0  0  0  0  0  0
  147.8700  156.5970  133.3010 H   0  0  0  0  0  0  0  0  0  0  0  0
  146.3123  161.1306  133.7044 H   0  0  0  0  0  0  0  0  0  0  0  0
  143.5552  161.8513  133.7439 H   0  0  0  0  0  0  0  0  0  0  0  0
  141.2332  160.9003  133.7693 H   0  0  0  0  0  0  0  0  0  0  0  0
  140.5457  158.1776  135.8880 H   0  0  0  0  0  0  0  0  0  0  0  0
  139.2763  159.2362  135.1846 H   0  0  0  0  0  0  0  0  0  0  0  0
  139.0602  157.4530  135.1846 H   0  0  0  0  0  0  0  0  0  0  0  0
  140.6275  156.0739  134.2044 H   0  0  0  0  0  0  0  0  0  0  0  0
  139.7034  156.4283  132.7053 H   0  0  0  0  0  0  0  0  0  0  0  0
  141.4956  156.5492  132.7053 H   0  0  0  0  0  0  0  0  0  0  0  0
  142.8989  156.8695  133.6504 H   0  0  0  0  0  0  0  0  0  0  0  0
  1  2  1  0
  2  3  1  0
  2  4  1  0
  4  5  1  0
  5  6  2  0
  5  7  1  0
  7  8  1  0
  8  9  1  0
  9 10  1  0
 10 11  2  0
 10 12  1  0
 12 13  1  0
 13 14  1  0
 14 15  1  0
 14 16  2  0
 13 17  2  0
 17 18  1  0
 18 19  2  0
 19 20  1  0
 20 21  2  0
 21 22  1  0
 22 23  1  0
 22 24  1  0
 22 25  1  0
 25 26  3  0
 21 27  1  0
 27 28  2  0
 28 12  1  0
 28 18  1  0
  1 29  1  0
  1 30  1  0
  1 31  1  0
  2 32  1  0
  3 33  1  0
  3 34  1  0
  3 35  1  0
  8 36  1  0
  8 37  1  0
 15 38  1  0
 15 39  1  0
 17 40  1  0
 19 41  1  0
 20 42  1  0
 23 43  1  0
 23 44  1  0
 23 45  1  0
 24 46  1  0
 24 47  1  0
 24 48  1  0
 27 49  1  0
M  END
>  <UniqueID>  (88) 
85

>  <SMILES>  (88) 
CC(C)OC(=O)OCOC(=O)n1c(C(N)=O)cc2ccc(C(C)(C)C#N)cc21

>  <Energy>  (88) 
79.64466749483088

>  <Genealogy>  (88) 
CC(C)OC(=O)OCOC(=O)n1c(C(N)=O)cc2ccc(C(C)(C)C#N)cc21 (3D coordinates assigned)
CC(C)OC(=O)OCOC(=O)n1c(C(N)=O)cc2ccc(C(C)(C)C#N)cc21 (optimized conformer: 79.64466749483088 kcal/mol)

>  <smiles>  (88) 
CC(C)OC(=O)OCOC(=O)n1c(C(N)=O)cc2ccc(C(C)(C)C#N)cc21

>  <score_type>  (88) 
oracle

>  <origin>  (88) 
adg

>  <m_score__min__energy>  (88) 
-7.6100000000000003

>  <m_primary>  (88) 
energy

$$$$
89:0
     RDKit          3D

 31 32  0  0  0  0  0  0  0  0999 V2000
  149.6600  157.4600  132.2330 N   0  0  0  0  0  0  0  0  0  0  0  0
  149.1730  158.7810  132.4570 C   0  0  0  0  0  0  0  0  0  0  0  0
  149.9310  159.7620  132.2320 O   0  0  0  0  0  0  0  0  0  0  0  0
  147.7860  159.0170  132.9090 C   0  0  0  0  0  0  0  0  0  0  0  0
  147.2300  160.2860  133.0610 C   0  0  0  0  0  0  0  0  0  0  0  0
  145.9210  160.0690  133.4320 C   0  0  0  0  0  0  0  0  0  0  0  0
  144.9120  160.9810  133.7310 C   0  0  0  0  0  0  0  0  0  0  0  0
  143.6610  160.4740  134.1190 C   0  0  0  0  0  0  0  0  0  0  0  0
  143.4440  159.0760  134.2080 C   0  0  0  0  0  0  0  0  0  0  0  0
  142.1110  158.5370  134.6420 C   0  0  0  0  0  0  0  0  0  0  0  0
  141.1120  159.0740  133.8510 F   0  0  0  0  0  0  0  0  0  0  0  0
  141.8790  158.8730  135.9630 F   0  0  0  0  0  0  0  0  0  0  0  0
  144.4940  158.1820  133.9020 C   0  0  0  0  0  0  0  0  0  0  0  0
  145.7230  158.7160  133.4980 C   0  0  0  0  0  0  0  0  0  0  0  0
  146.8570  158.0550  133.1780 N   0  0  0  0  0  0  0  0  0  0  0  0
  147.0500  156.6330  133.2050 C   0  0  0  0  0  0  0  0  0  0  0  0
  147.0360  155.9810  132.1260 O   0  0  0  0  0  0  0  0  0  0  0  0
  147.2590  155.9430  134.4930 C   0  0  0  0  0  0  0  0  0  0  0  0
  147.5670  154.6470  134.5680 C   0  0  0  0  0  0  0  0  0  0  0  0
  147.8210  153.8630  136.1550 P   0  0  0  0  0  0  0  0  0  0  0  0
  148.4350  154.8530  137.1180 O   0  0  0  0  0  0  0  0  0  0  0  0
  148.8580  152.5390  135.9730 O   0  0  0  0  0  0  0  0  0  0  0  0
  146.3370  153.3330  136.7660 O   0  0  0  0  0  0  0  0  0  0  0  0
  149.0440  156.7230  131.8250 H   0  0  0  0  0  0  0  0  0  0  0  0
  147.7301  161.2549  132.9156 H   0  0  0  0  0  0  0  0  0  0  0  0
  145.0892  162.0646  133.6654 H   0  0  0  0  0  0  0  0  0  0  0  0
  142.8416  161.1685  134.3561 H   0  0  0  0  0  0  0  0  0  0  0  0
  142.1140  157.4420  134.5376 H   0  0  0  0  0  0  0  0  0  0  0  0
  144.3495  157.0943  133.9792 H   0  0  0  0  0  0  0  0  0  0  0  0
  147.1571  156.5183  135.4250 H   0  0  0  0  0  0  0  0  0  0  0  0
  147.6655  154.0557  133.6457 H   0  0  0  0  0  0  0  0  0  0  0  0
  1  2  1  0
  2  3  2  0
  2  4  1  0
  4  5  2  0
  5  6  1  0
  6  7  2  0
  7  8  1  0
  8  9  2  0
  9 10  1  0
 10 11  1  0
 10 12  1  0
  9 13  1  0
 13 14  2  0
 14 15  1  0
 15 16  1  0
 16 17  2  0
 16 18  1  0
 18 19  2  3
 19 20  1  0
 20 21  2  0
 20 22  1  0
 20 23  1  0
 15  4  1  0
 14  6  1  0
  1 24  1  0
  5 25  1  0
  7 26  1  0
  8 27  1  0
 10 28  1  0
 13 29  1  0
 18 30  1  0
 19 31  1  0
M  CHG  3   1  -1  22  -1  23  -1
M  END
>  <UniqueID>  (89) 
86

>  <SMILES>  (89) 
[NH-]C(=O)c1cc2ccc(C(F)F)cc2n1C(=O)C=CP(=O)([O-])[O-]

>  <Energy>  (89) 
66.16980823636166

>  <Genealogy>  (89) 
[NH-]C(=O)c1cc2ccc(C(F)F)cc2n1C(=O)C=CP(=O)([O-])[O-] (protonated)
[NH-]C(=O)c1cc2ccc(C(F)F)cc2n1C(=O)C=CP(=O)([O-])[O-] (3D coordinates assigned)
[NH-]C(=O)c1cc2ccc(C(F)F)cc2n1C(=O)C=CP(=O)([O-])[O-] (optimized conformer: 66.16980823636166 kcal/mol)

>  <smiles>  (89) 
NC(=O)c1cc2ccc(C(F)F)cc2n1C(=O)C=CP(=O)(O)O

>  <score_type>  (89) 
oracle

>  <origin>  (89) 
adg

>  <m_score__min__energy>  (89) 
-6.6100000000000003

>  <m_primary>  (89) 
energy

$$$$
90:0
     RDKit          3D

 44 47  0  0  0  0  0  0  0  0999 V2000
  147.3400  158.0430  132.2600 N   0  0  0  0  0  0  0  0  0  0  0  0
  146.8380  159.0410  133.1450 C   0  0  0  0  0  0  0  0  0  0  0  0
  147.6390  159.8330  133.7020 O   0  0  0  0  0  0  0  0  0  0  0  0
  145.3950  159.0980  133.4440 C   0  0  0  0  0  0  0  0  0  0  0  0
  144.6610  160.2820  133.4130 C   0  0  0  0  0  0  0  0  0  0  0  0
  143.3550  159.9060  133.6250 C   0  0  0  0  0  0  0  0  0  0  0  0
  142.2060  160.6840  133.7200 C   0  0  0  0  0  0  0  0  0  0  0  0
  140.9910  160.0330  133.9900 C   0  0  0  0  0  0  0  0  0  0  0  0
  140.9420  158.6230  134.1500 C   0  0  0  0  0  0  0  0  0  0  0  0
  139.6450  157.9430  134.5080 C   0  0  0  0  0  0  0  0  0  0  0  0
  139.3280  158.2330  135.8210 F   0  0  0  0  0  0  0  0  0  0  0  0
  138.6210  158.3840  133.6870 F   0  0  0  0  0  0  0  0  0  0  0  0
  139.7560  156.5720  134.3620 F   0  0  0  0  0  0  0  0  0  0  0  0
  142.1380  157.8730  134.0660 C   0  0  0  0  0  0  0  0  0  0  0  0
  143.3310  158.5460  133.7790 C   0  0  0  0  0  0  0  0  0  0  0  0
  144.5780  158.0320  133.6820 N   0  0  0  0  0  0  0  0  0  0  0  0
  144.9290  156.6470  133.8800 C   0  0  0  0  0  0  0  0  0  0  0  0
  144.8310  156.1590  135.0400 O   0  0  0  0  0  0  0  0  0  0  0  0
  145.5160  155.8580  132.8060 N   0  0  2  0  0  0  0  0  0  0  0  0
  144.4080  155.1310  132.1000 C   0  0  0  0  0  0  0  0  0  0  0  0
  144.7040  153.7250  131.5900 C   0  0  0  0  0  0  0  0  0  0  0  0
  143.6920  153.1110  132.4540 N   0  0  0  0  0  0  0  0  0  0  0  0
  143.3540  154.4400  132.9650 C   0  0  0  0  0  0  0  0  0  0  0  0
  146.6230  155.0080  133.3460 C   0  0  0  0  0  0  0  0  0  0  0  0
  147.6280  155.7410  134.2300 C   0  0  0  0  0  0  0  0  0  0  0  0
  148.6970  155.5010  133.3530 O   0  0  0  0  0  0  0  0  0  0  0  0
  147.8390  154.8670  132.4400 C   0  0  0  0  0  0  0  0  0  0  0  0
  146.6910  157.4430  131.7030 H   0  0  0  0  0  0  0  0  0  0  0  0
  145.0444  161.3005  133.2530 H   0  0  0  0  0  0  0  0  0  0  0  0
  142.2475  161.7752  133.5878 H   0  0  0  0  0  0  0  0  0  0  0  0
  140.0665  160.6225  134.0786 H   0  0  0  0  0  0  0  0  0  0  0  0
  142.1307  156.7843  134.2228 H   0  0  0  0  0  0  0  0  0  0  0  0
  145.9220  156.5250  132.1120 H   0  0  0  0  0  0  0  0  0  0  0  0
  144.1778  155.9758  131.4342 H   0  0  0  0  0  0  0  0  0  0  0  0
  144.4976  153.5974  130.5171 H   0  0  0  0  0  0  0  0  0  0  0  0
  145.7376  153.3518  131.6394 H   0  0  0  0  0  0  0  0  0  0  0  0
  142.9010  152.7730  131.8550 H   0  0  0  0  0  0  0  0  0  0  0  0
  142.3249  154.7496  132.7303 H   0  0  0  0  0  0  0  0  0  0  0  0
  143.3685  154.6083  134.0520 H   0  0  0  0  0  0  0  0  0  0  0  0
  145.9932  154.1689  133.6765 H   0  0  0  0  0  0  0  0  0  0  0  0
  147.3994  156.8095  134.3565 H   0  0  0  0  0  0  0  0  0  0  0  0
  147.7290  155.4322  135.2809 H   0  0  0  0  0  0  0  0  0  0  0  0
  147.7383  155.4092  131.4882 H   0  0  0  0  0  0  0  0  0  0  0  0
  148.1084  153.8656  132.0732 H   0  0  0  0  0  0  0  0  0  0  0  0
  1  2  1  0
  2  3  2  0
  2  4  1  0
  4  5  2  0
  5  6  1  0
  6  7  2  0
  7  8  1  0
  8  9  2  0
  9 10  1  0
 10 11  1  0
 10 12  1  0
 10 13  1  0
  9 14  1  0
 14 15  2  0
 15 16  1  0
 16 17  1  0
 17 18  2  0
 17 19  1  0
 19 20  1  0
 20 21  1  0
 21 22  1  0
 22 23  1  0
 19 24  1  0
 24 25  1  0
 25 26  1  0
 26 27  1  0
 16  4  1  0
 23 20  1  0
 27 24  1  0
 15  6  1  0
  1 28  1  0
  5 29  1  0
  7 30  1  0
  8 31  1  0
 14 32  1  0
 19 33  1  6
 20 34  1  0
 21 35  1  0
 21 36  1  0
 22 37  1  0
 23 38  1  0
 23 39  1  0
 24 40  1  0
 25 41  1  0
 25 42  1  0
 27 43  1  0
 27 44  1  0
M  CHG  2   1  -1  19   1
M  END
>  <UniqueID>  (90) 
87

>  <SMILES>  (90) 
[NH-]C(=O)c1cc2ccc(C(F)(F)F)cc2n1C(=O)[N@H+](C1CNC1)C1COC1

>  <Energy>  (90) 
232.904961832198

>  <Genealogy>  (90) 
[NH-]C(=O)c1cc2ccc(C(F)(F)F)cc2n1C(=O)[NH+](C1CNC1)C1COC1 (protonated)
[NH-]C(=O)c1cc2ccc(C(F)(F)F)cc2n1C(=O)[N@H+](C1CNC1)C1COC1 (chirality)
[NH-]C(=O)c1cc2ccc(C(F)(F)F)cc2n1C(=O)[N@H+](C1CNC1)C1COC1 (3D coordinates assigned)
[NH-]C(=O)c1cc2ccc(C(F)(F)F)cc2n1C(=O)[N@H+](C1CNC1)C1COC1 (nonaromatic ring conformer: 232.904961832198 kcal/mol)

>  <smiles>  (90) 
NC(=O)c1cc2ccc(C(F)(F)F)cc2n1C(=O)N(C1CNC1)C1COC1

>  <score_type>  (90) 
oracle

>  <origin>  (90) 
adg

>  <m_score__min__energy>  (90) 
-6.4500000000000002

>  <m_primary>  (90) 
energy

$$$$
91:0
     RDKit          3D

 58 59  0  0  0  0  0  0  0  0999 V2000
  144.2030  161.1320  133.8850 C   0  0  0  0  0  0  0  0  0  0  0  0
  144.0980  159.6690  133.9510 N   0  0  0  0  0  0  0  0  0  0  0  0
  142.8270  159.0900  134.4170 C   0  0  0  0  0  0  0  0  0  0  0  0
  141.7510  159.2710  133.3900 C   0  0  0  0  0  0  0  0  0  0  0  0
  141.4460  160.4290  132.9950 O   0  0  0  0  0  0  0  0  0  0  0  0
  141.0790  158.1380  132.9080 O   0  0  0  0  0  0  0  0  0  0  0  0
  139.7190  157.7720  133.1930 C   0  0  0  0  0  0  0  0  0  0  0  0
  139.5010  156.2690  132.9350 C   0  0  0  0  0  0  0  0  0  0  0  0
  138.7390  158.6140  132.3540 C   0  0  0  0  0  0  0  0  0  0  0  0
  139.4750  158.0630  134.6810 C   0  0  0  0  0  0  0  0  0  0  0  0
  145.2490  158.8390  133.6420 C   0  0  0  0  0  0  0  0  0  0  0  0
  146.5010  159.4360  133.3250 C   0  0  0  0  0  0  0  0  0  0  0  0
  147.6270  158.6500  133.0340 C   0  0  0  0  0  0  0  0  0  0  0  0
  147.4850  157.2680  133.0680 C   0  0  0  0  0  0  0  0  0  0  0  0
  148.4080  156.2810  132.8090 C   0  0  0  0  0  0  0  0  0  0  0  0
  147.7210  155.0810  132.9810 C   0  0  0  0  0  0  0  0  0  0  0  0
  148.3570  153.7490  132.8900 C   0  0  0  0  0  0  0  0  0  0  0  0
  147.6680  152.5780  133.3360 N   0  0  0  0  0  0  0  0  0  0  0  0
  149.5040  153.6280  132.3840 O   0  0  0  0  0  0  0  0  0  0  0  0
  146.4230  155.3190  133.3280 N   0  0  0  0  0  0  0  0  0  0  0  0
  145.3720  154.3520  133.4990 C   0  0  0  0  0  0  0  0  0  0  0  0
  145.1650  153.4890  132.6020 O   0  0  0  0  0  0  0  0  0  0  0  0
  144.5730  154.3940  134.6510 O   0  0  0  0  0  0  0  0  0  0  0  0
  143.1620  154.6480  134.7010 C   0  0  0  0  0  0  0  0  0  0  0  0
  142.8230  155.6080  135.8590 C   0  0  0  0  0  0  0  0  0  0  0  0
  142.6690  155.2180  133.3590 C   0  0  0  0  0  0  0  0  0  0  0  0
  142.4700  153.3030  134.9590 C   0  0  0  0  0  0  0  0  0  0  0  0
  146.2970  156.6650  133.3810 C   0  0  0  0  0  0  0  0  0  0  0  0
  145.1550  157.4240  133.6630 C   0  0  0  0  0  0  0  0  0  0  0  0
  144.2326  161.5439  134.9046 H   0  0  0  0  0  0  0  0  0  0  0  0
  145.1234  161.4098  133.3505 H   0  0  0  0  0  0  0  0  0  0  0  0
  143.3317  161.5384  133.3505 H   0  0  0  0  0  0  0  0  0  0  0  0
  142.9681  158.0156  134.6059 H   0  0  0  0  0  0  0  0  0  0  0  0
  142.5229  159.6047  135.3404 H   0  0  0  0  0  0  0  0  0  0  0  0
  139.4242  155.7394  133.8960 H   0  0  0  0  0  0  0  0  0  0  0  0
  138.5727  156.1261  132.3624 H   0  0  0  0  0  0  0  0  0  0  0  0
  140.3504  155.8683  132.3624 H   0  0  0  0  0  0  0  0  0  0  0  0
  138.0773  159.1825  133.0241 H   0  0  0  0  0  0  0  0  0  0  0  0
  139.3053  159.3116  131.7194 H   0  0  0  0  0  0  0  0  0  0  0  0
  138.1346  157.9491  131.7194 H   0  0  0  0  0  0  0  0  0  0  0  0
  140.0624  157.3624  135.2927 H   0  0  0  0  0  0  0  0  0  0  0  0
  139.7822  159.0946  134.9081 H   0  0  0  0  0  0  0  0  0  0  0  0
  138.4057  157.9404  134.9081 H   0  0  0  0  0  0  0  0  0  0  0  0
  146.5881  160.5324  133.3077 H   0  0  0  0  0  0  0  0  0  0  0  0
  148.5931  159.1141  132.7864 H   0  0  0  0  0  0  0  0  0  0  0  0
  149.4631  156.4114  132.5265 H   0  0  0  0  0  0  0  0  0  0  0  0
  146.7390  152.6440  133.8070 H   0  0  0  0  0  0  0  0  0  0  0  0
  148.1100  151.6380  133.2300 H   0  0  0  0  0  0  0  0  0  0  0  0
  143.0017  155.1019  136.8191 H   0  0  0  0  0  0  0  0  0  0  0  0
  143.4596  156.5026  135.7920 H   0  0  0  0  0  0  0  0  0  0  0  0
  141.7658  155.9044  135.7920 H   0  0  0  0  0  0  0  0  0  0  0  0
  141.9600  156.0377  133.5471 H   0  0  0  0  0  0  0  0  0  0  0  0
  143.5266  155.5994  132.7854 H   0  0  0  0  0  0  0  0  0  0  0  0
  142.1680  154.4243  132.7854 H   0  0  0  0  0  0  0  0  0  0  0  0
  142.3844  153.1367  136.0430 H   0  0  0  0  0  0  0  0  0  0  0  0
  141.4661  153.3150  134.5095 H   0  0  0  0  0  0  0  0  0  0  0  0
  143.0634  152.4932  134.5095 H   0  0  0  0  0  0  0  0  0  0  0  0
  144.2000  156.9308  133.8971 H   0  0  0  0  0  0  0  0  0  0  0  0
  1  2  1  0
  2  3  1  0
  3  4  1  0
  4  5  2  0
  4  6  1  0
  6  7  1  0
  7  8  1  0
  7  9  1  0
  7 10  1  0
  2 11  1  0
 11 12  2  0
 12 13  1  0
 13 14  2  0
 14 15  1  0
 15 16  2  0
 16 17  1  0
 17 18  1  0
 17 19  2  0
 16 20  1  0
 20 21  1  0
 21 22  2  0
 21 23  1  0
 23 24  1  0
 24 25  1  0
 24 26  1  0
 24 27  1  0
 20 28  1  0
 28 29  2  0
 29 11  1  0
 28 14  1  0
  1 30  1  0
  1 31  1  0
  1 32  1  0
  3 33  1  0
  3 34  1  0
  8 35  1  0
  8 36  1  0
  8 37  1  0
  9 38  1  0
  9 39  1  0
  9 40  1  0
 10 41  1  0
 10 42  1  0
 10 43  1  0
 12 44  1  0
 13 45  1  0
 15 46  1  0
 18 47  1  0
 18 48  1  0
 25 49  1  0
 25 50  1  0
 25 51  1  0
 26 52  1  0
 26 53  1  0
 26 54  1  0
 27 55  1  0
 27 56  1  0
 27 57  1  0
 29 58  1  0
M  END
>  <UniqueID>  (91) 
88

>  <SMILES>  (91) 
CN(CC(=O)OC(C)(C)C)c1ccc2cc(C(N)=O)n(C(=O)OC(C)(C)C)c2c1

>  <Energy>  (91) 
86.0120254321287

>  <Genealogy>  (91) 
CN(CC(=O)OC(C)(C)C)c1ccc2cc(C(N)=O)n(C(=O)OC(C)(C)C)c2c1 (3D coordinates assigned)
CN(CC(=O)OC(C)(C)C)c1ccc2cc(C(N)=O)n(C(=O)OC(C)(C)C)c2c1 (optimized conformer: 86.0120254321287 kcal/mol)

>  <smiles>  (91) 
CN(CC(=O)OC(C)(C)C)c1ccc2cc(C(N)=O)n(C(=O)OC(C)(C)C)c2c1

>  <score_type>  (91) 
oracle

>  <origin>  (91) 
adg

>  <m_score__min__energy>  (91) 
-8.0399999999999991

>  <m_primary>  (91) 
energy

$$$$
92:0
     RDKit          3D

 35 36  0  0  0  0  0  0  0  0999 V2000
  146.4840  154.0900  133.0060 C   0  0  0  0  0  0  0  0  0  0  0  0
  147.6180  155.0140  132.8860 N   0  0  0  0  0  0  0  0  0  0  0  0
  148.9510  154.4680  132.6030 C   0  0  0  0  0  0  0  0  0  0  0  0
  147.4240  156.4440  133.0450 C   0  0  0  0  0  0  0  0  0  0  0  0
  148.5330  157.3370  133.0010 C   0  0  0  0  0  0  0  0  0  0  0  0
  148.3560  158.7220  133.1620 C   0  0  0  0  0  0  0  0  0  0  0  0
  147.0650  159.1970  133.3560 C   0  0  0  0  0  0  0  0  0  0  0  0
  146.6170  160.4820  133.5600 C   0  0  0  0  0  0  0  0  0  0  0  0
  145.2360  160.3740  133.7020 C   0  0  0  0  0  0  0  0  0  0  0  0
  144.3410  161.5400  133.8510 C   0  0  0  0  0  0  0  0  0  0  0  0
  142.9280  161.4010  133.7310 N   0  0  0  0  0  0  0  0  0  0  0  0
  144.8350  162.6840  134.0390 O   0  0  0  0  0  0  0  0  0  0  0  0
  144.8470  159.0700  133.5990 N   0  0  0  0  0  0  0  0  0  0  0  0
  143.5280  158.5270  133.7620 C   0  0  0  0  0  0  0  0  0  0  0  0
  142.9840  157.9050  132.8080 O   0  0  0  0  0  0  0  0  0  0  0  0
  142.8480  158.7190  134.9720 O   0  0  0  0  0  0  0  0  0  0  0  0
  141.4750  158.9700  135.0970 C   0  0  0  0  0  0  0  0  0  0  0  0
  140.7640  159.2220  134.0860 O   0  0  0  0  0  0  0  0  0  0  0  0
  140.8600  159.0030  136.4570 C   0  0  0  0  0  0  0  0  0  0  0  0
  140.6010  160.3100  136.8300 F   0  0  0  0  0  0  0  0  0  0  0  0
  139.6720  158.2940  136.4560 F   0  0  0  0  0  0  0  0  0  0  0  0
  141.7280  158.4320  137.3670 F   0  0  0  0  0  0  0  0  0  0  0  0
  145.9800  158.3640  133.3840 C   0  0  0  0  0  0  0  0  0  0  0  0
  146.1260  156.9790  133.2490 C   0  0  0  0  0  0  0  0  0  0  0  0
  146.2664  153.9127  134.0696 H   0  0  0  0  0  0  0  0  0  0  0  0
  145.6005  154.5286  132.5192 H   0  0  0  0  0  0  0  0  0  0  0  0
  146.7352  153.1361  132.5192 H   0  0  0  0  0  0  0  0  0  0  0  0
  149.4690  154.2558  133.5500 H   0  0  0  0  0  0  0  0  0  0  0  0
  148.8510  153.5384  132.0235 H   0  0  0  0  0  0  0  0  0  0  0  0
  149.5319  155.2006  132.0235 H   0  0  0  0  0  0  0  0  0  0  0  0
  149.5444  156.9361  132.8384 H   0  0  0  0  0  0  0  0  0  0  0  0
  149.2143  159.4095  133.1352 H   0  0  0  0  0  0  0  0  0  0  0  0
  147.2217  161.3999  133.6020 H   0  0  0  0  0  0  0  0  0  0  0  0
  142.4800  160.4580  133.7120 H   0  0  0  0  0  0  0  0  0  0  0  0
  145.2495  156.3164  133.3001 H   0  0  0  0  0  0  0  0  0  0  0  0
  1  2  1  0
  2  3  1  0
  2  4  1  0
  4  5  2  0
  5  6  1  0
  6  7  2  0
  7  8  1  0
  8  9  2  0
  9 10  1  0
 10 11  1  0
 10 12  2  0
  9 13  1  0
 13 14  1  0
 14 15  2  0
 14 16  1  0
 16 17  1  0
 17 18  2  0
 17 19  1  0
 19 20  1  0
 19 21  1  0
 19 22  1  0
 13 23  1  0
 23 24  2  0
 24  4  1  0
 23  7  1  0
  1 25  1  0
  1 26  1  0
  1 27  1  0
  3 28  1  0
  3 29  1  0
  3 30  1  0
  5 31  1  0
  6 32  1  0
  8 33  1  0
 11 34  1  0
 24 35  1  0
M  CHG  1  11  -1
M  END
>  <UniqueID>  (92) 
89

>  <SMILES>  (92) 
CN(C)c1ccc2cc(C([NH-])=O)n(C(=O)OC(=O)C(F)(F)F)c2c1

>  <Energy>  (92) 
75.31278191062727

>  <Genealogy>  (92) 
CN(C)c1ccc2cc(C([NH-])=O)n(C(=O)OC(=O)C(F)(F)F)c2c1 (protonated)
CN(C)c1ccc2cc(C([NH-])=O)n(C(=O)OC(=O)C(F)(F)F)c2c1 (3D coordinates assigned)
CN(C)c1ccc2cc(C([NH-])=O)n(C(=O)OC(=O)C(F)(F)F)c2c1 (optimized conformer: 75.31278191062727 kcal/mol)

>  <smiles>  (92) 
CN(C)c1ccc2cc(C(N)=O)n(C(=O)OC(=O)C(F)(F)F)c2c1

>  <score_type>  (92) 
oracle

>  <origin>  (92) 
adg

>  <m_score__min__energy>  (92) 
-5.5800000000000001

>  <m_primary>  (92) 
energy

$$$$
93:0
     RDKit          3D

 41 42  0  0  0  0  0  0  0  0999 V2000
  145.3110  162.7280  134.4990 C   0  0  0  0  0  0  0  0  0  0  0  0
  144.3900  162.2570  133.5400 O   0  0  0  0  0  0  0  0  0  0  0  0
  143.6680  161.1490  134.0490 C   0  0  0  0  0  0  0  0  0  0  0  0
  144.3400  159.8320  133.6450 C   0  0  0  0  0  0  0  0  0  0  0  0
  145.6730  160.0640  133.0820 N   0  0  0  0  0  0  0  0  0  0  0  0
  146.6540  159.0220  132.9230 C   0  0  0  0  0  0  0  0  0  0  0  0
  147.9920  159.3090  132.5370 C   0  0  0  0  0  0  0  0  0  0  0  0
  148.9370  158.2790  132.3970 C   0  0  0  0  0  0  0  0  0  0  0  0
  148.5220  156.9740  132.6420 C   0  0  0  0  0  0  0  0  0  0  0  0
  149.2320  155.7960  132.6080 C   0  0  0  0  0  0  0  0  0  0  0  0
  148.3160  154.8040  132.9480 C   0  0  0  0  0  0  0  0  0  0  0  0
  148.6480  153.3650  132.9870 C   0  0  0  0  0  0  0  0  0  0  0  0
  148.5170  152.6050  134.1900 N   0  0  0  0  0  0  0  0  0  0  0  0
  149.0160  152.7870  131.9310 O   0  0  0  0  0  0  0  0  0  0  0  0
  147.0930  155.3490  133.2000 N   0  0  0  0  0  0  0  0  0  0  0  0
  145.9130  154.6830  133.6800 C   0  0  0  0  0  0  0  0  0  0  0  0
  145.0700  154.2470  132.8490 O   0  0  0  0  0  0  0  0  0  0  0  0
  145.6710  154.5360  135.0940 N   0  0  0  0  0  0  0  0  0  0  0  0
  144.3340  154.7910  135.6380 C   0  0  0  0  0  0  0  0  0  0  0  0
  146.7420  154.1780  135.9890 C   0  0  0  0  0  0  0  0  0  0  0  0
  147.7650  154.9080  136.0830 O   0  0  0  0  0  0  0  0  0  0  0  0
  146.6760  153.0130  136.7450 O   0  0  0  0  0  0  0  0  0  0  0  0
  147.2340  156.6770  133.0000 C   0  0  0  0  0  0  0  0  0  0  0  0
  146.2750  157.6820  133.1630 C   0  0  0  0  0  0  0  0  0  0  0  0
  144.9227  162.5294  135.5088 H   0  0  0  0  0  0  0  0  0  0  0  0
  146.2732  162.2113  134.3680 H   0  0  0  0  0  0  0  0  0  0  0  0
  145.4554  163.8106  134.3680 H   0  0  0  0  0  0  0  0  0  0  0  0
  143.6327  161.2145  135.1465 H   0  0  0  0  0  0  0  0  0  0  0  0
  142.6502  161.1688  133.6323 H   0  0  0  0  0  0  0  0  0  0  0  0
  144.4332  159.1902  134.5335 H   0  0  0  0  0  0  0  0  0  0  0  0
  143.7190  159.3471  132.8774 H   0  0  0  0  0  0  0  0  0  0  0  0
  145.9310  161.0300  132.7780 H   0  0  0  0  0  0  0  0  0  0  0  0
  148.2908  160.3502  132.3457 H   0  0  0  0  0  0  0  0  0  0  0  0
  149.9740  158.4978  132.1025 H   0  0  0  0  0  0  0  0  0  0  0  0
  150.2967  155.6656  132.3641 H   0  0  0  0  0  0  0  0  0  0  0  0
  148.8180  151.6050  134.2110 H   0  0  0  0  0  0  0  0  0  0  0  0
  148.0360  152.9970  135.0280 H   0  0  0  0  0  0  0  0  0  0  0  0
  144.3776  154.7827  136.7371 H   0  0  0  0  0  0  0  0  0  0  0  0
  143.9788  155.7731  135.2926 H   0  0  0  0  0  0  0  0  0  0  0  0
  143.6422  154.0086  135.2926 H   0  0  0  0  0  0  0  0  0  0  0  0
  145.2484  157.4348  133.4712 H   0  0  0  0  0  0  0  0  0  0  0  0
  1  2  1  0
  2  3  1  0
  3  4  1  0
  4  5  1  0
  5  6  1  0
  6  7  2  0
  7  8  1  0
  8  9  2  0
  9 10  1  0
 10 11  2  0
 11 12  1  0
 12 13  1  0
 12 14  2  0
 11 15  1  0
 15 16  1  0
 16 17  2  0
 16 18  1  0
 18 19  1  0
 18 20  1  0
 20 21  2  0
 20 22  1  0
 15 23  1  0
 23 24  2  0
 24  6  1  0
 23  9  1  0
  1 25  1  0
  1 26  1  0
  1 27  1  0
  3 28  1  0
  3 29  1  0
  4 30  1  0
  4 31  1  0
  5 32  1  0
  7 33  1  0
  8 34  1  0
 10 35  1  0
 13 36  1  0
 13 37  1  0
 19 38  1  0
 19 39  1  0
 19 40  1  0
 24 41  1  0
M  CHG  1  22  -1
M  END
>  <UniqueID>  (93) 
90

>  <SMILES>  (93) 
COCCNc1ccc2cc(C(N)=O)n(C(=O)N(C)C(=O)[O-])c2c1

>  <Energy>  (93) 
82.08372815723177

>  <Genealogy>  (93) 
COCCNc1ccc2cc(C(N)=O)n(C(=O)N(C)C(=O)[O-])c2c1 (protonated)
COCCNc1ccc2cc(C(N)=O)n(C(=O)N(C)C(=O)[O-])c2c1 (3D coordinates assigned)
COCCNc1ccc2cc(C(N)=O)n(C(=O)N(C)C(=O)[O-])c2c1 (optimized conformer: 82.08372815723177 kcal/mol)

>  <smiles>  (93) 
COCCNc1ccc2cc(C(N)=O)n(C(=O)N(C)C(=O)O)c2c1

>  <score_type>  (93) 
oracle

>  <origin>  (93) 
adg

>  <m_score__min__energy>  (93) 
-6.7800000000000002

>  <m_primary>  (93) 
energy

$$$$
94:0
     RDKit          3D

 43 44  0  0  0  0  0  0  0  0999 V2000
  145.0870  154.8740  133.0090 C   0  0  0  0  0  0  0  0  0  0  0  0
  145.9980  154.8680  134.1590 N   0  0  0  0  0  0  0  0  0  0  0  0
  145.6890  154.0310  135.3230 C   0  0  0  0  0  0  0  0  0  0  0  0
  147.1480  155.7440  134.2180 C   0  0  0  0  0  0  0  0  0  0  0  0
  147.6690  156.0000  135.3380 O   0  0  0  0  0  0  0  0  0  0  0  0
  147.7520  156.3540  133.0080 C   0  0  0  0  0  0  0  0  0  0  0  0
  147.3040  156.0720  131.8640 O   0  0  0  0  0  0  0  0  0  0  0  0
  148.8710  157.2440  133.1310 N   0  0  0  0  0  0  0  0  0  0  0  0
  149.4910  157.8530  131.9530 C   0  0  0  0  0  0  0  0  0  0  0  0
  148.9490  159.2610  131.6940 C   0  0  0  0  0  0  0  0  0  0  0  0
  147.6010  159.4180  132.2550 C   0  0  0  0  0  0  0  0  0  0  0  0
  146.4960  159.5400  132.7220 C   0  0  0  0  0  0  0  0  0  0  0  0
  145.1760  159.6790  133.2740 C   0  0  0  0  0  0  0  0  0  0  0  0
  144.6580  160.9660  133.5470 C   0  0  0  0  0  0  0  0  0  0  0  0
  143.3730  161.1140  134.0950 C   0  0  0  0  0  0  0  0  0  0  0  0
  142.6340  159.9610  134.3470 C   0  0  0  0  0  0  0  0  0  0  0  0
  141.3810  159.8150  134.8950 C   0  0  0  0  0  0  0  0  0  0  0  0
  141.1460  158.4420  134.9220 C   0  0  0  0  0  0  0  0  0  0  0  0
  139.8670  157.8470  135.3620 C   0  0  0  0  0  0  0  0  0  0  0  0
  139.5160  157.8000  136.7430 N   0  0  0  0  0  0  0  0  0  0  0  0
  139.0950  157.3290  134.5120 O   0  0  0  0  0  0  0  0  0  0  0  0
  142.2170  157.7630  134.4190 N   0  0  0  0  0  0  0  0  0  0  0  0
  142.4090  156.3400  134.3520 C   0  0  0  0  0  0  0  0  0  0  0  0
  141.9610  155.6840  133.3760 O   0  0  0  0  0  0  0  0  0  0  0  0
  143.0670  155.6720  135.3760 O   0  0  0  0  0  0  0  0  0  0  0  0
  143.1190  158.7080  134.0680 C   0  0  0  0  0  0  0  0  0  0  0  0
  144.4030  158.5310  133.5410 C   0  0  0  0  0  0  0  0  0  0  0  0
  144.0464  154.8808  133.3656 H   0  0  0  0  0  0  0  0  0  0  0  0
  145.2717  155.7709  132.3996 H   0  0  0  0  0  0  0  0  0  0  0  0
  145.2599  153.9747  132.3996 H   0  0  0  0  0  0  0  0  0  0  0  0
  145.8968  154.5939  136.2449 H   0  0  0  0  0  0  0  0  0  0  0  0
  144.6266  153.7467  135.2986 H   0  0  0  0  0  0  0  0  0  0  0  0
  146.3118  153.1246  135.2986 H   0  0  0  0  0  0  0  0  0  0  0  0
  149.2360  157.4710  134.0840 H   0  0  0  0  0  0  0  0  0  0  0  0
  150.5777  157.9128  132.1125 H   0  0  0  0  0  0  0  0  0  0  0  0
  149.2555  157.2280  131.0790 H   0  0  0  0  0  0  0  0  0  0  0  0
  149.6207  159.9964  132.1609 H   0  0  0  0  0  0  0  0  0  0  0  0
  148.8969  159.4218  130.6071 H   0  0  0  0  0  0  0  0  0  0  0  0
  145.2651  161.8570  133.3289 H   0  0  0  0  0  0  0  0  0  0  0  0
  142.9632  162.1101  134.3182 H   0  0  0  0  0  0  0  0  0  0  0  0
  140.7070  160.6133  135.2392 H   0  0  0  0  0  0  0  0  0  0  0  0
  139.0850  158.6250  137.2150 H   0  0  0  0  0  0  0  0  0  0  0  0
  144.7981  157.5242  133.3407 H   0  0  0  0  0  0  0  0  0  0  0  0
  1  2  1  0
  2  3  1  0
  2  4  1  0
  4  5  2  0
  4  6  1  0
  6  7  2  0
  6  8  1  0
  8  9  1  0
  9 10  1  0
 10 11  1  0
 11 12  3  0
 12 13  1  0
 13 14  2  0
 14 15  1  0
 15 16  2  0
 16 17  1  0
 17 18  2  0
 18 19  1  0
 19 20  1  0
 19 21  2  0
 18 22  1  0
 22 23  1  0
 23 24  2  0
 23 25  1  0
 22 26  1  0
 26 27  2  0
 27 13  1  0
 26 16  1  0
  1 28  1  0
  1 29  1  0
  1 30  1  0
  3 31  1  0
  3 32  1  0
  3 33  1  0
  8 34  1  0
  9 35  1  0
  9 36  1  0
 10 37  1  0
 10 38  1  0
 14 39  1  0
 15 40  1  0
 17 41  1  0
 20 42  1  0
 27 43  1  0
M  CHG  2  20  -1  25  -1
M  END
>  <UniqueID>  (94) 
91

>  <SMILES>  (94) 
CN(C)C(=O)C(=O)NCCC#Cc1ccc2cc(C([NH-])=O)n(C(=O)[O-])c2c1

>  <Energy>  (94) 
74.25384290759104

>  <Genealogy>  (94) 
CN(C)C(=O)C(=O)NCCC#Cc1ccc2cc(C([NH-])=O)n(C(=O)[O-])c2c1 (protonated)
CN(C)C(=O)C(=O)NCCC#Cc1ccc2cc(C([NH-])=O)n(C(=O)[O-])c2c1 (3D coordinates assigned)
CN(C)C(=O)C(=O)NCCC#Cc1ccc2cc(C([NH-])=O)n(C(=O)[O-])c2c1 (optimized conformer: 74.25384290759104 kcal/mol)

>  <smiles>  (94) 
CN(C)C(=O)C(=O)NCCC#Cc1ccc2cc(C(N)=O)n(C(=O)O)c2c1

>  <score_type>  (94) 
oracle

>  <origin>  (94) 
adg

>  <m_score__min__energy>  (94) 
-8.3200000000000003

>  <m_primary>  (94) 
energy

$$$$
95:0
     RDKit          3D

 33 35  0  0  0  0  0  0  0  0999 V2000
  148.8550  159.0000  134.4270 C   0  0  0  0  0  0  0  0  0  0  0  0
  148.3570  158.3110  133.1490 C   0  0  1  0  0  0  0  0  0  0  0  0
  146.8690  158.0370  133.2150 C   0  0  0  0  0  0  0  0  0  0  0  0
  146.3930  156.7010  133.1510 C   0  0  0  0  0  0  0  0  0  0  0  0
  145.0180  156.4250  133.2200 C   0  0  0  0  0  0  0  0  0  0  0  0
  144.1420  157.4980  133.3530 C   0  0  0  0  0  0  0  0  0  0  0  0
  142.7700  157.5140  133.4560 C   0  0  0  0  0  0  0  0  0  0  0  0
  142.4220  158.8580  133.5670 C   0  0  0  0  0  0  0  0  0  0  0  0
  141.0230  159.3290  133.5970 C   0  0  0  0  0  0  0  0  0  0  0  0
  140.3990  159.7700  132.3930 N   0  0  0  0  0  0  0  0  0  0  0  0
  140.3870  159.3950  134.6810 O   0  0  0  0  0  0  0  0  0  0  0  0
  143.5390  159.6440  133.5510 N   0  0  0  0  0  0  0  0  0  0  0  0
  143.6400  161.0670  133.7240 C   0  0  0  0  0  0  0  0  0  0  0  0
  144.6680  161.5880  134.2320 O   0  0  0  0  0  0  0  0  0  0  0  0
  144.5810  158.7950  133.4100 C   0  0  0  0  0  0  0  0  0  0  0  0
  145.9450  159.0990  133.3540 C   0  0  0  0  0  0  0  0  0  0  0  0
  148.6890  159.0700  131.9360 N   0  0  0  0  0  0  0  0  0  0  0  0
  149.1360  158.5290  130.8160 N   0  0  0  0  0  0  0  0  0  0  0  0
  149.2570  159.4580  129.8820 N   0  0  0  0  0  0  0  0  0  0  0  0
  148.8780  160.6310  130.3740 N   0  0  0  0  0  0  0  0  0  0  0  0
  148.5220  160.3780  131.6480 C   0  0  0  0  0  0  0  0  0  0  0  0
  148.0440  161.3170  132.4990 F   0  0  0  0  0  0  0  0  0  0  0  0
  148.4681  158.4648  135.3067 H   0  0  0  0  0  0  0  0  0  0  0  0
  149.9548  158.9884  134.4451 H   0  0  0  0  0  0  0  0  0  0  0  0
  148.4990  160.0406  134.4451 H   0  0  0  0  0  0  0  0  0  0  0  0
  148.8867  157.3489  133.0872 H   0  0  0  0  0  0  0  0  0  0  0  0
  147.1094  155.8728  133.0462 H   0  0  0  0  0  0  0  0  0  0  0  0
  144.6445  155.3916  133.1704 H   0  0  0  0  0  0  0  0  0  0  0  0
  142.0914  156.6483  133.4516 H   0  0  0  0  0  0  0  0  0  0  0  0
  140.9190  159.7710  131.4880 H   0  0  0  0  0  0  0  0  0  0  0  0
  142.8064  161.7113  133.4078 H   0  0  0  0  0  0  0  0  0  0  0  0
  146.2917  160.1411  133.4167 H   0  0  0  0  0  0  0  0  0  0  0  0
  149.3510  157.5160  130.6790 H   0  0  0  0  0  0  0  0  0  0  0  0
  1  2  1  0
  2  3  1  0
  3  4  2  0
  4  5  1  0
  5  6  2  0
  6  7  1  0
  7  8  2  0
  8  9  1  0
  9 10  1  0
  9 11  2  0
  8 12  1  0
 12 13  1  0
 13 14  2  0
 12 15  1  0
 15 16  2  0
  2 17  1  0
 17 18  1  0
 18 19  2  0
 19 20  1  0
 20 21  2  0
 21 22  1  0
 16  3  1  0
 21 17  1  0
 15  6  1  0
  1 23  1  0
  1 24  1  0
  1 25  1  0
  2 26  1  6
  4 27  1  0
  5 28  1  0
  7 29  1  0
 10 30  1  0
 13 31  1  0
 16 32  1  0
 18 33  1  0
M  CHG  2  10  -1  18   1
M  END
>  <UniqueID>  (95) 
92

>  <SMILES>  (95) 
C[C@@H](c1ccc2cc(C([NH-])=O)n(C=O)c2c1)n1[nH+]nnc1F

>  <Energy>  (95) 
114.38714762944029

>  <Genealogy>  (95) 
CC(c1ccc2cc(C([NH-])=O)n(C=O)c2c1)n1[nH+]nnc1F (protonated)
C[C@@H](c1ccc2cc(C([NH-])=O)n(C=O)c2c1)n1[nH+]nnc1F (chirality)
C[C@@H](c1ccc2cc(C([NH-])=O)n(C=O)c2c1)n1[nH+]nnc1F (3D coordinates assigned)
C[C@@H](c1ccc2cc(C([NH-])=O)n(C=O)c2c1)n1[nH+]nnc1F (optimized conformer: 114.38714762944029 kcal/mol)

>  <smiles>  (95) 
CC(c1ccc2cc(C(N)=O)n(C=O)c2c1)n1nnnc1F

>  <score_type>  (95) 
oracle

>  <origin>  (95) 
adg

>  <m_score__min__energy>  (95) 
-7.2400000000000002

>  <m_primary>  (95) 
energy

$$$$
96:0
     RDKit          3D

 52 53  0  0  0  0  0  0  0  0999 V2000
  139.1120  160.8500  131.4910 C   0  0  0  0  0  0  0  0  0  0  0  0
  138.4580  159.6100  131.0360 N   0  0  0  0  0  0  0  0  0  0  0  0
  137.0420  159.8810  130.7390 C   0  0  0  0  0  0  0  0  0  0  0  0
  138.5700  158.5410  132.0550 C   0  0  0  0  0  0  0  0  0  0  0  0
  140.0330  158.2890  132.4620 C   0  0  0  0  0  0  0  0  0  0  0  0
  140.4340  158.9880  133.7710 C   0  0  0  0  0  0  0  0  0  0  0  0
  141.8730  159.4340  133.7530 C   0  0  0  0  0  0  0  0  0  0  0  0
  142.1930  160.8140  133.8150 C   0  0  0  0  0  0  0  0  0  0  0  0
  143.5290  161.2410  133.7610 C   0  0  0  0  0  0  0  0  0  0  0  0
  144.5200  160.2720  133.6370 C   0  0  0  0  0  0  0  0  0  0  0  0
  145.8880  160.4100  133.5910 C   0  0  0  0  0  0  0  0  0  0  0  0
  146.3830  159.1140  133.4770 C   0  0  0  0  0  0  0  0  0  0  0  0
  147.8200  158.8020  133.3370 C   0  0  0  0  0  0  0  0  0  0  0  0
  148.4820  157.9440  134.2670 N   0  0  0  0  0  0  0  0  0  0  0  0
  148.4580  159.2550  132.3510 O   0  0  0  0  0  0  0  0  0  0  0  0
  145.3660  158.2070  133.4660 N   0  0  0  0  0  0  0  0  0  0  0  0
  145.4830  156.7750  133.5050 C   0  0  0  0  0  0  0  0  0  0  0  0
  144.8980  156.0730  132.6360 O   0  0  0  0  0  0  0  0  0  0  0  0
  146.2450  156.1750  134.5170 O   0  0  0  0  0  0  0  0  0  0  0  0
  146.9700  154.9410  134.4240 C   0  0  0  0  0  0  0  0  0  0  0  0
  147.9420  154.9760  133.2310 C   0  0  0  0  0  0  0  0  0  0  0  0
  145.9380  153.8250  134.1960 C   0  0  0  0  0  0  0  0  0  0  0  0
  147.7270  154.6530  135.7350 C   0  0  0  0  0  0  0  0  0  0  0  0
  144.2280  158.9340  133.5600 C   0  0  0  0  0  0  0  0  0  0  0  0
  142.9060  158.4800  133.6310 C   0  0  0  0  0  0  0  0  0  0  0  0
  139.1253  160.8753  132.5906 H   0  0  0  0  0  0  0  0  0  0  0  0
  140.1438  160.8811  131.1110 H   0  0  0  0  0  0  0  0  0  0  0  0
  138.5550  161.7191  131.1110 H   0  0  0  0  0  0  0  0  0  0  0  0
  136.4838  159.9878  131.6808 H   0  0  0  0  0  0  0  0  0  0  0  0
  136.9609  160.8110  130.1571 H   0  0  0  0  0  0  0  0  0  0  0  0
  136.6232  159.0467  130.1571 H   0  0  0  0  0  0  0  0  0  0  0  0
  137.9986  158.8381  132.9468 H   0  0  0  0  0  0  0  0  0  0  0  0
  138.1715  157.6122  131.6208 H   0  0  0  0  0  0  0  0  0  0  0  0
  140.1780  157.2058  132.5871 H   0  0  0  0  0  0  0  0  0  0  0  0
  140.6670  158.7054  131.6653 H   0  0  0  0  0  0  0  0  0  0  0  0
  139.7908  159.8686  133.9152 H   0  0  0  0  0  0  0  0  0  0  0  0
  140.3111  158.2676  134.5931 H   0  0  0  0  0  0  0  0  0  0  0  0
  141.3868  161.5568  133.9063 H   0  0  0  0  0  0  0  0  0  0  0  0
  143.7849  162.3094  133.8151 H   0  0  0  0  0  0  0  0  0  0  0  0
  146.4667  161.3444  133.6349 H   0  0  0  0  0  0  0  0  0  0  0  0
  147.9450  157.4130  134.9860 H   0  0  0  0  0  0  0  0  0  0  0  0
  149.5120  157.7850  134.1900 H   0  0  0  0  0  0  0  0  0  0  0  0
  148.9768  155.0133  133.6021 H   0  0  0  0  0  0  0  0  0  0  0  0
  147.8042  154.0723  132.6191 H   0  0  0  0  0  0  0  0  0  0  0  0
  147.7396  155.8674  132.6191 H   0  0  0  0  0  0  0  0  0  0  0  0
  145.5874  153.4458  135.1672 H   0  0  0  0  0  0  0  0  0  0  0  0
  145.0846  154.2250  133.6288 H   0  0  0  0  0  0  0  0  0  0  0  0
  146.4035  153.0055  133.6288 H   0  0  0  0  0  0  0  0  0  0  0  0
  147.0825  154.8982  136.5920 H   0  0  0  0  0  0  0  0  0  0  0  0
  148.0001  153.5882  135.7744 H   0  0  0  0  0  0  0  0  0  0  0  0
  148.6388  155.2671  135.7744 H   0  0  0  0  0  0  0  0  0  0  0  0
  142.6774  157.4047  133.5926 H   0  0  0  0  0  0  0  0  0  0  0  0
  1  2  1  0
  2  3  1  0
  2  4  1  0
  4  5  1  0
  5  6  1  0
  6  7  1  0
  7  8  2  0
  8  9  1  0
  9 10  2  0
 10 11  1  0
 11 12  2  0
 12 13  1  0
 13 14  1  0
 13 15  2  0
 12 16  1  0
 16 17  1  0
 17 18  2  0
 17 19  1  0
 19 20  1  0
 20 21  1  0
 20 22  1  0
 20 23  1  0
 16 24  1  0
 24 25  2  0
 25  7  1  0
 24 10  1  0
  1 26  1  0
  1 27  1  0
  1 28  1  0
  3 29  1  0
  3 30  1  0
  3 31  1  0
  4 32  1  0
  4 33  1  0
  5 34  1  0
  5 35  1  0
  6 36  1  0
  6 37  1  0
  8 38  1  0
  9 39  1  0
 11 40  1  0
 14 41  1  0
 14 42  1  0
 21 43  1  0
 21 44  1  0
 21 45  1  0
 22 46  1  0
 22 47  1  0
 22 48  1  0
 23 49  1  0
 23 50  1  0
 23 51  1  0
 25 52  1  0
M  END
>  <UniqueID>  (96) 
93

>  <SMILES>  (96) 
CN(C)CCCc1ccc2cc(C(N)=O)n(C(=O)OC(C)(C)C)c2c1

>  <Energy>  (96) 
81.39613335146146

>  <Genealogy>  (96) 
CN(C)CCCc1ccc2cc(C(N)=O)n(C(=O)OC(C)(C)C)c2c1 (3D coordinates assigned)
CN(C)CCCc1ccc2cc(C(N)=O)n(C(=O)OC(C)(C)C)c2c1 (optimized conformer: 81.39613335146146 kcal/mol)

>  <smiles>  (96) 
CN(C)CCCc1ccc2cc(C(N)=O)n(C(=O)OC(C)(C)C)c2c1

>  <score_type>  (96) 
oracle

>  <origin>  (96) 
adg

>  <m_score__min__energy>  (96) 
-7.9500000000000002

>  <m_primary>  (96) 
energy

$$$$
97:0
     RDKit          3D

 50 52  0  0  0  0  0  0  0  0999 V2000
  148.6390  154.4160  132.6110 C   0  0  0  0  0  0  0  0  0  0  0  0
  148.7560  155.8210  132.6070 O   0  0  0  0  0  0  0  0  0  0  0  0
  147.4760  156.4270  132.6560 C   0  0  0  0  0  0  0  0  0  0  0  0
  147.3410  157.3200  133.8940 C   0  0  0  0  0  0  0  0  0  0  0  0
  147.0090  158.7070  133.5230 N   0  0  0  0  0  0  0  0  0  0  0  0
  145.6390  159.1290  133.6470 C   0  0  0  0  0  0  0  0  0  0  0  0
  145.3060  160.5060  133.6210 C   0  0  0  0  0  0  0  0  0  0  0  0
  143.9710  160.9240  133.7510 C   0  0  0  0  0  0  0  0  0  0  0  0
  142.9920  159.9450  133.8970 C   0  0  0  0  0  0  0  0  0  0  0  0
  141.6340  160.0730  134.0650 C   0  0  0  0  0  0  0  0  0  0  0  0
  141.1500  158.7690  134.1680 C   0  0  0  0  0  0  0  0  0  0  0  0
  139.7130  158.4290  134.2660 C   0  0  0  0  0  0  0  0  0  0  0  0
  139.0040  158.6080  135.4930 N   0  0  0  0  0  0  0  0  0  0  0  0
  139.0930  158.0080  133.2540 O   0  0  0  0  0  0  0  0  0  0  0  0
  142.1710  157.8710  134.0690 N   0  0  0  0  0  0  0  0  0  0  0  0
  142.0910  156.4420  134.2010 C   0  0  0  0  0  0  0  0  0  0  0  0
  142.4110  155.7000  133.2320 O   0  0  0  0  0  0  0  0  0  0  0  0
  141.6690  155.8790  135.4110 O   0  0  0  0  0  0  0  0  0  0  0  0
  142.0610  156.3790  136.6870 C   0  0  0  0  0  0  0  0  0  0  0  0
  141.0900  157.4110  137.1650 C   0  0  0  0  0  0  0  0  0  0  0  0
  139.9180  157.0760  137.4810 O   0  0  0  0  0  0  0  0  0  0  0  0
  141.4740  158.7420  137.2560 O   0  0  0  0  0  0  0  0  0  0  0  0
  143.2930  158.6070  133.9040 C   0  0  0  0  0  0  0  0  0  0  0  0
  144.6160  158.1650  133.7950 C   0  0  0  0  0  0  0  0  0  0  0  0
  147.9680  159.6790  132.9480 C   0  0  0  0  0  0  0  0  0  0  0  0
  149.3130  159.0510  132.5890 C   0  0  0  0  0  0  0  0  0  0  0  0
  149.1480  159.5170  131.1490 C   0  0  0  0  0  0  0  0  0  0  0  0
  147.7800  160.0940  131.4820 C   0  0  0  0  0  0  0  0  0  0  0  0
  148.6088  154.0535  133.6491 H   0  0  0  0  0  0  0  0  0  0  0  0
  147.7134  154.1237  132.0935 H   0  0  0  0  0  0  0  0  0  0  0  0
  149.5035  153.9746  132.0935 H   0  0  0  0  0  0  0  0  0  0  0  0
  147.3323  157.0388  131.7532 H   0  0  0  0  0  0  0  0  0  0  0  0
  146.7141  155.6354  132.7088 H   0  0  0  0  0  0  0  0  0  0  0  0
  146.5433  156.9210  134.5378 H   0  0  0  0  0  0  0  0  0  0  0  0
  148.3048  157.3247  134.4241 H   0  0  0  0  0  0  0  0  0  0  0  0
  146.1013  161.2558  133.4977 H   0  0  0  0  0  0  0  0  0  0  0  0
  143.7074  161.9919  133.7378 H   0  0  0  0  0  0  0  0  0  0  0  0
  141.0524  161.0056  134.1089 H   0  0  0  0  0  0  0  0  0  0  0  0
  139.4950  158.9040  136.3650 H   0  0  0  0  0  0  0  0  0  0  0  0
  137.9800  158.4060  135.5400 H   0  0  0  0  0  0  0  0  0  0  0  0
  142.0910  155.5486  137.4078 H   0  0  0  0  0  0  0  0  0  0  0  0
  143.0559  156.8399  136.5986 H   0  0  0  0  0  0  0  0  0  0  0  0
  144.8546  157.0916  133.8238 H   0  0  0  0  0  0  0  0  0  0  0  0
  147.8606  160.4507  133.7245 H   0  0  0  0  0  0  0  0  0  0  0  0
  150.1713  159.4997  133.1104 H   0  0  0  0  0  0  0  0  0  0  0  0
  149.5095  157.9919  132.8118 H   0  0  0  0  0  0  0  0  0  0  0  0
  149.8865  160.2691  130.8345 H   0  0  0  0  0  0  0  0  0  0  0  0
  149.2605  158.8029  130.3199 H   0  0  0  0  0  0  0  0  0  0  0  0
  147.7005  161.1803  131.3286 H   0  0  0  0  0  0  0  0  0  0  0  0
  146.8884  159.7764  130.9215 H   0  0  0  0  0  0  0  0  0  0  0  0
  1  2  1  0
  2  3  1  0
  3  4  1  0
  4  5  1  0
  5  6  1  0
  6  7  2  0
  7  8  1  0
  8  9  2  0
  9 10  1  0
 10 11  2  0
 11 12  1  0
 12 13  1  0
 12 14  2  0
 11 15  1  0
 15 16  1  0
 16 17  2  0
 16 18  1  0
 18 19  1  0
 19 20  1  0
 20 21  2  0
 20 22  1  0
 15 23  1  0
 23 24  2  0
  5 25  1  0
 25 26  1  0
 26 27  1  0
 27 28  1  0
 24  6  1  0
 28 25  1  0
 23  9  1  0
  1 29  1  0
  1 30  1  0
  1 31  1  0
  3 32  1  0
  3 33  1  0
  4 34  1  0
  4 35  1  0
  7 36  1  0
  8 37  1  0
 10 38  1  0
 13 39  1  0
 13 40  1  0
 19 41  1  0
 19 42  1  0
 24 43  1  0
 25 44  1  0
 26 45  1  0
 26 46  1  0
 27 47  1  0
 27 48  1  0
 28 49  1  0
 28 50  1  0
M  CHG  1  22  -1
M  END
>  <UniqueID>  (97) 
94

>  <SMILES>  (97) 
COCCN(c1ccc2cc(C(N)=O)n(C(=O)OCC(=O)[O-])c2c1)C1CCC1

>  <Energy>  (97) 
155.95112180397044

>  <Genealogy>  (97) 
COCCN(c1ccc2cc(C(N)=O)n(C(=O)OCC(=O)[O-])c2c1)C1CCC1 (protonated)
COCCN(c1ccc2cc(C(N)=O)n(C(=O)OCC(=O)[O-])c2c1)C1CCC1 (3D coordinates assigned)
COCCN(c1ccc2cc(C(N)=O)n(C(=O)OCC(=O)[O-])c2c1)C1CCC1 (nonaromatic ring conformer: 155.95112180397044 kcal/mol)

>  <smiles>  (97) 
COCCN(c1ccc2cc(C(N)=O)n(C(=O)OCC(=O)O)c2c1)C1CCC1

>  <score_type>  (97) 
oracle

>  <origin>  (97) 
adg

>  <m_score__min__energy>  (97) 
-8.0099999999999998

>  <m_primary>  (97) 
energy

$$$$
98:0
     RDKit          3D

 31 32  0  0  0  0  0  0  0  0999 V2000
  148.5910  156.1470  133.2210 N   0  0  0  0  0  0  0  0  0  0  0  0
  147.2520  156.0260  133.6950 C   0  0  0  0  0  0  0  0  0  0  0  0
  146.8190  154.8930  134.0370 O   0  0  0  0  0  0  0  0  0  0  0  0
  146.3580  157.2010  133.7550 C   0  0  0  0  0  0  0  0  0  0  0  0
  144.9670  157.1140  133.7960 C   0  0  0  0  0  0  0  0  0  0  0  0
  144.5200  158.4160  133.7660 C   0  0  0  0  0  0  0  0  0  0  0  0
  143.2230  158.9220  133.7960 C   0  0  0  0  0  0  0  0  0  0  0  0
  143.0610  160.3190  133.7770 C   0  0  0  0  0  0  0  0  0  0  0  0
  144.1880  161.1740  133.7320 C   0  0  0  0  0  0  0  0  0  0  0  0
  144.0090  162.5920  133.7220 N   0  0  0  0  0  0  0  0  0  0  0  0
  145.4880  160.6270  133.7020 C   0  0  0  0  0  0  0  0  0  0  0  0
  145.6170  159.2350  133.7120 C   0  0  0  0  0  0  0  0  0  0  0  0
  146.7510  158.5050  133.7100 N   0  0  0  0  0  0  0  0  0  0  0  0
  148.0870  159.0290  133.7420 C   0  0  0  0  0  0  0  0  0  0  0  0
  148.8630  158.7010  134.6790 O   0  0  0  0  0  0  0  0  0  0  0  0
  148.6010  159.8710  132.6110 C   0  0  0  0  0  0  0  0  0  0  0  0
  149.0690  158.9980  131.4430 C   0  0  0  0  0  0  0  0  0  0  0  0
  149.9470  157.9300  131.9130 N   0  0  0  0  0  0  0  0  0  0  0  0
  149.2460  156.8460  133.6350 H   0  0  0  0  0  0  0  0  0  0  0  0
  144.3567  156.2000  133.8424 H   0  0  0  0  0  0  0  0  0  0  0  0
  142.3527  158.2503  133.8334 H   0  0  0  0  0  0  0  0  0  0  0  0
  142.0495  160.7509  133.7973 H   0  0  0  0  0  0  0  0  0  0  0  0
  143.1220  163.0220  134.0660 H   0  0  0  0  0  0  0  0  0  0  0  0
  144.7630  163.2240  133.3690 H   0  0  0  0  0  0  0  0  0  0  0  0
  146.3748  161.2771  133.6716 H   0  0  0  0  0  0  0  0  0  0  0  0
  147.7963  160.5355  132.2631 H   0  0  0  0  0  0  0  0  0  0  0  0
  149.4574  160.4584  132.9736 H   0  0  0  0  0  0  0  0  0  0  0  0
  148.1915  158.5531  130.9510 H   0  0  0  0  0  0  0  0  0  0  0  0
  149.6274  159.6272  130.7342 H   0  0  0  0  0  0  0  0  0  0  0  0
  149.8560  157.8650  132.9530 H   0  0  0  0  0  0  0  0  0  0  0  0
  149.5890  157.0290  131.5240 H   0  0  0  0  0  0  0  0  0  0  0  0
  1  2  1  0
  2  3  2  0
  2  4  1  0
  4  5  2  0
  5  6  1  0
  6  7  2  0
  7  8  1  0
  8  9  2  0
  9 10  1  0
  9 11  1  0
 11 12  2  0
 12 13  1  0
 13 14  1  0
 14 15  2  0
 14 16  1  0
 16 17  1  0
 17 18  1  0
 13  4  1  0
 12  6  1  0
  1 19  1  0
  5 20  1  0
  7 21  1  0
  8 22  1  0
 10 23  1  0
 10 24  1  0
 11 25  1  0
 16 26  1  0
 16 27  1  0
 17 28  1  0
 17 29  1  0
 18 30  1  0
 18 31  1  0
M  CHG  1   1  -1
M  END
>  <UniqueID>  (98) 
95

>  <SMILES>  (98) 
[NH-]C(=O)c1cc2ccc(N)cc2n1C(=O)CCN

>  <Energy>  (98) 
65.66206833505137

>  <Genealogy>  (98) 
[NH-]C(=O)c1cc2ccc(N)cc2n1C(=O)CCN (protonated)
[NH-]C(=O)c1cc2ccc(N)cc2n1C(=O)CCN (3D coordinates assigned)
[NH-]C(=O)c1cc2ccc(N)cc2n1C(=O)CCN (optimized conformer: 65.66206833505137 kcal/mol)

>  <smiles>  (98) 
NCCC(=O)n1c(C(N)=O)cc2ccc(N)cc21

>  <score_type>  (98) 
oracle

>  <origin>  (98) 
adg

>  <m_score__min__energy>  (98) 
-5.2699999999999996

>  <m_primary>  (98) 
energy

$$$$
