0:0
     RDKit          3D

 36 37  0  0  0  0  0  0  0  0999 V2000
  141.4790  151.6860  139.4730 C   0  0  0  0  0  0  0  0  0  0  0  0
  140.6440  151.9800  138.2250 C   0  0  1  0  0  0  0  0  0  0  0  0
  141.4330  152.7590  137.2660 N   0  0  0  0  0  0  0  0  0  0  0  0
  141.7580  154.1480  137.4360 C   0  0  0  0  0  0  0  0  0  0  0  0
  142.7690  154.6120  136.8450 O   0  0  0  0  0  0  0  0  0  0  0  0
  140.9400  155.0560  138.2640 C   0  0  0  0  0  0  0  0  0  0  0  0
  140.0670  154.5900  139.0440 O   0  0  0  0  0  0  0  0  0  0  0  0
  141.1130  156.4760  138.1620 N   0  0  0  0  0  0  0  0  0  0  0  0
  141.6590  157.3240  139.0780 C   0  0  0  0  0  0  0  0  0  0  0  0
  142.0760  156.9680  140.4520 C   0  0  0  0  0  0  0  0  0  0  0  0
  141.3310  156.0340  141.2300 N   0  0  0  0  0  0  0  0  0  0  0  0
  143.0950  157.5130  140.9560 O   0  0  0  0  0  0  0  0  0  0  0  0
  141.7320  158.6180  138.5610 C   0  0  0  0  0  0  0  0  0  0  0  0
  141.2150  158.5330  137.2870 C   0  0  0  0  0  0  0  0  0  0  0  0
  141.0800  159.5100  136.3040 C   0  0  0  0  0  0  0  0  0  0  0  0
  140.5530  159.1250  135.0600 C   0  0  0  0  0  0  0  0  0  0  0  0
  140.1640  157.7800  134.8210 C   0  0  0  0  0  0  0  0  0  0  0  0
  139.6770  157.3630  133.4550 C   0  0  0  0  0  0  0  0  0  0  0  0
  139.9590  156.0220  133.2670 F   0  0  0  0  0  0  0  0  0  0  0  0
  140.3020  158.1000  132.4650 F   0  0  0  0  0  0  0  0  0  0  0  0
  138.3110  157.5580  133.3450 F   0  0  0  0  0  0  0  0  0  0  0  0
  140.3380  156.8140  135.8390 C   0  0  0  0  0  0  0  0  0  0  0  0
  140.8490  157.2300  137.0720 C   0  0  0  0  0  0  0  0  0  0  0  0
  140.1870  150.6950  137.5950 C   0  0  0  0  0  0  0  0  0  0  0  0
  139.3890  149.9330  138.2070 O   0  0  0  0  0  0  0  0  0  0  0  0
  140.6080  150.3640  136.3120 O   0  0  0  0  0  0  0  0  0  0  0  0
  140.8812  151.8965  140.3721 H   0  0  0  0  0  0  0  0  0  0  0  0
  141.7798  150.6279  139.4721 H   0  0  0  0  0  0  0  0  0  0  0  0
  142.3763  152.3223  139.4721 H   0  0  0  0  0  0  0  0  0  0  0  0
  139.7597  152.5653  138.5175 H   0  0  0  0  0  0  0  0  0  0  0  0
  141.8500  152.2620  136.4450 H   0  0  0  0  0  0  0  0  0  0  0  0
  141.1070  155.0840  140.8620 H   0  0  0  0  0  0  0  0  0  0  0  0
  142.1202  159.5158  139.0642 H   0  0  0  0  0  0  0  0  0  0  0  0
  141.3770  160.5516  136.4957 H   0  0  0  0  0  0  0  0  0  0  0  0
  140.4403  159.8736  134.2620 H   0  0  0  0  0  0  0  0  0  0  0  0
  140.0773  155.7596  135.6647 H   0  0  0  0  0  0  0  0  0  0  0  0
  1  2  1  0
  2  3  1  0
  3  4  1  0
  4  5  2  0
  4  6  1  0
  6  7  2  0
  6  8  1  0
  8  9  1  0
  9 10  1  0
 10 11  1  0
 10 12  2  0
  9 13  2  0
 13 14  1  0
 14 15  2  0
 15 16  1  0
 16 17  2  0
 17 18  1  0
 18 19  1  0
 18 20  1  0
 18 21  1  0
 17 22  1  0
 22 23  2  0
  2 24  1  0
 24 25  2  0
 24 26  1  0
 23  8  1  0
 23 14  1  0
  1 27  1  0
  1 28  1  0
  1 29  1  0
  2 30  1  1
  3 31  1  0
 11 32  1  0
 13 33  1  0
 15 34  1  0
 16 35  1  0
 22 36  1  0
M  CHG  2  11  -1  26  -1
M  END
>  <UniqueID>  (1) 
1

>  <SMILES>  (1) 
C[C@@H](NC(=O)C(=O)n1c(C([NH-])=O)cc2ccc(C(F)(F)F)cc21)C(=O)[O-]

>  <Energy>  (1) 
75.38581908643917

>  <Genealogy>  (1) 
CC(NC(=O)C(=O)n1c(C([NH-])=O)cc2ccc(C(F)(F)F)cc21)C(=O)[O-] (protonated)
C[C@@H](NC(=O)C(=O)n1c(C([NH-])=O)cc2ccc(C(F)(F)F)cc21)C(=O)[O-] (chirality)
C[C@@H](NC(=O)C(=O)n1c(C([NH-])=O)cc2ccc(C(F)(F)F)cc21)C(=O)[O-] (3D coordinates assigned)
C[C@@H](NC(=O)C(=O)n1c(C([NH-])=O)cc2ccc(C(F)(F)F)cc21)C(=O)[O-] (optimized conformer: 75.38581908643917 kcal/mol)

>  <smiles>  (1) 
CC(NC(=O)C(=O)n1c(C(N)=O)cc2ccc(C(F)(F)F)cc21)C(=O)O

>  <score_type>  (1) 
oracle

>  <origin>  (1) 
adg

>  <m_score__min__energy>  (1) 
-7.1100000000000003

>  <m_primary>  (1) 
energy

$$$$
1:0
     RDKit          3D

 42 43  0  0  0  0  0  0  0  0999 V2000
  148.9640  153.6080  132.5930 C   0  0  0  0  0  0  0  0  0  0  0  0
  149.0060  155.0630  132.6130 N   0  0  0  0  0  0  0  0  0  0  0  0
  147.8400  155.8730  132.8140 C   0  0  0  0  0  0  0  0  0  0  0  0
  146.7130  155.4880  132.3890 O   0  0  0  0  0  0  0  0  0  0  0  0
  147.9610  157.1510  133.5980 C   0  0  2  0  0  0  0  0  0  0  0  0
  147.0370  157.1130  134.6580 O   0  0  0  0  0  0  0  0  0  0  0  0
  147.6980  158.3830  132.7090 C   0  0  0  0  0  0  0  0  0  0  0  0
  146.3390  158.9650  132.9800 C   0  0  0  0  0  0  0  0  0  0  0  0
  146.2060  160.2170  133.0450 O   0  0  0  0  0  0  0  0  0  0  0  0
  145.2090  158.0980  133.1700 N   0  0  0  0  0  0  0  0  0  0  0  0
  143.9470  158.5330  133.7050 C   0  0  0  0  0  0  0  0  0  0  0  0
  143.7880  159.7280  134.0770 O   0  0  0  0  0  0  0  0  0  0  0  0
  142.8490  157.6130  133.8040 N   0  0  0  0  0  0  0  0  0  0  0  0
  142.8730  156.3430  134.2980 C   0  0  0  0  0  0  0  0  0  0  0  0
  144.0310  155.6900  134.9400 C   0  0  0  0  0  0  0  0  0  0  0  0
  143.9920  155.2860  136.3120 N   0  0  0  0  0  0  0  0  0  0  0  0
  145.0620  155.4490  134.2570 O   0  0  0  0  0  0  0  0  0  0  0  0
  141.6320  155.7270  134.1320 C   0  0  0  0  0  0  0  0  0  0  0  0
  140.8400  156.6690  133.5200 C   0  0  0  0  0  0  0  0  0  0  0  0
  139.5150  156.5860  133.1000 C   0  0  0  0  0  0  0  0  0  0  0  0
  138.9560  157.7030  132.4580 C   0  0  0  0  0  0  0  0  0  0  0  0
  139.7200  158.8850  132.2580 C   0  0  0  0  0  0  0  0  0  0  0  0
  139.1200  160.0670  131.5400 C   0  0  0  0  0  0  0  0  0  0  0  0
  139.5560  160.1130  130.2270 F   0  0  0  0  0  0  0  0  0  0  0  0
  139.4980  161.2350  132.1820 F   0  0  0  0  0  0  0  0  0  0  0  0
  137.7350  159.9820  131.5340 F   0  0  0  0  0  0  0  0  0  0  0  0
  141.0740  158.9170  132.6700 C   0  0  0  0  0  0  0  0  0  0  0  0
  141.5980  157.7970  133.3290 C   0  0  0  0  0  0  0  0  0  0  0  0
  148.9530  153.2273  133.6250 H   0  0  0  0  0  0  0  0  0  0  0  0
  148.0559  153.2746  132.0695 H   0  0  0  0  0  0  0  0  0  0  0  0
  149.8514  153.2227  132.0695 H   0  0  0  0  0  0  0  0  0  0  0  0
  148.9863  157.2386  133.9868 H   0  0  0  0  0  0  0  0  0  0  0  0
  146.3820  156.3950  134.4480 H   0  0  0  0  0  0  0  0  0  0  0  0
  148.4633  159.1455  132.9161 H   0  0  0  0  0  0  0  0  0  0  0  0
  147.7402  158.0693  131.6555 H   0  0  0  0  0  0  0  0  0  0  0  0
  145.3000  157.1010  132.8750 H   0  0  0  0  0  0  0  0  0  0  0  0
  143.0910  155.2530  136.8400 H   0  0  0  0  0  0  0  0  0  0  0  0
  144.8580  154.9330  136.7720 H   0  0  0  0  0  0  0  0  0  0  0  0
  141.3483  154.7062  134.4276 H   0  0  0  0  0  0  0  0  0  0  0  0
  138.9240  155.6732  133.2660 H   0  0  0  0  0  0  0  0  0  0  0  0
  137.9147  157.6628  132.1057 H   0  0  0  0  0  0  0  0  0  0  0  0
  141.7002  159.8006  132.4773 H   0  0  0  0  0  0  0  0  0  0  0  0
  1  2  1  0
  2  3  1  0
  3  4  2  0
  3  5  1  0
  5  6  1  0
  5  7  1  0
  7  8  1  0
  8  9  2  0
  8 10  1  0
 10 11  1  0
 11 12  2  0
 11 13  1  0
 13 14  1  0
 14 15  1  0
 15 16  1  0
 15 17  2  0
 14 18  2  0
 18 19  1  0
 19 20  2  0
 20 21  1  0
 21 22  2  0
 22 23  1  0
 23 24  1  0
 23 25  1  0
 23 26  1  0
 22 27  1  0
 27 28  2  0
 28 13  1  0
 28 19  1  0
  1 29  1  0
  1 30  1  0
  1 31  1  0
  5 32  1  1
  6 33  1  0
  7 34  1  0
  7 35  1  0
 10 36  1  0
 16 37  1  0
 16 38  1  0
 18 39  1  0
 20 40  1  0
 21 41  1  0
 27 42  1  0
M  CHG  1   2  -1
M  END
>  <UniqueID>  (2) 
2

>  <SMILES>  (2) 
C[N-]C(=O)[C@H](O)CC(=O)NC(=O)n1c(C(N)=O)cc2ccc(C(F)(F)F)cc21

>  <Energy>  (2) 
77.53656368500722

>  <Genealogy>  (2) 
C[N-]C(=O)[C@H](O)CC(=O)NC(=O)n1c(C(N)=O)cc2ccc(C(F)(F)F)cc21 (protonated)
C[N-]C(=O)[C@H](O)CC(=O)NC(=O)n1c(C(N)=O)cc2ccc(C(F)(F)F)cc21 (3D coordinates assigned)
C[N-]C(=O)[C@H](O)CC(=O)NC(=O)n1c(C(N)=O)cc2ccc(C(F)(F)F)cc21 (optimized conformer: 77.53656368500722 kcal/mol)

>  <smiles>  (2) 
CNC(=O)[C@H](O)CC(=O)NC(=O)n1c(C(N)=O)cc2ccc(C(F)(F)F)cc21

>  <score_type>  (2) 
oracle

>  <origin>  (2) 
adg

>  <m_score__min__energy>  (2) 
-6.8899999999999997

>  <m_primary>  (2) 
energy

$$$$
2:0
     RDKit          3D

 36 37  0  0  0  0  0  0  0  0999 V2000
  150.2870  150.6360  130.6150 C   0  0  0  0  0  0  0  0  0  0  0  0
  149.4460  150.7130  131.6510 C   0  0  0  0  0  0  0  0  0  0  0  0
  149.6140  151.7530  132.7160 C   0  0  0  0  0  0  0  0  0  0  0  0
  148.4260  152.5310  132.8150 O   0  0  0  0  0  0  0  0  0  0  0  0
  148.4080  153.9130  132.6070 C   0  0  0  0  0  0  0  0  0  0  0  0
  149.4540  154.5140  132.2410 O   0  0  0  0  0  0  0  0  0  0  0  0
  147.1940  154.6520  132.8300 N   0  0  0  0  0  0  0  0  0  0  0  0
  145.9170  154.1720  132.8450 C   0  0  0  0  0  0  0  0  0  0  0  0
  145.5320  152.7450  132.7780 C   0  0  0  0  0  0  0  0  0  0  0  0
  146.1620  151.8620  131.8480 N   0  0  0  0  0  0  0  0  0  0  0  0
  144.6200  152.3010  133.5240 O   0  0  0  0  0  0  0  0  0  0  0  0
  145.0090  155.2130  133.0300 C   0  0  0  0  0  0  0  0  0  0  0  0
  145.7730  156.3520  133.1330 C   0  0  0  0  0  0  0  0  0  0  0  0
  145.3840  157.6760  133.3140 C   0  0  0  0  0  0  0  0  0  0  0  0
  146.3880  158.6580  133.3560 C   0  0  0  0  0  0  0  0  0  0  0  0
  147.7520  158.3010  133.2150 C   0  0  0  0  0  0  0  0  0  0  0  0
  148.8210  159.3630  133.2250 C   0  0  0  0  0  0  0  0  0  0  0  0
  148.5140  160.4830  132.2300 C   0  0  0  0  0  0  0  0  0  0  0  0
  149.2640  160.1070  130.4790 Br  0  0  0  0  0  0  0  0  0  0  0  0
  148.1080  156.9470  133.0280 C   0  0  0  0  0  0  0  0  0  0  0  0
  147.0880  155.9880  133.0090 C   0  0  0  0  0  0  0  0  0  0  0  0
  150.1426  149.8632  129.8456 H   0  0  0  0  0  0  0  0  0  0  0  0
  151.1235  151.3454  130.5318 H   0  0  0  0  0  0  0  0  0  0  0  0
  148.6133  149.9979  131.7231 H   0  0  0  0  0  0  0  0  0  0  0  0
  149.8111  151.2613  133.6801 H   0  0  0  0  0  0  0  0  0  0  0  0
  150.4591  152.4078  132.4572 H   0  0  0  0  0  0  0  0  0  0  0  0
  146.9570  152.1800  131.2530 H   0  0  0  0  0  0  0  0  0  0  0  0
  145.8550  150.8670  131.7810 H   0  0  0  0  0  0  0  0  0  0  0  0
  143.9127  155.1392  133.0825 H   0  0  0  0  0  0  0  0  0  0  0  0
  144.3229  157.9454  133.4209 H   0  0  0  0  0  0  0  0  0  0  0  0
  146.1127  159.7133  133.4996 H   0  0  0  0  0  0  0  0  0  0  0  0
  148.8878  159.7922  134.2356 H   0  0  0  0  0  0  0  0  0  0  0  0
  149.7724  158.8950  132.9322 H   0  0  0  0  0  0  0  0  0  0  0  0
  147.4231  160.5883  132.1362 H   0  0  0  0  0  0  0  0  0  0  0  0
  148.9669  161.4121  132.6065 H   0  0  0  0  0  0  0  0  0  0  0  0
  149.1604  156.6533  132.9005 H   0  0  0  0  0  0  0  0  0  0  0  0
  1  2  2  0
  2  3  1  0
  3  4  1  0
  4  5  1  0
  5  6  2  0
  5  7  1  0
  7  8  1  0
  8  9  1  0
  9 10  1  0
  9 11  2  0
  8 12  2  0
 12 13  1  0
 13 14  2  0
 14 15  1  0
 15 16  2  0
 16 17  1  0
 17 18  1  0
 18 19  1  0
 16 20  1  0
 20 21  2  0
 21  7  1  0
 21 13  1  0
  1 22  1  0
  1 23  1  0
  2 24  1  0
  3 25  1  0
  3 26  1  0
 10 27  1  0
 10 28  1  0
 12 29  1  0
 14 30  1  0
 15 31  1  0
 17 32  1  0
 17 33  1  0
 18 34  1  0
 18 35  1  0
 20 36  1  0
M  END
>  <UniqueID>  (3) 
3

>  <SMILES>  (3) 
C=CCOC(=O)n1c(C(N)=O)cc2ccc(CCBr)cc21

>  <Energy>  (3) 
66.47846667025225

>  <Genealogy>  (3) 
C=CCOC(=O)n1c(C(N)=O)cc2ccc(CCBr)cc21 (3D coordinates assigned)
C=CCOC(=O)n1c(C(N)=O)cc2ccc(CCBr)cc21 (optimized conformer: 66.47846667025225 kcal/mol)

>  <smiles>  (3) 
C=CCOC(=O)n1c(C(N)=O)cc2ccc(CCBr)cc21

>  <score_type>  (3) 
oracle

>  <origin>  (3) 
adg

>  <m_score__min__energy>  (3) 
-7.46

>  <m_primary>  (3) 
energy

$$$$
3:0
     RDKit          3D

 40 41  0  0  0  0  0  0  0  0999 V2000
  148.9260  152.0110  137.1080 C   0  0  0  0  0  0  0  0  0  0  0  0
  148.1690  153.3010  137.4350 C   0  0  0  0  0  0  0  0  0  0  0  0
  149.1150  154.4150  137.8930 C   0  0  0  0  0  0  0  0  0  0  0  0
  147.3520  153.7320  136.2990 N   0  0  0  0  0  0  0  0  0  0  0  0
  145.9380  153.9700  136.3170 C   0  0  0  0  0  0  0  0  0  0  0  0
  145.1870  153.3430  137.1110 O   0  0  0  0  0  0  0  0  0  0  0  0
  145.3570  155.0200  135.4280 C   0  0  0  0  0  0  0  0  0  0  0  0
  145.8720  154.8290  134.0340 C   0  0  0  0  0  0  0  0  0  0  0  0
  145.4160  153.8970  133.3210 O   0  0  0  0  0  0  0  0  0  0  0  0
  146.9710  155.6160  133.5580 N   0  0  0  0  0  0  0  0  0  0  0  0
  148.1550  155.1790  133.0470 C   0  0  0  0  0  0  0  0  0  0  0  0
  148.5960  153.7660  133.0170 C   0  0  0  0  0  0  0  0  0  0  0  0
  147.8810  152.7560  133.7330 N   0  0  0  0  0  0  0  0  0  0  0  0
  149.6050  153.4360  132.3390 O   0  0  0  0  0  0  0  0  0  0  0  0
  148.9230  156.2600  132.6120 C   0  0  0  0  0  0  0  0  0  0  0  0
  148.1600  157.3780  132.8740 C   0  0  0  0  0  0  0  0  0  0  0  0
  148.4200  158.7220  132.6250 C   0  0  0  0  0  0  0  0  0  0  0  0
  147.4320  159.6590  132.9720 C   0  0  0  0  0  0  0  0  0  0  0  0
  146.2130  159.2400  133.5630 C   0  0  0  0  0  0  0  0  0  0  0  0
  145.1460  160.2460  133.8900 C   0  0  0  0  0  0  0  0  0  0  0  0
  144.1010  160.1460  132.9880 F   0  0  0  0  0  0  0  0  0  0  0  0
  145.6790  161.5200  133.8310 F   0  0  0  0  0  0  0  0  0  0  0  0
  145.9820  157.8660  133.7900 C   0  0  0  0  0  0  0  0  0  0  0  0
  146.9880  156.9600  133.4450 C   0  0  0  0  0  0  0  0  0  0  0  0
  149.2194  151.5110  138.0429 H   0  0  0  0  0  0  0  0  0  0  0  0
  148.2766  151.3430  136.5231 H   0  0  0  0  0  0  0  0  0  0  0  0
  149.8259  152.2521  136.5231 H   0  0  0  0  0  0  0  0  0  0  0  0
  147.4942  153.0828  138.2758 H   0  0  0  0  0  0  0  0  0  0  0  0
  149.1407  154.4453  138.9923 H   0  0  0  0  0  0  0  0  0  0  0  0
  150.1265  154.2185  137.5078 H   0  0  0  0  0  0  0  0  0  0  0  0
  148.7573  155.3813  137.5078 H   0  0  0  0  0  0  0  0  0  0  0  0
  144.2602  154.9367  135.4291 H   0  0  0  0  0  0  0  0  0  0  0  0
  145.6474  156.0155  135.7949 H   0  0  0  0  0  0  0  0  0  0  0  0
  147.0800  152.9930  134.3580 H   0  0  0  0  0  0  0  0  0  0  0  0
  148.1870  151.7600  133.6750 H   0  0  0  0  0  0  0  0  0  0  0  0
  149.9239  156.2270  132.1570 H   0  0  0  0  0  0  0  0  0  0  0  0
  149.3696  159.0412  132.1706 H   0  0  0  0  0  0  0  0  0  0  0  0
  147.6060  160.7286  132.7832 H   0  0  0  0  0  0  0  0  0  0  0  0
  144.7674  160.0462  134.9033 H   0  0  0  0  0  0  0  0  0  0  0  0
  145.0346  157.5177  134.2271 H   0  0  0  0  0  0  0  0  0  0  0  0
  1  2  1  0
  2  3  1  0
  2  4  1  0
  4  5  1  0
  5  6  2  0
  5  7  1  0
  7  8  1  0
  8  9  2  0
  8 10  1  0
 10 11  1  0
 11 12  1  0
 12 13  1  0
 12 14  2  0
 11 15  2  0
 15 16  1  0
 16 17  2  0
 17 18  1  0
 18 19  2  0
 19 20  1  0
 20 21  1  0
 20 22  1  0
 19 23  1  0
 23 24  2  0
 24 10  1  0
 24 16  1  0
  1 25  1  0
  1 26  1  0
  1 27  1  0
  2 28  1  0
  3 29  1  0
  3 30  1  0
  3 31  1  0
  7 32  1  0
  7 33  1  0
 13 34  1  0
 13 35  1  0
 15 36  1  0
 17 37  1  0
 18 38  1  0
 20 39  1  0
 23 40  1  0
M  CHG  1   4  -1
M  END
>  <UniqueID>  (4) 
4

>  <SMILES>  (4) 
CC(C)[N-]C(=O)CC(=O)n1c(C(N)=O)cc2ccc(C(F)F)cc21

>  <Energy>  (4) 
70.37934536400424

>  <Genealogy>  (4) 
CC(C)[N-]C(=O)CC(=O)n1c(C(N)=O)cc2ccc(C(F)F)cc21 (protonated)
CC(C)[N-]C(=O)CC(=O)n1c(C(N)=O)cc2ccc(C(F)F)cc21 (3D coordinates assigned)
CC(C)[N-]C(=O)CC(=O)n1c(C(N)=O)cc2ccc(C(F)F)cc21 (optimized conformer: 70.37934536400424 kcal/mol)

>  <smiles>  (4) 
CC(C)NC(=O)CC(=O)n1c(C(N)=O)cc2ccc(C(F)F)cc21

>  <score_type>  (4) 
oracle

>  <origin>  (4) 
adg

>  <m_score__min__energy>  (4) 
-7.0599999999999996

>  <m_primary>  (4) 
energy

$$$$
4:0
     RDKit          3D

 40 41  0  0  0  0  0  0  0  0999 V2000
  140.6000  153.1580  138.5650 C   0  0  0  0  0  0  0  0  0  0  0  0
  141.3550  151.8950  138.1040 C   0  0  0  0  0  0  0  0  0  0  0  0
  142.1640  151.3340  139.2800 C   0  0  0  0  0  0  0  0  0  0  0  0
  142.2930  152.2500  137.0340 N   0  0  0  0  0  0  0  0  0  0  0  0
  142.4390  153.5460  136.4400 C   0  0  0  0  0  0  0  0  0  0  0  0
  143.1970  154.4060  136.9670 O   0  0  0  0  0  0  0  0  0  0  0  0
  141.7200  153.8350  135.2740 O   0  0  0  0  0  0  0  0  0  0  0  0
  142.2910  154.1550  134.0330 C   0  0  0  0  0  0  0  0  0  0  0  0
  141.8290  155.0990  133.3350 O   0  0  0  0  0  0  0  0  0  0  0  0
  143.4070  153.3890  133.5500 N   0  0  0  0  0  0  0  0  0  0  0  0
  143.3850  152.1220  133.0470 C   0  0  0  0  0  0  0  0  0  0  0  0
  142.2130  151.2180  133.0500 C   0  0  0  0  0  0  0  0  0  0  0  0
  141.3410  151.1590  134.1800 N   0  0  0  0  0  0  0  0  0  0  0  0
  141.9560  150.5120  132.0390 O   0  0  0  0  0  0  0  0  0  0  0  0
  144.6540  151.7480  132.6100 C   0  0  0  0  0  0  0  0  0  0  0  0
  145.4610  152.8330  132.8640 C   0  0  0  0  0  0  0  0  0  0  0  0
  146.8210  153.0090  132.6290 C   0  0  0  0  0  0  0  0  0  0  0  0
  147.3950  154.2440  132.9740 C   0  0  0  0  0  0  0  0  0  0  0  0
  146.6020  155.2860  133.5210 C   0  0  0  0  0  0  0  0  0  0  0  0
  147.2370  156.5930  133.9220 C   0  0  0  0  0  0  0  0  0  0  0  0
  146.2940  157.6060  133.9500 F   0  0  0  0  0  0  0  0  0  0  0  0
  148.2280  156.9510  133.0240 F   0  0  0  0  0  0  0  0  0  0  0  0
  147.7950  156.4610  135.1800 F   0  0  0  0  0  0  0  0  0  0  0  0
  145.2270  155.0570  133.7670 C   0  0  0  0  0  0  0  0  0  0  0  0
  144.6860  153.8110  133.4300 C   0  0  0  0  0  0  0  0  0  0  0  0
  140.3980  150.8240  137.6250 C   0  0  0  0  0  0  0  0  0  0  0  0
  139.5070  150.3690  138.3900 O   0  0  0  0  0  0  0  0  0  0  0  0
  140.5520  150.2710  136.3590 O   0  0  0  0  0  0  0  0  0  0  0  0
  140.5796  153.1922  139.6643 H   0  0  0  0  0  0  0  0  0  0  0  0
  141.1118  154.0522  138.1798 H   0  0  0  0  0  0  0  0  0  0  0  0
  139.5700  153.1306  138.1798 H   0  0  0  0  0  0  0  0  0  0  0  0
  141.7039  151.6530  140.2269 H   0  0  0  0  0  0  0  0  0  0  0  0
  142.1724  150.2352  139.2283 H   0  0  0  0  0  0  0  0  0  0  0  0
  143.1960  151.7114  139.2283 H   0  0  0  0  0  0  0  0  0  0  0  0
  140.4950  150.5470  134.1560 H   0  0  0  0  0  0  0  0  0  0  0  0
  141.5490  151.6880  135.0550 H   0  0  0  0  0  0  0  0  0  0  0  0
  144.9481  150.7892  132.1581 H   0  0  0  0  0  0  0  0  0  0  0  0
  147.4283  152.2056  132.1865 H   0  0  0  0  0  0  0  0  0  0  0  0
  148.4719  154.4052  132.8183 H   0  0  0  0  0  0  0  0  0  0  0  0
  144.5976  155.8410  134.2132 H   0  0  0  0  0  0  0  0  0  0  0  0
  1  2  1  0
  2  3  1  0
  2  4  1  0
  4  5  1  0
  5  6  2  0
  5  7  1  0
  7  8  1  0
  8  9  2  0
  8 10  1  0
 10 11  1  0
 11 12  1  0
 12 13  1  0
 12 14  2  0
 11 15  2  0
 15 16  1  0
 16 17  2  0
 17 18  1  0
 18 19  2  0
 19 20  1  0
 20 21  1  0
 20 22  1  0
 20 23  1  0
 19 24  1  0
 24 25  2  0
  2 26  1  0
 26 27  2  0
 26 28  1  0
 25 10  1  0
 25 16  1  0
  1 29  1  0
  1 30  1  0
  1 31  1  0
  3 32  1  0
  3 33  1  0
  3 34  1  0
 13 35  1  0
 13 36  1  0
 15 37  1  0
 17 38  1  0
 18 39  1  0
 24 40  1  0
M  CHG  2   4  -1  28  -1
M  END
>  <UniqueID>  (5) 
5

>  <SMILES>  (5) 
CC(C)([N-]C(=O)OC(=O)n1c(C(N)=O)cc2ccc(C(F)(F)F)cc21)C(=O)[O-]

>  <Energy>  (5) 
77.2105122036086

>  <Genealogy>  (5) 
CC(C)([N-]C(=O)OC(=O)n1c(C(N)=O)cc2ccc(C(F)(F)F)cc21)C(=O)[O-] (protonated)
CC(C)([N-]C(=O)OC(=O)n1c(C(N)=O)cc2ccc(C(F)(F)F)cc21)C(=O)[O-] (3D coordinates assigned)
CC(C)([N-]C(=O)OC(=O)n1c(C(N)=O)cc2ccc(C(F)(F)F)cc21)C(=O)[O-] (optimized conformer: 77.2105122036086 kcal/mol)

>  <smiles>  (5) 
CC(C)(NC(=O)OC(=O)n1c(C(N)=O)cc2ccc(C(F)(F)F)cc21)C(=O)O

>  <score_type>  (5) 
oracle

>  <origin>  (5) 
adg

>  <m_score__min__energy>  (5) 
-7.5300000000000002

>  <m_primary>  (5) 
energy

$$$$
5:0
     RDKit          3D

 33 36  0  0  0  0  0  0  0  0999 V2000
  139.4720  158.2340  136.3180 N   0  0  0  0  0  0  0  0  0  0  0  0
  139.8870  158.4230  134.9680 C   0  0  0  0  0  0  0  0  0  0  0  0
  139.0430  158.3050  134.0400 O   0  0  0  0  0  0  0  0  0  0  0  0
  141.3010  158.6960  134.6390 C   0  0  0  0  0  0  0  0  0  0  0  0
  141.8270  159.9820  134.5250 C   0  0  0  0  0  0  0  0  0  0  0  0
  143.1300  159.8100  134.1200 C   0  0  0  0  0  0  0  0  0  0  0  0
  144.1180  160.7540  133.8610 C   0  0  0  0  0  0  0  0  0  0  0  0
  145.3890  160.2910  133.4820 C   0  0  0  0  0  0  0  0  0  0  0  0
  145.6540  158.9010  133.3850 C   0  0  0  0  0  0  0  0  0  0  0  0
  146.9970  158.4190  132.9880 C   0  0  0  0  0  0  0  0  0  0  0  0
  147.4480  157.1350  133.3690 C   0  0  0  0  0  0  0  0  0  0  0  0
  148.7270  156.6740  132.9810 C   0  0  0  0  0  0  0  0  0  0  0  0
  149.5780  157.4880  132.2150 C   0  0  0  0  0  0  0  0  0  0  0  0
  149.1160  158.7510  131.8590 C   0  0  0  0  0  0  0  0  0  0  0  0
  149.7720  159.6970  131.1650 N   0  0  0  0  0  0  0  0  0  0  0  0
  148.9710  160.7550  131.0880 N   0  0  0  0  0  0  0  0  0  0  0  0
  147.8100  160.4850  131.7310 C   0  0  0  0  0  0  0  0  0  0  0  0
  147.8790  159.2010  132.2270 C   0  0  0  0  0  0  0  0  0  0  0  0
  144.6210  157.9730  133.6480 C   0  0  0  0  0  0  0  0  0  0  0  0
  143.3590  158.4620  134.0050 C   0  0  0  0  0  0  0  0  0  0  0  0
  142.2460  157.7640  134.3240 N   0  0  0  0  0  0  0  0  0  0  0  0
  142.1300  156.3350  134.4080 C   0  0  0  0  0  0  0  0  0  0  0  0
  141.3100  155.7180  133.6770 O   0  0  0  0  0  0  0  0  0  0  0  0
  142.9410  155.6150  135.2760 O   0  0  0  0  0  0  0  0  0  0  0  0
  139.4180  159.0400  136.9810 H   0  0  0  0  0  0  0  0  0  0  0  0
  141.3093  160.9332  134.7181 H   0  0  0  0  0  0  0  0  0  0  0  0
  143.9105  161.8306  133.9502 H   0  0  0  0  0  0  0  0  0  0  0  0
  146.1871  161.0141  133.2581 H   0  0  0  0  0  0  0  0  0  0  0  0
  146.7968  156.4871  133.9741 H   0  0  0  0  0  0  0  0  0  0  0  0
  149.0587  155.6692  133.2815 H   0  0  0  0  0  0  0  0  0  0  0  0
  150.5748  157.1389  131.9075 H   0  0  0  0  0  0  0  0  0  0  0  0
  146.9581  161.1725  131.8389 H   0  0  0  0  0  0  0  0  0  0  0  0
  144.8046  156.8910  133.5738 H   0  0  0  0  0  0  0  0  0  0  0  0
  1  2  1  0
  2  3  2  0
  2  4  1  0
  4  5  2  0
  5  6  1  0
  6  7  2  0
  7  8  1  0
  8  9  2  0
  9 10  1  0
 10 11  2  0
 11 12  1  0
 12 13  2  0
 13 14  1  0
 14 15  1  0
 15 16  1  0
 16 17  2  0
 17 18  1  0
  9 19  1  0
 19 20  2  0
 20 21  1  0
 21 22  1  0
 22 23  2  0
 22 24  1  0
 21  4  1  0
 20  6  1  0
 18 10  1  0
 18 14  2  0
  1 25  1  0
  5 26  1  0
  7 27  1  0
  8 28  1  0
 11 29  1  0
 12 30  1  0
 13 31  1  0
 17 32  1  0
 19 33  1  0
M  CHG  3   1  -1  15  -1  24  -1
M  END
>  <UniqueID>  (6) 
6

>  <SMILES>  (6) 
[NH-]C(=O)c1cc2ccc(-c3cccc4[n-]ncc34)cc2n1C(=O)[O-]

>  <Energy>  (6) 
121.37463279224362

>  <Genealogy>  (6) 
[NH-]C(=O)c1cc2ccc(-c3cccc4[n-]ncc34)cc2n1C(=O)[O-] (protonated)
[NH-]C(=O)c1cc2ccc(-c3cccc4[n-]ncc34)cc2n1C(=O)[O-] (3D coordinates assigned)
[NH-]C(=O)c1cc2ccc(-c3cccc4[n-]ncc34)cc2n1C(=O)[O-] (optimized conformer: 121.37463279224362 kcal/mol)

>  <smiles>  (6) 
NC(=O)c1cc2ccc(-c3cccc4[nH]ncc34)cc2n1C(=O)O

>  <score_type>  (6) 
oracle

>  <origin>  (6) 
adg

>  <m_score__min__energy>  (6) 
-7.75

>  <m_primary>  (6) 
energy

$$$$
6:0
     RDKit          3D

 40 41  0  0  0  0  0  0  0  0999 V2000
  139.3070  157.6690  134.1580 C   0  0  0  0  0  0  0  0  0  0  0  0
  140.1150  158.6110  134.8520 O   0  0  0  0  0  0  0  0  0  0  0  0
  141.2080  158.2320  135.6360 C   0  0  0  0  0  0  0  0  0  0  0  0
  141.3150  158.6300  136.8280 O   0  0  0  0  0  0  0  0  0  0  0  0
  142.2320  157.3030  135.0680 C   0  0  0  0  0  0  0  0  0  0  0  0
  143.2930  158.0880  134.3490 C   0  0  0  0  0  0  0  0  0  0  0  0
  143.0520  159.4340  133.9770 C   0  0  0  0  0  0  0  0  0  0  0  0
  144.0580  160.1960  133.3580 C   0  0  0  0  0  0  0  0  0  0  0  0
  145.2850  159.5860  133.1200 C   0  0  0  0  0  0  0  0  0  0  0  0
  146.4470  160.1110  132.6020 C   0  0  0  0  0  0  0  0  0  0  0  0
  147.3720  159.0720  132.6440 C   0  0  0  0  0  0  0  0  0  0  0  0
  148.7700  159.2060  132.1850 C   0  0  0  0  0  0  0  0  0  0  0  0
  149.7820  158.2870  132.5990 N   0  0  0  0  0  0  0  0  0  0  0  0
  149.0680  160.1250  131.3750 O   0  0  0  0  0  0  0  0  0  0  0  0
  146.8090  157.9460  133.1650 N   0  0  0  0  0  0  0  0  0  0  0  0
  147.4730  156.7150  133.4950 C   0  0  0  0  0  0  0  0  0  0  0  0
  148.1670  156.6440  134.5450 O   0  0  0  0  0  0  0  0  0  0  0  0
  147.3520  155.5080  132.6070 C   0  0  0  0  0  0  0  0  0  0  0  0
  148.6360  154.7240  132.5990 C   0  0  0  0  0  0  0  0  0  0  0  0
  149.7020  155.3170  132.5420 O   0  0  0  0  0  0  0  0  0  0  0  0
  148.6290  153.2260  132.6840 C   0  0  0  0  0  0  0  0  0  0  0  0
  149.8860  152.7320  132.3140 O   0  0  0  0  0  0  0  0  0  0  0  0
  145.5310  158.2800  133.4610 C   0  0  0  0  0  0  0  0  0  0  0  0
  144.5580  157.5080  134.1060 C   0  0  0  0  0  0  0  0  0  0  0  0
  138.7691  157.0419  134.8842 H   0  0  0  0  0  0  0  0  0  0  0  0
  138.5817  158.2029  133.5265 H   0  0  0  0  0  0  0  0  0  0  0  0
  139.9451  157.0334  133.5265 H   0  0  0  0  0  0  0  0  0  0  0  0
  142.6941  156.7272  135.8834 H   0  0  0  0  0  0  0  0  0  0  0  0
  141.7451  156.6181  134.3582 H   0  0  0  0  0  0  0  0  0  0  0  0
  142.0690  159.8865  134.1744 H   0  0  0  0  0  0  0  0  0  0  0  0
  143.8802  161.2428  133.0706 H   0  0  0  0  0  0  0  0  0  0  0  0
  146.6100  161.1344  132.2332 H   0  0  0  0  0  0  0  0  0  0  0  0
  149.5380  157.4090  133.1050 H   0  0  0  0  0  0  0  0  0  0  0  0
  150.7740  158.4360  132.3110 H   0  0  0  0  0  0  0  0  0  0  0  0
  146.5393  154.8664  132.9782 H   0  0  0  0  0  0  0  0  0  0  0  0
  147.1353  155.8429  131.5819 H   0  0  0  0  0  0  0  0  0  0  0  0
  148.4032  152.9183  133.7156 H   0  0  0  0  0  0  0  0  0  0  0  0
  147.8624  152.8236  132.0054 H   0  0  0  0  0  0  0  0  0  0  0  0
  150.3520  153.4790  131.8580 H   0  0  0  0  0  0  0  0  0  0  0  0
  144.7730  156.4748  134.4162 H   0  0  0  0  0  0  0  0  0  0  0  0
  1  2  1  0
  2  3  1  0
  3  4  2  0
  3  5  1  0
  5  6  1  0
  6  7  2  0
  7  8  1  0
  8  9  2  0
  9 10  1  0
 10 11  2  0
 11 12  1  0
 12 13  1  0
 12 14  2  0
 11 15  1  0
 15 16  1  0
 16 17  2  0
 16 18  1  0
 18 19  1  0
 19 20  2  0
 19 21  1  0
 21 22  1  0
 15 23  1  0
 23 24  2  0
 24  6  1  0
 23  9  1  0
  1 25  1  0
  1 26  1  0
  1 27  1  0
  5 28  1  0
  5 29  1  0
  7 30  1  0
  8 31  1  0
 10 32  1  0
 13 33  1  0
 13 34  1  0
 18 35  1  0
 18 36  1  0
 21 37  1  0
 21 38  1  0
 22 39  1  0
 24 40  1  0
M  END
>  <UniqueID>  (7) 
7

>  <SMILES>  (7) 
COC(=O)Cc1ccc2cc(C(N)=O)n(C(=O)CC(=O)CO)c2c1

>  <Energy>  (7) 
71.66978866785547

>  <Genealogy>  (7) 
COC(=O)Cc1ccc2cc(C(N)=O)n(C(=O)CC(=O)CO)c2c1 (3D coordinates assigned)
COC(=O)Cc1ccc2cc(C(N)=O)n(C(=O)CC(=O)CO)c2c1 (optimized conformer: 71.66978866785547 kcal/mol)

>  <smiles>  (7) 
COC(=O)Cc1ccc2cc(C(N)=O)n(C(=O)CC(=O)CO)c2c1

>  <score_type>  (7) 
oracle

>  <origin>  (7) 
adg

>  <m_score__min__energy>  (7) 
-6.8399999999999999

>  <m_primary>  (7) 
energy

$$$$
7:0
     RDKit          3D

 36 37  0  0  0  0  0  0  0  0999 V2000
  140.3550  158.9160  134.5680 C   0  0  0  0  0  0  0  0  0  0  0  0
  141.5650  158.5260  135.4160 C   0  0  0  0  0  0  0  0  0  0  0  0
  141.3720  158.9790  136.8650 C   0  0  0  0  0  0  0  0  0  0  0  0
  141.7870  156.7100  135.3410 S   0  0  0  0  0  0  0  0  0  0  0  0
  143.4450  156.7790  134.6530 C   0  0  0  0  0  0  0  0  0  0  0  0
  144.3570  156.0870  135.1760 O   0  0  0  0  0  0  0  0  0  0  0  0
  143.7390  157.6360  133.4940 C   0  0  0  0  0  0  0  0  0  0  0  0
  142.8780  157.7780  132.5850 O   0  0  0  0  0  0  0  0  0  0  0  0
  144.9740  158.3610  133.4150 N   0  0  0  0  0  0  0  0  0  0  0  0
  145.1660  159.7080  133.4970 C   0  0  0  0  0  0  0  0  0  0  0  0
  144.1220  160.7110  133.7920 C   0  0  0  0  0  0  0  0  0  0  0  0
  142.7830  160.4930  133.3540 N   0  0  0  0  0  0  0  0  0  0  0  0
  144.4040  161.7720  134.4080 O   0  0  0  0  0  0  0  0  0  0  0  0
  146.5160  160.0170  133.3290 C   0  0  0  0  0  0  0  0  0  0  0  0
  147.1470  158.8070  133.1490 C   0  0  0  0  0  0  0  0  0  0  0  0
  148.4910  158.5180  132.9320 C   0  0  0  0  0  0  0  0  0  0  0  0
  148.8570  157.1700  132.7660 C   0  0  0  0  0  0  0  0  0  0  0  0
  147.8790  156.1440  132.8150 C   0  0  0  0  0  0  0  0  0  0  0  0
  148.2910  154.7120  132.6260 C   0  0  0  0  0  0  0  0  0  0  0  0
  148.0950  154.0110  133.8000 F   0  0  0  0  0  0  0  0  0  0  0  0
  149.6270  154.6550  132.2760 F   0  0  0  0  0  0  0  0  0  0  0  0
  146.5240  156.4760  133.0380 C   0  0  0  0  0  0  0  0  0  0  0  0
  146.1940  157.8240  133.2090 C   0  0  0  0  0  0  0  0  0  0  0  0
  139.5169  159.1861  135.2273 H   0  0  0  0  0  0  0  0  0  0  0  0
  140.6141  159.7761  133.9331 H   0  0  0  0  0  0  0  0  0  0  0  0
  140.0630  158.0665  133.9331 H   0  0  0  0  0  0  0  0  0  0  0  0
  142.4632  159.0227  135.0203 H   0  0  0  0  0  0  0  0  0  0  0  0
  141.7106  158.1842  137.5459 H   0  0  0  0  0  0  0  0  0  0  0  0
  141.9596  159.8913  137.0453 H   0  0  0  0  0  0  0  0  0  0  0  0
  140.3070  159.1872  137.0453 H   0  0  0  0  0  0  0  0  0  0  0  0
  142.5770  159.8510  132.5570 H   0  0  0  0  0  0  0  0  0  0  0  0
  146.9779  161.0153  133.3384 H   0  0  0  0  0  0  0  0  0  0  0  0
  149.2438  159.3190  132.8916 H   0  0  0  0  0  0  0  0  0  0  0  0
  149.9121  156.9090  132.5965 H   0  0  0  0  0  0  0  0  0  0  0  0
  147.6822  154.2643  131.8267 H   0  0  0  0  0  0  0  0  0  0  0  0
  145.7498  155.6955  133.0760 H   0  0  0  0  0  0  0  0  0  0  0  0
  1  2  1  0
  2  3  1  0
  2  4  1  0
  4  5  1  0
  5  6  2  0
  5  7  1  0
  7  8  2  0
  7  9  1  0
  9 10  1  0
 10 11  1  0
 11 12  1  0
 11 13  2  0
 10 14  2  0
 14 15  1  0
 15 16  2  0
 16 17  1  0
 17 18  2  0
 18 19  1  0
 19 20  1  0
 19 21  1  0
 18 22  1  0
 22 23  2  0
 23  9  1  0
 23 15  1  0
  1 24  1  0
  1 25  1  0
  1 26  1  0
  2 27  1  0
  3 28  1  0
  3 29  1  0
  3 30  1  0
 12 31  1  0
 14 32  1  0
 16 33  1  0
 17 34  1  0
 19 35  1  0
 22 36  1  0
M  CHG  1  12  -1
M  END
>  <UniqueID>  (8) 
8

>  <SMILES>  (8) 
CC(C)SC(=O)C(=O)n1c(C([NH-])=O)cc2ccc(C(F)F)cc21

>  <Energy>  (8) 
66.74567602067826

>  <Genealogy>  (8) 
CC(C)SC(=O)C(=O)n1c(C([NH-])=O)cc2ccc(C(F)F)cc21 (protonated)
CC(C)SC(=O)C(=O)n1c(C([NH-])=O)cc2ccc(C(F)F)cc21 (3D coordinates assigned)
CC(C)SC(=O)C(=O)n1c(C([NH-])=O)cc2ccc(C(F)F)cc21 (optimized conformer: 66.74567602067826 kcal/mol)

>  <smiles>  (8) 
CC(C)SC(=O)C(=O)n1c(C(N)=O)cc2ccc(C(F)F)cc21

>  <score_type>  (8) 
oracle

>  <origin>  (8) 
adg

>  <m_score__min__energy>  (8) 
-6.75

>  <m_primary>  (8) 
energy

$$$$
8:0
     RDKit          3D

 39 40  0  0  0  0  0  0  0  0999 V2000
  148.6560  154.0060  133.0340 C   0  0  0  0  0  0  0  0  0  0  0  0
  147.9020  154.6110  134.1350 N   0  0  0  0  0  0  0  0  0  0  0  0
  147.3030  153.7490  135.1570 C   0  0  0  0  0  0  0  0  0  0  0  0
  148.1720  153.7070  136.3300 N   0  0  0  0  0  0  0  0  0  0  0  0
  147.2820  153.1020  137.6930 S   0  0  0  0  0  0  0  0  0  0  0  0
  145.5840  153.1980  137.3820 N   0  0  0  0  0  0  0  0  0  0  0  0
  147.6630  151.6730  137.9600 O   0  0  0  0  0  0  0  0  0  0  0  0
  147.6100  153.9330  138.9010 O   0  0  0  0  0  0  0  0  0  0  0  0
  147.7360  156.0430  134.1610 C   0  0  0  0  0  0  0  0  0  0  0  0
  147.9870  156.6720  135.2260 O   0  0  0  0  0  0  0  0  0  0  0  0
  147.2720  156.8030  132.9790 C   0  0  0  0  0  0  0  0  0  0  0  0
  147.0800  156.2210  131.8790 O   0  0  0  0  0  0  0  0  0  0  0  0
  147.0140  158.2120  133.0770 N   0  0  0  0  0  0  0  0  0  0  0  0
  147.8350  159.2340  132.7070 C   0  0  0  0  0  0  0  0  0  0  0  0
  149.2220  159.0950  132.2110 C   0  0  0  0  0  0  0  0  0  0  0  0
  149.7630  157.8170  131.8850 N   0  0  0  0  0  0  0  0  0  0  0  0
  149.9460  160.1200  132.0900 O   0  0  0  0  0  0  0  0  0  0  0  0
  147.1950  160.4590  132.8890 C   0  0  0  0  0  0  0  0  0  0  0  0
  145.9450  160.1500  133.3800 C   0  0  0  0  0  0  0  0  0  0  0  0
  144.8790  160.9810  133.7070 C   0  0  0  0  0  0  0  0  0  0  0  0
  143.6880  160.3810  134.1500 C   0  0  0  0  0  0  0  0  0  0  0  0
  143.5860  158.9700  134.2680 C   0  0  0  0  0  0  0  0  0  0  0  0
  142.2840  158.3360  134.6880 C   0  0  0  0  0  0  0  0  0  0  0  0
  142.5310  157.0610  135.1620 F   0  0  0  0  0  0  0  0  0  0  0  0
  141.6770  159.0780  135.6850 F   0  0  0  0  0  0  0  0  0  0  0  0
  141.4110  158.2570  133.6150 F   0  0  0  0  0  0  0  0  0  0  0  0
  144.6850  158.1600  133.9000 C   0  0  0  0  0  0  0  0  0  0  0  0
  145.8620  158.7860  133.4790 C   0  0  0  0  0  0  0  0  0  0  0  0
  149.4525  153.3669  133.4427 H   0  0  0  0  0  0  0  0  0  0  0  0
  147.9787  153.3979  132.4163 H   0  0  0  0  0  0  0  0  0  0  0  0
  149.1029  154.7990  132.4163 H   0  0  0  0  0  0  0  0  0  0  0  0
  146.3194  154.1495  135.4437 H   0  0  0  0  0  0  0  0  0  0  0  0
  147.1822  152.7326  134.7540 H   0  0  0  0  0  0  0  0  0  0  0  0
  145.2970  154.1860  137.5660 H   0  0  0  0  0  0  0  0  0  0  0  0
  149.1440  157.0300  131.5910 H   0  0  0  0  0  0  0  0  0  0  0  0
  147.6017  161.4603  132.6841 H   0  0  0  0  0  0  0  0  0  0  0  0
  144.9654  162.0743  133.6215 H   0  0  0  0  0  0  0  0  0  0  0  0
  142.8248  161.0120  134.4083 H   0  0  0  0  0  0  0  0  0  0  0  0
  144.6155  157.0631  133.9439 H   0  0  0  0  0  0  0  0  0  0  0  0
  1  2  1  0
  2  3  1  0
  3  4  1  0
  4  5  1  0
  5  6  1  0
  5  7  2  0
  5  8  2  0
  2  9  1  0
  9 10  2  0
  9 11  1  0
 11 12  2  0
 11 13  1  0
 13 14  1  0
 14 15  1  0
 15 16  1  0
 15 17  2  0
 14 18  2  0
 18 19  1  0
 19 20  2  0
 20 21  1  0
 21 22  2  0
 22 23  1  0
 23 24  1  0
 23 25  1  0
 23 26  1  0
 22 27  1  0
 27 28  2  0
 28 13  1  0
 28 19  1  0
  1 29  1  0
  1 30  1  0
  1 31  1  0
  3 32  1  0
  3 33  1  0
  6 34  1  0
 16 35  1  0
 18 36  1  0
 20 37  1  0
 21 38  1  0
 27 39  1  0
M  CHG  3   4  -1   6  -1  16  -1
M  END
>  <UniqueID>  (9) 
9

>  <SMILES>  (9) 
CN(C[N-]S([NH-])(=O)=O)C(=O)C(=O)n1c(C([NH-])=O)cc2ccc(C(F)(F)F)cc21

>  <Energy>  (9) 
75.93917072978672

>  <Genealogy>  (9) 
CN(C[N-]S([NH-])(=O)=O)C(=O)C(=O)n1c(C([NH-])=O)cc2ccc(C(F)(F)F)cc21 (protonated)
CN(C[N-]S([NH-])(=O)=O)C(=O)C(=O)n1c(C([NH-])=O)cc2ccc(C(F)(F)F)cc21 (3D coordinates assigned)
CN(C[N-]S([NH-])(=O)=O)C(=O)C(=O)n1c(C([NH-])=O)cc2ccc(C(F)(F)F)cc21 (optimized conformer: 75.93917072978672 kcal/mol)

>  <smiles>  (9) 
CN(CNS(N)(=O)=O)C(=O)C(=O)n1c(C(N)=O)cc2ccc(C(F)(F)F)cc21

>  <score_type>  (9) 
oracle

>  <origin>  (9) 
adg

>  <m_score__min__energy>  (9) 
-6.9299999999999997

>  <m_primary>  (9) 
energy

$$$$
9:0
     RDKit          3D

 43 45  0  0  0  0  0  0  0  0999 V2000
  149.8260  152.0590  132.2590 C   0  0  0  0  0  0  0  0  0  0  0  0
  148.8440  153.0860  132.5780 N   0  0  0  0  0  0  0  0  0  0  0  0
  147.5300  152.9030  132.7870 C   0  0  0  0  0  0  0  0  0  0  0  0
  146.9020  154.0780  132.9880 N   0  0  0  0  0  0  0  0  0  0  0  0
  147.9140  154.9710  132.8810 C   0  0  0  0  0  0  0  0  0  0  0  0
  147.7400  156.4320  133.0220 C   0  0  0  0  0  0  0  0  0  0  0  0
  148.8560  157.3010  132.9070 C   0  0  0  0  0  0  0  0  0  0  0  0
  148.6980  158.6920  133.0250 C   0  0  0  0  0  0  0  0  0  0  0  0
  147.4210  159.1860  133.2690 C   0  0  0  0  0  0  0  0  0  0  0  0
  146.9840  160.4860  133.3920 C   0  0  0  0  0  0  0  0  0  0  0  0
  145.6120  160.3920  133.6120 C   0  0  0  0  0  0  0  0  0  0  0  0
  144.7470  161.5620  133.8590 C   0  0  0  0  0  0  0  0  0  0  0  0
  143.3310  161.4880  133.6750 N   0  0  0  0  0  0  0  0  0  0  0  0
  145.2580  162.6290  134.2920 O   0  0  0  0  0  0  0  0  0  0  0  0
  145.2130  159.0900  133.6130 N   0  0  0  0  0  0  0  0  0  0  0  0
  143.8700  158.5850  133.7000 C   0  0  0  0  0  0  0  0  0  0  0  0
  143.4140  157.8580  132.7760 O   0  0  0  0  0  0  0  0  0  0  0  0
  143.0860  158.8950  134.8200 O   0  0  0  0  0  0  0  0  0  0  0  0
  141.6600  158.7590  134.9030 C   0  0  0  0  0  0  0  0  0  0  0  0
  141.3330  157.2620  134.8290 C   0  0  0  0  0  0  0  0  0  0  0  0
  141.1600  159.3200  136.2480 C   0  0  0  0  0  0  0  0  0  0  0  0
  140.9910  159.4520  133.7370 C   0  0  0  0  0  0  0  0  0  0  0  0
  140.3650  158.7780  132.8750 O   0  0  0  0  0  0  0  0  0  0  0  0
  140.9900  160.8390  133.6430 O   0  0  0  0  0  0  0  0  0  0  0  0
  146.3330  158.3630  133.4030 C   0  0  0  0  0  0  0  0  0  0  0  0
  146.4570  156.9740  133.2660 C   0  0  0  0  0  0  0  0  0  0  0  0
  149.0990  154.3800  132.6220 N   0  0  0  0  0  0  0  0  0  0  0  0
  150.2303  151.6362  133.1906 H   0  0  0  0  0  0  0  0  0  0  0  0
  149.3456  151.2618  131.6727 H   0  0  0  0  0  0  0  0  0  0  0  0
  150.6439  152.5032  131.6727 H   0  0  0  0  0  0  0  0  0  0  0  0
  147.0318  151.9223  132.7933 H   0  0  0  0  0  0  0  0  0  0  0  0
  149.8559  156.8808  132.7234 H   0  0  0  0  0  0  0  0  0  0  0  0
  149.5586  159.3701  132.9273 H   0  0  0  0  0  0  0  0  0  0  0  0
  147.5890  161.4025  133.3298 H   0  0  0  0  0  0  0  0  0  0  0  0
  142.8580  160.5780  133.4860 H   0  0  0  0  0  0  0  0  0  0  0  0
  142.7400  162.3380  133.8130 H   0  0  0  0  0  0  0  0  0  0  0  0
  141.2442  156.8553  135.8472 H   0  0  0  0  0  0  0  0  0  0  0  0
  140.3827  157.1203  134.2934 H   0  0  0  0  0  0  0  0  0  0  0  0
  142.1376  156.7370  134.2934 H   0  0  0  0  0  0  0  0  0  0  0  0
  141.6434  158.7776  137.0739 H   0  0  0  0  0  0  0  0  0  0  0  0
  141.4103  160.3890  136.3152 H   0  0  0  0  0  0  0  0  0  0  0  0
  140.0693  159.1939  136.3152 H   0  0  0  0  0  0  0  0  0  0  0  0
  145.5762  156.3200  133.3465 H   0  0  0  0  0  0  0  0  0  0  0  0
  1  2  1  0
  2  3  1  0
  3  4  2  0
  4  5  1  0
  5  6  1  0
  6  7  2  0
  7  8  1  0
  8  9  2  0
  9 10  1  0
 10 11  2  0
 11 12  1  0
 12 13  1  0
 12 14  2  0
 11 15  1  0
 15 16  1  0
 16 17  2  0
 16 18  1  0
 18 19  1  0
 19 20  1  0
 19 21  1  0
 19 22  1  0
 22 23  2  0
 22 24  1  0
 15 25  1  0
 25 26  2  0
  5 27  2  0
 27  2  1  0
 26  6  1  0
 25  9  1  0
  1 28  1  0
  1 29  1  0
  1 30  1  0
  3 31  1  0
  7 32  1  0
  8 33  1  0
 10 34  1  0
 13 35  1  0
 13 36  1  0
 20 37  1  0
 20 38  1  0
 20 39  1  0
 21 40  1  0
 21 41  1  0
 21 42  1  0
 26 43  1  0
M  CHG  1  24  -1
M  END
>  <UniqueID>  (10) 
10

>  <SMILES>  (10) 
Cn1cnc(-c2ccc3cc(C(N)=O)n(C(=O)OC(C)(C)C(=O)[O-])c3c2)n1

>  <Energy>  (10) 
113.18509967889659

>  <Genealogy>  (10) 
Cn1cnc(-c2ccc3cc(C(N)=O)n(C(=O)OC(C)(C)C(=O)[O-])c3c2)n1 (protonated)
Cn1cnc(-c2ccc3cc(C(N)=O)n(C(=O)OC(C)(C)C(=O)[O-])c3c2)n1 (3D coordinates assigned)
Cn1cnc(-c2ccc3cc(C(N)=O)n(C(=O)OC(C)(C)C(=O)[O-])c3c2)n1 (optimized conformer: 113.18509967889659 kcal/mol)

>  <smiles>  (10) 
Cn1cnc(-c2ccc3cc(C(N)=O)n(C(=O)OC(C)(C)C(=O)O)c3c2)n1

>  <score_type>  (10) 
oracle

>  <origin>  (10) 
adg

>  <m_score__min__energy>  (10) 
-7.6299999999999999

>  <m_primary>  (10) 
energy

$$$$
10:0
     RDKit          3D

 34 35  0  0  0  0  0  0  0  0999 V2000
  141.7120  158.9750  135.6370 C   0  0  0  0  0  0  0  0  0  0  0  0
  142.1620  157.5790  135.6690 N   0  0  0  0  0  0  0  0  0  0  0  0
  141.5730  156.6530  136.6410 C   0  0  0  0  0  0  0  0  0  0  0  0
  143.2370  157.1040  134.8250 C   0  0  0  0  0  0  0  0  0  0  0  0
  143.8460  156.0480  135.1480 O   0  0  0  0  0  0  0  0  0  0  0  0
  143.6650  157.8030  133.5890 C   0  0  0  0  0  0  0  0  0  0  0  0
  142.9140  157.8570  132.5790 O   0  0  0  0  0  0  0  0  0  0  0  0
  144.9590  158.4180  133.5230 N   0  0  0  0  0  0  0  0  0  0  0  0
  145.2490  159.7480  133.5250 C   0  0  0  0  0  0  0  0  0  0  0  0
  144.2740  160.8460  133.7040 C   0  0  0  0  0  0  0  0  0  0  0  0
  142.9030  160.6750  133.3570 N   0  0  0  0  0  0  0  0  0  0  0  0
  144.6550  161.9450  134.1900 O   0  0  0  0  0  0  0  0  0  0  0  0
  146.6210  159.9470  133.3740 C   0  0  0  0  0  0  0  0  0  0  0  0
  147.1640  158.6850  133.2710 C   0  0  0  0  0  0  0  0  0  0  0  0
  148.4850  158.2870  133.1010 C   0  0  0  0  0  0  0  0  0  0  0  0
  148.7520  156.9100  133.0070 C   0  0  0  0  0  0  0  0  0  0  0  0
  147.6980  155.9600  133.0570 C   0  0  0  0  0  0  0  0  0  0  0  0
  148.0010  154.4860  132.9970 C   0  0  0  0  0  0  0  0  0  0  0  0
  149.0310  154.2340  132.1060 F   0  0  0  0  0  0  0  0  0  0  0  0
  148.3740  154.0450  134.2540 F   0  0  0  0  0  0  0  0  0  0  0  0
  146.8880  153.7740  132.5810 F   0  0  0  0  0  0  0  0  0  0  0  0
  146.3700  156.4060  133.2530 C   0  0  0  0  0  0  0  0  0  0  0  0
  146.1380  157.7810  133.3600 C   0  0  0  0  0  0  0  0  0  0  0  0
  141.5926  159.3454  136.6658 H   0  0  0  0  0  0  0  0  0  0  0  0
  142.4578  159.5887  135.1106 H   0  0  0  0  0  0  0  0  0  0  0  0
  140.7482  159.0376  135.1106 H   0  0  0  0  0  0  0  0  0  0  0  0
  141.7947  157.0016  137.6605 H   0  0  0  0  0  0  0  0  0  0  0  0
  140.4833  156.6133  136.4959 H   0  0  0  0  0  0  0  0  0  0  0  0
  141.9990  155.6493  136.4959 H   0  0  0  0  0  0  0  0  0  0  0  0
  142.6180  160.0090  132.6040 H   0  0  0  0  0  0  0  0  0  0  0  0
  147.1561  160.9076  133.3436 H   0  0  0  0  0  0  0  0  0  0  0  0
  149.2967  159.0270  133.0418 H   0  0  0  0  0  0  0  0  0  0  0  0
  149.7901  156.5643  132.8933 H   0  0  0  0  0  0  0  0  0  0  0  0
  145.5392  155.6881  133.3197 H   0  0  0  0  0  0  0  0  0  0  0  0
  1  2  1  0
  2  3  1  0
  2  4  1  0
  4  5  2  0
  4  6  1  0
  6  7  2  0
  6  8  1  0
  8  9  1  0
  9 10  1  0
 10 11  1  0
 10 12  2  0
  9 13  2  0
 13 14  1  0
 14 15  2  0
 15 16  1  0
 16 17  2  0
 17 18  1  0
 18 19  1  0
 18 20  1  0
 18 21  1  0
 17 22  1  0
 22 23  2  0
 23  8  1  0
 23 14  1  0
  1 24  1  0
  1 25  1  0
  1 26  1  0
  3 27  1  0
  3 28  1  0
  3 29  1  0
 11 30  1  0
 13 31  1  0
 15 32  1  0
 16 33  1  0
 22 34  1  0
M  CHG  1  11  -1
M  END
>  <UniqueID>  (11) 
11

>  <SMILES>  (11) 
CN(C)C(=O)C(=O)n1c(C([NH-])=O)cc2ccc(C(F)(F)F)cc21

>  <Energy>  (11) 
75.02789058426298

>  <Genealogy>  (11) 
CN(C)C(=O)C(=O)n1c(C([NH-])=O)cc2ccc(C(F)(F)F)cc21 (protonated)
CN(C)C(=O)C(=O)n1c(C([NH-])=O)cc2ccc(C(F)(F)F)cc21 (3D coordinates assigned)
CN(C)C(=O)C(=O)n1c(C([NH-])=O)cc2ccc(C(F)(F)F)cc21 (optimized conformer: 75.02789058426298 kcal/mol)

>  <smiles>  (11) 
CN(C)C(=O)C(=O)n1c(C(N)=O)cc2ccc(C(F)(F)F)cc21

>  <score_type>  (11) 
oracle

>  <origin>  (11) 
adg

>  <m_score__min__energy>  (11) 
-6.0300000000000002

>  <m_primary>  (11) 
energy

$$$$
11:0
     RDKit          3D

 43 44  0  0  0  0  0  0  0  0999 V2000
  147.6630  152.6820  132.7020 C   0  0  0  0  0  0  0  0  0  0  0  0
  147.9390  154.1040  133.1950 C   0  0  1  0  0  0  0  0  0  0  0  0
  148.0630  154.1230  134.6160 O   0  0  0  0  0  0  0  0  0  0  0  0
  147.0870  154.6450  135.4740 C   0  0  0  0  0  0  0  0  0  0  0  0
  147.0990  154.3610  136.7030 O   0  0  0  0  0  0  0  0  0  0  0  0
  146.0480  155.4830  134.9440 N   0  0  0  0  0  0  0  0  0  0  0  0
  144.7000  155.3050  135.0500 C   0  0  0  0  0  0  0  0  0  0  0  0
  144.0230  154.1160  135.6070 C   0  0  0  0  0  0  0  0  0  0  0  0
  144.3320  153.6770  136.9270 N   0  0  0  0  0  0  0  0  0  0  0  0
  143.1440  153.5050  134.9430 O   0  0  0  0  0  0  0  0  0  0  0  0
  144.0190  156.3770  134.4760 C   0  0  0  0  0  0  0  0  0  0  0  0
  144.9970  157.2210  134.0060 C   0  0  0  0  0  0  0  0  0  0  0  0
  144.8840  158.4460  133.3540 C   0  0  0  0  0  0  0  0  0  0  0  0
  146.0680  159.1170  133.0030 C   0  0  0  0  0  0  0  0  0  0  0  0
  147.3340  158.5590  133.3120 C   0  0  0  0  0  0  0  0  0  0  0  0
  148.6010  159.2910  132.9290 C   0  0  0  0  0  0  0  0  0  0  0  0
  148.8650  159.3560  131.3970 C   0  0  0  0  0  0  0  0  0  0  0  0
  148.0110  160.4530  130.7390 C   0  0  0  0  0  0  0  0  0  0  0  0
  150.3540  159.6200  131.0910 C   0  0  0  0  0  0  0  0  0  0  0  0
  148.4880  158.1290  130.8200 O   0  0  0  0  0  0  0  0  0  0  0  0
  147.4070  157.3170  133.9820 C   0  0  0  0  0  0  0  0  0  0  0  0
  146.2130  156.6610  134.3010 C   0  0  0  0  0  0  0  0  0  0  0  0
  149.2110  154.6110  132.5890 C   0  0  0  0  0  0  0  0  0  0  0  0
  149.3690  155.8440  132.3880 O   0  0  0  0  0  0  0  0  0  0  0  0
  150.2070  153.7190  132.2060 O   0  0  0  0  0  0  0  0  0  0  0  0
  147.5332  152.0132  133.5656 H   0  0  0  0  0  0  0  0  0  0  0  0
  146.7470  152.6764  132.0930 H   0  0  0  0  0  0  0  0  0  0  0  0
  148.5104  152.3341  132.0930 H   0  0  0  0  0  0  0  0  0  0  0  0
  147.0979  154.7465  132.8955 H   0  0  0  0  0  0  0  0  0  0  0  0
  145.0860  154.1390  137.4830 H   0  0  0  0  0  0  0  0  0  0  0  0
  142.9299  156.5179  134.4125 H   0  0  0  0  0  0  0  0  0  0  0  0
  143.8985  158.8754  133.1208 H   0  0  0  0  0  0  0  0  0  0  0  0
  146.0117  160.0849  132.4833 H   0  0  0  0  0  0  0  0  0  0  0  0
  148.5329  160.3204  133.3108 H   0  0  0  0  0  0  0  0  0  0  0  0
  149.4362  158.7262  133.3688 H   0  0  0  0  0  0  0  0  0  0  0  0
  147.5349  161.0646  131.5195 H   0  0  0  0  0  0  0  0  0  0  0  0
  148.6524  161.0912  130.1134 H   0  0  0  0  0  0  0  0  0  0  0  0
  147.2350  159.9878  130.1134 H   0  0  0  0  0  0  0  0  0  0  0  0
  150.9104  159.7186  132.0348 H   0  0  0  0  0  0  0  0  0  0  0  0
  150.7634  158.7804  130.5100 H   0  0  0  0  0  0  0  0  0  0  0  0
  150.4498  160.5491  130.5100 H   0  0  0  0  0  0  0  0  0  0  0  0
  148.9960  157.4050  131.2720 H   0  0  0  0  0  0  0  0  0  0  0  0
  148.3795  156.8763  134.2465 H   0  0  0  0  0  0  0  0  0  0  0  0
  1  2  1  0
  2  3  1  0
  3  4  1  0
  4  5  2  0
  4  6  1  0
  6  7  1  0
  7  8  1  0
  8  9  1  0
  8 10  2  0
  7 11  2  0
 11 12  1  0
 12 13  2  0
 13 14  1  0
 14 15  2  0
 15 16  1  0
 16 17  1  0
 17 18  1  0
 17 19  1  0
 17 20  1  0
 15 21  1  0
 21 22  2  0
  2 23  1  0
 23 24  2  0
 23 25  1  0
 22  6  1  0
 22 12  1  0
  1 26  1  0
  1 27  1  0
  1 28  1  0
  2 29  1  1
  9 30  1  0
 11 31  1  0
 13 32  1  0
 14 33  1  0
 16 34  1  0
 16 35  1  0
 18 36  1  0
 18 37  1  0
 18 38  1  0
 19 39  1  0
 19 40  1  0
 19 41  1  0
 20 42  1  0
 21 43  1  0
M  CHG  2   9  -1  25  -1
M  END
>  <UniqueID>  (12) 
12

>  <SMILES>  (12) 
C[C@@H](OC(=O)n1c(C([NH-])=O)cc2ccc(CC(C)(C)O)cc21)C(=O)[O-]

>  <Energy>  (12) 
73.94383818321005

>  <Genealogy>  (12) 
CC(OC(=O)n1c(C([NH-])=O)cc2ccc(CC(C)(C)O)cc21)C(=O)[O-] (protonated)
C[C@@H](OC(=O)n1c(C([NH-])=O)cc2ccc(CC(C)(C)O)cc21)C(=O)[O-] (chirality)
C[C@@H](OC(=O)n1c(C([NH-])=O)cc2ccc(CC(C)(C)O)cc21)C(=O)[O-] (3D coordinates assigned)
C[C@@H](OC(=O)n1c(C([NH-])=O)cc2ccc(CC(C)(C)O)cc21)C(=O)[O-] (optimized conformer: 73.94383818321005 kcal/mol)

>  <smiles>  (12) 
CC(OC(=O)n1c(C(N)=O)cc2ccc(CC(C)(C)O)cc21)C(=O)O

>  <score_type>  (12) 
oracle

>  <origin>  (12) 
adg

>  <m_score__min__energy>  (12) 
-7.29

>  <m_primary>  (12) 
energy

$$$$
12:0
     RDKit          3D

 52 54  0  0  0  0  0  0  0  0999 V2000
  143.6250  154.3620  132.6500 C   0  0  0  0  0  0  0  0  0  0  0  0
  143.2740  154.6170  133.9090 C   0  0  0  0  0  0  0  0  0  0  0  0
  144.2540  154.9930  134.9450 C   0  0  0  0  0  0  0  0  0  0  0  0
  144.0880  154.6340  136.1430 O   0  0  0  0  0  0  0  0  0  0  0  0
  145.3790  155.8190  134.6040 N   0  0  0  0  0  0  0  0  0  0  0  0
  146.7010  155.4850  134.5910 C   0  0  0  0  0  0  0  0  0  0  0  0
  147.2780  154.2120  135.0710 C   0  0  0  0  0  0  0  0  0  0  0  0
  146.9280  153.6830  136.3480 N   0  0  0  0  0  0  0  0  0  0  0  0
  148.1220  153.6030  134.3620 O   0  0  0  0  0  0  0  0  0  0  0  0
  147.4700  156.5550  134.1360 C   0  0  0  0  0  0  0  0  0  0  0  0
  146.5710  157.5670  133.8810 C   0  0  0  0  0  0  0  0  0  0  0  0
  146.7850  158.8630  133.4170 C   0  0  0  0  0  0  0  0  0  0  0  0
  145.6630  159.6920  133.2420 C   0  0  0  0  0  0  0  0  0  0  0  0
  144.3580  159.2100  133.5150 C   0  0  0  0  0  0  0  0  0  0  0  0
  143.1630  160.1120  133.3550 C   0  0  0  0  0  0  0  0  0  0  0  0
  141.9670  159.5710  134.0920 C   0  0  0  0  0  0  0  0  0  0  0  0
  141.9190  159.6690  135.3510 O   0  0  0  0  0  0  0  0  0  0  0  0
  140.8530  158.9910  133.3830 N   0  0  0  0  0  0  0  0  0  0  0  0
  140.5430  159.2930  131.9940 C   0  0  0  0  0  0  0  0  0  0  0  0
  139.1180  158.8000  131.7650 C   0  0  0  0  0  0  0  0  0  0  0  0
  138.7650  157.9160  132.9590 C   0  0  0  0  0  0  0  0  0  0  0  0
  139.7850  158.2580  134.0460 C   0  0  1  0  0  0  0  0  0  0  0  0
  140.2900  157.0300  134.7830 C   0  0  0  0  0  0  0  0  0  0  0  0
  140.4410  155.9730  134.1110 O   0  0  0  0  0  0  0  0  0  0  0  0
  140.6490  157.0300  136.1850 N   0  0  0  0  0  0  0  0  0  0  0  0
  140.2170  158.0860  137.1080 C   0  0  0  0  0  0  0  0  0  0  0  0
  141.4290  155.8980  136.7030 C   0  0  0  0  0  0  0  0  0  0  0  0
  144.1830  157.8900  133.9860 C   0  0  0  0  0  0  0  0  0  0  0  0
  145.3180  157.0960  134.1720 C   0  0  0  0  0  0  0  0  0  0  0  0
  142.8589  154.0850  131.9108 H   0  0  0  0  0  0  0  0  0  0  0  0
  144.6810  154.4284  132.3492 H   0  0  0  0  0  0  0  0  0  0  0  0
  142.2122  154.5444  134.1870 H   0  0  0  0  0  0  0  0  0  0  0  0
  146.0250  153.9370  136.8050 H   0  0  0  0  0  0  0  0  0  0  0  0
  148.5621  156.5848  134.0079 H   0  0  0  0  0  0  0  0  0  0  0  0
  147.7993  159.2261  133.1947 H   0  0  0  0  0  0  0  0  0  0  0  0
  145.7991  160.7251  132.8897 H   0  0  0  0  0  0  0  0  0  0  0  0
  143.4094  161.1073  133.7534 H   0  0  0  0  0  0  0  0  0  0  0  0
  142.9138  160.1719  132.2853 H   0  0  0  0  0  0  0  0  0  0  0  0
  140.6060  160.3765  131.8151 H   0  0  0  0  0  0  0  0  0  0  0  0
  141.2526  158.8075  131.3079 H   0  0  0  0  0  0  0  0  0  0  0  0
  138.4260  159.6531  131.7066 H   0  0  0  0  0  0  0  0  0  0  0  0
  139.0384  158.2415  130.8207 H   0  0  0  0  0  0  0  0  0  0  0  0
  137.7450  158.1337  133.3086 H   0  0  0  0  0  0  0  0  0  0  0  0
  138.7961  156.8484  132.6958 H   0  0  0  0  0  0  0  0  0  0  0  0
  139.3225  158.8699  134.8345 H   0  0  0  0  0  0  0  0  0  0  0  0
  140.3560  157.7461  138.1449 H   0  0  0  0  0  0  0  0  0  0  0  0
  140.8168  158.9918  136.9355 H   0  0  0  0  0  0  0  0  0  0  0  0
  139.1543  158.3116  136.9355 H   0  0  0  0  0  0  0  0  0  0  0  0
  141.4162  155.9166  137.8028 H   0  0  0  0  0  0  0  0  0  0  0  0
  140.9879  154.9553  136.3471 H   0  0  0  0  0  0  0  0  0  0  0  0
  142.4670  155.9745  136.3471 H   0  0  0  0  0  0  0  0  0  0  0  0
  143.1785  157.4967  134.2010 H   0  0  0  0  0  0  0  0  0  0  0  0
  1  2  2  0
  2  3  1  0
  3  4  2  0
  3  5  1  0
  5  6  1  0
  6  7  1  0
  7  8  1  0
  7  9  2  0
  6 10  2  0
 10 11  1  0
 11 12  2  0
 12 13  1  0
 13 14  2  0
 14 15  1  0
 15 16  1  0
 16 17  2  0
 16 18  1  0
 18 19  1  0
 19 20  1  0
 20 21  1  0
 21 22  1  0
 22 23  1  0
 23 24  2  0
 23 25  1  0
 25 26  1  0
 25 27  1  0
 14 28  1  0
 28 29  2  0
 29  5  1  0
 29 11  1  0
 22 18  1  0
  1 30  1  0
  1 31  1  0
  2 32  1  0
  8 33  1  0
 10 34  1  0
 12 35  1  0
 13 36  1  0
 15 37  1  0
 15 38  1  0
 19 39  1  0
 19 40  1  0
 20 41  1  0
 20 42  1  0
 21 43  1  0
 21 44  1  0
 22 45  1  1
 26 46  1  0
 26 47  1  0
 26 48  1  0
 27 49  1  0
 27 50  1  0
 27 51  1  0
 28 52  1  0
M  CHG  1   8  -1
M  END
>  <UniqueID>  (13) 
13

>  <SMILES>  (13) 
C=CC(=O)n1c(C([NH-])=O)cc2ccc(CC(=O)N3CCC[C@H]3C(=O)N(C)C)cc21

>  <Energy>  (13) 
89.40364315403419

>  <Genealogy>  (13) 
C=CC(=O)n1c(C([NH-])=O)cc2ccc(CC(=O)N3CCC[C@H]3C(=O)N(C)C)cc21 (protonated)
C=CC(=O)n1c(C([NH-])=O)cc2ccc(CC(=O)N3CCC[C@H]3C(=O)N(C)C)cc21 (3D coordinates assigned)
C=CC(=O)n1c(C([NH-])=O)cc2ccc(CC(=O)N3CCC[C@H]3C(=O)N(C)C)cc21 (nonaromatic ring conformer: 89.40364315403419 kcal/mol)

>  <smiles>  (13) 
C=CC(=O)n1c(C(N)=O)cc2ccc(CC(=O)N3CCC[C@H]3C(=O)N(C)C)cc21

>  <score_type>  (13) 
oracle

>  <origin>  (13) 
adg

>  <m_score__min__energy>  (13) 
-8.3800000000000008

>  <m_primary>  (13) 
energy

$$$$
13:0
     RDKit          3D

 42 43  0  0  0  0  0  0  0  0999 V2000
  139.3270  158.1610  134.2840 C   0  0  0  0  0  0  0  0  0  0  0  0
  139.7500  158.2040  135.6420 O   0  0  0  0  0  0  0  0  0  0  0  0
  140.8120  159.0050  136.0770 C   0  0  0  0  0  0  0  0  0  0  0  0
  140.5940  160.0130  136.8020 O   0  0  0  0  0  0  0  0  0  0  0  0
  142.2200  158.7000  135.6440 C   0  0  1  0  0  0  0  0  0  0  0  0
  142.3740  157.2720  135.1100 C   0  0  0  0  0  0  0  0  0  0  0  0
  142.6800  159.6770  134.6570 N   0  0  0  0  0  0  0  0  0  0  0  0
  143.6500  159.4330  133.6300 C   0  0  0  0  0  0  0  0  0  0  0  0
  143.4030  158.6370  132.6840 O   0  0  0  0  0  0  0  0  0  0  0  0
  144.9900  160.0900  133.7130 C   0  0  0  0  0  0  0  0  0  0  0  0
  146.0660  159.0950  133.3780 C   0  0  0  0  0  0  0  0  0  0  0  0
  147.2900  159.5340  132.8140 C   0  0  0  0  0  0  0  0  0  0  0  0
  148.3120  158.6140  132.5190 C   0  0  0  0  0  0  0  0  0  0  0  0
  148.0900  157.2740  132.8220 C   0  0  0  0  0  0  0  0  0  0  0  0
  148.8870  156.1730  132.6040 C   0  0  0  0  0  0  0  0  0  0  0  0
  148.1560  155.0880  133.0810 C   0  0  0  0  0  0  0  0  0  0  0  0
  148.6450  153.6940  133.0490 C   0  0  0  0  0  0  0  0  0  0  0  0
  147.8400  152.6120  133.5220 N   0  0  0  0  0  0  0  0  0  0  0  0
  149.8110  153.4580  132.6370 O   0  0  0  0  0  0  0  0  0  0  0  0
  146.9550  155.5000  133.5750 N   0  0  0  0  0  0  0  0  0  0  0  0
  145.8720  154.6730  134.0310 C   0  0  0  0  0  0  0  0  0  0  0  0
  145.0440  154.2160  133.1980 O   0  0  0  0  0  0  0  0  0  0  0  0
  145.7330  154.3220  135.4510 C   0  0  0  0  0  0  0  0  0  0  0  0
  146.6040  153.6110  136.0210 O   0  0  0  0  0  0  0  0  0  0  0  0
  144.6260  154.7530  136.1700 O   0  0  0  0  0  0  0  0  0  0  0  0
  146.9260  156.8400  133.4010 C   0  0  0  0  0  0  0  0  0  0  0  0
  145.8800  157.7270  133.6760 C   0  0  0  0  0  0  0  0  0  0  0  0
  138.2334  158.0498  134.2440 H   0  0  0  0  0  0  0  0  0  0  0  0
  139.6195  159.0935  133.7791 H   0  0  0  0  0  0  0  0  0  0  0  0
  139.8012  157.3064  133.7791 H   0  0  0  0  0  0  0  0  0  0  0  0
  142.8545  158.7747  136.5394 H   0  0  0  0  0  0  0  0  0  0  0  0
  142.4496  156.5710  135.9543 H   0  0  0  0  0  0  0  0  0  0  0  0
  141.4985  157.0137  134.4962 H   0  0  0  0  0  0  0  0  0  0  0  0
  143.2844  157.2063  134.4962 H   0  0  0  0  0  0  0  0  0  0  0  0
  145.0314  160.9267  133.0001 H   0  0  0  0  0  0  0  0  0  0  0  0
  145.1479  160.4658  134.7347 H   0  0  0  0  0  0  0  0  0  0  0  0
  147.4418  160.6033  132.6053 H   0  0  0  0  0  0  0  0  0  0  0  0
  149.2573  158.9433  132.0630 H   0  0  0  0  0  0  0  0  0  0  0  0
  149.8886  156.1543  132.1495 H   0  0  0  0  0  0  0  0  0  0  0  0
  148.1830  151.6300  133.4350 H   0  0  0  0  0  0  0  0  0  0  0  0
  146.9550  152.7840  134.0480 H   0  0  0  0  0  0  0  0  0  0  0  0
  144.9365  157.3682  134.1132 H   0  0  0  0  0  0  0  0  0  0  0  0
  1  2  1  0
  2  3  1  0
  3  4  2  0
  3  5  1  0
  5  6  1  0
  5  7  1  0
  7  8  1  0
  8  9  2  0
  8 10  1  0
 10 11  1  0
 11 12  2  0
 12 13  1  0
 13 14  2  0
 14 15  1  0
 15 16  2  0
 16 17  1  0
 17 18  1  0
 17 19  2  0
 16 20  1  0
 20 21  1  0
 21 22  2  0
 21 23  1  0
 23 24  2  0
 23 25  1  0
 20 26  1  0
 26 27  2  0
 27 11  1  0
 26 14  1  0
  1 28  1  0
  1 29  1  0
  1 30  1  0
  5 31  1  1
  6 32  1  0
  6 33  1  0
  6 34  1  0
 10 35  1  0
 10 36  1  0
 12 37  1  0
 13 38  1  0
 15 39  1  0
 18 40  1  0
 18 41  1  0
 27 42  1  0
M  CHG  2   7  -1  25  -1
M  END
>  <UniqueID>  (14) 
14

>  <SMILES>  (14) 
COC(=O)[C@@H](C)[N-]C(=O)Cc1ccc2cc(C(N)=O)n(C(=O)C(=O)[O-])c2c1

>  <Energy>  (14) 
74.35307183353565

>  <Genealogy>  (14) 
COC(=O)C(C)[N-]C(=O)Cc1ccc2cc(C(N)=O)n(C(=O)C(=O)[O-])c2c1 (protonated)
COC(=O)[C@@H](C)[N-]C(=O)Cc1ccc2cc(C(N)=O)n(C(=O)C(=O)[O-])c2c1 (chirality)
COC(=O)[C@@H](C)[N-]C(=O)Cc1ccc2cc(C(N)=O)n(C(=O)C(=O)[O-])c2c1 (3D coordinates assigned)
COC(=O)[C@@H](C)[N-]C(=O)Cc1ccc2cc(C(N)=O)n(C(=O)C(=O)[O-])c2c1 (optimized conformer: 74.35307183353565 kcal/mol)

>  <smiles>  (14) 
COC(=O)C(C)NC(=O)Cc1ccc2cc(C(N)=O)n(C(=O)C(=O)O)c2c1

>  <score_type>  (14) 
oracle

>  <origin>  (14) 
adg

>  <m_score__min__energy>  (14) 
-7.1699999999999999

>  <m_primary>  (14) 
energy

$$$$
14:0
     RDKit          3D

 38 39  0  0  0  0  0  0  0  0999 V2000
  149.7850  152.4980  132.5790 C   0  0  0  0  0  0  0  0  0  0  0  0
  148.5340  153.2620  132.6020 N   0  0  0  0  0  0  0  0  0  0  0  0
  147.2450  152.5600  132.6100 C   0  0  0  0  0  0  0  0  0  0  0  0
  148.5910  154.7060  132.5870 C   0  0  0  0  0  0  0  0  0  0  0  0
  149.7070  155.2800  132.4470 O   0  0  0  0  0  0  0  0  0  0  0  0
  147.3340  155.5390  132.6690 C   0  0  0  0  0  0  0  0  0  0  0  0
  147.4970  156.7210  133.5830 C   0  0  0  0  0  0  0  0  0  0  0  0
  148.2720  156.6370  134.5730 O   0  0  0  0  0  0  0  0  0  0  0  0
  146.8440  157.9660  133.2920 N   0  0  0  0  0  0  0  0  0  0  0  0
  147.3930  159.0970  132.7670 C   0  0  0  0  0  0  0  0  0  0  0  0
  148.7750  159.2150  132.2530 C   0  0  0  0  0  0  0  0  0  0  0  0
  149.7630  158.2340  132.5740 N   0  0  0  0  0  0  0  0  0  0  0  0
  149.1010  160.2010  131.5410 O   0  0  0  0  0  0  0  0  0  0  0  0
  146.4370  160.1110  132.6950 C   0  0  0  0  0  0  0  0  0  0  0  0
  145.2790  159.5560  133.1950 C   0  0  0  0  0  0  0  0  0  0  0  0
  144.0140  160.1120  133.3530 C   0  0  0  0  0  0  0  0  0  0  0  0
  143.0040  159.3070  133.9070 C   0  0  0  0  0  0  0  0  0  0  0  0
  143.2790  157.9730  134.3110 C   0  0  0  0  0  0  0  0  0  0  0  0
  142.1780  157.1070  134.8690 C   0  0  0  0  0  0  0  0  0  0  0  0
  141.4140  156.6160  133.8260 F   0  0  0  0  0  0  0  0  0  0  0  0
  142.7050  156.0450  135.5820 F   0  0  0  0  0  0  0  0  0  0  0  0
  141.3650  157.8380  135.7180 F   0  0  0  0  0  0  0  0  0  0  0  0
  144.5710  157.4370  134.1070 C   0  0  0  0  0  0  0  0  0  0  0  0
  145.5520  158.2610  133.5440 C   0  0  0  0  0  0  0  0  0  0  0  0
  150.1118  152.2984  133.6102 H   0  0  0  0  0  0  0  0  0  0  0  0
  149.6228  151.5447  132.0548 H   0  0  0  0  0  0  0  0  0  0  0  0
  150.5591  153.0777  132.0548 H   0  0  0  0  0  0  0  0  0  0  0  0
  146.9280  152.3873  133.6491 H   0  0  0  0  0  0  0  0  0  0  0  0
  146.4909  153.1720  132.0935 H   0  0  0  0  0  0  0  0  0  0  0  0
  147.3501  151.5945  132.0935 H   0  0  0  0  0  0  0  0  0  0  0  0
  147.0827  155.9019  131.6614 H   0  0  0  0  0  0  0  0  0  0  0  0
  146.5332  154.9042  133.0761 H   0  0  0  0  0  0  0  0  0  0  0  0
  149.5210  157.3720  133.1100 H   0  0  0  0  0  0  0  0  0  0  0  0
  150.7430  158.3450  132.2280 H   0  0  0  0  0  0  0  0  0  0  0  0
  146.5778  161.1352  132.3192 H   0  0  0  0  0  0  0  0  0  0  0  0
  143.8102  161.1506  133.0533 H   0  0  0  0  0  0  0  0  0  0  0  0
  141.9895  159.7142  134.0291 H   0  0  0  0  0  0  0  0  0  0  0  0
  144.7997  156.3973  134.3841 H   0  0  0  0  0  0  0  0  0  0  0  0
  1  2  1  0
  2  3  1  0
  2  4  1  0
  4  5  2  0
  4  6  1  0
  6  7  1  0
  7  8  2  0
  7  9  1  0
  9 10  1  0
 10 11  1  0
 11 12  1  0
 11 13  2  0
 10 14  2  0
 14 15  1  0
 15 16  2  0
 16 17  1  0
 17 18  2  0
 18 19  1  0
 19 20  1  0
 19 21  1  0
 19 22  1  0
 18 23  1  0
 23 24  2  0
 24  9  1  0
 24 15  1  0
  1 25  1  0
  1 26  1  0
  1 27  1  0
  3 28  1  0
  3 29  1  0
  3 30  1  0
  6 31  1  0
  6 32  1  0
 12 33  1  0
 12 34  1  0
 14 35  1  0
 16 36  1  0
 17 37  1  0
 23 38  1  0
M  END
>  <UniqueID>  (15) 
15

>  <SMILES>  (15) 
CN(C)C(=O)CC(=O)n1c(C(N)=O)cc2ccc(C(F)(F)F)cc21

>  <Energy>  (15) 
75.17715795003224

>  <Genealogy>  (15) 
CN(C)C(=O)CC(=O)n1c(C(N)=O)cc2ccc(C(F)(F)F)cc21 (3D coordinates assigned)
CN(C)C(=O)CC(=O)n1c(C(N)=O)cc2ccc(C(F)(F)F)cc21 (optimized conformer: 75.17715795003224 kcal/mol)

>  <smiles>  (15) 
CN(C)C(=O)CC(=O)n1c(C(N)=O)cc2ccc(C(F)(F)F)cc21

>  <score_type>  (15) 
oracle

>  <origin>  (15) 
adg

>  <m_score__min__energy>  (15) 
-6.7800000000000002

>  <m_primary>  (15) 
energy

$$$$
15:0
     RDKit          3D

 34 35  0  0  0  0  0  0  0  0999 V2000
  139.5680  159.1790  131.7310 C   0  0  0  0  0  0  0  0  0  0  0  0
  139.0970  157.9590  132.2900 O   0  0  0  0  0  0  0  0  0  0  0  0
  139.6390  157.4030  133.4520 C   0  0  0  0  0  0  0  0  0  0  0  0
  139.1100  157.6190  134.5770 O   0  0  0  0  0  0  0  0  0  0  0  0
  140.8840  156.5900  133.3610 C   0  0  0  0  0  0  0  0  0  0  0  0
  141.9680  157.4370  133.0010 O   0  0  0  0  0  0  0  0  0  0  0  0
  143.1150  157.5760  133.7870 C   0  0  0  0  0  0  0  0  0  0  0  0
  143.4470  156.6640  134.5930 O   0  0  0  0  0  0  0  0  0  0  0  0
  143.9060  158.7700  133.6870 N   0  0  0  0  0  0  0  0  0  0  0  0
  143.5010  160.0550  133.8950 C   0  0  0  0  0  0  0  0  0  0  0  0
  142.1090  160.5060  134.0980 C   0  0  0  0  0  0  0  0  0  0  0  0
  141.1660  159.6870  134.7840 N   0  0  0  0  0  0  0  0  0  0  0  0
  141.7330  161.6070  133.6150 O   0  0  0  0  0  0  0  0  0  0  0  0
  144.5830  160.9300  133.8130 C   0  0  0  0  0  0  0  0  0  0  0  0
  145.6730  160.1360  133.5360 C   0  0  0  0  0  0  0  0  0  0  0  0
  147.0090  160.4810  133.3560 C   0  0  0  0  0  0  0  0  0  0  0  0
  147.9290  159.4490  133.1080 C   0  0  0  0  0  0  0  0  0  0  0  0
  147.5030  158.0990  133.0660 C   0  0  0  0  0  0  0  0  0  0  0  0
  148.4900  157.0080  132.7750 C   0  0  0  0  0  0  0  0  0  0  0  0
  146.1370  157.7860  133.2400 C   0  0  0  0  0  0  0  0  0  0  0  0
  145.2390  158.8360  133.4660 C   0  0  0  0  0  0  0  0  0  0  0  0
  139.8362  159.8738  132.5405 H   0  0  0  0  0  0  0  0  0  0  0  0
  140.4539  158.9799  131.1101 H   0  0  0  0  0  0  0  0  0  0  0  0
  138.7781  159.6269  131.1101 H   0  0  0  0  0  0  0  0  0  0  0  0
  141.0901  156.1218  134.3348 H   0  0  0  0  0  0  0  0  0  0  0  0
  140.7590  155.8050  132.6007 H   0  0  0  0  0  0  0  0  0  0  0  0
  140.9980  158.6980  134.4910 H   0  0  0  0  0  0  0  0  0  0  0  0
  144.5689  162.0223  133.9421 H   0  0  0  0  0  0  0  0  0  0  0  0
  147.3349  161.5304  133.4064 H   0  0  0  0  0  0  0  0  0  0  0  0
  148.9895  159.6915  132.9450 H   0  0  0  0  0  0  0  0  0  0  0  0
  148.8663  156.5920  133.7212 H   0  0  0  0  0  0  0  0  0  0  0  0
  147.9978  156.2133  132.1952 H   0  0  0  0  0  0  0  0  0  0  0  0
  149.3299  157.4184  132.1952 H   0  0  0  0  0  0  0  0  0  0  0  0
  145.7875  156.7438  133.1990 H   0  0  0  0  0  0  0  0  0  0  0  0
  1  2  1  0
  2  3  1  0
  3  4  2  0
  3  5  1  0
  5  6  1  0
  6  7  1  0
  7  8  2  0
  7  9  1  0
  9 10  1  0
 10 11  1  0
 11 12  1  0
 11 13  2  0
 10 14  2  0
 14 15  1  0
 15 16  2  0
 16 17  1  0
 17 18  2  0
 18 19  1  0
 18 20  1  0
 20 21  2  0
 21  9  1  0
 21 15  1  0
  1 22  1  0
  1 23  1  0
  1 24  1  0
  5 25  1  0
  5 26  1  0
 12 27  1  0
 14 28  1  0
 16 29  1  0
 17 30  1  0
 19 31  1  0
 19 32  1  0
 19 33  1  0
 20 34  1  0
M  CHG  1  12  -1
M  END
>  <UniqueID>  (16) 
16

>  <SMILES>  (16) 
COC(=O)COC(=O)n1c(C([NH-])=O)cc2ccc(C)cc21

>  <Energy>  (16) 
66.98311713572744

>  <Genealogy>  (16) 
COC(=O)COC(=O)n1c(C([NH-])=O)cc2ccc(C)cc21 (protonated)
COC(=O)COC(=O)n1c(C([NH-])=O)cc2ccc(C)cc21 (3D coordinates assigned)
COC(=O)COC(=O)n1c(C([NH-])=O)cc2ccc(C)cc21 (optimized conformer: 66.98311713572744 kcal/mol)

>  <smiles>  (16) 
COC(=O)COC(=O)n1c(C(N)=O)cc2ccc(C)cc21

>  <score_type>  (16) 
oracle

>  <origin>  (16) 
adg

>  <m_score__min__energy>  (16) 
-5.5599999999999996

>  <m_primary>  (16) 
energy

$$$$
16:0
     RDKit          3D

 43 45  0  0  0  0  0  0  0  0999 V2000
  148.9170  157.5000  131.8340 N   0  0  0  0  0  0  0  0  0  0  0  0
  148.6870  158.6440  132.6600 C   0  0  0  0  0  0  0  0  0  0  0  0
  149.6420  159.4250  132.9210 O   0  0  0  0  0  0  0  0  0  0  0  0
  147.3300  158.9610  133.1460 C   0  0  0  0  0  0  0  0  0  0  0  0
  146.8460  160.2600  133.2470 C   0  0  0  0  0  0  0  0  0  0  0  0
  145.5190  160.1260  133.5830 C   0  0  0  0  0  0  0  0  0  0  0  0
  144.5470  161.1010  133.7790 C   0  0  0  0  0  0  0  0  0  0  0  0
  143.2430  160.6830  134.0860 C   0  0  0  0  0  0  0  0  0  0  0  0
  142.9300  159.3030  134.1990 C   0  0  0  0  0  0  0  0  0  0  0  0
  141.5720  158.8770  134.4530 N   0  0  0  0  0  0  0  0  0  0  0  0
  140.8980  159.2180  135.7140 C   0  0  0  0  0  0  0  0  0  0  0  0
  139.8320  158.1610  136.0480 C   0  0  0  0  0  0  0  0  0  0  0  0
  138.8900  157.8820  134.9390 N   0  0  0  0  0  0  0  0  0  0  0  0
  139.3030  158.4100  133.6270 C   0  0  0  0  0  0  0  0  0  0  0  0
  140.8030  158.2150  133.3920 C   0  0  0  0  0  0  0  0  0  0  0  0
  143.9530  158.3430  134.0150 C   0  0  0  0  0  0  0  0  0  0  0  0
  145.2440  158.7850  133.6890 C   0  0  0  0  0  0  0  0  0  0  0  0
  146.3560  158.0510  133.4370 N   0  0  0  0  0  0  0  0  0  0  0  0
  146.5190  156.6240  133.5710 C   0  0  0  0  0  0  0  0  0  0  0  0
  146.5450  155.8880  132.5490 O   0  0  0  0  0  0  0  0  0  0  0  0
  146.6190  156.0520  134.8480 O   0  0  0  0  0  0  0  0  0  0  0  0
  145.9340  154.8660  135.2480 C   0  0  0  0  0  0  0  0  0  0  0  0
  144.4900  154.8580  134.7530 C   0  0  0  0  0  0  0  0  0  0  0  0
  143.7130  155.7160  135.5170 F   0  0  0  0  0  0  0  0  0  0  0  0
  148.1200  156.9230  131.4880 H   0  0  0  0  0  0  0  0  0  0  0  0
  149.8890  157.2500  131.5390 H   0  0  0  0  0  0  0  0  0  0  0  0
  147.4045  161.1948  133.0915 H   0  0  0  0  0  0  0  0  0  0  0  0
  144.7933  162.1698  133.6958 H   0  0  0  0  0  0  0  0  0  0  0  0
  142.4540  161.4337  134.2409 H   0  0  0  0  0  0  0  0  0  0  0  0
  141.6405  159.2543  136.5248 H   0  0  0  0  0  0  0  0  0  0  0  0
  140.4108  160.1985  135.6074 H   0  0  0  0  0  0  0  0  0  0  0  0
  140.3448  157.2238  136.3100 H   0  0  0  0  0  0  0  0  0  0  0  0
  139.2342  158.5641  136.8788 H   0  0  0  0  0  0  0  0  0  0  0  0
  137.9500  158.2900  135.1760 H   0  0  0  0  0  0  0  0  0  0  0  0
  138.7460  157.8834  132.8381 H   0  0  0  0  0  0  0  0  0  0  0  0
  139.0870  159.4884  133.6049 H   0  0  0  0  0  0  0  0  0  0  0  0
  141.0342  157.1396  133.3925 H   0  0  0  0  0  0  0  0  0  0  0  0
  141.0751  158.6568  132.4221 H   0  0  0  0  0  0  0  0  0  0  0  0
  143.7400  157.2695  134.1256 H   0  0  0  0  0  0  0  0  0  0  0  0
  146.4588  153.9931  134.8325 H   0  0  0  0  0  0  0  0  0  0  0  0
  145.9214  154.8297  136.3473 H   0  0  0  0  0  0  0  0  0  0  0  0
  144.4649  155.1843  133.7028 H   0  0  0  0  0  0  0  0  0  0  0  0
  144.0879  153.8380  134.8412 H   0  0  0  0  0  0  0  0  0  0  0  0
  1  2  1  0
  2  3  2  0
  2  4  1  0
  4  5  2  0
  5  6  1  0
  6  7  2  0
  7  8  1  0
  8  9  2  0
  9 10  1  0
 10 11  1  0
 11 12  1  0
 12 13  1  0
 13 14  1  0
 14 15  1  0
  9 16  1  0
 16 17  2  0
 17 18  1  0
 18 19  1  0
 19 20  2  0
 19 21  1  0
 21 22  1  0
 22 23  1  0
 23 24  1  0
 18  4  1  0
 17  6  1  0
 15 10  1  0
  1 25  1  0
  1 26  1  0
  5 27  1  0
  7 28  1  0
  8 29  1  0
 11 30  1  0
 11 31  1  0
 12 32  1  0
 12 33  1  0
 13 34  1  0
 14 35  1  0
 14 36  1  0
 15 37  1  0
 15 38  1  0
 16 39  1  0
 22 40  1  0
 22 41  1  0
 23 42  1  0
 23 43  1  0
M  END
>  <UniqueID>  (17) 
17

>  <SMILES>  (17) 
NC(=O)c1cc2ccc(N3CCNCC3)cc2n1C(=O)OCCF

>  <Energy>  (17) 
88.19129424753812

>  <Genealogy>  (17) 
NC(=O)c1cc2ccc(N3CCNCC3)cc2n1C(=O)OCCF (3D coordinates assigned)
NC(=O)c1cc2ccc(N3CCNCC3)cc2n1C(=O)OCCF (nonaromatic ring conformer: 88.19129424753812 kcal/mol)

>  <smiles>  (17) 
NC(=O)c1cc2ccc(N3CCNCC3)cc2n1C(=O)OCCF

>  <score_type>  (17) 
oracle

>  <origin>  (17) 
adg

>  <m_score__min__energy>  (17) 
-7.1699999999999999

>  <m_primary>  (17) 
energy

$$$$
17:0
     RDKit          3D

 54 56  0  0  0  0  0  0  0  0999 V2000
  138.3120  149.0770  129.0060 C   0  0  0  0  0  0  0  0  0  0  0  0
  138.5610  148.1470  130.0530 O   0  0  0  0  0  0  0  0  0  0  0  0
  139.7690  148.1070  130.7580 C   0  0  0  0  0  0  0  0  0  0  0  0
  140.6060  147.1920  130.5220 O   0  0  0  0  0  0  0  0  0  0  0  0
  140.0590  149.1070  131.7540 N   0  0  0  0  0  0  0  0  0  0  0  0
  141.2580  148.9570  132.5950 C   0  0  0  0  0  0  0  0  0  0  0  0
  141.3150  150.0290  133.6850 C   0  0  0  0  0  0  0  0  0  0  0  0
  141.0380  151.3430  133.0960 N   0  0  0  0  0  0  0  0  0  0  0  0
  141.9570  152.4360  133.2760 C   0  0  0  0  0  0  0  0  0  0  0  0
  141.4880  153.6960  133.7270 C   0  0  0  0  0  0  0  0  0  0  0  0
  142.3720  154.7770  133.8830 C   0  0  0  0  0  0  0  0  0  0  0  0
  143.7160  154.5700  133.5840 C   0  0  0  0  0  0  0  0  0  0  0  0
  144.7750  155.4430  133.6370 C   0  0  0  0  0  0  0  0  0  0  0  0
  145.8760  154.7080  133.2130 C   0  0  0  0  0  0  0  0  0  0  0  0
  147.2350  155.2630  133.1500 C   0  0  0  0  0  0  0  0  0  0  0  0
  148.2020  154.7090  132.2590 N   0  0  0  0  0  0  0  0  0  0  0  0
  147.5280  156.2760  133.8380 O   0  0  0  0  0  0  0  0  0  0  0  0
  145.5260  153.4220  132.9280 N   0  0  0  0  0  0  0  0  0  0  0  0
  146.4090  152.3270  132.6170 C   0  0  0  0  0  0  0  0  0  0  0  0
  145.9780  151.3470  131.9520 O   0  0  0  0  0  0  0  0  0  0  0  0
  147.7360  152.3430  133.0760 O   0  0  0  0  0  0  0  0  0  0  0  0
  148.7480  151.3620  132.7930 C   0  0  0  0  0  0  0  0  0  0  0  0
  149.6970  151.2250  134.0010 C   0  0  0  0  0  0  0  0  0  0  0  0
  148.1130  150.0040  132.4420 C   0  0  0  0  0  0  0  0  0  0  0  0
  149.5180  151.8410  131.5830 C   0  0  0  0  0  0  0  0  0  0  0  0
  149.7020  151.0840  130.5900 O   0  0  0  0  0  0  0  0  0  0  0  0
  149.9490  153.1600  131.5130 O   0  0  0  0  0  0  0  0  0  0  0  0
  144.1920  153.3560  133.1560 C   0  0  0  0  0  0  0  0  0  0  0  0
  143.3290  152.2670  132.9780 C   0  0  0  0  0  0  0  0  0  0  0  0
  139.8570  151.5230  132.2360 C   0  0  0  0  0  0  0  0  0  0  0  0
  139.1090  150.2000  132.0110 C   0  0  0  0  0  0  0  0  0  0  0  0
  138.0504  150.0542  129.4381 H   0  0  0  0  0  0  0  0  0  0  0  0
  139.2141  149.1803  128.3851 H   0  0  0  0  0  0  0  0  0  0  0  0
  137.4789  148.7157  128.3851 H   0  0  0  0  0  0  0  0  0  0  0  0
  141.2399  147.9649  133.0698 H   0  0  0  0  0  0  0  0  0  0  0  0
  142.1454  149.0680  131.9545 H   0  0  0  0  0  0  0  0  0  0  0  0
  140.5628  149.8074  134.4564 H   0  0  0  0  0  0  0  0  0  0  0  0
  142.3167  150.0357  134.1395 H   0  0  0  0  0  0  0  0  0  0  0  0
  140.4206  153.8285  133.9572 H   0  0  0  0  0  0  0  0  0  0  0  0
  142.0131  155.7569  134.2307 H   0  0  0  0  0  0  0  0  0  0  0  0
  144.7559  156.4979  133.9483 H   0  0  0  0  0  0  0  0  0  0  0  0
  149.1700  155.0990  132.2220 H   0  0  0  0  0  0  0  0  0  0  0  0
  147.9410  153.9370  131.6060 H   0  0  0  0  0  0  0  0  0  0  0  0
  149.1186  151.3085  134.9330 H   0  0  0  0  0  0  0  0  0  0  0  0
  150.1963  150.2455  133.9658 H   0  0  0  0  0  0  0  0  0  0  0  0
  150.4529  152.0233  133.9658 H   0  0  0  0  0  0  0  0  0  0  0  0
  147.8616  149.4664  133.3682 H   0  0  0  0  0  0  0  0  0  0  0  0
  147.1983  150.1681  131.8535 H   0  0  0  0  0  0  0  0  0  0  0  0
  148.8255  149.4072  131.8535 H   0  0  0  0  0  0  0  0  0  0  0  0
  143.7103  151.3014  132.6143 H   0  0  0  0  0  0  0  0  0  0  0  0
  139.1745  152.2412  132.7139 H   0  0  0  0  0  0  0  0  0  0  0  0
  140.1989  151.8934  131.2583 H   0  0  0  0  0  0  0  0  0  0  0  0
  138.5175  149.9619  132.9073 H   0  0  0  0  0  0  0  0  0  0  0  0
  138.4486  150.3093  131.1381 H   0  0  0  0  0  0  0  0  0  0  0  0
  1  2  1  0
  2  3  1  0
  3  4  2  0
  3  5  1  0
  5  6  1  0
  6  7  1  0
  7  8  1  0
  8  9  1  0
  9 10  2  0
 10 11  1  0
 11 12  2  0
 12 13  1  0
 13 14  2  0
 14 15  1  0
 15 16  1  0
 15 17  2  0
 14 18  1  0
 18 19  1  0
 19 20  2  0
 19 21  1  0
 21 22  1  0
 22 23  1  0
 22 24  1  0
 22 25  1  0
 25 26  2  0
 25 27  1  0
 18 28  1  0
 28 29  2  0
  8 30  1  0
 30 31  1  0
 31  5  1  0
 29  9  1  0
 28 12  1  0
  1 32  1  0
  1 33  1  0
  1 34  1  0
  6 35  1  0
  6 36  1  0
  7 37  1  0
  7 38  1  0
 10 39  1  0
 11 40  1  0
 13 41  1  0
 16 42  1  0
 16 43  1  0
 23 44  1  0
 23 45  1  0
 23 46  1  0
 24 47  1  0
 24 48  1  0
 24 49  1  0
 29 50  1  0
 30 51  1  0
 30 52  1  0
 31 53  1  0
 31 54  1  0
M  CHG  1  27  -1
M  END
>  <UniqueID>  (18) 
18

>  <SMILES>  (18) 
COC(=O)N1CCN(c2ccc3cc(C(N)=O)n(C(=O)OC(C)(C)C(=O)[O-])c3c2)CC1

>  <Energy>  (18) 
96.962226909516

>  <Genealogy>  (18) 
COC(=O)N1CCN(c2ccc3cc(C(N)=O)n(C(=O)OC(C)(C)C(=O)[O-])c3c2)CC1 (protonated)
COC(=O)N1CCN(c2ccc3cc(C(N)=O)n(C(=O)OC(C)(C)C(=O)[O-])c3c2)CC1 (3D coordinates assigned)
COC(=O)N1CCN(c2ccc3cc(C(N)=O)n(C(=O)OC(C)(C)C(=O)[O-])c3c2)CC1 (nonaromatic ring conformer: 96.962226909516 kcal/mol)

>  <smiles>  (18) 
COC(=O)N1CCN(c2ccc3cc(C(N)=O)n(C(=O)OC(C)(C)C(=O)O)c3c2)CC1

>  <score_type>  (18) 
oracle

>  <origin>  (18) 
adg

>  <m_score__min__energy>  (18) 
-8.2200000000000006

>  <m_primary>  (18) 
energy

$$$$
18:0
     RDKit          3D

 34 35  0  0  0  0  0  0  0  0999 V2000
  145.1260  162.7680  134.4730 C   0  0  0  0  0  0  0  0  0  0  0  0
  144.8730  161.3440  134.0780 C   0  0  0  0  0  0  0  0  0  0  0  0
  143.5470  160.8870  133.8800 C   0  0  0  0  0  0  0  0  0  0  0  0
  143.2940  159.5420  133.5570 C   0  0  0  0  0  0  0  0  0  0  0  0
  144.3840  158.6830  133.4420 C   0  0  0  0  0  0  0  0  0  0  0  0
  144.4230  157.3330  133.1780 C   0  0  0  0  0  0  0  0  0  0  0  0
  145.7750  156.9870  133.2150 C   0  0  0  0  0  0  0  0  0  0  0  0
  146.3030  155.6310  132.9400 C   0  0  0  0  0  0  0  0  0  0  0  0
  147.3480  155.4290  131.9860 N   0  0  0  0  0  0  0  0  0  0  0  0
  145.8400  154.6370  133.5590 O   0  0  0  0  0  0  0  0  0  0  0  0
  146.5370  158.0860  133.4830 N   0  0  0  0  0  0  0  0  0  0  0  0
  147.9600  158.1350  133.6660 C   0  0  0  0  0  0  0  0  0  0  0  0
  148.4500  157.9050  134.8040 O   0  0  0  0  0  0  0  0  0  0  0  0
  148.8560  158.4340  132.5380 C   0  0  0  0  0  0  0  0  0  0  0  0
  149.3750  157.4930  131.8780 O   0  0  0  0  0  0  0  0  0  0  0  0
  149.1500  159.7930  132.2050 N   0  0  0  0  0  0  0  0  0  0  0  0
  149.9830  160.1630  131.0680 C   0  0  0  0  0  0  0  0  0  0  0  0
  149.1590  160.9370  130.0460 C   0  0  0  0  0  0  0  0  0  0  0  0
  147.8480  160.4990  130.0830 F   0  0  0  0  0  0  0  0  0  0  0  0
  149.6670  160.7330  128.7760 F   0  0  0  0  0  0  0  0  0  0  0  0
  149.1910  162.2890  130.3390 F   0  0  0  0  0  0  0  0  0  0  0  0
  145.6710  159.1120  133.6280 C   0  0  0  0  0  0  0  0  0  0  0  0
  145.9520  160.4400  133.9700 C   0  0  0  0  0  0  0  0  0  0  0  0
  145.1401  162.8472  135.5701 H   0  0  0  0  0  0  0  0  0  0  0  0
  146.0961  163.0937  134.0694 H   0  0  0  0  0  0  0  0  0  0  0  0
  144.3275  163.4079  134.0694 H   0  0  0  0  0  0  0  0  0  0  0  0
  142.7074  161.5907  133.9798 H   0  0  0  0  0  0  0  0  0  0  0  0
  142.2673  159.1798  133.4001 H   0  0  0  0  0  0  0  0  0  0  0  0
  143.5698  156.6676  132.9798 H   0  0  0  0  0  0  0  0  0  0  0  0
  147.7330  154.4710  131.8300 H   0  0  0  0  0  0  0  0  0  0  0  0
  147.7150  156.2110  131.4020 H   0  0  0  0  0  0  0  0  0  0  0  0
  150.8154  160.7922  131.4161 H   0  0  0  0  0  0  0  0  0  0  0  0
  150.3761  159.2500  130.5970 H   0  0  0  0  0  0  0  0  0  0  0  0
  146.9857  160.7703  134.1498 H   0  0  0  0  0  0  0  0  0  0  0  0
  1  2  1  0
  2  3  2  0
  3  4  1  0
  4  5  2  0
  5  6  1  0
  6  7  2  0
  7  8  1  0
  8  9  1  0
  8 10  2  0
  7 11  1  0
 11 12  1  0
 12 13  2  0
 12 14  1  0
 14 15  2  0
 14 16  1  0
 16 17  1  0
 17 18  1  0
 18 19  1  0
 18 20  1  0
 18 21  1  0
 11 22  1  0
 22 23  2  0
 23  2  1  0
 22  5  1  0
  1 24  1  0
  1 25  1  0
  1 26  1  0
  3 27  1  0
  4 28  1  0
  6 29  1  0
  9 30  1  0
  9 31  1  0
 17 32  1  0
 17 33  1  0
 23 34  1  0
M  CHG  1  16  -1
M  END
>  <UniqueID>  (19) 
19

>  <SMILES>  (19) 
Cc1ccc2cc(C(N)=O)n(C(=O)C(=O)[N-]CC(F)(F)F)c2c1

>  <Energy>  (19) 
67.33605591388468

>  <Genealogy>  (19) 
Cc1ccc2cc(C(N)=O)n(C(=O)C(=O)[N-]CC(F)(F)F)c2c1 (protonated)
Cc1ccc2cc(C(N)=O)n(C(=O)C(=O)[N-]CC(F)(F)F)c2c1 (3D coordinates assigned)
Cc1ccc2cc(C(N)=O)n(C(=O)C(=O)[N-]CC(F)(F)F)c2c1 (optimized conformer: 67.33605591388468 kcal/mol)

>  <smiles>  (19) 
Cc1ccc2cc(C(N)=O)n(C(=O)C(=O)NCC(F)(F)F)c2c1

>  <score_type>  (19) 
oracle

>  <origin>  (19) 
adg

>  <m_score__min__energy>  (19) 
-6.6299999999999999

>  <m_primary>  (19) 
energy

$$$$
19:0
     RDKit          3D

 49 50  0  0  0  0  0  0  0  0999 V2000
  139.8950  155.5290  133.3330 C   0  0  0  0  0  0  0  0  0  0  0  0
  140.1380  156.8360  132.8290 O   0  0  0  0  0  0  0  0  0  0  0  0
  139.5410  157.9760  133.3750 C   0  0  0  0  0  0  0  0  0  0  0  0
  138.4990  157.8780  134.0800 O   0  0  0  0  0  0  0  0  0  0  0  0
  140.1620  159.3250  133.1430 C   0  0  2  0  0  0  0  0  0  0  0  0
  140.9750  159.2820  131.9270 N   0  0  0  0  0  0  0  0  0  0  0  0
  141.0370  159.7340  134.3440 C   0  0  0  0  0  0  0  0  0  0  0  0
  141.1180  158.6380  135.3760 C   0  0  0  0  0  0  0  0  0  0  0  0
  140.2180  158.6260  136.4700 C   0  0  0  0  0  0  0  0  0  0  0  0
  140.2380  157.5750  137.4010 C   0  0  0  0  0  0  0  0  0  0  0  0
  141.1620  156.5510  137.2100 C   0  0  0  0  0  0  0  0  0  0  0  0
  141.3650  155.3970  137.9300 C   0  0  0  0  0  0  0  0  0  0  0  0
  142.3910  154.7240  137.2700 C   0  0  0  0  0  0  0  0  0  0  0  0
  142.9830  153.4630  137.7590 C   0  0  0  0  0  0  0  0  0  0  0  0
  144.3980  153.3450  137.8860 N   0  0  0  0  0  0  0  0  0  0  0  0
  142.2550  152.4710  138.0300 O   0  0  0  0  0  0  0  0  0  0  0  0
  142.8040  155.4330  136.1800 N   0  0  0  0  0  0  0  0  0  0  0  0
  143.7670  155.0350  135.1900 C   0  0  0  0  0  0  0  0  0  0  0  0
  144.9650  154.8300  135.5230 O   0  0  0  0  0  0  0  0  0  0  0  0
  143.3700  154.8960  133.8560 O   0  0  0  0  0  0  0  0  0  0  0  0
  144.0550  155.5010  132.7620 C   0  0  0  0  0  0  0  0  0  0  0  0
  143.8890  156.9970  132.7800 C   0  0  0  0  0  0  0  0  0  0  0  0
  142.8450  157.4920  132.2730 O   0  0  0  0  0  0  0  0  0  0  0  0
  144.8750  157.8640  133.3790 N   0  0  0  0  0  0  0  0  0  0  0  0
  144.4970  159.2380  133.7250 C   0  0  0  0  0  0  0  0  0  0  0  0
  146.2360  157.3830  133.6380 C   0  0  0  0  0  0  0  0  0  0  0  0
  142.0440  156.5500  136.1600 C   0  0  0  0  0  0  0  0  0  0  0  0
  142.0400  157.5800  135.2140 C   0  0  0  0  0  0  0  0  0  0  0  0
  139.8995  155.5534  134.4327 H   0  0  0  0  0  0  0  0  0  0  0  0
  138.9157  155.1754  132.9781 H   0  0  0  0  0  0  0  0  0  0  0  0
  140.6817  154.8470  132.9781 H   0  0  0  0  0  0  0  0  0  0  0  0
  139.3616  160.0706  133.0273 H   0  0  0  0  0  0  0  0  0  0  0  0
  140.9610  158.3040  131.5550 H   0  0  0  0  0  0  0  0  0  0  0  0
  141.9700  159.4740  132.1890 H   0  0  0  0  0  0  0  0  0  0  0  0
  142.0517  159.9605  133.9846 H   0  0  0  0  0  0  0  0  0  0  0  0
  140.5792  160.6156  134.8164 H   0  0  0  0  0  0  0  0  0  0  0  0
  139.4968  159.4477  136.5913 H   0  0  0  0  0  0  0  0  0  0  0  0
  139.5449  157.5611  138.2551 H   0  0  0  0  0  0  0  0  0  0  0  0
  140.8304  155.0737  138.8354 H   0  0  0  0  0  0  0  0  0  0  0  0
  145.0310  154.1120  137.5650 H   0  0  0  0  0  0  0  0  0  0  0  0
  145.1256  155.2574  132.8293 H   0  0  0  0  0  0  0  0  0  0  0  0
  143.6287  155.1132  131.8250 H   0  0  0  0  0  0  0  0  0  0  0  0
  144.4674  159.3456  134.8193 H   0  0  0  0  0  0  0  0  0  0  0  0
  145.2360  159.9378  133.3076 H   0  0  0  0  0  0  0  0  0  0  0  0
  143.5041  159.4613  133.3076 H   0  0  0  0  0  0  0  0  0  0  0  0
  146.4036  157.3238  134.7235 H   0  0  0  0  0  0  0  0  0  0  0  0
  146.3633  156.3854  133.1924 H   0  0  0  0  0  0  0  0  0  0  0  0
  146.9619  158.0790  133.1924 H   0  0  0  0  0  0  0  0  0  0  0  0
  142.7381  157.5666  134.3640 H   0  0  0  0  0  0  0  0  0  0  0  0
  1  2  1  0
  2  3  1  0
  3  4  2  0
  3  5  1  0
  5  6  1  0
  5  7  1  0
  7  8  1  0
  8  9  2  0
  9 10  1  0
 10 11  2  0
 11 12  1  0
 12 13  2  0
 13 14  1  0
 14 15  1  0
 14 16  2  0
 13 17  1  0
 17 18  1  0
 18 19  2  0
 18 20  1  0
 20 21  1  0
 21 22  1  0
 22 23  2  0
 22 24  1  0
 24 25  1  0
 24 26  1  0
 17 27  1  0
 27 28  2  0
 28  8  1  0
 27 11  1  0
  1 29  1  0
  1 30  1  0
  1 31  1  0
  5 32  1  6
  6 33  1  0
  6 34  1  0
  7 35  1  0
  7 36  1  0
  9 37  1  0
 10 38  1  0
 12 39  1  0
 15 40  1  0
 21 41  1  0
 21 42  1  0
 25 43  1  0
 25 44  1  0
 25 45  1  0
 26 46  1  0
 26 47  1  0
 26 48  1  0
 28 49  1  0
M  CHG  1  15  -1
M  END
>  <UniqueID>  (20) 
20

>  <SMILES>  (20) 
COC(=O)[C@H](N)Cc1ccc2cc(C([NH-])=O)n(C(=O)OCC(=O)N(C)C)c2c1

>  <Energy>  (20) 
74.66495199178493

>  <Genealogy>  (20) 
COC(=O)[C@H](N)Cc1ccc2cc(C([NH-])=O)n(C(=O)OCC(=O)N(C)C)c2c1 (protonated)
COC(=O)[C@H](N)Cc1ccc2cc(C([NH-])=O)n(C(=O)OCC(=O)N(C)C)c2c1 (3D coordinates assigned)
COC(=O)[C@H](N)Cc1ccc2cc(C([NH-])=O)n(C(=O)OCC(=O)N(C)C)c2c1 (optimized conformer: 74.66495199178493 kcal/mol)

>  <smiles>  (20) 
COC(=O)[C@H](N)Cc1ccc2cc(C(N)=O)n(C(=O)OCC(=O)N(C)C)c2c1

>  <score_type>  (20) 
oracle

>  <origin>  (20) 
adg

>  <m_score__min__energy>  (20) 
-7.04

>  <m_primary>  (20) 
energy

$$$$
20:0
     RDKit          3D

 41 43  0  0  0  0  0  0  0  0999 V2000
  149.6090  157.7920  131.8690 N   0  0  0  0  0  0  0  0  0  0  0  0
  149.1040  159.0690  132.2510 C   0  0  0  0  0  0  0  0  0  0  0  0
  149.8540  160.0770  132.1730 O   0  0  0  0  0  0  0  0  0  0  0  0
  147.7260  159.1880  132.7720 C   0  0  0  0  0  0  0  0  0  0  0  0
  147.0870  160.4090  132.9810 C   0  0  0  0  0  0  0  0  0  0  0  0
  145.8090  160.0890  133.3780 C   0  0  0  0  0  0  0  0  0  0  0  0
  144.7480  160.9170  133.7250 C   0  0  0  0  0  0  0  0  0  0  0  0
  143.5430  160.3130  134.1220 C   0  0  0  0  0  0  0  0  0  0  0  0
  143.4220  158.8980  134.1740 C   0  0  0  0  0  0  0  0  0  0  0  0
  142.1230  158.2460  134.6110 C   0  0  2  0  0  0  0  0  0  0  0  0
  140.9930  158.5150  133.6030 C   0  0  0  0  0  0  0  0  0  0  0  0
  139.6870  157.8580  134.0720 C   0  0  0  0  0  0  0  0  0  0  0  0
  139.5550  157.8900  135.6060 C   0  0  0  0  0  0  0  0  0  0  0  0
  140.3090  158.9540  136.1550 O   0  0  0  0  0  0  0  0  0  0  0  0
  141.6980  158.6790  136.0450 C   0  0  0  0  0  0  0  0  0  0  0  0
  144.5270  158.0930  133.8150 C   0  0  0  0  0  0  0  0  0  0  0  0
  145.7080  158.7220  133.4050 C   0  0  0  0  0  0  0  0  0  0  0  0
  146.8770  158.1540  133.0390 N   0  0  0  0  0  0  0  0  0  0  0  0
  147.1620  156.7470  133.0000 C   0  0  0  0  0  0  0  0  0  0  0  0
  147.0730  156.1160  131.9120 O   0  0  0  0  0  0  0  0  0  0  0  0
  147.5610  156.0880  134.1690 O   0  0  0  0  0  0  0  0  0  0  0  0
  147.4850  154.6750  134.3360 C   0  0  0  0  0  0  0  0  0  0  0  0
  146.5990  154.3360  135.4920 C   0  0  0  0  0  0  0  0  0  0  0  0
  145.5100  154.9460  135.6580 O   0  0  0  0  0  0  0  0  0  0  0  0
  146.9910  153.3660  136.4040 O   0  0  0  0  0  0  0  0  0  0  0  0
  148.9780  157.0600  131.4730 H   0  0  0  0  0  0  0  0  0  0  0  0
  147.5138  161.4150  132.8552 H   0  0  0  0  0  0  0  0  0  0  0  0
  144.8485  162.0118  133.6899 H   0  0  0  0  0  0  0  0  0  0  0  0
  142.6835  160.9426  134.3956 H   0  0  0  0  0  0  0  0  0  0  0  0
  142.3094  157.1623  134.6385 H   0  0  0  0  0  0  0  0  0  0  0  0
  140.8399  159.6005  133.5119 H   0  0  0  0  0  0  0  0  0  0  0  0
  141.2759  158.0891  132.6291 H   0  0  0  0  0  0  0  0  0  0  0  0
  138.8369  158.3977  133.6293 H   0  0  0  0  0  0  0  0  0  0  0  0
  139.6959  156.8064  133.7494 H   0  0  0  0  0  0  0  0  0  0  0  0
  138.4964  158.0229  135.8738 H   0  0  0  0  0  0  0  0  0  0  0  0
  139.9375  156.9418  136.0118 H   0  0  0  0  0  0  0  0  0  0  0  0
  142.2572  159.5864  136.3169 H   0  0  0  0  0  0  0  0  0  0  0  0
  141.9209  157.8400  136.7206 H   0  0  0  0  0  0  0  0  0  0  0  0
  144.4601  156.9958  133.8570 H   0  0  0  0  0  0  0  0  0  0  0  0
  147.0759  154.2229  133.4204 H   0  0  0  0  0  0  0  0  0  0  0  0
  148.4940  154.2830  134.5315 H   0  0  0  0  0  0  0  0  0  0  0  0
  1  2  1  0
  2  3  2  0
  2  4  1  0
  4  5  2  0
  5  6  1  0
  6  7  2  0
  7  8  1  0
  8  9  2  0
  9 10  1  0
 10 11  1  0
 11 12  1  0
 12 13  1  0
 13 14  1  0
 14 15  1  0
  9 16  1  0
 16 17  2  0
 17 18  1  0
 18 19  1  0
 19 20  2  0
 19 21  1  0
 21 22  1  0
 22 23  1  0
 23 24  2  0
 23 25  1  0
 18  4  1  0
 17  6  1  0
 15 10  1  0
  1 26  1  0
  5 27  1  0
  7 28  1  0
  8 29  1  0
 10 30  1  1
 11 31  1  0
 11 32  1  0
 12 33  1  0
 12 34  1  0
 13 35  1  0
 13 36  1  0
 15 37  1  0
 15 38  1  0
 16 39  1  0
 22 40  1  0
 22 41  1  0
M  CHG  2   1  -1  25  -1
M  END
>  <UniqueID>  (21) 
21

>  <SMILES>  (21) 
[NH-]C(=O)c1cc2ccc([C@@H]3CCCOC3)cc2n1C(=O)OCC(=O)[O-]

>  <Energy>  (21) 
86.51238193021537

>  <Genealogy>  (21) 
[NH-]C(=O)c1cc2ccc(C3CCCOC3)cc2n1C(=O)OCC(=O)[O-] (protonated)
[NH-]C(=O)c1cc2ccc([C@@H]3CCCOC3)cc2n1C(=O)OCC(=O)[O-] (chirality)
[NH-]C(=O)c1cc2ccc([C@@H]3CCCOC3)cc2n1C(=O)OCC(=O)[O-] (3D coordinates assigned)
[NH-]C(=O)c1cc2ccc([C@@H]3CCCOC3)cc2n1C(=O)OCC(=O)[O-] (nonaromatic ring conformer: 86.51238193021537 kcal/mol)

>  <smiles>  (21) 
NC(=O)c1cc2ccc(C3CCCOC3)cc2n1C(=O)OCC(=O)O

>  <score_type>  (21) 
oracle

>  <origin>  (21) 
adg

>  <m_score__min__energy>  (21) 
-7.7199999999999998

>  <m_primary>  (21) 
energy

$$$$
21:0
     RDKit          3D

 41 42  0  0  0  0  0  0  0  0999 V2000
  136.8630  160.1160  130.7400 C   0  0  0  0  0  0  0  0  0  0  0  0
  138.1160  160.2770  131.3930 O   0  0  0  0  0  0  0  0  0  0  0  0
  139.0870  159.2710  131.4200 C   0  0  0  0  0  0  0  0  0  0  0  0
  140.1400  159.3740  130.7330 O   0  0  0  0  0  0  0  0  0  0  0  0
  138.9010  158.0950  132.3270 C   0  0  0  0  0  0  0  0  0  0  0  0
  140.2460  157.5330  132.8050 C   0  0  0  0  0  0  0  0  0  0  0  0
  140.5150  157.8820  134.2460 C   0  0  0  0  0  0  0  0  0  0  0  0
  140.5900  159.2390  134.6470 C   0  0  0  0  0  0  0  0  0  0  0  0
  140.8900  159.5760  135.9790 C   0  0  0  0  0  0  0  0  0  0  0  0
  141.1300  158.5380  136.8760 C   0  0  0  0  0  0  0  0  0  0  0  0
  141.4370  158.5810  138.2170 C   0  0  0  0  0  0  0  0  0  0  0  0
  141.5780  157.2500  138.6060 C   0  0  0  0  0  0  0  0  0  0  0  0
  141.9990  156.8400  139.9620 C   0  0  0  0  0  0  0  0  0  0  0  0
  141.2450  155.8610  140.6730 N   0  0  0  0  0  0  0  0  0  0  0  0
  142.9990  157.3700  140.5160 O   0  0  0  0  0  0  0  0  0  0  0  0
  141.3600  156.4170  137.5490 N   0  0  0  0  0  0  0  0  0  0  0  0
  141.3630  154.9810  137.5370 C   0  0  0  0  0  0  0  0  0  0  0  0
  142.2450  154.3610  136.8810 O   0  0  0  0  0  0  0  0  0  0  0  0
  140.3980  154.2830  138.2780 O   0  0  0  0  0  0  0  0  0  0  0  0
  140.6250  153.0880  138.9720 C   0  0  0  0  0  0  0  0  0  0  0  0
  140.2110  152.9270  140.1520 O   0  0  0  0  0  0  0  0  0  0  0  0
  141.4040  152.0000  138.3080 C   0  0  0  0  0  0  0  0  0  0  0  0
  140.4750  151.0610  137.6080 C   0  0  0  0  0  0  0  0  0  0  0  0
  140.6130  150.8350  136.3770 O   0  0  0  0  0  0  0  0  0  0  0  0
  139.4840  150.4020  138.3220 O   0  0  0  0  0  0  0  0  0  0  0  0
  141.0890  157.2220  136.4970 C   0  0  0  0  0  0  0  0  0  0  0  0
  140.7660  156.8570  135.1860 C   0  0  0  0  0  0  0  0  0  0  0  0
  136.0676  160.0138  131.4929 H   0  0  0  0  0  0  0  0  0  0  0  0
  136.6616  160.9957  130.1110 H   0  0  0  0  0  0  0  0  0  0  0  0
  136.8906  159.2140  130.1110 H   0  0  0  0  0  0  0  0  0  0  0  0
  138.3136  158.4087  133.2025 H   0  0  0  0  0  0  0  0  0  0  0  0
  138.3783  157.3065  131.7657 H   0  0  0  0  0  0  0  0  0  0  0  0
  140.2326  156.4381  132.6998 H   0  0  0  0  0  0  0  0  0  0  0  0
  141.0419  157.9782  132.1899 H   0  0  0  0  0  0  0  0  0  0  0  0
  140.4120  160.0359  133.9099 H   0  0  0  0  0  0  0  0  0  0  0  0
  140.9337  160.6265  136.3023 H   0  0  0  0  0  0  0  0  0  0  0  0
  141.5476  159.4755  138.8476 H   0  0  0  0  0  0  0  0  0  0  0  0
  141.0130  154.9410  140.2360 H   0  0  0  0  0  0  0  0  0  0  0  0
  142.0956  152.4419  137.5756 H   0  0  0  0  0  0  0  0  0  0  0  0
  141.9719  151.4456  139.0697 H   0  0  0  0  0  0  0  0  0  0  0  0
  140.7088  155.7981  134.8938 H   0  0  0  0  0  0  0  0  0  0  0  0
  1  2  1  0
  2  3  1  0
  3  4  2  0
  3  5  1  0
  5  6  1  0
  6  7  1  0
  7  8  2  0
  8  9  1  0
  9 10  2  0
 10 11  1  0
 11 12  2  0
 12 13  1  0
 13 14  1  0
 13 15  2  0
 12 16  1  0
 16 17  1  0
 17 18  2  0
 17 19  1  0
 19 20  1  0
 20 21  2  0
 20 22  1  0
 22 23  1  0
 23 24  2  0
 23 25  1  0
 16 26  1  0
 26 27  2  0
 27  7  1  0
 26 10  1  0
  1 28  1  0
  1 29  1  0
  1 30  1  0
  5 31  1  0
  5 32  1  0
  6 33  1  0
  6 34  1  0
  8 35  1  0
  9 36  1  0
 11 37  1  0
 14 38  1  0
 22 39  1  0
 22 40  1  0
 27 41  1  0
M  CHG  2  14  -1  25  -1
M  END
>  <UniqueID>  (22) 
22

>  <SMILES>  (22) 
COC(=O)CCc1ccc2cc(C([NH-])=O)n(C(=O)OC(=O)CC(=O)[O-])c2c1

>  <Energy>  (22) 
70.19057494434203

>  <Genealogy>  (22) 
COC(=O)CCc1ccc2cc(C([NH-])=O)n(C(=O)OC(=O)CC(=O)[O-])c2c1 (protonated)
COC(=O)CCc1ccc2cc(C([NH-])=O)n(C(=O)OC(=O)CC(=O)[O-])c2c1 (3D coordinates assigned)
COC(=O)CCc1ccc2cc(C([NH-])=O)n(C(=O)OC(=O)CC(=O)[O-])c2c1 (optimized conformer: 70.19057494434203 kcal/mol)

>  <smiles>  (22) 
COC(=O)CCc1ccc2cc(C(N)=O)n(C(=O)OC(=O)CC(=O)O)c2c1

>  <score_type>  (22) 
oracle

>  <origin>  (22) 
adg

>  <m_score__min__energy>  (22) 
-6.8200000000000003

>  <m_primary>  (22) 
energy

$$$$
22:0
     RDKit          3D

 43 45  0  0  0  0  0  0  0  0999 V2000
  149.7700  157.6720  131.8950 N   0  0  0  0  0  0  0  0  0  0  0  0
  149.2690  158.9740  132.1870 C   0  0  0  0  0  0  0  0  0  0  0  0
  149.9880  159.9790  131.9430 O   0  0  0  0  0  0  0  0  0  0  0  0
  147.9030  159.1630  132.7200 C   0  0  0  0  0  0  0  0  0  0  0  0
  147.3450  160.4150  132.9670 C   0  0  0  0  0  0  0  0  0  0  0  0
  146.0490  160.1660  133.3590 C   0  0  0  0  0  0  0  0  0  0  0  0
  145.0430  161.0500  133.7330 C   0  0  0  0  0  0  0  0  0  0  0  0
  143.8020  160.5120  134.1170 C   0  0  0  0  0  0  0  0  0  0  0  0
  143.5910  159.1080  134.1290 C   0  0  0  0  0  0  0  0  0  0  0  0
  142.2790  158.5520  134.5480 C   0  0  0  0  0  0  0  0  0  0  0  0
  141.7770  158.7940  135.8380 C   0  0  0  0  0  0  0  0  0  0  0  0
  140.5400  158.2630  136.2100 C   0  0  0  0  0  0  0  0  0  0  0  0
  139.8240  157.5120  135.3310 N   0  0  0  0  0  0  0  0  0  0  0  0
  140.2840  157.2580  134.0760 C   0  0  0  0  0  0  0  0  0  0  0  0
  141.5150  157.7710  133.6620 C   0  0  0  0  0  0  0  0  0  0  0  0
  144.6430  158.2440  133.7430 C   0  0  0  0  0  0  0  0  0  0  0  0
  145.8610  158.8090  133.3480 C   0  0  0  0  0  0  0  0  0  0  0  0
  146.9920  158.1780  132.9600 N   0  0  0  0  0  0  0  0  0  0  0  0
  147.1910  156.7580  132.8980 C   0  0  0  0  0  0  0  0  0  0  0  0
  147.0020  156.1450  131.8110 O   0  0  0  0  0  0  0  0  0  0  0  0
  147.6250  156.0680  134.0360 O   0  0  0  0  0  0  0  0  0  0  0  0
  146.7620  155.2960  134.8690 C   0  0  0  0  0  0  0  0  0  0  0  0
  146.7270  153.8400  134.4080 C   0  0  0  0  0  0  0  0  0  0  0  0
  148.0410  153.3710  134.2230 O   0  0  0  0  0  0  0  0  0  0  0  0
  148.5060  153.6550  132.6060 P   0  0  1  0  0  5  0  0  0  0  0  0
  149.6140  154.9310  132.5000 O   0  0  0  0  0  0  0  0  0  0  0  0
  149.1950  152.2210  131.9270 S   0  0  0  0  0  0  0  0  0  0  0  0
  149.1230  156.8710  131.7270 H   0  0  0  0  0  0  0  0  0  0  0  0
  147.8356  161.3947  132.8695 H   0  0  0  0  0  0  0  0  0  0  0  0
  145.2128  162.1368  133.7286 H   0  0  0  0  0  0  0  0  0  0  0  0
  142.9849  161.1869  134.4116 H   0  0  0  0  0  0  0  0  0  0  0  0
  142.3557  159.3989  136.5516 H   0  0  0  0  0  0  0  0  0  0  0  0
  140.1432  158.4530  137.2182 H   0  0  0  0  0  0  0  0  0  0  0  0
  138.9000  157.1220  135.6250 H   0  0  0  0  0  0  0  0  0  0  0  0
  139.6844  156.6467  133.3854 H   0  0  0  0  0  0  0  0  0  0  0  0
  141.8858  157.5652  132.6470 H   0  0  0  0  0  0  0  0  0  0  0  0
  144.5066  157.1525  133.7531 H   0  0  0  0  0  0  0  0  0  0  0  0
  147.1281  155.3379  135.9054 H   0  0  0  0  0  0  0  0  0  0  0  0
  145.7454  155.7114  134.8063 H   0  0  0  0  0  0  0  0  0  0  0  0
  146.2235  153.2269  135.1699 H   0  0  0  0  0  0  0  0  0  0  0  0
  146.1776  153.7712  133.4575 H   0  0  0  0  0  0  0  0  0  0  0  0
  147.3540  153.9910  131.8690 H   0  0  0  0  0  0  0  0  0  0  0  0
  149.0570  155.7430  132.3930 H   0  0  0  0  0  0  0  0  0  0  0  0
  1  2  1  0
  2  3  2  0
  2  4  1  0
  4  5  2  0
  5  6  1  0
  6  7  2  0
  7  8  1  0
  8  9  2  0
  9 10  1  0
 10 11  2  0
 11 12  1  0
 12 13  2  0
 13 14  1  0
 14 15  2  0
  9 16  1  0
 16 17  2  0
 17 18  1  0
 18 19  1  0
 19 20  2  0
 19 21  1  0
 21 22  1  0
 22 23  1  0
 23 24  1  0
 24 25  1  0
 25 26  1  0
 25 27  2  0
 18  4  1  0
 17  6  1  0
 15 10  1  0
  1 28  1  0
  5 29  1  0
  7 30  1  0
  8 31  1  0
 11 32  1  0
 12 33  1  0
 13 34  1  0
 14 35  1  0
 15 36  1  0
 16 37  1  0
 22 38  1  0
 22 39  1  0
 23 40  1  0
 23 41  1  0
 25 42  1  6
 26 43  1  0
M  CHG  2   1  -1  13   1
M  END
>  <UniqueID>  (23) 
23

>  <SMILES>  (23) 
[NH-]C(=O)c1cc2ccc(-c3cc[nH+]cc3)cc2n1C(=O)OCCO[P@@H](O)=S

>  <Energy>  (23) 
84.0659578058617

>  <Genealogy>  (23) 
[NH-]C(=O)c1cc2ccc(-c3cc[nH+]cc3)cc2n1C(=O)OCCO[PH](O)=S (protonated)
[NH-]C(=O)c1cc2ccc(-c3cc[nH+]cc3)cc2n1C(=O)OCCO[P@@H](O)=S (chirality)
[NH-]C(=O)c1cc2ccc(-c3cc[nH+]cc3)cc2n1C(=O)OCCO[P@@H](O)=S (3D coordinates assigned)
[NH-]C(=O)c1cc2ccc(-c3cc[nH+]cc3)cc2n1C(=O)OCCO[P@@H](O)=S (optimized conformer: 84.0659578058617 kcal/mol)

>  <smiles>  (23) 
NC(=O)c1cc2ccc(-c3ccncc3)cc2n1C(=O)OCCO[PH](O)=S

>  <score_type>  (23) 
oracle

>  <origin>  (23) 
adg

>  <m_score__min__energy>  (23) 
-7.3200000000000003

>  <m_primary>  (23) 
energy

$$$$
23:0
     RDKit          3D

 37 39  0  0  0  0  0  0  0  0999 V2000
  139.5300  158.1930  136.2430 N   0  0  0  0  0  0  0  0  0  0  0  0
  140.0660  158.2620  135.2190 C   0  0  0  0  0  0  0  0  0  0  0  0
  140.7460  158.3510  133.9200 C   0  0  0  0  0  0  0  0  0  0  0  0
  142.0840  159.0360  133.8550 C   0  0  0  0  0  0  0  0  0  0  0  0
  142.1540  160.4500  133.8190 C   0  0  0  0  0  0  0  0  0  0  0  0
  143.3960  161.1020  133.7360 C   0  0  0  0  0  0  0  0  0  0  0  0
  144.5420  160.3150  133.6680 C   0  0  0  0  0  0  0  0  0  0  0  0
  145.8660  160.6840  133.6010 C   0  0  0  0  0  0  0  0  0  0  0  0
  146.5810  159.4880  133.5560 C   0  0  0  0  0  0  0  0  0  0  0  0
  148.0490  159.4250  133.3950 C   0  0  0  0  0  0  0  0  0  0  0  0
  148.8600  158.9480  134.4660 N   0  0  0  0  0  0  0  0  0  0  0  0
  148.5980  159.8220  132.3340 O   0  0  0  0  0  0  0  0  0  0  0  0
  145.7330  158.4210  133.5980 N   0  0  0  0  0  0  0  0  0  0  0  0
  146.0790  157.0280  133.6500 C   0  0  0  0  0  0  0  0  0  0  0  0
  145.3040  156.1680  133.1480 O   0  0  0  0  0  0  0  0  0  0  0  0
  147.2630  156.6290  134.2750 O   0  0  0  0  0  0  0  0  0  0  0  0
  147.8760  155.3700  134.0290 C   0  0  0  0  0  0  0  0  0  0  0  0
  148.7770  155.4850  132.8420 C   0  0  0  0  0  0  0  0  0  0  0  0
  149.1150  156.7680  132.3170 N   0  0  0  0  0  0  0  0  0  0  0  0
  149.2090  154.4440  132.2790 O   0  0  0  0  0  0  0  0  0  0  0  0
  144.4880  158.9450  133.6650 C   0  0  0  0  0  0  0  0  0  0  0  0
  143.2660  158.2700  133.7650 C   0  0  0  0  0  0  0  0  0  0  0  0
  139.8370  158.5030  132.7080 C   0  0  0  0  0  0  0  0  0  0  0  0
  140.5280  157.1740  132.9780 C   0  0  0  0  0  0  0  0  0  0  0  0
  141.2283  161.0429  133.8563 H   0  0  0  0  0  0  0  0  0  0  0  0
  143.4605  162.2001  133.7251 H   0  0  0  0  0  0  0  0  0  0  0  0
  146.2736  161.7056  133.5861 H   0  0  0  0  0  0  0  0  0  0  0  0
  149.0370  157.9270  134.5910 H   0  0  0  0  0  0  0  0  0  0  0  0
  148.4635  155.0688  134.9089 H   0  0  0  0  0  0  0  0  0  0  0  0
  147.1013  154.6141  133.8328 H   0  0  0  0  0  0  0  0  0  0  0  0
  149.7340  156.8480  131.4800 H   0  0  0  0  0  0  0  0  0  0  0  0
  148.7440  157.6380  132.7600 H   0  0  0  0  0  0  0  0  0  0  0  0
  143.2278  157.1707  133.7732 H   0  0  0  0  0  0  0  0  0  0  0  0
  138.7494  158.5950  132.8444 H   0  0  0  0  0  0  0  0  0  0  0  0
  139.7886  159.1949  131.8542 H   0  0  0  0  0  0  0  0  0  0  0  0
  139.9398  156.3057  133.3097 H   0  0  0  0  0  0  0  0  0  0  0  0
  141.1857  156.5078  132.4004 H   0  0  0  0  0  0  0  0  0  0  0  0
  1  2  3  0
  2  3  1  0
  3  4  1  0
  4  5  2  0
  5  6  1  0
  6  7  2  0
  7  8  1  0
  8  9  2  0
  9 10  1  0
 10 11  1  0
 10 12  2  0
  9 13  1  0
 13 14  1  0
 14 15  2  0
 14 16  1  0
 16 17  1  0
 17 18  1  0
 18 19  1  0
 18 20  2  0
 13 21  1  0
 21 22  2  0
  3 23  1  0
 23 24  1  0
 24  3  1  0
 22  4  1  0
 21  7  1  0
  5 25  1  0
  6 26  1  0
  8 27  1  0
 11 28  1  0
 17 29  1  0
 17 30  1  0
 19 31  1  0
 19 32  1  0
 22 33  1  0
 23 34  1  0
 23 35  1  0
 24 36  1  0
 24 37  1  0
M  CHG  1  11  -1
M  END
>  <UniqueID>  (24) 
24

>  <SMILES>  (24) 
N#CC1(c2ccc3cc(C([NH-])=O)n(C(=O)OCC(N)=O)c3c2)CC1

>  <Energy>  (24) 
337.85400079886

>  <Genealogy>  (24) 
N#CC1(c2ccc3cc(C([NH-])=O)n(C(=O)OCC(N)=O)c3c2)CC1 (protonated)
N#CC1(c2ccc3cc(C([NH-])=O)n(C(=O)OCC(N)=O)c3c2)CC1 (3D coordinates assigned)
N#CC1(c2ccc3cc(C([NH-])=O)n(C(=O)OCC(N)=O)c3c2)CC1 (nonaromatic ring conformer: 337.85400079886 kcal/mol)

>  <smiles>  (24) 
N#CC1(c2ccc3cc(C(N)=O)n(C(=O)OCC(N)=O)c3c2)CC1

>  <score_type>  (24) 
oracle

>  <origin>  (24) 
adg

>  <m_score__min__energy>  (24) 
-7.0099999999999998

>  <m_primary>  (24) 
energy

$$$$
24:0
     RDKit          3D

 35 36  0  0  0  0  0  0  0  0999 V2000
  149.6240  151.8790  131.8910 C   0  0  0  0  0  0  0  0  0  0  0  0
  149.2450  152.8010  132.9050 O   0  0  0  0  0  0  0  0  0  0  0  0
  148.6930  154.0530  132.6160 C   0  0  0  0  0  0  0  0  0  0  0  0
  149.4270  155.0090  132.2410 O   0  0  0  0  0  0  0  0  0  0  0  0
  147.2270  154.2720  132.7970 C   0  0  0  0  0  0  0  0  0  0  0  0
  146.9060  155.6500  132.6170 O   0  0  0  0  0  0  0  0  0  0  0  0
  146.6100  156.5150  133.6770 C   0  0  0  0  0  0  0  0  0  0  0  0
  146.5310  156.0730  134.8560 O   0  0  0  0  0  0  0  0  0  0  0  0
  146.3950  157.9120  133.4170 N   0  0  0  0  0  0  0  0  0  0  0  0
  147.3200  158.8270  133.0130 C   0  0  0  0  0  0  0  0  0  0  0  0
  148.7040  158.5300  132.5910 C   0  0  0  0  0  0  0  0  0  0  0  0
  149.0150  157.3450  131.8570 N   0  0  0  0  0  0  0  0  0  0  0  0
  149.6170  159.3640  132.8340 O   0  0  0  0  0  0  0  0  0  0  0  0
  146.7730  160.1070  133.0000 C   0  0  0  0  0  0  0  0  0  0  0  0
  145.4670  159.9480  133.4010 C   0  0  0  0  0  0  0  0  0  0  0  0
  144.4640  160.8950  133.5710 C   0  0  0  0  0  0  0  0  0  0  0  0
  143.2110  160.4540  134.0300 C   0  0  0  0  0  0  0  0  0  0  0  0
  142.9910  159.0860  134.3370 C   0  0  0  0  0  0  0  0  0  0  0  0
  141.6320  158.6220  134.7950 C   0  0  0  0  0  0  0  0  0  0  0  0
  140.7230  158.7950  133.7690 F   0  0  0  0  0  0  0  0  0  0  0  0
  141.6650  157.2830  135.1470 F   0  0  0  0  0  0  0  0  0  0  0  0
  141.2140  159.3480  135.8970 F   0  0  0  0  0  0  0  0  0  0  0  0
  144.0310  158.1500  134.1290 C   0  0  0  0  0  0  0  0  0  0  0  0
  145.2630  158.6150  133.6500 C   0  0  0  0  0  0  0  0  0  0  0  0
  150.0029  150.9572  132.3566 H   0  0  0  0  0  0  0  0  0  0  0  0
  148.7504  151.6418  131.2660 H   0  0  0  0  0  0  0  0  0  0  0  0
  150.4118  152.3247  131.2660 H   0  0  0  0  0  0  0  0  0  0  0  0
  146.6765  153.6717  132.0577 H   0  0  0  0  0  0  0  0  0  0  0  0
  146.9432  153.9688  133.8156 H   0  0  0  0  0  0  0  0  0  0  0  0
  148.2620  156.7220  131.4940 H   0  0  0  0  0  0  0  0  0  0  0  0
  150.0050  157.1310  131.6040 H   0  0  0  0  0  0  0  0  0  0  0  0
  147.2777  161.0455  132.7272 H   0  0  0  0  0  0  0  0  0  0  0  0
  144.6455  161.9578  133.3528 H   0  0  0  0  0  0  0  0  0  0  0  0
  142.3915  161.1774  134.1527 H   0  0  0  0  0  0  0  0  0  0  0  0
  143.8761  157.0813  134.3385 H   0  0  0  0  0  0  0  0  0  0  0  0
  1  2  1  0
  2  3  1  0
  3  4  2  0
  3  5  1  0
  5  6  1  0
  6  7  1  0
  7  8  2  0
  7  9  1  0
  9 10  1  0
 10 11  1  0
 11 12  1  0
 11 13  2  0
 10 14  2  0
 14 15  1  0
 15 16  2  0
 16 17  1  0
 17 18  2  0
 18 19  1  0
 19 20  1  0
 19 21  1  0
 19 22  1  0
 18 23  1  0
 23 24  2  0
 24  9  1  0
 24 15  1  0
  1 25  1  0
  1 26  1  0
  1 27  1  0
  5 28  1  0
  5 29  1  0
 12 30  1  0
 12 31  1  0
 14 32  1  0
 16 33  1  0
 17 34  1  0
 23 35  1  0
M  END
>  <UniqueID>  (25) 
25

>  <SMILES>  (25) 
COC(=O)COC(=O)n1c(C(N)=O)cc2ccc(C(F)(F)F)cc21

>  <Energy>  (25) 
70.3090460164772

>  <Genealogy>  (25) 
COC(=O)COC(=O)n1c(C(N)=O)cc2ccc(C(F)(F)F)cc21 (3D coordinates assigned)
COC(=O)COC(=O)n1c(C(N)=O)cc2ccc(C(F)(F)F)cc21 (optimized conformer: 70.3090460164772 kcal/mol)

>  <smiles>  (25) 
COC(=O)COC(=O)n1c(C(N)=O)cc2ccc(C(F)(F)F)cc21

>  <score_type>  (25) 
oracle

>  <origin>  (25) 
adg

>  <m_score__min__energy>  (25) 
-5.7699999999999996

>  <m_primary>  (25) 
energy

$$$$
25:0
     RDKit          3D

 39 40  0  0  0  0  0  0  0  0999 V2000
  140.5360  158.9840  131.7780 C   0  0  0  0  0  0  0  0  0  0  0  0
  141.1320  158.7180  133.1010 N   0  0  1  0  0  0  0  0  0  0  0  0
  140.2160  157.9910  134.0140 C   0  0  0  0  0  0  0  0  0  0  0  0
  140.2880  158.4260  135.4900 C   0  0  0  0  0  0  0  0  0  0  0  0
  140.8950  159.6840  135.5990 O   0  0  0  0  0  0  0  0  0  0  0  0
  142.4180  158.0520  132.9940 C   0  0  0  0  0  0  0  0  0  0  0  0
  142.6630  157.2850  132.0220 O   0  0  0  0  0  0  0  0  0  0  0  0
  143.4520  158.2300  134.0360 C   0  0  0  0  0  0  0  0  0  0  0  0
  143.2280  157.8580  135.2190 O   0  0  0  0  0  0  0  0  0  0  0  0
  144.6990  158.8670  133.7240 N   0  0  0  0  0  0  0  0  0  0  0  0
  144.9620  160.2010  133.6360 C   0  0  0  0  0  0  0  0  0  0  0  0
  143.9620  161.2830  133.7400 C   0  0  0  0  0  0  0  0  0  0  0  0
  142.5780  160.9640  133.8640 N   0  0  0  0  0  0  0  0  0  0  0  0
  144.3190  162.4900  133.7460 O   0  0  0  0  0  0  0  0  0  0  0  0
  146.3110  160.4140  133.3590 C   0  0  0  0  0  0  0  0  0  0  0  0
  146.8680  159.1560  133.2690 C   0  0  0  0  0  0  0  0  0  0  0  0
  148.1760  158.7700  132.9990 C   0  0  0  0  0  0  0  0  0  0  0  0
  148.4650  157.3950  132.9700 C   0  0  0  0  0  0  0  0  0  0  0  0
  147.4520  156.4340  133.2310 C   0  0  0  0  0  0  0  0  0  0  0  0
  147.7650  154.9620  133.1530 C   0  0  0  0  0  0  0  0  0  0  0  0
  148.0030  154.4790  134.4260 F   0  0  0  0  0  0  0  0  0  0  0  0
  148.8840  154.7400  132.3700 F   0  0  0  0  0  0  0  0  0  0  0  0
  146.7040  154.2660  132.5980 F   0  0  0  0  0  0  0  0  0  0  0  0
  146.1280  156.8690  133.4780 C   0  0  0  0  0  0  0  0  0  0  0  0
  145.8720  158.2420  133.4910 C   0  0  0  0  0  0  0  0  0  0  0  0
  139.5385  159.4291  131.9080 H   0  0  0  0  0  0  0  0  0  0  0  0
  141.1786  159.6808  131.2198 H   0  0  0  0  0  0  0  0  0  0  0  0
  140.4465  158.0404  131.2198 H   0  0  0  0  0  0  0  0  0  0  0  0
  141.2950  159.6600  133.5280 H   0  0  0  0  0  0  0  0  0  0  0  0
  139.1861  158.1493  133.6614 H   0  0  0  0  0  0  0  0  0  0  0  0
  140.5291  156.9368  133.9884 H   0  0  0  0  0  0  0  0  0  0  0  0
  139.2697  158.4779  135.9027 H   0  0  0  0  0  0  0  0  0  0  0  0
  140.8856  157.6916  136.0499 H   0  0  0  0  0  0  0  0  0  0  0  0
  141.8510  159.5500  135.3660 H   0  0  0  0  0  0  0  0  0  0  0  0
  142.2710  160.0640  134.2940 H   0  0  0  0  0  0  0  0  0  0  0  0
  146.8226  161.3802  133.2379 H   0  0  0  0  0  0  0  0  0  0  0  0
  148.9609  159.5181  132.8137 H   0  0  0  0  0  0  0  0  0  0  0  0
  149.4874  157.0591  132.7426 H   0  0  0  0  0  0  0  0  0  0  0  0
  145.3204  156.1435  133.6554 H   0  0  0  0  0  0  0  0  0  0  0  0
  1  2  1  0
  2  3  1  0
  3  4  1  0
  4  5  1  0
  2  6  1  0
  6  7  2  0
  6  8  1  0
  8  9  2  0
  8 10  1  0
 10 11  1  0
 11 12  1  0
 12 13  1  0
 12 14  2  0
 11 15  2  0
 15 16  1  0
 16 17  2  0
 17 18  1  0
 18 19  2  0
 19 20  1  0
 20 21  1  0
 20 22  1  0
 20 23  1  0
 19 24  1  0
 24 25  2  0
 25 10  1  0
 25 16  1  0
  1 26  1  0
  1 27  1  0
  1 28  1  0
  2 29  1  1
  3 30  1  0
  3 31  1  0
  4 32  1  0
  4 33  1  0
  5 34  1  0
 13 35  1  0
 15 36  1  0
 17 37  1  0
 18 38  1  0
 24 39  1  0
M  CHG  2   2   1  13  -1
M  END
>  <UniqueID>  (26) 
26

>  <SMILES>  (26) 
C[N@@H+](CCO)C(=O)C(=O)n1c(C([NH-])=O)cc2ccc(C(F)(F)F)cc21

>  <Energy>  (26) 
83.01751297323484

>  <Genealogy>  (26) 
C[NH+](CCO)C(=O)C(=O)n1c(C([NH-])=O)cc2ccc(C(F)(F)F)cc21 (protonated)
C[N@@H+](CCO)C(=O)C(=O)n1c(C([NH-])=O)cc2ccc(C(F)(F)F)cc21 (chirality)
C[N@@H+](CCO)C(=O)C(=O)n1c(C([NH-])=O)cc2ccc(C(F)(F)F)cc21 (3D coordinates assigned)
C[N@@H+](CCO)C(=O)C(=O)n1c(C([NH-])=O)cc2ccc(C(F)(F)F)cc21 (optimized conformer: 83.01751297323484 kcal/mol)

>  <smiles>  (26) 
CN(CCO)C(=O)C(=O)n1c(C(N)=O)cc2ccc(C(F)(F)F)cc21

>  <score_type>  (26) 
oracle

>  <origin>  (26) 
adg

>  <m_score__min__energy>  (26) 
-4.3099999999999996

>  <m_primary>  (26) 
energy

$$$$
26:0
     RDKit          3D

 34 36  0  0  0  0  0  0  0  0999 V2000
  149.6640  150.9070  134.3870 C   0  0  0  0  0  0  0  0  0  0  0  0
  150.0450  150.7680  133.0230 O   0  0  0  0  0  0  0  0  0  0  0  0
  149.5970  151.6370  132.0230 C   0  0  0  0  0  0  0  0  0  0  0  0
  149.9780  151.4870  130.8300 O   0  0  0  0  0  0  0  0  0  0  0  0
  148.7030  152.7010  132.3630 N   0  0  0  0  0  0  0  0  0  0  0  0
  148.9940  154.0160  132.3710 C   0  0  0  0  0  0  0  0  0  0  0  0
  147.8590  154.7070  132.7590 C   0  0  0  0  0  0  0  0  0  0  0  0
  147.6980  156.1750  132.9130 C   0  0  0  0  0  0  0  0  0  0  0  0
  148.8260  157.0350  132.8350 C   0  0  0  0  0  0  0  0  0  0  0  0
  148.6860  158.4240  132.9910 C   0  0  0  0  0  0  0  0  0  0  0  0
  147.4110  158.9300  133.2150 C   0  0  0  0  0  0  0  0  0  0  0  0
  147.0010  160.2260  133.4260 C   0  0  0  0  0  0  0  0  0  0  0  0
  145.6210  160.1510  133.6080 C   0  0  0  0  0  0  0  0  0  0  0  0
  144.7590  161.3390  133.7820 C   0  0  0  0  0  0  0  0  0  0  0  0
  145.3410  162.5940  134.1290 N   0  0  0  0  0  0  0  0  0  0  0  0
  143.5160  161.2680  133.5940 O   0  0  0  0  0  0  0  0  0  0  0  0
  145.1970  158.8570  133.5200 N   0  0  0  0  0  0  0  0  0  0  0  0
  143.8650  158.3510  133.7070 C   0  0  0  0  0  0  0  0  0  0  0  0
  143.3460  158.3330  134.8530 O   0  0  0  0  0  0  0  0  0  0  0  0
  143.1470  157.8520  132.6270 O   0  0  0  0  0  0  0  0  0  0  0  0
  146.3060  158.1240  133.2760 C   0  0  0  0  0  0  0  0  0  0  0  0
  146.4180  156.7350  133.1440 C   0  0  0  0  0  0  0  0  0  0  0  0
  146.9040  153.7220  132.9700 C   0  0  0  0  0  0  0  0  0  0  0  0
  147.4430  152.5130  132.7220 N   0  0  0  0  0  0  0  0  0  0  0  0
  150.4997  150.6021  135.0340 H   0  0  0  0  0  0  0  0  0  0  0  0
  149.4067  151.9569  134.5907 H   0  0  0  0  0  0  0  0  0  0  0  0
  148.7911  150.2694  134.5907 H   0  0  0  0  0  0  0  0  0  0  0  0
  149.9654  154.4635  132.1138 H   0  0  0  0  0  0  0  0  0  0  0  0
  149.8225  156.6075  132.6500 H   0  0  0  0  0  0  0  0  0  0  0  0
  149.5590  159.0911  132.9375 H   0  0  0  0  0  0  0  0  0  0  0  0
  147.6285  161.1292  133.4467 H   0  0  0  0  0  0  0  0  0  0  0  0
  146.2320  162.9110  133.6890 H   0  0  0  0  0  0  0  0  0  0  0  0
  145.5292  156.0911  133.2182 H   0  0  0  0  0  0  0  0  0  0  0  0
  145.8671  153.9012  133.2903 H   0  0  0  0  0  0  0  0  0  0  0  0
  1  2  1  0
  2  3  1  0
  3  4  2  0
  3  5  1  0
  5  6  1  0
  6  7  2  0
  7  8  1  0
  8  9  2  0
  9 10  1  0
 10 11  2  0
 11 12  1  0
 12 13  2  0
 13 14  1  0
 14 15  1  0
 14 16  2  0
 13 17  1  0
 17 18  1  0
 18 19  2  0
 18 20  1  0
 17 21  1  0
 21 22  2  0
  7 23  1  0
 23 24  2  0
 24  5  1  0
 22  8  1  0
 21 11  1  0
  1 25  1  0
  1 26  1  0
  1 27  1  0
  6 28  1  0
  9 29  1  0
 10 30  1  0
 12 31  1  0
 15 32  1  0
 22 33  1  0
 23 34  1  0
M  CHG  2  15  -1  20  -1
M  END
>  <UniqueID>  (27) 
27

>  <SMILES>  (27) 
COC(=O)n1cc(-c2ccc3cc(C([NH-])=O)n(C(=O)[O-])c3c2)cn1

>  <Energy>  (27) 
105.5057305431196

>  <Genealogy>  (27) 
COC(=O)n1cc(-c2ccc3cc(C([NH-])=O)n(C(=O)[O-])c3c2)cn1 (protonated)
COC(=O)n1cc(-c2ccc3cc(C([NH-])=O)n(C(=O)[O-])c3c2)cn1 (3D coordinates assigned)
COC(=O)n1cc(-c2ccc3cc(C([NH-])=O)n(C(=O)[O-])c3c2)cn1 (optimized conformer: 105.5057305431196 kcal/mol)

>  <smiles>  (27) 
COC(=O)n1cc(-c2ccc3cc(C(N)=O)n(C(=O)O)c3c2)cn1

>  <score_type>  (27) 
oracle

>  <origin>  (27) 
adg

>  <m_score__min__energy>  (27) 
-7.0199999999999996

>  <m_primary>  (27) 
energy

$$$$
27:0
     RDKit          3D

 34 35  0  0  0  0  0  0  0  0999 V2000
  138.3630  159.0740  131.1720 C   0  0  0  0  0  0  0  0  0  0  0  0
  139.1810  158.1860  131.9840 N   0  0  0  0  0  0  0  0  0  0  0  0
  140.4660  158.5640  132.4880 C   0  0  0  0  0  0  0  0  0  0  0  0
  140.8040  159.7780  132.5300 O   0  0  0  0  0  0  0  0  0  0  0  0
  141.4260  157.5080  132.9210 C   0  0  0  0  0  0  0  0  0  0  0  0
  142.7860  158.0040  132.7610 N   0  0  0  0  0  0  0  0  0  0  0  0
  143.5940  158.4290  133.8610 C   0  0  0  0  0  0  0  0  0  0  0  0
  143.1760  158.2910  135.0430 O   0  0  0  0  0  0  0  0  0  0  0  0
  144.8930  158.9930  133.6190 N   0  0  0  0  0  0  0  0  0  0  0  0
  145.2490  160.3100  133.6250 C   0  0  0  0  0  0  0  0  0  0  0  0
  144.3280  161.4580  133.7600 C   0  0  0  0  0  0  0  0  0  0  0  0
  142.9190  161.2430  133.7350 N   0  0  0  0  0  0  0  0  0  0  0  0
  144.7710  162.6240  133.9310 O   0  0  0  0  0  0  0  0  0  0  0  0
  146.6190  160.4450  133.4040 C   0  0  0  0  0  0  0  0  0  0  0  0
  147.0940  159.1630  133.2550 C   0  0  0  0  0  0  0  0  0  0  0  0
  148.3910  158.7110  133.0340 C   0  0  0  0  0  0  0  0  0  0  0  0
  148.6000  157.3240  132.9530 C   0  0  0  0  0  0  0  0  0  0  0  0
  147.5160  156.4180  133.0830 C   0  0  0  0  0  0  0  0  0  0  0  0
  147.7610  154.9300  133.0560 C   0  0  0  0  0  0  0  0  0  0  0  0
  146.6360  154.2930  132.5700 F   0  0  0  0  0  0  0  0  0  0  0  0
  148.0330  154.4570  134.3290 F   0  0  0  0  0  0  0  0  0  0  0  0
  148.8390  154.6270  132.2430 F   0  0  0  0  0  0  0  0  0  0  0  0
  146.2160  156.9180  133.3330 C   0  0  0  0  0  0  0  0  0  0  0  0
  146.0340  158.3050  133.3880 C   0  0  0  0  0  0  0  0  0  0  0  0
  137.7647  159.7235  131.8279 H   0  0  0  0  0  0  0  0  0  0  0  0
  139.0135  159.6935  130.5371 H   0  0  0  0  0  0  0  0  0  0  0  0
  137.6923  158.4764  130.5371 H   0  0  0  0  0  0  0  0  0  0  0  0
  141.2470  157.2585  133.9773 H   0  0  0  0  0  0  0  0  0  0  0  0
  141.2862  156.6064  132.3066 H   0  0  0  0  0  0  0  0  0  0  0  0
  142.5230  160.2760  133.7210 H   0  0  0  0  0  0  0  0  0  0  0  0
  147.1976  161.3794  133.3585 H   0  0  0  0  0  0  0  0  0  0  0  0
  149.2271  159.4177  132.9260 H   0  0  0  0  0  0  0  0  0  0  0  0
  149.6158  156.9361  132.7869 H   0  0  0  0  0  0  0  0  0  0  0  0
  145.3682  156.2328  133.4807 H   0  0  0  0  0  0  0  0  0  0  0  0
  1  2  1  0
  2  3  1  0
  3  4  2  0
  3  5  1  0
  5  6  1  0
  6  7  1  0
  7  8  2  0
  7  9  1  0
  9 10  1  0
 10 11  1  0
 11 12  1  0
 11 13  2  0
 10 14  2  0
 14 15  1  0
 15 16  2  0
 16 17  1  0
 17 18  2  0
 18 19  1  0
 19 20  1  0
 19 21  1  0
 19 22  1  0
 18 23  1  0
 23 24  2  0
 24  9  1  0
 24 15  1  0
  1 25  1  0
  1 26  1  0
  1 27  1  0
  5 28  1  0
  5 29  1  0
 12 30  1  0
 14 31  1  0
 16 32  1  0
 17 33  1  0
 23 34  1  0
M  CHG  3   2  -1   6  -1  12  -1
M  END
>  <UniqueID>  (28) 
28

>  <SMILES>  (28) 
C[N-]C(=O)C[N-]C(=O)n1c(C([NH-])=O)cc2ccc(C(F)(F)F)cc21

>  <Energy>  (28) 
67.27545083669797

>  <Genealogy>  (28) 
C[N-]C(=O)C[N-]C(=O)n1c(C([NH-])=O)cc2ccc(C(F)(F)F)cc21 (protonated)
C[N-]C(=O)C[N-]C(=O)n1c(C([NH-])=O)cc2ccc(C(F)(F)F)cc21 (3D coordinates assigned)
C[N-]C(=O)C[N-]C(=O)n1c(C([NH-])=O)cc2ccc(C(F)(F)F)cc21 (optimized conformer: 67.27545083669797 kcal/mol)

>  <smiles>  (28) 
CNC(=O)CNC(=O)n1c(C(N)=O)cc2ccc(C(F)(F)F)cc21

>  <score_type>  (28) 
oracle

>  <origin>  (28) 
adg

>  <m_score__min__energy>  (28) 
-6.04

>  <m_primary>  (28) 
energy

$$$$
28:0
     RDKit          3D

 42 43  0  0  0  0  0  0  0  0999 V2000
  139.1090  158.2210  135.7270 C   0  0  0  0  0  0  0  0  0  0  0  0
  140.2050  158.2050  134.6550 C   0  0  2  0  0  0  0  0  0  0  0  0
  140.0200  157.0930  133.6560 C   0  0  0  0  0  0  0  0  0  0  0  0
  139.7490  155.9200  134.0300 O   0  0  0  0  0  0  0  0  0  0  0  0
  140.2040  157.3510  132.3030 O   0  0  0  0  0  0  0  0  0  0  0  0
  141.5430  158.1370  135.2730 N   0  0  0  0  0  0  0  0  0  0  0  0
  141.6860  157.8530  136.7080 C   0  0  0  0  0  0  0  0  0  0  0  0
  142.6920  158.5670  134.5090 C   0  0  0  0  0  0  0  0  0  0  0  0
  143.2710  159.6440  134.8190 O   0  0  0  0  0  0  0  0  0  0  0  0
  143.2210  157.7850  133.3680 C   0  0  0  0  0  0  0  0  0  0  0  0
  142.6780  157.8580  132.2340 O   0  0  0  0  0  0  0  0  0  0  0  0
  144.3680  156.9400  133.5380 N   0  0  0  0  0  0  0  0  0  0  0  0
  144.3800  155.5910  133.7290 C   0  0  0  0  0  0  0  0  0  0  0  0
  143.1740  154.7480  133.9120 C   0  0  0  0  0  0  0  0  0  0  0  0
  141.9600  155.0400  133.2170 N   0  0  0  0  0  0  0  0  0  0  0  0
  143.2130  153.7500  134.6780 O   0  0  0  0  0  0  0  0  0  0  0  0
  145.6930  155.1210  133.7800 C   0  0  0  0  0  0  0  0  0  0  0  0
  146.4860  156.2320  133.6000 C   0  0  0  0  0  0  0  0  0  0  0  0
  147.8720  156.3440  133.5340 C   0  0  0  0  0  0  0  0  0  0  0  0
  148.4200  157.6170  133.3010 C   0  0  0  0  0  0  0  0  0  0  0  0
  147.5790  158.7470  133.1390 C   0  0  0  0  0  0  0  0  0  0  0  0
  148.1730  160.0950  132.8450 C   0  0  0  0  0  0  0  0  0  0  0  0
  148.7970  160.0960  131.4870 C   0  0  0  0  0  0  0  0  0  0  0  0
  148.1840  160.5970  130.5080 O   0  0  0  0  0  0  0  0  0  0  0  0
  150.0360  159.4980  131.2900 O   0  0  0  0  0  0  0  0  0  0  0  0
  146.1760  158.5920  133.2000 C   0  0  0  0  0  0  0  0  0  0  0  0
  145.6620  157.3160  133.4520 C   0  0  0  0  0  0  0  0  0  0  0  0
  139.5719  158.2142  136.7248 H   0  0  0  0  0  0  0  0  0  0  0  0
  138.4975  159.1282  135.6127 H   0  0  0  0  0  0  0  0  0  0  0  0
  138.4712  157.3321  135.6127 H   0  0  0  0  0  0  0  0  0  0  0  0
  140.1205  159.1505  134.0993 H   0  0  0  0  0  0  0  0  0  0  0  0
  141.2663  158.6865  137.2903 H   0  0  0  0  0  0  0  0  0  0  0  0
  141.1472  156.9260  136.9538 H   0  0  0  0  0  0  0  0  0  0  0  0
  142.7516  157.7339  136.9538 H   0  0  0  0  0  0  0  0  0  0  0  0
  141.8590  155.8920  132.6230 H   0  0  0  0  0  0  0  0  0  0  0  0
  141.1310  154.4160  133.3310 H   0  0  0  0  0  0  0  0  0  0  0  0
  146.0241  154.0831  133.9318 H   0  0  0  0  0  0  0  0  0  0  0  0
  148.5185  155.4630  133.6603 H   0  0  0  0  0  0  0  0  0  0  0  0
  149.5118  157.7379  133.2437 H   0  0  0  0  0  0  0  0  0  0  0  0
  147.3810  160.8575  132.8821 H   0  0  0  0  0  0  0  0  0  0  0  0
  148.9446  160.3200  133.5960 H   0  0  0  0  0  0  0  0  0  0  0  0
  145.5059  159.4519  133.0532 H   0  0  0  0  0  0  0  0  0  0  0  0
  1  2  1  0
  2  3  1  0
  3  4  2  0
  3  5  1  0
  2  6  1  0
  6  7  1  0
  6  8  1  0
  8  9  2  0
  8 10  1  0
 10 11  2  0
 10 12  1  0
 12 13  1  0
 13 14  1  0
 14 15  1  0
 14 16  2  0
 13 17  2  0
 17 18  1  0
 18 19  2  0
 19 20  1  0
 20 21  2  0
 21 22  1  0
 22 23  1  0
 23 24  2  0
 23 25  1  0
 21 26  1  0
 26 27  2  0
 27 12  1  0
 27 18  1  0
  1 28  1  0
  1 29  1  0
  1 30  1  0
  2 31  1  6
  7 32  1  0
  7 33  1  0
  7 34  1  0
 15 35  1  0
 15 36  1  0
 17 37  1  0
 19 38  1  0
 20 39  1  0
 22 40  1  0
 22 41  1  0
 26 42  1  0
M  CHG  2   5  -1  25  -1
M  END
>  <UniqueID>  (29) 
29

>  <SMILES>  (29) 
C[C@H](C(=O)[O-])N(C)C(=O)C(=O)n1c(C(N)=O)cc2ccc(CC(=O)[O-])cc21

>  <Energy>  (29) 
80.81863494244996

>  <Genealogy>  (29) 
CC(C(=O)[O-])N(C)C(=O)C(=O)n1c(C(N)=O)cc2ccc(CC(=O)[O-])cc21 (protonated)
C[C@H](C(=O)[O-])N(C)C(=O)C(=O)n1c(C(N)=O)cc2ccc(CC(=O)[O-])cc21 (chirality)
C[C@H](C(=O)[O-])N(C)C(=O)C(=O)n1c(C(N)=O)cc2ccc(CC(=O)[O-])cc21 (3D coordinates assigned)
C[C@H](C(=O)[O-])N(C)C(=O)C(=O)n1c(C(N)=O)cc2ccc(CC(=O)[O-])cc21 (optimized conformer: 80.81863494244996 kcal/mol)

>  <smiles>  (29) 
CC(C(=O)O)N(C)C(=O)C(=O)n1c(C(N)=O)cc2ccc(CC(=O)O)cc21

>  <score_type>  (29) 
oracle

>  <origin>  (29) 
adg

>  <m_score__min__energy>  (29) 
-7.6699999999999999

>  <m_primary>  (29) 
energy

$$$$
29:0
     RDKit          3D

 36 37  0  0  0  0  0  0  0  0999 V2000
  145.2820  159.9180  133.5940 C   0  0  0  0  0  0  0  0  0  0  0  0
  146.3550  158.9160  133.2910 C   0  0  0  0  0  0  0  0  0  0  0  0
  147.6030  159.3450  132.7750 C   0  0  0  0  0  0  0  0  0  0  0  0
  148.6240  158.4160  132.5090 C   0  0  0  0  0  0  0  0  0  0  0  0
  148.3760  157.0750  132.7880 C   0  0  0  0  0  0  0  0  0  0  0  0
  149.1740  155.9680  132.6050 C   0  0  0  0  0  0  0  0  0  0  0  0
  148.4120  154.8850  133.0470 C   0  0  0  0  0  0  0  0  0  0  0  0
  148.8900  153.4840  133.0840 C   0  0  0  0  0  0  0  0  0  0  0  0
  148.4650  152.5890  134.1130 N   0  0  0  0  0  0  0  0  0  0  0  0
  149.6700  153.0590  132.1910 O   0  0  0  0  0  0  0  0  0  0  0  0
  147.1970  155.3120  133.4930 N   0  0  0  0  0  0  0  0  0  0  0  0
  146.1110  154.5030  133.9700 C   0  0  0  0  0  0  0  0  0  0  0  0
  145.3830  153.8870  133.1450 O   0  0  0  0  0  0  0  0  0  0  0  0
  145.8420  154.3760  135.4110 C   0  0  0  0  0  0  0  0  0  0  0  0
  145.0330  155.1650  135.9690 O   0  0  0  0  0  0  0  0  0  0  0  0
  146.5150  153.3650  136.1720 N   0  0  0  0  0  0  0  0  0  0  0  0
  147.5440  153.6040  137.1840 C   0  0  2  0  0  0  0  0  0  0  0  0
  148.4020  154.8180  136.8140 C   0  0  0  0  0  0  0  0  0  0  0  0
  148.3650  152.3630  137.4120 C   0  0  0  0  0  0  0  0  0  0  0  0
  148.4600  151.8820  138.5710 O   0  0  0  0  0  0  0  0  0  0  0  0
  148.9830  151.7120  136.3500 O   0  0  0  0  0  0  0  0  0  0  0  0
  147.1860  156.6520  133.3200 C   0  0  0  0  0  0  0  0  0  0  0  0
  146.1440  157.5490  133.5750 C   0  0  0  0  0  0  0  0  0  0  0  0
  145.1728  160.0200  134.6838 H   0  0  0  0  0  0  0  0  0  0  0  0
  145.5559  160.8911  133.1603 H   0  0  0  0  0  0  0  0  0  0  0  0
  144.3299  159.5782  133.1603 H   0  0  0  0  0  0  0  0  0  0  0  0
  147.7744  160.4141  132.5809 H   0  0  0  0  0  0  0  0  0  0  0  0
  149.5897  158.7390  132.0930 H   0  0  0  0  0  0  0  0  0  0  0  0
  150.1952  155.9424  132.1971 H   0  0  0  0  0  0  0  0  0  0  0  0
  147.8740  152.9130  134.9100 H   0  0  0  0  0  0  0  0  0  0  0  0
  148.7830  151.5940  134.1050 H   0  0  0  0  0  0  0  0  0  0  0  0
  147.0529  153.8425  138.1390 H   0  0  0  0  0  0  0  0  0  0  0  0
  148.7519  155.3131  137.7318 H   0  0  0  0  0  0  0  0  0  0  0  0
  149.2685  154.4879  136.2222 H   0  0  0  0  0  0  0  0  0  0  0  0
  147.8016  155.5247  136.2222 H   0  0  0  0  0  0  0  0  0  0  0  0
  145.1855  157.1990  133.9859 H   0  0  0  0  0  0  0  0  0  0  0  0
  1  2  1  0
  2  3  2  0
  3  4  1  0
  4  5  2  0
  5  6  1  0
  6  7  2  0
  7  8  1  0
  8  9  1  0
  8 10  2  0
  7 11  1  0
 11 12  1  0
 12 13  2  0
 12 14  1  0
 14 15  2  0
 14 16  1  0
 16 17  1  0
 17 18  1  0
 17 19  1  0
 19 20  2  0
 19 21  1  0
 11 22  1  0
 22 23  2  0
 23  2  1  0
 22  5  1  0
  1 24  1  0
  1 25  1  0
  1 26  1  0
  3 27  1  0
  4 28  1  0
  6 29  1  0
  9 30  1  0
  9 31  1  0
 17 32  1  1
 18 33  1  0
 18 34  1  0
 18 35  1  0
 23 36  1  0
M  CHG  2  16  -1  21  -1
M  END
>  <UniqueID>  (30) 
30

>  <SMILES>  (30) 
Cc1ccc2cc(C(N)=O)n(C(=O)C(=O)[N-][C@H](C)C(=O)[O-])c2c1

>  <Energy>  (30) 
71.34125337998488

>  <Genealogy>  (30) 
Cc1ccc2cc(C(N)=O)n(C(=O)C(=O)[N-]C(C)C(=O)[O-])c2c1 (protonated)
Cc1ccc2cc(C(N)=O)n(C(=O)C(=O)[N-][C@H](C)C(=O)[O-])c2c1 (chirality)
Cc1ccc2cc(C(N)=O)n(C(=O)C(=O)[N-][C@H](C)C(=O)[O-])c2c1 (3D coordinates assigned)
Cc1ccc2cc(C(N)=O)n(C(=O)C(=O)[N-][C@H](C)C(=O)[O-])c2c1 (optimized conformer: 71.34125337998488 kcal/mol)

>  <smiles>  (30) 
Cc1ccc2cc(C(N)=O)n(C(=O)C(=O)NC(C)C(=O)O)c2c1

>  <score_type>  (30) 
oracle

>  <origin>  (30) 
adg

>  <m_score__min__energy>  (30) 
-6.8600000000000003

>  <m_primary>  (30) 
energy

$$$$
30:0
     RDKit          3D

 37 38  0  0  0  0  0  0  0  0999 V2000
  143.2970  160.6340  133.3620 N   0  0  0  0  0  0  0  0  0  0  0  0
  144.6500  160.7120  133.8110 C   0  0  0  0  0  0  0  0  0  0  0  0
  144.9980  161.6630  134.5590 O   0  0  0  0  0  0  0  0  0  0  0  0
  145.6300  159.6620  133.4690 C   0  0  0  0  0  0  0  0  0  0  0  0
  146.9670  159.9250  133.1850 C   0  0  0  0  0  0  0  0  0  0  0  0
  147.5460  158.6940  132.9880 C   0  0  0  0  0  0  0  0  0  0  0  0
  148.8590  158.3660  132.6670 C   0  0  0  0  0  0  0  0  0  0  0  0
  149.1750  157.0080  132.4900 C   0  0  0  0  0  0  0  0  0  0  0  0
  148.1780  156.0070  132.6310 C   0  0  0  0  0  0  0  0  0  0  0  0
  148.4780  154.6100  132.4410 N   0  0  0  0  0  0  0  0  0  0  0  0
  148.8350  153.6830  133.5140 C   0  0  0  0  0  0  0  0  0  0  0  0
  149.4150  152.4150  132.9500 C   0  0  0  0  0  0  0  0  0  0  0  0
  149.9700  151.5960  133.7300 O   0  0  0  0  0  0  0  0  0  0  0  0
  149.3200  152.0830  131.5580 N   0  0  0  0  0  0  0  0  0  0  0  0
  149.1260  150.7420  131.0160 C   0  0  0  0  0  0  0  0  0  0  0  0
  150.4740  150.0940  130.7010 C   0  0  0  0  0  0  0  0  0  0  0  0
  151.4910  150.7050  131.4480 O   0  0  0  0  0  0  0  0  0  0  0  0
  146.8550  156.3840  132.9470 C   0  0  0  0  0  0  0  0  0  0  0  0
  146.5710  157.7410  133.1410 C   0  0  0  0  0  0  0  0  0  0  0  0
  145.3840  158.3210  133.4340 N   0  0  0  0  0  0  0  0  0  0  0  0
  144.1100  157.6660  133.5570 C   0  0  0  0  0  0  0  0  0  0  0  0
  143.8800  156.8930  134.5240 O   0  0  0  0  0  0  0  0  0  0  0  0
  143.1200  157.8740  132.6050 O   0  0  0  0  0  0  0  0  0  0  0  0
  142.9370  159.7810  132.8820 H   0  0  0  0  0  0  0  0  0  0  0  0
  142.6260  161.4040  133.5820 H   0  0  0  0  0  0  0  0  0  0  0  0
  147.4562  160.9087  133.1299 H   0  0  0  0  0  0  0  0  0  0  0  0
  149.6267  159.1458  132.5551 H   0  0  0  0  0  0  0  0  0  0  0  0
  150.2060  156.7175  132.2395 H   0  0  0  0  0  0  0  0  0  0  0  0
  148.4030  154.2160  131.4740 H   0  0  0  0  0  0  0  0  0  0  0  0
  149.5782  154.1593  134.1703 H   0  0  0  0  0  0  0  0  0  0  0  0
  147.9271  153.4341  134.0831 H   0  0  0  0  0  0  0  0  0  0  0  0
  148.5918  150.1264  131.7547 H   0  0  0  0  0  0  0  0  0  0  0  0
  148.5393  150.8137  130.0883 H   0  0  0  0  0  0  0  0  0  0  0  0
  150.4307  149.0241  130.9531 H   0  0  0  0  0  0  0  0  0  0  0  0
  150.6908  150.2188  129.6298 H   0  0  0  0  0  0  0  0  0  0  0  0
  151.0920  151.5180  131.8570 H   0  0  0  0  0  0  0  0  0  0  0  0
  146.0627  155.6265  133.0390 H   0  0  0  0  0  0  0  0  0  0  0  0
  1  2  1  0
  2  3  2  0
  2  4  1  0
  4  5  2  0
  5  6  1  0
  6  7  2  0
  7  8  1  0
  8  9  2  0
  9 10  1  0
 10 11  1  0
 11 12  1  0
 12 13  2  0
 12 14  1  0
 14 15  1  0
 15 16  1  0
 16 17  1  0
  9 18  1  0
 18 19  2  0
 19 20  1  0
 20 21  1  0
 21 22  2  0
 21 23  1  0
 20  4  1  0
 19  6  1  0
  1 24  1  0
  1 25  1  0
  5 26  1  0
  7 27  1  0
  8 28  1  0
 10 29  1  0
 11 30  1  0
 11 31  1  0
 15 32  1  0
 15 33  1  0
 16 34  1  0
 16 35  1  0
 17 36  1  0
 18 37  1  0
M  CHG  2  14  -1  23  -1
M  END
>  <UniqueID>  (31) 
31

>  <SMILES>  (31) 
NC(=O)c1cc2ccc(NCC(=O)[N-]CCO)cc2n1C(=O)[O-]

>  <Energy>  (31) 
73.04651296048168

>  <Genealogy>  (31) 
NC(=O)c1cc2ccc(NCC(=O)[N-]CCO)cc2n1C(=O)[O-] (protonated)
NC(=O)c1cc2ccc(NCC(=O)[N-]CCO)cc2n1C(=O)[O-] (3D coordinates assigned)
NC(=O)c1cc2ccc(NCC(=O)[N-]CCO)cc2n1C(=O)[O-] (optimized conformer: 73.04651296048168 kcal/mol)

>  <smiles>  (31) 
NC(=O)c1cc2ccc(NCC(=O)NCCO)cc2n1C(=O)O

>  <score_type>  (31) 
oracle

>  <origin>  (31) 
adg

>  <m_score__min__energy>  (31) 
-6.4299999999999997

>  <m_primary>  (31) 
energy

$$$$
31:0
     RDKit          3D

 38 40  0  0  0  0  0  0  0  0999 V2000
  142.9410  161.1430  133.6390 N   0  0  0  0  0  0  0  0  0  0  0  0
  144.3420  161.3730  133.7460 C   0  0  0  0  0  0  0  0  0  0  0  0
  144.7550  162.5110  134.0930 O   0  0  0  0  0  0  0  0  0  0  0  0
  145.3140  160.2840  133.5130 C   0  0  0  0  0  0  0  0  0  0  0  0
  146.6810  160.5020  133.3580 C   0  0  0  0  0  0  0  0  0  0  0  0
  147.2420  159.2510  133.2500 C   0  0  0  0  0  0  0  0  0  0  0  0
  148.5700  158.8780  133.0700 C   0  0  0  0  0  0  0  0  0  0  0  0
  148.8620  157.5090  132.9590 C   0  0  0  0  0  0  0  0  0  0  0  0
  147.8270  156.5410  133.0240 C   0  0  0  0  0  0  0  0  0  0  0  0
  148.1380  155.1030  132.8940 C   0  0  0  0  0  0  0  0  0  0  0  0
  147.2490  154.1160  133.1380 N   0  0  0  0  0  0  0  0  0  0  0  0
  147.9530  152.9940  132.8960 C   0  0  0  0  0  0  0  0  0  0  0  0
  149.2310  153.3350  132.5180 C   0  0  0  0  0  0  0  0  0  0  0  0
  149.3130  154.6410  132.5250 O   0  0  0  0  0  0  0  0  0  0  0  0
  146.4890  156.9590  133.2070 C   0  0  0  0  0  0  0  0  0  0  0  0
  146.2310  158.3300  133.3340 C   0  0  0  0  0  0  0  0  0  0  0  0
  145.0390  158.9480  133.4930 N   0  0  0  0  0  0  0  0  0  0  0  0
  143.7520  158.3110  133.5410 C   0  0  0  0  0  0  0  0  0  0  0  0
  143.3570  157.6180  132.5640 O   0  0  0  0  0  0  0  0  0  0  0  0
  142.9560  158.4380  134.6860 O   0  0  0  0  0  0  0  0  0  0  0  0
  141.6400  157.9010  134.8070 C   0  0  0  0  0  0  0  0  0  0  0  0
  140.5800  158.9760  134.5380 C   0  0  0  0  0  0  0  0  0  0  0  0
  140.1390  159.0380  133.0740 C   0  0  0  0  0  0  0  0  0  0  0  0
  141.2380  159.3100  132.2470 O   0  0  0  0  0  0  0  0  0  0  0  0
  142.5450  160.1800  133.7200 H   0  0  0  0  0  0  0  0  0  0  0  0
  147.2019  161.4704  133.3283 H   0  0  0  0  0  0  0  0  0  0  0  0
  149.3679  159.6333  133.0162 H   0  0  0  0  0  0  0  0  0  0  0  0
  149.9037  157.1839  132.8203 H   0  0  0  0  0  0  0  0  0  0  0  0
  147.5675  151.9677  132.9862 H   0  0  0  0  0  0  0  0  0  0  0  0
  150.0388  152.6356  132.2568 H   0  0  0  0  0  0  0  0  0  0  0  0
  145.6703  156.2255  133.2487 H   0  0  0  0  0  0  0  0  0  0  0  0
  141.5166  157.0845  134.0803 H   0  0  0  0  0  0  0  0  0  0  0  0
  141.5073  157.5275  135.8331 H   0  0  0  0  0  0  0  0  0  0  0  0
  139.6984  158.7602  135.1594 H   0  0  0  0  0  0  0  0  0  0  0  0
  141.0322  159.9482  134.7836 H   0  0  0  0  0  0  0  0  0  0  0  0
  139.6984  158.0720  132.7863 H   0  0  0  0  0  0  0  0  0  0  0  0
  139.3956  159.8403  132.9574 H   0  0  0  0  0  0  0  0  0  0  0  0
  142.0320  159.3220  132.8420 H   0  0  0  0  0  0  0  0  0  0  0  0
  1  2  1  0
  2  3  2  0
  2  4  1  0
  4  5  2  0
  5  6  1  0
  6  7  2  0
  7  8  1  0
  8  9  2  0
  9 10  1  0
 10 11  2  0
 11 12  1  0
 12 13  2  0
 13 14  1  0
  9 15  1  0
 15 16  2  0
 16 17  1  0
 17 18  1  0
 18 19  2  0
 18 20  1  0
 20 21  1  0
 21 22  1  0
 22 23  1  0
 23 24  1  0
 17  4  1  0
 16  6  1  0
 14 10  1  0
  1 25  1  0
  5 26  1  0
  7 27  1  0
  8 28  1  0
 12 29  1  0
 13 30  1  0
 15 31  1  0
 21 32  1  0
 21 33  1  0
 22 34  1  0
 22 35  1  0
 23 36  1  0
 23 37  1  0
 24 38  1  0
M  CHG  1   1  -1
M  END
>  <UniqueID>  (32) 
32

>  <SMILES>  (32) 
[NH-]C(=O)c1cc2ccc(-c3ncco3)cc2n1C(=O)OCCCO

>  <Energy>  (32) 
104.27025986338808

>  <Genealogy>  (32) 
[NH-]C(=O)c1cc2ccc(-c3ncco3)cc2n1C(=O)OCCCO (protonated)
[NH-]C(=O)c1cc2ccc(-c3ncco3)cc2n1C(=O)OCCCO (3D coordinates assigned)
[NH-]C(=O)c1cc2ccc(-c3ncco3)cc2n1C(=O)OCCCO (optimized conformer: 104.27025986338808 kcal/mol)

>  <smiles>  (32) 
NC(=O)c1cc2ccc(-c3ncco3)cc2n1C(=O)OCCCO

>  <score_type>  (32) 
oracle

>  <origin>  (32) 
adg

>  <m_score__min__energy>  (32) 
-6.2300000000000004

>  <m_primary>  (32) 
energy

$$$$
32:0
     RDKit          3D

 44 46  0  0  0  0  0  0  0  0999 V2000
  149.9060  151.0160  134.1270 C   0  0  0  0  0  0  0  0  0  0  0  0
  148.8600  151.3130  132.6110 Si  0  0  0  0  0  4  0  0  0  0  0  0
  147.7250  149.8560  132.3400 C   0  0  0  0  0  0  0  0  0  0  0  0
  149.9650  151.5270  131.1230 C   0  0  0  0  0  0  0  0  0  0  0  0
  147.8680  152.8140  132.8470 C   0  0  0  0  0  0  0  0  0  0  0  0
  147.2100  153.8110  133.0040 C   0  0  0  0  0  0  0  0  0  0  0  0
  146.4270  155.0030  133.1900 C   0  0  0  0  0  0  0  0  0  0  0  0
  145.0280  154.9050  133.3760 C   0  0  0  0  0  0  0  0  0  0  0  0
  144.2530  156.0620  133.5690 C   0  0  0  0  0  0  0  0  0  0  0  0
  144.9050  157.2920  133.5630 C   0  0  0  0  0  0  0  0  0  0  0  0
  144.4070  158.5620  133.7470 C   0  0  0  0  0  0  0  0  0  0  0  0
  145.5090  159.4090  133.6460 C   0  0  0  0  0  0  0  0  0  0  0  0
  145.4200  160.8810  133.7410 C   0  0  0  0  0  0  0  0  0  0  0  0
  146.5530  161.6740  134.1010 N   0  0  0  0  0  0  0  0  0  0  0  0
  144.3340  161.4530  133.4600 O   0  0  0  0  0  0  0  0  0  0  0  0
  146.6470  158.6880  133.4290 N   0  0  0  0  0  0  0  0  0  0  0  0
  147.9990  159.1670  133.3570 C   0  0  0  0  0  0  0  0  0  0  0  0
  148.6770  159.2660  134.4140 O   0  0  0  0  0  0  0  0  0  0  0  0
  148.6050  159.5630  132.0730 C   0  0  0  0  0  0  0  0  0  0  0  0
  148.6710  160.8080  131.6140 C   0  0  0  0  0  0  0  0  0  0  0  0
  149.3580  160.7440  130.3480 C   0  0  0  0  0  0  0  0  0  0  0  0
  149.6110  161.7260  129.6020 O   0  0  0  0  0  0  0  0  0  0  0  0
  149.7100  159.4400  130.0570 O   0  0  0  0  0  0  0  0  0  0  0  0
  149.2720  158.6030  131.1200 C   0  0  0  0  0  0  0  0  0  0  0  0
  146.2590  157.3980  133.3710 C   0  0  0  0  0  0  0  0  0  0  0  0
  147.0570  156.2630  133.1910 C   0  0  0  0  0  0  0  0  0  0  0  0
  149.3009  151.1878  135.0294 H   0  0  0  0  0  0  0  0  0  0  0  0
  150.2716  149.9786  134.1227 H   0  0  0  0  0  0  0  0  0  0  0  0
  150.7622  151.7065  134.1227 H   0  0  0  0  0  0  0  0  0  0  0  0
  147.4095  149.4510  133.3129 H   0  0  0  0  0  0  0  0  0  0  0  0
  146.8398  150.1811  131.7737 H   0  0  0  0  0  0  0  0  0  0  0  0
  148.2569  149.0773  131.7737 H   0  0  0  0  0  0  0  0  0  0  0  0
  150.9942  151.7263  131.4562 H   0  0  0  0  0  0  0  0  0  0  0  0
  149.9469  150.6087  130.5177 H   0  0  0  0  0  0  0  0  0  0  0  0
  149.6054  152.3722  130.5177 H   0  0  0  0  0  0  0  0  0  0  0  0
  144.5436  153.9174  133.3696 H   0  0  0  0  0  0  0  0  0  0  0  0
  143.1653  155.9974  133.7200 H   0  0  0  0  0  0  0  0  0  0  0  0
  143.3613  158.8476  133.9340 H   0  0  0  0  0  0  0  0  0  0  0  0
  146.4490  162.7060  134.2250 H   0  0  0  0  0  0  0  0  0  0  0  0
  147.5100  161.2620  134.1520 H   0  0  0  0  0  0  0  0  0  0  0  0
  148.2783  161.7111  132.1040 H   0  0  0  0  0  0  0  0  0  0  0  0
  148.5578  157.8489  130.7578 H   0  0  0  0  0  0  0  0  0  0  0  0
  150.0927  158.0379  131.5860 H   0  0  0  0  0  0  0  0  0  0  0  0
  148.1448  156.3519  133.0542 H   0  0  0  0  0  0  0  0  0  0  0  0
  1  2  1  0
  2  3  1  0
  2  4  1  0
  2  5  1  0
  5  6  3  0
  6  7  1  0
  7  8  2  0
  8  9  1  0
  9 10  2  0
 10 11  1  0
 11 12  2  0
 12 13  1  0
 13 14  1  0
 13 15  2  0
 12 16  1  0
 16 17  1  0
 17 18  2  0
 17 19  1  0
 19 20  2  0
 20 21  1  0
 21 22  2  0
 21 23  1  0
 23 24  1  0
 16 25  1  0
 25 26  2  0
 26  7  1  0
 25 10  1  0
 24 19  1  0
  1 27  1  0
  1 28  1  0
  1 29  1  0
  3 30  1  0
  3 31  1  0
  3 32  1  0
  4 33  1  0
  4 34  1  0
  4 35  1  0
  8 36  1  0
  9 37  1  0
 11 38  1  0
 14 39  1  0
 14 40  1  0
 20 41  1  0
 24 42  1  0
 24 43  1  0
 26 44  1  0
M  END
>  <UniqueID>  (33) 
33

>  <SMILES>  (33) 
C[Si](C)(C)C#Cc1ccc2cc(C(N)=O)n(C(=O)C3=CC(=O)OC3)c2c1

>  <Energy>  (33) 
87.05800352296019

>  <Genealogy>  (33) 
C[Si](C)(C)C#Cc1ccc2cc(C(N)=O)n(C(=O)C3=CC(=O)OC3)c2c1 (3D coordinates assigned)
C[Si](C)(C)C#Cc1ccc2cc(C(N)=O)n(C(=O)C3=CC(=O)OC3)c2c1 (nonaromatic ring conformer: 87.05800352296019 kcal/mol)

>  <smiles>  (33) 
C[Si](C)(C)C#Cc1ccc2cc(C(N)=O)n(C(=O)C3=CC(=O)OC3)c2c1

>  <score_type>  (33) 
oracle

>  <origin>  (33) 
adg

>  <m_score__min__energy>  (33) 
-9.0800000000000001

>  <m_primary>  (33) 
energy

$$$$
33:0
     RDKit          3D

 58 61  0  0  0  0  0  0  0  0999 V2000
  149.9880  150.8930  131.1220 C   0  0  0  0  0  0  0  0  0  0  0  0
  148.8950  151.6080  131.7980 N   0  0  0  0  0  0  0  0  0  0  0  0
  147.6750  150.7880  131.8640 C   0  0  0  0  0  0  0  0  0  0  0  0
  149.2890  152.1700  133.1100 C   0  0  0  0  0  0  0  0  0  0  0  0
  148.5670  153.4860  133.5010 C   0  0  0  0  0  0  0  0  0  0  0  0
  147.8900  154.0950  132.3440 N   0  0  0  0  0  0  0  0  0  0  0  0
  147.6430  155.4930  132.5950 C   0  0  0  0  0  0  0  0  0  0  0  0
  148.7290  156.3990  132.7170 C   0  0  0  0  0  0  0  0  0  0  0  0
  148.5030  157.7570  133.0020 C   0  0  0  0  0  0  0  0  0  0  0  0
  147.1870  158.1790  133.1660 C   0  0  0  0  0  0  0  0  0  0  0  0
  146.6840  159.4260  133.4640 C   0  0  0  0  0  0  0  0  0  0  0  0
  145.3010  159.2620  133.5210 C   0  0  0  0  0  0  0  0  0  0  0  0
  144.3480  160.3680  133.7490 C   0  0  0  0  0  0  0  0  0  0  0  0
  142.9870  160.2280  133.3500 N   0  0  0  0  0  0  0  0  0  0  0  0
  144.7190  161.4310  134.3140 O   0  0  0  0  0  0  0  0  0  0  0  0
  144.9680  157.9630  133.2780 N   0  0  0  0  0  0  0  0  0  0  0  0
  143.6600  157.3720  133.2770 C   0  0  0  0  0  0  0  0  0  0  0  0
  142.9530  157.4710  132.2400 O   0  0  0  0  0  0  0  0  0  0  0  0
  143.1790  156.6380  134.4770 C   0  0  0  0  0  0  0  0  0  0  0  0
  143.7630  155.5570  134.7660 O   0  0  0  0  0  0  0  0  0  0  0  0
  142.0990  157.1000  135.3290 N   0  0  0  0  0  0  0  0  0  0  0  0
  141.9280  156.5750  136.7040 C   0  0  0  0  0  0  0  0  0  0  0  0
  140.8730  157.3660  137.5110 C   0  0  1  0  0  0  0  0  0  0  0  0
  141.3850  158.7680  137.8540 C   0  0  0  0  0  0  0  0  0  0  0  0
  140.9100  159.6260  136.6910 C   0  0  0  0  0  0  0  0  0  0  0  0
  140.1620  158.6410  135.7880 C   0  0  1  0  0  0  0  0  0  0  0  0
  141.1140  158.0330  134.7330 C   0  0  0  0  0  0  0  0  0  0  0  0
  139.6950  157.5900  136.6830 N   0  0  0  0  0  0  0  0  0  0  0  0
  146.1290  157.3170  133.0550 C   0  0  0  0  0  0  0  0  0  0  0  0
  146.3200  155.9600  132.7790 C   0  0  0  0  0  0  0  0  0  0  0  0
  150.6594  150.4538  131.8745 H   0  0  0  0  0  0  0  0  0  0  0  0
  149.5694  150.0936  130.4929 H   0  0  0  0  0  0  0  0  0  0  0  0
  150.5527  151.5968  130.4929 H   0  0  0  0  0  0  0  0  0  0  0  0
  147.4096  150.6096  132.9165 H   0  0  0  0  0  0  0  0  0  0  0  0
  146.8507  151.3161  131.3624 H   0  0  0  0  0  0  0  0  0  0  0  0
  147.8527  149.8253  131.3624 H   0  0  0  0  0  0  0  0  0  0  0  0
  149.0711  151.4182  133.8829 H   0  0  0  0  0  0  0  0  0  0  0  0
  150.3581  152.4167  133.0311 H   0  0  0  0  0  0  0  0  0  0  0  0
  147.8195  153.2663  134.2775 H   0  0  0  0  0  0  0  0  0  0  0  0
  149.3209  154.1958  133.8724 H   0  0  0  0  0  0  0  0  0  0  0  0
  146.9810  153.6050  132.1700 H   0  0  0  0  0  0  0  0  0  0  0  0
  148.4770  153.9960  131.4840 H   0  0  0  0  0  0  0  0  0  0  0  0
  149.7587  156.0345  132.5871 H   0  0  0  0  0  0  0  0  0  0  0  0
  149.3406  158.4643  133.0926 H   0  0  0  0  0  0  0  0  0  0  0  0
  147.2527  160.3540  133.6232 H   0  0  0  0  0  0  0  0  0  0  0  0
  142.7210  159.5990  132.5600 H   0  0  0  0  0  0  0  0  0  0  0  0
  141.6107  155.5235  136.6435 H   0  0  0  0  0  0  0  0  0  0  0  0
  142.8922  156.6764  137.2236 H   0  0  0  0  0  0  0  0  0  0  0  0
  140.6549  156.7825  138.4176 H   0  0  0  0  0  0  0  0  0  0  0  0
  140.9537  159.1209  138.8024 H   0  0  0  0  0  0  0  0  0  0  0  0
  142.4765  158.8002  137.9867 H   0  0  0  0  0  0  0  0  0  0  0  0
  140.2381  160.4232  137.0416 H   0  0  0  0  0  0  0  0  0  0  0  0
  141.7370  160.1330  136.1723 H   0  0  0  0  0  0  0  0  0  0  0  0
  139.3429  159.1335  135.2434 H   0  0  0  0  0  0  0  0  0  0  0  0
  140.5146  157.4862  133.9903 H   0  0  0  0  0  0  0  0  0  0  0  0
  141.6734  158.8599  134.2712 H   0  0  0  0  0  0  0  0  0  0  0  0
  139.4300  156.7260  136.1520 H   0  0  0  0  0  0  0  0  0  0  0  0
  145.4640  155.2730  132.7067 H   0  0  0  0  0  0  0  0  0  0  0  0
  1  2  1  0
  2  3  1  0
  2  4  1  0
  4  5  1  0
  5  6  1  0
  6  7  1  0
  7  8  2  0
  8  9  1  0
  9 10  2  0
 10 11  1  0
 11 12  2  0
 12 13  1  0
 13 14  1  0
 13 15  2  0
 12 16  1  0
 16 17  1  0
 17 18  2  0
 17 19  1  0
 19 20  2  0
 19 21  1  0
 21 22  1  0
 22 23  1  0
 23 24  1  0
 24 25  1  0
 25 26  1  0
 26 27  1  0
 26 28  1  0
 16 29  1  0
 29 30  2  0
 30  7  1  0
 29 10  1  0
 27 21  1  0
 28 23  1  0
  1 31  1  0
  1 32  1  0
  1 33  1  0
  3 34  1  0
  3 35  1  0
  3 36  1  0
  4 37  1  0
  4 38  1  0
  5 39  1  0
  5 40  1  0
  6 41  1  0
  6 42  1  0
  8 43  1  0
  9 44  1  0
 11 45  1  0
 14 46  1  0
 22 47  1  0
 22 48  1  0
 23 49  1  1
 24 50  1  0
 24 51  1  0
 25 52  1  0
 25 53  1  0
 26 54  1  6
 27 55  1  0
 27 56  1  0
 28 57  1  0
 30 58  1  0
M  CHG  2   6   1  14  -1
M  END
>  <UniqueID>  (34) 
34

>  <SMILES>  (34) 
CN(C)CC[NH2+]c1ccc2cc(C([NH-])=O)n(C(=O)C(=O)N3C[C@H]4CC[C@@H](C3)N4)c2c1

>  <Energy>  (34) 
115.57832540402342

>  <Genealogy>  (34) 
CN(C)CC[NH2+]c1ccc2cc(C([NH-])=O)n(C(=O)C(=O)N3CC4CCC(C3)N4)c2c1 (protonated)
CN(C)CC[NH2+]c1ccc2cc(C([NH-])=O)n(C(=O)C(=O)N3C[C@H]4CC[C@@H](C3)N4)c2c1 (chirality)
CN(C)CC[NH2+]c1ccc2cc(C([NH-])=O)n(C(=O)C(=O)N3C[C@H]4CC[C@@H](C3)N4)c2c1 (3D coordinates assigned)
CN(C)CC[NH2+]c1ccc2cc(C([NH-])=O)n(C(=O)C(=O)N3C[C@H]4CC[C@@H](C3)N4)c2c1 (nonaromatic ring conformer: 115.57832540402342 kcal/mol)

>  <smiles>  (34) 
CN(C)CCNc1ccc2cc(C(N)=O)n(C(=O)C(=O)N3CC4CCC(C3)N4)c2c1

>  <score_type>  (34) 
oracle

>  <origin>  (34) 
adg

>  <m_score__min__energy>  (34) 
-8.8699999999999992

>  <m_primary>  (34) 
energy

$$$$
34:0
     RDKit          3D

 48 49  0  0  0  0  0  0  0  0999 V2000
  146.2320  162.5460  133.7280 H   0  0  0  0  0  0  0  0  0  0  0  0
  145.3300  162.4500  134.2450 N   0  0  0  0  0  0  0  0  0  0  0  0
  144.2880  161.6120  133.7550 C   0  0  0  0  0  0  0  0  0  0  0  0
  143.1920  162.1300  133.4110 O   0  0  0  0  0  0  0  0  0  0  0  0
  144.4810  160.1520  133.6180 C   0  0  0  0  0  0  0  0  0  0  0  0
  145.7330  159.5390  133.5740 C   0  0  0  0  0  0  0  0  0  0  0  0
  146.7170  160.0297  133.6047 H   0  0  0  0  0  0  0  0  0  0  0  0
  145.4760  158.1890  133.4840 C   0  0  0  0  0  0  0  0  0  0  0  0
  146.3530  157.1110  133.4030 C   0  0  0  0  0  0  0  0  0  0  0  0
  147.4422  157.2636  133.4192 H   0  0  0  0  0  0  0  0  0  0  0  0
  145.8040  155.8230  133.3000 C   0  0  0  0  0  0  0  0  0  0  0  0
  146.4705  154.9494  133.2483 H   0  0  0  0  0  0  0  0  0  0  0  0
  144.3980  155.6370  133.2620 C   0  0  0  0  0  0  0  0  0  0  0  0
  143.8170  154.2470  133.1960 C   0  0  0  0  0  0  0  0  0  0  0  0
  144.5962  153.5204  133.4698 H   0  0  0  0  0  0  0  0  0  0  0  0
  143.4600  154.0701  132.1707 H   0  0  0  0  0  0  0  0  0  0  0  0
  142.6150  154.0870  134.1650 C   0  0  2  0  0  0  0  0  0  0  0  0
  142.5439  153.0086  134.3701 H   0  0  0  0  0  0  0  0  0  0  0  0
  141.3330  154.5650  133.5200 C   0  0  0  0  0  0  0  0  0  0  0  0
  140.7760  153.8760  132.6230 O   0  0  0  0  0  0  0  0  0  0  0  0
  140.7150  155.7800  133.9710 N   0  0  0  0  0  0  0  0  0  0  0  0
  141.1750  156.3470  134.7180 H   0  0  0  0  0  0  0  0  0  0  0  0
  139.4330  156.2290  133.4450 C   0  0  0  0  0  0  0  0  0  0  0  0
  138.7569  156.4658  134.2797 H   0  0  0  0  0  0  0  0  0  0  0  0
  139.5839  157.1278  132.8290 H   0  0  0  0  0  0  0  0  0  0  0  0
  138.9901  155.4325  132.8290 H   0  0  0  0  0  0  0  0  0  0  0  0
  142.8090  154.7490  135.4870 N   0  0  0  0  0  0  0  0  0  0  0  0
  141.7390  154.3930  136.4360 C   0  0  0  0  0  0  0  0  0  0  0  0
  142.1064  154.5152  137.4656 H   0  0  0  0  0  0  0  0  0  0  0  0
  140.8725  155.0513  136.2754 H   0  0  0  0  0  0  0  0  0  0  0  0
  141.4395  153.3468  136.2754 H   0  0  0  0  0  0  0  0  0  0  0  0
  144.1280  154.5230  136.1080 C   0  0  0  0  0  0  0  0  0  0  0  0
  144.0255  154.5406  137.2031 H   0  0  0  0  0  0  0  0  0  0  0  0
  144.5193  153.5447  135.7920 H   0  0  0  0  0  0  0  0  0  0  0  0
  144.8226  155.3152  135.7920 H   0  0  0  0  0  0  0  0  0  0  0  0
  143.5410  156.7540  133.3480 C   0  0  0  0  0  0  0  0  0  0  0  0
  142.4484  156.6305  133.3175 H   0  0  0  0  0  0  0  0  0  0  0  0
  144.1160  158.0220  133.4730 C   0  0  0  0  0  0  0  0  0  0  0  0
  143.4930  159.2160  133.5630 N   0  0  0  0  0  0  0  0  0  0  0  0
  142.0760  159.4400  133.5380 C   0  0  0  0  0  0  0  0  0  0  0  0
  141.4040  159.0080  132.5630 O   0  0  0  0  0  0  0  0  0  0  0  0
  141.4190  160.0970  134.6900 C   0  0  0  0  0  0  0  0  0  0  0  0
  141.1918  161.1683  134.5866 H   0  0  0  0  0  0  0  0  0  0  0  0
  141.0730  159.5140  135.8490 C   0  0  0  0  0  0  0  0  0  0  0  0
  140.7476  160.1795  136.6622 H   0  0  0  0  0  0  0  0  0  0  0  0
  141.0870  158.0680  136.1370 C   0  0  0  0  0  0  0  0  0  0  0  0
  142.1660  157.4350  136.2730 O   0  0  0  0  0  0  0  0  0  0  0  0
  139.8860  157.3720  136.1630 O   0  0  0  0  0  0  0  0  0  0  0  0
  1  2  1  0
  2  3  1  0
  3  4  2  0
  3  5  1  0
  5  6  2  0
  6  7  1  0
  6  8  1  0
  8  9  2  0
  9 10  1  0
  9 11  1  0
 11 12  1  0
 11 13  2  0
 13 14  1  0
 14 15  1  0
 14 16  1  0
 14 17  1  0
 17 18  1  1
 17 19  1  0
 19 20  2  0
 19 21  1  0
 21 22  1  0
 21 23  1  0
 23 24  1  0
 23 25  1  0
 23 26  1  0
 17 27  1  0
 27 28  1  0
 28 29  1  0
 28 30  1  0
 28 31  1  0
 27 32  1  0
 32 33  1  0
 32 34  1  0
 32 35  1  0
 13 36  1  0
 36 37  1  0
 36 38  2  0
 38 39  1  0
 39 40  1  0
 40 41  2  0
 40 42  1  0
 42 43  1  0
 42 44  2  0
 44 45  1  0
 44 46  1  0
 46 47  2  0
 46 48  1  0
 39  5  1  0
 38  8  1  0
M  CHG  2   2  -1  48  -1
M  END
>  <UniqueID>  (35) 
35

>  <SMILES>  (35) 
CNC(=O)[C@@H](Cc1ccc2cc(C([NH-])=O)n(C(=O)/C=C\C(=O)[O-])c2c1)N(C)C

>  <Energy>  (35) 
93.19614256192503

>  <Genealogy>  (35) 
CNC(=O)[C@@H](Cc1ccc2cc(C([NH-])=O)n(C(=O)C=CC(=O)[O-])c2c1)N(C)C (protonated)
CNC(=O)[C@@H](Cc1ccc2cc(C([NH-])=O)n(C(=O)/C=C\C(=O)[O-])c2c1)N(C)C (cis-trans isomerization)
CNC(=O)[C@@H](Cc1ccc2cc(C([NH-])=O)n(C(=O)/C=C\C(=O)[O-])c2c1)N(C)C (3D coordinates assigned)
CNC(=O)[C@@H](Cc1ccc2cc(C([NH-])=O)n(C(=O)/C=C\C(=O)[O-])c2c1)N(C)C (optimized conformer: 93.19614256192503 kcal/mol)

>  <smiles>  (35) 
CNC(=O)[C@@H](Cc1ccc2cc(C(N)=O)n(C(=O)C=CC(=O)O)c2c1)N(C)C

>  <score_type>  (35) 
oracle

>  <origin>  (35) 
adg

>  <m_score__min__energy>  (35) 
-7.9100000000000001

>  <m_primary>  (35) 
energy

$$$$
35:0
     RDKit          3D

 38 39  0  0  0  0  0  0  0  0999 V2000
  141.7090  158.6470  138.1250 C   0  0  0  0  0  0  0  0  0  0  0  0
  141.3170  158.1230  136.8250 N   0  0  0  0  0  0  0  0  0  0  0  0
  141.4650  158.8700  135.6140 C   0  0  0  0  0  0  0  0  0  0  0  0
  141.0910  160.0730  135.5580 O   0  0  0  0  0  0  0  0  0  0  0  0
  142.0210  158.2050  134.3960 C   0  0  0  0  0  0  0  0  0  0  0  0
  143.3170  158.8570  134.0010 C   0  0  0  0  0  0  0  0  0  0  0  0
  143.4420  160.2690  134.0320 C   0  0  0  0  0  0  0  0  0  0  0  0
  144.6620  160.8870  133.7110 C   0  0  0  0  0  0  0  0  0  0  0  0
  145.7350  160.0700  133.3650 C   0  0  0  0  0  0  0  0  0  0  0  0
  147.0330  160.4010  133.0480 C   0  0  0  0  0  0  0  0  0  0  0  0
  147.6780  159.1880  132.8180 C   0  0  0  0  0  0  0  0  0  0  0  0
  149.0820  159.0850  132.3700 C   0  0  0  0  0  0  0  0  0  0  0  0
  149.7200  157.8170  132.2450 N   0  0  0  0  0  0  0  0  0  0  0  0
  149.7110  160.1270  132.0450 O   0  0  0  0  0  0  0  0  0  0  0  0
  146.8150  158.1470  132.9920 N   0  0  0  0  0  0  0  0  0  0  0  0
  147.1130  156.7440  132.9520 C   0  0  0  0  0  0  0  0  0  0  0  0
  146.6890  156.0390  131.9960 O   0  0  0  0  0  0  0  0  0  0  0  0
  147.8600  156.1630  133.9850 O   0  0  0  0  0  0  0  0  0  0  0  0
  148.0220  154.7560  134.1500 C   0  0  0  0  0  0  0  0  0  0  0  0
  148.6770  154.1360  132.9180 C   0  0  0  0  0  0  0  0  0  0  0  0
  149.4670  155.0840  132.2590 O   0  0  0  0  0  0  0  0  0  0  0  0
  145.6300  158.7030  133.3250 C   0  0  0  0  0  0  0  0  0  0  0  0
  144.4320  158.0610  133.6570 C   0  0  0  0  0  0  0  0  0  0  0  0
  141.2529  158.0373  138.9188 H   0  0  0  0  0  0  0  0  0  0  0  0
  142.8044  158.6119  138.2194 H   0  0  0  0  0  0  0  0  0  0  0  0
  141.3660  159.6879  138.2194 H   0  0  0  0  0  0  0  0  0  0  0  0
  142.1991  157.1410  134.6110 H   0  0  0  0  0  0  0  0  0  0  0  0
  141.3009  158.3031  133.5703 H   0  0  0  0  0  0  0  0  0  0  0  0
  142.5752  160.8865  134.3101 H   0  0  0  0  0  0  0  0  0  0  0  0
  144.7663  161.9818  133.7323 H   0  0  0  0  0  0  0  0  0  0  0  0
  147.4685  161.4094  132.9889 H   0  0  0  0  0  0  0  0  0  0  0  0
  149.6150  157.0880  132.9860 H   0  0  0  0  0  0  0  0  0  0  0  0
  148.6559  154.5668  135.0288 H   0  0  0  0  0  0  0  0  0  0  0  0
  147.0299  154.3012  134.2876 H   0  0  0  0  0  0  0  0  0  0  0  0
  149.3084  153.2908  133.2294 H   0  0  0  0  0  0  0  0  0  0  0  0
  147.8908  153.7867  132.2325 H   0  0  0  0  0  0  0  0  0  0  0  0
  148.8740  155.8600  132.0830 H   0  0  0  0  0  0  0  0  0  0  0  0
  144.3602  156.9634  133.6503 H   0  0  0  0  0  0  0  0  0  0  0  0
  1  2  1  0
  2  3  1  0
  3  4  2  0
  3  5  1  0
  5  6  1  0
  6  7  2  0
  7  8  1  0
  8  9  2  0
  9 10  1  0
 10 11  2  0
 11 12  1  0
 12 13  1  0
 12 14  2  0
 11 15  1  0
 15 16  1  0
 16 17  2  0
 16 18  1  0
 18 19  1  0
 19 20  1  0
 20 21  1  0
 15 22  1  0
 22 23  2  0
 23  6  1  0
 22  9  1  0
  1 24  1  0
  1 25  1  0
  1 26  1  0
  5 27  1  0
  5 28  1  0
  7 29  1  0
  8 30  1  0
 10 31  1  0
 13 32  1  0
 19 33  1  0
 19 34  1  0
 20 35  1  0
 20 36  1  0
 21 37  1  0
 23 38  1  0
M  CHG  2   2  -1  13  -1
M  END
>  <UniqueID>  (36) 
36

>  <SMILES>  (36) 
C[N-]C(=O)Cc1ccc2cc(C([NH-])=O)n(C(=O)OCCO)c2c1

>  <Energy>  (36) 
69.08081635766612

>  <Genealogy>  (36) 
C[N-]C(=O)Cc1ccc2cc(C([NH-])=O)n(C(=O)OCCO)c2c1 (protonated)
C[N-]C(=O)Cc1ccc2cc(C([NH-])=O)n(C(=O)OCCO)c2c1 (3D coordinates assigned)
C[N-]C(=O)Cc1ccc2cc(C([NH-])=O)n(C(=O)OCCO)c2c1 (optimized conformer: 69.08081635766612 kcal/mol)

>  <smiles>  (36) 
CNC(=O)Cc1ccc2cc(C(N)=O)n(C(=O)OCCO)c2c1

>  <score_type>  (36) 
oracle

>  <origin>  (36) 
adg

>  <m_score__min__energy>  (36) 
-5.6299999999999999

>  <m_primary>  (36) 
energy

$$$$
36:0
     RDKit          3D

 56 58  0  0  0  0  0  0  0  0999 V2000
  148.2040  150.7490  131.7570 C   0  0  0  0  0  0  0  0  0  0  0  0
  147.8110  151.6590  132.8560 N   0  0  2  0  0  0  0  0  0  0  0  0
  146.5000  152.1930  132.5850 C   0  0  0  0  0  0  0  0  0  0  0  0
  145.9170  151.9160  131.4990 O   0  0  0  0  0  0  0  0  0  0  0  0
  145.8800  153.0080  133.5470 O   0  0  0  0  0  0  0  0  0  0  0  0
  144.5680  153.5830  133.4550 C   0  0  0  0  0  0  0  0  0  0  0  0
  144.2540  154.4210  134.7100 C   0  0  0  0  0  0  0  0  0  0  0  0
  144.4400  154.4420  132.1820 C   0  0  0  0  0  0  0  0  0  0  0  0
  143.5680  152.4210  133.3720 C   0  0  0  0  0  0  0  0  0  0  0  0
  148.7460  152.7740  133.1810 C   0  0  0  0  0  0  0  0  0  0  0  0
  148.2870  153.7930  134.1890 C   0  0  0  0  0  0  0  0  0  0  0  0
  148.1970  154.9190  133.2370 N   0  0  0  0  0  0  0  0  0  0  0  0
  147.8320  156.2990  133.2700 C   0  0  0  0  0  0  0  0  0  0  0  0
  148.8240  157.2950  133.1120 C   0  0  0  0  0  0  0  0  0  0  0  0
  148.4770  158.6560  133.1320 C   0  0  0  0  0  0  0  0  0  0  0  0
  147.1360  158.9850  133.3190 C   0  0  0  0  0  0  0  0  0  0  0  0
  146.5240  160.2170  133.3500 C   0  0  0  0  0  0  0  0  0  0  0  0
  145.1700  159.9500  133.5510 C   0  0  0  0  0  0  0  0  0  0  0  0
  144.1540  161.0060  133.7330 C   0  0  0  0  0  0  0  0  0  0  0  0
  142.7670  160.7250  133.5650 N   0  0  0  0  0  0  0  0  0  0  0  0
  144.5100  162.1610  134.0900 O   0  0  0  0  0  0  0  0  0  0  0  0
  144.9540  158.6060  133.6310 N   0  0  0  0  0  0  0  0  0  0  0  0
  143.6940  157.9260  133.7350 C   0  0  0  0  0  0  0  0  0  0  0  0
  142.9330  157.8520  132.7310 O   0  0  0  0  0  0  0  0  0  0  0  0
  143.3050  157.3680  134.9560 O   0  0  0  0  0  0  0  0  0  0  0  0
  141.9920  157.5200  135.4880 C   0  0  0  0  0  0  0  0  0  0  0  0
  141.4860  158.7760  135.1380 O   0  0  0  0  0  0  0  0  0  0  0  0
  146.1680  158.0290  133.4900 C   0  0  0  0  0  0  0  0  0  0  0  0
  146.4850  156.6660  133.4560 C   0  0  0  0  0  0  0  0  0  0  0  0
  148.6770  153.9420  132.2390 C   0  0  0  0  0  0  0  0  0  0  0  0
  148.6067  149.8165  132.1793 H   0  0  0  0  0  0  0  0  0  0  0  0
  147.3242  150.5210  131.1374 H   0  0  0  0  0  0  0  0  0  0  0  0
  148.9732  151.2331  131.1374 H   0  0  0  0  0  0  0  0  0  0  0  0
  147.7330  151.0750  133.7220 H   0  0  0  0  0  0  0  0  0  0  0  0
  144.4756  153.8296  135.6107 H   0  0  0  0  0  0  0  0  0  0  0  0
  144.8722  155.3308  134.7075 H   0  0  0  0  0  0  0  0  0  0  0  0
  143.1901  154.7006  134.7075 H   0  0  0  0  0  0  0  0  0  0  0  0
  144.2833  155.4937  132.4636 H   0  0  0  0  0  0  0  0  0  0  0  0
  145.3610  154.3551  131.5869 H   0  0  0  0  0  0  0  0  0  0  0  0
  143.5843  154.0904  131.5869 H   0  0  0  0  0  0  0  0  0  0  0  0
  143.2926  152.1010  134.3877 H   0  0  0  0  0  0  0  0  0  0  0  0
  142.6667  152.7506  132.8344 H   0  0  0  0  0  0  0  0  0  0  0  0
  144.0282  151.5789  132.8344 H   0  0  0  0  0  0  0  0  0  0  0  0
  149.6283  152.1364  133.3392 H   0  0  0  0  0  0  0  0  0  0  0  0
  147.3163  153.5383  134.6395 H   0  0  0  0  0  0  0  0  0  0  0  0
  148.9157  153.9372  135.0800 H   0  0  0  0  0  0  0  0  0  0  0  0
  149.8749  157.0015  132.9724 H   0  0  0  0  0  0  0  0  0  0  0  0
  149.2402  159.4378  133.0040 H   0  0  0  0  0  0  0  0  0  0  0  0
  147.0009  161.2021  133.2398 H   0  0  0  0  0  0  0  0  0  0  0  0
  142.4270  159.7450  133.4480 H   0  0  0  0  0  0  0  0  0  0  0  0
  141.3384  156.7353  135.0794 H   0  0  0  0  0  0  0  0  0  0  0  0
  142.0300  157.4342  136.5840 H   0  0  0  0  0  0  0  0  0  0  0  0
  141.7450  158.9260  134.1910 H   0  0  0  0  0  0  0  0  0  0  0  0
  145.7025  155.9015  133.5715 H   0  0  0  0  0  0  0  0  0  0  0  0
  147.9602  153.7849  131.4195 H   0  0  0  0  0  0  0  0  0  0  0  0
  149.5947  154.1972  131.6889 H   0  0  0  0  0  0  0  0  0  0  0  0
  1  2  1  0
  2  3  1  0
  3  4  2  0
  3  5  1  0
  5  6  1  0
  6  7  1  0
  6  8  1  0
  6  9  1  0
  2 10  1  0
 10 11  1  0
 11 12  1  0
 12 13  1  0
 13 14  2  0
 14 15  1  0
 15 16  2  0
 16 17  1  0
 17 18  2  0
 18 19  1  0
 19 20  1  0
 19 21  2  0
 18 22  1  0
 22 23  1  0
 23 24  2  0
 23 25  1  0
 25 26  1  0
 26 27  1  0
 22 28  1  0
 28 29  2  0
 12 30  1  0
 30 10  1  0
 29 13  1  0
 28 16  1  0
  1 31  1  0
  1 32  1  0
  1 33  1  0
  2 34  1  1
  7 35  1  0
  7 36  1  0
  7 37  1  0
  8 38  1  0
  8 39  1  0
  8 40  1  0
  9 41  1  0
  9 42  1  0
  9 43  1  0
 10 44  1  0
 11 45  1  0
 11 46  1  0
 14 47  1  0
 15 48  1  0
 17 49  1  0
 20 50  1  0
 26 51  1  0
 26 52  1  0
 27 53  1  0
 29 54  1  0
 30 55  1  0
 30 56  1  0
M  CHG  2   2   1  20  -1
M  END
>  <UniqueID>  (37) 
37

>  <SMILES>  (37) 
C[N@H+](C(=O)OC(C)(C)C)C1CN(c2ccc3cc(C([NH-])=O)n(C(=O)OCO)c3c2)C1

>  <Energy>  (37) 
142.53262324324047

>  <Genealogy>  (37) 
C[NH+](C(=O)OC(C)(C)C)C1CN(c2ccc3cc(C([NH-])=O)n(C(=O)OCO)c3c2)C1 (protonated)
C[N@H+](C(=O)OC(C)(C)C)C1CN(c2ccc3cc(C([NH-])=O)n(C(=O)OCO)c3c2)C1 (chirality)
C[N@H+](C(=O)OC(C)(C)C)C1CN(c2ccc3cc(C([NH-])=O)n(C(=O)OCO)c3c2)C1 (3D coordinates assigned)
C[N@H+](C(=O)OC(C)(C)C)C1CN(c2ccc3cc(C([NH-])=O)n(C(=O)OCO)c3c2)C1 (nonaromatic ring conformer: 142.53262324324047 kcal/mol)

>  <smiles>  (37) 
CN(C(=O)OC(C)(C)C)C1CN(c2ccc3cc(C(N)=O)n(C(=O)OCO)c3c2)C1

>  <score_type>  (37) 
oracle

>  <origin>  (37) 
adg

>  <m_score__min__energy>  (37) 
-7.7199999999999998

>  <m_primary>  (37) 
energy

$$$$
37:0
     RDKit          3D

 42 43  0  0  0  0  0  0  0  0999 V2000
  149.1390  161.5960  130.7230 C   0  0  0  0  0  0  0  0  0  0  0  0
  148.7250  160.1340  130.9720 C   0  0  0  0  0  0  0  0  0  0  0  0
  148.8660  159.3000  129.6850 C   0  0  0  0  0  0  0  0  0  0  0  0
  149.6370  159.5370  132.0550 C   0  0  0  0  0  0  0  0  0  0  0  0
  147.3810  160.0700  131.4700 O   0  0  0  0  0  0  0  0  0  0  0  0
  146.9940  159.8740  132.8050 C   0  0  0  0  0  0  0  0  0  0  0  0
  147.4020  160.6460  133.7150 O   0  0  0  0  0  0  0  0  0  0  0  0
  146.1250  158.7800  133.1350 N   0  0  0  0  0  0  0  0  0  0  0  0
  144.8390  158.8450  133.5790 C   0  0  0  0  0  0  0  0  0  0  0  0
  144.0140  160.0670  133.6650 C   0  0  0  0  0  0  0  0  0  0  0  0
  144.5690  161.3560  133.3980 N   0  0  0  0  0  0  0  0  0  0  0  0
  142.7860  159.9670  133.9250 O   0  0  0  0  0  0  0  0  0  0  0  0
  144.3640  157.5760  133.9000 C   0  0  0  0  0  0  0  0  0  0  0  0
  145.4060  156.7190  133.6230 C   0  0  0  0  0  0  0  0  0  0  0  0
  145.4870  155.3370  133.7620 C   0  0  0  0  0  0  0  0  0  0  0  0
  146.7000  154.7110  133.4290 C   0  0  0  0  0  0  0  0  0  0  0  0
  147.8090  155.4760  132.9850 C   0  0  0  0  0  0  0  0  0  0  0  0
  149.1010  154.7960  132.6140 C   0  0  0  0  0  0  0  0  0  0  0  0
  148.9810  153.2740  132.7180 C   0  0  0  0  0  0  0  0  0  0  0  0
  149.5820  152.6520  131.6130 O   0  0  0  0  0  0  0  0  0  0  0  0
  147.6870  156.8770  132.8520 C   0  0  0  0  0  0  0  0  0  0  0  0
  146.4590  157.4710  133.1670 C   0  0  0  0  0  0  0  0  0  0  0  0
  149.2833  162.1055  131.6872 H   0  0  0  0  0  0  0  0  0  0  0  0
  150.0789  161.6188  130.1520 H   0  0  0  0  0  0  0  0  0  0  0  0
  148.3506  162.1082  130.1520 H   0  0  0  0  0  0  0  0  0  0  0  0
  149.0440  158.2469  129.9482 H   0  0  0  0  0  0  0  0  0  0  0  0
  147.9418  159.3790  129.0938 H   0  0  0  0  0  0  0  0  0  0  0  0
  149.7129  159.6784  129.0938 H   0  0  0  0  0  0  0  0  0  0  0  0
  149.2430  159.7949  133.0491 H   0  0  0  0  0  0  0  0  0  0  0  0
  149.6685  158.4429  131.9456 H   0  0  0  0  0  0  0  0  0  0  0  0
  150.6523  159.9458  131.9456 H   0  0  0  0  0  0  0  0  0  0  0  0
  145.5340  161.4590  133.0120 H   0  0  0  0  0  0  0  0  0  0  0  0
  143.9820  162.2120  133.5060 H   0  0  0  0  0  0  0  0  0  0  0  0
  143.3697  157.3142  134.2910 H   0  0  0  0  0  0  0  0  0  0  0  0
  144.6275  154.7523  134.1216 H   0  0  0  0  0  0  0  0  0  0  0  0
  146.7905  153.6180  133.5133 H   0  0  0  0  0  0  0  0  0  0  0  0
  149.3626  155.0645  131.5799 H   0  0  0  0  0  0  0  0  0  0  0  0
  149.8814  155.1303  133.3135 H   0  0  0  0  0  0  0  0  0  0  0  0
  149.4789  152.9347  133.6383 H   0  0  0  0  0  0  0  0  0  0  0  0
  147.9148  153.0041  132.7389 H   0  0  0  0  0  0  0  0  0  0  0  0
  150.5450  152.8940  131.6360 H   0  0  0  0  0  0  0  0  0  0  0  0
  148.5362  157.4865  132.5093 H   0  0  0  0  0  0  0  0  0  0  0  0
  1  2  1  0
  2  3  1  0
  2  4  1  0
  2  5  1  0
  5  6  1  0
  6  7  2  0
  6  8  1  0
  8  9  1  0
  9 10  1  0
 10 11  1  0
 10 12  2  0
  9 13  2  0
 13 14  1  0
 14 15  2  0
 15 16  1  0
 16 17  2  0
 17 18  1  0
 18 19  1  0
 19 20  1  0
 17 21  1  0
 21 22  2  0
 22  8  1  0
 22 14  1  0
  1 23  1  0
  1 24  1  0
  1 25  1  0
  3 26  1  0
  3 27  1  0
  3 28  1  0
  4 29  1  0
  4 30  1  0
  4 31  1  0
 11 32  1  0
 11 33  1  0
 13 34  1  0
 15 35  1  0
 16 36  1  0
 18 37  1  0
 18 38  1  0
 19 39  1  0
 19 40  1  0
 20 41  1  0
 21 42  1  0
M  END
>  <UniqueID>  (38) 
38

>  <SMILES>  (38) 
CC(C)(C)OC(=O)n1c(C(N)=O)cc2ccc(CCO)cc21

>  <Energy>  (38) 
73.19841118604057

>  <Genealogy>  (38) 
CC(C)(C)OC(=O)n1c(C(N)=O)cc2ccc(CCO)cc21 (3D coordinates assigned)
CC(C)(C)OC(=O)n1c(C(N)=O)cc2ccc(CCO)cc21 (optimized conformer: 73.19841118604057 kcal/mol)

>  <smiles>  (38) 
CC(C)(C)OC(=O)n1c(C(N)=O)cc2ccc(CCO)cc21

>  <score_type>  (38) 
oracle

>  <origin>  (38) 
adg

>  <m_score__min__energy>  (38) 
-7.1900000000000004

>  <m_primary>  (38) 
energy

$$$$
38:0
     RDKit          3D

 30 31  0  0  0  0  0  0  0  0999 V2000
  149.5570  162.2260  130.3410 C   0  0  0  0  0  0  0  0  0  0  0  0
  149.8520  160.8420  130.0000 N   0  0  0  0  0  0  0  0  0  0  0  0
  149.3450  159.7020  130.7060 C   0  0  0  0  0  0  0  0  0  0  0  0
  149.0050  158.6830  130.0470 O   0  0  0  0  0  0  0  0  0  0  0  0
  149.2350  159.6710  132.2060 C   0  0  0  0  0  0  0  0  0  0  0  0
  147.8720  159.2010  132.6380 C   0  0  0  0  0  0  0  0  0  0  0  0
  147.5750  157.8160  132.6950 C   0  0  0  0  0  0  0  0  0  0  0  0
  146.3020  157.3700  133.0850 C   0  0  0  0  0  0  0  0  0  0  0  0
  145.3510  158.3290  133.4250 C   0  0  0  0  0  0  0  0  0  0  0  0
  144.0410  158.1750  133.8150 C   0  0  0  0  0  0  0  0  0  0  0  0
  143.5620  159.4680  134.0190 C   0  0  0  0  0  0  0  0  0  0  0  0
  142.2080  159.7600  134.5330 C   0  0  0  0  0  0  0  0  0  0  0  0
  141.2590  160.4190  133.6970 N   0  0  0  0  0  0  0  0  0  0  0  0
  141.8660  159.4010  135.6900 O   0  0  0  0  0  0  0  0  0  0  0  0
  144.5360  160.3860  133.7600 N   0  0  0  0  0  0  0  0  0  0  0  0
  144.4230  161.8180  133.7820 C   0  0  0  0  0  0  0  0  0  0  0  0
  143.3810  162.3800  133.3530 O   0  0  0  0  0  0  0  0  0  0  0  0
  145.4490  162.5970  134.3020 O   0  0  0  0  0  0  0  0  0  0  0  0
  145.6270  159.6720  133.4010 C   0  0  0  0  0  0  0  0  0  0  0  0
  146.8820  160.1430  132.9980 C   0  0  0  0  0  0  0  0  0  0  0  0
  149.5333  162.3370  131.4351 H   0  0  0  0  0  0  0  0  0  0  0  0
  150.3358  162.8807  129.9228 H   0  0  0  0  0  0  0  0  0  0  0  0
  148.5790  162.5062  129.9228 H   0  0  0  0  0  0  0  0  0  0  0  0
  149.9958  158.9859  132.6083 H   0  0  0  0  0  0  0  0  0  0  0  0
  149.3919  160.6899  132.5897 H   0  0  0  0  0  0  0  0  0  0  0  0
  148.3507  157.0823  132.4307 H   0  0  0  0  0  0  0  0  0  0  0  0
  146.0633  156.2968  133.1209 H   0  0  0  0  0  0  0  0  0  0  0  0
  143.4887  157.2319  133.9395 H   0  0  0  0  0  0  0  0  0  0  0  0
  141.5190  161.2750  133.1590 H   0  0  0  0  0  0  0  0  0  0  0  0
  147.0929  161.2220  132.9623 H   0  0  0  0  0  0  0  0  0  0  0  0
  1  2  1  0
  2  3  1  0
  3  4  2  0
  3  5  1  0
  5  6  1  0
  6  7  2  0
  7  8  1  0
  8  9  2  0
  9 10  1  0
 10 11  2  0
 11 12  1  0
 12 13  1  0
 12 14  2  0
 11 15  1  0
 15 16  1  0
 16 17  2  0
 16 18  1  0
 15 19  1  0
 19 20  2  0
 20  6  1  0
 19  9  1  0
  1 21  1  0
  1 22  1  0
  1 23  1  0
  5 24  1  0
  5 25  1  0
  7 26  1  0
  8 27  1  0
 10 28  1  0
 13 29  1  0
 20 30  1  0
M  CHG  3   2  -1  13  -1  18  -1
M  END
>  <UniqueID>  (39) 
39

>  <SMILES>  (39) 
C[N-]C(=O)Cc1ccc2cc(C([NH-])=O)n(C(=O)[O-])c2c1

>  <Energy>  (39) 
66.10554698403449

>  <Genealogy>  (39) 
C[N-]C(=O)Cc1ccc2cc(C([NH-])=O)n(C(=O)[O-])c2c1 (protonated)
C[N-]C(=O)Cc1ccc2cc(C([NH-])=O)n(C(=O)[O-])c2c1 (3D coordinates assigned)
C[N-]C(=O)Cc1ccc2cc(C([NH-])=O)n(C(=O)[O-])c2c1 (optimized conformer: 66.10554698403449 kcal/mol)

>  <smiles>  (39) 
CNC(=O)Cc1ccc2cc(C(N)=O)n(C(=O)O)c2c1

>  <score_type>  (39) 
oracle

>  <origin>  (39) 
adg

>  <m_score__min__energy>  (39) 
-6.3300000000000001

>  <m_primary>  (39) 
energy

$$$$
39:0
     RDKit          3D

 57 59  0  0  0  0  0  0  0  0999 V2000
  141.6780  151.4800  133.0470 C   0  0  0  0  0  0  0  0  0  0  0  0
  141.5400  152.9270  132.6040 C   0  0  0  0  0  0  0  0  0  0  0  0
  140.7100  153.6280  133.5240 O   0  0  0  0  0  0  0  0  0  0  0  0
  140.8200  155.0050  133.7420 C   0  0  0  0  0  0  0  0  0  0  0  0
  140.3050  155.8270  132.9350 O   0  0  0  0  0  0  0  0  0  0  0  0
  141.5960  155.5070  134.9200 C   0  0  0  0  0  0  0  0  0  0  0  0
  142.6980  154.5870  135.2340 N   0  0  0  0  0  0  0  0  0  0  0  0
  142.5000  153.5260  136.2290 C   0  0  0  0  0  0  0  0  0  0  0  0
  143.9730  154.7430  134.5700 C   0  0  0  0  0  0  0  0  0  0  0  0
  144.0550  154.5290  133.3280 O   0  0  0  0  0  0  0  0  0  0  0  0
  145.2170  155.1150  135.3420 C   0  0  0  0  0  0  0  0  0  0  0  0
  146.2780  155.7230  134.4610 C   0  0  0  0  0  0  0  0  0  0  0  0
  147.3440  154.9220  133.9810 C   0  0  0  0  0  0  0  0  0  0  0  0
  148.3490  155.4770  133.1730 C   0  0  0  0  0  0  0  0  0  0  0  0
  148.2730  156.8360  132.8790 C   0  0  0  0  0  0  0  0  0  0  0  0
  149.0920  157.6230  132.1010 C   0  0  0  0  0  0  0  0  0  0  0  0
  148.5340  158.8990  132.1480 C   0  0  0  0  0  0  0  0  0  0  0  0
  149.1410  160.0800  131.5020 C   0  0  0  0  0  0  0  0  0  0  0  0
  148.3320  161.2140  131.1910 N   0  0  0  0  0  0  0  0  0  0  0  0
  150.3620  160.0890  131.1920 O   0  0  0  0  0  0  0  0  0  0  0  0
  147.4120  158.9000  132.9230 N   0  0  0  0  0  0  0  0  0  0  0  0
  146.5100  159.9910  133.1590 C   0  0  0  0  0  0  0  0  0  0  0  0
  146.9350  161.0540  133.6860 O   0  0  0  0  0  0  0  0  0  0  0  0
  145.1580  159.8550  132.8280 O   0  0  0  0  0  0  0  0  0  0  0  0
  144.0920  160.2270  133.6990 C   0  0  0  0  0  0  0  0  0  0  0  0
  143.0660  159.0870  133.8220 C   0  0  0  0  0  0  0  0  0  0  0  0
  143.2730  157.8160  132.9910 C   0  0  0  0  0  0  0  0  0  0  0  0
  142.3560  158.9260  135.1590 C   0  0  0  0  0  0  0  0  0  0  0  0
  141.6190  159.5380  133.9720 C   0  0  0  0  0  0  0  0  0  0  0  0
  147.2660  157.6310  133.3620 C   0  0  0  0  0  0  0  0  0  0  0  0
  146.2410  157.1000  134.1540 C   0  0  0  0  0  0  0  0  0  0  0  0
  141.6826  151.4318  134.1459 H   0  0  0  0  0  0  0  0  0  0  0  0
  140.8316  150.8951  132.6579 H   0  0  0  0  0  0  0  0  0  0  0  0
  142.6197  151.0656  132.6579 H   0  0  0  0  0  0  0  0  0  0  0  0
  142.5337  153.3978  132.5745 H   0  0  0  0  0  0  0  0  0  0  0  0
  141.0876  152.9621  131.6019 H   0  0  0  0  0  0  0  0  0  0  0  0
  142.0075  156.5001  134.6870 H   0  0  0  0  0  0  0  0  0  0  0  0
  140.9251  155.5718  135.7893 H   0  0  0  0  0  0  0  0  0  0  0  0
  142.5795  153.9520  137.2400 H   0  0  0  0  0  0  0  0  0  0  0  0
  141.5032  153.0802  136.0963 H   0  0  0  0  0  0  0  0  0  0  0  0
  143.2690  152.7507  136.0963 H   0  0  0  0  0  0  0  0  0  0  0  0
  144.9452  155.8422  136.1213 H   0  0  0  0  0  0  0  0  0  0  0  0
  145.6299  154.1934  135.7780 H   0  0  0  0  0  0  0  0  0  0  0  0
  147.3844  153.8547  134.2442 H   0  0  0  0  0  0  0  0  0  0  0  0
  149.1708  154.8577  132.7843 H   0  0  0  0  0  0  0  0  0  0  0  0
  149.9957  157.3106  131.5573 H   0  0  0  0  0  0  0  0  0  0  0  0
  147.7770  161.6960  131.9330 H   0  0  0  0  0  0  0  0  0  0  0  0
  144.5015  160.4530  134.6946 H   0  0  0  0  0  0  0  0  0  0  0  0
  143.5885  161.1121  133.2831 H   0  0  0  0  0  0  0  0  0  0  0  0
  143.4129  156.9569  133.6636 H   0  0  0  0  0  0  0  0  0  0  0  0
  142.3909  157.6450  132.3565 H   0  0  0  0  0  0  0  0  0  0  0  0
  144.1638  157.9338  132.3565 H   0  0  0  0  0  0  0  0  0  0  0  0
  142.0820  157.9234  135.5191 H   0  0  0  0  0  0  0  0  0  0  0  0
  142.5628  159.2406  136.1926 H   0  0  0  0  0  0  0  0  0  0  0  0
  140.8135  158.9768  133.4757 H   0  0  0  0  0  0  0  0  0  0  0  0
  141.0740  160.4768  133.7943 H   0  0  0  0  0  0  0  0  0  0  0  0
  145.4277  157.7396  134.5274 H   0  0  0  0  0  0  0  0  0  0  0  0
  1  2  1  0
  2  3  1  0
  3  4  1  0
  4  5  2  0
  4  6  1  0
  6  7  1  0
  7  8  1  0
  7  9  1  0
  9 10  2  0
  9 11  1  0
 11 12  1  0
 12 13  2  0
 13 14  1  0
 14 15  2  0
 15 16  1  0
 16 17  2  0
 17 18  1  0
 18 19  1  0
 18 20  2  0
 17 21  1  0
 21 22  1  0
 22 23  2  0
 22 24  1  0
 24 25  1  0
 25 26  1  0
 26 27  1  0
 26 28  1  0
 28 29  1  0
 21 30  1  0
 30 31  2  0
 31 12  1  0
 30 15  1  0
 29 26  1  0
  1 32  1  0
  1 33  1  0
  1 34  1  0
  2 35  1  0
  2 36  1  0
  6 37  1  0
  6 38  1  0
  8 39  1  0
  8 40  1  0
  8 41  1  0
 11 42  1  0
 11 43  1  0
 13 44  1  0
 14 45  1  0
 16 46  1  0
 19 47  1  0
 25 48  1  0
 25 49  1  0
 27 50  1  0
 27 51  1  0
 27 52  1  0
 28 53  1  0
 28 54  1  0
 29 55  1  0
 29 56  1  0
 31 57  1  0
M  CHG  1  19  -1
M  END
>  <UniqueID>  (40) 
40

>  <SMILES>  (40) 
CCOC(=O)CN(C)C(=O)Cc1ccc2cc(C([NH-])=O)n(C(=O)OCC3(C)CC3)c2c1

>  <Energy>  (40) 
350.57483043039474

>  <Genealogy>  (40) 
CCOC(=O)CN(C)C(=O)Cc1ccc2cc(C([NH-])=O)n(C(=O)OCC3(C)CC3)c2c1 (protonated)
CCOC(=O)CN(C)C(=O)Cc1ccc2cc(C([NH-])=O)n(C(=O)OCC3(C)CC3)c2c1 (3D coordinates assigned)
CCOC(=O)CN(C)C(=O)Cc1ccc2cc(C([NH-])=O)n(C(=O)OCC3(C)CC3)c2c1 (nonaromatic ring conformer: 350.57483043039474 kcal/mol)

>  <smiles>  (40) 
CCOC(=O)CN(C)C(=O)Cc1ccc2cc(C(N)=O)n(C(=O)OCC3(C)CC3)c2c1

>  <score_type>  (40) 
oracle

>  <origin>  (40) 
adg

>  <m_score__min__energy>  (40) 
-7.6200000000000001

>  <m_primary>  (40) 
energy

$$$$
40:0
     RDKit          3D

 42 44  0  0  0  0  0  0  0  0999 V2000
  140.1740  147.6940  131.1030 C   0  0  0  0  0  0  0  0  0  0  0  0
  140.0960  149.1590  131.0690 N   0  0  0  0  0  0  0  0  0  0  0  0
  139.4940  149.8350  129.9170 C   0  0  0  0  0  0  0  0  0  0  0  0
  140.6070  149.9140  132.1900 C   0  0  0  0  0  0  0  0  0  0  0  0
  141.0830  149.3020  133.1860 O   0  0  0  0  0  0  0  0  0  0  0  0
  140.5810  151.3520  132.1950 N   0  0  0  0  0  0  0  0  0  0  0  0
  141.0760  152.1130  133.3470 C   0  0  0  0  0  0  0  0  0  0  0  0
  141.4900  153.5040  132.9840 C   0  0  0  0  0  0  0  0  0  0  0  0
  142.9280  153.3130  133.2450 N   0  0  0  0  0  0  0  0  0  0  0  0
  144.1260  154.0890  133.1830 C   0  0  0  0  0  0  0  0  0  0  0  0
  145.3740  153.4490  132.9970 C   0  0  0  0  0  0  0  0  0  0  0  0
  146.5600  154.1990  132.9480 C   0  0  0  0  0  0  0  0  0  0  0  0
  146.4630  155.5820  133.0820 C   0  0  0  0  0  0  0  0  0  0  0  0
  147.4500  156.5400  133.0990 C   0  0  0  0  0  0  0  0  0  0  0  0
  146.7850  157.7520  133.2700 C   0  0  0  0  0  0  0  0  0  0  0  0
  147.4710  159.0610  133.2590 C   0  0  0  0  0  0  0  0  0  0  0  0
  147.1650  160.0420  132.2720 N   0  0  0  0  0  0  0  0  0  0  0  0
  148.3760  159.2980  134.1040 O   0  0  0  0  0  0  0  0  0  0  0  0
  145.4390  157.5510  133.3650 N   0  0  0  0  0  0  0  0  0  0  0  0
  144.4180  158.5260  133.6310 C   0  0  0  0  0  0  0  0  0  0  0  0
  144.3890  159.6100  132.9910 O   0  0  0  0  0  0  0  0  0  0  0  0
  143.4670  158.2930  134.6170 O   0  0  0  0  0  0  0  0  0  0  0  0
  145.2590  156.2170  133.2440 C   0  0  0  0  0  0  0  0  0  0  0  0
  144.0640  155.4900  133.3150 C   0  0  0  0  0  0  0  0  0  0  0  0
  142.5410  151.9350  133.6050 C   0  0  0  0  0  0  0  0  0  0  0  0
  140.1922  147.3519  132.1483 H   0  0  0  0  0  0  0  0  0  0  0  0
  139.2973  147.2682  130.5931 H   0  0  0  0  0  0  0  0  0  0  0  0
  141.0910  147.3637  130.5931 H   0  0  0  0  0  0  0  0  0  0  0  0
  138.8010  150.6132  130.2695 H   0  0  0  0  0  0  0  0  0  0  0  0
  140.2852  150.2970  129.3083 H   0  0  0  0  0  0  0  0  0  0  0  0
  138.9438  149.1024  129.3083 H   0  0  0  0  0  0  0  0  0  0  0  0
  140.2620  151.8690  131.3470 H   0  0  0  0  0  0  0  0  0  0  0  0
  140.2928  151.8635  134.0779 H   0  0  0  0  0  0  0  0  0  0  0  0
  141.2783  153.7492  131.9328 H   0  0  0  0  0  0  0  0  0  0  0  0
  140.9904  154.3292  133.5127 H   0  0  0  0  0  0  0  0  0  0  0  0
  145.4155  152.3550  132.8899 H   0  0  0  0  0  0  0  0  0  0  0  0
  147.5352  153.7097  132.8082 H   0  0  0  0  0  0  0  0  0  0  0  0
  148.5340  156.3825  132.9988 H   0  0  0  0  0  0  0  0  0  0  0  0
  146.2190  160.4820  132.2270 H   0  0  0  0  0  0  0  0  0  0  0  0
  143.1018  156.0000  133.4699 H   0  0  0  0  0  0  0  0  0  0  0  0
  142.9994  151.1797  132.9498 H   0  0  0  0  0  0  0  0  0  0  0  0
  142.8354  151.5746  134.6017 H   0  0  0  0  0  0  0  0  0  0  0  0
  1  2  1  0
  2  3  1  0
  2  4  1  0
  4  5  2  0
  4  6  1  0
  6  7  1  0
  7  8  1  0
  8  9  1  0
  9 10  1  0
 10 11  2  0
 11 12  1  0
 12 13  2  0
 13 14  1  0
 14 15  2  0
 15 16  1  0
 16 17  1  0
 16 18  2  0
 15 19  1  0
 19 20  1  0
 20 21  2  0
 20 22  1  0
 19 23  1  0
 23 24  2  0
  9 25  1  0
 25  7  1  0
 24 10  1  0
 23 13  1  0
  1 26  1  0
  1 27  1  0
  1 28  1  0
  3 29  1  0
  3 30  1  0
  3 31  1  0
  6 32  1  0
  7 33  1  0
  8 34  1  0
  8 35  1  0
 11 36  1  0
 12 37  1  0
 14 38  1  0
 17 39  1  0
 24 40  1  0
 25 41  1  0
 25 42  1  0
M  CHG  2  17  -1  22  -1
M  END
>  <UniqueID>  (41) 
41

>  <SMILES>  (41) 
CN(C)C(=O)NC1CN(c2ccc3cc(C([NH-])=O)n(C(=O)[O-])c3c2)C1

>  <Energy>  (41) 
123.7074420666409

>  <Genealogy>  (41) 
CN(C)C(=O)NC1CN(c2ccc3cc(C([NH-])=O)n(C(=O)[O-])c3c2)C1 (protonated)
CN(C)C(=O)NC1CN(c2ccc3cc(C([NH-])=O)n(C(=O)[O-])c3c2)C1 (3D coordinates assigned)
CN(C)C(=O)NC1CN(c2ccc3cc(C([NH-])=O)n(C(=O)[O-])c3c2)C1 (nonaromatic ring conformer: 123.7074420666409 kcal/mol)

>  <smiles>  (41) 
CN(C)C(=O)NC1CN(c2ccc3cc(C(N)=O)n(C(=O)O)c3c2)C1

>  <score_type>  (41) 
oracle

>  <origin>  (41) 
adg

>  <m_score__min__energy>  (41) 
-7.5999999999999996

>  <m_primary>  (41) 
energy

$$$$
41:0
     RDKit          3D

 44 45  0  0  0  0  0  0  0  0999 V2000
  149.9360  150.8480  131.0110 C   0  0  0  0  0  0  0  0  0  0  0  0
  148.8920  151.7010  131.6080 N   0  0  0  0  0  0  0  0  0  0  0  0
  147.7080  150.8830  131.9150 C   0  0  0  0  0  0  0  0  0  0  0  0
  149.3850  152.3550  132.8370 C   0  0  0  0  0  0  0  0  0  0  0  0
  148.8780  153.7300  132.9230 C   0  0  0  0  0  0  0  0  0  0  0  0
  148.4590  154.8570  132.9920 C   0  0  0  0  0  0  0  0  0  0  0  0
  147.9580  156.2040  133.0680 C   0  0  0  0  0  0  0  0  0  0  0  0
  148.8570  157.2950  133.0000 C   0  0  0  0  0  0  0  0  0  0  0  0
  148.3800  158.6150  133.0790 C   0  0  0  0  0  0  0  0  0  0  0  0
  147.0080  158.8050  133.2160 C   0  0  0  0  0  0  0  0  0  0  0  0
  146.2810  159.9680  133.3410 C   0  0  0  0  0  0  0  0  0  0  0  0
  144.9530  159.5630  133.4630 C   0  0  0  0  0  0  0  0  0  0  0  0
  143.8160  160.5010  133.5670 C   0  0  0  0  0  0  0  0  0  0  0  0
  142.5150  160.0880  133.1540 N   0  0  0  0  0  0  0  0  0  0  0  0
  143.9740  161.6570  134.0400 O   0  0  0  0  0  0  0  0  0  0  0  0
  144.8620  158.2040  133.4140 N   0  0  0  0  0  0  0  0  0  0  0  0
  143.6840  157.3960  133.5660 C   0  0  0  0  0  0  0  0  0  0  0  0
  142.9000  157.2590  132.5890 O   0  0  0  0  0  0  0  0  0  0  0  0
  143.4130  156.7040  134.8450 C   0  0  0  0  0  0  0  0  0  0  0  0
  144.2150  155.8030  135.2130 O   0  0  0  0  0  0  0  0  0  0  0  0
  142.2770  157.0250  135.6800 N   0  0  0  0  0  0  0  0  0  0  0  0
  141.9220  156.1130  136.7720 C   0  0  0  0  0  0  0  0  0  0  0  0
  141.5450  158.2860  135.5200 C   0  0  0  0  0  0  0  0  0  0  0  0
  146.1270  157.7550  133.2660 C   0  0  0  0  0  0  0  0  0  0  0  0
  146.5760  156.4300  133.2110 C   0  0  0  0  0  0  0  0  0  0  0  0
  150.5208  150.3702  131.8108 H   0  0  0  0  0  0  0  0  0  0  0  0
  149.4648  150.0732  130.3884 H   0  0  0  0  0  0  0  0  0  0  0  0
  150.6013  151.4642  130.3884 H   0  0  0  0  0  0  0  0  0  0  0  0
  147.5910  150.8022  133.0058 H   0  0  0  0  0  0  0  0  0  0  0  0
  146.8134  151.3566  131.4844 H   0  0  0  0  0  0  0  0  0  0  0  0
  147.8345  149.8787  131.4844 H   0  0  0  0  0  0  0  0  0  0  0  0
  149.0408  151.7862  133.7134 H   0  0  0  0  0  0  0  0  0  0  0  0
  150.4844  152.3808  132.8114 H   0  0  0  0  0  0  0  0  0  0  0  0
  149.9350  157.1090  132.8847 H   0  0  0  0  0  0  0  0  0  0  0  0
  149.0695  159.4709  133.0339 H   0  0  0  0  0  0  0  0  0  0  0  0
  146.6667  160.9982  133.3439 H   0  0  0  0  0  0  0  0  0  0  0  0
  142.3930  159.3610  132.4140 H   0  0  0  0  0  0  0  0  0  0  0  0
  142.1134  156.6047  137.7372 H   0  0  0  0  0  0  0  0  0  0  0  0
  140.8562  155.8509  136.6990 H   0  0  0  0  0  0  0  0  0  0  0  0
  142.5301  155.1993  136.6990 H   0  0  0  0  0  0  0  0  0  0  0  0
  141.3052  158.6990  136.5109 H   0  0  0  0  0  0  0  0  0  0  0  0
  142.1672  159.0032  134.9646 H   0  0  0  0  0  0  0  0  0  0  0  0
  140.6137  158.1014  134.9646 H   0  0  0  0  0  0  0  0  0  0  0  0
  145.8692  155.5898  133.2776 H   0  0  0  0  0  0  0  0  0  0  0  0
  1  2  1  0
  2  3  1  0
  2  4  1  0
  4  5  1  0
  5  6  3  0
  6  7  1  0
  7  8  2  0
  8  9  1  0
  9 10  2  0
 10 11  1  0
 11 12  2  0
 12 13  1  0
 13 14  1  0
 13 15  2  0
 12 16  1  0
 16 17  1  0
 17 18  2  0
 17 19  1  0
 19 20  2  0
 19 21  1  0
 21 22  1  0
 21 23  1  0
 16 24  1  0
 24 25  2  0
 25  7  1  0
 24 10  1  0
  1 26  1  0
  1 27  1  0
  1 28  1  0
  3 29  1  0
  3 30  1  0
  3 31  1  0
  4 32  1  0
  4 33  1  0
  8 34  1  0
  9 35  1  0
 11 36  1  0
 14 37  1  0
 22 38  1  0
 22 39  1  0
 22 40  1  0
 23 41  1  0
 23 42  1  0
 23 43  1  0
 25 44  1  0
M  CHG  1  14  -1
M  END
>  <UniqueID>  (42) 
42

>  <SMILES>  (42) 
CN(C)CC#Cc1ccc2cc(C([NH-])=O)n(C(=O)C(=O)N(C)C)c2c1

>  <Energy>  (42) 
78.72153984579218

>  <Genealogy>  (42) 
CN(C)CC#Cc1ccc2cc(C([NH-])=O)n(C(=O)C(=O)N(C)C)c2c1 (protonated)
CN(C)CC#Cc1ccc2cc(C([NH-])=O)n(C(=O)C(=O)N(C)C)c2c1 (3D coordinates assigned)
CN(C)CC#Cc1ccc2cc(C([NH-])=O)n(C(=O)C(=O)N(C)C)c2c1 (optimized conformer: 78.72153984579218 kcal/mol)

>  <smiles>  (42) 
CN(C)CC#Cc1ccc2cc(C(N)=O)n(C(=O)C(=O)N(C)C)c2c1

>  <score_type>  (42) 
oracle

>  <origin>  (42) 
adg

>  <m_score__min__energy>  (42) 
-7.9000000000000004

>  <m_primary>  (42) 
energy

$$$$
42:0
     RDKit          3D

 30 32  0  0  0  0  0  0  0  0999 V2000
  140.4550  159.3360  135.9140 N   0  0  0  0  0  0  0  0  0  0  0  0
  140.8940  158.2370  135.1130 C   0  0  0  0  0  0  0  0  0  0  0  0
  140.0590  157.3650  134.7500 O   0  0  0  0  0  0  0  0  0  0  0  0
  142.2920  158.1390  134.6490 C   0  0  0  0  0  0  0  0  0  0  0  0
  143.0310  156.9620  134.6930 C   0  0  0  0  0  0  0  0  0  0  0  0
  144.2400  157.2710  134.1140 C   0  0  0  0  0  0  0  0  0  0  0  0
  145.3620  156.4740  133.9100 C   0  0  0  0  0  0  0  0  0  0  0  0
  146.4920  157.0630  133.3210 C   0  0  0  0  0  0  0  0  0  0  0  0
  146.4880  158.4350  132.9560 C   0  0  0  0  0  0  0  0  0  0  0  0
  147.6770  159.0710  132.3460 C   0  0  0  0  0  0  0  0  0  0  0  0
  149.0050  158.8960  132.6880 C   0  0  0  0  0  0  0  0  0  0  0  0
  149.7680  159.6620  131.8850 N   0  0  0  0  0  0  0  0  0  0  0  0
  148.8680  160.2700  131.0850 C   0  0  0  0  0  0  0  0  0  0  0  0
  149.2390  161.2160  130.0320 C   0  0  0  0  0  0  0  0  0  0  0  0
  149.5610  162.3970  130.3230 O   0  0  0  0  0  0  0  0  0  0  0  0
  147.6300  159.9260  131.3540 O   0  0  0  0  0  0  0  0  0  0  0  0
  145.3280  159.2110  133.1830 C   0  0  0  0  0  0  0  0  0  0  0  0
  144.2080  158.5930  133.7520 C   0  0  0  0  0  0  0  0  0  0  0  0
  143.0150  159.1440  134.0780 N   0  0  0  0  0  0  0  0  0  0  0  0
  142.6430  160.5270  133.9650 C   0  0  0  0  0  0  0  0  0  0  0  0
  141.4380  160.8760  134.0720 O   0  0  0  0  0  0  0  0  0  0  0  0
  143.6100  161.4970  133.7280 O   0  0  0  0  0  0  0  0  0  0  0  0
  141.0770  160.1540  136.0920 H   0  0  0  0  0  0  0  0  0  0  0  0
  139.4710  159.3690  136.2630 H   0  0  0  0  0  0  0  0  0  0  0  0
  142.7161  155.9911  135.1032 H   0  0  0  0  0  0  0  0  0  0  0  0
  145.3636  155.4134  134.2017 H   0  0  0  0  0  0  0  0  0  0  0  0
  147.3905  156.4547  133.1403 H   0  0  0  0  0  0  0  0  0  0  0  0
  149.3780  158.2378  133.4865 H   0  0  0  0  0  0  0  0  0  0  0  0
  149.2364  160.8929  128.9805 H   0  0  0  0  0  0  0  0  0  0  0  0
  145.3060  160.2784  132.9180 H   0  0  0  0  0  0  0  0  0  0  0  0
  1  2  1  0
  2  3  2  0
  2  4  1  0
  4  5  2  0
  5  6  1  0
  6  7  2  0
  7  8  1  0
  8  9  2  0
  9 10  1  0
 10 11  2  0
 11 12  1  0
 12 13  2  0
 13 14  1  0
 14 15  2  0
 13 16  1  0
  9 17  1  0
 17 18  2  0
 18 19  1  0
 19 20  1  0
 20 21  2  0
 20 22  1  0
 19  4  1  0
 18  6  1  0
 16 10  1  0
  1 23  1  0
  1 24  1  0
  5 25  1  0
  7 26  1  0
  8 27  1  0
 11 28  1  0
 14 29  1  0
 17 30  1  0
M  CHG  1  22  -1
M  END
>  <UniqueID>  (43) 
43

>  <SMILES>  (43) 
NC(=O)c1cc2ccc(-c3cnc(C=O)o3)cc2n1C(=O)[O-]

>  <Energy>  (43) 
101.88348433377794

>  <Genealogy>  (43) 
NC(=O)c1cc2ccc(-c3cnc(C=O)o3)cc2n1C(=O)[O-] (protonated)
NC(=O)c1cc2ccc(-c3cnc(C=O)o3)cc2n1C(=O)[O-] (3D coordinates assigned)
NC(=O)c1cc2ccc(-c3cnc(C=O)o3)cc2n1C(=O)[O-] (optimized conformer: 101.88348433377794 kcal/mol)

>  <smiles>  (43) 
NC(=O)c1cc2ccc(-c3cnc(C=O)o3)cc2n1C(=O)O

>  <score_type>  (43) 
oracle

>  <origin>  (43) 
adg

>  <m_score__min__energy>  (43) 
-6.5599999999999996

>  <m_primary>  (43) 
energy

$$$$
43:0
     RDKit          3D

 39 40  0  0  0  0  0  0  0  0999 V2000
  141.0290  156.3900  133.3300 C   0  0  0  0  0  0  0  0  0  0  0  0
  141.1820  157.8780  133.6560 C   0  0  1  0  0  0  0  0  0  0  0  0
  142.5120  158.3570  133.2660 N   0  0  0  0  0  0  0  0  0  0  0  0
  143.7010  157.9620  133.9640 C   0  0  0  0  0  0  0  0  0  0  0  0
  143.6430  157.0940  134.8770 O   0  0  0  0  0  0  0  0  0  0  0  0
  144.9620  158.5640  133.6350 N   0  0  0  0  0  0  0  0  0  0  0  0
  145.2380  159.8890  133.4720 C   0  0  0  0  0  0  0  0  0  0  0  0
  144.3100  161.0090  133.7320 C   0  0  0  0  0  0  0  0  0  0  0  0
  142.9350  160.9230  133.3700 N   0  0  0  0  0  0  0  0  0  0  0  0
  144.7300  162.0440  134.3160 O   0  0  0  0  0  0  0  0  0  0  0  0
  146.5650  160.0620  133.0790 C   0  0  0  0  0  0  0  0  0  0  0  0
  147.0940  158.7940  133.0100 C   0  0  0  0  0  0  0  0  0  0  0  0
  148.3690  158.3740  132.6540 C   0  0  0  0  0  0  0  0  0  0  0  0
  148.6310  156.9930  132.6380 C   0  0  0  0  0  0  0  0  0  0  0  0
  147.6150  156.0480  132.9640 C   0  0  0  0  0  0  0  0  0  0  0  0
  147.8910  154.6220  132.9340 N   0  0  0  0  0  0  0  0  0  0  0  0
  146.8290  153.6510  133.2280 C   0  0  0  0  0  0  0  0  0  0  0  0
  149.2340  154.1270  132.6070 C   0  0  0  0  0  0  0  0  0  0  0  0
  146.3280  156.5280  133.3170 C   0  0  0  0  0  0  0  0  0  0  0  0
  146.1070  157.9090  133.3460 C   0  0  0  0  0  0  0  0  0  0  0  0
  140.1200  158.6730  132.9500 C   0  0  0  0  0  0  0  0  0  0  0  0
  138.9020  158.3990  133.1180 O   0  0  0  0  0  0  0  0  0  0  0  0
  140.4790  159.7330  132.1290 O   0  0  0  0  0  0  0  0  0  0  0  0
  140.9698  155.8139  134.2652 H   0  0  0  0  0  0  0  0  0  0  0  0
  140.1102  156.2353  132.7453 H   0  0  0  0  0  0  0  0  0  0  0  0
  141.8971  156.0516  132.7453 H   0  0  0  0  0  0  0  0  0  0  0  0
  141.0672  158.0111  134.7419 H   0  0  0  0  0  0  0  0  0  0  0  0
  142.6120  159.0030  132.4500 H   0  0  0  0  0  0  0  0  0  0  0  0
  142.6310  160.3570  132.5470 H   0  0  0  0  0  0  0  0  0  0  0  0
  147.0796  161.0112  132.8688 H   0  0  0  0  0  0  0  0  0  0  0  0
  149.1516  159.1013  132.3920 H   0  0  0  0  0  0  0  0  0  0  0  0
  149.6362  156.6359  132.3696 H   0  0  0  0  0  0  0  0  0  0  0  0
  146.7171  153.5487  134.3175 H   0  0  0  0  0  0  0  0  0  0  0  0
  145.8812  154.0014  132.7933 H   0  0  0  0  0  0  0  0  0  0  0  0
  147.0933  152.6757  132.7933 H   0  0  0  0  0  0  0  0  0  0  0  0
  149.7861  153.9235  133.5364 H   0  0  0  0  0  0  0  0  0  0  0  0
  149.1504  153.2006  132.0198 H   0  0  0  0  0  0  0  0  0  0  0  0
  149.7716  154.8860  132.0198 H   0  0  0  0  0  0  0  0  0  0  0  0
  145.5175  155.8264  133.5637 H   0  0  0  0  0  0  0  0  0  0  0  0
  1  2  1  0
  2  3  1  0
  3  4  1  0
  4  5  2  0
  4  6  1  0
  6  7  1  0
  7  8  1  0
  8  9  1  0
  8 10  2  0
  7 11  2  0
 11 12  1  0
 12 13  2  0
 13 14  1  0
 14 15  2  0
 15 16  1  0
 16 17  1  0
 16 18  1  0
 15 19  1  0
 19 20  2  0
  2 21  1  0
 21 22  2  0
 21 23  1  0
 20  6  1  0
 20 12  1  0
  1 24  1  0
  1 25  1  0
  1 26  1  0
  2 27  1  1
  3 28  1  0
  9 29  1  0
 11 30  1  0
 13 31  1  0
 14 32  1  0
 17 33  1  0
 17 34  1  0
 17 35  1  0
 18 36  1  0
 18 37  1  0
 18 38  1  0
 19 39  1  0
M  CHG  2   9  -1  23  -1
M  END
>  <UniqueID>  (44) 
44

>  <SMILES>  (44) 
C[C@@H](NC(=O)n1c(C([NH-])=O)cc2ccc(N(C)C)cc21)C(=O)[O-]

>  <Energy>  (44) 
74.90313239190064

>  <Genealogy>  (44) 
CC(NC(=O)n1c(C([NH-])=O)cc2ccc(N(C)C)cc21)C(=O)[O-] (protonated)
C[C@@H](NC(=O)n1c(C([NH-])=O)cc2ccc(N(C)C)cc21)C(=O)[O-] (chirality)
C[C@@H](NC(=O)n1c(C([NH-])=O)cc2ccc(N(C)C)cc21)C(=O)[O-] (3D coordinates assigned)
C[C@@H](NC(=O)n1c(C([NH-])=O)cc2ccc(N(C)C)cc21)C(=O)[O-] (optimized conformer: 74.90313239190064 kcal/mol)

>  <smiles>  (44) 
CC(NC(=O)n1c(C(N)=O)cc2ccc(N(C)C)cc21)C(=O)O

>  <score_type>  (44) 
oracle

>  <origin>  (44) 
adg

>  <m_score__min__energy>  (44) 
-6.8099999999999996

>  <m_primary>  (44) 
energy

$$$$
44:0
     RDKit          3D

 33 34  0  0  0  0  0  0  0  0999 V2000
  143.3660  155.2720  133.3020 N   0  0  0  0  0  0  0  0  0  0  0  0
  143.2810  154.0170  133.9780 C   0  0  0  0  0  0  0  0  0  0  0  0
  143.7400  153.9150  135.1470 O   0  0  0  0  0  0  0  0  0  0  0  0
  142.6100  152.8580  133.3590 C   0  0  0  0  0  0  0  0  0  0  0  0
  143.2460  151.6430  133.1190 C   0  0  0  0  0  0  0  0  0  0  0  0
  142.2730  150.8200  132.6010 C   0  0  0  0  0  0  0  0  0  0  0  0
  142.3600  149.5030  132.1600 C   0  0  0  0  0  0  0  0  0  0  0  0
  141.2050  148.9090  131.6260 C   0  0  0  0  0  0  0  0  0  0  0  0
  139.9880  149.6340  131.5460 C   0  0  0  0  0  0  0  0  0  0  0  0
  138.7720  149.0070  130.9100 C   0  0  0  0  0  0  0  0  0  0  0  0
  138.7690  149.2250  129.5430 F   0  0  0  0  0  0  0  0  0  0  0  0
  138.7560  147.6410  131.1300 F   0  0  0  0  0  0  0  0  0  0  0  0
  137.6320  149.5670  131.4570 F   0  0  0  0  0  0  0  0  0  0  0  0
  139.9480  150.9790  131.9790 C   0  0  0  0  0  0  0  0  0  0  0  0
  141.1080  151.5390  132.5290 C   0  0  0  0  0  0  0  0  0  0  0  0
  141.2990  152.7970  132.9880 N   0  0  0  0  0  0  0  0  0  0  0  0
  140.3430  153.8690  132.9750 C   0  0  0  0  0  0  0  0  0  0  0  0
  139.1070  153.6100  132.9610 O   0  0  0  0  0  0  0  0  0  0  0  0
  140.7830  155.1950  132.9820 O   0  0  0  0  0  0  0  0  0  0  0  0
  139.9010  156.2980  133.1520 C   0  0  0  0  0  0  0  0  0  0  0  0
  140.7150  157.5730  133.3470 C   0  0  0  0  0  0  0  0  0  0  0  0
  142.0470  157.3640  132.9660 O   0  0  0  0  0  0  0  0  0  0  0  0
  142.8490  155.4400  132.4100 H   0  0  0  0  0  0  0  0  0  0  0  0
  143.8790  156.0700  133.7390 H   0  0  0  0  0  0  0  0  0  0  0  0
  144.3014  151.3942  133.3041 H   0  0  0  0  0  0  0  0  0  0  0  0
  143.3050  148.9441  132.2277 H   0  0  0  0  0  0  0  0  0  0  0  0
  141.2442  147.8704  131.2658 H   0  0  0  0  0  0  0  0  0  0  0  0
  139.0265  151.5725  131.8861 H   0  0  0  0  0  0  0  0  0  0  0  0
  139.2661  156.4010  132.2597 H   0  0  0  0  0  0  0  0  0  0  0  0
  139.2670  156.1285  134.0348 H   0  0  0  0  0  0  0  0  0  0  0  0
  140.2836  158.3763  132.7317 H   0  0  0  0  0  0  0  0  0  0  0  0
  140.6875  157.8554  134.4098 H   0  0  0  0  0  0  0  0  0  0  0  0
  142.0310  156.7050  132.2240 H   0  0  0  0  0  0  0  0  0  0  0  0
  1  2  1  0
  2  3  2  0
  2  4  1  0
  4  5  2  0
  5  6  1  0
  6  7  2  0
  7  8  1  0
  8  9  2  0
  9 10  1  0
 10 11  1  0
 10 12  1  0
 10 13  1  0
  9 14  1  0
 14 15  2  0
 15 16  1  0
 16 17  1  0
 17 18  2  0
 17 19  1  0
 19 20  1  0
 20 21  1  0
 21 22  1  0
 16  4  1  0
 15  6  1  0
  1 23  1  0
  1 24  1  0
  5 25  1  0
  7 26  1  0
  8 27  1  0
 14 28  1  0
 20 29  1  0
 20 30  1  0
 21 31  1  0
 21 32  1  0
 22 33  1  0
M  END
>  <UniqueID>  (45) 
45

>  <SMILES>  (45) 
NC(=O)c1cc2ccc(C(F)(F)F)cc2n1C(=O)OCCO

>  <Energy>  (45) 
68.51507322197892

>  <Genealogy>  (45) 
NC(=O)c1cc2ccc(C(F)(F)F)cc2n1C(=O)OCCO (3D coordinates assigned)
NC(=O)c1cc2ccc(C(F)(F)F)cc2n1C(=O)OCCO (optimized conformer: 68.51507322197892 kcal/mol)

>  <smiles>  (45) 
NC(=O)c1cc2ccc(C(F)(F)F)cc2n1C(=O)OCCO

>  <score_type>  (45) 
oracle

>  <origin>  (45) 
adg

>  <m_score__min__energy>  (45) 
-5.6900000000000004

>  <m_primary>  (45) 
energy

$$$$
45:0
     RDKit          3D

 38 39  0  0  0  0  0  0  0  0999 V2000
  141.5460  157.3540  136.4400 C   0  0  0  0  0  0  0  0  0  0  0  0
  141.8520  157.3290  135.0060 N   0  0  0  0  0  0  0  0  0  0  0  0
  140.7530  157.3990  134.0290 C   0  0  0  0  0  0  0  0  0  0  0  0
  140.4820  158.8530  133.6350 C   0  0  0  0  0  0  0  0  0  0  0  0
  140.7560  159.0470  132.2730 O   0  0  0  0  0  0  0  0  0  0  0  0
  143.2050  157.1270  134.5330 C   0  0  0  0  0  0  0  0  0  0  0  0
  143.9640  156.3420  135.1640 O   0  0  0  0  0  0  0  0  0  0  0  0
  143.7400  157.7910  133.3200 C   0  0  0  0  0  0  0  0  0  0  0  0
  143.0880  157.7980  132.2430 O   0  0  0  0  0  0  0  0  0  0  0  0
  145.0300  158.4210  133.3560 N   0  0  0  0  0  0  0  0  0  0  0  0
  145.3030  159.7500  133.4790 C   0  0  0  0  0  0  0  0  0  0  0  0
  144.3040  160.8160  133.6950 C   0  0  0  0  0  0  0  0  0  0  0  0
  142.9370  160.5890  133.3590 N   0  0  0  0  0  0  0  0  0  0  0  0
  144.6460  161.9360  134.1590 O   0  0  0  0  0  0  0  0  0  0  0  0
  146.6780  159.9720  133.4150 C   0  0  0  0  0  0  0  0  0  0  0  0
  147.2410  158.7260  133.2420 C   0  0  0  0  0  0  0  0  0  0  0  0
  148.5750  158.3560  133.0980 C   0  0  0  0  0  0  0  0  0  0  0  0
  148.8630  156.9940  132.9030 C   0  0  0  0  0  0  0  0  0  0  0  0
  147.8190  156.0350  132.8500 C   0  0  0  0  0  0  0  0  0  0  0  0
  148.1290  154.5820  132.6250 C   0  0  0  0  0  0  0  0  0  0  0  0
  147.8950  153.8720  133.7870 F   0  0  0  0  0  0  0  0  0  0  0  0
  149.4560  154.4390  132.2610 F   0  0  0  0  0  0  0  0  0  0  0  0
  146.4780  156.4500  132.9950 C   0  0  0  0  0  0  0  0  0  0  0  0
  146.2230  157.8090  133.2070 C   0  0  0  0  0  0  0  0  0  0  0  0
  142.4802  157.2776  137.0157 H   0  0  0  0  0  0  0  0  0  0  0  0
  141.0373  158.2967  136.6900 H   0  0  0  0  0  0  0  0  0  0  0  0
  140.8910  156.5064  136.6900 H   0  0  0  0  0  0  0  0  0  0  0  0
  141.0285  156.8255  133.1317 H   0  0  0  0  0  0  0  0  0  0  0  0
  139.8443  156.9767  134.4829 H   0  0  0  0  0  0  0  0  0  0  0  0
  139.4260  159.0912  133.8303 H   0  0  0  0  0  0  0  0  0  0  0  0
  141.1327  159.5120  134.2285 H   0  0  0  0  0  0  0  0  0  0  0  0
  141.7350  159.1950  132.2000 H   0  0  0  0  0  0  0  0  0  0  0  0
  142.6740  159.9150  132.6070 H   0  0  0  0  0  0  0  0  0  0  0  0
  147.2020  160.9365  133.4872 H   0  0  0  0  0  0  0  0  0  0  0  0
  149.3788  159.1060  133.1356 H   0  0  0  0  0  0  0  0  0  0  0  0
  149.9078  156.6688  132.7904 H   0  0  0  0  0  0  0  0  0  0  0  0
  147.4846  154.1958  131.8215 H   0  0  0  0  0  0  0  0  0  0  0  0
  145.6540  155.7232  132.9426 H   0  0  0  0  0  0  0  0  0  0  0  0
  1  2  1  0
  2  3  1  0
  3  4  1  0
  4  5  1  0
  2  6  1  0
  6  7  2  0
  6  8  1  0
  8  9  2  0
  8 10  1  0
 10 11  1  0
 11 12  1  0
 12 13  1  0
 12 14  2  0
 11 15  2  0
 15 16  1  0
 16 17  2  0
 17 18  1  0
 18 19  2  0
 19 20  1  0
 20 21  1  0
 20 22  1  0
 19 23  1  0
 23 24  2  0
 24 10  1  0
 24 16  1  0
  1 25  1  0
  1 26  1  0
  1 27  1  0
  3 28  1  0
  3 29  1  0
  4 30  1  0
  4 31  1  0
  5 32  1  0
 13 33  1  0
 15 34  1  0
 17 35  1  0
 18 36  1  0
 20 37  1  0
 23 38  1  0
M  CHG  1  13  -1
M  END
>  <UniqueID>  (46) 
46

>  <SMILES>  (46) 
CN(CCO)C(=O)C(=O)n1c(C([NH-])=O)cc2ccc(C(F)F)cc21

>  <Energy>  (46) 
75.50444939459724

>  <Genealogy>  (46) 
CN(CCO)C(=O)C(=O)n1c(C([NH-])=O)cc2ccc(C(F)F)cc21 (protonated)
CN(CCO)C(=O)C(=O)n1c(C([NH-])=O)cc2ccc(C(F)F)cc21 (3D coordinates assigned)
CN(CCO)C(=O)C(=O)n1c(C([NH-])=O)cc2ccc(C(F)F)cc21 (optimized conformer: 75.50444939459724 kcal/mol)

>  <smiles>  (46) 
CN(CCO)C(=O)C(=O)n1c(C(N)=O)cc2ccc(C(F)F)cc21

>  <score_type>  (46) 
oracle

>  <origin>  (46) 
adg

>  <m_score__min__energy>  (46) 
-5.5

>  <m_primary>  (46) 
energy

$$$$
46:0
     RDKit          3D

 39 40  0  0  0  0  0  0  0  0999 V2000
  149.9760  152.0780  132.2140 C   0  0  0  0  0  0  0  0  0  0  0  0
  148.5650  152.4460  132.3550 N   0  0  0  0  0  0  0  0  0  0  0  0
  147.5280  151.4190  132.2210 C   0  0  0  0  0  0  0  0  0  0  0  0
  148.2210  153.8270  132.6110 C   0  0  0  0  0  0  0  0  0  0  0  0
  149.1340  154.6940  132.7090 O   0  0  0  0  0  0  0  0  0  0  0  0
  146.7960  154.2730  132.7640 C   0  0  0  0  0  0  0  0  0  0  0  0
  146.7230  155.6870  132.6340 O   0  0  0  0  0  0  0  0  0  0  0  0
  146.3180  156.5270  133.6760 C   0  0  0  0  0  0  0  0  0  0  0  0
  145.9980  156.0380  134.7930 O   0  0  0  0  0  0  0  0  0  0  0  0
  146.2710  157.9500  133.4670 N   0  0  0  0  0  0  0  0  0  0  0  0
  147.3140  158.7650  133.1490 C   0  0  0  0  0  0  0  0  0  0  0  0
  148.6780  158.3250  132.7910 C   0  0  0  0  0  0  0  0  0  0  0  0
  148.9090  157.0530  132.1850 N   0  0  0  0  0  0  0  0  0  0  0  0
  149.6490  159.1060  132.9790 O   0  0  0  0  0  0  0  0  0  0  0  0
  146.9280  160.1020  133.1850 C   0  0  0  0  0  0  0  0  0  0  0  0
  145.5980  160.0850  133.5270 C   0  0  0  0  0  0  0  0  0  0  0  0
  144.7110  161.1430  133.7120 C   0  0  0  0  0  0  0  0  0  0  0  0
  143.3950  160.8370  134.0970 C   0  0  0  0  0  0  0  0  0  0  0  0
  142.9960  159.4910  134.3170 C   0  0  0  0  0  0  0  0  0  0  0  0
  141.5690  159.1710  134.6850 C   0  0  0  0  0  0  0  0  0  0  0  0
  141.3310  159.5810  135.9830 F   0  0  0  0  0  0  0  0  0  0  0  0
  141.3270  157.8120  134.5910 F   0  0  0  0  0  0  0  0  0  0  0  0
  140.6910  159.8250  133.8390 F   0  0  0  0  0  0  0  0  0  0  0  0
  143.9240  158.4470  134.1000 C   0  0  0  0  0  0  0  0  0  0  0  0
  145.2240  158.7750  133.6950 C   0  0  0  0  0  0  0  0  0  0  0  0
  150.4257  151.9607  133.2110 H   0  0  0  0  0  0  0  0  0  0  0  0
  150.0542  151.1294  131.6626 H   0  0  0  0  0  0  0  0  0  0  0  0
  150.5075  152.8676  131.6626 H   0  0  0  0  0  0  0  0  0  0  0  0
  147.2012  151.0954  133.2202 H   0  0  0  0  0  0  0  0  0  0  0  0
  146.6703  151.8336  131.6711 H   0  0  0  0  0  0  0  0  0  0  0  0
  147.9342  150.5573  131.6711 H   0  0  0  0  0  0  0  0  0  0  0  0
  146.1790  153.8013  131.9851 H   0  0  0  0  0  0  0  0  0  0  0  0
  146.4249  153.9774  133.7564 H   0  0  0  0  0  0  0  0  0  0  0  0
  149.8810  156.7490  131.9540 H   0  0  0  0  0  0  0  0  0  0  0  0
  148.1120  156.4390  131.9060 H   0  0  0  0  0  0  0  0  0  0  0  0
  147.5542  160.9835  132.9828 H   0  0  0  0  0  0  0  0  0  0  0  0
  145.0307  162.1847  133.5615 H   0  0  0  0  0  0  0  0  0  0  0  0
  142.6648  161.6489  134.2297 H   0  0  0  0  0  0  0  0  0  0  0  0
  143.6307  157.3970  134.2464 H   0  0  0  0  0  0  0  0  0  0  0  0
  1  2  1  0
  2  3  1  0
  2  4  1  0
  4  5  2  0
  4  6  1  0
  6  7  1  0
  7  8  1  0
  8  9  2  0
  8 10  1  0
 10 11  1  0
 11 12  1  0
 12 13  1  0
 12 14  2  0
 11 15  2  0
 15 16  1  0
 16 17  2  0
 17 18  1  0
 18 19  2  0
 19 20  1  0
 20 21  1  0
 20 22  1  0
 20 23  1  0
 19 24  1  0
 24 25  2  0
 25 10  1  0
 25 16  1  0
  1 26  1  0
  1 27  1  0
  1 28  1  0
  3 29  1  0
  3 30  1  0
  3 31  1  0
  6 32  1  0
  6 33  1  0
 13 34  1  0
 13 35  1  0
 15 36  1  0
 17 37  1  0
 18 38  1  0
 24 39  1  0
M  END
>  <UniqueID>  (47) 
47

>  <SMILES>  (47) 
CN(C)C(=O)COC(=O)n1c(C(N)=O)cc2ccc(C(F)(F)F)cc21

>  <Energy>  (47) 
73.49020875621667

>  <Genealogy>  (47) 
CN(C)C(=O)COC(=O)n1c(C(N)=O)cc2ccc(C(F)(F)F)cc21 (3D coordinates assigned)
CN(C)C(=O)COC(=O)n1c(C(N)=O)cc2ccc(C(F)(F)F)cc21 (optimized conformer: 73.49020875621667 kcal/mol)

>  <smiles>  (47) 
CN(C)C(=O)COC(=O)n1c(C(N)=O)cc2ccc(C(F)(F)F)cc21

>  <score_type>  (47) 
oracle

>  <origin>  (47) 
adg

>  <m_score__min__energy>  (47) 
-6.4500000000000002

>  <m_primary>  (47) 
energy

$$$$
47:0
     RDKit          3D

 35 37  0  0  0  0  0  0  0  0999 V2000
  143.9550  154.0170  136.5400 N   0  0  0  0  0  0  0  0  0  0  0  0
  143.6200  154.5090  135.2450 C   0  0  0  0  0  0  0  0  0  0  0  0
  143.0170  153.7550  134.4360 O   0  0  0  0  0  0  0  0  0  0  0  0
  144.0200  155.8660  134.8210 C   0  0  0  0  0  0  0  0  0  0  0  0
  143.1080  156.8610  134.4770 C   0  0  0  0  0  0  0  0  0  0  0  0
  143.8710  157.9250  134.0570 C   0  0  0  0  0  0  0  0  0  0  0  0
  143.4800  159.1830  133.6080 C   0  0  0  0  0  0  0  0  0  0  0  0
  144.4850  160.1030  133.2640 C   0  0  0  0  0  0  0  0  0  0  0  0
  145.8600  159.7570  133.3840 C   0  0  0  0  0  0  0  0  0  0  0  0
  146.9120  160.6840  133.0480 N   0  0  0  0  0  0  0  0  0  0  0  0
  148.2380  160.2930  132.5540 C   0  0  1  0  0  0  0  0  0  0  0  0
  148.8060  159.0820  133.3410 C   0  0  0  0  0  0  0  0  0  0  0  0
  148.9160  158.0040  132.3100 C   0  0  0  0  0  0  0  0  0  0  0  0
  149.3380  156.8050  132.5560 N   0  0  0  0  0  0  0  0  0  0  0  0
  148.5260  158.4290  131.0180 N   0  0  0  0  0  0  0  0  0  0  0  0
  148.1370  159.7800  131.1510 C   0  0  0  0  0  0  0  0  0  0  0  0
  147.7510  160.4710  130.1720 O   0  0  0  0  0  0  0  0  0  0  0  0
  146.2100  158.4670  133.8410 C   0  0  0  0  0  0  0  0  0  0  0  0
  145.1880  157.5650  134.1590 C   0  0  0  0  0  0  0  0  0  0  0  0
  145.2980  156.3020  134.6310 N   0  0  0  0  0  0  0  0  0  0  0  0
  146.5180  155.6160  134.9570 C   0  0  0  0  0  0  0  0  0  0  0  0
  146.5470  154.7880  135.9050 O   0  0  0  0  0  0  0  0  0  0  0  0
  147.6690  155.8400  134.2120 O   0  0  0  0  0  0  0  0  0  0  0  0
  144.7210  154.4550  137.0990 H   0  0  0  0  0  0  0  0  0  0  0  0
  142.0106  156.8070  134.5301 H   0  0  0  0  0  0  0  0  0  0  0  0
  142.4159  159.4492  133.5249 H   0  0  0  0  0  0  0  0  0  0  0  0
  144.2056  161.1019  132.8978 H   0  0  0  0  0  0  0  0  0  0  0  0
  146.7380  161.6980  133.2380 H   0  0  0  0  0  0  0  0  0  0  0  0
  148.8699  161.1881  132.6516 H   0  0  0  0  0  0  0  0  0  0  0  0
  149.7923  159.3192  133.7663 H   0  0  0  0  0  0  0  0  0  0  0  0
  148.1713  158.7929  134.1916 H   0  0  0  0  0  0  0  0  0  0  0  0
  149.3990  156.0960  131.7920 H   0  0  0  0  0  0  0  0  0  0  0  0
  149.6230  156.5300  133.5220 H   0  0  0  0  0  0  0  0  0  0  0  0
  148.5340  157.8630  130.1400 H   0  0  0  0  0  0  0  0  0  0  0  0
  147.2659  158.1768  133.9450 H   0  0  0  0  0  0  0  0  0  0  0  0
  1  2  1  0
  2  3  2  0
  2  4  1  0
  4  5  2  0
  5  6  1  0
  6  7  2  0
  7  8  1  0
  8  9  2  0
  9 10  1  0
 10 11  1  0
 11 12  1  0
 12 13  1  0
 13 14  2  0
 13 15  1  0
 15 16  1  0
 16 17  2  0
  9 18  1  0
 18 19  2  0
 19 20  1  0
 20 21  1  0
 21 22  2  0
 21 23  1  0
 20  4  1  0
 19  6  1  0
 16 11  1  0
  1 24  1  0
  5 25  1  0
  7 26  1  0
  8 27  1  0
 10 28  1  0
 11 29  1  6
 12 30  1  0
 12 31  1  0
 14 32  1  0
 14 33  1  0
 15 34  1  0
 18 35  1  0
M  CHG  3   1  -1  14   1  23  -1
M  END
>  <UniqueID>  (48) 
48

>  <SMILES>  (48) 
[NH-]C(=O)c1cc2ccc(N[C@H]3CC(=[NH2+])NC3=O)cc2n1C(=O)[O-]

>  <Energy>  (48) 
88.2008052667367

>  <Genealogy>  (48) 
[NH-]C(=O)c1cc2ccc(N[C@H]3CC(=[NH2+])NC3=O)cc2n1C(=O)[O-] (protonated)
[NH-]C(=O)c1cc2ccc(N[C@H]3CC(=[NH2+])NC3=O)cc2n1C(=O)[O-] (3D coordinates assigned)
[NH-]C(=O)c1cc2ccc(N[C@H]3CC(=[NH2+])NC3=O)cc2n1C(=O)[O-] (nonaromatic ring conformer: 88.2008052667367 kcal/mol)

>  <smiles>  (48) 
N=C1C[C@H](Nc2ccc3cc(C(N)=O)n(C(=O)O)c3c2)C(=O)N1

>  <score_type>  (48) 
oracle

>  <origin>  (48) 
adg

>  <m_score__min__energy>  (48) 
-7.25

>  <m_primary>  (48) 
energy

$$$$
48:0
     RDKit          3D

 33 34  0  0  0  0  0  0  0  0999 V2000
  150.2760  149.9820  131.0420 C   0  0  0  0  0  0  0  0  0  0  0  0
  149.2460  150.9350  131.5570 C   0  0  0  0  0  0  0  0  0  0  0  0
  148.0590  150.5390  131.7120 O   0  0  0  0  0  0  0  0  0  0  0  0
  149.6140  152.2930  131.8480 N   0  0  0  0  0  0  0  0  0  0  0  0
  148.6990  153.2830  132.3470 C   0  0  0  0  0  0  0  0  0  0  0  0
  147.4960  152.9830  132.5770 O   0  0  0  0  0  0  0  0  0  0  0  0
  149.1590  154.6610  132.6120 C   0  0  0  0  0  0  0  0  0  0  0  0
  150.3090  155.0220  132.2430 O   0  0  0  0  0  0  0  0  0  0  0  0
  148.3090  155.5970  133.2940 N   0  0  0  0  0  0  0  0  0  0  0  0
  147.5640  155.3790  134.4130 C   0  0  0  0  0  0  0  0  0  0  0  0
  147.4020  154.0810  135.1030 C   0  0  0  0  0  0  0  0  0  0  0  0
  148.4710  153.1380  135.1010 N   0  0  0  0  0  0  0  0  0  0  0  0
  146.3350  153.8030  135.7110 O   0  0  0  0  0  0  0  0  0  0  0  0
  146.9170  156.5510  134.8030 C   0  0  0  0  0  0  0  0  0  0  0  0
  147.3010  157.5020  133.8830 C   0  0  0  0  0  0  0  0  0  0  0  0
  146.9620  158.8480  133.7920 C   0  0  0  0  0  0  0  0  0  0  0  0
  147.5250  159.5990  132.7460 C   0  0  0  0  0  0  0  0  0  0  0  0
  148.4320  159.0040  131.8310 C   0  0  0  0  0  0  0  0  0  0  0  0
  149.0000  159.8100  130.6900 C   0  0  0  0  0  0  0  0  0  0  0  0
  148.1060  160.8090  130.3520 F   0  0  0  0  0  0  0  0  0  0  0  0
  150.2040  160.3870  131.0530 F   0  0  0  0  0  0  0  0  0  0  0  0
  149.2190  159.0070  129.5850 F   0  0  0  0  0  0  0  0  0  0  0  0
  148.7340  157.6260  131.9470 C   0  0  0  0  0  0  0  0  0  0  0  0
  148.1430  156.9010  132.9860 C   0  0  0  0  0  0  0  0  0  0  0  0
  150.7909  149.5056  131.8893 H   0  0  0  0  0  0  0  0  0  0  0  0
  149.7876  149.2103  130.4289 H   0  0  0  0  0  0  0  0  0  0  0  0
  151.0075  150.5288  130.4289 H   0  0  0  0  0  0  0  0  0  0  0  0
  150.6070  152.5700  131.6760 H   0  0  0  0  0  0  0  0  0  0  0  0
  148.4700  152.3280  134.4420 H   0  0  0  0  0  0  0  0  0  0  0  0
  146.2436  156.6872  135.6620 H   0  0  0  0  0  0  0  0  0  0  0  0
  146.2748  159.3101  134.5161 H   0  0  0  0  0  0  0  0  0  0  0  0
  147.2594  160.6607  132.6352 H   0  0  0  0  0  0  0  0  0  0  0  0
  149.4172  157.1374  131.2368 H   0  0  0  0  0  0  0  0  0  0  0  0
  1  2  1  0
  2  3  2  0
  2  4  1  0
  4  5  1  0
  5  6  2  0
  5  7  1  0
  7  8  2  0
  7  9  1  0
  9 10  1  0
 10 11  1  0
 11 12  1  0
 11 13  2  0
 10 14  2  0
 14 15  1  0
 15 16  2  0
 16 17  1  0
 17 18  2  0
 18 19  1  0
 19 20  1  0
 19 21  1  0
 19 22  1  0
 18 23  1  0
 23 24  2  0
 24  9  1  0
 24 15  1  0
  1 25  1  0
  1 26  1  0
  1 27  1  0
  4 28  1  0
 12 29  1  0
 14 30  1  0
 16 31  1  0
 17 32  1  0
 23 33  1  0
M  CHG  1  12  -1
M  END
>  <UniqueID>  (49) 
49

>  <SMILES>  (49) 
CC(=O)NC(=O)C(=O)n1c(C([NH-])=O)cc2ccc(C(F)(F)F)cc21

>  <Energy>  (49) 
71.4880939455537

>  <Genealogy>  (49) 
CC(=O)NC(=O)C(=O)n1c(C([NH-])=O)cc2ccc(C(F)(F)F)cc21 (protonated)
CC(=O)NC(=O)C(=O)n1c(C([NH-])=O)cc2ccc(C(F)(F)F)cc21 (3D coordinates assigned)
CC(=O)NC(=O)C(=O)n1c(C([NH-])=O)cc2ccc(C(F)(F)F)cc21 (optimized conformer: 71.4880939455537 kcal/mol)

>  <smiles>  (49) 
CC(=O)NC(=O)C(=O)n1c(C(N)=O)cc2ccc(C(F)(F)F)cc21

>  <score_type>  (49) 
oracle

>  <origin>  (49) 
adg

>  <m_score__min__energy>  (49) 
-6.8099999999999996

>  <m_primary>  (49) 
energy

$$$$
49:0
     RDKit          3D

 52 54  0  0  0  0  0  0  0  0999 V2000
  145.0100  161.6220  134.1610 C   0  0  0  0  0  0  0  0  0  0  0  0
  144.4240  160.3520  134.4120 O   0  0  0  0  0  0  0  0  0  0  0  0
  143.1430  160.0110  133.9640 C   0  0  0  0  0  0  0  0  0  0  0  0
  142.4050  160.8880  133.4330 O   0  0  0  0  0  0  0  0  0  0  0  0
  142.6650  158.6610  134.1190 N   0  0  0  0  0  0  0  0  0  0  0  0
  143.1280  157.6340  133.2060 C   0  0  0  0  0  0  0  0  0  0  0  0
  142.5770  157.4880  132.0820 O   0  0  0  0  0  0  0  0  0  0  0  0
  144.2480  156.7900  133.5350 N   0  0  0  0  0  0  0  0  0  0  0  0
  144.2370  155.5140  134.0200 C   0  0  0  0  0  0  0  0  0  0  0  0
  143.0300  154.6860  134.2380 C   0  0  0  0  0  0  0  0  0  0  0  0
  141.8720  154.8510  133.4170 N   0  0  0  0  0  0  0  0  0  0  0  0
  143.0080  153.8330  135.1610 O   0  0  0  0  0  0  0  0  0  0  0  0
  145.5390  155.0640  134.2340 C   0  0  0  0  0  0  0  0  0  0  0  0
  146.3530  156.1080  133.8570 C   0  0  0  0  0  0  0  0  0  0  0  0
  147.7400  156.2070  133.8570 C   0  0  0  0  0  0  0  0  0  0  0  0
  148.3150  157.4140  133.4240 C   0  0  0  0  0  0  0  0  0  0  0  0
  147.4990  158.5030  133.0230 C   0  0  0  0  0  0  0  0  0  0  0  0
  148.1280  159.7790  132.5220 C   0  0  0  0  0  0  0  0  0  0  0  0
  147.7130  160.8590  133.2830 F   0  0  0  0  0  0  0  0  0  0  0  0
  147.7720  160.0150  131.2060 F   0  0  0  0  0  0  0  0  0  0  0  0
  149.5030  159.6720  132.6060 F   0  0  0  0  0  0  0  0  0  0  0  0
  146.0930  158.3540  133.0150 C   0  0  0  0  0  0  0  0  0  0  0  0
  145.5500  157.1350  133.4390 C   0  0  0  0  0  0  0  0  0  0  0  0
  141.6510  158.4020  135.1720 C   0  0  1  0  0  0  0  0  0  0  0  0
  141.9210  159.2140  136.4520 C   0  0  0  0  0  0  0  0  0  0  0  0
  140.1960  158.4780  134.6320 C   0  0  2  0  0  0  0  0  0  0  0  0
  139.5810  157.1430  134.1360 C   0  0  0  0  0  0  0  0  0  0  0  0
  138.3810  157.4410  133.3550 N   0  0  0  0  0  0  0  0  0  0  0  0
  138.7110  158.2320  132.1570 C   0  0  0  0  0  0  0  0  0  0  0  0
  139.9670  159.1020  132.3600 C   0  0  0  0  0  0  0  0  0  0  0  0
  140.0690  159.5520  133.6990 O   0  0  0  0  0  0  0  0  0  0  0  0
  145.2380  162.1160  135.1170 H   0  0  0  0  0  0  0  0  0  0  0  0
  145.9383  161.4902  133.5858 H   0  0  0  0  0  0  0  0  0  0  0  0
  144.3073  162.2428  133.5858 H   0  0  0  0  0  0  0  0  0  0  0  0
  141.0170  154.2820  133.6010 H   0  0  0  0  0  0  0  0  0  0  0  0
  141.8730  155.4970  132.5980 H   0  0  0  0  0  0  0  0  0  0  0  0
  145.8499  154.0827  134.6219 H   0  0  0  0  0  0  0  0  0  0  0  0
  148.3681  155.3660  134.1860 H   0  0  0  0  0  0  0  0  0  0  0  0
  149.4099  157.5155  133.3957 H   0  0  0  0  0  0  0  0  0  0  0  0
  145.4414  159.1760  132.6837 H   0  0  0  0  0  0  0  0  0  0  0  0
  141.7600  157.3537  135.4868 H   0  0  0  0  0  0  0  0  0  0  0  0
  141.7133  158.5893  137.3332 H   0  0  0  0  0  0  0  0  0  0  0  0
  142.9736  159.5331  136.4686 H   0  0  0  0  0  0  0  0  0  0  0  0
  141.2691  160.0998  136.4686 H   0  0  0  0  0  0  0  0  0  0  0  0
  139.5656  158.6982  135.5061 H   0  0  0  0  0  0  0  0  0  0  0  0
  140.3096  156.6111  133.5066 H   0  0  0  0  0  0  0  0  0  0  0  0
  139.3205  156.5082  134.9957 H   0  0  0  0  0  0  0  0  0  0  0  0
  137.9530  156.5360  133.0490 H   0  0  0  0  0  0  0  0  0  0  0  0
  138.8885  157.5446  131.3168 H   0  0  0  0  0  0  0  0  0  0  0  0
  137.8645  158.9043  131.9532 H   0  0  0  0  0  0  0  0  0  0  0  0
  140.8588  158.5075  132.1126 H   0  0  0  0  0  0  0  0  0  0  0  0
  139.8912  159.9808  131.7027 H   0  0  0  0  0  0  0  0  0  0  0  0
  1  2  1  0
  2  3  1  0
  3  4  2  0
  3  5  1  0
  5  6  1  0
  6  7  2  0
  6  8  1  0
  8  9  1  0
  9 10  1  0
 10 11  1  0
 10 12  2  0
  9 13  2  0
 13 14  1  0
 14 15  2  0
 15 16  1  0
 16 17  2  0
 17 18  1  0
 18 19  1  0
 18 20  1  0
 18 21  1  0
 17 22  1  0
 22 23  2  0
  5 24  1  0
 24 25  1  0
 24 26  1  0
 26 27  1  0
 27 28  1  0
 28 29  1  0
 29 30  1  0
 30 31  1  0
 23  8  1  0
 31 26  1  0
 23 14  1  0
  1 32  1  0
  1 33  1  0
  1 34  1  0
 11 35  1  0
 11 36  1  0
 13 37  1  0
 15 38  1  0
 16 39  1  0
 22 40  1  0
 24 41  1  1
 25 42  1  0
 25 43  1  0
 25 44  1  0
 26 45  1  1
 27 46  1  0
 27 47  1  0
 28 48  1  0
 29 49  1  0
 29 50  1  0
 30 51  1  0
 30 52  1  0
M  END
>  <UniqueID>  (50) 
50

>  <SMILES>  (50) 
COC(=O)N(C(=O)n1c(C(N)=O)cc2ccc(C(F)(F)F)cc21)[C@@H](C)[C@@H]1CNCCO1

>  <Energy>  (50) 
106.88683158957677

>  <Genealogy>  (50) 
COC(=O)N(C(=O)n1c(C(N)=O)cc2ccc(C(F)(F)F)cc21)[C@@H](C)[C@@H]1CNCCO1 (chirality)
COC(=O)N(C(=O)n1c(C(N)=O)cc2ccc(C(F)(F)F)cc21)[C@@H](C)[C@@H]1CNCCO1 (3D coordinates assigned)
COC(=O)N(C(=O)n1c(C(N)=O)cc2ccc(C(F)(F)F)cc21)[C@@H](C)[C@@H]1CNCCO1 (nonaromatic ring conformer: 106.88683158957677 kcal/mol)

>  <smiles>  (50) 
COC(=O)N(C(=O)n1c(C(N)=O)cc2ccc(C(F)(F)F)cc21)C(C)C1CNCCO1

>  <score_type>  (50) 
oracle

>  <origin>  (50) 
adg

>  <m_score__min__energy>  (50) 
-7.4400000000000004

>  <m_primary>  (50) 
energy

$$$$
50:0
     RDKit          3D

 36 37  0  0  0  0  0  0  0  0999 V2000
  141.4050  156.3970  132.2480 H   0  0  0  0  0  0  0  0  0  0  0  0
  140.8860  156.8800  133.0150 N   0  0  0  0  0  0  0  0  0  0  0  0
  141.5820  157.5820  134.0420 C   0  0  0  0  0  0  0  0  0  0  0  0
  140.9820  157.8600  135.1140 O   0  0  0  0  0  0  0  0  0  0  0  0
  142.9770  158.0290  133.8460 C   0  0  0  0  0  0  0  0  0  0  0  0
  143.3790  159.3600  133.9450 C   0  0  0  0  0  0  0  0  0  0  0  0
  142.7609  160.2241  134.2302 H   0  0  0  0  0  0  0  0  0  0  0  0
  144.7140  159.3630  133.6100 C   0  0  0  0  0  0  0  0  0  0  0  0
  145.6240  160.4150  133.5590 C   0  0  0  0  0  0  0  0  0  0  0  0
  145.3125  161.4453  133.7859 H   0  0  0  0  0  0  0  0  0  0  0  0
  146.9520  160.1210  133.2090 C   0  0  0  0  0  0  0  0  0  0  0  0
  147.6959  160.9305  133.1715 H   0  0  0  0  0  0  0  0  0  0  0  0
  147.3460  158.7920  132.9030 C   0  0  0  0  0  0  0  0  0  0  0  0
  148.7860  158.4810  132.5870 C   0  0  0  0  0  0  0  0  0  0  0  0
  149.0740  157.1560  132.8660 F   0  0  0  0  0  0  0  0  0  0  0  0
  149.0510  158.7080  131.2460 F   0  0  0  0  0  0  0  0  0  0  0  0
  149.6060  159.2910  133.3510 F   0  0  0  0  0  0  0  0  0  0  0  0
  146.3960  157.7480  132.9900 C   0  0  0  0  0  0  0  0  0  0  0  0
  146.6866  156.7049  132.7964 H   0  0  0  0  0  0  0  0  0  0  0  0
  145.0780  158.0730  133.3280 C   0  0  0  0  0  0  0  0  0  0  0  0
  144.0250  157.2410  133.4750 N   0  0  0  0  0  0  0  0  0  0  0  0
  144.0560  155.8110  133.3420 C   0  0  0  0  0  0  0  0  0  0  0  0
  143.1960  155.2370  132.6190 O   0  0  0  0  0  0  0  0  0  0  0  0
  145.1190  155.0320  134.0040 C   0  0  0  0  0  0  0  0  0  0  0  0
  145.1448  155.0004  135.1032 H   0  0  0  0  0  0  0  0  0  0  0  0
  146.0550  154.3610  133.3180 C   0  0  0  0  0  0  0  0  0  0  0  0
  146.0418  154.3829  132.2183 H   0  0  0  0  0  0  0  0  0  0  0  0
  147.0800  153.6100  134.0030 N   0  0  2  0  0  0  0  0  0  0  0  0
  146.7860  152.6060  134.0700 H   0  0  0  0  0  0  0  0  0  0  0  0
  147.2750  154.1410  135.3290 C   0  0  0  0  0  0  0  0  0  0  0  0
  147.7080  155.3140  135.4980 O   0  0  0  0  0  0  0  0  0  0  0  0
  146.9900  153.3550  136.4400 O   0  0  0  0  0  0  0  0  0  0  0  0
  148.3460  153.6540  133.2550 C   0  0  0  0  0  0  0  0  0  0  0  0
  149.1885  153.6833  133.9616 H   0  0  0  0  0  0  0  0  0  0  0  0
  148.4292  152.7582  132.6221 H   0  0  0  0  0  0  0  0  0  0  0  0
  148.3668  154.5534  132.6221 H   0  0  0  0  0  0  0  0  0  0  0  0
  1  2  1  0
  2  3  1  0
  3  4  2  0
  3  5  1  0
  5  6  2  0
  6  7  1  0
  6  8  1  0
  8  9  2  0
  9 10  1  0
  9 11  1  0
 11 12  1  0
 11 13  2  0
 13 14  1  0
 14 15  1  0
 14 16  1  0
 14 17  1  0
 13 18  1  0
 18 19  1  0
 18 20  2  0
 20 21  1  0
 21 22  1  0
 22 23  2  0
 22 24  1  0
 24 25  1  0
 24 26  2  0
 26 27  1  0
 26 28  1  0
 28 29  1  1
 28 30  1  0
 30 31  2  0
 30 32  1  0
 28 33  1  0
 33 34  1  0
 33 35  1  0
 33 36  1  0
 21  5  1  0
 20  8  1  0
M  CHG  3   2  -1  28   1  32  -1
M  END
>  <UniqueID>  (51) 
51

>  <SMILES>  (51) 
C[N@H+](/C=C/C(=O)n1c(C([NH-])=O)cc2ccc(C(F)(F)F)cc21)C(=O)[O-]

>  <Energy>  (51) 
77.41946799079146

>  <Genealogy>  (51) 
C[NH+](C=CC(=O)n1c(C([NH-])=O)cc2ccc(C(F)(F)F)cc21)C(=O)[O-] (protonated)
C[N@H+](C=CC(=O)n1c(C([NH-])=O)cc2ccc(C(F)(F)F)cc21)C(=O)[O-] (chirality)
C[N@H+](/C=C/C(=O)n1c(C([NH-])=O)cc2ccc(C(F)(F)F)cc21)C(=O)[O-] (cis-trans isomerization)
C[N@H+](/C=C/C(=O)n1c(C([NH-])=O)cc2ccc(C(F)(F)F)cc21)C(=O)[O-] (3D coordinates assigned)
C[N@H+](/C=C/C(=O)n1c(C([NH-])=O)cc2ccc(C(F)(F)F)cc21)C(=O)[O-] (optimized conformer: 77.41946799079146 kcal/mol)

>  <smiles>  (51) 
CN(C=CC(=O)n1c(C(N)=O)cc2ccc(C(F)(F)F)cc21)C(=O)O

>  <score_type>  (51) 
oracle

>  <origin>  (51) 
adg

>  <m_score__min__energy>  (51) 
-6.6100000000000003

>  <m_primary>  (51) 
energy

$$$$
51:0
     RDKit          3D

 46 49  0  0  0  0  0  0  0  0999 V2000
  141.4600  160.1250  134.9470 N   0  0  0  0  0  0  0  0  0  0  0  0
  142.5560  160.5010  134.1180 C   0  0  0  0  0  0  0  0  0  0  0  0
  142.5460  161.6310  133.5630 O   0  0  0  0  0  0  0  0  0  0  0  0
  143.7100  159.5960  133.9120 C   0  0  0  0  0  0  0  0  0  0  0  0
  145.0170  160.0470  133.7420 C   0  0  0  0  0  0  0  0  0  0  0  0
  145.7830  158.9100  133.6120 C   0  0  0  0  0  0  0  0  0  0  0  0
  147.1490  158.7730  133.3930 C   0  0  0  0  0  0  0  0  0  0  0  0
  147.6670  157.4740  133.2600 C   0  0  0  0  0  0  0  0  0  0  0  0
  146.8190  156.3410  133.3540 C   0  0  0  0  0  0  0  0  0  0  0  0
  147.3760  154.9560  133.1470 C   0  0  0  0  0  0  0  0  0  0  0  0
  148.4610  154.9910  132.2860 F   0  0  0  0  0  0  0  0  0  0  0  0
  147.7850  154.4420  134.3630 F   0  0  0  0  0  0  0  0  0  0  0  0
  146.4190  154.1190  132.6010 F   0  0  0  0  0  0  0  0  0  0  0  0
  145.4310  156.5250  133.5500 C   0  0  0  0  0  0  0  0  0  0  0  0
  144.9460  157.8290  133.7020 C   0  0  0  0  0  0  0  0  0  0  0  0
  143.6700  158.2330  133.8960 N   0  0  0  0  0  0  0  0  0  0  0  0
  142.5110  157.3900  134.0080 C   0  0  0  0  0  0  0  0  0  0  0  0
  142.3810  156.6490  135.0190 O   0  0  0  0  0  0  0  0  0  0  0  0
  141.4160  157.4030  132.9670 C   0  0  0  0  0  0  0  0  0  0  0  0
  140.4840  158.5430  133.1270 N   0  0  0  0  0  0  0  0  0  0  0  0
  140.6240  159.5470  132.0300 C   0  0  0  0  0  0  0  0  0  0  0  0
  139.2020  159.9240  131.7030 C   0  0  1  0  0  0  0  0  0  0  0  0
  138.6690  160.4400  130.3890 C   0  0  0  0  0  0  0  0  0  0  0  0
  137.2530  160.0020  130.3730 N   0  0  0  0  0  0  0  0  0  0  0  0
  137.1150  158.9870  131.4430 C   0  0  0  0  0  0  0  0  0  0  0  0
  138.5360  158.6100  131.7800 C   0  0  2  0  0  0  0  0  0  0  0  0
  139.0610  158.0910  133.0980 C   0  0  0  0  0  0  0  0  0  0  0  0
  141.3000  159.1270  135.2070 H   0  0  0  0  0  0  0  0  0  0  0  0
  145.3638  161.0906  133.7169 H   0  0  0  0  0  0  0  0  0  0  0  0
  147.8038  159.6543  133.3260 H   0  0  0  0  0  0  0  0  0  0  0  0
  148.7432  157.3339  133.0808 H   0  0  0  0  0  0  0  0  0  0  0  0
  144.7481  155.6632  133.5823 H   0  0  0  0  0  0  0  0  0  0  0  0
  141.8789  157.4649  131.9711 H   0  0  0  0  0  0  0  0  0  0  0  0
  140.8322  156.4788  133.0896 H   0  0  0  0  0  0  0  0  0  0  0  0
  140.6560  159.0090  134.0490 H   0  0  0  0  0  0  0  0  0  0  0  0
  141.1930  160.4241  132.3720 H   0  0  0  0  0  0  0  0  0  0  0  0
  141.1700  159.1529  131.1602 H   0  0  0  0  0  0  0  0  0  0  0  0
  139.0507  160.7944  132.3584 H   0  0  0  0  0  0  0  0  0  0  0  0
  138.7385  161.5369  130.3437 H   0  0  0  0  0  0  0  0  0  0  0  0
  139.2367  160.0611  129.5264 H   0  0  0  0  0  0  0  0  0  0  0  0
  136.6480  160.8200  130.6160 H   0  0  0  0  0  0  0  0  0  0  0  0
  136.6054  159.4118  132.3204 H   0  0  0  0  0  0  0  0  0  0  0  0
  136.5127  158.1220  131.1284 H   0  0  0  0  0  0  0  0  0  0  0  0
  138.6925  157.7384  131.1274 H   0  0  0  0  0  0  0  0  0  0  0  0
  138.4976  158.5209  133.9392 H   0  0  0  0  0  0  0  0  0  0  0  0
  138.9630  156.9993  133.1909 H   0  0  0  0  0  0  0  0  0  0  0  0
  1  2  1  0
  2  3  2  0
  2  4  1  0
  4  5  2  0
  5  6  1  0
  6  7  2  0
  7  8  1  0
  8  9  2  0
  9 10  1  0
 10 11  1  0
 10 12  1  0
 10 13  1  0
  9 14  1  0
 14 15  2  0
 15 16  1  0
 16 17  1  0
 17 18  2  0
 17 19  1  0
 19 20  1  0
 20 21  1  0
 21 22  1  0
 22 23  1  0
 23 24  1  0
 24 25  1  0
 25 26  1  0
 26 27  1  0
 16  4  1  0
 27 20  1  0
 15  6  1  0
 26 22  1  0
  1 28  1  0
  5 29  1  0
  7 30  1  0
  8 31  1  0
 14 32  1  0
 19 33  1  0
 19 34  1  0
 20 35  1  0
 21 36  1  0
 21 37  1  0
 22 38  1  1
 23 39  1  0
 23 40  1  0
 24 41  1  0
 25 42  1  0
 25 43  1  0
 26 44  1  6
 27 45  1  0
 27 46  1  0
M  CHG  2   1  -1  20   1
M  END
>  <UniqueID>  (52) 
52

>  <SMILES>  (52) 
[NH-]C(=O)c1cc2ccc(C(F)(F)F)cc2n1C(=O)C[NH+]1C[C@H]2CNC[C@@H]2C1

>  <Energy>  (52) 
122.12671265541033

>  <Genealogy>  (52) 
[NH-]C(=O)c1cc2ccc(C(F)(F)F)cc2n1C(=O)C[NH+]1CC2CNCC2C1 (protonated)
[NH-]C(=O)c1cc2ccc(C(F)(F)F)cc2n1C(=O)C[NH+]1C[C@H]2CNC[C@@H]2C1 (chirality)
[NH-]C(=O)c1cc2ccc(C(F)(F)F)cc2n1C(=O)C[NH+]1C[C@H]2CNC[C@@H]2C1 (3D coordinates assigned)
[NH-]C(=O)c1cc2ccc(C(F)(F)F)cc2n1C(=O)C[NH+]1C[C@H]2CNC[C@@H]2C1 (nonaromatic ring conformer: 122.12671265541033 kcal/mol)

>  <smiles>  (52) 
NC(=O)c1cc2ccc(C(F)(F)F)cc2n1C(=O)CN1CC2CNCC2C1

>  <score_type>  (52) 
oracle

>  <origin>  (52) 
adg

>  <m_score__min__energy>  (52) 
-7.3099999999999996

>  <m_primary>  (52) 
energy

$$$$
52:0
     RDKit          3D

 41 42  0  0  0  0  0  0  0  0999 V2000
  148.8990  159.9860  131.8950 C   0  0  0  0  0  0  0  0  0  0  0  0
  148.4320  158.8010  132.7620 C   0  0  0  0  0  0  0  0  0  0  0  0
  149.0870  157.5150  132.2370 C   0  0  0  0  0  0  0  0  0  0  0  0
  148.8480  159.0070  134.2310 C   0  0  0  0  0  0  0  0  0  0  0  0
  147.0100  158.6270  132.6580 O   0  0  0  0  0  0  0  0  0  0  0  0
  146.0310  159.5810  132.9700 C   0  0  0  0  0  0  0  0  0  0  0  0
  146.3370  160.6570  133.5510 O   0  0  0  0  0  0  0  0  0  0  0  0
  144.7040  159.3090  132.6170 O   0  0  0  0  0  0  0  0  0  0  0  0
  143.6210  159.2800  133.5070 C   0  0  0  0  0  0  0  0  0  0  0  0
  143.4840  160.1750  134.3850 O   0  0  0  0  0  0  0  0  0  0  0  0
  142.6660  158.2090  133.4240 N   0  0  0  0  0  0  0  0  0  0  0  0
  142.7970  156.9440  133.9160 C   0  0  0  0  0  0  0  0  0  0  0  0
  144.0320  156.3730  134.4980 C   0  0  0  0  0  0  0  0  0  0  0  0
  145.3150  156.7230  133.9770 N   0  0  0  0  0  0  0  0  0  0  0  0
  143.9630  155.5920  135.4840 O   0  0  0  0  0  0  0  0  0  0  0  0
  141.6260  156.2170  133.7120 C   0  0  0  0  0  0  0  0  0  0  0  0
  140.7670  157.0810  133.0730 C   0  0  0  0  0  0  0  0  0  0  0  0
  139.4550  156.8870  132.6520 C   0  0  0  0  0  0  0  0  0  0  0  0
  138.7900  157.9670  132.0490 C   0  0  0  0  0  0  0  0  0  0  0  0
  139.4460  159.2130  131.8670 C   0  0  0  0  0  0  0  0  0  0  0  0
  138.7010  160.3840  131.2780 C   0  0  0  0  0  0  0  0  0  0  0  0
  139.1160  161.5700  131.8580 F   0  0  0  0  0  0  0  0  0  0  0  0
  138.9240  160.4680  129.9140 F   0  0  0  0  0  0  0  0  0  0  0  0
  137.3470  160.2220  131.5030 F   0  0  0  0  0  0  0  0  0  0  0  0
  140.7720  159.3760  132.3310 C   0  0  0  0  0  0  0  0  0  0  0  0
  141.4160  158.2770  132.9110 C   0  0  0  0  0  0  0  0  0  0  0  0
  149.2241  160.8109  132.5460 H   0  0  0  0  0  0  0  0  0  0  0  0
  149.7388  159.6672  131.2600 H   0  0  0  0  0  0  0  0  0  0  0  0
  148.0676  160.3258  131.2600 H   0  0  0  0  0  0  0  0  0  0  0  0
  149.4043  156.8920  133.0863 H   0  0  0  0  0  0  0  0  0  0  0  0
  148.3626  156.9583  131.6243 H   0  0  0  0  0  0  0  0  0  0  0  0
  149.9633  157.7735  131.6243 H   0  0  0  0  0  0  0  0  0  0  0  0
  148.0608  158.6172  134.8931 H   0  0  0  0  0  0  0  0  0  0  0  0
  149.7887  158.4706  134.4244 H   0  0  0  0  0  0  0  0  0  0  0  0
  148.9915  160.0803  134.4244 H   0  0  0  0  0  0  0  0  0  0  0  0
  145.4110  157.3230  133.1280 H   0  0  0  0  0  0  0  0  0  0  0  0
  146.1810  156.3440  134.4200 H   0  0  0  0  0  0  0  0  0  0  0  0
  141.4300  155.1738  134.0006 H   0  0  0  0  0  0  0  0  0  0  0  0
  138.9539  155.9171  132.7874 H   0  0  0  0  0  0  0  0  0  0  0  0
  137.7492  157.8463  131.7139 H   0  0  0  0  0  0  0  0  0  0  0  0
  141.2855  160.3444  132.2382 H   0  0  0  0  0  0  0  0  0  0  0  0
  1  2  1  0
  2  3  1  0
  2  4  1  0
  2  5  1  0
  5  6  1  0
  6  7  2  0
  6  8  1  0
  8  9  1  0
  9 10  2  0
  9 11  1  0
 11 12  1  0
 12 13  1  0
 13 14  1  0
 13 15  2  0
 12 16  2  0
 16 17  1  0
 17 18  2  0
 18 19  1  0
 19 20  2  0
 20 21  1  0
 21 22  1  0
 21 23  1  0
 21 24  1  0
 20 25  1  0
 25 26  2  0
 26 11  1  0
 26 17  1  0
  1 27  1  0
  1 28  1  0
  1 29  1  0
  3 30  1  0
  3 31  1  0
  3 32  1  0
  4 33  1  0
  4 34  1  0
  4 35  1  0
 14 36  1  0
 14 37  1  0
 16 38  1  0
 18 39  1  0
 19 40  1  0
 25 41  1  0
M  END
>  <UniqueID>  (53) 
53

>  <SMILES>  (53) 
CC(C)(C)OC(=O)OC(=O)n1c(C(N)=O)cc2ccc(C(F)(F)F)cc21

>  <Energy>  (53) 
76.95527245274445

>  <Genealogy>  (53) 
CC(C)(C)OC(=O)OC(=O)n1c(C(N)=O)cc2ccc(C(F)(F)F)cc21 (3D coordinates assigned)
CC(C)(C)OC(=O)OC(=O)n1c(C(N)=O)cc2ccc(C(F)(F)F)cc21 (optimized conformer: 76.95527245274445 kcal/mol)

>  <smiles>  (53) 
CC(C)(C)OC(=O)OC(=O)n1c(C(N)=O)cc2ccc(C(F)(F)F)cc21

>  <score_type>  (53) 
oracle

>  <origin>  (53) 
adg

>  <m_score__min__energy>  (53) 
-6.6900000000000004

>  <m_primary>  (53) 
energy

$$$$
53:0
     RDKit          3D

 36 37  0  0  0  0  0  0  0  0999 V2000
  143.3050  155.3070  133.2680 N   0  0  0  0  0  0  0  0  0  0  0  0
  143.3650  154.0490  133.9440 C   0  0  0  0  0  0  0  0  0  0  0  0
  143.9820  153.9710  135.0380 O   0  0  0  0  0  0  0  0  0  0  0  0
  142.6780  152.8620  133.3910 C   0  0  0  0  0  0  0  0  0  0  0  0
  143.2920  151.6250  133.2080 C   0  0  0  0  0  0  0  0  0  0  0  0
  142.3480  150.8380  132.5880 C   0  0  0  0  0  0  0  0  0  0  0  0
  142.4150  149.5070  132.1940 C   0  0  0  0  0  0  0  0  0  0  0  0
  141.2730  148.9330  131.6090 C   0  0  0  0  0  0  0  0  0  0  0  0
  140.0940  149.6990  131.4200 C   0  0  0  0  0  0  0  0  0  0  0  0
  138.8550  149.0550  130.8490 C   0  0  0  0  0  0  0  0  0  0  0  0
  138.8620  147.6910  131.0840 F   0  0  0  0  0  0  0  0  0  0  0  0
  138.7850  149.2580  129.4830 F   0  0  0  0  0  0  0  0  0  0  0  0
  137.7390  149.6090  131.4460 F   0  0  0  0  0  0  0  0  0  0  0  0
  140.0580  151.0430  131.8560 C   0  0  0  0  0  0  0  0  0  0  0  0
  141.2170  151.5940  132.4180 C   0  0  0  0  0  0  0  0  0  0  0  0
  141.4040  152.8420  132.9070 N   0  0  0  0  0  0  0  0  0  0  0  0
  140.4250  153.8910  132.9830 C   0  0  0  0  0  0  0  0  0  0  0  0
  139.2000  153.6150  132.8700 O   0  0  0  0  0  0  0  0  0  0  0  0
  140.8450  155.2130  133.1940 O   0  0  0  0  0  0  0  0  0  0  0  0
  140.0080  156.3350  133.1770 C   0  0  0  0  0  0  0  0  0  0  0  0
  139.1240  156.4800  132.2900 O   0  0  0  0  0  0  0  0  0  0  0  0
  140.1820  157.3930  134.2240 C   0  0  0  0  0  0  0  0  0  0  0  0
  141.0860  158.5320  133.7400 C   0  0  0  0  0  0  0  0  0  0  0  0
  142.4930  158.0670  133.5240 C   0  0  0  0  0  0  0  0  0  0  0  0
  143.3290  158.1190  134.4650 O   0  0  0  0  0  0  0  0  0  0  0  0
  142.8910  157.6060  132.2760 O   0  0  0  0  0  0  0  0  0  0  0  0
  142.8440  155.3990  132.3360 H   0  0  0  0  0  0  0  0  0  0  0  0
  143.7630  156.1470  133.6840 H   0  0  0  0  0  0  0  0  0  0  0  0
  144.3138  151.3382  133.4973 H   0  0  0  0  0  0  0  0  0  0  0  0
  143.3344  148.9200  132.3357 H   0  0  0  0  0  0  0  0  0  0  0  0
  141.2937  147.8791  131.2945 H   0  0  0  0  0  0  0  0  0  0  0  0
  139.1411  151.6425  131.7564 H   0  0  0  0  0  0  0  0  0  0  0  0
  139.1951  157.8062  134.4796 H   0  0  0  0  0  0  0  0  0  0  0  0
  140.6570  156.9298  135.1014 H   0  0  0  0  0  0  0  0  0  0  0  0
  140.6899  158.9232  132.7913 H   0  0  0  0  0  0  0  0  0  0  0  0
  141.0976  159.3138  134.5138 H   0  0  0  0  0  0  0  0  0  0  0  0
  1  2  1  0
  2  3  2  0
  2  4  1  0
  4  5  2  0
  5  6  1  0
  6  7  2  0
  7  8  1  0
  8  9  2  0
  9 10  1  0
 10 11  1  0
 10 12  1  0
 10 13  1  0
  9 14  1  0
 14 15  2  0
 15 16  1  0
 16 17  1  0
 17 18  2  0
 17 19  1  0
 19 20  1  0
 20 21  2  0
 20 22  1  0
 22 23  1  0
 23 24  1  0
 24 25  2  0
 24 26  1  0
 16  4  1  0
 15  6  1  0
  1 27  1  0
  1 28  1  0
  5 29  1  0
  7 30  1  0
  8 31  1  0
 14 32  1  0
 22 33  1  0
 22 34  1  0
 23 35  1  0
 23 36  1  0
M  CHG  1  26  -1
M  END
>  <UniqueID>  (54) 
54

>  <SMILES>  (54) 
NC(=O)c1cc2ccc(C(F)(F)F)cc2n1C(=O)OC(=O)CCC(=O)[O-]

>  <Energy>  (54) 
72.01457192557784

>  <Genealogy>  (54) 
NC(=O)c1cc2ccc(C(F)(F)F)cc2n1C(=O)OC(=O)CCC(=O)[O-] (protonated)
NC(=O)c1cc2ccc(C(F)(F)F)cc2n1C(=O)OC(=O)CCC(=O)[O-] (3D coordinates assigned)
NC(=O)c1cc2ccc(C(F)(F)F)cc2n1C(=O)OC(=O)CCC(=O)[O-] (optimized conformer: 72.01457192557784 kcal/mol)

>  <smiles>  (54) 
NC(=O)c1cc2ccc(C(F)(F)F)cc2n1C(=O)OC(=O)CCC(=O)O

>  <score_type>  (54) 
oracle

>  <origin>  (54) 
adg

>  <m_score__min__energy>  (54) 
-6.0899999999999999

>  <m_primary>  (54) 
energy

$$$$
54:0
     RDKit          3D

 45 46  0  0  0  0  0  0  0  0999 V2000
  142.3350  155.0970  136.2780 C   0  0  0  0  0  0  0  0  0  0  0  0
  142.9130  155.6430  135.0440 N   0  0  0  0  0  0  0  0  0  0  0  0
  142.5760  157.0150  134.6330 C   0  0  0  0  0  0  0  0  0  0  0  0
  142.0010  157.0200  133.2160 C   0  0  0  0  0  0  0  0  0  0  0  0
  143.0340  157.1200  132.2730 O   0  0  0  0  0  0  0  0  0  0  0  0
  143.8180  154.8500  134.2420 C   0  0  0  0  0  0  0  0  0  0  0  0
  143.4610  154.4740  133.0900 O   0  0  0  0  0  0  0  0  0  0  0  0
  145.1860  154.4690  134.7610 C   0  0  0  0  0  0  0  0  0  0  0  0
  146.2930  155.2400  134.0880 C   0  0  0  0  0  0  0  0  0  0  0  0
  147.4510  154.5680  133.6240 C   0  0  0  0  0  0  0  0  0  0  0  0
  148.4800  155.2760  132.9820 C   0  0  0  0  0  0  0  0  0  0  0  0
  148.3140  156.6470  132.8000 C   0  0  0  0  0  0  0  0  0  0  0  0
  149.1580  157.5740  132.2320 C   0  0  0  0  0  0  0  0  0  0  0  0
  148.4850  158.7930  132.3240 C   0  0  0  0  0  0  0  0  0  0  0  0
  148.9920  160.0700  131.7700 C   0  0  0  0  0  0  0  0  0  0  0  0
  148.1170  161.1840  131.5830 N   0  0  0  0  0  0  0  0  0  0  0  0
  150.2090  160.1900  131.4720 O   0  0  0  0  0  0  0  0  0  0  0  0
  147.2720  158.6200  132.9210 N   0  0  0  0  0  0  0  0  0  0  0  0
  146.3020  159.6300  133.2420 C   0  0  0  0  0  0  0  0  0  0  0  0
  146.6810  160.7130  133.7640 O   0  0  0  0  0  0  0  0  0  0  0  0
  144.9120  159.4020  132.9590 N   0  0  0  0  0  0  0  0  0  0  0  0
  143.8510  160.2620  133.4000 C   0  0  0  0  0  0  0  0  0  0  0  0
  142.5030  159.9740  133.0290 N   0  0  0  0  0  0  0  0  0  0  0  0
  144.0920  161.2660  134.1230 O   0  0  0  0  0  0  0  0  0  0  0  0
  147.1860  157.3050  133.2120 C   0  0  0  0  0  0  0  0  0  0  0  0
  146.1560  156.6300  133.8770 C   0  0  0  0  0  0  0  0  0  0  0  0
  142.8244  155.5593  137.1479 H   0  0  0  0  0  0  0  0  0  0  0  0
  141.2570  155.3142  136.3054 H   0  0  0  0  0  0  0  0  0  0  0  0
  142.4905  154.0084  136.3054 H   0  0  0  0  0  0  0  0  0  0  0  0
  141.8308  157.4291  135.3282 H   0  0  0  0  0  0  0  0  0  0  0  0
  143.4895  157.6275  134.6499 H   0  0  0  0  0  0  0  0  0  0  0  0
  141.4441  156.0866  133.0469 H   0  0  0  0  0  0  0  0  0  0  0  0
  141.3296  157.8842  133.1049 H   0  0  0  0  0  0  0  0  0  0  0  0
  143.1180  156.2260  131.8490 H   0  0  0  0  0  0  0  0  0  0  0  0
  145.2221  154.6704  135.8418 H   0  0  0  0  0  0  0  0  0  0  0  0
  145.3412  153.4019  134.5436 H   0  0  0  0  0  0  0  0  0  0  0  0
  147.5449  153.4815  133.7680 H   0  0  0  0  0  0  0  0  0  0  0  0
  149.3890  154.7637  132.6336 H   0  0  0  0  0  0  0  0  0  0  0  0
  150.1522  157.3925  131.7976 H   0  0  0  0  0  0  0  0  0  0  0  0
  148.4960  162.0930  131.2350 H   0  0  0  0  0  0  0  0  0  0  0  0
  147.0900  161.1060  131.7500 H   0  0  0  0  0  0  0  0  0  0  0  0
  144.6590  158.5650  132.3870 H   0  0  0  0  0  0  0  0  0  0  0  0
  141.7240  160.5900  133.3510 H   0  0  0  0  0  0  0  0  0  0  0  0
  142.2800  159.1410  132.4400 H   0  0  0  0  0  0  0  0  0  0  0  0
  145.2626  157.1682  134.2264 H   0  0  0  0  0  0  0  0  0  0  0  0
  1  2  1  0
  2  3  1  0
  3  4  1  0
  4  5  1  0
  2  6  1  0
  6  7  2  0
  6  8  1  0
  8  9  1  0
  9 10  2  0
 10 11  1  0
 11 12  2  0
 12 13  1  0
 13 14  2  0
 14 15  1  0
 15 16  1  0
 15 17  2  0
 14 18  1  0
 18 19  1  0
 19 20  2  0
 19 21  1  0
 21 22  1  0
 22 23  1  0
 22 24  2  0
 18 25  1  0
 25 26  2  0
 26  9  1  0
 25 12  1  0
  1 27  1  0
  1 28  1  0
  1 29  1  0
  3 30  1  0
  3 31  1  0
  4 32  1  0
  4 33  1  0
  5 34  1  0
  8 35  1  0
  8 36  1  0
 10 37  1  0
 11 38  1  0
 13 39  1  0
 16 40  1  0
 16 41  1  0
 21 42  1  0
 23 43  1  0
 23 44  1  0
 26 45  1  0
M  END
>  <UniqueID>  (55) 
55

>  <SMILES>  (55) 
CN(CCO)C(=O)Cc1ccc2cc(C(N)=O)n(C(=O)NC(N)=O)c2c1

>  <Energy>  (55) 
77.73001556889656

>  <Genealogy>  (55) 
CN(CCO)C(=O)Cc1ccc2cc(C(N)=O)n(C(=O)NC(N)=O)c2c1 (3D coordinates assigned)
CN(CCO)C(=O)Cc1ccc2cc(C(N)=O)n(C(=O)NC(N)=O)c2c1 (optimized conformer: 77.73001556889656 kcal/mol)

>  <smiles>  (55) 
CN(CCO)C(=O)Cc1ccc2cc(C(N)=O)n(C(=O)NC(N)=O)c2c1

>  <score_type>  (55) 
oracle

>  <origin>  (55) 
adg

>  <m_score__min__energy>  (55) 
-8.1500000000000004

>  <m_primary>  (55) 
energy

$$$$
55:0
     RDKit          3D

 37 38  0  0  0  0  0  0  0  0999 V2000
  139.4930  158.2260  136.0000 C   0  0  0  0  0  0  0  0  0  0  0  0
  139.9070  158.3170  134.5970 N   0  0  0  0  0  0  0  0  0  0  0  0
  138.9290  158.0290  133.5330 C   0  0  0  0  0  0  0  0  0  0  0  0
  139.4220  158.5190  132.1650 C   0  0  0  0  0  0  0  0  0  0  0  0
  138.7660  159.8070  131.7790 C   0  0  0  0  0  0  0  0  0  0  0  0
  139.3880  160.8950  131.8920 O   0  0  0  0  0  0  0  0  0  0  0  0
  137.4820  159.8030  131.2540 O   0  0  0  0  0  0  0  0  0  0  0  0
  141.2550  158.7350  134.2790 C   0  0  0  0  0  0  0  0  0  0  0  0
  141.5820  160.1140  134.1760 C   0  0  0  0  0  0  0  0  0  0  0  0
  142.8890  160.5240  133.8640 C   0  0  0  0  0  0  0  0  0  0  0  0
  143.8530  159.5390  133.6670 C   0  0  0  0  0  0  0  0  0  0  0  0
  145.1820  159.6550  133.3290 C   0  0  0  0  0  0  0  0  0  0  0  0
  145.6590  158.3460  133.2480 C   0  0  0  0  0  0  0  0  0  0  0  0
  147.0640  157.9800  132.9530 C   0  0  0  0  0  0  0  0  0  0  0  0
  147.3730  156.9680  131.9910 N   0  0  0  0  0  0  0  0  0  0  0  0
  148.0060  158.5730  133.5410 O   0  0  0  0  0  0  0  0  0  0  0  0
  144.6610  157.4620  133.5350 N   0  0  0  0  0  0  0  0  0  0  0  0
  144.7350  156.0270  133.5130 C   0  0  0  0  0  0  0  0  0  0  0  0
  145.1760  155.4090  134.5180 O   0  0  0  0  0  0  0  0  0  0  0  0
  144.2900  155.2650  132.3400 C   0  0  0  0  0  0  0  0  0  0  0  0
  145.1220  154.8490  131.4920 O   0  0  0  0  0  0  0  0  0  0  0  0
  143.5620  158.2070  133.7780 C   0  0  0  0  0  0  0  0  0  0  0  0
  142.2680  157.7680  134.0650 C   0  0  0  0  0  0  0  0  0  0  0  0
  140.3590  158.4164  136.6509 H   0  0  0  0  0  0  0  0  0  0  0  0
  138.7118  158.9739  136.2010 H   0  0  0  0  0  0  0  0  0  0  0  0
  139.0974  157.2195  136.2010 H   0  0  0  0  0  0  0  0  0  0  0  0
  138.7636  156.9426  133.4847 H   0  0  0  0  0  0  0  0  0  0  0  0
  137.9948  158.5583  133.7719 H   0  0  0  0  0  0  0  0  0  0  0  0
  140.5105  158.6709  132.2100 H   0  0  0  0  0  0  0  0  0  0  0  0
  139.1653  157.7597  131.4116 H   0  0  0  0  0  0  0  0  0  0  0  0
  140.8012  160.8707  134.3428 H   0  0  0  0  0  0  0  0  0  0  0  0
  143.1430  161.5908  133.7780 H   0  0  0  0  0  0  0  0  0  0  0  0
  145.7482  160.5826  133.1588 H   0  0  0  0  0  0  0  0  0  0  0  0
  146.6270  156.4060  131.5260 H   0  0  0  0  0  0  0  0  0  0  0  0
  148.3710  156.7430  131.7770 H   0  0  0  0  0  0  0  0  0  0  0  0
  143.2192  155.0555  132.2007 H   0  0  0  0  0  0  0  0  0  0  0  0
  142.0398  156.6935  134.1237 H   0  0  0  0  0  0  0  0  0  0  0  0
  1  2  1  0
  2  3  1  0
  3  4  1  0
  4  5  1  0
  5  6  2  0
  5  7  1  0
  2  8  1  0
  8  9  2  0
  9 10  1  0
 10 11  2  0
 11 12  1  0
 12 13  2  0
 13 14  1  0
 14 15  1  0
 14 16  2  0
 13 17  1  0
 17 18  1  0
 18 19  2  0
 18 20  1  0
 20 21  2  0
 17 22  1  0
 22 23  2  0
 23  8  1  0
 22 11  1  0
  1 24  1  0
  1 25  1  0
  1 26  1  0
  3 27  1  0
  3 28  1  0
  4 29  1  0
  4 30  1  0
  9 31  1  0
 10 32  1  0
 12 33  1  0
 15 34  1  0
 15 35  1  0
 20 36  1  0
 23 37  1  0
M  CHG  1   7  -1
M  END
>  <UniqueID>  (56) 
56

>  <SMILES>  (56) 
CN(CCC(=O)[O-])c1ccc2cc(C(N)=O)n(C(=O)C=O)c2c1

>  <Energy>  (56) 
74.75078511353938

>  <Genealogy>  (56) 
CN(CCC(=O)[O-])c1ccc2cc(C(N)=O)n(C(=O)C=O)c2c1 (protonated)
CN(CCC(=O)[O-])c1ccc2cc(C(N)=O)n(C(=O)C=O)c2c1 (3D coordinates assigned)
CN(CCC(=O)[O-])c1ccc2cc(C(N)=O)n(C(=O)C=O)c2c1 (optimized conformer: 74.75078511353938 kcal/mol)

>  <smiles>  (56) 
CN(CCC(=O)O)c1ccc2cc(C(N)=O)n(C(=O)C=O)c2c1

>  <score_type>  (56) 
oracle

>  <origin>  (56) 
adg

>  <m_score__min__energy>  (56) 
-6.7199999999999998

>  <m_primary>  (56) 
energy

$$$$
56:0
     RDKit          3D

 42 43  0  0  0  0  0  0  0  0999 V2000
  138.7340  158.3140  132.9930 C   0  0  0  0  0  0  0  0  0  0  0  0
  139.1490  157.3220  133.9240 O   0  0  0  0  0  0  0  0  0  0  0  0
  139.8820  156.1930  133.5450 C   0  0  0  0  0  0  0  0  0  0  0  0
  139.3300  155.2590  132.9040 O   0  0  0  0  0  0  0  0  0  0  0  0
  141.2780  156.1010  133.8490 N   0  0  0  0  0  0  0  0  0  0  0  0
  141.8480  155.3340  134.9570 C   0  0  2  0  0  0  0  0  0  0  0  0
  141.6630  156.1020  136.2790 C   0  0  0  0  0  0  0  0  0  0  0  0
  140.6180  157.0320  136.1650 O   0  0  0  0  0  0  0  0  0  0  0  0
  143.2900  154.9610  134.6660 C   0  0  0  0  0  0  0  0  0  0  0  0
  143.9900  154.4590  135.5340 O   0  0  0  0  0  0  0  0  0  0  0  0
  143.8910  155.2360  133.3120 C   0  0  0  0  0  0  0  0  0  0  0  0
  144.5370  156.5950  133.3000 C   0  0  0  0  0  0  0  0  0  0  0  0
  145.9460  156.7100  133.1900 C   0  0  0  0  0  0  0  0  0  0  0  0
  146.5710  157.9650  133.2820 C   0  0  0  0  0  0  0  0  0  0  0  0
  145.7640  159.0810  133.4840 C   0  0  0  0  0  0  0  0  0  0  0  0
  146.1100  160.3990  133.6800 C   0  0  0  0  0  0  0  0  0  0  0  0
  144.9050  161.0680  133.8950 C   0  0  0  0  0  0  0  0  0  0  0  0
  144.8020  162.5240  134.1270 C   0  0  0  0  0  0  0  0  0  0  0  0
  143.8790  163.3010  133.3660 N   0  0  0  0  0  0  0  0  0  0  0  0
  145.5080  163.0890  135.0040 O   0  0  0  0  0  0  0  0  0  0  0  0
  143.8590  160.1980  133.8250 N   0  0  0  0  0  0  0  0  0  0  0  0
  142.4730  160.4760  134.0820 C   0  0  0  0  0  0  0  0  0  0  0  0
  141.8940  161.3970  133.4460 O   0  0  0  0  0  0  0  0  0  0  0  0
  141.7190  159.6980  135.0740 C   0  0  0  0  0  0  0  0  0  0  0  0
  140.4600  159.7120  135.0720 O   0  0  0  0  0  0  0  0  0  0  0  0
  142.3930  158.9520  136.0310 O   0  0  0  0  0  0  0  0  0  0  0  0
  144.4010  158.9880  133.5760 C   0  0  0  0  0  0  0  0  0  0  0  0
  143.7530  157.7520  133.4950 C   0  0  0  0  0  0  0  0  0  0  0  0
  138.3650  159.1960  133.5370 H   0  0  0  0  0  0  0  0  0  0  0  0
  139.5866  158.6032  132.3610 H   0  0  0  0  0  0  0  0  0  0  0  0
  137.9294  157.9100  132.3610 H   0  0  0  0  0  0  0  0  0  0  0  0
  141.3084  154.3819  135.0680 H   0  0  0  0  0  0  0  0  0  0  0  0
  141.4266  155.3885  137.0821 H   0  0  0  0  0  0  0  0  0  0  0  0
  142.5940  156.6397  136.5114 H   0  0  0  0  0  0  0  0  0  0  0  0
  140.8080  157.5870  135.3650 H   0  0  0  0  0  0  0  0  0  0  0  0
  144.6488  154.4708  133.0880 H   0  0  0  0  0  0  0  0  0  0  0  0
  143.0958  155.2084  132.5525 H   0  0  0  0  0  0  0  0  0  0  0  0
  146.5555  155.8082  133.0311 H   0  0  0  0  0  0  0  0  0  0  0  0
  147.6634  158.0625  133.1971 H   0  0  0  0  0  0  0  0  0  0  0  0
  147.1211  160.8322  133.6693 H   0  0  0  0  0  0  0  0  0  0  0  0
  143.0130  162.8720  132.9720 H   0  0  0  0  0  0  0  0  0  0  0  0
  142.6586  157.6830  133.5812 H   0  0  0  0  0  0  0  0  0  0  0  0
  1  2  1  0
  2  3  1  0
  3  4  2  0
  3  5  1  0
  5  6  1  0
  6  7  1  0
  7  8  1  0
  6  9  1  0
  9 10  2  0
  9 11  1  0
 11 12  1  0
 12 13  2  0
 13 14  1  0
 14 15  2  0
 15 16  1  0
 16 17  2  0
 17 18  1  0
 18 19  1  0
 18 20  2  0
 17 21  1  0
 21 22  1  0
 22 23  2  0
 22 24  1  0
 24 25  2  0
 24 26  1  0
 21 27  1  0
 27 28  2  0
 28 12  1  0
 27 15  1  0
  1 29  1  0
  1 30  1  0
  1 31  1  0
  6 32  1  1
  7 33  1  0
  7 34  1  0
  8 35  1  0
 11 36  1  0
 11 37  1  0
 13 38  1  0
 14 39  1  0
 16 40  1  0
 19 41  1  0
 28 42  1  0
M  CHG  3   5  -1  19  -1  26  -1
M  END
>  <UniqueID>  (57) 
57

>  <SMILES>  (57) 
COC(=O)[N-][C@H](CO)C(=O)Cc1ccc2cc(C([NH-])=O)n(C(=O)C(=O)[O-])c2c1

>  <Energy>  (57) 
71.69864393065397

>  <Genealogy>  (57) 
COC(=O)[N-]C(CO)C(=O)Cc1ccc2cc(C([NH-])=O)n(C(=O)C(=O)[O-])c2c1 (protonated)
COC(=O)[N-][C@H](CO)C(=O)Cc1ccc2cc(C([NH-])=O)n(C(=O)C(=O)[O-])c2c1 (chirality)
COC(=O)[N-][C@H](CO)C(=O)Cc1ccc2cc(C([NH-])=O)n(C(=O)C(=O)[O-])c2c1 (3D coordinates assigned)
COC(=O)[N-][C@H](CO)C(=O)Cc1ccc2cc(C([NH-])=O)n(C(=O)C(=O)[O-])c2c1 (optimized conformer: 71.69864393065397 kcal/mol)

>  <smiles>  (57) 
COC(=O)NC(CO)C(=O)Cc1ccc2cc(C(N)=O)n(C(=O)C(=O)O)c2c1

>  <score_type>  (57) 
oracle

>  <origin>  (57) 
adg

>  <m_score__min__energy>  (57) 
-6.54

>  <m_primary>  (57) 
energy

$$$$
57:0
     RDKit          3D

 43 44  0  0  0  0  0  0  0  0999 V2000
  140.7730  155.7200  133.5340 C   0  0  0  0  0  0  0  0  0  0  0  0
  141.3380  157.0730  133.6340 N   0  0  0  0  0  0  0  0  0  0  0  0
  142.6870  157.2780  133.1610 C   0  0  0  0  0  0  0  0  0  0  0  0
  142.8930  157.4880  131.9360 O   0  0  0  0  0  0  0  0  0  0  0  0
  143.8290  157.2690  134.0960 C   0  0  0  0  0  0  0  0  0  0  0  0
  143.7110  156.7360  135.2320 O   0  0  0  0  0  0  0  0  0  0  0  0
  145.0710  157.8890  133.7340 N   0  0  0  0  0  0  0  0  0  0  0  0
  145.3220  159.2180  133.5660 C   0  0  0  0  0  0  0  0  0  0  0  0
  144.3720  160.3190  133.8350 C   0  0  0  0  0  0  0  0  0  0  0  0
  143.0420  160.2860  133.3210 N   0  0  0  0  0  0  0  0  0  0  0  0
  144.7300  161.2910  134.5510 O   0  0  0  0  0  0  0  0  0  0  0  0
  146.6360  159.4140  133.1450 C   0  0  0  0  0  0  0  0  0  0  0  0
  147.1840  158.1540  133.0550 C   0  0  0  0  0  0  0  0  0  0  0  0
  148.4630  157.7550  132.6800 C   0  0  0  0  0  0  0  0  0  0  0  0
  148.7450  156.3790  132.6610 C   0  0  0  0  0  0  0  0  0  0  0  0
  147.7430  155.4270  132.9880 C   0  0  0  0  0  0  0  0  0  0  0  0
  148.0640  153.9550  133.0060 C   0  0  0  0  0  0  0  0  0  0  0  0
  148.4840  153.5960  134.2730 F   0  0  0  0  0  0  0  0  0  0  0  0
  146.9460  153.2090  132.6740 F   0  0  0  0  0  0  0  0  0  0  0  0
  149.0660  153.6590  132.0970 F   0  0  0  0  0  0  0  0  0  0  0  0
  146.4620  155.8750  133.3820 C   0  0  0  0  0  0  0  0  0  0  0  0
  146.2170  157.2530  133.4120 C   0  0  0  0  0  0  0  0  0  0  0  0
  140.4870  158.2330  134.0130 C   0  0  0  0  0  0  0  0  0  0  0  0
  141.0850  158.9950  135.2190 C   0  0  0  0  0  0  0  0  0  0  0  0
  139.0840  157.7230  134.4080 C   0  0  0  0  0  0  0  0  0  0  0  0
  140.4050  159.2190  132.8530 C   0  0  0  0  0  0  0  0  0  0  0  0
  140.4260  158.7730  131.4980 N   0  0  0  0  0  0  0  0  0  0  0  0
  140.3450  160.4560  133.0910 O   0  0  0  0  0  0  0  0  0  0  0  0
  140.6048  155.3173  134.5437 H   0  0  0  0  0  0  0  0  0  0  0  0
  139.8168  155.7611  132.9917 H   0  0  0  0  0  0  0  0  0  0  0  0
  141.4744  155.0689  132.9917 H   0  0  0  0  0  0  0  0  0  0  0  0
  142.7560  159.5710  132.6160 H   0  0  0  0  0  0  0  0  0  0  0  0
  147.1308  160.3726  132.9301 H   0  0  0  0  0  0  0  0  0  0  0  0
  149.2301  158.4945  132.4067 H   0  0  0  0  0  0  0  0  0  0  0  0
  149.7539  156.0347  132.3896 H   0  0  0  0  0  0  0  0  0  0  0  0
  145.6755  155.1575  133.6588 H   0  0  0  0  0  0  0  0  0  0  0  0
  140.7276  158.5395  136.1543 H   0  0  0  0  0  0  0  0  0  0  0  0
  142.1829  158.9392  135.1802 H   0  0  0  0  0  0  0  0  0  0  0  0
  140.7698  160.0482  135.1802 H   0  0  0  0  0  0  0  0  0  0  0  0
  139.0002  157.6925  135.5044 H   0  0  0  0  0  0  0  0  0  0  0  0
  138.3194  158.4007  134.0005 H   0  0  0  0  0  0  0  0  0  0  0  0
  138.9330  156.7125  134.0005 H   0  0  0  0  0  0  0  0  0  0  0  0
  141.3300  158.6300  130.9940 H   0  0  0  0  0  0  0  0  0  0  0  0
  1  2  1  0
  2  3  1  0
  3  4  2  0
  3  5  1  0
  5  6  2  0
  5  7  1  0
  7  8  1  0
  8  9  1  0
  9 10  1  0
  9 11  2  0
  8 12  2  0
 12 13  1  0
 13 14  2  0
 14 15  1  0
 15 16  2  0
 16 17  1  0
 17 18  1  0
 17 19  1  0
 17 20  1  0
 16 21  1  0
 21 22  2  0
  2 23  1  0
 23 24  1  0
 23 25  1  0
 23 26  1  0
 26 27  1  0
 26 28  2  0
 22  7  1  0
 22 13  1  0
  1 29  1  0
  1 30  1  0
  1 31  1  0
 10 32  1  0
 12 33  1  0
 14 34  1  0
 15 35  1  0
 21 36  1  0
 24 37  1  0
 24 38  1  0
 24 39  1  0
 25 40  1  0
 25 41  1  0
 25 42  1  0
 27 43  1  0
M  CHG  2  10  -1  27  -1
M  END
>  <UniqueID>  (58) 
58

>  <SMILES>  (58) 
CN(C(=O)C(=O)n1c(C([NH-])=O)cc2ccc(C(F)(F)F)cc21)C(C)(C)C([NH-])=O

>  <Energy>  (58) 
87.38305297366985

>  <Genealogy>  (58) 
CN(C(=O)C(=O)n1c(C([NH-])=O)cc2ccc(C(F)(F)F)cc21)C(C)(C)C([NH-])=O (protonated)
CN(C(=O)C(=O)n1c(C([NH-])=O)cc2ccc(C(F)(F)F)cc21)C(C)(C)C([NH-])=O (3D coordinates assigned)
CN(C(=O)C(=O)n1c(C([NH-])=O)cc2ccc(C(F)(F)F)cc21)C(C)(C)C([NH-])=O (optimized conformer: 87.38305297366985 kcal/mol)

>  <smiles>  (58) 
CN(C(=O)C(=O)n1c(C(N)=O)cc2ccc(C(F)(F)F)cc21)C(C)(C)C(N)=O

>  <score_type>  (58) 
oracle

>  <origin>  (58) 
adg

>  <m_score__min__energy>  (58) 
-6.8499999999999996

>  <m_primary>  (58) 
energy

$$$$
58:0
     RDKit          3D

 45 46  0  0  0  0  0  0  0  0999 V2000
  144.9960  156.5890  133.3200 C   0  0  0  0  0  0  0  0  0  0  0  0
  144.4170  155.2440  133.2640 N   0  0  0  0  0  0  0  0  0  0  0  0
  143.3370  154.9060  134.1560 C   0  0  0  0  0  0  0  0  0  0  0  0
  143.5890  154.4830  135.3160 O   0  0  0  0  0  0  0  0  0  0  0  0
  141.9670  155.0480  133.7440 N   0  0  0  0  0  0  0  0  0  0  0  0
  141.0980  154.0730  133.3600 C   0  0  0  0  0  0  0  0  0  0  0  0
  141.3650  152.6190  133.3650 C   0  0  0  0  0  0  0  0  0  0  0  0
  142.0780  151.9990  132.3000 N   0  0  0  0  0  0  0  0  0  0  0  0
  140.9890  151.9190  134.3450 O   0  0  0  0  0  0  0  0  0  0  0  0
  139.8660  154.6280  133.0200 C   0  0  0  0  0  0  0  0  0  0  0  0
  140.0090  155.9830  133.2100 C   0  0  0  0  0  0  0  0  0  0  0  0
  139.1100  157.0210  132.9860 C   0  0  0  0  0  0  0  0  0  0  0  0
  139.5490  158.3340  133.2270 C   0  0  0  0  0  0  0  0  0  0  0  0
  140.8620  158.5860  133.7010 C   0  0  0  0  0  0  0  0  0  0  0  0
  141.3360  160.0050  133.8900 C   0  0  0  0  0  0  0  0  0  0  0  0
  142.7010  160.0910  133.6830 F   0  0  0  0  0  0  0  0  0  0  0  0
  141.0490  160.4130  135.1790 F   0  0  0  0  0  0  0  0  0  0  0  0
  140.7100  160.8570  132.9980 F   0  0  0  0  0  0  0  0  0  0  0  0
  141.7520  157.5040  133.8940 C   0  0  0  0  0  0  0  0  0  0  0  0
  141.2850  156.2090  133.6530 C   0  0  0  0  0  0  0  0  0  0  0  0
  144.8980  154.3030  132.2860 C   0  0  0  0  0  0  0  0  0  0  0  0
  144.2120  154.0930  131.2470 O   0  0  0  0  0  0  0  0  0  0  0  0
  146.0790  153.5130  132.5480 N   0  0  1  0  0  0  0  0  0  0  0  0
  146.5140  153.7060  133.9390 C   0  0  0  0  0  0  0  0  0  0  0  0
  145.8320  152.1200  132.2640 C   0  0  0  0  0  0  0  0  0  0  0  0
  144.7320  151.5870  132.5850 O   0  0  0  0  0  0  0  0  0  0  0  0
  146.8110  151.3700  131.6010 O   0  0  0  0  0  0  0  0  0  0  0  0
  147.9490  150.8090  132.2520 C   0  0  0  0  0  0  0  0  0  0  0  0
  148.9940  151.8540  132.4860 C   0  0  0  0  0  0  0  0  0  0  0  0
  148.7640  153.0570  132.1950 O   0  0  0  0  0  0  0  0  0  0  0  0
  150.2340  151.4970  132.9990 O   0  0  0  0  0  0  0  0  0  0  0  0
  145.1252  156.8891  134.3704 H   0  0  0  0  0  0  0  0  0  0  0  0
  145.9737  156.5886  132.8159 H   0  0  0  0  0  0  0  0  0  0  0  0
  144.3238  157.2989  132.8159 H   0  0  0  0  0  0  0  0  0  0  0  0
  142.9020  152.4660  131.8620 H   0  0  0  0  0  0  0  0  0  0  0  0
  138.9684  154.0952  132.6729 H   0  0  0  0  0  0  0  0  0  0  0  0
  138.0882  156.8203  132.6315 H   0  0  0  0  0  0  0  0  0  0  0  0
  138.8659  159.1769  133.0458 H   0  0  0  0  0  0  0  0  0  0  0  0
  142.7864  157.6774  134.2256 H   0  0  0  0  0  0  0  0  0  0  0  0
  146.8630  153.8330  131.9350 H   0  0  0  0  0  0  0  0  0  0  0  0
  145.7256  153.3562  134.6216 H   0  0  0  0  0  0  0  0  0  0  0  0
  147.4352  153.1321  134.1181 H   0  0  0  0  0  0  0  0  0  0  0  0
  146.7067  154.7741  134.1181 H   0  0  0  0  0  0  0  0  0  0  0  0
  147.6394  150.3853  133.2188 H   0  0  0  0  0  0  0  0  0  0  0  0
  148.3725  150.0236  131.6087 H   0  0  0  0  0  0  0  0  0  0  0  0
  1  2  1  0
  2  3  1  0
  3  4  2  0
  3  5  1  0
  5  6  1  0
  6  7  1  0
  7  8  1  0
  7  9  2  0
  6 10  2  0
 10 11  1  0
 11 12  2  0
 12 13  1  0
 13 14  2  0
 14 15  1  0
 15 16  1  0
 15 17  1  0
 15 18  1  0
 14 19  1  0
 19 20  2  0
  2 21  1  0
 21 22  2  0
 21 23  1  0
 23 24  1  0
 23 25  1  0
 25 26  2  0
 25 27  1  0
 27 28  1  0
 28 29  1  0
 29 30  2  0
 29 31  1  0
 20  5  1  0
 20 11  1  0
  1 32  1  0
  1 33  1  0
  1 34  1  0
  8 35  1  0
 10 36  1  0
 12 37  1  0
 13 38  1  0
 19 39  1  0
 23 40  1  6
 24 41  1  0
 24 42  1  0
 24 43  1  0
 28 44  1  0
 28 45  1  0
M  CHG  3   8  -1  23   1  31  -1
M  END
>  <UniqueID>  (59) 
59

>  <SMILES>  (59) 
CN(C(=O)n1c(C([NH-])=O)cc2ccc(C(F)(F)F)cc21)C(=O)[NH+](C)C(=O)OCC(=O)[O-]

>  <Energy>  (59) 
85.67463805192124

>  <Genealogy>  (59) 
CN(C(=O)n1c(C([NH-])=O)cc2ccc(C(F)(F)F)cc21)C(=O)[NH+](C)C(=O)OCC(=O)[O-] (protonated)
CN(C(=O)n1c(C([NH-])=O)cc2ccc(C(F)(F)F)cc21)C(=O)[NH+](C)C(=O)OCC(=O)[O-] (3D coordinates assigned)
CN(C(=O)n1c(C([NH-])=O)cc2ccc(C(F)(F)F)cc21)C(=O)[NH+](C)C(=O)OCC(=O)[O-] (optimized conformer: 85.67463805192124 kcal/mol)

>  <smiles>  (59) 
CN(C(=O)OCC(=O)O)C(=O)N(C)C(=O)n1c(C(N)=O)cc2ccc(C(F)(F)F)cc21

>  <score_type>  (59) 
oracle

>  <origin>  (59) 
adg

>  <m_score__min__energy>  (59) 
-5.3899999999999997

>  <m_primary>  (59) 
energy

$$$$
59:0
     RDKit          3D

 35 36  0  0  0  0  0  0  0  0999 V2000
  147.9170  152.9900  135.4070 H   0  0  0  0  0  0  0  0  0  0  0  0
  147.2380  153.6850  135.7880 N   0  0  0  0  0  0  0  0  0  0  0  0
  146.3560  154.3980  134.9230 C   0  0  0  0  0  0  0  0  0  0  0  0
  145.1870  153.9670  134.7450 O   0  0  0  0  0  0  0  0  0  0  0  0
  146.8090  155.6510  134.2830 C   0  0  0  0  0  0  0  0  0  0  0  0
  146.1670  156.8760  134.4560 C   0  0  0  0  0  0  0  0  0  0  0  0
  145.3094  157.0928  135.1098 H   0  0  0  0  0  0  0  0  0  0  0  0
  146.8340  157.7570  133.6350 C   0  0  0  0  0  0  0  0  0  0  0  0
  146.6130  159.1120  133.4120 C   0  0  0  0  0  0  0  0  0  0  0  0
  145.7930  159.6433  133.9172 H   0  0  0  0  0  0  0  0  0  0  0  0
  147.4690  159.7810  132.5220 C   0  0  0  0  0  0  0  0  0  0  0  0
  147.3065  160.8480  132.3095 H   0  0  0  0  0  0  0  0  0  0  0  0
  148.5410  159.0960  131.8940 C   0  0  0  0  0  0  0  0  0  0  0  0
  149.4300  159.8170  130.9120 C   0  0  0  0  0  0  0  0  0  0  0  0
  149.0250  159.5700  129.6110 F   0  0  0  0  0  0  0  0  0  0  0  0
  149.3650  161.1760  131.1520 F   0  0  0  0  0  0  0  0  0  0  0  0
  150.7430  159.3980  131.0420 F   0  0  0  0  0  0  0  0  0  0  0  0
  148.7170  157.7120  132.1280 C   0  0  0  0  0  0  0  0  0  0  0  0
  149.5254  157.1551  131.6317 H   0  0  0  0  0  0  0  0  0  0  0  0
  147.8370  157.0680  133.0070 C   0  0  0  0  0  0  0  0  0  0  0  0
  147.8380  155.7720  133.3950 N   0  0  0  0  0  0  0  0  0  0  0  0
  148.7720  154.7620  132.9820 C   0  0  0  0  0  0  0  0  0  0  0  0
  149.7430  155.0680  132.2370 O   0  0  0  0  0  0  0  0  0  0  0  0
  148.5850  153.4340  133.3870 O   0  0  0  0  0  0  0  0  0  0  0  0
  147.9120  152.4910  132.6060 C   0  0  0  0  0  0  0  0  0  0  0  0
  146.8809  152.7103  132.2917 H   0  0  0  0  0  0  0  0  0  0  0  0
  148.4640  151.3320  132.2220 C   0  0  0  0  0  0  0  0  0  0  0  0
  147.8904  150.6954  131.5323 H   0  0  0  0  0  0  0  0  0  0  0  0
  149.7870  150.8510  132.6600 C   0  0  0  0  0  0  0  0  0  0  0  0
  150.0650  150.7430  133.8860 O   0  0  0  0  0  0  0  0  0  0  0  0
  150.7190  150.4730  131.6910 O   0  0  0  0  0  0  0  0  0  0  0  0
  150.3890  150.3650  130.3120 C   0  0  0  0  0  0  0  0  0  0  0  0
  149.3481  150.0243  130.2097 H   0  0  0  0  0  0  0  0  0  0  0  0
  150.5025  151.3472  129.8298 H   0  0  0  0  0  0  0  0  0  0  0  0
  151.0612  149.6400  129.8298 H   0  0  0  0  0  0  0  0  0  0  0  0
  1  2  1  0
  2  3  1  0
  3  4  2  0
  3  5  1  0
  5  6  2  0
  6  7  1  0
  6  8  1  0
  8  9  2  0
  9 10  1  0
  9 11  1  0
 11 12  1  0
 11 13  2  0
 13 14  1  0
 14 15  1  0
 14 16  1  0
 14 17  1  0
 13 18  1  0
 18 19  1  0
 18 20  2  0
 20 21  1  0
 21 22  1  0
 22 23  2  0
 22 24  1  0
 24 25  1  0
 25 26  1  0
 25 27  2  0
 27 28  1  0
 27 29  1  0
 29 30  2  0
 29 31  1  0
 31 32  1  0
 32 33  1  0
 32 34  1  0
 32 35  1  0
 21  5  1  0
 20  8  1  0
M  CHG  1   2  -1
M  END
>  <UniqueID>  (60) 
60

>  <SMILES>  (60) 
COC(=O)/C=C\OC(=O)n1c(C([NH-])=O)cc2ccc(C(F)(F)F)cc21

>  <Energy>  (60) 
80.00570419571183

>  <Genealogy>  (60) 
COC(=O)/C=C\OC(=O)n1c(C([NH-])=O)cc2ccc(C(F)(F)F)cc21 (protonated)
COC(=O)/C=C\OC(=O)n1c(C([NH-])=O)cc2ccc(C(F)(F)F)cc21 (cis-trans isomerization)
COC(=O)/C=C\OC(=O)n1c(C([NH-])=O)cc2ccc(C(F)(F)F)cc21 (3D coordinates assigned)
COC(=O)/C=C\OC(=O)n1c(C([NH-])=O)cc2ccc(C(F)(F)F)cc21 (optimized conformer: 80.00570419571183 kcal/mol)

>  <smiles>  (60) 
COC(=O)/C=C\OC(=O)n1c(C(N)=O)cc2ccc(C(F)(F)F)cc21

>  <score_type>  (60) 
oracle

>  <origin>  (60) 
adg

>  <m_score__min__energy>  (60) 
-6.2300000000000004

>  <m_primary>  (60) 
energy

$$$$
60:0
     RDKit          3D

 43 44  0  0  0  0  0  0  0  0999 V2000
  143.2370  155.6110  134.8700 C   0  0  0  0  0  0  0  0  0  0  0  0
  142.5880  156.8910  134.5690 N   0  0  0  0  0  0  0  0  0  0  0  0
  141.4750  157.3320  135.3720 C   0  0  0  0  0  0  0  0  0  0  0  0
  141.6820  157.8530  136.5020 O   0  0  0  0  0  0  0  0  0  0  0  0
  140.1640  157.1650  134.9080 O   0  0  0  0  0  0  0  0  0  0  0  0
  139.4410  158.1930  134.2380 C   0  0  0  0  0  0  0  0  0  0  0  0
  139.5560  158.0200  132.8310 O   0  0  0  0  0  0  0  0  0  0  0  0
  139.6190  159.0940  131.9390 C   0  0  0  0  0  0  0  0  0  0  0  0
  140.5770  159.2020  131.1260 O   0  0  0  0  0  0  0  0  0  0  0  0
  138.5440  160.1330  131.9630 C   0  0  0  0  0  0  0  0  0  0  0  0
  137.7500  160.1050  130.6960 C   0  0  0  0  0  0  0  0  0  0  0  0
  138.2950  160.3910  129.5960 O   0  0  0  0  0  0  0  0  0  0  0  0
  136.3990  159.7800  130.7300 O   0  0  0  0  0  0  0  0  0  0  0  0
  143.0110  157.6500  133.4200 C   0  0  0  0  0  0  0  0  0  0  0  0
  142.4020  157.5280  132.3230 O   0  0  0  0  0  0  0  0  0  0  0  0
  144.1270  158.5500  133.5090 N   0  0  0  0  0  0  0  0  0  0  0  0
  144.1020  159.9100  133.5880 C   0  0  0  0  0  0  0  0  0  0  0  0
  142.8900  160.7450  133.7100 C   0  0  0  0  0  0  0  0  0  0  0  0
  141.6070  160.1270  133.7840 N   0  0  0  0  0  0  0  0  0  0  0  0
  142.9720  162.0000  133.7260 O   0  0  0  0  0  0  0  0  0  0  0  0
  145.4000  160.4190  133.6040 C   0  0  0  0  0  0  0  0  0  0  0  0
  146.2250  159.3190  133.5320 C   0  0  0  0  0  0  0  0  0  0  0  0
  147.6130  159.2400  133.4820 C   0  0  0  0  0  0  0  0  0  0  0  0
  148.1970  157.9670  133.3700 C   0  0  0  0  0  0  0  0  0  0  0  0
  147.3910  156.8000  133.3170 C   0  0  0  0  0  0  0  0  0  0  0  0
  148.0340  155.4490  133.1390 C   0  0  0  0  0  0  0  0  0  0  0  0
  149.2990  155.6140  132.6090 F   0  0  0  0  0  0  0  0  0  0  0  0
  148.1350  154.7960  134.3560 F   0  0  0  0  0  0  0  0  0  0  0  0
  147.2870  154.6570  132.2830 F   0  0  0  0  0  0  0  0  0  0  0  0
  145.9830  156.9260  133.3430 C   0  0  0  0  0  0  0  0  0  0  0  0
  145.4320  158.2050  133.4730 C   0  0  0  0  0  0  0  0  0  0  0  0
  143.3030  155.4808  135.9603 H   0  0  0  0  0  0  0  0  0  0  0  0
  142.6464  154.7898  134.4378 H   0  0  0  0  0  0  0  0  0  0  0  0
  144.2485  155.6021  134.4378 H   0  0  0  0  0  0  0  0  0  0  0  0
  138.3809  158.1427  134.5273 H   0  0  0  0  0  0  0  0  0  0  0  0
  139.8544  159.1726  134.5199 H   0  0  0  0  0  0  0  0  0  0  0  0
  137.8735  159.9387  132.8131 H   0  0  0  0  0  0  0  0  0  0  0  0
  139.0127  161.1230  132.0635 H   0  0  0  0  0  0  0  0  0  0  0  0
  141.3750  159.3000  133.1890 H   0  0  0  0  0  0  0  0  0  0  0  0
  145.7011  161.4754  133.6619 H   0  0  0  0  0  0  0  0  0  0  0  0
  148.2343  160.1465  133.5287 H   0  0  0  0  0  0  0  0  0  0  0  0
  149.2920  157.8737  133.3228 H   0  0  0  0  0  0  0  0  0  0  0  0
  145.3365  156.0396  133.2629 H   0  0  0  0  0  0  0  0  0  0  0  0
  1  2  1  0
  2  3  1  0
  3  4  2  0
  3  5  1  0
  5  6  1  0
  6  7  1  0
  7  8  1  0
  8  9  2  0
  8 10  1  0
 10 11  1  0
 11 12  2  0
 11 13  1  0
  2 14  1  0
 14 15  2  0
 14 16  1  0
 16 17  1  0
 17 18  1  0
 18 19  1  0
 18 20  2  0
 17 21  2  0
 21 22  1  0
 22 23  2  0
 23 24  1  0
 24 25  2  0
 25 26  1  0
 26 27  1  0
 26 28  1  0
 26 29  1  0
 25 30  1  0
 30 31  2  0
 31 16  1  0
 31 22  1  0
  1 32  1  0
  1 33  1  0
  1 34  1  0
  6 35  1  0
  6 36  1  0
 10 37  1  0
 10 38  1  0
 19 39  1  0
 21 40  1  0
 23 41  1  0
 24 42  1  0
 30 43  1  0
M  CHG  2  13  -1  19  -1
M  END
>  <UniqueID>  (61) 
61

>  <SMILES>  (61) 
CN(C(=O)OCOC(=O)CC(=O)[O-])C(=O)n1c(C([NH-])=O)cc2ccc(C(F)(F)F)cc21

>  <Energy>  (61) 
78.40741982137916

>  <Genealogy>  (61) 
CN(C(=O)OCOC(=O)CC(=O)[O-])C(=O)n1c(C([NH-])=O)cc2ccc(C(F)(F)F)cc21 (protonated)
CN(C(=O)OCOC(=O)CC(=O)[O-])C(=O)n1c(C([NH-])=O)cc2ccc(C(F)(F)F)cc21 (3D coordinates assigned)
CN(C(=O)OCOC(=O)CC(=O)[O-])C(=O)n1c(C([NH-])=O)cc2ccc(C(F)(F)F)cc21 (optimized conformer: 78.40741982137916 kcal/mol)

>  <smiles>  (61) 
CN(C(=O)OCOC(=O)CC(=O)O)C(=O)n1c(C(N)=O)cc2ccc(C(F)(F)F)cc21

>  <score_type>  (61) 
oracle

>  <origin>  (61) 
adg

>  <m_score__min__energy>  (61) 
-5.9900000000000002

>  <m_primary>  (61) 
energy

$$$$
61:0
     RDKit          3D

 45 46  0  0  0  0  0  0  0  0999 V2000
  145.0510  154.7030  135.1630 C   0  0  0  0  0  0  0  0  0  0  0  0
  146.3950  154.6310  134.6140 N   0  0  0  0  0  0  0  0  0  0  0  0
  147.1930  155.7950  134.3760 C   0  0  0  0  0  0  0  0  0  0  0  0
  148.0590  156.1520  135.2210 O   0  0  0  0  0  0  0  0  0  0  0  0
  147.0060  156.5690  133.1390 C   0  0  0  0  0  0  0  0  0  0  0  0
  147.0410  155.9810  132.0250 O   0  0  0  0  0  0  0  0  0  0  0  0
  146.7830  157.9870  133.1870 N   0  0  0  0  0  0  0  0  0  0  0  0
  147.6450  158.9800  132.8270 C   0  0  0  0  0  0  0  0  0  0  0  0
  149.0530  158.7960  132.4090 C   0  0  0  0  0  0  0  0  0  0  0  0
  149.6020  157.4930  132.2280 N   0  0  0  0  0  0  0  0  0  0  0  0
  149.7870  159.8050  132.2320 O   0  0  0  0  0  0  0  0  0  0  0  0
  147.0300  160.2250  132.9520 C   0  0  0  0  0  0  0  0  0  0  0  0
  145.7550  159.9590  133.4000 C   0  0  0  0  0  0  0  0  0  0  0  0
  144.7060  160.8260  133.6870 C   0  0  0  0  0  0  0  0  0  0  0  0
  143.4900  160.2680  134.1160 C   0  0  0  0  0  0  0  0  0  0  0  0
  143.3390  158.8620  134.2430 C   0  0  0  0  0  0  0  0  0  0  0  0
  142.0920  158.2980  134.7010 N   0  0  0  0  0  0  0  0  0  0  0  0
  142.0310  156.8670  135.0210 C   0  0  0  0  0  0  0  0  0  0  0  0
  140.8720  159.1200  134.7590 C   0  0  0  0  0  0  0  0  0  0  0  0
  140.3150  159.3590  133.3770 C   0  0  0  0  0  0  0  0  0  0  0  0
  140.6100  160.4380  132.7940 O   0  0  0  0  0  0  0  0  0  0  0  0
  139.4260  158.4190  132.7340 N   0  0  0  0  0  0  0  0  0  0  0  0
  139.1060  157.1280  133.3550 C   0  0  0  0  0  0  0  0  0  0  0  0
  138.8640  158.7590  131.4250 C   0  0  0  0  0  0  0  0  0  0  0  0
  144.4280  158.0170  133.9360 C   0  0  0  0  0  0  0  0  0  0  0  0
  145.6320  158.6020  133.5300 C   0  0  0  0  0  0  0  0  0  0  0  0
  145.1031  154.7002  136.2618 H   0  0  0  0  0  0  0  0  0  0  0  0
  144.5645  155.6285  134.8213 H   0  0  0  0  0  0  0  0  0  0  0  0
  144.4684  153.8348  134.8213 H   0  0  0  0  0  0  0  0  0  0  0  0
  149.0480  156.7330  131.7740 H   0  0  0  0  0  0  0  0  0  0  0  0
  147.4697  161.2104  132.7382 H   0  0  0  0  0  0  0  0  0  0  0  0
  144.8247  161.9145  133.5814 H   0  0  0  0  0  0  0  0  0  0  0  0
  142.6442  160.9289  134.3565 H   0  0  0  0  0  0  0  0  0  0  0  0
  142.0254  156.7354  136.1131 H   0  0  0  0  0  0  0  0  0  0  0  0
  141.1136  156.4348  134.5949 H   0  0  0  0  0  0  0  0  0  0  0  0
  142.9083  156.3583  134.5949 H   0  0  0  0  0  0  0  0  0  0  0  0
  140.1165  158.6002  135.3664 H   0  0  0  0  0  0  0  0  0  0  0  0
  141.1251  160.0918  135.2078 H   0  0  0  0  0  0  0  0  0  0  0  0
  139.1316  157.2314  134.4498 H   0  0  0  0  0  0  0  0  0  0  0  0
  138.1015  156.8087  133.0403 H   0  0  0  0  0  0  0  0  0  0  0  0
  139.8451  156.3765  133.0403 H   0  0  0  0  0  0  0  0  0  0  0  0
  137.9302  159.3239  131.5624 H   0  0  0  0  0  0  0  0  0  0  0  0
  139.5847  159.3727  130.8647 H   0  0  0  0  0  0  0  0  0  0  0  0
  138.6549  157.8358  130.8647 H   0  0  0  0  0  0  0  0  0  0  0  0
  144.3317  156.9240  134.0143 H   0  0  0  0  0  0  0  0  0  0  0  0
  1  2  1  0
  2  3  1  0
  3  4  2  0
  3  5  1  0
  5  6  2  0
  5  7  1  0
  7  8  1  0
  8  9  1  0
  9 10  1  0
  9 11  2  0
  8 12  2  0
 12 13  1  0
 13 14  2  0
 14 15  1  0
 15 16  2  0
 16 17  1  0
 17 18  1  0
 17 19  1  0
 19 20  1  0
 20 21  2  0
 20 22  1  0
 22 23  1  0
 22 24  1  0
 16 25  1  0
 25 26  2  0
 26  7  1  0
 26 13  1  0
  1 27  1  0
  1 28  1  0
  1 29  1  0
 10 30  1  0
 12 31  1  0
 14 32  1  0
 15 33  1  0
 18 34  1  0
 18 35  1  0
 18 36  1  0
 19 37  1  0
 19 38  1  0
 23 39  1  0
 23 40  1  0
 23 41  1  0
 24 42  1  0
 24 43  1  0
 24 44  1  0
 25 45  1  0
M  CHG  2   2  -1  10  -1
M  END
>  <UniqueID>  (62) 
62

>  <SMILES>  (62) 
C[N-]C(=O)C(=O)n1c(C([NH-])=O)cc2ccc(N(C)CC(=O)N(C)C)cc21

>  <Energy>  (62) 
79.8745539260803

>  <Genealogy>  (62) 
C[N-]C(=O)C(=O)n1c(C([NH-])=O)cc2ccc(N(C)CC(=O)N(C)C)cc21 (protonated)
C[N-]C(=O)C(=O)n1c(C([NH-])=O)cc2ccc(N(C)CC(=O)N(C)C)cc21 (3D coordinates assigned)
C[N-]C(=O)C(=O)n1c(C([NH-])=O)cc2ccc(N(C)CC(=O)N(C)C)cc21 (optimized conformer: 79.8745539260803 kcal/mol)

>  <smiles>  (62) 
CNC(=O)C(=O)n1c(C(N)=O)cc2ccc(N(C)CC(=O)N(C)C)cc21

>  <score_type>  (62) 
oracle

>  <origin>  (62) 
adg

>  <m_score__min__energy>  (62) 
-6.6500000000000004

>  <m_primary>  (62) 
energy

$$$$
62:0
     RDKit          3D

 42 43  0  0  0  0  0  0  0  0999 V2000
  146.8670  152.9430  132.8790 C   0  0  0  0  0  0  0  0  0  0  0  0
  148.2960  153.3440  133.2940 C   0  0  0  0  0  0  0  0  0  0  0  0
  148.8690  154.2990  132.2360 C   0  0  0  0  0  0  0  0  0  0  0  0
  149.2030  152.1030  133.3890 C   0  0  0  0  0  0  0  0  0  0  0  0
  148.2800  154.0550  134.5410 O   0  0  0  0  0  0  0  0  0  0  0  0
  147.1560  154.2990  135.3450 C   0  0  0  0  0  0  0  0  0  0  0  0
  147.0020  153.7000  136.4430 O   0  0  0  0  0  0  0  0  0  0  0  0
  146.1830  155.2660  134.9190 N   0  0  0  0  0  0  0  0  0  0  0  0
  144.8260  155.1510  134.9570 C   0  0  0  0  0  0  0  0  0  0  0  0
  144.0650  154.0570  135.5950 C   0  0  0  0  0  0  0  0  0  0  0  0
  144.3000  153.7340  136.9640 N   0  0  0  0  0  0  0  0  0  0  0  0
  143.2350  153.3780  134.9360 O   0  0  0  0  0  0  0  0  0  0  0  0
  144.2250  156.2640  134.3710 C   0  0  0  0  0  0  0  0  0  0  0  0
  145.2650  157.0740  133.9750 C   0  0  0  0  0  0  0  0  0  0  0  0
  145.2430  158.3010  133.3200 C   0  0  0  0  0  0  0  0  0  0  0  0
  146.4740  158.8990  133.0010 C   0  0  0  0  0  0  0  0  0  0  0  0
  147.6940  158.2640  133.3420 C   0  0  0  0  0  0  0  0  0  0  0  0
  149.0070  158.8910  132.9510 C   0  0  0  0  0  0  0  0  0  0  0  0
  149.2580  158.7170  131.4510 C   0  0  0  0  0  0  0  0  0  0  0  0
  149.5620  160.0360  130.8150 C   0  0  0  0  0  0  0  0  0  0  0  0
  150.3840  160.1070  129.8640 O   0  0  0  0  0  0  0  0  0  0  0  0
  148.9010  161.1820  131.2420 O   0  0  0  0  0  0  0  0  0  0  0  0
  147.6780  157.0130  133.9970 C   0  0  0  0  0  0  0  0  0  0  0  0
  146.4370  156.4490  134.3180 C   0  0  0  0  0  0  0  0  0  0  0  0
  146.2581  152.7721  133.7790 H   0  0  0  0  0  0  0  0  0  0  0  0
  146.4188  153.7501  132.2809 H   0  0  0  0  0  0  0  0  0  0  0  0
  146.9041  152.0206  132.2809 H   0  0  0  0  0  0  0  0  0  0  0  0
  149.3733  155.1394  132.7354 H   0  0  0  0  0  0  0  0  0  0  0  0
  149.5922  153.7586  131.6075 H   0  0  0  0  0  0  0  0  0  0  0  0
  148.0519  154.6828  131.6075 H   0  0  0  0  0  0  0  0  0  0  0  0
  149.3812  151.8592  134.4467 H   0  0  0  0  0  0  0  0  0  0  0  0
  148.7127  151.2517  132.8941 H   0  0  0  0  0  0  0  0  0  0  0  0
  150.1629  152.3117  132.8941 H   0  0  0  0  0  0  0  0  0  0  0  0
  145.1330  154.1100  137.4700 H   0  0  0  0  0  0  0  0  0  0  0  0
  143.1483  156.4545  134.2506 H   0  0  0  0  0  0  0  0  0  0  0  0
  144.2916  158.7880  133.0599 H   0  0  0  0  0  0  0  0  0  0  0  0
  146.4907  159.8687  132.4820 H   0  0  0  0  0  0  0  0  0  0  0  0
  148.9818  159.9640  133.1918 H   0  0  0  0  0  0  0  0  0  0  0  0
  149.8171  158.3967  133.5072 H   0  0  0  0  0  0  0  0  0  0  0  0
  150.1110  158.0384  131.3029 H   0  0  0  0  0  0  0  0  0  0  0  0
  148.3544  158.2969  130.9852 H   0  0  0  0  0  0  0  0  0  0  0  0
  148.6154  156.4953  134.2484 H   0  0  0  0  0  0  0  0  0  0  0  0
  1  2  1  0
  2  3  1  0
  2  4  1  0
  2  5  1  0
  5  6  1  0
  6  7  2  0
  6  8  1  0
  8  9  1  0
  9 10  1  0
 10 11  1  0
 10 12  2  0
  9 13  2  0
 13 14  1  0
 14 15  2  0
 15 16  1  0
 16 17  2  0
 17 18  1  0
 18 19  1  0
 19 20  1  0
 20 21  2  0
 20 22  1  0
 17 23  1  0
 23 24  2  0
 24  8  1  0
 24 14  1  0
  1 25  1  0
  1 26  1  0
  1 27  1  0
  3 28  1  0
  3 29  1  0
  3 30  1  0
  4 31  1  0
  4 32  1  0
  4 33  1  0
 11 34  1  0
 13 35  1  0
 15 36  1  0
 16 37  1  0
 18 38  1  0
 18 39  1  0
 19 40  1  0
 19 41  1  0
 23 42  1  0
M  CHG  2  11  -1  22  -1
M  END
>  <UniqueID>  (63) 
63

>  <SMILES>  (63) 
CC(C)(C)OC(=O)n1c(C([NH-])=O)cc2ccc(CCC(=O)[O-])cc21

>  <Energy>  (63) 
71.75465136544544

>  <Genealogy>  (63) 
CC(C)(C)OC(=O)n1c(C([NH-])=O)cc2ccc(CCC(=O)[O-])cc21 (protonated)
CC(C)(C)OC(=O)n1c(C([NH-])=O)cc2ccc(CCC(=O)[O-])cc21 (3D coordinates assigned)
CC(C)(C)OC(=O)n1c(C([NH-])=O)cc2ccc(CCC(=O)[O-])cc21 (optimized conformer: 71.75465136544544 kcal/mol)

>  <smiles>  (63) 
CC(C)(C)OC(=O)n1c(C(N)=O)cc2ccc(CCC(=O)O)cc21

>  <score_type>  (63) 
oracle

>  <origin>  (63) 
adg

>  <m_score__min__energy>  (63) 
-7.1100000000000003

>  <m_primary>  (63) 
energy

$$$$
63:0
     RDKit          3D

 35 36  0  0  0  0  0  0  0  0999 V2000
  143.7880  163.4540  133.3890 C   0  0  0  0  0  0  0  0  0  0  0  0
  144.6170  162.3790  133.9470 N   0  0  0  0  0  0  0  0  0  0  0  0
  145.8230  162.7350  134.7060 C   0  0  0  0  0  0  0  0  0  0  0  0
  144.2520  160.9880  133.7520 C   0  0  0  0  0  0  0  0  0  0  0  0
  145.2550  159.9820  133.6450 C   0  0  0  0  0  0  0  0  0  0  0  0
  144.9130  158.6350  133.4460 C   0  0  0  0  0  0  0  0  0  0  0  0
  143.5650  158.3080  133.3640 C   0  0  0  0  0  0  0  0  0  0  0  0
  142.9610  157.0900  133.1510 C   0  0  0  0  0  0  0  0  0  0  0  0
  141.5930  157.3510  133.1530 C   0  0  0  0  0  0  0  0  0  0  0  0
  140.5640  156.2960  133.0440 C   0  0  0  0  0  0  0  0  0  0  0  0
  139.2780  156.5790  132.5010 N   0  0  0  0  0  0  0  0  0  0  0  0
  140.8080  155.1400  133.4820 O   0  0  0  0  0  0  0  0  0  0  0  0
  141.3610  158.6800  133.3500 N   0  0  0  0  0  0  0  0  0  0  0  0
  140.1010  159.3660  133.3430 C   0  0  0  0  0  0  0  0  0  0  0  0
  139.1240  158.8920  133.9860 O   0  0  0  0  0  0  0  0  0  0  0  0
  139.9550  160.5460  132.6040 O   0  0  0  0  0  0  0  0  0  0  0  0
  139.0430  160.6820  131.5180 C   0  0  0  0  0  0  0  0  0  0  0  0
  138.5160  159.3430  131.1130 C   0  0  0  0  0  0  0  0  0  0  0  0
  139.1710  158.6170  130.3200 O   0  0  0  0  0  0  0  0  0  0  0  0
  137.3130  158.8840  131.6340 O   0  0  0  0  0  0  0  0  0  0  0  0
  142.5800  159.2510  133.4810 C   0  0  0  0  0  0  0  0  0  0  0  0
  142.8890  160.6040  133.6590 C   0  0  0  0  0  0  0  0  0  0  0  0
  143.3401  164.0348  134.2088 H   0  0  0  0  0  0  0  0  0  0  0  0
  144.4125  164.1149  132.7700 H   0  0  0  0  0  0  0  0  0  0  0  0
  142.9901  163.0180  132.7700 H   0  0  0  0  0  0  0  0  0  0  0  0
  145.6101  162.6721  135.7834 H   0  0  0  0  0  0  0  0  0  0  0  0
  146.6353  162.0383  134.4515 H   0  0  0  0  0  0  0  0  0  0  0  0
  146.1268  163.7611  134.4515 H   0  0  0  0  0  0  0  0  0  0  0  0
  146.3153  160.2654  133.7196 H   0  0  0  0  0  0  0  0  0  0  0  0
  145.6896  157.8610  133.3576 H   0  0  0  0  0  0  0  0  0  0  0  0
  143.4540  156.1169  133.0093 H   0  0  0  0  0  0  0  0  0  0  0  0
  138.9990  157.5550  132.2580 H   0  0  0  0  0  0  0  0  0  0  0  0
  138.2046  161.3240  131.8263 H   0  0  0  0  0  0  0  0  0  0  0  0
  139.5685  161.1334  130.6635 H   0  0  0  0  0  0  0  0  0  0  0  0
  142.0896  161.3567  133.7257 H   0  0  0  0  0  0  0  0  0  0  0  0
  1  2  1  0
  2  3  1  0
  2  4  1  0
  4  5  2  0
  5  6  1  0
  6  7  2  0
  7  8  1  0
  8  9  2  0
  9 10  1  0
 10 11  1  0
 10 12  2  0
  9 13  1  0
 13 14  1  0
 14 15  2  0
 14 16  1  0
 16 17  1  0
 17 18  1  0
 18 19  2  0
 18 20  1  0
 13 21  1  0
 21 22  2  0
 22  4  1  0
 21  7  1  0
  1 23  1  0
  1 24  1  0
  1 25  1  0
  3 26  1  0
  3 27  1  0
  3 28  1  0
  5 29  1  0
  6 30  1  0
  8 31  1  0
 11 32  1  0
 17 33  1  0
 17 34  1  0
 22 35  1  0
M  CHG  2  11  -1  20  -1
M  END
>  <UniqueID>  (64) 
64

>  <SMILES>  (64) 
CN(C)c1ccc2cc(C([NH-])=O)n(C(=O)OCC(=O)[O-])c2c1

>  <Energy>  (64) 
73.4710167404477

>  <Genealogy>  (64) 
CN(C)c1ccc2cc(C([NH-])=O)n(C(=O)OCC(=O)[O-])c2c1 (protonated)
CN(C)c1ccc2cc(C([NH-])=O)n(C(=O)OCC(=O)[O-])c2c1 (3D coordinates assigned)
CN(C)c1ccc2cc(C([NH-])=O)n(C(=O)OCC(=O)[O-])c2c1 (optimized conformer: 73.4710167404477 kcal/mol)

>  <smiles>  (64) 
CN(C)c1ccc2cc(C(N)=O)n(C(=O)OCC(=O)O)c2c1

>  <score_type>  (64) 
oracle

>  <origin>  (64) 
adg

>  <m_score__min__energy>  (64) 
-5.9100000000000001

>  <m_primary>  (64) 
energy

$$$$
64:0
     RDKit          3D

 35 37  0  0  0  0  0  0  0  0999 V2000
  146.8750  156.0750  134.2360 C   0  0  0  0  0  0  0  0  0  0  0  0
  147.2660  157.4310  134.4120 O   0  0  0  0  0  0  0  0  0  0  0  0
  147.8160  158.2380  133.4020 C   0  0  0  0  0  0  0  0  0  0  0  0
  149.0910  158.0310  132.9460 N   0  0  0  0  0  0  0  0  0  0  0  0
  149.6230  158.7840  131.9460 C   0  0  0  0  0  0  0  0  0  0  0  0
  148.8730  159.7960  131.3520 C   0  0  0  0  0  0  0  0  0  0  0  0
  147.5740  160.0340  131.7970 C   0  0  0  0  0  0  0  0  0  0  0  0
  147.0300  159.2630  132.8330 C   0  0  0  0  0  0  0  0  0  0  0  0
  145.6510  159.5340  133.3090 C   0  0  0  0  0  0  0  0  0  0  0  0
  145.2590  160.8580  133.6340 C   0  0  0  0  0  0  0  0  0  0  0  0
  143.9620  161.1270  134.1030 C   0  0  0  0  0  0  0  0  0  0  0  0
  143.0800  160.0580  134.2340 C   0  0  0  0  0  0  0  0  0  0  0  0
  141.7820  160.0340  134.6880 C   0  0  0  0  0  0  0  0  0  0  0  0
  141.3910  158.6990  134.6190 C   0  0  0  0  0  0  0  0  0  0  0  0
  140.0250  158.2360  134.9350 C   0  0  0  0  0  0  0  0  0  0  0  0
  139.5760  158.1430  136.2850 N   0  0  0  0  0  0  0  0  0  0  0  0
  139.2600  157.8680  134.0040 O   0  0  0  0  0  0  0  0  0  0  0  0
  142.4120  157.9250  134.1500 N   0  0  0  0  0  0  0  0  0  0  0  0
  142.4400  156.4950  134.0190 C   0  0  0  0  0  0  0  0  0  0  0  0
  143.3960  155.8310  134.5020 O   0  0  0  0  0  0  0  0  0  0  0  0
  141.4000  155.8270  133.3840 O   0  0  0  0  0  0  0  0  0  0  0  0
  143.4370  158.7740  133.9150 C   0  0  0  0  0  0  0  0  0  0  0  0
  144.7290  158.4740  133.4650 C   0  0  0  0  0  0  0  0  0  0  0  0
  146.7386  155.6021  135.2197 H   0  0  0  0  0  0  0  0  0  0  0  0
  145.9290  156.0359  133.6761 H   0  0  0  0  0  0  0  0  0  0  0  0
  147.6550  155.5382  133.6761 H   0  0  0  0  0  0  0  0  0  0  0  0
  149.6890  157.2810  133.3550 H   0  0  0  0  0  0  0  0  0  0  0  0
  150.6510  158.5926  131.6046 H   0  0  0  0  0  0  0  0  0  0  0  0
  149.3016  160.4014  130.5398 H   0  0  0  0  0  0  0  0  0  0  0  0
  146.9733  160.8302  131.3332 H   0  0  0  0  0  0  0  0  0  0  0  0
  145.9777  161.6826  133.5177 H   0  0  0  0  0  0  0  0  0  0  0  0
  143.6530  162.1512  134.3589 H   0  0  0  0  0  0  0  0  0  0  0  0
  141.1803  160.8880  135.0325 H   0  0  0  0  0  0  0  0  0  0  0  0
  139.4580  159.0000  136.8710 H   0  0  0  0  0  0  0  0  0  0  0  0
  145.0194  157.4376  133.2382 H   0  0  0  0  0  0  0  0  0  0  0  0
  1  2  1  0
  2  3  1  0
  3  4  2  0
  4  5  1  0
  5  6  2  0
  6  7  1  0
  7  8  2  0
  8  9  1  0
  9 10  2  0
 10 11  1  0
 11 12  2  0
 12 13  1  0
 13 14  2  0
 14 15  1  0
 15 16  1  0
 15 17  2  0
 14 18  1  0
 18 19  1  0
 19 20  2  0
 19 21  1  0
 18 22  1  0
 22 23  2  0
  8  3  1  0
 23  9  1  0
 22 12  1  0
  1 24  1  0
  1 25  1  0
  1 26  1  0
  4 27  1  0
  5 28  1  0
  6 29  1  0
  7 30  1  0
 10 31  1  0
 11 32  1  0
 13 33  1  0
 16 34  1  0
 23 35  1  0
M  CHG  3   4   1  16  -1  21  -1
M  END
>  <UniqueID>  (65) 
65

>  <SMILES>  (65) 
COc1[nH+]cccc1-c1ccc2cc(C([NH-])=O)n(C(=O)[O-])c2c1

>  <Energy>  (65) 
82.92168828858512

>  <Genealogy>  (65) 
COc1[nH+]cccc1-c1ccc2cc(C([NH-])=O)n(C(=O)[O-])c2c1 (protonated)
COc1[nH+]cccc1-c1ccc2cc(C([NH-])=O)n(C(=O)[O-])c2c1 (3D coordinates assigned)
COc1[nH+]cccc1-c1ccc2cc(C([NH-])=O)n(C(=O)[O-])c2c1 (optimized conformer: 82.92168828858512 kcal/mol)

>  <smiles>  (65) 
COc1ncccc1-c1ccc2cc(C(N)=O)n(C(=O)O)c2c1

>  <score_type>  (65) 
oracle

>  <origin>  (65) 
adg

>  <m_score__min__energy>  (65) 
-6.8799999999999999

>  <m_primary>  (65) 
energy

$$$$
65:0
     RDKit          3D

 34 35  0  0  0  0  0  0  0  0999 V2000
  148.0980  161.9980  131.8580 H   0  0  0  0  0  0  0  0  0  0  0  0
  148.3730  161.3780  131.0630 N   0  0  0  0  0  0  0  0  0  0  0  0
  149.2200  160.2520  131.2710 C   0  0  0  0  0  0  0  0  0  0  0  0
  150.3960  160.2740  130.8210 O   0  0  0  0  0  0  0  0  0  0  0  0
  148.7270  159.0460  131.9720 C   0  0  0  0  0  0  0  0  0  0  0  0
  149.3350  157.7960  131.8730 C   0  0  0  0  0  0  0  0  0  0  0  0
  150.2520  157.5423  131.3210 H   0  0  0  0  0  0  0  0  0  0  0  0
  148.5440  156.9460  132.6130 C   0  0  0  0  0  0  0  0  0  0  0  0
  148.6820  155.5840  132.8610 C   0  0  0  0  0  0  0  0  0  0  0  0
  149.5136  155.0096  132.4268 H   0  0  0  0  0  0  0  0  0  0  0  0
  147.7250  154.9650  133.6840 C   0  0  0  0  0  0  0  0  0  0  0  0
  147.7948  153.8851  133.8815 H   0  0  0  0  0  0  0  0  0  0  0  0
  146.6700  155.7170  134.2630 C   0  0  0  0  0  0  0  0  0  0  0  0
  145.6290  155.0340  135.1140 C   0  0  0  0  0  0  0  0  0  0  0  0
  146.1860  154.7040  136.3350 F   0  0  0  0  0  0  0  0  0  0  0  0
  144.5430  155.8660  135.3220 F   0  0  0  0  0  0  0  0  0  0  0  0
  145.1770  153.8780  134.4980 F   0  0  0  0  0  0  0  0  0  0  0  0
  146.5540  157.0950  133.9680 C   0  0  0  0  0  0  0  0  0  0  0  0
  145.7324  157.6936  134.3882 H   0  0  0  0  0  0  0  0  0  0  0  0
  147.5090  157.6790  133.1290 C   0  0  0  0  0  0  0  0  0  0  0  0
  147.6050  158.9700  132.7420 N   0  0  0  0  0  0  0  0  0  0  0  0
  146.7410  160.0450  133.1400 C   0  0  0  0  0  0  0  0  0  0  0  0
  147.2400  161.0990  133.6210 O   0  0  0  0  0  0  0  0  0  0  0  0
  145.2790  159.9130  132.9800 C   0  0  0  0  0  0  0  0  0  0  0  0
  144.8819  159.5247  132.0305 H   0  0  0  0  0  0  0  0  0  0  0  0
  144.4210  160.2490  133.9490 C   0  0  0  0  0  0  0  0  0  0  0  0
  144.8145  160.6407  134.8986 H   0  0  0  0  0  0  0  0  0  0  0  0
  142.9660  160.1100  133.7820 C   0  0  0  0  0  0  0  0  0  0  0  0
  142.2680  161.1430  133.5930 O   0  0  0  0  0  0  0  0  0  0  0  0
  142.3640  158.8480  133.8330 O   0  0  0  0  0  0  0  0  0  0  0  0
  142.9900  157.6780  133.3220 C   0  0  0  0  0  0  0  0  0  0  0  0
  143.3272  157.0477  134.1581 H   0  0  0  0  0  0  0  0  0  0  0  0
  142.2716  157.1169  132.7063 H   0  0  0  0  0  0  0  0  0  0  0  0
  143.8554  157.9643  132.7063 H   0  0  0  0  0  0  0  0  0  0  0  0
  1  2  1  0
  2  3  1  0
  3  4  2  0
  3  5  1  0
  5  6  2  0
  6  7  1  0
  6  8  1  0
  8  9  2  0
  9 10  1  0
  9 11  1  0
 11 12  1  0
 11 13  2  0
 13 14  1  0
 14 15  1  0
 14 16  1  0
 14 17  1  0
 13 18  1  0
 18 19  1  0
 18 20  2  0
 20 21  1  0
 21 22  1  0
 22 23  2  0
 22 24  1  0
 24 25  1  0
 24 26  2  0
 26 27  1  0
 26 28  1  0
 28 29  2  0
 28 30  1  0
 30 31  1  0
 31 32  1  0
 31 33  1  0
 31 34  1  0
 21  5  1  0
 20  8  1  0
M  CHG  1   2  -1
M  END
>  <UniqueID>  (66) 
66

>  <SMILES>  (66) 
COC(=O)/C=C/C(=O)n1c(C([NH-])=O)cc2ccc(C(F)(F)F)cc21

>  <Energy>  (66) 
70.38159183457743

>  <Genealogy>  (66) 
COC(=O)/C=C/C(=O)n1c(C([NH-])=O)cc2ccc(C(F)(F)F)cc21 (protonated)
COC(=O)/C=C/C(=O)n1c(C([NH-])=O)cc2ccc(C(F)(F)F)cc21 (cis-trans isomerization)
COC(=O)/C=C/C(=O)n1c(C([NH-])=O)cc2ccc(C(F)(F)F)cc21 (3D coordinates assigned)
COC(=O)/C=C/C(=O)n1c(C([NH-])=O)cc2ccc(C(F)(F)F)cc21 (optimized conformer: 70.38159183457743 kcal/mol)

>  <smiles>  (66) 
COC(=O)/C=C/C(=O)n1c(C(N)=O)cc2ccc(C(F)(F)F)cc21

>  <score_type>  (66) 
oracle

>  <origin>  (66) 
adg

>  <m_score__min__energy>  (66) 
-6.4299999999999997

>  <m_primary>  (66) 
energy

$$$$
66:0
     RDKit          3D

 42 43  0  0  0  0  0  0  0  0999 V2000
  138.3190  157.8740  133.3500 C   0  0  0  0  0  0  0  0  0  0  0  0
  139.0540  158.3950  132.1130 C   0  0  2  0  0  0  0  0  0  0  0  0
  140.4700  158.5970  132.4220 N   0  0  0  0  0  0  0  0  0  0  0  0
  141.1860  158.0760  133.5530 C   0  0  0  0  0  0  0  0  0  0  0  0
  141.2440  156.8220  133.6950 O   0  0  0  0  0  0  0  0  0  0  0  0
  141.7930  158.9590  134.6200 C   0  0  0  0  0  0  0  0  0  0  0  0
  141.0250  160.1040  134.7650 F   0  0  0  0  0  0  0  0  0  0  0  0
  141.7790  158.3010  135.8370 F   0  0  0  0  0  0  0  0  0  0  0  0
  143.1940  159.3800  134.2300 C   0  0  0  0  0  0  0  0  0  0  0  0
  143.5480  160.7540  134.1200 C   0  0  0  0  0  0  0  0  0  0  0  0
  144.8380  161.1310  133.7080 C   0  0  0  0  0  0  0  0  0  0  0  0
  145.7520  160.1240  133.4080 C   0  0  0  0  0  0  0  0  0  0  0  0
  147.0510  160.2120  132.9610 C   0  0  0  0  0  0  0  0  0  0  0  0
  147.4890  158.8950  132.8290 C   0  0  0  0  0  0  0  0  0  0  0  0
  148.8750  158.5230  132.4810 C   0  0  0  0  0  0  0  0  0  0  0  0
  149.1580  157.2620  131.8730 N   0  0  0  0  0  0  0  0  0  0  0  0
  149.8190  159.3330  132.6870 O   0  0  0  0  0  0  0  0  0  0  0  0
  146.4990  158.0260  133.1800 N   0  0  0  0  0  0  0  0  0  0  0  0
  146.5410  156.5880  133.1200 C   0  0  0  0  0  0  0  0  0  0  0  0
  145.5910  155.9510  132.5870 O   0  0  0  0  0  0  0  0  0  0  0  0
  147.6480  155.9020  133.6320 O   0  0  0  0  0  0  0  0  0  0  0  0
  147.7640  154.4790  133.6240 C   0  0  0  0  0  0  0  0  0  0  0  0
  148.8160  154.0370  132.6570 C   0  0  0  0  0  0  0  0  0  0  0  0
  148.8450  152.8450  132.2530 O   0  0  0  0  0  0  0  0  0  0  0  0
  149.7940  154.9300  132.2320 O   0  0  0  0  0  0  0  0  0  0  0  0
  145.4400  158.7940  133.5290 C   0  0  0  0  0  0  0  0  0  0  0  0
  144.1580  158.3870  133.9220 C   0  0  0  0  0  0  0  0  0  0  0  0
  138.4470  159.6980  131.6740 C   0  0  0  0  0  0  0  0  0  0  0  0
  137.2960  159.7250  131.1640 O   0  0  0  0  0  0  0  0  0  0  0  0
  139.1800  160.8760  131.7800 O   0  0  0  0  0  0  0  0  0  0  0  0
  138.8268  158.2340  134.2570 H   0  0  0  0  0  0  0  0  0  0  0  0
  137.2815  158.2395  133.3411 H   0  0  0  0  0  0  0  0  0  0  0  0
  138.3203  156.7740  133.3411 H   0  0  0  0  0  0  0  0  0  0  0  0
  138.9611  157.6557  131.3038 H   0  0  0  0  0  0  0  0  0  0  0  0
  142.8048  161.5287  134.3598 H   0  0  0  0  0  0  0  0  0  0  0  0
  145.1177  162.1916  133.6249 H   0  0  0  0  0  0  0  0  0  0  0  0
  147.6228  161.1282  132.7520 H   0  0  0  0  0  0  0  0  0  0  0  0
  148.4140  156.5390  131.7560 H   0  0  0  0  0  0  0  0  0  0  0  0
  150.1350  157.0260  131.5910 H   0  0  0  0  0  0  0  0  0  0  0  0
  148.0336  154.1335  134.6329 H   0  0  0  0  0  0  0  0  0  0  0  0
  146.7995  154.0485  133.3167 H   0  0  0  0  0  0  0  0  0  0  0  0
  143.9047  157.3187  133.9902 H   0  0  0  0  0  0  0  0  0  0  0  0
  1  2  1  0
  2  3  1  0
  3  4  1  0
  4  5  2  0
  4  6  1  0
  6  7  1  0
  6  8  1  0
  6  9  1  0
  9 10  2  0
 10 11  1  0
 11 12  2  0
 12 13  1  0
 13 14  2  0
 14 15  1  0
 15 16  1  0
 15 17  2  0
 14 18  1  0
 18 19  1  0
 19 20  2  0
 19 21  1  0
 21 22  1  0
 22 23  1  0
 23 24  2  0
 23 25  1  0
 18 26  1  0
 26 27  2  0
  2 28  1  0
 28 29  2  0
 28 30  1  0
 27  9  1  0
 26 12  1  0
  1 31  1  0
  1 32  1  0
  1 33  1  0
  2 34  1  6
 10 35  1  0
 11 36  1  0
 13 37  1  0
 16 38  1  0
 16 39  1  0
 22 40  1  0
 22 41  1  0
 27 42  1  0
M  CHG  3   3  -1  25  -1  30  -1
M  END
>  <UniqueID>  (67) 
67

>  <SMILES>  (67) 
C[C@H]([N-]C(=O)C(F)(F)c1ccc2cc(C(N)=O)n(C(=O)OCC(=O)[O-])c2c1)C(=O)[O-]

>  <Energy>  (67) 
77.15743162917224

>  <Genealogy>  (67) 
CC([N-]C(=O)C(F)(F)c1ccc2cc(C(N)=O)n(C(=O)OCC(=O)[O-])c2c1)C(=O)[O-] (protonated)
C[C@H]([N-]C(=O)C(F)(F)c1ccc2cc(C(N)=O)n(C(=O)OCC(=O)[O-])c2c1)C(=O)[O-] (chirality)
C[C@H]([N-]C(=O)C(F)(F)c1ccc2cc(C(N)=O)n(C(=O)OCC(=O)[O-])c2c1)C(=O)[O-] (3D coordinates assigned)
C[C@H]([N-]C(=O)C(F)(F)c1ccc2cc(C(N)=O)n(C(=O)OCC(=O)[O-])c2c1)C(=O)[O-] (optimized conformer: 77.15743162917224 kcal/mol)

>  <smiles>  (67) 
CC(NC(=O)C(F)(F)c1ccc2cc(C(N)=O)n(C(=O)OCC(=O)O)c2c1)C(=O)O

>  <score_type>  (67) 
oracle

>  <origin>  (67) 
adg

>  <m_score__min__energy>  (67) 
-7.7400000000000002

>  <m_primary>  (67) 
energy

$$$$
67:0
     RDKit          3D

 57 59  0  0  0  0  0  0  0  0999 V2000
  141.7840  152.7780  132.5930 C   0  0  0  0  0  0  0  0  0  0  0  0
  142.7570  151.8230  133.2870 C   0  0  1  0  0  0  0  0  0  0  0  0
  142.3780  150.4370  133.0300 N   0  0  0  0  0  0  0  0  0  0  0  0
  141.0340  150.0260  132.7820 C   0  0  0  0  0  0  0  0  0  0  0  0
  140.3440  149.5870  133.7390 O   0  0  0  0  0  0  0  0  0  0  0  0
  140.5030  150.1180  131.4860 O   0  0  0  0  0  0  0  0  0  0  0  0
  139.6960  149.1330  130.8250 C   0  0  0  0  0  0  0  0  0  0  0  0
  140.2380  147.7540  131.2330 C   0  0  0  0  0  0  0  0  0  0  0  0
  139.8040  149.2770  129.2950 C   0  0  0  0  0  0  0  0  0  0  0  0
  138.2280  149.2440  131.2800 C   0  0  0  0  0  0  0  0  0  0  0  0
  144.1460  152.0560  132.7760 C   0  0  0  0  0  0  0  0  0  0  0  0
  144.7760  151.1120  132.2240 O   0  0  0  0  0  0  0  0  0  0  0  0
  144.7460  153.3050  132.9550 O   0  0  0  0  0  0  0  0  0  0  0  0
  144.6890  154.3430  131.9800 C   0  0  0  0  0  0  0  0  0  0  0  0
  144.6300  155.6180  132.6150 O   0  0  0  0  0  0  0  0  0  0  0  0
  145.7730  156.3240  133.0070 C   0  0  0  0  0  0  0  0  0  0  0  0
  146.8650  155.7160  133.1780 O   0  0  0  0  0  0  0  0  0  0  0  0
  145.6970  157.7440  133.2270 N   0  0  0  0  0  0  0  0  0  0  0  0
  146.6940  158.6570  133.0590 C   0  0  0  0  0  0  0  0  0  0  0  0
  148.1110  158.3480  132.7960 C   0  0  0  0  0  0  0  0  0  0  0  0
  148.4810  157.3170  131.8810 N   0  0  0  0  0  0  0  0  0  0  0  0
  149.0090  158.9590  133.4350 O   0  0  0  0  0  0  0  0  0  0  0  0
  146.2130  159.9520  133.2290 C   0  0  0  0  0  0  0  0  0  0  0  0
  144.8770  159.8060  133.5230 C   0  0  0  0  0  0  0  0  0  0  0  0
  143.9090  160.7720  133.7740 C   0  0  0  0  0  0  0  0  0  0  0  0
  142.5950  160.3400  134.0130 C   0  0  0  0  0  0  0  0  0  0  0  0
  142.2660  158.9610  133.9870 C   0  0  0  0  0  0  0  0  0  0  0  0
  140.8670  158.5450  134.2310 C   0  0  0  0  0  0  0  0  0  0  0  0
  140.2700  158.2320  135.4370 C   0  0  0  0  0  0  0  0  0  0  0  0
  138.9830  157.9040  135.2120 N   0  0  0  0  0  0  0  0  0  0  0  0
  138.8500  158.0310  133.8750 C   0  0  0  0  0  0  0  0  0  0  0  0
  139.9630  158.4100  133.2920 O   0  0  0  0  0  0  0  0  0  0  0  0
  143.2800  158.0090  133.7260 C   0  0  0  0  0  0  0  0  0  0  0  0
  144.5880  158.4650  133.5130 C   0  0  0  0  0  0  0  0  0  0  0  0
  141.2150  153.3364  133.3509 H   0  0  0  0  0  0  0  0  0  0  0  0
  142.3478  153.4831  131.9645 H   0  0  0  0  0  0  0  0  0  0  0  0
  141.0895  152.2011  131.9645 H   0  0  0  0  0  0  0  0  0  0  0  0
  142.7219  152.0124  134.3700 H   0  0  0  0  0  0  0  0  0  0  0  0
  140.2666  147.6812  132.3302 H   0  0  0  0  0  0  0  0  0  0  0  0
  139.5818  146.9683  130.8304 H   0  0  0  0  0  0  0  0  0  0  0  0
  141.2536  147.6254  130.8304 H   0  0  0  0  0  0  0  0  0  0  0  0
  140.4477  150.1352  129.0520 H   0  0  0  0  0  0  0  0  0  0  0  0
  140.2392  148.3604  128.8703 H   0  0  0  0  0  0  0  0  0  0  0  0
  138.8022  149.4382  128.8703 H   0  0  0  0  0  0  0  0  0  0  0  0
  138.1840  149.2473  132.3791 H   0  0  0  0  0  0  0  0  0  0  0  0
  137.7937  150.1776  130.8928 H   0  0  0  0  0  0  0  0  0  0  0  0
  137.6583  148.3864  130.8928 H   0  0  0  0  0  0  0  0  0  0  0  0
  145.5868  154.2948  131.3463 H   0  0  0  0  0  0  0  0  0  0  0  0
  143.7860  154.2075  131.3667 H   0  0  0  0  0  0  0  0  0  0  0  0
  149.4880  157.1130  131.6980 H   0  0  0  0  0  0  0  0  0  0  0  0
  147.7600  156.6940  131.4540 H   0  0  0  0  0  0  0  0  0  0  0  0
  146.7797  160.8911  133.1460 H   0  0  0  0  0  0  0  0  0  0  0  0
  144.1650  161.8417  133.7850 H   0  0  0  0  0  0  0  0  0  0  0  0
  141.8099  161.0812  134.2233 H   0  0  0  0  0  0  0  0  0  0  0  0
  140.7644  158.2480  136.4195 H   0  0  0  0  0  0  0  0  0  0  0  0
  137.9121  157.8381  133.3336 H   0  0  0  0  0  0  0  0  0  0  0  0
  143.0467  156.9346  133.6911 H   0  0  0  0  0  0  0  0  0  0  0  0
  1  2  1  0
  2  3  1  0
  3  4  1  0
  4  5  2  0
  4  6  1  0
  6  7  1  0
  7  8  1  0
  7  9  1  0
  7 10  1  0
  2 11  1  0
 11 12  2  0
 11 13  1  0
 13 14  1  0
 14 15  1  0
 15 16  1  0
 16 17  2  0
 16 18  1  0
 18 19  1  0
 19 20  1  0
 20 21  1  0
 20 22  2  0
 19 23  2  0
 23 24  1  0
 24 25  2  0
 25 26  1  0
 26 27  2  0
 27 28  1  0
 28 29  2  0
 29 30  1  0
 30 31  2  0
 31 32  1  0
 27 33  1  0
 33 34  2  0
 34 18  1  0
 34 24  1  0
 32 28  1  0
  1 35  1  0
  1 36  1  0
  1 37  1  0
  2 38  1  1
  8 39  1  0
  8 40  1  0
  8 41  1  0
  9 42  1  0
  9 43  1  0
  9 44  1  0
 10 45  1  0
 10 46  1  0
 10 47  1  0
 14 48  1  0
 14 49  1  0
 21 50  1  0
 21 51  1  0
 23 52  1  0
 25 53  1  0
 26 54  1  0
 29 55  1  0
 31 56  1  0
 33 57  1  0
M  CHG  1   3  -1
M  END
>  <UniqueID>  (68) 
68

>  <SMILES>  (68) 
C[C@@H]([N-]C(=O)OC(C)(C)C)C(=O)OCOC(=O)n1c(C(N)=O)cc2ccc(-c3cnco3)cc21

>  <Energy>  (68) 
114.18577649202186

>  <Genealogy>  (68) 
CC([N-]C(=O)OC(C)(C)C)C(=O)OCOC(=O)n1c(C(N)=O)cc2ccc(-c3cnco3)cc21 (protonated)
C[C@@H]([N-]C(=O)OC(C)(C)C)C(=O)OCOC(=O)n1c(C(N)=O)cc2ccc(-c3cnco3)cc21 (chirality)
C[C@@H]([N-]C(=O)OC(C)(C)C)C(=O)OCOC(=O)n1c(C(N)=O)cc2ccc(-c3cnco3)cc21 (3D coordinates assigned)
C[C@@H]([N-]C(=O)OC(C)(C)C)C(=O)OCOC(=O)n1c(C(N)=O)cc2ccc(-c3cnco3)cc21 (optimized conformer: 114.18577649202186 kcal/mol)

>  <smiles>  (68) 
CC(NC(=O)OC(C)(C)C)C(=O)OCOC(=O)n1c(C(N)=O)cc2ccc(-c3cnco3)cc21

>  <score_type>  (68) 
oracle

>  <origin>  (68) 
adg

>  <m_score__min__energy>  (68) 
-8.5199999999999996

>  <m_primary>  (68) 
energy

$$$$
68:0
     RDKit          3D

 35 36  0  0  0  0  0  0  0  0999 V2000
  149.3950  157.4730  131.8570 N   0  0  0  0  0  0  0  0  0  0  0  0
  149.0160  158.7510  132.3710 C   0  0  0  0  0  0  0  0  0  0  0  0
  149.8860  159.6580  132.4550 O   0  0  0  0  0  0  0  0  0  0  0  0
  147.6290  159.0110  132.8200 C   0  0  0  0  0  0  0  0  0  0  0  0
  147.0900  160.2810  133.0290 C   0  0  0  0  0  0  0  0  0  0  0  0
  145.7780  160.0680  133.3890 C   0  0  0  0  0  0  0  0  0  0  0  0
  144.7850  160.9790  133.7370 C   0  0  0  0  0  0  0  0  0  0  0  0
  143.5270  160.4720  134.1060 C   0  0  0  0  0  0  0  0  0  0  0  0
  143.2870  159.0750  134.1160 C   0  0  0  0  0  0  0  0  0  0  0  0
  141.9560  158.5450  134.5610 C   0  0  0  0  0  0  0  0  0  0  0  0
  141.2440  159.5510  135.1860 F   0  0  0  0  0  0  0  0  0  0  0  0
  144.3230  158.1820  133.7720 C   0  0  0  0  0  0  0  0  0  0  0  0
  145.5580  158.7150  133.3900 C   0  0  0  0  0  0  0  0  0  0  0  0
  146.6820  158.0550  133.0350 N   0  0  0  0  0  0  0  0  0  0  0  0
  146.8560  156.6290  132.9860 C   0  0  0  0  0  0  0  0  0  0  0  0
  146.8360  156.0390  131.8730 O   0  0  0  0  0  0  0  0  0  0  0  0
  147.0390  155.8490  134.2190 C   0  0  0  0  0  0  0  0  0  0  0  0
  146.2540  156.0120  135.1920 O   0  0  0  0  0  0  0  0  0  0  0  0
  148.1010  154.8930  134.3020 N   0  0  0  0  0  0  0  0  0  0  0  0
  148.0700  153.6180  133.5980 C   0  0  0  0  0  0  0  0  0  0  0  0
  149.1980  153.5620  132.5710 C   0  0  0  0  0  0  0  0  0  0  0  0
  149.6360  154.8540  132.2460 O   0  0  0  0  0  0  0  0  0  0  0  0
  148.6950  156.7140  131.7060 H   0  0  0  0  0  0  0  0  0  0  0  0
  150.3860  157.2950  131.5780 H   0  0  0  0  0  0  0  0  0  0  0  0
  147.6044  161.2480  132.9276 H   0  0  0  0  0  0  0  0  0  0  0  0
  144.9786  162.0618  133.7237 H   0  0  0  0  0  0  0  0  0  0  0  0
  142.7216  161.1655  134.3895 H   0  0  0  0  0  0  0  0  0  0  0  0
  141.3932  158.1867  133.6864 H   0  0  0  0  0  0  0  0  0  0  0  0
  142.1096  157.7136  135.2647 H   0  0  0  0  0  0  0  0  0  0  0  0
  144.1636  157.0941  133.8034 H   0  0  0  0  0  0  0  0  0  0  0  0
  148.1951  152.7990  134.3217 H   0  0  0  0  0  0  0  0  0  0  0  0
  147.1048  153.5141  133.0807 H   0  0  0  0  0  0  0  0  0  0  0  0
  150.0393  152.9899  132.9893 H   0  0  0  0  0  0  0  0  0  0  0  0
  148.8223  153.0756  131.6587 H   0  0  0  0  0  0  0  0  0  0  0  0
  148.8580  155.4570  132.3650 H   0  0  0  0  0  0  0  0  0  0  0  0
  1  2  1  0
  2  3  2  0
  2  4  1  0
  4  5  2  0
  5  6  1  0
  6  7  2  0
  7  8  1  0
  8  9  2  0
  9 10  1  0
 10 11  1  0
  9 12  1  0
 12 13  2  0
 13 14  1  0
 14 15  1  0
 15 16  2  0
 15 17  1  0
 17 18  2  0
 17 19  1  0
 19 20  1  0
 20 21  1  0
 21 22  1  0
 14  4  1  0
 13  6  1  0
  1 23  1  0
  1 24  1  0
  5 25  1  0
  7 26  1  0
  8 27  1  0
 10 28  1  0
 10 29  1  0
 12 30  1  0
 20 31  1  0
 20 32  1  0
 21 33  1  0
 21 34  1  0
 22 35  1  0
M  CHG  1  19  -1
M  END
>  <UniqueID>  (69) 
69

>  <SMILES>  (69) 
NC(=O)c1cc2ccc(CF)cc2n1C(=O)C(=O)[N-]CCO

>  <Energy>  (69) 
68.41112673676831

>  <Genealogy>  (69) 
NC(=O)c1cc2ccc(CF)cc2n1C(=O)C(=O)[N-]CCO (protonated)
NC(=O)c1cc2ccc(CF)cc2n1C(=O)C(=O)[N-]CCO (3D coordinates assigned)
NC(=O)c1cc2ccc(CF)cc2n1C(=O)C(=O)[N-]CCO (optimized conformer: 68.41112673676831 kcal/mol)

>  <smiles>  (69) 
NC(=O)c1cc2ccc(CF)cc2n1C(=O)C(=O)NCCO

>  <score_type>  (69) 
oracle

>  <origin>  (69) 
adg

>  <m_score__min__energy>  (69) 
-5.9500000000000002

>  <m_primary>  (69) 
energy

$$$$
69:0
     RDKit          3D

 36 37  0  0  0  0  0  0  0  0999 V2000
  142.6430  160.7540  133.6330 N   0  0  0  0  0  0  0  0  0  0  0  0
  144.0240  161.0930  133.7320 C   0  0  0  0  0  0  0  0  0  0  0  0
  144.3520  162.2870  133.9570 O   0  0  0  0  0  0  0  0  0  0  0  0
  145.0510  160.0360  133.6120 C   0  0  0  0  0  0  0  0  0  0  0  0
  146.4010  160.2970  133.3880 C   0  0  0  0  0  0  0  0  0  0  0  0
  146.9950  159.0620  133.2620 C   0  0  0  0  0  0  0  0  0  0  0  0
  148.3260  158.7280  133.0350 C   0  0  0  0  0  0  0  0  0  0  0  0
  148.6640  157.3660  132.9770 C   0  0  0  0  0  0  0  0  0  0  0  0
  147.6760  156.3650  133.1700 C   0  0  0  0  0  0  0  0  0  0  0  0
  148.0430  154.9060  133.0700 C   0  0  0  0  0  0  0  0  0  0  0  0
  149.1680  154.7720  132.2790 F   0  0  0  0  0  0  0  0  0  0  0  0
  148.3070  154.3810  134.3240 F   0  0  0  0  0  0  0  0  0  0  0  0
  147.0070  154.1790  132.5080 F   0  0  0  0  0  0  0  0  0  0  0  0
  146.3300  156.7450  133.3740 C   0  0  0  0  0  0  0  0  0  0  0  0
  146.0210  158.1100  133.4100 C   0  0  0  0  0  0  0  0  0  0  0  0
  144.8210  158.6930  133.6250 N   0  0  0  0  0  0  0  0  0  0  0  0
  143.5840  158.0170  133.9040 C   0  0  0  0  0  0  0  0  0  0  0  0
  143.2660  157.7580  135.0970 O   0  0  0  0  0  0  0  0  0  0  0  0
  142.7260  157.6820  132.8500 O   0  0  0  0  0  0  0  0  0  0  0  0
  141.4870  156.9940  133.0220 C   0  0  0  0  0  0  0  0  0  0  0  0
  140.3560  157.9680  133.4030 C   0  0  1  0  0  0  0  0  0  0  0  0
  140.7930  158.8300  134.4230 O   0  0  0  0  0  0  0  0  0  0  0  0
  139.8370  158.7900  132.2060 C   0  0  0  0  0  0  0  0  0  0  0  0
  140.7940  159.7250  131.7830 O   0  0  0  0  0  0  0  0  0  0  0  0
  142.3440  159.8110  133.2990 H   0  0  0  0  0  0  0  0  0  0  0  0
  146.8885  161.2811  133.3252 H   0  0  0  0  0  0  0  0  0  0  0  0
  149.0912  159.5074  132.9048 H   0  0  0  0  0  0  0  0  0  0  0  0
  149.7054  157.0717  132.7799 H   0  0  0  0  0  0  0  0  0  0  0  0
  145.5439  155.9862  133.5014 H   0  0  0  0  0  0  0  0  0  0  0  0
  141.2236  156.4890  132.0809 H   0  0  0  0  0  0  0  0  0  0  0  0
  141.6051  156.2628  133.8353 H   0  0  0  0  0  0  0  0  0  0  0  0
  139.5131  157.3563  133.7571 H   0  0  0  0  0  0  0  0  0  0  0  0
  141.7350  159.0750  134.2240 H   0  0  0  0  0  0  0  0  0  0  0  0
  139.6086  158.1080  131.3737 H   0  0  0  0  0  0  0  0  0  0  0  0
  138.9331  159.3325  132.5201 H   0  0  0  0  0  0  0  0  0  0  0  0
  141.6520  159.4720  132.2120 H   0  0  0  0  0  0  0  0  0  0  0  0
  1  2  1  0
  2  3  2  0
  2  4  1  0
  4  5  2  0
  5  6  1  0
  6  7  2  0
  7  8  1  0
  8  9  2  0
  9 10  1  0
 10 11  1  0
 10 12  1  0
 10 13  1  0
  9 14  1  0
 14 15  2  0
 15 16  1  0
 16 17  1  0
 17 18  2  0
 17 19  1  0
 19 20  1  0
 20 21  1  0
 21 22  1  0
 21 23  1  0
 23 24  1  0
 16  4  1  0
 15  6  1  0
  1 25  1  0
  5 26  1  0
  7 27  1  0
  8 28  1  0
 14 29  1  0
 20 30  1  0
 20 31  1  0
 21 32  1  1
 22 33  1  0
 23 34  1  0
 23 35  1  0
 24 36  1  0
M  CHG  1   1  -1
M  END
>  <UniqueID>  (70) 
70

>  <SMILES>  (70) 
[NH-]C(=O)c1cc2ccc(C(F)(F)F)cc2n1C(=O)OC[C@@H](O)CO

>  <Energy>  (70) 
73.22584099292541

>  <Genealogy>  (70) 
[NH-]C(=O)c1cc2ccc(C(F)(F)F)cc2n1C(=O)OCC(O)CO (protonated)
[NH-]C(=O)c1cc2ccc(C(F)(F)F)cc2n1C(=O)OC[C@@H](O)CO (chirality)
[NH-]C(=O)c1cc2ccc(C(F)(F)F)cc2n1C(=O)OC[C@@H](O)CO (3D coordinates assigned)
[NH-]C(=O)c1cc2ccc(C(F)(F)F)cc2n1C(=O)OC[C@@H](O)CO (optimized conformer: 73.22584099292541 kcal/mol)

>  <smiles>  (70) 
NC(=O)c1cc2ccc(C(F)(F)F)cc2n1C(=O)OCC(O)CO

>  <score_type>  (70) 
oracle

>  <origin>  (70) 
adg

>  <m_score__min__energy>  (70) 
-5.3499999999999996

>  <m_primary>  (70) 
energy

$$$$
70:0
     RDKit          3D

 31 32  0  0  0  0  0  0  0  0999 V2000
  148.6020  160.0550  130.6890 C   0  0  0  0  0  0  0  0  0  0  0  0
  148.5630  158.6480  130.8930 O   0  0  0  0  0  0  0  0  0  0  0  0
  148.8560  158.0570  132.1260 C   0  0  0  0  0  0  0  0  0  0  0  0
  149.6910  157.1140  132.2010 O   0  0  0  0  0  0  0  0  0  0  0  0
  148.1680  158.5280  133.3360 C   0  0  0  0  0  0  0  0  0  0  0  0
  148.8340  159.0860  134.2490 O   0  0  0  0  0  0  0  0  0  0  0  0
  146.7450  158.3920  133.4800 N   0  0  0  0  0  0  0  0  0  0  0  0
  145.9980  157.2750  133.2640 C   0  0  0  0  0  0  0  0  0  0  0  0
  146.5260  155.9250  132.9770 C   0  0  0  0  0  0  0  0  0  0  0  0
  147.3780  155.6820  131.8560 N   0  0  0  0  0  0  0  0  0  0  0  0
  146.2570  154.9770  133.7610 O   0  0  0  0  0  0  0  0  0  0  0  0
  144.6390  157.5690  133.3500 C   0  0  0  0  0  0  0  0  0  0  0  0
  144.5760  158.9150  133.6300 C   0  0  0  0  0  0  0  0  0  0  0  0
  143.4710  159.7470  133.7780 C   0  0  0  0  0  0  0  0  0  0  0  0
  143.7010  161.1160  133.9980 C   0  0  0  0  0  0  0  0  0  0  0  0
  145.0230  161.6280  134.0690 C   0  0  0  0  0  0  0  0  0  0  0  0
  145.2560  163.1070  134.2370 C   0  0  0  0  0  0  0  0  0  0  0  0
  145.1400  163.4360  135.5740 F   0  0  0  0  0  0  0  0  0  0  0  0
  144.3280  163.8340  133.5110 F   0  0  0  0  0  0  0  0  0  0  0  0
  146.5200  163.4570  133.7940 F   0  0  0  0  0  0  0  0  0  0  0  0
  146.1180  160.7530  133.8840 C   0  0  0  0  0  0  0  0  0  0  0  0
  145.8600  159.3910  133.6960 C   0  0  0  0  0  0  0  0  0  0  0  0
  148.6162  160.5664  131.6628 H   0  0  0  0  0  0  0  0  0  0  0  0
  149.5078  160.3185  130.1232 H   0  0  0  0  0  0  0  0  0  0  0  0
  147.7122  160.3683  130.1232 H   0  0  0  0  0  0  0  0  0  0  0  0
  147.7810  156.4680  131.3010 H   0  0  0  0  0  0  0  0  0  0  0  0
  147.6920  154.7100  131.6410 H   0  0  0  0  0  0  0  0  0  0  0  0
  143.7963  156.8738  133.2216 H   0  0  0  0  0  0  0  0  0  0  0  0
  142.4482  159.3456  133.7245 H   0  0  0  0  0  0  0  0  0  0  0  0
  142.8466  161.7986  134.1165 H   0  0  0  0  0  0  0  0  0  0  0  0
  147.1497  161.1346  133.8878 H   0  0  0  0  0  0  0  0  0  0  0  0
  1  2  1  0
  2  3  1  0
  3  4  2  0
  3  5  1  0
  5  6  2  0
  5  7  1  0
  7  8  1  0
  8  9  1  0
  9 10  1  0
  9 11  2  0
  8 12  2  0
 12 13  1  0
 13 14  2  0
 14 15  1  0
 15 16  2  0
 16 17  1  0
 17 18  1  0
 17 19  1  0
 17 20  1  0
 16 21  1  0
 21 22  2  0
 22  7  1  0
 22 13  1  0
  1 23  1  0
  1 24  1  0
  1 25  1  0
 10 26  1  0
 10 27  1  0
 12 28  1  0
 14 29  1  0
 15 30  1  0
 21 31  1  0
M  END
>  <UniqueID>  (71) 
71

>  <SMILES>  (71) 
COC(=O)C(=O)n1c(C(N)=O)cc2ccc(C(F)(F)F)cc21

>  <Energy>  (71) 
69.62698904647968

>  <Genealogy>  (71) 
COC(=O)C(=O)n1c(C(N)=O)cc2ccc(C(F)(F)F)cc21 (3D coordinates assigned)
COC(=O)C(=O)n1c(C(N)=O)cc2ccc(C(F)(F)F)cc21 (optimized conformer: 69.62698904647968 kcal/mol)

>  <smiles>  (71) 
COC(=O)C(=O)n1c(C(N)=O)cc2ccc(C(F)(F)F)cc21

>  <score_type>  (71) 
oracle

>  <origin>  (71) 
adg

>  <m_score__min__energy>  (71) 
-5.9500000000000002

>  <m_primary>  (71) 
energy

$$$$
71:0
     RDKit          3D

 36 37  0  0  0  0  0  0  0  0999 V2000
  144.2450  155.5180  135.2290 N   0  0  0  0  0  0  0  0  0  0  0  0
  142.9640  155.8380  135.7780 C   0  0  0  0  0  0  0  0  0  0  0  0
  142.7090  155.5110  136.9670 O   0  0  0  0  0  0  0  0  0  0  0  0
  141.9600  156.5730  134.9770 C   0  0  0  0  0  0  0  0  0  0  0  0
  140.6100  156.2330  134.9170 C   0  0  0  0  0  0  0  0  0  0  0  0
  140.0540  157.1020  134.0060 C   0  0  0  0  0  0  0  0  0  0  0  0
  138.7350  157.2310  133.5820 C   0  0  0  0  0  0  0  0  0  0  0  0
  138.4360  158.2460  132.6600 C   0  0  0  0  0  0  0  0  0  0  0  0
  139.4540  159.1060  132.1710 C   0  0  0  0  0  0  0  0  0  0  0  0
  139.1080  160.2350  131.2320 C   0  0  0  0  0  0  0  0  0  0  0  0
  139.8050  160.1110  130.0430 F   0  0  0  0  0  0  0  0  0  0  0  0
  137.7520  160.2050  130.9650 F   0  0  0  0  0  0  0  0  0  0  0  0
  139.4300  161.4560  131.7980 F   0  0  0  0  0  0  0  0  0  0  0  0
  140.7780  158.9580  132.6450 C   0  0  0  0  0  0  0  0  0  0  0  0
  141.0510  157.9240  133.5490 C   0  0  0  0  0  0  0  0  0  0  0  0
  142.2270  157.6100  134.1350 N   0  0  0  0  0  0  0  0  0  0  0  0
  143.4770  158.2990  133.9660 C   0  0  0  0  0  0  0  0  0  0  0  0
  143.6030  159.4840  134.3800 O   0  0  0  0  0  0  0  0  0  0  0  0
  144.5530  157.6440  133.3570 O   0  0  0  0  0  0  0  0  0  0  0  0
  145.9190  157.9500  133.6350 C   0  0  0  0  0  0  0  0  0  0  0  0
  146.7610  156.6770  133.6860 C   0  0  0  0  0  0  0  0  0  0  0  0
  146.6840  156.1230  134.9790 O   0  0  0  0  0  0  0  0  0  0  0  0
  146.7850  154.4270  134.8440 P   0  0  0  0  0  0  0  0  0  0  0  0
  145.6880  153.9150  133.9390 O   0  0  0  0  0  0  0  0  0  0  0  0
  148.2840  154.0170  134.1780 O   0  0  0  0  0  0  0  0  0  0  0  0
  146.6450  153.7020  136.3680 O   0  0  0  0  0  0  0  0  0  0  0  0
  144.9590  155.0330  135.8150 H   0  0  0  0  0  0  0  0  0  0  0  0
  144.4740  155.7220  134.2310 H   0  0  0  0  0  0  0  0  0  0  0  0
  140.0973  155.4383  135.4788 H   0  0  0  0  0  0  0  0  0  0  0  0
  137.9505  156.5579  133.9580 H   0  0  0  0  0  0  0  0  0  0  0  0
  137.4006  158.3766  132.3122 H   0  0  0  0  0  0  0  0  0  0  0  0
  141.5748  159.6391  132.3114 H   0  0  0  0  0  0  0  0  0  0  0  0
  146.3089  158.6087  132.8450 H   0  0  0  0  0  0  0  0  0  0  0  0
  145.9761  158.4496  134.6133 H   0  0  0  0  0  0  0  0  0  0  0  0
  146.3781  155.9528  132.9519 H   0  0  0  0  0  0  0  0  0  0  0  0
  147.8079  156.9162  133.4479 H   0  0  0  0  0  0  0  0  0  0  0  0
  1  2  1  0
  2  3  2  0
  2  4  1  0
  4  5  2  0
  5  6  1  0
  6  7  2  0
  7  8  1  0
  8  9  2  0
  9 10  1  0
 10 11  1  0
 10 12  1  0
 10 13  1  0
  9 14  1  0
 14 15  2  0
 15 16  1  0
 16 17  1  0
 17 18  2  0
 17 19  1  0
 19 20  1  0
 20 21  1  0
 21 22  1  0
 22 23  1  0
 23 24  2  0
 23 25  1  0
 23 26  1  0
 16  4  1  0
 15  6  1  0
  1 27  1  0
  1 28  1  0
  5 29  1  0
  7 30  1  0
  8 31  1  0
 14 32  1  0
 20 33  1  0
 20 34  1  0
 21 35  1  0
 21 36  1  0
M  CHG  2  25  -1  26  -1
M  END
>  <UniqueID>  (72) 
72

>  <SMILES>  (72) 
NC(=O)c1cc2ccc(C(F)(F)F)cc2n1C(=O)OCCOP(=O)([O-])[O-]

>  <Energy>  (72) 
70.3770468601359

>  <Genealogy>  (72) 
NC(=O)c1cc2ccc(C(F)(F)F)cc2n1C(=O)OCCOP(=O)([O-])[O-] (protonated)
NC(=O)c1cc2ccc(C(F)(F)F)cc2n1C(=O)OCCOP(=O)([O-])[O-] (3D coordinates assigned)
NC(=O)c1cc2ccc(C(F)(F)F)cc2n1C(=O)OCCOP(=O)([O-])[O-] (optimized conformer: 70.3770468601359 kcal/mol)

>  <smiles>  (72) 
NC(=O)c1cc2ccc(C(F)(F)F)cc2n1C(=O)OCCOP(=O)(O)O

>  <score_type>  (72) 
oracle

>  <origin>  (72) 
adg

>  <m_score__min__energy>  (72) 
-6.2400000000000002

>  <m_primary>  (72) 
energy

$$$$
72:0
     RDKit          3D

 47 48  0  0  0  0  0  0  0  0999 V2000
  143.9700  155.4530  134.5300 C   0  0  0  0  0  0  0  0  0  0  0  0
  143.0640  156.6020  134.4700 N   0  0  0  0  0  0  0  0  0  0  0  0
  142.1170  156.8030  135.5380 C   0  0  0  0  0  0  0  0  0  0  0  0
  141.8380  155.8590  136.3280 O   0  0  0  0  0  0  0  0  0  0  0  0
  141.4920  158.0480  135.6850 O   0  0  0  0  0  0  0  0  0  0  0  0
  140.1500  158.2120  136.1380 C   0  0  0  0  0  0  0  0  0  0  0  0
  139.1380  158.1880  134.9720 C   0  0  0  0  0  0  0  0  0  0  0  0
  139.6970  157.8130  133.6480 N   0  0  0  0  0  0  0  0  0  0  0  0
  139.5940  156.3700  133.3680 C   0  0  0  0  0  0  0  0  0  0  0  0
  139.1360  158.6060  132.5390 C   0  0  0  0  0  0  0  0  0  0  0  0
  143.2120  157.5720  133.4150 C   0  0  0  0  0  0  0  0  0  0  0  0
  142.4120  157.5790  132.4410 O   0  0  0  0  0  0  0  0  0  0  0  0
  144.2640  158.5480  133.4680 N   0  0  0  0  0  0  0  0  0  0  0  0
  144.1540  159.8940  133.6520 C   0  0  0  0  0  0  0  0  0  0  0  0
  142.8910  160.6580  133.7310 C   0  0  0  0  0  0  0  0  0  0  0  0
  141.6330  159.9930  133.8160 N   0  0  0  0  0  0  0  0  0  0  0  0
  142.9210  161.9170  133.6920 O   0  0  0  0  0  0  0  0  0  0  0  0
  145.4170  160.4830  133.6830 C   0  0  0  0  0  0  0  0  0  0  0  0
  146.3090  159.4490  133.5120 C   0  0  0  0  0  0  0  0  0  0  0  0
  147.6990  159.4600  133.4470 C   0  0  0  0  0  0  0  0  0  0  0  0
  148.3620  158.2330  133.2650 C   0  0  0  0  0  0  0  0  0  0  0  0
  147.6300  157.0180  133.1800 C   0  0  0  0  0  0  0  0  0  0  0  0
  148.3370  155.7090  132.9460 C   0  0  0  0  0  0  0  0  0  0  0  0
  149.6100  155.9160  132.4440 F   0  0  0  0  0  0  0  0  0  0  0  0
  147.6120  154.9570  132.0390 F   0  0  0  0  0  0  0  0  0  0  0  0
  148.4470  155.0030  134.1310 F   0  0  0  0  0  0  0  0  0  0  0  0
  146.2170  157.0530  133.2300 C   0  0  0  0  0  0  0  0  0  0  0  0
  145.5870  158.2910  133.3890 C   0  0  0  0  0  0  0  0  0  0  0  0
  144.1705  155.1987  135.5812 H   0  0  0  0  0  0  0  0  0  0  0  0
  143.5047  154.5925  134.0269 H   0  0  0  0  0  0  0  0  0  0  0  0
  144.9153  155.7048  134.0269 H   0  0  0  0  0  0  0  0  0  0  0  0
  139.9083  157.3958  136.8347 H   0  0  0  0  0  0  0  0  0  0  0  0
  140.0758  159.1922  136.6317 H   0  0  0  0  0  0  0  0  0  0  0  0
  138.3482  157.4649  135.2236 H   0  0  0  0  0  0  0  0  0  0  0  0
  138.7756  159.2211  134.8653 H   0  0  0  0  0  0  0  0  0  0  0  0
  140.7200  158.0390  133.6880 H   0  0  0  0  0  0  0  0  0  0  0  0
  139.5543  155.8144  134.3165 H   0  0  0  0  0  0  0  0  0  0  0  0
  138.6795  156.1732  132.7892 H   0  0  0  0  0  0  0  0  0  0  0  0
  140.4712  156.0453  132.7892 H   0  0  0  0  0  0  0  0  0  0  0  0
  138.5459  159.4401  132.9465 H   0  0  0  0  0  0  0  0  0  0  0  0
  139.9550  159.0035  131.9215 H   0  0  0  0  0  0  0  0  0  0  0  0
  138.4885  157.9661  131.9215 H   0  0  0  0  0  0  0  0  0  0  0  0
  141.5690  158.9530  133.7470 H   0  0  0  0  0  0  0  0  0  0  0  0
  145.6513  161.5495  133.8161 H   0  0  0  0  0  0  0  0  0  0  0  0
  148.2626  160.4005  133.5354 H   0  0  0  0  0  0  0  0  0  0  0  0
  149.4591  158.2137  133.1876 H   0  0  0  0  0  0  0  0  0  0  0  0
  145.6276  156.1281  133.1458 H   0  0  0  0  0  0  0  0  0  0  0  0
  1  2  1  0
  2  3  1  0
  3  4  2  0
  3  5  1  0
  5  6  1  0
  6  7  1  0
  7  8  1  0
  8  9  1  0
  8 10  1  0
  2 11  1  0
 11 12  2  0
 11 13  1  0
 13 14  1  0
 14 15  1  0
 15 16  1  0
 15 17  2  0
 14 18  2  0
 18 19  1  0
 19 20  2  0
 20 21  1  0
 21 22  2  0
 22 23  1  0
 23 24  1  0
 23 25  1  0
 23 26  1  0
 22 27  1  0
 27 28  2  0
 28 13  1  0
 28 19  1  0
  1 29  1  0
  1 30  1  0
  1 31  1  0
  6 32  1  0
  6 33  1  0
  7 34  1  0
  7 35  1  0
  8 36  1  0
  9 37  1  0
  9 38  1  0
  9 39  1  0
 10 40  1  0
 10 41  1  0
 10 42  1  0
 16 43  1  0
 18 44  1  0
 20 45  1  0
 21 46  1  0
 27 47  1  0
M  CHG  2   8   1  16  -1
M  END
>  <UniqueID>  (73) 
73

>  <SMILES>  (73) 
CN(C(=O)OCC[NH+](C)C)C(=O)n1c(C([NH-])=O)cc2ccc(C(F)(F)F)cc21

>  <Energy>  (73) 
87.28453594648506

>  <Genealogy>  (73) 
CN(C(=O)OCC[NH+](C)C)C(=O)n1c(C([NH-])=O)cc2ccc(C(F)(F)F)cc21 (protonated)
CN(C(=O)OCC[NH+](C)C)C(=O)n1c(C([NH-])=O)cc2ccc(C(F)(F)F)cc21 (3D coordinates assigned)
CN(C(=O)OCC[NH+](C)C)C(=O)n1c(C([NH-])=O)cc2ccc(C(F)(F)F)cc21 (optimized conformer: 87.28453594648506 kcal/mol)

>  <smiles>  (73) 
CN(C)CCOC(=O)N(C)C(=O)n1c(C(N)=O)cc2ccc(C(F)(F)F)cc21

>  <score_type>  (73) 
oracle

>  <origin>  (73) 
adg

>  <m_score__min__energy>  (73) 
-4.9699999999999998

>  <m_primary>  (73) 
energy

$$$$
73:0
     RDKit          3D

 36 37  0  0  0  0  0  0  0  0999 V2000
  145.6390  162.3340  134.7760 N   0  0  0  0  0  0  0  0  0  0  0  0
  145.0010  161.3070  134.0200 C   0  0  0  0  0  0  0  0  0  0  0  0
  143.7790  161.4200  133.7360 O   0  0  0  0  0  0  0  0  0  0  0  0
  145.7670  160.1120  133.6110 C   0  0  0  0  0  0  0  0  0  0  0  0
  147.1540  160.0990  133.4680 C   0  0  0  0  0  0  0  0  0  0  0  0
  147.4780  158.7980  133.1600 C   0  0  0  0  0  0  0  0  0  0  0  0
  148.7200  158.2190  132.9160 C   0  0  0  0  0  0  0  0  0  0  0  0
  148.7590  156.8490  132.6090 C   0  0  0  0  0  0  0  0  0  0  0  0
  147.5630  156.0900  132.5300 C   0  0  0  0  0  0  0  0  0  0  0  0
  147.6150  154.6780  132.2400 N   0  0  0  0  0  0  0  0  0  0  0  0
  148.1060  153.9440  133.4160 C   0  0  0  0  0  0  0  0  0  0  0  0
  149.2310  152.9720  133.0380 C   0  0  0  0  0  0  0  0  0  0  0  0
  149.9540  153.4450  131.8620 N   0  0  0  0  0  0  0  0  0  0  0  0
  146.3210  156.7140  132.7890 C   0  0  0  0  0  0  0  0  0  0  0  0
  146.3140  158.0750  133.1190 C   0  0  0  0  0  0  0  0  0  0  0  0
  145.2540  158.8660  133.3970 N   0  0  0  0  0  0  0  0  0  0  0  0
  143.8710  158.4720  133.4180 C   0  0  0  0  0  0  0  0  0  0  0  0
  143.3700  157.8670  132.4340 O   0  0  0  0  0  0  0  0  0  0  0  0
  143.0460  158.7590  134.5600 C   0  0  0  0  0  0  0  0  0  0  0  0
  142.3660  158.9990  135.5250 C   0  0  0  0  0  0  0  0  0  0  0  0
  141.5630  159.2760  136.6830 C   0  0  0  0  0  0  0  0  0  0  0  0
  140.6610  160.1510  136.6280 O   0  0  0  0  0  0  0  0  0  0  0  0
  141.7830  158.5780  137.8610 O   0  0  0  0  0  0  0  0  0  0  0  0
  146.6780  162.4340  134.7740 H   0  0  0  0  0  0  0  0  0  0  0  0
  147.8433  160.9492  133.5782 H   0  0  0  0  0  0  0  0  0  0  0  0
  149.6427  158.8161  132.9622 H   0  0  0  0  0  0  0  0  0  0  0  0
  149.7272  156.3593  132.4279 H   0  0  0  0  0  0  0  0  0  0  0  0
  148.2490  154.5070  131.4240 H   0  0  0  0  0  0  0  0  0  0  0  0
  146.6570  154.3420  131.9820 H   0  0  0  0  0  0  0  0  0  0  0  0
  148.4882  154.6646  134.1540 H   0  0  0  0  0  0  0  0  0  0  0  0
  147.2716  153.3625  133.8351 H   0  0  0  0  0  0  0  0  0  0  0  0
  149.9318  152.8866  133.8815 H   0  0  0  0  0  0  0  0  0  0  0  0
  148.7867  151.9925  132.8072 H   0  0  0  0  0  0  0  0  0  0  0  0
  150.9270  153.6860  132.1610 H   0  0  0  0  0  0  0  0  0  0  0  0
  150.0380  152.6490  131.1880 H   0  0  0  0  0  0  0  0  0  0  0  0
  145.3821  156.1437  132.7326 H   0  0  0  0  0  0  0  0  0  0  0  0
  1  2  1  0
  2  3  2  0
  2  4  1  0
  4  5  2  0
  5  6  1  0
  6  7  2  0
  7  8  1  0
  8  9  2  0
  9 10  1  0
 10 11  1  0
 11 12  1  0
 12 13  1  0
  9 14  1  0
 14 15  2  0
 15 16  1  0
 16 17  1  0
 17 18  2  0
 17 19  1  0
 19 20  3  0
 20 21  1  0
 21 22  2  0
 21 23  1  0
 16  4  1  0
 15  6  1  0
  1 24  1  0
  5 25  1  0
  7 26  1  0
  8 27  1  0
 10 28  1  0
 10 29  1  0
 11 30  1  0
 11 31  1  0
 12 32  1  0
 12 33  1  0
 13 34  1  0
 13 35  1  0
 14 36  1  0
M  CHG  3   1  -1  10   1  23  -1
M  END
>  <UniqueID>  (74) 
74

>  <SMILES>  (74) 
[NH-]C(=O)c1cc2ccc([NH2+]CCN)cc2n1C(=O)C#CC(=O)[O-]

>  <Energy>  (74) 
68.07916937507513

>  <Genealogy>  (74) 
[NH-]C(=O)c1cc2ccc([NH2+]CCN)cc2n1C(=O)C#CC(=O)[O-] (protonated)
[NH-]C(=O)c1cc2ccc([NH2+]CCN)cc2n1C(=O)C#CC(=O)[O-] (3D coordinates assigned)
[NH-]C(=O)c1cc2ccc([NH2+]CCN)cc2n1C(=O)C#CC(=O)[O-] (optimized conformer: 68.07916937507513 kcal/mol)

>  <smiles>  (74) 
NCCNc1ccc2cc(C(N)=O)n(C(=O)C#CC(=O)O)c2c1

>  <score_type>  (74) 
oracle

>  <origin>  (74) 
adg

>  <m_score__min__energy>  (74) 
-7.3899999999999997

>  <m_primary>  (74) 
energy

$$$$
74:0
     RDKit          3D

 57 59  0  0  0  0  0  0  0  0999 V2000
  140.1850  154.0330  132.9850 C   0  0  0  0  0  0  0  0  0  0  0  0
  139.8970  155.4240  132.9240 O   0  0  0  0  0  0  0  0  0  0  0  0
  140.8410  156.4070  133.2280 C   0  0  0  0  0  0  0  0  0  0  0  0
  141.9300  156.0900  133.7800 O   0  0  0  0  0  0  0  0  0  0  0  0
  140.5830  157.8250  132.9090 C   0  0  0  0  0  0  0  0  0  0  0  0
  139.7910  158.1950  131.8800 N   0  0  0  0  0  0  0  0  0  0  0  0
  139.8270  159.5420  131.8920 C   0  0  0  0  0  0  0  0  0  0  0  0
  140.6340  159.9720  132.9190 C   0  0  0  0  0  0  0  0  0  0  0  0
  141.1090  158.8920  133.5620 N   0  0  0  0  0  0  0  0  0  0  0  0
  142.0510  158.9220  134.6870 C   0  0  0  0  0  0  0  0  0  0  0  0
  143.4340  159.3330  134.2440 C   0  0  0  0  0  0  0  0  0  0  0  0
  143.7640  160.7090  134.1690 C   0  0  0  0  0  0  0  0  0  0  0  0
  145.0310  161.1210  133.7230 C   0  0  0  0  0  0  0  0  0  0  0  0
  145.9370  160.1390  133.3360 C   0  0  0  0  0  0  0  0  0  0  0  0
  147.2310  160.2580  132.8800 C   0  0  0  0  0  0  0  0  0  0  0  0
  147.6630  158.9530  132.6520 C   0  0  0  0  0  0  0  0  0  0  0  0
  148.9850  158.6180  132.0840 C   0  0  0  0  0  0  0  0  0  0  0  0
  149.5090  157.3010  132.2340 N   0  0  0  0  0  0  0  0  0  0  0  0
  149.6740  159.4930  131.4940 O   0  0  0  0  0  0  0  0  0  0  0  0
  146.6770  158.0620  132.9560 N   0  0  0  0  0  0  0  0  0  0  0  0
  146.7550  156.6240  132.9420 C   0  0  0  0  0  0  0  0  0  0  0  0
  146.9940  156.0270  131.8570 O   0  0  0  0  0  0  0  0  0  0  0  0
  146.6140  155.8650  134.1590 N   0  0  0  0  0  0  0  0  0  0  0  0
  147.7250  155.7910  135.1110 C   0  0  0  0  0  0  0  0  0  0  0  0
  145.4120  155.1210  134.4260 C   0  0  0  0  0  0  0  0  0  0  0  0
  144.4420  155.6780  135.0090 O   0  0  0  0  0  0  0  0  0  0  0  0
  145.3370  153.7730  134.0410 O   0  0  0  0  0  0  0  0  0  0  0  0
  144.6290  153.2540  132.9060 C   0  0  0  0  0  0  0  0  0  0  0  0
  144.3520  154.4370  131.9660 C   0  0  0  0  0  0  0  0  0  0  0  0
  143.2860  152.6370  133.3400 C   0  0  0  0  0  0  0  0  0  0  0  0
  145.4900  152.2170  132.1600 C   0  0  0  0  0  0  0  0  0  0  0  0
  145.6290  158.8050  133.3750 C   0  0  0  0  0  0  0  0  0  0  0  0
  144.3820  158.3660  133.8330 C   0  0  0  0  0  0  0  0  0  0  0  0
  140.2502  153.7179  134.0369 H   0  0  0  0  0  0  0  0  0  0  0  0
  139.3843  153.4704  132.4827 H   0  0  0  0  0  0  0  0  0  0  0  0
  141.1433  153.8346  132.4827 H   0  0  0  0  0  0  0  0  0  0  0  0
  139.2927  160.1971  131.1882 H   0  0  0  0  0  0  0  0  0  0  0  0
  140.8531  161.0201  133.1709 H   0  0  0  0  0  0  0  0  0  0  0  0
  141.6884  159.6404  135.4369 H   0  0  0  0  0  0  0  0  0  0  0  0
  142.1128  157.9087  135.1106 H   0  0  0  0  0  0  0  0  0  0  0  0
  143.0195  161.4634  134.4634 H   0  0  0  0  0  0  0  0  0  0  0  0
  145.2983  162.1872  133.6812 H   0  0  0  0  0  0  0  0  0  0  0  0
  147.8021  161.1858  132.7281 H   0  0  0  0  0  0  0  0  0  0  0  0
  149.0960  156.4960  131.7140 H   0  0  0  0  0  0  0  0  0  0  0  0
  147.3306  155.8173  136.1375 H   0  0  0  0  0  0  0  0  0  0  0  0
  148.2796  154.8539  134.9551 H   0  0  0  0  0  0  0  0  0  0  0  0
  148.3990  156.6462  134.9551 H   0  0  0  0  0  0  0  0  0  0  0  0
  144.1412  155.3373  132.5619 H   0  0  0  0  0  0  0  0  0  0  0  0
  145.2327  154.6152  131.3315 H   0  0  0  0  0  0  0  0  0  0  0  0
  143.4837  154.2057  131.3315 H   0  0  0  0  0  0  0  0  0  0  0  0
  143.2318  152.6121  134.4384 H   0  0  0  0  0  0  0  0  0  0  0  0
  142.4586  153.2453  132.9458 H   0  0  0  0  0  0  0  0  0  0  0  0
  143.2085  151.6130  132.9458 H   0  0  0  0  0  0  0  0  0  0  0  0
  146.0157  151.5838  132.8898 H   0  0  0  0  0  0  0  0  0  0  0  0
  144.8435  151.5896  131.5288 H   0  0  0  0  0  0  0  0  0  0  0  0
  146.2255  152.7371  131.5288 H   0  0  0  0  0  0  0  0  0  0  0  0
  144.1437  157.2929  133.8727 H   0  0  0  0  0  0  0  0  0  0  0  0
  1  2  1  0
  2  3  1  0
  3  4  2  0
  3  5  1  0
  5  6  2  0
  6  7  1  0
  7  8  2  0
  8  9  1  0
  9 10  1  0
 10 11  1  0
 11 12  2  0
 12 13  1  0
 13 14  2  0
 14 15  1  0
 15 16  2  0
 16 17  1  0
 17 18  1  0
 17 19  2  0
 16 20  1  0
 20 21  1  0
 21 22  2  0
 21 23  1  0
 23 24  1  0
 23 25  1  0
 25 26  2  0
 25 27  1  0
 27 28  1  0
 28 29  1  0
 28 30  1  0
 28 31  1  0
 20 32  1  0
 32 33  2  0
  9  5  1  0
 33 11  1  0
 32 14  1  0
  1 34  1  0
  1 35  1  0
  1 36  1  0
  7 37  1  0
  8 38  1  0
 10 39  1  0
 10 40  1  0
 12 41  1  0
 13 42  1  0
 15 43  1  0
 18 44  1  0
 24 45  1  0
 24 46  1  0
 24 47  1  0
 29 48  1  0
 29 49  1  0
 29 50  1  0
 30 51  1  0
 30 52  1  0
 30 53  1  0
 31 54  1  0
 31 55  1  0
 31 56  1  0
 33 57  1  0
M  CHG  1  18  -1
M  END
>  <UniqueID>  (75) 
75

>  <SMILES>  (75) 
COC(=O)c1nccn1Cc1ccc2cc(C([NH-])=O)n(C(=O)N(C)C(=O)OC(C)(C)C)c2c1

>  <Energy>  (75) 
118.13402606610038

>  <Genealogy>  (75) 
COC(=O)c1nccn1Cc1ccc2cc(C([NH-])=O)n(C(=O)N(C)C(=O)OC(C)(C)C)c2c1 (protonated)
COC(=O)c1nccn1Cc1ccc2cc(C([NH-])=O)n(C(=O)N(C)C(=O)OC(C)(C)C)c2c1 (3D coordinates assigned)
COC(=O)c1nccn1Cc1ccc2cc(C([NH-])=O)n(C(=O)N(C)C(=O)OC(C)(C)C)c2c1 (optimized conformer: 118.13402606610038 kcal/mol)

>  <smiles>  (75) 
COC(=O)c1nccn1Cc1ccc2cc(C(N)=O)n(C(=O)N(C)C(=O)OC(C)(C)C)c2c1

>  <score_type>  (75) 
oracle

>  <origin>  (75) 
adg

>  <m_score__min__energy>  (75) 
-7.6900000000000004

>  <m_primary>  (75) 
energy

$$$$
75:0
     RDKit          3D

 55 57  0  0  0  0  0  0  0  0999 V2000
  150.1850  151.0760  133.6890 C   0  0  0  0  0  0  0  0  0  0  0  0
  149.2920  151.8270  132.6810 C   0  0  0  0  0  0  0  0  0  0  0  0
  149.1430  151.0210  131.3760 C   0  0  0  0  0  0  0  0  0  0  0  0
  149.9430  153.1830  132.3570 C   0  0  0  0  0  0  0  0  0  0  0  0
  148.0070  152.1040  133.2570 O   0  0  0  0  0  0  0  0  0  0  0  0
  146.7830  152.1850  132.5690 C   0  0  0  0  0  0  0  0  0  0  0  0
  146.3430  151.1950  131.9230 O   0  0  0  0  0  0  0  0  0  0  0  0
  146.0180  153.4070  132.6140 N   0  0  0  0  0  0  0  0  0  0  0  0
  144.7300  153.4820  131.9000 C   0  0  0  0  0  0  0  0  0  0  0  0
  144.0030  154.8060  132.1740 C   0  0  0  0  0  0  0  0  0  0  0  0
  144.0730  155.1310  133.6060 N   0  0  0  0  0  0  0  0  0  0  0  0
  142.8860  155.4510  134.3600 C   0  0  0  0  0  0  0  0  0  0  0  0
  142.7490  154.9760  135.5200 O   0  0  0  0  0  0  0  0  0  0  0  0
  141.8330  156.3340  133.8220 C   0  0  0  0  0  0  0  0  0  0  0  0
  140.9030  155.8630  133.1130 O   0  0  0  0  0  0  0  0  0  0  0  0
  141.8810  157.7470  134.0630 N   0  0  0  0  0  0  0  0  0  0  0  0
  140.8610  158.5650  134.4460 C   0  0  0  0  0  0  0  0  0  0  0  0
  139.4920  158.1330  134.7940 C   0  0  0  0  0  0  0  0  0  0  0  0
  138.6250  157.5700  133.8130 N   0  0  0  0  0  0  0  0  0  0  0  0
  139.0900  158.2340  135.9850 O   0  0  0  0  0  0  0  0  0  0  0  0
  141.3020  159.8870  134.5180 C   0  0  0  0  0  0  0  0  0  0  0  0
  142.6330  159.8490  134.1630 C   0  0  0  0  0  0  0  0  0  0  0  0
  143.5700  160.8730  134.0750 C   0  0  0  0  0  0  0  0  0  0  0  0
  144.8790  160.5380  133.6870 C   0  0  0  0  0  0  0  0  0  0  0  0
  145.2220  159.1980  133.3730 C   0  0  0  0  0  0  0  0  0  0  0  0
  146.6420  158.8350  133.0230 C   0  0  0  0  0  0  0  0  0  0  0  0
  147.0600  159.6130  131.9610 F   0  0  0  0  0  0  0  0  0  0  0  0
  147.4800  159.0570  134.1020 F   0  0  0  0  0  0  0  0  0  0  0  0
  146.7380  157.5000  132.6680 F   0  0  0  0  0  0  0  0  0  0  0  0
  144.2430  158.1840  133.4900 C   0  0  0  0  0  0  0  0  0  0  0  0
  142.9550  158.5450  133.8930 C   0  0  0  0  0  0  0  0  0  0  0  0
  145.3620  155.0460  134.3150 C   0  0  0  0  0  0  0  0  0  0  0  0
  146.4830  154.5650  133.3900 C   0  0  0  0  0  0  0  0  0  0  0  0
  149.8785  151.3338  134.7135 H   0  0  0  0  0  0  0  0  0  0  0  0
  150.0787  149.9919  133.5363 H   0  0  0  0  0  0  0  0  0  0  0  0
  151.2349  151.3666  133.5363 H   0  0  0  0  0  0  0  0  0  0  0  0
  148.9479  149.9656  131.6171 H   0  0  0  0  0  0  0  0  0  0  0  0
  148.3042  151.4243  130.7897 H   0  0  0  0  0  0  0  0  0  0  0  0
  150.0706  151.0977  130.7897 H   0  0  0  0  0  0  0  0  0  0  0  0
  150.1926  153.7030  133.2936 H   0  0  0  0  0  0  0  0  0  0  0  0
  150.8605  153.0190  131.7729 H   0  0  0  0  0  0  0  0  0  0  0  0
  149.2412  153.7964  131.7729 H   0  0  0  0  0  0  0  0  0  0  0  0
  144.9162  153.3950  130.8194 H   0  0  0  0  0  0  0  0  0  0  0  0
  144.0919  152.6608  132.2584 H   0  0  0  0  0  0  0  0  0  0  0  0
  144.4797  155.6101  131.5942 H   0  0  0  0  0  0  0  0  0  0  0  0
  142.9484  154.7070  131.8773 H   0  0  0  0  0  0  0  0  0  0  0  0
  138.9160  156.7400  133.2470 H   0  0  0  0  0  0  0  0  0  0  0  0
  140.7121  160.7720  134.7987 H   0  0  0  0  0  0  0  0  0  0  0  0
  143.2951  161.9136  134.3021 H   0  0  0  0  0  0  0  0  0  0  0  0
  145.6461  161.3241  133.6262 H   0  0  0  0  0  0  0  0  0  0  0  0
  144.4901  157.1352  133.2688 H   0  0  0  0  0  0  0  0  0  0  0  0
  145.6222  156.0417  134.7034 H   0  0  0  0  0  0  0  0  0  0  0  0
  145.2568  154.3200  135.1346 H   0  0  0  0  0  0  0  0  0  0  0  0
  146.7648  155.3768  132.7033 H   0  0  0  0  0  0  0  0  0  0  0  0
  147.3555  154.2742  133.9935 H   0  0  0  0  0  0  0  0  0  0  0  0
  1  2  1  0
  2  3  1  0
  2  4  1  0
  2  5  1  0
  5  6  1  0
  6  7  2  0
  6  8  1  0
  8  9  1  0
  9 10  1  0
 10 11  1  0
 11 12  1  0
 12 13  2  0
 12 14  1  0
 14 15  2  0
 14 16  1  0
 16 17  1  0
 17 18  1  0
 18 19  1  0
 18 20  2  0
 17 21  2  0
 21 22  1  0
 22 23  2  0
 23 24  1  0
 24 25  2  0
 25 26  1  0
 26 27  1  0
 26 28  1  0
 26 29  1  0
 25 30  1  0
 30 31  2  0
 11 32  1  0
 32 33  1  0
 33  8  1  0
 31 16  1  0
 31 22  1  0
  1 34  1  0
  1 35  1  0
  1 36  1  0
  3 37  1  0
  3 38  1  0
  3 39  1  0
  4 40  1  0
  4 41  1  0
  4 42  1  0
  9 43  1  0
  9 44  1  0
 10 45  1  0
 10 46  1  0
 19 47  1  0
 21 48  1  0
 23 49  1  0
 24 50  1  0
 30 51  1  0
 32 52  1  0
 32 53  1  0
 33 54  1  0
 33 55  1  0
M  CHG  1  19  -1
M  END
>  <UniqueID>  (76) 
76

>  <SMILES>  (76) 
CC(C)(C)OC(=O)N1CCN(C(=O)C(=O)n2c(C([NH-])=O)cc3ccc(C(F)(F)F)cc32)CC1

>  <Energy>  (76) 
94.5795688645709

>  <Genealogy>  (76) 
CC(C)(C)OC(=O)N1CCN(C(=O)C(=O)n2c(C([NH-])=O)cc3ccc(C(F)(F)F)cc32)CC1 (protonated)
CC(C)(C)OC(=O)N1CCN(C(=O)C(=O)n2c(C([NH-])=O)cc3ccc(C(F)(F)F)cc32)CC1 (3D coordinates assigned)
CC(C)(C)OC(=O)N1CCN(C(=O)C(=O)n2c(C([NH-])=O)cc3ccc(C(F)(F)F)cc32)CC1 (nonaromatic ring conformer: 94.5795688645709 kcal/mol)

>  <smiles>  (76) 
CC(C)(C)OC(=O)N1CCN(C(=O)C(=O)n2c(C(N)=O)cc3ccc(C(F)(F)F)cc32)CC1

>  <score_type>  (76) 
oracle

>  <origin>  (76) 
adg

>  <m_score__min__energy>  (76) 
-8.3200000000000003

>  <m_primary>  (76) 
energy

$$$$
76:0
     RDKit          3D

 46 47  0  0  0  0  0  0  0  0999 V2000
  149.2540  162.5110  130.2940 C   0  0  0  0  0  0  0  0  0  0  0  0
  149.0010  161.4420  130.8000 C   0  0  0  0  0  0  0  0  0  0  0  0
  148.7020  160.1650  131.3950 C   0  0  0  0  0  0  0  0  0  0  0  0
  149.6430  159.1130  131.3210 C   0  0  0  0  0  0  0  0  0  0  0  0
  149.3670  157.8670  131.9110 C   0  0  0  0  0  0  0  0  0  0  0  0
  148.1420  157.7090  132.5530 C   0  0  0  0  0  0  0  0  0  0  0  0
  147.6420  156.6330  133.2480 C   0  0  0  0  0  0  0  0  0  0  0  0
  146.3920  157.0470  133.7200 C   0  0  0  0  0  0  0  0  0  0  0  0
  145.4720  156.2040  134.5140 C   0  0  0  0  0  0  0  0  0  0  0  0
  144.1260  155.9680  134.0850 N   0  0  0  0  0  0  0  0  0  0  0  0
  145.8620  155.6910  135.6000 O   0  0  0  0  0  0  0  0  0  0  0  0
  146.1320  158.3200  133.3100 N   0  0  0  0  0  0  0  0  0  0  0  0
  145.0140  159.1420  133.6750 C   0  0  0  0  0  0  0  0  0  0  0  0
  145.2140  160.2310  134.2750 O   0  0  0  0  0  0  0  0  0  0  0  0
  143.6410  158.7500  133.3070 C   0  0  0  0  0  0  0  0  0  0  0  0
  143.4490  157.8620  132.4300 O   0  0  0  0  0  0  0  0  0  0  0  0
  142.5120  159.3980  133.9190 N   0  0  0  0  0  0  0  0  0  0  0  0
  142.4260  160.8550  133.7380 C   0  0  0  0  0  0  0  0  0  0  0  0
  141.3900  158.6360  134.5260 C   0  0  0  0  0  0  0  0  0  0  0  0
  140.9880  159.3040  135.8590 C   0  0  0  0  0  0  0  0  0  0  0  0
  140.1500  158.6000  133.6010 C   0  0  0  0  0  0  0  0  0  0  0  0
  141.8100  157.2020  134.7620 C   0  0  0  0  0  0  0  0  0  0  0  0
  141.6630  156.3420  133.8560 O   0  0  0  0  0  0  0  0  0  0  0  0
  142.4220  156.8510  135.9710 O   0  0  0  0  0  0  0  0  0  0  0  0
  141.8090  155.9880  136.9200 C   0  0  0  0  0  0  0  0  0  0  0  0
  147.2140  158.7160  132.6080 C   0  0  0  0  0  0  0  0  0  0  0  0
  147.4700  159.9710  132.0460 C   0  0  0  0  0  0  0  0  0  0  0  0
  149.4841  163.4833  129.8338 H   0  0  0  0  0  0  0  0  0  0  0  0
  150.5980  159.2702  130.7982 H   0  0  0  0  0  0  0  0  0  0  0  0
  150.0953  157.0439  131.8667 H   0  0  0  0  0  0  0  0  0  0  0  0
  148.1225  155.6553  133.4003 H   0  0  0  0  0  0  0  0  0  0  0  0
  143.7600  156.3470  133.1850 H   0  0  0  0  0  0  0  0  0  0  0  0
  143.4800  155.4080  134.6870 H   0  0  0  0  0  0  0  0  0  0  0  0
  142.3970  161.3457  134.7221 H   0  0  0  0  0  0  0  0  0  0  0  0
  143.3049  161.2075  133.1783 H   0  0  0  0  0  0  0  0  0  0  0  0
  141.5117  161.1016  133.1783 H   0  0  0  0  0  0  0  0  0  0  0  0
  141.3542  158.6956  136.6991 H   0  0  0  0  0  0  0  0  0  0  0  0
  141.4313  160.3092  135.9137 H   0  0  0  0  0  0  0  0  0  0  0  0
  139.8922  159.3830  135.9137 H   0  0  0  0  0  0  0  0  0  0  0  0
  139.2365  158.5735  134.2132 H   0  0  0  0  0  0  0  0  0  0  0  0
  140.1399  159.4982  132.9661 H   0  0  0  0  0  0  0  0  0  0  0  0
  140.1921  157.7027  132.9661 H   0  0  0  0  0  0  0  0  0  0  0  0
  142.0518  156.3298  137.9370 H   0  0  0  0  0  0  0  0  0  0  0  0
  140.7182  156.0033  136.7787 H   0  0  0  0  0  0  0  0  0  0  0  0
  142.1827  154.9631  136.7787 H   0  0  0  0  0  0  0  0  0  0  0  0
  146.7300  160.7822  132.1111 H   0  0  0  0  0  0  0  0  0  0  0  0
  1  2  3  0
  2  3  1  0
  3  4  2  0
  4  5  1  0
  5  6  2  0
  6  7  1  0
  7  8  2  0
  8  9  1  0
  9 10  1  0
  9 11  2  0
  8 12  1  0
 12 13  1  0
 13 14  2  0
 13 15  1  0
 15 16  2  0
 15 17  1  0
 17 18  1  0
 17 19  1  0
 19 20  1  0
 19 21  1  0
 19 22  1  0
 22 23  2  0
 22 24  1  0
 24 25  1  0
 12 26  1  0
 26 27  2  0
 27  3  1  0
 26  6  1  0
  1 28  1  0
  4 29  1  0
  5 30  1  0
  7 31  1  0
 10 32  1  0
 10 33  1  0
 18 34  1  0
 18 35  1  0
 18 36  1  0
 20 37  1  0
 20 38  1  0
 20 39  1  0
 21 40  1  0
 21 41  1  0
 21 42  1  0
 25 43  1  0
 25 44  1  0
 25 45  1  0
 27 46  1  0
M  END
>  <UniqueID>  (77) 
77

>  <SMILES>  (77) 
C#Cc1ccc2cc(C(N)=O)n(C(=O)C(=O)N(C)C(C)(C)C(=O)OC)c2c1

>  <Energy>  (77) 
87.14963829683217

>  <Genealogy>  (77) 
C#Cc1ccc2cc(C(N)=O)n(C(=O)C(=O)N(C)C(C)(C)C(=O)OC)c2c1 (3D coordinates assigned)
C#Cc1ccc2cc(C(N)=O)n(C(=O)C(=O)N(C)C(C)(C)C(=O)OC)c2c1 (optimized conformer: 87.14963829683217 kcal/mol)

>  <smiles>  (77) 
C#Cc1ccc2cc(C(N)=O)n(C(=O)C(=O)N(C)C(C)(C)C(=O)OC)c2c1

>  <score_type>  (77) 
oracle

>  <origin>  (77) 
adg

>  <m_score__min__energy>  (77) 
-7.4500000000000002

>  <m_primary>  (77) 
energy

$$$$
77:0
     RDKit          3D

 33 34  0  0  0  0  0  0  0  0999 V2000
  143.2290  153.6920  139.0120 N   0  0  0  0  0  0  0  0  0  0  0  0
  142.2020  153.7370  138.0270 C   0  0  0  0  0  0  0  0  0  0  0  0
  141.5290  152.6980  137.7880 O   0  0  0  0  0  0  0  0  0  0  0  0
  141.8830  154.9940  137.3180 C   0  0  0  0  0  0  0  0  0  0  0  0
  140.7850  155.7950  137.6270 C   0  0  0  0  0  0  0  0  0  0  0  0
  140.8990  156.9000  136.8140 C   0  0  0  0  0  0  0  0  0  0  0  0
  140.0820  158.0210  136.7060 C   0  0  0  0  0  0  0  0  0  0  0  0
  140.4350  159.0050  135.7680 C   0  0  0  0  0  0  0  0  0  0  0  0
  141.5770  158.8450  134.9410 C   0  0  0  0  0  0  0  0  0  0  0  0
  141.9670  159.9260  133.9670 C   0  0  0  0  0  0  0  0  0  0  0  0
  141.3940  161.1210  134.3610 F   0  0  0  0  0  0  0  0  0  0  0  0
  143.3430  160.0780  133.9280 F   0  0  0  0  0  0  0  0  0  0  0  0
  141.5300  159.6160  132.6910 F   0  0  0  0  0  0  0  0  0  0  0  0
  142.3950  157.7010  135.1000 C   0  0  0  0  0  0  0  0  0  0  0  0
  142.0260  156.7450  136.0520 C   0  0  0  0  0  0  0  0  0  0  0  0
  142.6390  155.5790  136.3460 N   0  0  0  0  0  0  0  0  0  0  0  0
  143.8030  155.0460  135.6950 C   0  0  0  0  0  0  0  0  0  0  0  0
  143.9050  155.1270  134.4410 O   0  0  0  0  0  0  0  0  0  0  0  0
  144.8200  154.3880  136.4690 N   0  0  0  0  0  0  0  0  0  0  0  0
  146.0630  153.9170  135.9330 C   0  0  0  0  0  0  0  0  0  0  0  0
  146.3440  154.0950  134.7170 O   0  0  0  0  0  0  0  0  0  0  0  0
  146.9610  153.2640  136.7890 O   0  0  0  0  0  0  0  0  0  0  0  0
  146.8300  153.1790  138.1820 C   0  0  0  0  0  0  0  0  0  0  0  0
  145.7780  152.7280  138.7120 O   0  0  0  0  0  0  0  0  0  0  0  0
  147.9340  153.6240  139.0370 C   0  0  0  0  0  0  0  0  0  0  0  0
  149.1070  153.2270  138.8100 O   0  0  0  0  0  0  0  0  0  0  0  0
  147.6930  154.4840  140.0990 O   0  0  0  0  0  0  0  0  0  0  0  0
  144.1720  154.1030  138.8250 H   0  0  0  0  0  0  0  0  0  0  0  0
  139.9951  155.5881  138.3640 H   0  0  0  0  0  0  0  0  0  0  0  0
  139.1872  158.1332  137.3358 H   0  0  0  0  0  0  0  0  0  0  0  0
  139.8185  159.9111  135.6733 H   0  0  0  0  0  0  0  0  0  0  0  0
  143.2999  157.5668  134.4891 H   0  0  0  0  0  0  0  0  0  0  0  0
  144.6430  154.2380  137.4870 H   0  0  0  0  0  0  0  0  0  0  0  0
  1  2  1  0
  2  3  2  0
  2  4  1  0
  4  5  2  0
  5  6  1  0
  6  7  2  0
  7  8  1  0
  8  9  2  0
  9 10  1  0
 10 11  1  0
 10 12  1  0
 10 13  1  0
  9 14  1  0
 14 15  2  0
 15 16  1  0
 16 17  1  0
 17 18  2  0
 17 19  1  0
 19 20  1  0
 20 21  2  0
 20 22  1  0
 22 23  1  0
 23 24  2  0
 23 25  1  0
 25 26  2  0
 25 27  1  0
 16  4  1  0
 15  6  1  0
  1 28  1  0
  5 29  1  0
  7 30  1  0
  8 31  1  0
 14 32  1  0
 19 33  1  0
M  CHG  2   1  -1  27  -1
M  END
>  <UniqueID>  (78) 
78

>  <SMILES>  (78) 
[NH-]C(=O)c1cc2ccc(C(F)(F)F)cc2n1C(=O)NC(=O)OC(=O)C(=O)[O-]

>  <Energy>  (78) 
73.08060110479197

>  <Genealogy>  (78) 
[NH-]C(=O)c1cc2ccc(C(F)(F)F)cc2n1C(=O)NC(=O)OC(=O)C(=O)[O-] (protonated)
[NH-]C(=O)c1cc2ccc(C(F)(F)F)cc2n1C(=O)NC(=O)OC(=O)C(=O)[O-] (3D coordinates assigned)
[NH-]C(=O)c1cc2ccc(C(F)(F)F)cc2n1C(=O)NC(=O)OC(=O)C(=O)[O-] (optimized conformer: 73.08060110479197 kcal/mol)

>  <smiles>  (78) 
NC(=O)c1cc2ccc(C(F)(F)F)cc2n1C(=O)NC(=O)OC(=O)C(=O)O

>  <score_type>  (78) 
oracle

>  <origin>  (78) 
adg

>  <m_score__min__energy>  (78) 
-6.6200000000000001

>  <m_primary>  (78) 
energy

$$$$
78:0
     RDKit          3D

 35 36  0  0  0  0  0  0  0  0999 V2000
  145.3100  161.0920  134.0320 C   0  0  0  0  0  0  0  0  0  0  0  0
  146.3060  160.0840  133.5410 C   0  0  0  0  0  0  0  0  0  0  0  0
  147.5140  160.5130  132.9380 C   0  0  0  0  0  0  0  0  0  0  0  0
  148.4670  159.5780  132.4990 C   0  0  0  0  0  0  0  0  0  0  0  0
  148.1930  158.2270  132.6950 C   0  0  0  0  0  0  0  0  0  0  0  0
  148.9260  157.1140  132.3490 C   0  0  0  0  0  0  0  0  0  0  0  0
  148.1680  156.0250  132.7770 C   0  0  0  0  0  0  0  0  0  0  0  0
  148.6070  154.6190  132.6490 C   0  0  0  0  0  0  0  0  0  0  0  0
  147.6670  153.5480  132.7000 N   0  0  0  0  0  0  0  0  0  0  0  0
  149.8330  154.3570  132.5220 O   0  0  0  0  0  0  0  0  0  0  0  0
  147.0160  156.4510  133.3670 N   0  0  0  0  0  0  0  0  0  0  0  0
  145.9390  155.6470  133.8710 C   0  0  0  0  0  0  0  0  0  0  0  0
  145.9300  155.3160  135.0870 O   0  0  0  0  0  0  0  0  0  0  0  0
  144.8430  155.2170  132.9770 C   0  0  0  0  0  0  0  0  0  0  0  0
  143.7140  155.7740  133.0870 O   0  0  0  0  0  0  0  0  0  0  0  0
  145.0290  154.1420  132.0260 N   0  0  0  0  0  0  0  0  0  0  0  0
  144.4780  152.8920  132.5720 C   0  0  0  0  0  0  0  0  0  0  0  0
  144.3940  154.4720  130.7400 C   0  0  0  0  0  0  0  0  0  0  0  0
  147.0440  157.8000  133.3050 C   0  0  0  0  0  0  0  0  0  0  0  0
  146.0680  158.7050  133.7350 C   0  0  0  0  0  0  0  0  0  0  0  0
  145.3051  161.0969  135.1320 H   0  0  0  0  0  0  0  0  0  0  0  0
  145.5860  162.0905  133.6621 H   0  0  0  0  0  0  0  0  0  0  0  0
  144.3083  160.8279  133.6621 H   0  0  0  0  0  0  0  0  0  0  0  0
  147.7080  161.5884  132.8122 H   0  0  0  0  0  0  0  0  0  0  0  0
  149.4001  159.9033  132.0157 H   0  0  0  0  0  0  0  0  0  0  0  0
  149.9022  157.0893  131.8425 H   0  0  0  0  0  0  0  0  0  0  0  0
  147.1470  153.2490  131.8450 H   0  0  0  0  0  0  0  0  0  0  0  0
  146.0490  153.9950  131.8420 H   0  0  0  0  0  0  0  0  0  0  0  0
  144.4959  152.9327  133.6711 H   0  0  0  0  0  0  0  0  0  0  0  0
  143.4412  152.7666  132.2266 H   0  0  0  0  0  0  0  0  0  0  0  0
  145.0849  152.0421  132.2266 H   0  0  0  0  0  0  0  0  0  0  0  0
  143.4317  154.9721  130.9239 H   0  0  0  0  0  0  0  0  0  0  0  0
  145.0520  155.1422  130.1675 H   0  0  0  0  0  0  0  0  0  0  0  0
  144.2237  153.5483  130.1675 H   0  0  0  0  0  0  0  0  0  0  0  0
  145.1409  158.3528  134.2110 H   0  0  0  0  0  0  0  0  0  0  0  0
  1  2  1  0
  2  3  2  0
  3  4  1  0
  4  5  2  0
  5  6  1  0
  6  7  2  0
  7  8  1  0
  8  9  1  0
  8 10  2  0
  7 11  1  0
 11 12  1  0
 12 13  2  0
 12 14  1  0
 14 15  2  0
 14 16  1  0
 16 17  1  0
 16 18  1  0
 11 19  1  0
 19 20  2  0
 20  2  1  0
 19  5  1  0
  1 21  1  0
  1 22  1  0
  1 23  1  0
  3 24  1  0
  4 25  1  0
  6 26  1  0
  9 27  1  0
 16 28  1  0
 17 29  1  0
 17 30  1  0
 17 31  1  0
 18 32  1  0
 18 33  1  0
 18 34  1  0
 20 35  1  0
M  CHG  2   9  -1  16   1
M  END
>  <UniqueID>  (79) 
79

>  <SMILES>  (79) 
Cc1ccc2cc(C([NH-])=O)n(C(=O)C(=O)[NH+](C)C)c2c1

>  <Energy>  (79) 
74.69848415567996

>  <Genealogy>  (79) 
Cc1ccc2cc(C([NH-])=O)n(C(=O)C(=O)[NH+](C)C)c2c1 (protonated)
Cc1ccc2cc(C([NH-])=O)n(C(=O)C(=O)[NH+](C)C)c2c1 (3D coordinates assigned)
Cc1ccc2cc(C([NH-])=O)n(C(=O)C(=O)[NH+](C)C)c2c1 (optimized conformer: 74.69848415567996 kcal/mol)

>  <smiles>  (79) 
Cc1ccc2cc(C(N)=O)n(C(=O)C(=O)N(C)C)c2c1

>  <score_type>  (79) 
oracle

>  <origin>  (79) 
adg

>  <m_score__min__energy>  (79) 
-5.6100000000000003

>  <m_primary>  (79) 
energy

$$$$
79:0
     RDKit          3D

 36 38  0  0  0  0  0  0  0  0999 V2000
  142.3250  157.4390  132.4780 N   0  0  0  0  0  0  0  0  0  0  0  0
  143.1230  156.5190  133.2270 C   0  0  0  0  0  0  0  0  0  0  0  0
  144.0610  156.9610  133.9410 O   0  0  0  0  0  0  0  0  0  0  0  0
  142.8310  155.0690  133.1980 C   0  0  0  0  0  0  0  0  0  0  0  0
  143.8110  154.0780  133.1630 C   0  0  0  0  0  0  0  0  0  0  0  0
  143.1250  152.8900  133.0480 C   0  0  0  0  0  0  0  0  0  0  0  0
  143.6020  151.5860  132.9830 C   0  0  0  0  0  0  0  0  0  0  0  0
  142.6650  150.5440  132.8980 C   0  0  0  0  0  0  0  0  0  0  0  0
  141.2690  150.8200  132.8870 C   0  0  0  0  0  0  0  0  0  0  0  0
  140.2310  149.7150  132.8140 C   0  0  0  0  0  0  0  0  0  0  0  0
  140.5710  148.5740  131.8810 C   0  0  0  0  0  0  0  0  0  0  0  0
  139.5040  148.8770  131.0120 O   0  0  0  0  0  0  0  0  0  0  0  0
  139.1070  149.9550  131.8280 C   0  0  0  0  0  0  0  0  0  0  0  0
  140.8280  152.1610  132.9550 C   0  0  0  0  0  0  0  0  0  0  0  0
  141.7860  153.1790  133.0200 C   0  0  0  0  0  0  0  0  0  0  0  0
  141.5880  154.5140  133.1100 N   0  0  0  0  0  0  0  0  0  0  0  0
  140.3240  155.1900  133.1880 C   0  0  0  0  0  0  0  0  0  0  0  0
  139.2550  154.5520  132.9810 O   0  0  0  0  0  0  0  0  0  0  0  0
  140.2830  156.5510  133.5140 O   0  0  0  0  0  0  0  0  0  0  0  0
  139.1170  157.3600  133.3700 C   0  0  0  0  0  0  0  0  0  0  0  0
  139.2910  158.3710  132.2770 C   0  0  0  0  0  0  0  0  0  0  0  0
  140.4130  158.9210  132.1060 O   0  0  0  0  0  0  0  0  0  0  0  0
  138.2430  158.6740  131.4160 O   0  0  0  0  0  0  0  0  0  0  0  0
  142.5180  158.4630  132.5330 H   0  0  0  0  0  0  0  0  0  0  0  0
  141.5730  157.1070  131.8360 H   0  0  0  0  0  0  0  0  0  0  0  0
  144.9010  154.2161  133.2160 H   0  0  0  0  0  0  0  0  0  0  0  0
  144.6818  151.3767  132.9977 H   0  0  0  0  0  0  0  0  0  0  0  0
  143.0138  149.5024  132.8392 H   0  0  0  0  0  0  0  0  0  0  0  0
  140.0832  149.5976  133.8977 H   0  0  0  0  0  0  0  0  0  0  0  0
  141.5605  148.6725  131.4108 H   0  0  0  0  0  0  0  0  0  0  0  0
  140.6502  147.5566  132.2916 H   0  0  0  0  0  0  0  0  0  0  0  0
  139.1664  150.9312  131.3245 H   0  0  0  0  0  0  0  0  0  0  0  0
  138.0718  149.9897  132.1984 H   0  0  0  0  0  0  0  0  0  0  0  0
  139.7542  152.3995  132.9568 H   0  0  0  0  0  0  0  0  0  0  0  0
  138.2598  156.7144  133.1286 H   0  0  0  0  0  0  0  0  0  0  0  0
  138.9450  157.8951  134.3156 H   0  0  0  0  0  0  0  0  0  0  0  0
  1  2  1  0
  2  3  2  0
  2  4  1  0
  4  5  2  0
  5  6  1  0
  6  7  2  0
  7  8  1  0
  8  9  2  0
  9 10  1  0
 10 11  1  0
 11 12  1  0
 12 13  1  0
  9 14  1  0
 14 15  2  0
 15 16  1  0
 16 17  1  0
 17 18  2  0
 17 19  1  0
 19 20  1  0
 20 21  1  0
 21 22  2  0
 21 23  1  0
 16  4  1  0
 15  6  1  0
 13 10  1  0
  1 24  1  0
  1 25  1  0
  5 26  1  0
  7 27  1  0
  8 28  1  0
 10 29  1  0
 11 30  1  0
 11 31  1  0
 13 32  1  0
 13 33  1  0
 14 34  1  0
 20 35  1  0
 20 36  1  0
M  CHG  1  23  -1
M  END
>  <UniqueID>  (80) 
80

>  <SMILES>  (80) 
NC(=O)c1cc2ccc(C3COC3)cc2n1C(=O)OCC(=O)[O-]

>  <Energy>  (80) 
139.98747893051254

>  <Genealogy>  (80) 
NC(=O)c1cc2ccc(C3COC3)cc2n1C(=O)OCC(=O)[O-] (protonated)
NC(=O)c1cc2ccc(C3COC3)cc2n1C(=O)OCC(=O)[O-] (3D coordinates assigned)
NC(=O)c1cc2ccc(C3COC3)cc2n1C(=O)OCC(=O)[O-] (nonaromatic ring conformer: 139.98747893051254 kcal/mol)

>  <smiles>  (80) 
NC(=O)c1cc2ccc(C3COC3)cc2n1C(=O)OCC(=O)O

>  <score_type>  (80) 
oracle

>  <origin>  (80) 
adg

>  <m_score__min__energy>  (80) 
-7.1399999999999997

>  <m_primary>  (80) 
energy

$$$$
80:0
     RDKit          3D

 39 40  0  0  0  0  0  0  0  0999 V2000
  140.5120  156.3120  133.0920 C   0  0  0  0  0  0  0  0  0  0  0  0
  141.2380  157.5810  132.9960 N   0  0  0  0  0  0  0  0  0  0  0  0
  140.5170  158.8240  132.9320 C   0  0  0  0  0  0  0  0  0  0  0  0
  140.0900  159.2480  131.8220 O   0  0  0  0  0  0  0  0  0  0  0  0
  140.3090  159.5640  134.1060 O   0  0  0  0  0  0  0  0  0  0  0  0
  140.4920  159.0840  135.4090 C   0  0  0  0  0  0  0  0  0  0  0  0
  141.2730  159.6600  136.2130 O   0  0  0  0  0  0  0  0  0  0  0  0
  139.7930  157.8320  135.8310 C   0  0  0  0  0  0  0  0  0  0  0  0
  140.6950  156.7850  135.8430 F   0  0  0  0  0  0  0  0  0  0  0  0
  139.2620  157.9920  137.0980 F   0  0  0  0  0  0  0  0  0  0  0  0
  138.7700  157.5410  134.9480 F   0  0  0  0  0  0  0  0  0  0  0  0
  142.6740  157.5920  132.9080 C   0  0  0  0  0  0  0  0  0  0  0  0
  143.2340  157.0850  131.8980 O   0  0  0  0  0  0  0  0  0  0  0  0
  143.5090  158.1630  133.9840 C   0  0  0  0  0  0  0  0  0  0  0  0
  143.1280  158.1000  135.1830 O   0  0  0  0  0  0  0  0  0  0  0  0
  144.7760  158.7660  133.6790 N   0  0  0  0  0  0  0  0  0  0  0  0
  145.0700  160.0950  133.6210 C   0  0  0  0  0  0  0  0  0  0  0  0
  144.0990  161.1990  133.7730 C   0  0  0  0  0  0  0  0  0  0  0  0
  142.7120  160.9100  133.9220 N   0  0  0  0  0  0  0  0  0  0  0  0
  144.4840  162.3980  133.7870 O   0  0  0  0  0  0  0  0  0  0  0  0
  146.4240  160.2810  133.3470 C   0  0  0  0  0  0  0  0  0  0  0  0
  146.9540  159.0140  133.2460 C   0  0  0  0  0  0  0  0  0  0  0  0
  148.2590  158.6040  132.9930 C   0  0  0  0  0  0  0  0  0  0  0  0
  148.5240  157.2240  132.9690 C   0  0  0  0  0  0  0  0  0  0  0  0
  147.4920  156.2820  133.2210 C   0  0  0  0  0  0  0  0  0  0  0  0
  147.7860  154.8050  133.1540 C   0  0  0  0  0  0  0  0  0  0  0  0
  146.7020  154.1190  132.6350 F   0  0  0  0  0  0  0  0  0  0  0  0
  148.8820  154.5570  132.3450 F   0  0  0  0  0  0  0  0  0  0  0  0
  148.0500  154.3350  134.4270 F   0  0  0  0  0  0  0  0  0  0  0  0
  146.1740  156.7390  133.4540 C   0  0  0  0  0  0  0  0  0  0  0  0
  145.9390  158.1180  133.4550 C   0  0  0  0  0  0  0  0  0  0  0  0
  140.3640  156.0534  134.1509 H   0  0  0  0  0  0  0  0  0  0  0  0
  139.5339  156.4109  132.5986 H   0  0  0  0  0  0  0  0  0  0  0  0
  141.0930  155.5189  132.5986 H   0  0  0  0  0  0  0  0  0  0  0  0
  142.3930  160.0430  134.4090 H   0  0  0  0  0  0  0  0  0  0  0  0
  146.9563  161.2371  133.2352 H   0  0  0  0  0  0  0  0  0  0  0  0
  149.0594  159.3378  132.8170 H   0  0  0  0  0  0  0  0  0  0  0  0
  149.5426  156.8696  132.7525 H   0  0  0  0  0  0  0  0  0  0  0  0
  145.3538  156.0275  133.6301 H   0  0  0  0  0  0  0  0  0  0  0  0
  1  2  1  0
  2  3  1  0
  3  4  2  0
  3  5  1  0
  5  6  1  0
  6  7  2  0
  6  8  1  0
  8  9  1  0
  8 10  1  0
  8 11  1  0
  2 12  1  0
 12 13  2  0
 12 14  1  0
 14 15  2  0
 14 16  1  0
 16 17  1  0
 17 18  1  0
 18 19  1  0
 18 20  2  0
 17 21  2  0
 21 22  1  0
 22 23  2  0
 23 24  1  0
 24 25  2  0
 25 26  1  0
 26 27  1  0
 26 28  1  0
 26 29  1  0
 25 30  1  0
 30 31  2  0
 31 16  1  0
 31 22  1  0
  1 32  1  0
  1 33  1  0
  1 34  1  0
 19 35  1  0
 21 36  1  0
 23 37  1  0
 24 38  1  0
 30 39  1  0
M  CHG  1  19  -1
M  END
>  <UniqueID>  (81) 
81

>  <SMILES>  (81) 
CN(C(=O)OC(=O)C(F)(F)F)C(=O)C(=O)n1c(C([NH-])=O)cc2ccc(C(F)(F)F)cc21

>  <Energy>  (81) 
81.40756046719912

>  <Genealogy>  (81) 
CN(C(=O)OC(=O)C(F)(F)F)C(=O)C(=O)n1c(C([NH-])=O)cc2ccc(C(F)(F)F)cc21 (protonated)
CN(C(=O)OC(=O)C(F)(F)F)C(=O)C(=O)n1c(C([NH-])=O)cc2ccc(C(F)(F)F)cc21 (3D coordinates assigned)
CN(C(=O)OC(=O)C(F)(F)F)C(=O)C(=O)n1c(C([NH-])=O)cc2ccc(C(F)(F)F)cc21 (optimized conformer: 81.40756046719912 kcal/mol)

>  <smiles>  (81) 
CN(C(=O)OC(=O)C(F)(F)F)C(=O)C(=O)n1c(C(N)=O)cc2ccc(C(F)(F)F)cc21

>  <score_type>  (81) 
oracle

>  <origin>  (81) 
adg

>  <m_score__min__energy>  (81) 
-5.9800000000000004

>  <m_primary>  (81) 
energy

$$$$
81:0
     RDKit          3D

 38 39  0  0  0  0  0  0  0  0999 V2000
  148.4720  155.6390  132.9680 C   0  0  0  0  0  0  0  0  0  0  0  0
  148.3570  156.9250  132.2880 N   0  0  0  0  0  0  0  0  0  0  0  0
  147.4100  157.9400  132.6660 C   0  0  0  0  0  0  0  0  0  0  0  0
  147.8340  159.2910  132.7260 C   0  0  0  0  0  0  0  0  0  0  0  0
  146.9430  160.3110  133.0980 C   0  0  0  0  0  0  0  0  0  0  0  0
  145.6320  159.9560  133.3980 C   0  0  0  0  0  0  0  0  0  0  0  0
  144.5730  160.7330  133.8100 C   0  0  0  0  0  0  0  0  0  0  0  0
  143.5100  159.8480  133.9800 C   0  0  0  0  0  0  0  0  0  0  0  0
  142.1490  160.2630  134.3800 C   0  0  0  0  0  0  0  0  0  0  0  0
  141.5310  159.6700  135.5200 N   0  0  0  0  0  0  0  0  0  0  0  0
  141.5310  161.1520  133.7360 O   0  0  0  0  0  0  0  0  0  0  0  0
  143.8970  158.5760  133.6810 N   0  0  0  0  0  0  0  0  0  0  0  0
  143.1140  157.3770  133.7800 C   0  0  0  0  0  0  0  0  0  0  0  0
  143.6850  156.2850  134.0450 O   0  0  0  0  0  0  0  0  0  0  0  0
  141.6530  157.4140  133.5820 C   0  0  0  0  0  0  0  0  0  0  0  0
  140.9020  156.8130  134.3970 O   0  0  0  0  0  0  0  0  0  0  0  0
  141.0840  158.1170  132.4660 N   0  0  0  0  0  0  0  0  0  0  0  0
  139.6360  158.1590  132.2340 C   0  0  1  0  0  0  0  0  0  0  0  0
  138.9010  158.5850  133.5070 C   0  0  0  0  0  0  0  0  0  0  0  0
  139.3230  159.1150  131.1200 C   0  0  0  0  0  0  0  0  0  0  0  0
  140.2480  159.5590  130.3890 O   0  0  0  0  0  0  0  0  0  0  0  0
  138.0080  159.4860  130.8650 O   0  0  0  0  0  0  0  0  0  0  0  0
  145.1980  158.6590  133.3310 C   0  0  0  0  0  0  0  0  0  0  0  0
  146.0670  157.6190  132.9830 C   0  0  0  0  0  0  0  0  0  0  0  0
  148.4578  155.7972  134.0565 H   0  0  0  0  0  0  0  0  0  0  0  0
  147.6278  154.9952  132.6801 H   0  0  0  0  0  0  0  0  0  0  0  0
  149.4170  155.1552  132.6801 H   0  0  0  0  0  0  0  0  0  0  0  0
  148.9950  157.1050  131.4810 H   0  0  0  0  0  0  0  0  0  0  0  0
  148.8753  159.5442  132.4778 H   0  0  0  0  0  0  0  0  0  0  0  0
  147.2721  161.3593  133.1505 H   0  0  0  0  0  0  0  0  0  0  0  0
  144.5671  161.8212  133.9708 H   0  0  0  0  0  0  0  0  0  0  0  0
  141.2160  158.6740  135.5020 H   0  0  0  0  0  0  0  0  0  0  0  0
  141.7220  158.6190  131.8080 H   0  0  0  0  0  0  0  0  0  0  0  0
  139.2970  157.1511  131.9524 H   0  0  0  0  0  0  0  0  0  0  0  0
  139.4713  158.2545  134.3877 H   0  0  0  0  0  0  0  0  0  0  0  0
  138.8021  159.6804  133.5242 H   0  0  0  0  0  0  0  0  0  0  0  0
  137.9014  158.1263  133.5242 H   0  0  0  0  0  0  0  0  0  0  0  0
  145.7158  156.5769  132.9562 H   0  0  0  0  0  0  0  0  0  0  0  0
  1  2  1  0
  2  3  1  0
  3  4  2  0
  4  5  1  0
  5  6  2  0
  6  7  1  0
  7  8  2  0
  8  9  1  0
  9 10  1  0
  9 11  2  0
  8 12  1  0
 12 13  1  0
 13 14  2  0
 13 15  1  0
 15 16  2  0
 15 17  1  0
 17 18  1  0
 18 19  1  0
 18 20  1  0
 20 21  2  0
 20 22  1  0
 12 23  1  0
 23 24  2  0
 24  3  1  0
 23  6  1  0
  1 25  1  0
  1 26  1  0
  1 27  1  0
  2 28  1  0
  4 29  1  0
  5 30  1  0
  7 31  1  0
 10 32  1  0
 17 33  1  0
 18 34  1  6
 19 35  1  0
 19 36  1  0
 19 37  1  0
 24 38  1  0
M  CHG  2  10  -1  22  -1
M  END
>  <UniqueID>  (82) 
82

>  <SMILES>  (82) 
CNc1ccc2cc(C([NH-])=O)n(C(=O)C(=O)N[C@@H](C)C(=O)[O-])c2c1

>  <Energy>  (82) 
71.33867558490701

>  <Genealogy>  (82) 
CNc1ccc2cc(C([NH-])=O)n(C(=O)C(=O)NC(C)C(=O)[O-])c2c1 (protonated)
CNc1ccc2cc(C([NH-])=O)n(C(=O)C(=O)N[C@@H](C)C(=O)[O-])c2c1 (chirality)
CNc1ccc2cc(C([NH-])=O)n(C(=O)C(=O)N[C@@H](C)C(=O)[O-])c2c1 (3D coordinates assigned)
CNc1ccc2cc(C([NH-])=O)n(C(=O)C(=O)N[C@@H](C)C(=O)[O-])c2c1 (optimized conformer: 71.33867558490701 kcal/mol)

>  <smiles>  (82) 
CNc1ccc2cc(C(N)=O)n(C(=O)C(=O)NC(C)C(=O)O)c2c1

>  <score_type>  (82) 
oracle

>  <origin>  (82) 
adg

>  <m_score__min__energy>  (82) 
-7.2999999999999998

>  <m_primary>  (82) 
energy

$$$$
82:0
     RDKit          3D

 55 57  0  0  0  0  0  0  0  0999 V2000
  139.7950  158.8080  131.9050 C   0  0  0  0  0  0  0  0  0  0  0  0
  139.3100  158.1080  133.1060 N   0  0  0  0  0  0  0  0  0  0  0  0
  139.9280  158.6820  134.3240 C   0  0  0  0  0  0  0  0  0  0  0  0
  139.8860  157.6890  135.4950 C   0  0  0  0  0  0  0  0  0  0  0  0
  140.6360  156.4400  135.1960 N   0  0  0  0  0  0  0  0  0  0  0  0
  141.9800  156.4430  135.8110 C   0  0  0  0  0  0  0  0  0  0  0  0
  143.0330  155.9240  134.8240 C   0  0  0  0  0  0  0  0  0  0  0  0
  144.1930  155.3970  135.5410 N   0  0  0  0  0  0  0  0  0  0  0  0
  145.2340  154.5820  134.9850 C   0  0  0  0  0  0  0  0  0  0  0  0
  145.7530  153.6900  135.7070 O   0  0  0  0  0  0  0  0  0  0  0  0
  145.7270  154.7570  133.6060 C   0  0  0  0  0  0  0  0  0  0  0  0
  145.1310  154.1980  132.6470 O   0  0  0  0  0  0  0  0  0  0  0  0
  146.9110  155.5310  133.3510 N   0  0  0  0  0  0  0  0  0  0  0  0
  148.1400  155.0680  132.9910 C   0  0  0  0  0  0  0  0  0  0  0  0
  148.5530  153.6490  132.9600 C   0  0  0  0  0  0  0  0  0  0  0  0
  147.7020  152.6150  133.4580 N   0  0  0  0  0  0  0  0  0  0  0  0
  149.6980  153.3490  132.5280 O   0  0  0  0  0  0  0  0  0  0  0  0
  148.9800  156.1230  132.6440 C   0  0  0  0  0  0  0  0  0  0  0  0
  148.2190  157.2600  132.8000 C   0  0  0  0  0  0  0  0  0  0  0  0
  148.5330  158.5900  132.5440 C   0  0  0  0  0  0  0  0  0  0  0  0
  147.5220  159.5510  132.7160 C   0  0  0  0  0  0  0  0  0  0  0  0
  146.2200  159.1720  133.1280 C   0  0  0  0  0  0  0  0  0  0  0  0
  145.2000  160.1810  133.2540 N   0  0  0  0  0  0  0  0  0  0  0  0
  143.8460  159.8930  133.7350 C   0  0  0  0  0  0  0  0  0  0  0  0
  143.0000  161.1290  133.7320 C   0  0  0  0  0  0  0  0  0  0  0  0
  141.7630  161.0530  133.9580 O   0  0  0  0  0  0  0  0  0  0  0  0
  143.5830  162.3710  133.5150 O   0  0  0  0  0  0  0  0  0  0  0  0
  145.9460  157.8080  133.3910 C   0  0  0  0  0  0  0  0  0  0  0  0
  146.9750  156.8750  133.2240 C   0  0  0  0  0  0  0  0  0  0  0  0
  140.7270  156.1440  133.7460 C   0  0  0  0  0  0  0  0  0  0  0  0
  139.4870  156.6390  132.9880 C   0  0  0  0  0  0  0  0  0  0  0  0
  140.3976  159.6777  132.2058 H   0  0  0  0  0  0  0  0  0  0  0  0
  140.4131  158.1231  131.3060 H   0  0  0  0  0  0  0  0  0  0  0  0
  138.9366  159.1461  131.3060 H   0  0  0  0  0  0  0  0  0  0  0  0
  140.9761  158.9362  134.1077 H   0  0  0  0  0  0  0  0  0  0  0  0
  139.3598  159.5793  134.6105 H   0  0  0  0  0  0  0  0  0  0  0  0
  140.3303  158.1662  136.3809 H   0  0  0  0  0  0  0  0  0  0  0  0
  138.8346  157.4187  135.6726 H   0  0  0  0  0  0  0  0  0  0  0  0
  142.2387  157.4704  136.1068 H   0  0  0  0  0  0  0  0  0  0  0  0
  141.9662  155.7826  136.6906 H   0  0  0  0  0  0  0  0  0  0  0  0
  142.5917  155.1236  134.2120 H   0  0  0  0  0  0  0  0  0  0  0  0
  143.3596  156.7561  134.1830 H   0  0  0  0  0  0  0  0  0  0  0  0
  147.9930  151.6150  133.3810 H   0  0  0  0  0  0  0  0  0  0  0  0
  146.8360  152.8380  133.9960 H   0  0  0  0  0  0  0  0  0  0  0  0
  150.0279  156.0613  132.3154 H   0  0  0  0  0  0  0  0  0  0  0  0
  149.5420  158.8812  132.2168 H   0  0  0  0  0  0  0  0  0  0  0  0
  147.7443  160.6118  132.5283 H   0  0  0  0  0  0  0  0  0  0  0  0
  145.4370  161.1580  132.9620 H   0  0  0  0  0  0  0  0  0  0  0  0
  143.3843  159.1397  133.0797 H   0  0  0  0  0  0  0  0  0  0  0  0
  143.9135  159.5176  134.7667 H   0  0  0  0  0  0  0  0  0  0  0  0
  144.9459  157.4889  133.7195 H   0  0  0  0  0  0  0  0  0  0  0  0
  141.6182  156.6414  133.3356 H   0  0  0  0  0  0  0  0  0  0  0  0
  140.7929  155.0531  133.6215 H   0  0  0  0  0  0  0  0  0  0  0  0
  139.5941  156.3789  131.9246 H   0  0  0  0  0  0  0  0  0  0  0  0
  138.6039  156.1548  133.4303 H   0  0  0  0  0  0  0  0  0  0  0  0
  1  2  1  0
  2  3  1  0
  3  4  1  0
  4  5  1  0
  5  6  1  0
  6  7  1  0
  7  8  1  0
  8  9  1  0
  9 10  2  0
  9 11  1  0
 11 12  2  0
 11 13  1  0
 13 14  1  0
 14 15  1  0
 15 16  1  0
 15 17  2  0
 14 18  2  0
 18 19  1  0
 19 20  2  0
 20 21  1  0
 21 22  2  0
 22 23  1  0
 23 24  1  0
 24 25  1  0
 25 26  2  0
 25 27  1  0
 22 28  1  0
 28 29  2  0
  5 30  1  0
 30 31  1  0
 31  2  1  0
 29 13  1  0
 29 19  1  0
  1 32  1  0
  1 33  1  0
  1 34  1  0
  3 35  1  0
  3 36  1  0
  4 37  1  0
  4 38  1  0
  6 39  1  0
  6 40  1  0
  7 41  1  0
  7 42  1  0
 16 43  1  0
 16 44  1  0
 18 45  1  0
 20 46  1  0
 21 47  1  0
 23 48  1  0
 24 49  1  0
 24 50  1  0
 28 51  1  0
 30 52  1  0
 30 53  1  0
 31 54  1  0
 31 55  1  0
M  CHG  2   8  -1  27  -1
M  END
>  <UniqueID>  (83) 
83

>  <SMILES>  (83) 
CN1CCN(CC[N-]C(=O)C(=O)n2c(C(N)=O)cc3ccc(NCC(=O)[O-])cc32)CC1

>  <Energy>  (83) 
104.71242172890427

>  <Genealogy>  (83) 
CN1CCN(CC[N-]C(=O)C(=O)n2c(C(N)=O)cc3ccc(NCC(=O)[O-])cc32)CC1 (protonated)
CN1CCN(CC[N-]C(=O)C(=O)n2c(C(N)=O)cc3ccc(NCC(=O)[O-])cc32)CC1 (3D coordinates assigned)
CN1CCN(CC[N-]C(=O)C(=O)n2c(C(N)=O)cc3ccc(NCC(=O)[O-])cc32)CC1 (nonaromatic ring conformer: 104.71242172890427 kcal/mol)

>  <smiles>  (83) 
CN1CCN(CCNC(=O)C(=O)n2c(C(N)=O)cc3ccc(NCC(=O)O)cc32)CC1

>  <score_type>  (83) 
oracle

>  <origin>  (83) 
adg

>  <m_score__min__energy>  (83) 
-8.2400000000000002

>  <m_primary>  (83) 
energy

$$$$
83:0
     RDKit          3D

 59 63  0  0  0  0  0  0  0  0999 V2000
  137.6500  149.2040  130.5450 C   0  0  0  0  0  0  0  0  0  0  0  0
  138.4910  148.2720  131.3170 N   0  0  0  0  0  0  0  0  0  0  0  0
  139.4900  147.6280  130.4450 C   0  0  0  0  0  0  0  0  0  0  0  0
  140.7700  148.4590  130.4750 C   0  0  0  0  0  0  0  0  0  0  0  0
  140.6040  149.3550  131.6990 C   0  0  0  0  0  0  0  0  0  0  0  0
  139.2630  148.9920  132.3380 C   0  0  0  0  0  0  0  0  0  0  0  0
  141.7770  149.4680  132.6330 C   0  0  0  0  0  0  0  0  0  0  0  0
  142.0100  150.9100  132.4150 N   0  0  0  0  0  0  0  0  0  0  0  0
  142.9140  151.9130  132.8800 C   0  0  0  0  0  0  0  0  0  0  0  0
  144.2890  151.7860  132.6440 C   0  0  0  0  0  0  0  0  0  0  0  0
  145.1730  152.7680  133.1000 C   0  0  0  0  0  0  0  0  0  0  0  0
  144.6940  153.8950  133.7840 C   0  0  0  0  0  0  0  0  0  0  0  0
  145.6270  154.8790  134.2630 N   0  0  0  0  0  0  0  0  0  0  0  0
  146.6380  155.4870  133.4420 C   0  0  0  0  0  0  0  0  0  0  0  0
  146.9680  154.9580  132.3450 O   0  0  0  0  0  0  0  0  0  0  0  0
  147.3310  156.7090  133.8900 C   0  0  0  0  0  0  0  0  0  0  0  0
  148.3900  156.6180  134.5680 O   0  0  0  0  0  0  0  0  0  0  0  0
  146.8310  158.0060  133.5310 N   0  0  0  0  0  0  0  0  0  0  0  0
  147.5170  159.0530  132.9920 C   0  0  0  0  0  0  0  0  0  0  0  0
  148.9230  159.0250  132.5350 C   0  0  0  0  0  0  0  0  0  0  0  0
  149.5770  157.7930  132.2460 N   0  0  0  0  0  0  0  0  0  0  0  0
  149.5440  160.1080  132.3630 O   0  0  0  0  0  0  0  0  0  0  0  0
  146.6830  160.1620  132.8560 C   0  0  0  0  0  0  0  0  0  0  0  0
  145.4530  159.7530  133.3220 C   0  0  0  0  0  0  0  0  0  0  0  0
  144.2510  160.4470  133.4120 C   0  0  0  0  0  0  0  0  0  0  0  0
  143.1390  159.7730  133.9440 C   0  0  0  0  0  0  0  0  0  0  0  0
  143.2500  158.4310  134.3950 C   0  0  0  0  0  0  0  0  0  0  0  0
  142.0390  157.7070  134.9240 C   0  0  0  0  0  0  0  0  0  0  0  0
  141.2500  157.3050  133.8620 F   0  0  0  0  0  0  0  0  0  0  0  0
  142.4140  156.5930  135.6540 F   0  0  0  0  0  0  0  0  0  0  0  0
  141.2970  158.5350  135.7490 F   0  0  0  0  0  0  0  0  0  0  0  0
  144.4850  157.7530  134.2640 C   0  0  0  0  0  0  0  0  0  0  0  0
  145.5710  158.4480  133.7210 C   0  0  0  0  0  0  0  0  0  0  0  0
  143.3150  154.0070  134.0380 C   0  0  0  0  0  0  0  0  0  0  0  0
  142.4320  153.0240  133.5820 C   0  0  0  0  0  0  0  0  0  0  0  0
  140.8640  150.8240  131.4880 C   0  0  0  0  0  0  0  0  0  0  0  0
  137.0768  149.8392  131.2363 H   0  0  0  0  0  0  0  0  0  0  0  0
  138.2895  149.8359  129.9112 H   0  0  0  0  0  0  0  0  0  0  0  0
  136.9559  148.6325  129.9112 H   0  0  0  0  0  0  0  0  0  0  0  0
  139.6995  146.6114  130.8092 H   0  0  0  0  0  0  0  0  0  0  0  0
  139.1063  147.5656  129.4160 H   0  0  0  0  0  0  0  0  0  0  0  0
  141.6531  147.8119  130.5817 H   0  0  0  0  0  0  0  0  0  0  0  0
  140.9221  149.0332  129.5492 H   0  0  0  0  0  0  0  0  0  0  0  0
  139.4230  148.3490  133.2160 H   0  0  0  0  0  0  0  0  0  0  0  0
  138.7291  149.8922  132.6765 H   0  0  0  0  0  0  0  0  0  0  0  0
  141.5146  149.2328  133.6750 H   0  0  0  0  0  0  0  0  0  0  0  0
  142.6255  148.7905  132.4570 H   0  0  0  0  0  0  0  0  0  0  0  0
  144.6738  150.9116  132.0987 H   0  0  0  0  0  0  0  0  0  0  0  0
  146.2526  152.6561  132.9211 H   0  0  0  0  0  0  0  0  0  0  0  0
  145.6110  155.1130  135.2810 H   0  0  0  0  0  0  0  0  0  0  0  0
  149.8190  157.1210  133.0070 H   0  0  0  0  0  0  0  0  0  0  0  0
  146.9504  161.1530  132.4606 H   0  0  0  0  0  0  0  0  0  0  0  0
  144.1734  161.4918  133.0768 H   0  0  0  0  0  0  0  0  0  0  0  0
  142.1709  160.2909  134.0120 H   0  0  0  0  0  0  0  0  0  0  0  0
  144.5887  156.7049  134.5814 H   0  0  0  0  0  0  0  0  0  0  0  0
  142.9298  154.8719  134.5979 H   0  0  0  0  0  0  0  0  0  0  0  0
  141.3538  153.1239  133.7756 H   0  0  0  0  0  0  0  0  0  0  0  0
  140.0177  151.4546  131.7982 H   0  0  0  0  0  0  0  0  0  0  0  0
  141.0272  151.1623  130.4541 H   0  0  0  0  0  0  0  0  0  0  0  0
  1  2  1  0
  2  3  1  0
  3  4  1  0
  4  5  1  0
  5  6  1  0
  5  7  1  0
  7  8  1  0
  8  9  1  0
  9 10  2  0
 10 11  1  0
 11 12  2  0
 12 13  1  0
 13 14  1  0
 14 15  2  0
 14 16  1  0
 16 17  2  0
 16 18  1  0
 18 19  1  0
 19 20  1  0
 20 21  1  0
 20 22  2  0
 19 23  2  0
 23 24  1  0
 24 25  2  0
 25 26  1  0
 26 27  2  0
 27 28  1  0
 28 29  1  0
 28 30  1  0
 28 31  1  0
 27 32  1  0
 32 33  2  0
 12 34  1  0
 34 35  2  0
  8 36  1  0
  6  2  1  0
 35  9  1  0
 36  5  1  0
 33 18  1  0
 33 24  1  0
  1 37  1  0
  1 38  1  0
  1 39  1  0
  3 40  1  0
  3 41  1  0
  4 42  1  0
  4 43  1  0
  6 44  1  0
  6 45  1  0
  7 46  1  0
  7 47  1  0
 10 48  1  0
 11 49  1  0
 13 50  1  0
 21 51  1  0
 23 52  1  0
 25 53  1  0
 26 54  1  0
 32 55  1  0
 34 56  1  0
 35 57  1  0
 36 58  1  0
 36 59  1  0
M  CHG  1  21  -1
M  END
>  <UniqueID>  (84) 
84

>  <SMILES>  (84) 
CN1CCC2(C1)CN(c1ccc(NC(=O)C(=O)n3c(C([NH-])=O)cc4ccc(C(F)(F)F)cc43)cc1)C2

>  <Energy>  (84) 
159.31230314064268

>  <Genealogy>  (84) 
CN1CCC2(C1)CN(c1ccc(NC(=O)C(=O)n3c(C([NH-])=O)cc4ccc(C(F)(F)F)cc43)cc1)C2 (protonated)
CN1CCC2(C1)CN(c1ccc(NC(=O)C(=O)n3c(C([NH-])=O)cc4ccc(C(F)(F)F)cc43)cc1)C2 (3D coordinates assigned)
CN1CCC2(C1)CN(c1ccc(NC(=O)C(=O)n3c(C([NH-])=O)cc4ccc(C(F)(F)F)cc43)cc1)C2 (nonaromatic ring conformer: 159.31230314064268 kcal/mol)

>  <smiles>  (84) 
CN1CCC2(C1)CN(c1ccc(NC(=O)C(=O)n3c(C(N)=O)cc4ccc(C(F)(F)F)cc43)cc1)C2

>  <score_type>  (84) 
oracle

>  <origin>  (84) 
adg

>  <m_score__min__energy>  (84) 
-9.7699999999999996

>  <m_primary>  (84) 
energy

$$$$
84:0
     RDKit          3D

 43 44  0  0  0  0  0  0  0  0999 V2000
  140.4710  159.2080  131.9370 C   0  0  0  0  0  0  0  0  0  0  0  0
  141.0070  158.7180  133.2270 N   0  0  2  0  0  0  0  0  0  0  0  0
  142.3050  158.0970  133.0030 C   0  0  0  0  0  0  0  0  0  0  0  0
  142.5340  157.4770  131.9270 O   0  0  0  0  0  0  0  0  0  0  0  0
  143.3890  158.1870  134.0090 C   0  0  0  0  0  0  0  0  0  0  0  0
  143.2370  157.6820  135.1530 O   0  0  0  0  0  0  0  0  0  0  0  0
  144.6150  158.8670  133.7000 N   0  0  0  0  0  0  0  0  0  0  0  0
  144.8250  160.2130  133.6340 C   0  0  0  0  0  0  0  0  0  0  0  0
  143.7840  161.2570  133.7400 C   0  0  0  0  0  0  0  0  0  0  0  0
  142.4050  160.9130  133.8480 N   0  0  0  0  0  0  0  0  0  0  0  0
  144.1130  162.4720  133.7050 O   0  0  0  0  0  0  0  0  0  0  0  0
  146.1710  160.4850  133.3950 C   0  0  0  0  0  0  0  0  0  0  0  0
  146.7850  159.2550  133.3190 C   0  0  0  0  0  0  0  0  0  0  0  0
  148.1190  158.9290  133.1010 C   0  0  0  0  0  0  0  0  0  0  0  0
  148.4740  157.5700  133.0950 C   0  0  0  0  0  0  0  0  0  0  0  0
  147.5000  156.5640  133.3300 C   0  0  0  0  0  0  0  0  0  0  0  0
  147.8830  155.1070  133.2770 C   0  0  0  0  0  0  0  0  0  0  0  0
  149.0730  154.9750  132.5860 F   0  0  0  0  0  0  0  0  0  0  0  0
  146.9040  154.3680  132.6350 F   0  0  0  0  0  0  0  0  0  0  0  0
  148.0430  154.5970  134.5540 F   0  0  0  0  0  0  0  0  0  0  0  0
  146.1500  156.9370  133.5250 C   0  0  0  0  0  0  0  0  0  0  0  0
  145.8250  158.2960  133.5100 C   0  0  0  0  0  0  0  0  0  0  0  0
  140.0670  157.8320  134.0020 C   0  0  0  0  0  0  0  0  0  0  0  0
  140.5180  156.3420  134.0170 C   0  0  0  0  0  0  0  0  0  0  0  0
  138.6390  157.8780  133.3990 C   0  0  0  0  0  0  0  0  0  0  0  0
  139.9450  158.3500  135.4310 C   0  0  0  0  0  0  0  0  0  0  0  0
  140.5530  159.3870  135.8080 O   0  0  0  0  0  0  0  0  0  0  0  0
  139.1360  157.6780  136.3430 O   0  0  0  0  0  0  0  0  0  0  0  0
  139.6712  159.9391  132.1262 H   0  0  0  0  0  0  0  0  0  0  0  0
  141.2777  159.6874  131.3631 H   0  0  0  0  0  0  0  0  0  0  0  0
  140.0658  158.3616  131.3631 H   0  0  0  0  0  0  0  0  0  0  0  0
  141.1600  159.5850  133.7950 H   0  0  0  0  0  0  0  0  0  0  0  0
  142.0910  160.1420  134.4780 H   0  0  0  0  0  0  0  0  0  0  0  0
  146.6428  161.4731  133.2895 H   0  0  0  0  0  0  0  0  0  0  0  0
  148.8740  159.7122  132.9380 H   0  0  0  0  0  0  0  0  0  0  0  0
  149.5186  157.2818  132.9061 H   0  0  0  0  0  0  0  0  0  0  0  0
  145.3733  156.1747  133.6849 H   0  0  0  0  0  0  0  0  0  0  0  0
  140.6213  156.0006  135.0576 H   0  0  0  0  0  0  0  0  0  0  0  0
  139.7660  155.7261  133.5020 H   0  0  0  0  0  0  0  0  0  0  0  0
  141.4853  156.2465  133.5020 H   0  0  0  0  0  0  0  0  0  0  0  0
  137.8983  157.9019  134.2119 H   0  0  0  0  0  0  0  0  0  0  0  0
  138.5318  158.7801  132.7787 H   0  0  0  0  0  0  0  0  0  0  0  0
  138.4740  156.9847  132.7787 H   0  0  0  0  0  0  0  0  0  0  0  0
  1  2  1  0
  2  3  1  0
  3  4  2  0
  3  5  1  0
  5  6  2  0
  5  7  1  0
  7  8  1  0
  8  9  1  0
  9 10  1  0
  9 11  2  0
  8 12  2  0
 12 13  1  0
 13 14  2  0
 14 15  1  0
 15 16  2  0
 16 17  1  0
 17 18  1  0
 17 19  1  0
 17 20  1  0
 16 21  1  0
 21 22  2  0
  2 23  1  0
 23 24  1  0
 23 25  1  0
 23 26  1  0
 26 27  2  0
 26 28  1  0
 22  7  1  0
 22 13  1  0
  1 29  1  0
  1 30  1  0
  1 31  1  0
  2 32  1  1
 10 33  1  0
 12 34  1  0
 14 35  1  0
 15 36  1  0
 21 37  1  0
 24 38  1  0
 24 39  1  0
 24 40  1  0
 25 41  1  0
 25 42  1  0
 25 43  1  0
M  CHG  3   2   1  10  -1  28  -1
M  END
>  <UniqueID>  (85) 
85

>  <SMILES>  (85) 
C[N@H+](C(=O)C(=O)n1c(C([NH-])=O)cc2ccc(C(F)(F)F)cc21)C(C)(C)C(=O)[O-]

>  <Energy>  (85) 
92.82997919072706

>  <Genealogy>  (85) 
C[NH+](C(=O)C(=O)n1c(C([NH-])=O)cc2ccc(C(F)(F)F)cc21)C(C)(C)C(=O)[O-] (protonated)
C[N@H+](C(=O)C(=O)n1c(C([NH-])=O)cc2ccc(C(F)(F)F)cc21)C(C)(C)C(=O)[O-] (chirality)
C[N@H+](C(=O)C(=O)n1c(C([NH-])=O)cc2ccc(C(F)(F)F)cc21)C(C)(C)C(=O)[O-] (3D coordinates assigned)
C[N@H+](C(=O)C(=O)n1c(C([NH-])=O)cc2ccc(C(F)(F)F)cc21)C(C)(C)C(=O)[O-] (optimized conformer: 92.82997919072706 kcal/mol)

>  <smiles>  (85) 
CN(C(=O)C(=O)n1c(C(N)=O)cc2ccc(C(F)(F)F)cc21)C(C)(C)C(=O)O

>  <score_type>  (85) 
oracle

>  <origin>  (85) 
adg

>  <m_score__min__energy>  (85) 
-5.9900000000000002

>  <m_primary>  (85) 
energy

$$$$
85:0
     RDKit          3D

 44 45  0  0  0  0  0  0  0  0999 V2000
  139.0000  157.8590  133.8440 C   0  0  0  0  0  0  0  0  0  0  0  0
  139.3400  158.2110  135.1790 O   0  0  0  0  0  0  0  0  0  0  0  0
  140.6330  158.0700  135.6880 C   0  0  0  0  0  0  0  0  0  0  0  0
  140.9660  158.6290  136.7690 O   0  0  0  0  0  0  0  0  0  0  0  0
  141.6470  157.2910  134.9140 C   0  0  0  0  0  0  0  0  0  0  0  0
  142.7540  158.1990  134.4560 C   0  0  0  0  0  0  0  0  0  0  0  0
  142.5490  159.6010  134.4070 C   0  0  0  0  0  0  0  0  0  0  0  0
  143.5910  160.4630  134.0270 C   0  0  0  0  0  0  0  0  0  0  0  0
  144.8200  159.8970  133.7010 C   0  0  0  0  0  0  0  0  0  0  0  0
  146.0020  160.5010  133.3380 C   0  0  0  0  0  0  0  0  0  0  0  0
  146.9050  159.4570  133.1520 C   0  0  0  0  0  0  0  0  0  0  0  0
  148.2940  159.6550  132.6910 C   0  0  0  0  0  0  0  0  0  0  0  0
  149.3880  158.9970  133.3320 N   0  0  0  0  0  0  0  0  0  0  0  0
  148.5140  160.3740  131.6790 O   0  0  0  0  0  0  0  0  0  0  0  0
  146.3120  158.2570  133.4030 N   0  0  0  0  0  0  0  0  0  0  0  0
  146.9330  156.9610  133.4280 C   0  0  0  0  0  0  0  0  0  0  0  0
  147.9520  156.7710  134.1450 O   0  0  0  0  0  0  0  0  0  0  0  0
  146.3930  155.9230  132.6540 O   0  0  0  0  0  0  0  0  0  0  0  0
  146.0490  154.6080  133.1140 C   0  0  0  0  0  0  0  0  0  0  0  0
  147.3090  153.7390  132.9810 C   0  0  0  0  0  0  0  0  0  0  0  0
  145.6220  154.6460  134.5940 C   0  0  0  0  0  0  0  0  0  0  0  0
  144.9330  154.0030  132.2400 C   0  0  0  0  0  0  0  0  0  0  0  0
  145.0330  158.5420  133.7360 C   0  0  0  0  0  0  0  0  0  0  0  0
  144.0190  157.6620  134.1330 C   0  0  0  0  0  0  0  0  0  0  0  0
  138.2358  157.0678  133.8567 H   0  0  0  0  0  0  0  0  0  0  0  0
  138.6046  158.7424  133.3213 H   0  0  0  0  0  0  0  0  0  0  0  0
  139.8966  157.4944  133.3213 H   0  0  0  0  0  0  0  0  0  0  0  0
  142.0657  156.5009  135.5546 H   0  0  0  0  0  0  0  0  0  0  0  0
  141.1623  156.8413  134.0349 H   0  0  0  0  0  0  0  0  0  0  0  0
  141.5652  160.0175  134.6689 H   0  0  0  0  0  0  0  0  0  0  0  0
  143.4403  161.5519  133.9883 H   0  0  0  0  0  0  0  0  0  0  0  0
  146.1928  161.5779  133.2200 H   0  0  0  0  0  0  0  0  0  0  0  0
  149.2270  158.2610  134.0540 H   0  0  0  0  0  0  0  0  0  0  0  0
  150.3670  159.1860  133.0220 H   0  0  0  0  0  0  0  0  0  0  0  0
  147.6836  153.4806  133.9825 H   0  0  0  0  0  0  0  0  0  0  0  0
  147.0628  152.8177  132.4327 H   0  0  0  0  0  0  0  0  0  0  0  0
  148.0827  154.2964  132.4327 H   0  0  0  0  0  0  0  0  0  0  0  0
  146.5126  154.5667  135.2347 H   0  0  0  0  0  0  0  0  0  0  0  0
  145.1039  155.5938  134.8019 H   0  0  0  0  0  0  0  0  0  0  0  0
  144.9447  153.8046  134.8019 H   0  0  0  0  0  0  0  0  0  0  0  0
  144.1505  153.5788  132.8863 H   0  0  0  0  0  0  0  0  0  0  0  0
  144.4980  154.7888  131.6050 H   0  0  0  0  0  0  0  0  0  0  0  0
  145.3541  153.2096  131.6050 H   0  0  0  0  0  0  0  0  0  0  0  0
  144.2034  156.5792  134.1918 H   0  0  0  0  0  0  0  0  0  0  0  0
  1  2  1  0
  2  3  1  0
  3  4  2  0
  3  5  1  0
  5  6  1  0
  6  7  2  0
  7  8  1  0
  8  9  2  0
  9 10  1  0
 10 11  2  0
 11 12  1  0
 12 13  1  0
 12 14  2  0
 11 15  1  0
 15 16  1  0
 16 17  2  0
 16 18  1  0
 18 19  1  0
 19 20  1  0
 19 21  1  0
 19 22  1  0
 15 23  1  0
 23 24  2  0
 24  6  1  0
 23  9  1  0
  1 25  1  0
  1 26  1  0
  1 27  1  0
  5 28  1  0
  5 29  1  0
  7 30  1  0
  8 31  1  0
 10 32  1  0
 13 33  1  0
 13 34  1  0
 20 35  1  0
 20 36  1  0
 20 37  1  0
 21 38  1  0
 21 39  1  0
 21 40  1  0
 22 41  1  0
 22 42  1  0
 22 43  1  0
 24 44  1  0
M  END
>  <UniqueID>  (86) 
86

>  <SMILES>  (86) 
COC(=O)Cc1ccc2cc(C(N)=O)n(C(=O)OC(C)(C)C)c2c1

>  <Energy>  (86) 
73.68944504430972

>  <Genealogy>  (86) 
COC(=O)Cc1ccc2cc(C(N)=O)n(C(=O)OC(C)(C)C)c2c1 (3D coordinates assigned)
COC(=O)Cc1ccc2cc(C(N)=O)n(C(=O)OC(C)(C)C)c2c1 (optimized conformer: 73.68944504430972 kcal/mol)

>  <smiles>  (86) 
COC(=O)Cc1ccc2cc(C(N)=O)n(C(=O)OC(C)(C)C)c2c1

>  <score_type>  (86) 
oracle

>  <origin>  (86) 
adg

>  <m_score__min__energy>  (86) 
-7.1799999999999997

>  <m_primary>  (86) 
energy

$$$$
86:0
     RDKit          3D

 27 28  0  0  0  0  0  0  0  0999 V2000
  149.2710  160.6700  129.6750 N   0  0  0  0  0  0  0  0  0  0  0  0
  148.7420  160.6510  130.9980 C   0  0  0  0  0  0  0  0  0  0  0  0
  148.4820  161.7410  131.5750 O   0  0  0  0  0  0  0  0  0  0  0  0
  148.4420  159.3730  131.6780 C   0  0  0  0  0  0  0  0  0  0  0  0
  149.1970  158.2160  131.5000 C   0  0  0  0  0  0  0  0  0  0  0  0
  148.6590  157.2930  132.3670 C   0  0  0  0  0  0  0  0  0  0  0  0
  149.0210  155.9700  132.6010 C   0  0  0  0  0  0  0  0  0  0  0  0
  148.2730  155.2390  133.5390 C   0  0  0  0  0  0  0  0  0  0  0  0
  147.1750  155.8340  134.2080 C   0  0  0  0  0  0  0  0  0  0  0  0
  146.3960  155.0490  135.2250 C   0  0  0  0  0  0  0  0  0  0  0  0
  147.5100  153.9700  136.1750 P   0  0  0  0  0  0  0  0  0  0  0  0
  148.4540  154.8130  137.0020 O   0  0  0  0  0  0  0  0  0  0  0  0
  148.4030  153.0110  135.1080 O   0  0  0  0  0  0  0  0  0  0  0  0
  146.6030  152.9750  137.1980 O   0  0  0  0  0  0  0  0  0  0  0  0
  146.8420  157.1830  133.9500 C   0  0  0  0  0  0  0  0  0  0  0  0
  147.6170  157.8930  133.0250 C   0  0  0  0  0  0  0  0  0  0  0  0
  147.4690  159.1720  132.6100 N   0  0  0  0  0  0  0  0  0  0  0  0
  146.4310  160.0820  133.0080 C   0  0  0  0  0  0  0  0  0  0  0  0
  146.7000  161.0840  133.7220 O   0  0  0  0  0  0  0  0  0  0  0  0
  145.1120  159.8500  132.6320 O   0  0  0  0  0  0  0  0  0  0  0  0
  148.6540  160.8550  128.8540 H   0  0  0  0  0  0  0  0  0  0  0  0
  150.0434  158.0711  130.8125 H   0  0  0  0  0  0  0  0  0  0  0  0
  149.8666  155.5107  132.0681 H   0  0  0  0  0  0  0  0  0  0  0  0
  148.5424  154.1948  133.7561 H   0  0  0  0  0  0  0  0  0  0  0  0
  145.8911  155.7445  135.9116 H   0  0  0  0  0  0  0  0  0  0  0  0
  145.6521  154.4275  134.7051 H   0  0  0  0  0  0  0  0  0  0  0  0
  145.9955  157.6630  134.4628 H   0  0  0  0  0  0  0  0  0  0  0  0
  1  2  1  0
  2  3  2  0
  2  4  1  0
  4  5  2  0
  5  6  1  0
  6  7  2  0
  7  8  1  0
  8  9  2  0
  9 10  1  0
 10 11  1  0
 11 12  2  0
 11 13  1  0
 11 14  1  0
  9 15  1  0
 15 16  2  0
 16 17  1  0
 17 18  1  0
 18 19  2  0
 18 20  1  0
 17  4  1  0
 16  6  1  0
  1 21  1  0
  5 22  1  0
  7 23  1  0
  8 24  1  0
 10 25  1  0
 10 26  1  0
 15 27  1  0
M  CHG  4   1  -1  13  -1  14  -1  20  -1
M  END
>  <UniqueID>  (87) 
87

>  <SMILES>  (87) 
[NH-]C(=O)c1cc2ccc(CP(=O)([O-])[O-])cc2n1C(=O)[O-]

>  <Energy>  (87) 
62.61902361241291

>  <Genealogy>  (87) 
[NH-]C(=O)c1cc2ccc(CP(=O)([O-])[O-])cc2n1C(=O)[O-] (protonated)
[NH-]C(=O)c1cc2ccc(CP(=O)([O-])[O-])cc2n1C(=O)[O-] (3D coordinates assigned)
[NH-]C(=O)c1cc2ccc(CP(=O)([O-])[O-])cc2n1C(=O)[O-] (optimized conformer: 62.61902361241291 kcal/mol)

>  <smiles>  (87) 
NC(=O)c1cc2ccc(CP(=O)(O)O)cc2n1C(=O)O

>  <score_type>  (87) 
oracle

>  <origin>  (87) 
adg

>  <m_score__min__energy>  (87) 
-6.4299999999999997

>  <m_primary>  (87) 
energy

$$$$
87:0
     RDKit          3D

 41 42  0  0  0  0  0  0  0  0999 V2000
  137.7460  160.0840  131.0850 C   0  0  0  0  0  0  0  0  0  0  0  0
  138.9560  159.5180  131.1510 C   0  0  0  0  0  0  0  0  0  0  0  0
  139.3690  158.6540  132.3110 C   0  0  0  0  0  0  0  0  0  0  0  0
  140.8540  158.2410  132.2620 C   0  0  0  0  0  0  0  0  0  0  0  0
  141.6740  158.5820  133.5230 C   0  0  1  0  0  0  0  0  0  0  0  0
  143.0360  158.8440  133.1790 O   0  0  0  0  0  0  0  0  0  0  0  0
  144.1210  158.3130  133.8880 C   0  0  0  0  0  0  0  0  0  0  0  0
  143.9610  157.3190  134.6490 O   0  0  0  0  0  0  0  0  0  0  0  0
  145.4300  158.8810  133.7170 N   0  0  0  0  0  0  0  0  0  0  0  0
  145.7620  160.2010  133.7110 C   0  0  0  0  0  0  0  0  0  0  0  0
  144.8770  161.3130  134.1000 C   0  0  0  0  0  0  0  0  0  0  0  0
  143.5040  161.3310  133.7090 N   0  0  0  0  0  0  0  0  0  0  0  0
  145.3210  162.2320  134.8380 O   0  0  0  0  0  0  0  0  0  0  0  0
  147.0970  160.3710  133.3550 C   0  0  0  0  0  0  0  0  0  0  0  0
  147.5830  159.1000  133.1520 C   0  0  0  0  0  0  0  0  0  0  0  0
  148.8520  158.6780  132.7640 C   0  0  0  0  0  0  0  0  0  0  0  0
  149.0620  157.3000  132.5910 C   0  0  0  0  0  0  0  0  0  0  0  0
  148.0090  156.3750  132.7990 C   0  0  0  0  0  0  0  0  0  0  0  0
  148.2520  154.9080  132.5900 C   0  0  0  0  0  0  0  0  0  0  0  0
  149.5750  154.7010  132.2460 F   0  0  0  0  0  0  0  0  0  0  0  0
  147.9690  154.2170  133.7550 F   0  0  0  0  0  0  0  0  0  0  0  0
  146.7330  156.8410  133.1900 C   0  0  0  0  0  0  0  0  0  0  0  0
  146.5560  158.2180  133.3740 C   0  0  0  0  0  0  0  0  0  0  0  0
  141.0750  159.7310  134.2860 C   0  0  0  0  0  0  0  0  0  0  0  0
  140.6510  159.5690  135.4600 O   0  0  0  0  0  0  0  0  0  0  0  0
  141.0350  160.9950  133.7120 O   0  0  0  0  0  0  0  0  0  0  0  0
  137.4781  160.7101  130.2212 H   0  0  0  0  0  0  0  0  0  0  0  0
  137.0188  159.9234  131.8945 H   0  0  0  0  0  0  0  0  0  0  0  0
  139.6706  159.6895  130.3325 H   0  0  0  0  0  0  0  0  0  0  0  0
  139.1916  159.2113  133.2427 H   0  0  0  0  0  0  0  0  0  0  0  0
  138.7713  157.7319  132.2611 H   0  0  0  0  0  0  0  0  0  0  0  0
  140.8993  157.1523  132.1110 H   0  0  0  0  0  0  0  0  0  0  0  0
  141.3038  158.8184  131.4408 H   0  0  0  0  0  0  0  0  0  0  0  0
  141.6461  157.7059  134.1875 H   0  0  0  0  0  0  0  0  0  0  0  0
  143.0670  160.5050  133.2460 H   0  0  0  0  0  0  0  0  0  0  0  0
  142.8950  162.1400  133.9660 H   0  0  0  0  0  0  0  0  0  0  0  0
  147.6461  161.3191  133.2569 H   0  0  0  0  0  0  0  0  0  0  0  0
  149.6643  159.4009  132.5982 H   0  0  0  0  0  0  0  0  0  0  0  0
  150.0552  156.9348  132.2906 H   0  0  0  0  0  0  0  0  0  0  0  0
  147.5999  154.5460  131.7814 H   0  0  0  0  0  0  0  0  0  0  0  0
  145.9000  156.1397  133.3458 H   0  0  0  0  0  0  0  0  0  0  0  0
  1  2  2  0
  2  3  1  0
  3  4  1  0
  4  5  1  0
  5  6  1  0
  6  7  1  0
  7  8  2  0
  7  9  1  0
  9 10  1  0
 10 11  1  0
 11 12  1  0
 11 13  2  0
 10 14  2  0
 14 15  1  0
 15 16  2  0
 16 17  1  0
 17 18  2  0
 18 19  1  0
 19 20  1  0
 19 21  1  0
 18 22  1  0
 22 23  2  0
  5 24  1  0
 24 25  2  0
 24 26  1  0
 23  9  1  0
 23 15  1  0
  1 27  1  0
  1 28  1  0
  2 29  1  0
  3 30  1  0
  3 31  1  0
  4 32  1  0
  4 33  1  0
  5 34  1  1
 12 35  1  0
 12 36  1  0
 14 37  1  0
 16 38  1  0
 17 39  1  0
 19 40  1  0
 22 41  1  0
M  CHG  1  26  -1
M  END
>  <UniqueID>  (88) 
88

>  <SMILES>  (88) 
C=CCC[C@@H](OC(=O)n1c(C(N)=O)cc2ccc(C(F)F)cc21)C(=O)[O-]

>  <Energy>  (88) 
72.4144201891877

>  <Genealogy>  (88) 
C=CCCC(OC(=O)n1c(C(N)=O)cc2ccc(C(F)F)cc21)C(=O)[O-] (protonated)
C=CCC[C@@H](OC(=O)n1c(C(N)=O)cc2ccc(C(F)F)cc21)C(=O)[O-] (chirality)
C=CCC[C@@H](OC(=O)n1c(C(N)=O)cc2ccc(C(F)F)cc21)C(=O)[O-] (3D coordinates assigned)
C=CCC[C@@H](OC(=O)n1c(C(N)=O)cc2ccc(C(F)F)cc21)C(=O)[O-] (optimized conformer: 72.4144201891877 kcal/mol)

>  <smiles>  (88) 
C=CCCC(OC(=O)n1c(C(N)=O)cc2ccc(C(F)F)cc21)C(=O)O

>  <score_type>  (88) 
oracle

>  <origin>  (88) 
adg

>  <m_score__min__energy>  (88) 
-6.9299999999999997

>  <m_primary>  (88) 
energy

$$$$
88:0
     RDKit          3D

 38 40  0  0  0  0  0  0  0  0999 V2000
  140.6510  156.4500  133.0400 N   0  0  0  0  0  0  0  0  0  0  0  0
  141.0810  157.4710  133.9360 C   0  0  0  0  0  0  0  0  0  0  0  0
  140.2530  157.9720  134.7430 O   0  0  0  0  0  0  0  0  0  0  0  0
  142.4630  157.9920  133.8880 C   0  0  0  0  0  0  0  0  0  0  0  0
  142.7630  159.3370  133.6910 C   0  0  0  0  0  0  0  0  0  0  0  0
  144.1340  159.3950  133.6040 C   0  0  0  0  0  0  0  0  0  0  0  0
  144.9700  160.4900  133.4040 C   0  0  0  0  0  0  0  0  0  0  0  0
  146.3560  160.2640  133.3720 C   0  0  0  0  0  0  0  0  0  0  0  0
  146.8820  158.9590  133.5600 C   0  0  0  0  0  0  0  0  0  0  0  0
  148.3690  158.7210  133.4830 C   0  0  0  0  0  0  0  0  0  0  0  0
  148.8420  158.3960  134.7410 F   0  0  0  0  0  0  0  0  0  0  0  0
  148.6540  157.6860  132.6120 F   0  0  0  0  0  0  0  0  0  0  0  0
  149.0220  159.8570  133.0350 F   0  0  0  0  0  0  0  0  0  0  0  0
  145.9970  157.8710  133.7360 C   0  0  0  0  0  0  0  0  0  0  0  0
  144.6200  158.1220  133.7510 C   0  0  0  0  0  0  0  0  0  0  0  0
  143.6040  157.2460  133.9340 N   0  0  0  0  0  0  0  0  0  0  0  0
  143.7280  155.8430  134.2210 C   0  0  0  0  0  0  0  0  0  0  0  0
  142.7180  155.0920  134.1380 O   0  0  0  0  0  0  0  0  0  0  0  0
  144.9650  155.3200  134.6150 O   0  0  0  0  0  0  0  0  0  0  0  0
  145.6280  154.2460  133.9410 C   0  0  1  0  0  0  0  0  0  0  0  0
  145.8320  154.6310  132.4850 C   0  0  0  0  0  0  0  0  0  0  0  0
  147.1020  155.2290  132.3270 O   0  0  0  0  0  0  0  0  0  0  0  0
  147.8030  155.0730  133.5400 C   0  0  0  0  0  0  0  0  0  0  0  0
  147.0550  154.0700  134.4040 C   0  0  1  0  0  0  0  0  0  0  0  0
  147.2690  154.2370  135.8880 C   0  0  0  0  0  0  0  0  0  0  0  0
  147.8430  155.2560  136.3540 O   0  0  0  0  0  0  0  0  0  0  0  0
  146.7820  153.2720  136.7600 O   0  0  0  0  0  0  0  0  0  0  0  0
  141.3350  155.7860  132.6140 H   0  0  0  0  0  0  0  0  0  0  0  0
  142.0541  160.1751  133.6200 H   0  0  0  0  0  0  0  0  0  0  0  0
  144.5577  161.5016  133.2749 H   0  0  0  0  0  0  0  0  0  0  0  0
  147.0410  161.1072  133.1994 H   0  0  0  0  0  0  0  0  0  0  0  0
  146.3825  156.8481  133.8586 H   0  0  0  0  0  0  0  0  0  0  0  0
  145.0096  153.3545  134.1223 H   0  0  0  0  0  0  0  0  0  0  0  0
  145.7704  153.7306  131.8561 H   0  0  0  0  0  0  0  0  0  0  0  0
  145.0516  155.3450  132.1829 H   0  0  0  0  0  0  0  0  0  0  0  0
  148.8187  154.7028  133.3366 H   0  0  0  0  0  0  0  0  0  0  0  0
  147.8749  156.0393  134.0607 H   0  0  0  0  0  0  0  0  0  0  0  0
  147.4165  153.0389  134.2774 H   0  0  0  0  0  0  0  0  0  0  0  0
  1  2  1  0
  2  3  2  0
  2  4  1  0
  4  5  2  0
  5  6  1  0
  6  7  2  0
  7  8  1  0
  8  9  2  0
  9 10  1  0
 10 11  1  0
 10 12  1  0
 10 13  1  0
  9 14  1  0
 14 15  2  0
 15 16  1  0
 16 17  1  0
 17 18  2  0
 17 19  1  0
 19 20  1  0
 20 21  1  0
 21 22  1  0
 22 23  1  0
 23 24  1  0
 24 25  1  0
 25 26  2  0
 25 27  1  0
 16  4  1  0
 24 20  1  0
 15  6  1  0
  1 28  1  0
  5 29  1  0
  7 30  1  0
  8 31  1  0
 14 32  1  0
 20 33  1  6
 21 34  1  0
 21 35  1  0
 23 36  1  0
 23 37  1  0
 24 38  1  6
M  CHG  2   1  -1  27  -1
M  END
>  <UniqueID>  (89) 
89

>  <SMILES>  (89) 
[NH-]C(=O)c1cc2ccc(C(F)(F)F)cc2n1C(=O)O[C@H]1COC[C@H]1C(=O)[O-]

>  <Energy>  (89) 
80.87634299531182

>  <Genealogy>  (89) 
[NH-]C(=O)c1cc2ccc(C(F)(F)F)cc2n1C(=O)O[C@H]1COC[C@H]1C(=O)[O-] (protonated)
[NH-]C(=O)c1cc2ccc(C(F)(F)F)cc2n1C(=O)O[C@H]1COC[C@H]1C(=O)[O-] (3D coordinates assigned)
[NH-]C(=O)c1cc2ccc(C(F)(F)F)cc2n1C(=O)O[C@H]1COC[C@H]1C(=O)[O-] (nonaromatic ring conformer: 80.87634299531182 kcal/mol)

>  <smiles>  (89) 
NC(=O)c1cc2ccc(C(F)(F)F)cc2n1C(=O)O[C@H]1COC[C@H]1C(=O)O

>  <score_type>  (89) 
oracle

>  <origin>  (89) 
adg

>  <m_score__min__energy>  (89) 
-6.3799999999999999

>  <m_primary>  (89) 
energy

$$$$
89:0
     RDKit          3D

 43 44  0  0  0  0  0  0  0  0999 V2000
  141.7910  160.4580  134.0210 C   0  0  0  0  0  0  0  0  0  0  0  0
  141.0820  159.3300  134.6360 N   0  0  0  0  0  0  0  0  0  0  0  0
  140.9730  159.2450  136.0960 C   0  0  0  0  0  0  0  0  0  0  0  0
  140.5030  158.3200  133.7810 C   0  0  0  0  0  0  0  0  0  0  0  0
  140.6460  158.4050  132.5310 O   0  0  0  0  0  0  0  0  0  0  0  0
  139.7000  157.1680  134.3280 C   0  0  0  0  0  0  0  0  0  0  0  0
  140.5390  155.9700  134.4810 N   0  0  0  0  0  0  0  0  0  0  0  0
  141.3770  155.8000  135.6730 C   0  0  0  0  0  0  0  0  0  0  0  0
  140.6810  155.0400  133.3870 C   0  0  0  0  0  0  0  0  0  0  0  0
  139.7210  154.8440  132.5930 O   0  0  0  0  0  0  0  0  0  0  0  0
  141.9230  154.3570  133.1600 N   0  0  0  0  0  0  0  0  0  0  0  0
  143.1560  154.9070  132.9810 C   0  0  0  0  0  0  0  0  0  0  0  0
  143.4670  156.3510  133.0840 C   0  0  0  0  0  0  0  0  0  0  0  0
  142.8100  157.3060  132.2500 N   0  0  0  0  0  0  0  0  0  0  0  0
  144.3270  156.7520  133.9120 O   0  0  0  0  0  0  0  0  0  0  0  0
  144.1010  153.9060  132.7480 C   0  0  0  0  0  0  0  0  0  0  0  0
  143.3980  152.7220  132.7980 C   0  0  0  0  0  0  0  0  0  0  0  0
  143.8320  151.4130  132.6220 C   0  0  0  0  0  0  0  0  0  0  0  0
  142.8760  150.3850  132.7090 C   0  0  0  0  0  0  0  0  0  0  0  0
  141.5140  150.6800  132.9850 C   0  0  0  0  0  0  0  0  0  0  0  0
  140.4890  149.5760  133.0190 C   0  0  0  0  0  0  0  0  0  0  0  0
  140.9470  148.4640  132.3330 F   0  0  0  0  0  0  0  0  0  0  0  0
  140.2420  149.2250  134.3320 F   0  0  0  0  0  0  0  0  0  0  0  0
  139.3050  149.9890  132.4310 F   0  0  0  0  0  0  0  0  0  0  0  0
  141.1120  152.0280  133.1360 C   0  0  0  0  0  0  0  0  0  0  0  0
  142.0870  153.0250  133.0520 C   0  0  0  0  0  0  0  0  0  0  0  0
  142.1995  161.1078  134.8089 H   0  0  0  0  0  0  0  0  0  0  0  0
  142.6129  160.0779  133.3965 H   0  0  0  0  0  0  0  0  0  0  0  0
  141.0921  161.0338  133.3965 H   0  0  0  0  0  0  0  0  0  0  0  0
  141.7599  159.8587  136.5588 H   0  0  0  0  0  0  0  0  0  0  0  0
  139.9863  159.6145  136.4122 H   0  0  0  0  0  0  0  0  0  0  0  0
  141.0910  158.1980  136.4122 H   0  0  0  0  0  0  0  0  0  0  0  0
  139.2901  157.4485  135.3095 H   0  0  0  0  0  0  0  0  0  0  0  0
  138.8868  156.9401  133.6232 H   0  0  0  0  0  0  0  0  0  0  0  0
  140.7606  155.9251  136.5754 H   0  0  0  0  0  0  0  0  0  0  0  0
  141.8208  154.7935  135.6687 H   0  0  0  0  0  0  0  0  0  0  0  0
  142.1780  156.5540  135.6687 H   0  0  0  0  0  0  0  0  0  0  0  0
  143.0620  158.3170  132.3160 H   0  0  0  0  0  0  0  0  0  0  0  0
  142.0430  157.0280  131.5990 H   0  0  0  0  0  0  0  0  0  0  0  0
  145.1777  154.0351  132.5637 H   0  0  0  0  0  0  0  0  0  0  0  0
  144.8899  151.1883  132.4210 H   0  0  0  0  0  0  0  0  0  0  0  0
  143.1866  149.3401  132.5616 H   0  0  0  0  0  0  0  0  0  0  0  0
  140.0575  152.2848  133.3152 H   0  0  0  0  0  0  0  0  0  0  0  0
  1  2  1  0
  2  3  1  0
  2  4  1  0
  4  5  2  0
  4  6  1  0
  6  7  1  0
  7  8  1  0
  7  9  1  0
  9 10  2  0
  9 11  1  0
 11 12  1  0
 12 13  1  0
 13 14  1  0
 13 15  2  0
 12 16  2  0
 16 17  1  0
 17 18  2  0
 18 19  1  0
 19 20  2  0
 20 21  1  0
 21 22  1  0
 21 23  1  0
 21 24  1  0
 20 25  1  0
 25 26  2  0
 26 11  1  0
 26 17  1  0
  1 27  1  0
  1 28  1  0
  1 29  1  0
  3 30  1  0
  3 31  1  0
  3 32  1  0
  6 33  1  0
  6 34  1  0
  8 35  1  0
  8 36  1  0
  8 37  1  0
 14 38  1  0
 14 39  1  0
 16 40  1  0
 18 41  1  0
 19 42  1  0
 25 43  1  0
M  END
>  <UniqueID>  (90) 
90

>  <SMILES>  (90) 
CN(C)C(=O)CN(C)C(=O)n1c(C(N)=O)cc2ccc(C(F)(F)F)cc21

>  <Energy>  (90) 
76.88382158762487

>  <Genealogy>  (90) 
CN(C)C(=O)CN(C)C(=O)n1c(C(N)=O)cc2ccc(C(F)(F)F)cc21 (3D coordinates assigned)
CN(C)C(=O)CN(C)C(=O)n1c(C(N)=O)cc2ccc(C(F)(F)F)cc21 (optimized conformer: 76.88382158762487 kcal/mol)

>  <smiles>  (90) 
CN(C)C(=O)CN(C)C(=O)n1c(C(N)=O)cc2ccc(C(F)(F)F)cc21

>  <score_type>  (90) 
oracle

>  <origin>  (90) 
adg

>  <m_score__min__energy>  (90) 
-6.4100000000000001

>  <m_primary>  (90) 
energy

$$$$
90:0
     RDKit          3D

 52 54  0  0  0  0  0  0  0  0999 V2000
  140.0440  158.9810  132.0910 C   0  0  0  0  0  0  0  0  0  0  0  0
  141.0110  159.0480  133.2890 C   0  0  0  0  0  0  0  0  0  0  0  0
  140.3250  158.5350  134.5700 C   0  0  0  0  0  0  0  0  0  0  0  0
  141.4330  160.5090  133.5040 C   0  0  0  0  0  0  0  0  0  0  0  0
  142.2030  158.2980  133.0180 O   0  0  0  0  0  0  0  0  0  0  0  0
  143.2640  158.0750  133.9080 C   0  0  0  0  0  0  0  0  0  0  0  0
  143.5500  158.9190  134.8000 O   0  0  0  0  0  0  0  0  0  0  0  0
  144.0220  156.8590  133.8110 N   0  0  0  0  0  0  0  0  0  0  0  0
  143.5510  155.5820  133.8570 C   0  0  0  0  0  0  0  0  0  0  0  0
  142.1220  155.1960  133.8680 C   0  0  0  0  0  0  0  0  0  0  0  0
  141.1900  155.8210  132.9830 N   0  0  0  0  0  0  0  0  0  0  0  0
  141.7070  154.3270  134.6800 O   0  0  0  0  0  0  0  0  0  0  0  0
  144.6040  154.6710  133.8050 C   0  0  0  0  0  0  0  0  0  0  0  0
  145.7450  155.4370  133.7250 C   0  0  0  0  0  0  0  0  0  0  0  0
  147.0790  155.0540  133.6680 C   0  0  0  0  0  0  0  0  0  0  0  0
  148.0550  156.0640  133.6290 C   0  0  0  0  0  0  0  0  0  0  0  0
  147.6920  157.4350  133.6530 C   0  0  0  0  0  0  0  0  0  0  0  0
  148.7440  158.4280  133.6330 N   0  0  0  0  0  0  0  0  0  0  0  0
  148.9800  159.4560  132.6080 C   0  0  0  0  0  0  0  0  0  0  0  0
  147.6610  160.1140  132.1320 C   0  0  0  0  0  0  0  0  0  0  0  0
  147.7140  160.4870  130.6460 C   0  0  0  0  0  0  0  0  0  0  0  0
  149.0350  161.0340  130.3220 N   0  0  0  0  0  0  0  0  0  0  0  0
  150.0870  160.0010  130.3670 C   0  0  0  0  0  0  0  0  0  0  0  0
  149.8580  158.9280  131.4550 C   0  0  0  0  0  0  0  0  0  0  0  0
  146.3170  157.7800  133.7180 C   0  0  0  0  0  0  0  0  0  0  0  0
  145.3680  156.7540  133.7330 C   0  0  0  0  0  0  0  0  0  0  0  0
  139.0096  158.9093  132.4583 H   0  0  0  0  0  0  0  0  0  0  0  0
  140.1540  159.8889  131.4798 H   0  0  0  0  0  0  0  0  0  0  0  0
  140.2782  158.0969  131.4798 H   0  0  0  0  0  0  0  0  0  0  0  0
  140.8522  158.9292  135.4513 H   0  0  0  0  0  0  0  0  0  0  0  0
  139.2787  158.8741  134.5866 H   0  0  0  0  0  0  0  0  0  0  0  0
  140.3544  157.4355  134.5866 H   0  0  0  0  0  0  0  0  0  0  0  0
  141.4935  160.7183  134.5822 H   0  0  0  0  0  0  0  0  0  0  0  0
  142.4168  160.6783  133.0419 H   0  0  0  0  0  0  0  0  0  0  0  0
  140.6910  161.1768  133.0419 H   0  0  0  0  0  0  0  0  0  0  0  0
  141.5030  156.5030  132.2580 H   0  0  0  0  0  0  0  0  0  0  0  0
  140.1780  155.5670  133.0260 H   0  0  0  0  0  0  0  0  0  0  0  0
  144.5377  153.5732  133.8238 H   0  0  0  0  0  0  0  0  0  0  0  0
  147.3629  153.9914  133.6538 H   0  0  0  0  0  0  0  0  0  0  0  0
  149.1183  155.7869  133.5790 H   0  0  0  0  0  0  0  0  0  0  0  0
  149.4530  158.3830  134.4000 H   0  0  0  0  0  0  0  0  0  0  0  0
  149.5604  160.2641  133.0772 H   0  0  0  0  0  0  0  0  0  0  0  0
  146.8329  159.4080  132.2924 H   0  0  0  0  0  0  0  0  0  0  0  0
  147.5115  161.0373  132.7109 H   0  0  0  0  0  0  0  0  0  0  0  0
  147.5300  159.5898  130.0368 H   0  0  0  0  0  0  0  0  0  0  0  0
  146.9437  161.2425  130.4318 H   0  0  0  0  0  0  0  0  0  0  0  0
  148.9990  161.4230  129.3510 H   0  0  0  0  0  0  0  0  0  0  0  0
  150.1244  159.5006  129.3882 H   0  0  0  0  0  0  0  0  0  0  0  0
  151.0293  160.5124  130.6132 H   0  0  0  0  0  0  0  0  0  0  0  0
  149.3610  158.0593  130.9986 H   0  0  0  0  0  0  0  0  0  0  0  0
  150.8375  158.6508  131.8719 H   0  0  0  0  0  0  0  0  0  0  0  0
  146.0043  158.8339  133.7558 H   0  0  0  0  0  0  0  0  0  0  0  0
  1  2  1  0
  2  3  1  0
  2  4  1  0
  2  5  1  0
  5  6  1  0
  6  7  2  0
  6  8  1  0
  8  9  1  0
  9 10  1  0
 10 11  1  0
 10 12  2  0
  9 13  2  0
 13 14  1  0
 14 15  2  0
 15 16  1  0
 16 17  2  0
 17 18  1  0
 18 19  1  0
 19 20  1  0
 20 21  1  0
 21 22  1  0
 22 23  1  0
 23 24  1  0
 17 25  1  0
 25 26  2  0
 26  8  1  0
 26 14  1  0
 24 19  1  0
  1 27  1  0
  1 28  1  0
  1 29  1  0
  3 30  1  0
  3 31  1  0
  3 32  1  0
  4 33  1  0
  4 34  1  0
  4 35  1  0
 11 36  1  0
 11 37  1  0
 13 38  1  0
 15 39  1  0
 16 40  1  0
 18 41  1  0
 19 42  1  0
 20 43  1  0
 20 44  1  0
 21 45  1  0
 21 46  1  0
 22 47  1  0
 23 48  1  0
 23 49  1  0
 24 50  1  0
 24 51  1  0
 25 52  1  0
M  END
>  <UniqueID>  (91) 
91

>  <SMILES>  (91) 
CC(C)(C)OC(=O)n1c(C(N)=O)cc2ccc(NC3CCNCC3)cc21

>  <Energy>  (91) 
93.01361443567754

>  <Genealogy>  (91) 
CC(C)(C)OC(=O)n1c(C(N)=O)cc2ccc(NC3CCNCC3)cc21 (3D coordinates assigned)
CC(C)(C)OC(=O)n1c(C(N)=O)cc2ccc(NC3CCNCC3)cc21 (nonaromatic ring conformer: 93.01361443567754 kcal/mol)

>  <smiles>  (91) 
CC(C)(C)OC(=O)n1c(C(N)=O)cc2ccc(NC3CCNCC3)cc21

>  <score_type>  (91) 
oracle

>  <origin>  (91) 
adg

>  <m_score__min__energy>  (91) 
-9.0999999999999996

>  <m_primary>  (91) 
energy

$$$$
91:0
     RDKit          3D

 53 54  0  0  0  0  0  0  0  0999 V2000
  148.4100  154.4350  132.6630 C   0  0  0  0  0  0  0  0  0  0  0  0
  147.5990  155.5510  132.9590 O   0  0  0  0  0  0  0  0  0  0  0  0
  148.4170  156.6710  133.2270 C   0  0  0  0  0  0  0  0  0  0  0  0
  148.0090  157.8140  132.2810 C   0  0  0  0  0  0  0  0  0  0  0  0
  147.9140  159.2490  132.9080 C   0  0  0  0  0  0  0  0  0  0  0  0
  148.8550  159.3340  134.1340 C   0  0  0  0  0  0  0  0  0  0  0  0
  148.3460  160.2970  131.8530 C   0  0  0  0  0  0  0  0  0  0  0  0
  146.4710  159.5800  133.3700 C   0  0  0  0  0  0  0  0  0  0  0  0
  146.0540  160.9040  133.7210 C   0  0  0  0  0  0  0  0  0  0  0  0
  144.7360  161.1730  134.1280 C   0  0  0  0  0  0  0  0  0  0  0  0
  143.8390  160.1160  134.1870 C   0  0  0  0  0  0  0  0  0  0  0  0
  142.5040  160.0980  134.5270 C   0  0  0  0  0  0  0  0  0  0  0  0
  142.1090  158.7680  134.3950 C   0  0  0  0  0  0  0  0  0  0  0  0
  140.7520  158.2750  134.7070 C   0  0  0  0  0  0  0  0  0  0  0  0
  140.5580  157.0160  135.3440 N   0  0  0  0  0  0  0  0  0  0  0  0
  139.7490  158.9870  134.4320 O   0  0  0  0  0  0  0  0  0  0  0  0
  143.1580  158.0020  133.9860 N   0  0  0  0  0  0  0  0  0  0  0  0
  143.1580  156.6060  133.6630 C   0  0  0  0  0  0  0  0  0  0  0  0
  142.5770  156.2160  132.6150 O   0  0  0  0  0  0  0  0  0  0  0  0
  143.7980  155.6320  134.5740 C   0  0  0  0  0  0  0  0  0  0  0  0
  143.3160  155.4790  135.7310 O   0  0  0  0  0  0  0  0  0  0  0  0
  144.9680  154.8780  134.1680 N   0  0  2  0  0  0  0  0  0  0  0  0
  144.8180  154.3560  132.7970 C   0  0  0  0  0  0  0  0  0  0  0  0
  145.2980  153.8170  135.1490 C   0  0  0  0  0  0  0  0  0  0  0  0
  146.5670  154.0780  135.9190 C   0  0  0  0  0  0  0  0  0  0  0  0
  147.1810  155.1680  135.7800 O   0  0  0  0  0  0  0  0  0  0  0  0
  147.0680  153.1140  136.7860 O   0  0  0  0  0  0  0  0  0  0  0  0
  144.2070  158.8400  133.8660 C   0  0  0  0  0  0  0  0  0  0  0  0
  145.5040  158.5360  133.4510 C   0  0  0  0  0  0  0  0  0  0  0  0
  148.7487  153.9690  133.6001 H   0  0  0  0  0  0  0  0  0  0  0  0
  147.8303  153.7050  132.0791 H   0  0  0  0  0  0  0  0  0  0  0  0
  149.2834  154.7610  132.0791 H   0  0  0  0  0  0  0  0  0  0  0  0
  148.2809  156.9879  134.2715 H   0  0  0  0  0  0  0  0  0  0  0  0
  149.4740  156.4111  133.0686 H   0  0  0  0  0  0  0  0  0  0  0  0
  148.7491  157.8539  131.4682 H   0  0  0  0  0  0  0  0  0  0  0  0
  146.9854  157.5711  131.9596 H   0  0  0  0  0  0  0  0  0  0  0  0
  148.2598  159.2802  135.0575 H   0  0  0  0  0  0  0  0  0  0  0  0
  149.5678  158.4966  134.1079 H   0  0  0  0  0  0  0  0  0  0  0  0
  149.4062  160.2856  134.1079 H   0  0  0  0  0  0  0  0  0  0  0  0
  148.7175  161.1984  132.3624 H   0  0  0  0  0  0  0  0  0  0  0  0
  149.1440  159.8762  131.2236 H   0  0  0  0  0  0  0  0  0  0  0  0
  147.4833  160.5608  131.2236 H   0  0  0  0  0  0  0  0  0  0  0  0
  146.7807  161.7282  133.6710 H   0  0  0  0  0  0  0  0  0  0  0  0
  144.4239  162.1940  134.3927 H   0  0  0  0  0  0  0  0  0  0  0  0
  141.8826  160.9512  134.8365 H   0  0  0  0  0  0  0  0  0  0  0  0
  141.3400  156.3280  135.4260 H   0  0  0  0  0  0  0  0  0  0  0  0
  145.7920  155.5230  134.1370 H   0  0  0  0  0  0  0  0  0  0  0  0
  144.5144  153.2995  132.8381 H   0  0  0  0  0  0  0  0  0  0  0  0
  144.0506  154.9376  132.2651 H   0  0  0  0  0  0  0  0  0  0  0  0
  145.7771  154.4415  132.2651 H   0  0  0  0  0  0  0  0  0  0  0  0
  144.4673  153.7359  135.8655 H   0  0  0  0  0  0  0  0  0  0  0  0
  145.4526  152.8889  134.5792 H   0  0  0  0  0  0  0  0  0  0  0  0
  145.7770  157.5030  133.1895 H   0  0  0  0  0  0  0  0  0  0  0  0
  1  2  1  0
  2  3  1  0
  3  4  1  0
  4  5  1  0
  5  6  1  0
  5  7  1  0
  5  8  1  0
  8  9  2  0
  9 10  1  0
 10 11  2  0
 11 12  1  0
 12 13  2  0
 13 14  1  0
 14 15  1  0
 14 16  2  0
 13 17  1  0
 17 18  1  0
 18 19  2  0
 18 20  1  0
 20 21  2  0
 20 22  1  0
 22 23  1  0
 22 24  1  0
 24 25  1  0
 25 26  2  0
 25 27  1  0
 17 28  1  0
 28 29  2  0
 29  8  1  0
 28 11  1  0
  1 30  1  0
  1 31  1  0
  1 32  1  0
  3 33  1  0
  3 34  1  0
  4 35  1  0
  4 36  1  0
  6 37  1  0
  6 38  1  0
  6 39  1  0
  7 40  1  0
  7 41  1  0
  7 42  1  0
  9 43  1  0
 10 44  1  0
 12 45  1  0
 15 46  1  0
 22 47  1  6
 23 48  1  0
 23 49  1  0
 23 50  1  0
 24 51  1  0
 24 52  1  0
 29 53  1  0
M  CHG  3  15  -1  22   1  27  -1
M  END
>  <UniqueID>  (92) 
92

>  <SMILES>  (92) 
COCCC(C)(C)c1ccc2cc(C([NH-])=O)n(C(=O)C(=O)[N@H+](C)CC(=O)[O-])c2c1

>  <Energy>  (92) 
101.44145172405722

>  <Genealogy>  (92) 
COCCC(C)(C)c1ccc2cc(C([NH-])=O)n(C(=O)C(=O)[NH+](C)CC(=O)[O-])c2c1 (protonated)
COCCC(C)(C)c1ccc2cc(C([NH-])=O)n(C(=O)C(=O)[N@H+](C)CC(=O)[O-])c2c1 (chirality)
COCCC(C)(C)c1ccc2cc(C([NH-])=O)n(C(=O)C(=O)[N@H+](C)CC(=O)[O-])c2c1 (3D coordinates assigned)
COCCC(C)(C)c1ccc2cc(C([NH-])=O)n(C(=O)C(=O)[N@H+](C)CC(=O)[O-])c2c1 (optimized conformer: 101.44145172405722 kcal/mol)

>  <smiles>  (92) 
COCCC(C)(C)c1ccc2cc(C(N)=O)n(C(=O)C(=O)N(C)CC(=O)O)c2c1

>  <score_type>  (92) 
oracle

>  <origin>  (92) 
adg

>  <m_score__min__energy>  (92) 
-6.9100000000000001

>  <m_primary>  (92) 
energy

$$$$
92:0
     RDKit          3D

 54 55  0  0  0  0  0  0  0  0999 V2000
  140.5940  156.3310  137.7780 C   0  0  0  0  0  0  0  0  0  0  0  0
  141.6940  157.2190  137.2030 C   0  0  0  0  0  0  0  0  0  0  0  0
  141.5110  157.4070  135.7520 N   0  0  0  0  0  0  0  0  0  0  0  0
  141.6290  156.2340  134.9260 C   0  0  0  0  0  0  0  0  0  0  0  0
  140.5060  155.7540  134.2110 C   0  0  0  0  0  0  0  0  0  0  0  0
  140.6080  154.6010  133.4140 C   0  0  0  0  0  0  0  0  0  0  0  0
  141.8420  153.9590  133.3500 C   0  0  0  0  0  0  0  0  0  0  0  0
  142.2120  152.8170  132.6780 C   0  0  0  0  0  0  0  0  0  0  0  0
  143.5600  152.6310  132.9790 C   0  0  0  0  0  0  0  0  0  0  0  0
  144.3980  151.5610  132.3930 C   0  0  0  0  0  0  0  0  0  0  0  0
  145.6560  151.8680  131.7900 N   0  0  0  0  0  0  0  0  0  0  0  0
  144.0200  150.3610  132.4490 O   0  0  0  0  0  0  0  0  0  0  0  0
  144.0060  153.6180  133.8080 N   0  0  0  0  0  0  0  0  0  0  0  0
  145.3100  153.7390  134.3990 C   0  0  0  0  0  0  0  0  0  0  0  0
  145.4270  153.7770  135.6550 O   0  0  0  0  0  0  0  0  0  0  0  0
  146.4400  153.7960  133.5720 O   0  0  0  0  0  0  0  0  0  0  0  0
  147.7600  153.5770  133.9910 C   0  0  0  0  0  0  0  0  0  0  0  0
  148.1370  153.9210  135.1450 O   0  0  0  0  0  0  0  0  0  0  0  0
  148.7280  152.8780  133.0610 C   0  0  0  0  0  0  0  0  0  0  0  0
  149.3840  151.7130  133.8110 C   0  0  0  0  0  0  0  0  0  0  0  0
  149.8140  153.8570  132.5720 C   0  0  0  0  0  0  0  0  0  0  0  0
  148.0390  152.3500  131.9510 O   0  0  0  0  0  0  0  0  0  0  0  0
  142.9420  154.4230  134.0250 C   0  0  0  0  0  0  0  0  0  0  0  0
  142.8630  155.5570  134.8420 C   0  0  0  0  0  0  0  0  0  0  0  0
  141.1530  158.7330  135.1730 C   0  0  0  0  0  0  0  0  0  0  0  0
  142.2800  159.2090  134.2260 C   0  0  0  0  0  0  0  0  0  0  0  0
  140.9760  159.7670  136.3070 C   0  0  0  0  0  0  0  0  0  0  0  0
  139.8430  158.6620  134.3930 C   0  0  0  0  0  0  0  0  0  0  0  0
  138.8040  158.1730  134.9160 O   0  0  0  0  0  0  0  0  0  0  0  0
  139.7540  159.2210  133.1220 O   0  0  0  0  0  0  0  0  0  0  0  0
  140.6337  156.3631  138.8768 H   0  0  0  0  0  0  0  0  0  0  0  0
  139.6135  156.6938  137.4358 H   0  0  0  0  0  0  0  0  0  0  0  0
  140.7419  155.2961  137.4358 H   0  0  0  0  0  0  0  0  0  0  0  0
  141.6626  158.1996  137.7004 H   0  0  0  0  0  0  0  0  0  0  0  0
  142.6655  156.7328  137.3755 H   0  0  0  0  0  0  0  0  0  0  0  0
  139.5463  156.2872  134.2796 H   0  0  0  0  0  0  0  0  0  0  0  0
  139.7398  154.2175  132.8579 H   0  0  0  0  0  0  0  0  0  0  0  0
  141.5783  152.1848  132.0387 H   0  0  0  0  0  0  0  0  0  0  0  0
  145.9770  152.8550  131.6780 H   0  0  0  0  0  0  0  0  0  0  0  0
  146.2540  151.1020  131.4090 H   0  0  0  0  0  0  0  0  0  0  0  0
  149.2920  151.8765  134.8949 H   0  0  0  0  0  0  0  0  0  0  0  0
  148.8828  150.7726  133.5381 H   0  0  0  0  0  0  0  0  0  0  0  0
  150.4480  151.6540  133.5381 H   0  0  0  0  0  0  0  0  0  0  0  0
  150.3166  154.3101  133.4393 H   0  0  0  0  0  0  0  0  0  0  0  0
  150.5515  153.3126  131.9639 H   0  0  0  0  0  0  0  0  0  0  0  0
  149.3488  154.6468  131.9639 H   0  0  0  0  0  0  0  0  0  0  0  0
  147.3220  152.9910  131.7020 H   0  0  0  0  0  0  0  0  0  0  0  0
  143.7403  155.9105  135.4035 H   0  0  0  0  0  0  0  0  0  0  0  0
  143.1319  159.5688  134.8217 H   0  0  0  0  0  0  0  0  0  0  0  0
  142.6042  158.3709  133.5915 H   0  0  0  0  0  0  0  0  0  0  0  0
  141.9053  160.0257  133.5915 H   0  0  0  0  0  0  0  0  0  0  0  0
  141.0624  159.2620  137.2804 H   0  0  0  0  0  0  0  0  0  0  0  0
  141.7550  160.5392  136.2240 H   0  0  0  0  0  0  0  0  0  0  0  0
  139.9845  160.2361  136.2240 H   0  0  0  0  0  0  0  0  0  0  0  0
  1  2  1  0
  2  3  1  0
  3  4  1  0
  4  5  2  0
  5  6  1  0
  6  7  2  0
  7  8  1  0
  8  9  2  0
  9 10  1  0
 10 11  1  0
 10 12  2  0
  9 13  1  0
 13 14  1  0
 14 15  2  0
 14 16  1  0
 16 17  1  0
 17 18  2  0
 17 19  1  0
 19 20  1  0
 19 21  1  0
 19 22  1  0
 13 23  1  0
 23 24  2  0
  3 25  1  0
 25 26  1  0
 25 27  1  0
 25 28  1  0
 28 29  2  0
 28 30  1  0
 24  4  1  0
 23  7  1  0
  1 31  1  0
  1 32  1  0
  1 33  1  0
  2 34  1  0
  2 35  1  0
  5 36  1  0
  6 37  1  0
  8 38  1  0
 11 39  1  0
 11 40  1  0
 20 41  1  0
 20 42  1  0
 20 43  1  0
 21 44  1  0
 21 45  1  0
 21 46  1  0
 22 47  1  0
 24 48  1  0
 26 49  1  0
 26 50  1  0
 26 51  1  0
 27 52  1  0
 27 53  1  0
 27 54  1  0
M  CHG  1  30  -1
M  END
>  <UniqueID>  (93) 
93

>  <SMILES>  (93) 
CCN(c1ccc2cc(C(N)=O)n(C(=O)OC(=O)C(C)(C)O)c2c1)C(C)(C)C(=O)[O-]

>  <Energy>  (93) 
94.30861901453713

>  <Genealogy>  (93) 
CCN(c1ccc2cc(C(N)=O)n(C(=O)OC(=O)C(C)(C)O)c2c1)C(C)(C)C(=O)[O-] (protonated)
CCN(c1ccc2cc(C(N)=O)n(C(=O)OC(=O)C(C)(C)O)c2c1)C(C)(C)C(=O)[O-] (3D coordinates assigned)
CCN(c1ccc2cc(C(N)=O)n(C(=O)OC(=O)C(C)(C)O)c2c1)C(C)(C)C(=O)[O-] (optimized conformer: 94.30861901453713 kcal/mol)

>  <smiles>  (93) 
CCN(c1ccc2cc(C(N)=O)n(C(=O)OC(=O)C(C)(C)O)c2c1)C(C)(C)C(=O)O

>  <score_type>  (93) 
oracle

>  <origin>  (93) 
adg

>  <m_score__min__energy>  (93) 
-8.0700000000000003

>  <m_primary>  (93) 
energy

$$$$
93:0
     RDKit          3D

 33 34  0  0  0  0  0  0  0  0999 V2000
  139.6470  157.1220  133.2100 C   0  0  0  0  0  0  0  0  0  0  0  0
  140.2180  158.3320  133.2410 C   0  0  0  0  0  0  0  0  0  0  0  0
  139.9420  159.3300  132.1850 C   0  0  0  0  0  0  0  0  0  0  0  0
  139.7430  158.9750  130.9930 O   0  0  0  0  0  0  0  0  0  0  0  0
  139.8850  160.6800  132.5080 O   0  0  0  0  0  0  0  0  0  0  0  0
  141.1030  158.6720  134.3250 N   0  0  0  0  0  0  0  0  0  0  0  0
  140.5570  158.7350  135.6830 C   0  0  0  0  0  0  0  0  0  0  0  0
  142.4580  159.1020  134.0520 C   0  0  0  0  0  0  0  0  0  0  0  0
  142.7900  160.4830  134.0130 C   0  0  0  0  0  0  0  0  0  0  0  0
  144.1040  160.9020  133.7440 C   0  0  0  0  0  0  0  0  0  0  0  0
  145.0690  159.9250  133.5230 C   0  0  0  0  0  0  0  0  0  0  0  0
  146.4060  160.0530  133.2270 C   0  0  0  0  0  0  0  0  0  0  0  0
  146.8820  158.7510  133.1130 C   0  0  0  0  0  0  0  0  0  0  0  0
  148.3030  158.4270  132.8790 C   0  0  0  0  0  0  0  0  0  0  0  0
  148.6880  157.4980  131.8650 N   0  0  0  0  0  0  0  0  0  0  0  0
  149.1840  158.9270  133.6260 O   0  0  0  0  0  0  0  0  0  0  0  0
  145.8770  157.8500  133.3090 N   0  0  0  0  0  0  0  0  0  0  0  0
  145.9180  156.4220  133.1580 C   0  0  0  0  0  0  0  0  0  0  0  0
  146.5890  155.8870  132.2360 O   0  0  0  0  0  0  0  0  0  0  0  0
  144.7750  158.5880  133.5690 C   0  0  0  0  0  0  0  0  0  0  0  0
  143.4740  158.1410  133.8240 C   0  0  0  0  0  0  0  0  0  0  0  0
  139.8631  156.3914  134.0034 H   0  0  0  0  0  0  0  0  0  0  0  0
  138.9616  156.8581  132.3911 H   0  0  0  0  0  0  0  0  0  0  0  0
  141.3754  158.6406  136.4120 H   0  0  0  0  0  0  0  0  0  0  0  0
  140.0458  159.6981  135.8283 H   0  0  0  0  0  0  0  0  0  0  0  0
  139.8399  157.9136  135.8283 H   0  0  0  0  0  0  0  0  0  0  0  0
  142.0077  161.2344  134.1959 H   0  0  0  0  0  0  0  0  0  0  0  0
  144.3618  161.9708  133.7093 H   0  0  0  0  0  0  0  0  0  0  0  0
  146.9768  160.9855  133.1063 H   0  0  0  0  0  0  0  0  0  0  0  0
  147.9720  156.9530  131.3360 H   0  0  0  0  0  0  0  0  0  0  0  0
  149.6980  157.2980  131.6930 H   0  0  0  0  0  0  0  0  0  0  0  0
  145.3553  155.7866  133.8577 H   0  0  0  0  0  0  0  0  0  0  0  0
  143.2445  157.0655  133.8470 H   0  0  0  0  0  0  0  0  0  0  0  0
  1  2  2  0
  2  3  1  0
  3  4  2  0
  3  5  1  0
  2  6  1  0
  6  7  1  0
  6  8  1  0
  8  9  2  0
  9 10  1  0
 10 11  2  0
 11 12  1  0
 12 13  2  0
 13 14  1  0
 14 15  1  0
 14 16  2  0
 13 17  1  0
 17 18  1  0
 18 19  2  0
 17 20  1  0
 20 21  2  0
 21  8  1  0
 20 11  1  0
  1 22  1  0
  1 23  1  0
  7 24  1  0
  7 25  1  0
  7 26  1  0
  9 27  1  0
 10 28  1  0
 12 29  1  0
 15 30  1  0
 15 31  1  0
 18 32  1  0
 21 33  1  0
M  CHG  1   5  -1
M  END
>  <UniqueID>  (94) 
94

>  <SMILES>  (94) 
C=C(C(=O)[O-])N(C)c1ccc2cc(C(N)=O)n(C=O)c2c1

>  <Energy>  (94) 
79.83425303574778

>  <Genealogy>  (94) 
C=C(C(=O)[O-])N(C)c1ccc2cc(C(N)=O)n(C=O)c2c1 (protonated)
C=C(C(=O)[O-])N(C)c1ccc2cc(C(N)=O)n(C=O)c2c1 (3D coordinates assigned)
C=C(C(=O)[O-])N(C)c1ccc2cc(C(N)=O)n(C=O)c2c1 (optimized conformer: 79.83425303574778 kcal/mol)

>  <smiles>  (94) 
C=C(C(=O)O)N(C)c1ccc2cc(C(N)=O)n(C=O)c2c1

>  <score_type>  (94) 
oracle

>  <origin>  (94) 
adg

>  <m_score__min__energy>  (94) 
-6.6600000000000001

>  <m_primary>  (94) 
energy

$$$$
94:0
     RDKit          3D

 37 38  0  0  0  0  0  0  0  0999 V2000
  149.6990  150.3730  135.2250 C   0  0  0  0  0  0  0  0  0  0  0  0
  149.9610  150.7690  133.8970 O   0  0  0  0  0  0  0  0  0  0  0  0
  148.8930  150.3890  133.0470 C   0  0  0  0  0  0  0  0  0  0  0  0
  149.1590  150.8500  131.6120 C   0  0  0  0  0  0  0  0  0  0  0  0
  149.3700  152.2610  131.5600 O   0  0  0  0  0  0  0  0  0  0  0  0
  148.5870  153.1840  132.2630 C   0  0  0  0  0  0  0  0  0  0  0  0
  147.4060  152.8990  132.6030 O   0  0  0  0  0  0  0  0  0  0  0  0
  149.1550  154.4930  132.6140 C   0  0  0  0  0  0  0  0  0  0  0  0
  150.3460  154.7570  132.3000 O   0  0  0  0  0  0  0  0  0  0  0  0
  148.3720  155.4720  133.3150 N   0  0  0  0  0  0  0  0  0  0  0  0
  147.6350  155.2910  134.4460 C   0  0  0  0  0  0  0  0  0  0  0  0
  147.4130  154.0010  135.1330 C   0  0  0  0  0  0  0  0  0  0  0  0
  148.4380  153.0100  135.1320 N   0  0  0  0  0  0  0  0  0  0  0  0
  146.3330  153.7700  135.7390 O   0  0  0  0  0  0  0  0  0  0  0  0
  147.0670  156.4960  134.8550 C   0  0  0  0  0  0  0  0  0  0  0  0
  147.4860  157.4290  133.9330 C   0  0  0  0  0  0  0  0  0  0  0  0
  147.2440  158.7970  133.8690 C   0  0  0  0  0  0  0  0  0  0  0  0
  147.8400  159.5230  132.8230 C   0  0  0  0  0  0  0  0  0  0  0  0
  148.6540  158.8730  131.8590 C   0  0  0  0  0  0  0  0  0  0  0  0
  149.3360  159.6720  130.7780 C   0  0  0  0  0  0  0  0  0  0  0  0
  149.0210  161.0080  130.9340 F   0  0  0  0  0  0  0  0  0  0  0  0
  148.9200  159.2540  129.5250 F   0  0  0  0  0  0  0  0  0  0  0  0
  150.7100  159.5200  130.8510 F   0  0  0  0  0  0  0  0  0  0  0  0
  148.8950  157.4840  131.9760 C   0  0  0  0  0  0  0  0  0  0  0  0
  148.2740  156.7850  133.0160 C   0  0  0  0  0  0  0  0  0  0  0  0
  150.1697  151.0845  135.9194 H   0  0  0  0  0  0  0  0  0  0  0  0
  148.6124  150.3584  135.3957 H   0  0  0  0  0  0  0  0  0  0  0  0
  150.1105  149.3673  135.3957 H   0  0  0  0  0  0  0  0  0  0  0  0
  148.7905  149.2939  133.0621 H   0  0  0  0  0  0  0  0  0  0  0  0
  147.9671  150.8619  133.4064 H   0  0  0  0  0  0  0  0  0  0  0  0
  150.0542  150.3378  131.2295 H   0  0  0  0  0  0  0  0  0  0  0  0
  148.2818  150.6033  130.9958 H   0  0  0  0  0  0  0  0  0  0  0  0
  148.4610  152.2620  134.4040 H   0  0  0  0  0  0  0  0  0  0  0  0
  146.4210  156.6658  135.7290 H   0  0  0  0  0  0  0  0  0  0  0  0
  146.6061  159.2955  134.6137 H   0  0  0  0  0  0  0  0  0  0  0  0
  147.6734  160.6079  132.7508 H   0  0  0  0  0  0  0  0  0  0  0  0
  149.5556  156.9657  131.2654 H   0  0  0  0  0  0  0  0  0  0  0  0
  1  2  1  0
  2  3  1  0
  3  4  1  0
  4  5  1  0
  5  6  1  0
  6  7  2  0
  6  8  1  0
  8  9  2  0
  8 10  1  0
 10 11  1  0
 11 12  1  0
 12 13  1  0
 12 14  2  0
 11 15  2  0
 15 16  1  0
 16 17  2  0
 17 18  1  0
 18 19  2  0
 19 20  1  0
 20 21  1  0
 20 22  1  0
 20 23  1  0
 19 24  1  0
 24 25  2  0
 25 10  1  0
 25 16  1  0
  1 26  1  0
  1 27  1  0
  1 28  1  0
  3 29  1  0
  3 30  1  0
  4 31  1  0
  4 32  1  0
 13 33  1  0
 15 34  1  0
 17 35  1  0
 18 36  1  0
 24 37  1  0
M  CHG  1  13  -1
M  END
>  <UniqueID>  (95) 
95

>  <SMILES>  (95) 
COCCOC(=O)C(=O)n1c(C([NH-])=O)cc2ccc(C(F)(F)F)cc21

>  <Energy>  (95) 
75.29809472285137

>  <Genealogy>  (95) 
COCCOC(=O)C(=O)n1c(C([NH-])=O)cc2ccc(C(F)(F)F)cc21 (protonated)
COCCOC(=O)C(=O)n1c(C([NH-])=O)cc2ccc(C(F)(F)F)cc21 (3D coordinates assigned)
COCCOC(=O)C(=O)n1c(C([NH-])=O)cc2ccc(C(F)(F)F)cc21 (optimized conformer: 75.29809472285137 kcal/mol)

>  <smiles>  (95) 
COCCOC(=O)C(=O)n1c(C(N)=O)cc2ccc(C(F)(F)F)cc21

>  <score_type>  (95) 
oracle

>  <origin>  (95) 
adg

>  <m_score__min__energy>  (95) 
-5.8399999999999999

>  <m_primary>  (95) 
energy

$$$$
95:0
     RDKit          3D

 40 41  0  0  0  0  0  0  0  0999 V2000
  139.0820  149.2860  131.8650 C   0  0  0  0  0  0  0  0  0  0  0  0
  140.1540  150.3220  131.8960 C   0  0  0  0  0  0  0  0  0  0  0  0
  139.8800  151.4990  132.2570 O   0  0  0  0  0  0  0  0  0  0  0  0
  141.4460  149.9810  131.4820 O   0  0  0  0  0  0  0  0  0  0  0  0
  142.4820  149.5800  132.3780 C   0  0  0  0  0  0  0  0  0  0  0  0
  143.2020  150.7880  132.9840 C   0  0  0  0  0  0  0  0  0  0  0  0
  142.4750  152.0260  132.6950 N   0  0  0  0  0  0  0  0  0  0  0  0
  142.2170  153.0560  133.6660 C   0  0  0  0  0  0  0  0  0  0  0  0
  142.0210  154.3880  133.2210 C   0  0  0  0  0  0  0  0  0  0  0  0
  141.7350  155.4190  134.1320 C   0  0  0  0  0  0  0  0  0  0  0  0
  141.6690  155.0930  135.4830 C   0  0  0  0  0  0  0  0  0  0  0  0
  141.3800  155.8810  136.5750 C   0  0  0  0  0  0  0  0  0  0  0  0
  141.4420  155.0250  137.6740 C   0  0  0  0  0  0  0  0  0  0  0  0
  141.2580  155.4690  139.0710 C   0  0  0  0  0  0  0  0  0  0  0  0
  142.2200  156.3070  139.7040 N   0  0  0  0  0  0  0  0  0  0  0  0
  140.2210  155.1320  139.7030 O   0  0  0  0  0  0  0  0  0  0  0  0
  141.7510  153.7610  137.2740 N   0  0  0  0  0  0  0  0  0  0  0  0
  141.8270  152.5710  138.0730 C   0  0  0  0  0  0  0  0  0  0  0  0
  142.9360  151.9890  138.2110 O   0  0  0  0  0  0  0  0  0  0  0  0
  140.5700  151.9290  138.5880 C   0  0  0  0  0  0  0  0  0  0  0  0
  140.0930  150.8390  137.6790 C   0  0  0  0  0  0  0  0  0  0  0  0
  139.2360  150.0070  138.0780 O   0  0  0  0  0  0  0  0  0  0  0  0
  140.6100  150.7300  136.3950 O   0  0  0  0  0  0  0  0  0  0  0  0
  141.8880  153.8190  135.9340 C   0  0  0  0  0  0  0  0  0  0  0  0
  142.1650  152.7720  135.0520 C   0  0  0  0  0  0  0  0  0  0  0  0
  138.8029  149.0163  132.8943 H   0  0  0  0  0  0  0  0  0  0  0  0
  138.2020  149.6846  131.3390 H   0  0  0  0  0  0  0  0  0  0  0  0
  139.4503  148.3929  131.3390 H   0  0  0  0  0  0  0  0  0  0  0  0
  142.0406  148.9833  133.1899 H   0  0  0  0  0  0  0  0  0  0  0  0
  143.2173  148.9897  131.8116 H   0  0  0  0  0  0  0  0  0  0  0  0
  143.2716  150.6568  134.0739 H   0  0  0  0  0  0  0  0  0  0  0  0
  144.2067  150.8578  132.5416 H   0  0  0  0  0  0  0  0  0  0  0  0
  141.9450  152.0570  131.7940 H   0  0  0  0  0  0  0  0  0  0  0  0
  142.0938  154.6175  132.1477 H   0  0  0  0  0  0  0  0  0  0  0  0
  141.5687  156.4505  133.7881 H   0  0  0  0  0  0  0  0  0  0  0  0
  141.1494  156.9565  136.5793 H   0  0  0  0  0  0  0  0  0  0  0  0
  143.2420  156.1290  139.5930 H   0  0  0  0  0  0  0  0  0  0  0  0
  140.7689  151.5026  139.5823 H   0  0  0  0  0  0  0  0  0  0  0  0
  139.7871  152.7000  138.6395 H   0  0  0  0  0  0  0  0  0  0  0  0
  142.3385  151.7519  135.4251 H   0  0  0  0  0  0  0  0  0  0  0  0
  1  2  1  0
  2  3  2  0
  2  4  1  0
  4  5  1  0
  5  6  1  0
  6  7  1  0
  7  8  1  0
  8  9  2  0
  9 10  1  0
 10 11  2  0
 11 12  1  0
 12 13  2  0
 13 14  1  0
 14 15  1  0
 14 16  2  0
 13 17  1  0
 17 18  1  0
 18 19  2  0
 18 20  1  0
 20 21  1  0
 21 22  2  0
 21 23  1  0
 17 24  1  0
 24 25  2  0
 25  8  1  0
 24 11  1  0
  1 26  1  0
  1 27  1  0
  1 28  1  0
  5 29  1  0
  5 30  1  0
  6 31  1  0
  6 32  1  0
  7 33  1  0
  9 34  1  0
 10 35  1  0
 12 36  1  0
 15 37  1  0
 20 38  1  0
 20 39  1  0
 25 40  1  0
M  CHG  2  15  -1  23  -1
M  END
>  <UniqueID>  (96) 
96

>  <SMILES>  (96) 
CC(=O)OCCNc1ccc2cc(C([NH-])=O)n(C(=O)CC(=O)[O-])c2c1

>  <Energy>  (96) 
72.91066943493017

>  <Genealogy>  (96) 
CC(=O)OCCNc1ccc2cc(C([NH-])=O)n(C(=O)CC(=O)[O-])c2c1 (protonated)
CC(=O)OCCNc1ccc2cc(C([NH-])=O)n(C(=O)CC(=O)[O-])c2c1 (3D coordinates assigned)
CC(=O)OCCNc1ccc2cc(C([NH-])=O)n(C(=O)CC(=O)[O-])c2c1 (optimized conformer: 72.91066943493017 kcal/mol)

>  <smiles>  (96) 
CC(=O)OCCNc1ccc2cc(C(N)=O)n(C(=O)CC(=O)O)c2c1

>  <score_type>  (96) 
oracle

>  <origin>  (96) 
adg

>  <m_score__min__energy>  (96) 
-6.6299999999999999

>  <m_primary>  (96) 
energy

$$$$
96:0
     RDKit          3D

 36 37  0  0  0  0  0  0  0  0999 V2000
  143.7930  156.9340  133.5200 H   0  0  0  0  0  0  0  0  0  0  0  0
  144.5920  156.2640  133.5610 N   0  0  0  0  0  0  0  0  0  0  0  0
  145.8410  156.6450  134.1300 C   0  0  0  0  0  0  0  0  0  0  0  0
  146.1950  156.1480  135.2330 O   0  0  0  0  0  0  0  0  0  0  0  0
  146.7530  157.5630  133.4160 C   0  0  0  0  0  0  0  0  0  0  0  0
  148.0430  157.2100  133.0270 C   0  0  0  0  0  0  0  0  0  0  0  0
  148.5713  156.2697  133.2432 H   0  0  0  0  0  0  0  0  0  0  0  0
  148.5160  158.2890  132.3140 C   0  0  0  0  0  0  0  0  0  0  0  0
  149.7510  158.4860  131.7040 C   0  0  0  0  0  0  0  0  0  0  0  0
  150.5260  157.7057  131.7268 H   0  0  0  0  0  0  0  0  0  0  0  0
  149.9770  159.7130  131.0580 C   0  0  0  0  0  0  0  0  0  0  0  0
  150.9436  159.9002  130.5675 H   0  0  0  0  0  0  0  0  0  0  0  0
  148.9730  160.7110  131.0320 C   0  0  0  0  0  0  0  0  0  0  0  0
  149.2500  162.0310  130.3760 C   0  0  0  0  0  0  0  0  0  0  0  0
  149.4109  162.7976  131.1483 H   0  0  0  0  0  0  0  0  0  0  0  0
  150.1501  161.9473  129.7493 H   0  0  0  0  0  0  0  0  0  0  0  0
  148.3921  162.3162  129.7493 H   0  0  0  0  0  0  0  0  0  0  0  0
  147.7380  160.4830  131.6770 C   0  0  0  0  0  0  0  0  0  0  0  0
  146.9580  161.2585  131.6932 H   0  0  0  0  0  0  0  0  0  0  0  0
  147.5320  159.2430  132.2960 C   0  0  0  0  0  0  0  0  0  0  0  0
  146.4440  158.8150  132.9730 N   0  0  0  0  0  0  0  0  0  0  0  0
  145.2580  159.5760  133.2470 C   0  0  0  0  0  0  0  0  0  0  0  0
  145.3620  160.7220  133.7610 O   0  0  0  0  0  0  0  0  0  0  0  0
  143.9700  159.0050  132.9550 N   0  0  0  0  0  0  0  0  0  0  0  0
  142.8720  159.0450  133.6590 C   0  0  0  0  0  0  0  0  0  0  0  0
  141.6790  158.3810  133.1010 C   0  0  0  0  0  0  0  0  0  0  0  0
  141.6720  157.1360  132.8990 O   0  0  0  0  0  0  0  0  0  0  0  0
  140.5470  159.1470  132.8000 O   0  0  0  0  0  0  0  0  0  0  0  0
  139.3850  158.5970  132.1920 C   0  0  0  0  0  0  0  0  0  0  0  0
  138.6846  158.2655  132.9728 H   0  0  0  0  0  0  0  0  0  0  0  0
  138.9015  159.3618  131.5665 H   0  0  0  0  0  0  0  0  0  0  0  0
  139.6700  157.7382  131.5665 H   0  0  0  0  0  0  0  0  0  0  0  0
  142.7960  159.7490  134.9920 C   0  0  0  0  0  0  0  0  0  0  0  0
  142.8758  159.0094  135.8023 H   0  0  0  0  0  0  0  0  0  0  0  0
  143.6214  160.4717  135.0726 H   0  0  0  0  0  0  0  0  0  0  0  0
  141.8354  160.2789  135.0726 H   0  0  0  0  0  0  0  0  0  0  0  0
  1  2  1  0
  2  3  1  0
  3  4  2  0
  3  5  1  0
  5  6  2  0
  6  7  1  0
  6  8  1  0
  8  9  2  0
  9 10  1  0
  9 11  1  0
 11 12  1  0
 11 13  2  0
 13 14  1  0
 14 15  1  0
 14 16  1  0
 14 17  1  0
 13 18  1  0
 18 19  1  0
 18 20  2  0
 20 21  1  0
 21 22  1  0
 22 23  2  0
 22 24  1  0
 24 25  2  0
 25 26  1  0
 26 27  2  0
 26 28  1  0
 28 29  1  0
 29 30  1  0
 29 31  1  0
 29 32  1  0
 25 33  1  0
 33 34  1  0
 33 35  1  0
 33 36  1  0
 21  5  1  0
 20  8  1  0
M  CHG  1   2  -1
M  END
>  <UniqueID>  (97) 
97

>  <SMILES>  (97) 
COC(=O)/C(C)=N/C(=O)n1c(C([NH-])=O)cc2ccc(C)cc21

>  <Energy>  (97) 
75.15994669701236

>  <Genealogy>  (97) 
COC(=O)/C(C)=N/C(=O)n1c(C([NH-])=O)cc2ccc(C)cc21 (protonated)
COC(=O)/C(C)=N/C(=O)n1c(C([NH-])=O)cc2ccc(C)cc21 (cis-trans isomerization)
COC(=O)/C(C)=N/C(=O)n1c(C([NH-])=O)cc2ccc(C)cc21 (3D coordinates assigned)
COC(=O)/C(C)=N/C(=O)n1c(C([NH-])=O)cc2ccc(C)cc21 (optimized conformer: 75.15994669701236 kcal/mol)

>  <smiles>  (97) 
COC(=O)/C(C)=N/C(=O)n1c(C(N)=O)cc2ccc(C)cc21

>  <score_type>  (97) 
oracle

>  <origin>  (97) 
adg

>  <m_score__min__energy>  (97) 
-6.5199999999999996

>  <m_primary>  (97) 
energy

$$$$
97:0
     RDKit          3D

 42 43  0  0  0  0  0  0  0  0999 V2000
  141.3380  148.8790  131.8510 C   0  0  0  0  0  0  0  0  0  0  0  0
  140.9350  149.3150  133.1310 O   0  0  0  0  0  0  0  0  0  0  0  0
  141.3730  150.6420  133.3670 C   0  0  0  0  0  0  0  0  0  0  0  0
  142.7570  150.8450  132.7540 C   0  0  0  0  0  0  0  0  0  0  0  0
  143.2770  152.1310  133.0880 O   0  0  0  0  0  0  0  0  0  0  0  0
  144.5880  152.5320  132.8000 C   0  0  0  0  0  0  0  0  0  0  0  0
  145.4740  151.6700  132.5490 O   0  0  0  0  0  0  0  0  0  0  0  0
  144.9210  153.9330  132.8030 N   0  0  0  0  0  0  0  0  0  0  0  0
  144.3590  154.7980  131.7620 C   0  0  0  0  0  0  0  0  0  0  0  0
  145.8910  154.4640  133.7290 C   0  0  0  0  0  0  0  0  0  0  0  0
  145.8200  154.1690  134.9530 O   0  0  0  0  0  0  0  0  0  0  0  0
  146.9250  155.3590  133.2820 N   0  0  0  0  0  0  0  0  0  0  0  0
  148.2070  155.0480  132.9430 C   0  0  0  0  0  0  0  0  0  0  0  0
  148.7710  153.6850  132.8560 C   0  0  0  0  0  0  0  0  0  0  0  0
  148.1210  152.6040  133.5200 N   0  0  0  0  0  0  0  0  0  0  0  0
  149.8340  153.4670  132.2190 O   0  0  0  0  0  0  0  0  0  0  0  0
  148.9170  156.2030  132.6180 C   0  0  0  0  0  0  0  0  0  0  0  0
  148.0230  157.2380  132.7740 C   0  0  0  0  0  0  0  0  0  0  0  0
  148.1940  158.6070  132.5910 C   0  0  0  0  0  0  0  0  0  0  0  0
  147.0970  159.4470  132.8440 C   0  0  0  0  0  0  0  0  0  0  0  0
  145.8590  158.9090  133.2780 C   0  0  0  0  0  0  0  0  0  0  0  0
  144.7000  159.8250  133.5490 C   0  0  0  0  0  0  0  0  0  0  0  0
  145.1090  160.8630  134.3660 F   0  0  0  0  0  0  0  0  0  0  0  0
  143.6870  159.1230  134.1740 F   0  0  0  0  0  0  0  0  0  0  0  0
  145.7240  157.5140  133.4550 C   0  0  0  0  0  0  0  0  0  0  0  0
  146.8280  156.7020  133.1790 C   0  0  0  0  0  0  0  0  0  0  0  0
  142.0813  148.0748  131.9548 H   0  0  0  0  0  0  0  0  0  0  0  0
  140.4639  148.5015  131.3002 H   0  0  0  0  0  0  0  0  0  0  0  0
  141.7830  149.7208  131.3002 H   0  0  0  0  0  0  0  0  0  0  0  0
  140.6637  151.3477  132.9099 H   0  0  0  0  0  0  0  0  0  0  0  0
  141.4255  150.8204  134.4512 H   0  0  0  0  0  0  0  0  0  0  0  0
  143.4378  150.0705  133.1369 H   0  0  0  0  0  0  0  0  0  0  0  0
  142.6711  150.7735  131.6597 H   0  0  0  0  0  0  0  0  0  0  0  0
  143.8170  155.6322  132.2315 H   0  0  0  0  0  0  0  0  0  0  0  0
  145.1722  155.1949  131.1365 H   0  0  0  0  0  0  0  0  0  0  0  0
  143.6659  154.2162  131.1365 H   0  0  0  0  0  0  0  0  0  0  0  0
  147.0980  152.6360  133.7230 H   0  0  0  0  0  0  0  0  0  0  0  0
  149.9688  156.2725  132.3035 H   0  0  0  0  0  0  0  0  0  0  0  0
  149.1584  159.0185  132.2585 H   0  0  0  0  0  0  0  0  0  0  0  0
  147.1994  160.5332  132.7040 H   0  0  0  0  0  0  0  0  0  0  0  0
  144.3305  160.2308  132.5957 H   0  0  0  0  0  0  0  0  0  0  0  0
  144.7751  157.0781  133.8009 H   0  0  0  0  0  0  0  0  0  0  0  0
  1  2  1  0
  2  3  1  0
  3  4  1  0
  4  5  1  0
  5  6  1  0
  6  7  2  0
  6  8  1  0
  8  9  1  0
  8 10  1  0
 10 11  2  0
 10 12  1  0
 12 13  1  0
 13 14  1  0
 14 15  1  0
 14 16  2  0
 13 17  2  0
 17 18  1  0
 18 19  2  0
 19 20  1  0
 20 21  2  0
 21 22  1  0
 22 23  1  0
 22 24  1  0
 21 25  1  0
 25 26  2  0
 26 12  1  0
 26 18  1  0
  1 27  1  0
  1 28  1  0
  1 29  1  0
  3 30  1  0
  3 31  1  0
  4 32  1  0
  4 33  1  0
  9 34  1  0
  9 35  1  0
  9 36  1  0
 15 37  1  0
 17 38  1  0
 19 39  1  0
 20 40  1  0
 22 41  1  0
 25 42  1  0
M  CHG  1  15  -1
M  END
>  <UniqueID>  (98) 
98

>  <SMILES>  (98) 
COCCOC(=O)N(C)C(=O)n1c(C([NH-])=O)cc2ccc(C(F)F)cc21

>  <Energy>  (98) 
80.27540672550556

>  <Genealogy>  (98) 
COCCOC(=O)N(C)C(=O)n1c(C([NH-])=O)cc2ccc(C(F)F)cc21 (protonated)
COCCOC(=O)N(C)C(=O)n1c(C([NH-])=O)cc2ccc(C(F)F)cc21 (3D coordinates assigned)
COCCOC(=O)N(C)C(=O)n1c(C([NH-])=O)cc2ccc(C(F)F)cc21 (optimized conformer: 80.27540672550556 kcal/mol)

>  <smiles>  (98) 
COCCOC(=O)N(C)C(=O)n1c(C(N)=O)cc2ccc(C(F)F)cc21

>  <score_type>  (98) 
oracle

>  <origin>  (98) 
adg

>  <m_score__min__energy>  (98) 
-5.4800000000000004

>  <m_primary>  (98) 
energy

$$$$
