0:0
     RDKit          3D

 37 38  0  0  0  0  0  0  0  0999 V2000
  141.5120  158.6490  132.9950 C   0  0  0  0  0  0  0  0  0  0  0  0
  142.7090  159.3480  133.6670 C   0  0  0  0  0  0  0  0  0  0  0  0
  142.8530  158.8160  135.1020 C   0  0  0  0  0  0  0  0  0  0  0  0
  142.4920  160.8720  133.7210 C   0  0  0  0  0  0  0  0  0  0  0  0
  143.9280  159.0350  132.9780 O   0  0  0  0  0  0  0  0  0  0  0  0
  145.2070  159.5220  133.2860 C   0  0  0  0  0  0  0  0  0  0  0  0
  145.3600  160.6740  133.7770 O   0  0  0  0  0  0  0  0  0  0  0  0
  146.3560  158.6970  133.0390 N   0  0  0  0  0  0  0  0  0  0  0  0
  146.5910  157.4380  133.5040 C   0  0  0  0  0  0  0  0  0  0  0  0
  145.6260  156.5930  134.2370 C   0  0  0  0  0  0  0  0  0  0  0  0
  144.2690  156.4760  133.8060 N   0  0  0  0  0  0  0  0  0  0  0  0
  146.0190  155.9220  135.2260 O   0  0  0  0  0  0  0  0  0  0  0  0
  147.8680  157.0130  133.1510 C   0  0  0  0  0  0  0  0  0  0  0  0
  148.4130  158.0550  132.4350 C   0  0  0  0  0  0  0  0  0  0  0  0
  149.6700  158.1790  131.8530 C   0  0  0  0  0  0  0  0  0  0  0  0
  149.9800  159.3870  131.2050 C   0  0  0  0  0  0  0  0  0  0  0  0
  149.0380  160.4410  131.1600 C   0  0  0  0  0  0  0  0  0  0  0  0
  149.3700  161.6710  130.5090 N   0  0  0  0  0  0  0  0  0  0  0  0
  147.7720  160.2830  131.7630 C   0  0  0  0  0  0  0  0  0  0  0  0
  147.4800  159.0610  132.3820 C   0  0  0  0  0  0  0  0  0  0  0  0
  140.8364  158.2545  133.7682 H   0  0  0  0  0  0  0  0  0  0  0  0
  140.9695  159.3723  132.3684 H   0  0  0  0  0  0  0  0  0  0  0  0
  141.8753  157.8211  132.3684 H   0  0  0  0  0  0  0  0  0  0  0  0
  142.6344  159.6236  135.8161 H   0  0  0  0  0  0  0  0  0  0  0  0
  142.1469  157.9872  135.2584 H   0  0  0  0  0  0  0  0  0  0  0  0
  143.8808  158.4565  135.2584 H   0  0  0  0  0  0  0  0  0  0  0  0
  142.4455  161.1988  134.7703 H   0  0  0  0  0  0  0  0  0  0  0  0
  143.3270  161.3794  133.2156 H   0  0  0  0  0  0  0  0  0  0  0  0
  141.5486  161.1262  133.2156 H   0  0  0  0  0  0  0  0  0  0  0  0
  143.9540  156.8780  132.8970 H   0  0  0  0  0  0  0  0  0  0  0  0
  143.5910  155.9080  134.3620 H   0  0  0  0  0  0  0  0  0  0  0  0
  148.3412  156.0498  133.3925 H   0  0  0  0  0  0  0  0  0  0  0  0
  150.3993  157.3568  131.8984 H   0  0  0  0  0  0  0  0  0  0  0  0
  150.9635  159.5138  130.7289 H   0  0  0  0  0  0  0  0  0  0  0  0
  148.6560  162.1900  129.9520 H   0  0  0  0  0  0  0  0  0  0  0  0
  150.3320  162.0700  130.5820 H   0  0  0  0  0  0  0  0  0  0  0  0
  147.0337  161.0983  131.7473 H   0  0  0  0  0  0  0  0  0  0  0  0
  1  2  1  0
  2  3  1  0
  2  4  1  0
  2  5  1  0
  5  6  1  0
  6  7  2  0
  6  8  1  0
  8  9  1  0
  9 10  1  0
 10 11  1  0
 10 12  2  0
  9 13  2  0
 13 14  1  0
 14 15  2  0
 15 16  1  0
 16 17  2  0
 17 18  1  0
 17 19  1  0
 19 20  2  0
 20  8  1  0
 20 14  1  0
  1 21  1  0
  1 22  1  0
  1 23  1  0
  3 24  1  0
  3 25  1  0
  3 26  1  0
  4 27  1  0
  4 28  1  0
  4 29  1  0
 11 30  1  0
 11 31  1  0
 13 32  1  0
 15 33  1  0
 16 34  1  0
 18 35  1  0
 18 36  1  0
 19 37  1  0
M  END
>  <UniqueID>  (1) 
1

>  <SMILES>  (1) 
CC(C)(C)OC(=O)n1c(C(N)=O)cc2ccc(N)cc21

>  <Energy>  (1) 
70.51434455256684

>  <Genealogy>  (1) 
CC(C)(C)OC(=O)n1c(C(N)=O)cc2ccc(N)cc21 (3D coordinates assigned)
CC(C)(C)OC(=O)n1c(C(N)=O)cc2ccc(N)cc21 (optimized conformer: 70.51434455256684 kcal/mol)

>  <smiles>  (1) 
CC(C)(C)OC(=O)n1c(C(N)=O)cc2ccc(N)cc21

>  <score_type>  (1) 
oracle

>  <origin>  (1) 
adg

>  <m_score__min__energy>  (1) 
-6.5199999999999996

>  <m_primary>  (1) 
energy

$$$$
1:0
     RDKit          3D

 50 53  0  0  0  0  0  0  0  0999 V2000
  140.2030  159.7360  132.7880 C   0  0  0  0  0  0  0  0  0  0  0  0
  139.4670  158.4010  132.6010 C   0  0  0  0  0  0  0  0  0  0  0  0
  138.4740  158.5370  131.4330 C   0  0  0  0  0  0  0  0  0  0  0  0
  138.7290  158.0520  133.9070 C   0  0  0  0  0  0  0  0  0  0  0  0
  140.4620  157.4100  132.3050 O   0  0  0  0  0  0  0  0  0  0  0  0
  141.7370  157.3100  132.8850 C   0  0  0  0  0  0  0  0  0  0  0  0
  142.7660  157.6780  132.2580 O   0  0  0  0  0  0  0  0  0  0  0  0
  141.8660  156.7490  134.1990 N   0  0  0  0  0  0  0  0  0  0  0  0
  142.1050  157.4000  135.3730 C   0  0  0  0  0  0  0  0  0  0  0  0
  142.1330  158.8650  135.5630 C   0  0  0  0  0  0  0  0  0  0  0  0
  142.7270  159.7210  134.5900 N   0  0  0  0  0  0  0  0  0  0  0  0
  141.5840  159.3730  136.5770 O   0  0  0  0  0  0  0  0  0  0  0  0
  142.2380  156.4890  136.4180 C   0  0  0  0  0  0  0  0  0  0  0  0
  142.0620  155.2490  135.8460 C   0  0  0  0  0  0  0  0  0  0  0  0
  142.0970  153.9830  136.4230 C   0  0  0  0  0  0  0  0  0  0  0  0
  141.9060  152.8710  135.5850 C   0  0  0  0  0  0  0  0  0  0  0  0
  141.6930  153.0390  134.1910 C   0  0  0  0  0  0  0  0  0  0  0  0
  141.5010  151.8590  133.3120 C   0  0  0  0  0  0  0  0  0  0  0  0
  142.5960  151.0450  132.9640 C   0  0  0  0  0  0  0  0  0  0  0  0
  142.4230  149.9310  132.1390 C   0  0  0  0  0  0  0  0  0  0  0  0
  141.1520  149.6070  131.6480 C   0  0  0  0  0  0  0  0  0  0  0  0
  140.9680  148.4890  130.8190 C   0  0  0  0  0  0  0  0  0  0  0  0
  139.6940  148.1750  130.3360 C   0  0  0  0  0  0  0  0  0  0  0  0
  139.5220  147.0930  129.5370 F   0  0  0  0  0  0  0  0  0  0  0  0
  138.5980  148.9710  130.6770 C   0  0  0  0  0  0  0  0  0  0  0  0
  138.7680  150.0880  131.5000 C   0  0  0  0  0  0  0  0  0  0  0  0
  140.0420  150.4150  131.9910 C   0  0  0  0  0  0  0  0  0  0  0  0
  140.2250  151.5330  132.8190 C   0  0  0  0  0  0  0  0  0  0  0  0
  141.6670  154.3450  133.6450 C   0  0  0  0  0  0  0  0  0  0  0  0
  141.8400  155.4330  134.5070 C   0  0  0  0  0  0  0  0  0  0  0  0
  140.3177  159.9441  133.8620 H   0  0  0  0  0  0  0  0  0  0  0  0
  141.1957  159.6764  132.3179 H   0  0  0  0  0  0  0  0  0  0  0  0
  139.6227  160.5436  132.3179 H   0  0  0  0  0  0  0  0  0  0  0  0
  137.4577  158.6762  131.8301 H   0  0  0  0  0  0  0  0  0  0  0  0
  138.7492  159.4058  130.8171 H   0  0  0  0  0  0  0  0  0  0  0  0
  138.5054  157.6262  130.8171 H   0  0  0  0  0  0  0  0  0  0  0  0
  139.3483  158.3449  134.7676 H   0  0  0  0  0  0  0  0  0  0  0  0
  137.7718  158.5929  133.9431 H   0  0  0  0  0  0  0  0  0  0  0  0
  138.5398  156.9690  133.9431 H   0  0  0  0  0  0  0  0  0  0  0  0
  142.8710  159.3980  133.6080 H   0  0  0  0  0  0  0  0  0  0  0  0
  142.4407  156.7126  137.4758 H   0  0  0  0  0  0  0  0  0  0  0  0
  142.2689  153.8566  137.5021 H   0  0  0  0  0  0  0  0  0  0  0  0
  141.9217  151.8583  136.0141 H   0  0  0  0  0  0  0  0  0  0  0  0
  143.5983  151.2889  133.3459 H   0  0  0  0  0  0  0  0  0  0  0  0
  143.2884  149.3059  131.8740 H   0  0  0  0  0  0  0  0  0  0  0  0
  141.8281  147.8586  130.5489 H   0  0  0  0  0  0  0  0  0  0  0  0
  137.5974  148.7179  130.2965 H   0  0  0  0  0  0  0  0  0  0  0  0
  137.9015  150.7123  131.7636 H   0  0  0  0  0  0  0  0  0  0  0  0
  139.3617  152.1607  133.0851 H   0  0  0  0  0  0  0  0  0  0  0  0
  141.5142  154.5007  132.5669 H   0  0  0  0  0  0  0  0  0  0  0  0
  1  2  1  0
  2  3  1  0
  2  4  1  0
  2  5  1  0
  5  6  1  0
  6  7  2  0
  6  8  1  0
  8  9  1  0
  9 10  1  0
 10 11  1  0
 10 12  2  0
  9 13  2  0
 13 14  1  0
 14 15  2  0
 15 16  1  0
 16 17  2  0
 17 18  1  0
 18 19  2  0
 19 20  1  0
 20 21  2  0
 21 22  1  0
 22 23  2  0
 23 24  1  0
 23 25  1  0
 25 26  2  0
 26 27  1  0
 27 28  2  0
 17 29  1  0
 29 30  2  0
 30  8  1  0
 30 14  1  0
 28 18  1  0
 27 21  1  0
  1 31  1  0
  1 32  1  0
  1 33  1  0
  3 34  1  0
  3 35  1  0
  3 36  1  0
  4 37  1  0
  4 38  1  0
  4 39  1  0
 11 40  1  0
 13 41  1  0
 15 42  1  0
 16 43  1  0
 19 44  1  0
 20 45  1  0
 22 46  1  0
 25 47  1  0
 26 48  1  0
 28 49  1  0
 29 50  1  0
M  CHG  1  11  -1
M  END
>  <UniqueID>  (2) 
2

>  <SMILES>  (2) 
CC(C)(C)OC(=O)n1c(C([NH-])=O)cc2ccc(-c3ccc4cc(F)ccc4c3)cc21

>  <Energy>  (2) 
96.58727067617217

>  <Genealogy>  (2) 
CC(C)(C)OC(=O)n1c(C([NH-])=O)cc2ccc(-c3ccc4cc(F)ccc4c3)cc21 (protonated)
CC(C)(C)OC(=O)n1c(C([NH-])=O)cc2ccc(-c3ccc4cc(F)ccc4c3)cc21 (3D coordinates assigned)
CC(C)(C)OC(=O)n1c(C([NH-])=O)cc2ccc(-c3ccc4cc(F)ccc4c3)cc21 (optimized conformer: 96.58727067617217 kcal/mol)

>  <smiles>  (2) 
CC(C)(C)OC(=O)n1c(C(N)=O)cc2ccc(-c3ccc4cc(F)ccc4c3)cc21

>  <score_type>  (2) 
oracle

>  <origin>  (2) 
adg

>  <m_score__min__energy>  (2) 
-10.199999999999999

>  <m_primary>  (2) 
energy

$$$$
2:0
     RDKit          3D

 59 62  0  0  0  0  0  0  0  0999 V2000
  147.7440  156.5510  132.6350 C   0  0  0  0  0  0  0  0  0  0  0  0
  148.0480  158.0370  132.8750 C   0  0  0  0  0  0  0  0  0  0  0  0
  149.1750  158.4740  131.9190 C   0  0  0  0  0  0  0  0  0  0  0  0
  148.4750  158.2290  134.3430 C   0  0  0  0  0  0  0  0  0  0  0  0
  146.8400  158.7640  132.6050 O   0  0  0  0  0  0  0  0  0  0  0  0
  146.3840  159.9060  133.2820 C   0  0  0  0  0  0  0  0  0  0  0  0
  147.1850  160.8200  133.6170 O   0  0  0  0  0  0  0  0  0  0  0  0
  144.9900  160.0240  133.6090 N   0  0  0  0  0  0  0  0  0  0  0  0
  144.2990  161.1630  133.8960 C   0  0  0  0  0  0  0  0  0  0  0  0
  144.8810  162.5040  134.1040 C   0  0  0  0  0  0  0  0  0  0  0  0
  145.9450  162.7060  135.0280 N   0  0  0  0  0  0  0  0  0  0  0  0
  144.3990  163.4960  133.4920 O   0  0  0  0  0  0  0  0  0  0  0  0
  142.9430  160.8860  134.0540 C   0  0  0  0  0  0  0  0  0  0  0  0
  142.8240  159.5300  133.8650 C   0  0  0  0  0  0  0  0  0  0  0  0
  141.6950  158.7200  133.8960 C   0  0  0  0  0  0  0  0  0  0  0  0
  141.8590  157.3500  133.6380 C   0  0  0  0  0  0  0  0  0  0  0  0
  143.1370  156.8100  133.3470 C   0  0  0  0  0  0  0  0  0  0  0  0
  143.2500  155.3970  133.0820 N   0  0  0  0  0  0  0  0  0  0  0  0
  143.7310  154.4000  134.0500 C   0  0  2  0  0  0  0  0  0  0  0  0
  144.5270  153.2720  133.3250 C   0  0  0  0  0  0  0  0  0  0  0  0
  143.7220  151.9900  132.9820 C   0  0  0  0  0  0  0  0  0  0  0  0
  142.2030  152.2470  132.9260 C   0  0  1  0  0  0  0  0  0  0  0  0
  141.3510  151.0390  132.5790 C   0  0  0  0  0  0  0  0  0  0  0  0
  141.9680  149.7720  132.5660 C   0  0  0  0  0  0  0  0  0  0  0  0
  141.2410  148.6280  132.2280 C   0  0  0  0  0  0  0  0  0  0  0  0
  139.8890  148.7320  131.8920 C   0  0  0  0  0  0  0  0  0  0  0  0
  139.2650  149.9820  131.8880 C   0  0  0  0  0  0  0  0  0  0  0  0
  139.9880  151.1310  132.2190 C   0  0  0  0  0  0  0  0  0  0  0  0
  141.7820  152.7910  134.2100 N   0  0  0  0  0  0  0  0  0  0  0  0
  142.5540  153.8330  134.8030 C   0  0  0  0  0  0  0  0  0  0  0  0
  142.2310  154.2890  135.9310 O   0  0  0  0  0  0  0  0  0  0  0  0
  144.2620  157.6710  133.3130 C   0  0  0  0  0  0  0  0  0  0  0  0
  144.0730  159.0300  133.5980 C   0  0  0  0  0  0  0  0  0  0  0  0
  147.6389  156.0374  133.6020 H   0  0  0  0  0  0  0  0  0  0  0  0
  146.8077  156.4556  132.0655 H   0  0  0  0  0  0  0  0  0  0  0  0
  148.5676  156.0956  132.0655 H   0  0  0  0  0  0  0  0  0  0  0  0
  150.0430  158.8106  132.5050 H   0  0  0  0  0  0  0  0  0  0  0  0
  149.4679  157.6243  131.2848 H   0  0  0  0  0  0  0  0  0  0  0  0
  148.8185  159.2991  131.2848 H   0  0  0  0  0  0  0  0  0  0  0  0
  147.6755  157.8695  135.0074 H   0  0  0  0  0  0  0  0  0  0  0  0
  149.3955  157.6581  134.5348 H   0  0  0  0  0  0  0  0  0  0  0  0
  148.6589  159.2964  134.5348 H   0  0  0  0  0  0  0  0  0  0  0  0
  146.9420  162.6540  134.7210 H   0  0  0  0  0  0  0  0  0  0  0  0
  142.1384  161.6007  134.2817 H   0  0  0  0  0  0  0  0  0  0  0  0
  140.7025  159.1400  134.1162 H   0  0  0  0  0  0  0  0  0  0  0  0
  140.9827  156.6855  133.6620 H   0  0  0  0  0  0  0  0  0  0  0  0
  142.8870  155.0550  132.1630 H   0  0  0  0  0  0  0  0  0  0  0  0
  144.4146  154.8824  134.7641 H   0  0  0  0  0  0  0  0  0  0  0  0
  144.9184  153.6864  132.3842 H   0  0  0  0  0  0  0  0  0  0  0  0
  145.3067  152.9545  134.0330 H   0  0  0  0  0  0  0  0  0  0  0  0
  144.0534  151.6165  132.0019 H   0  0  0  0  0  0  0  0  0  0  0  0
  143.9084  151.2540  133.7780 H   0  0  0  0  0  0  0  0  0  0  0  0
  142.0407  152.9537  132.0988 H   0  0  0  0  0  0  0  0  0  0  0  0
  143.0334  149.6829  132.8248 H   0  0  0  0  0  0  0  0  0  0  0  0
  141.7335  147.6444  132.2264 H   0  0  0  0  0  0  0  0  0  0  0  0
  139.3160  147.8301  131.6307 H   0  0  0  0  0  0  0  0  0  0  0  0
  138.2003  150.0620  131.6232 H   0  0  0  0  0  0  0  0  0  0  0  0
  139.4929  152.1131  132.1991 H   0  0  0  0  0  0  0  0  0  0  0  0
  145.2612  157.2814  133.0684 H   0  0  0  0  0  0  0  0  0  0  0  0
  1  2  1  0
  2  3  1  0
  2  4  1  0
  2  5  1  0
  5  6  1  0
  6  7  2  0
  6  8  1  0
  8  9  1  0
  9 10  1  0
 10 11  1  0
 10 12  2  0
  9 13  2  0
 13 14  1  0
 14 15  2  0
 15 16  1  0
 16 17  2  0
 17 18  1  0
 18 19  1  0
 19 20  1  0
 20 21  1  0
 21 22  1  0
 22 23  1  0
 23 24  2  0
 24 25  1  0
 25 26  2  0
 26 27  1  0
 27 28  2  0
 22 29  1  0
 29 30  1  0
 30 31  2  0
 17 32  1  0
 32 33  2  0
 33  8  1  0
 33 14  1  0
 30 19  1  0
 28 23  1  0
  1 34  1  0
  1 35  1  0
  1 36  1  0
  3 37  1  0
  3 38  1  0
  3 39  1  0
  4 40  1  0
  4 41  1  0
  4 42  1  0
 11 43  1  0
 13 44  1  0
 15 45  1  0
 16 46  1  0
 18 47  1  0
 19 48  1  1
 20 49  1  0
 20 50  1  0
 21 51  1  0
 21 52  1  0
 22 53  1  6
 24 54  1  0
 25 55  1  0
 26 56  1  0
 27 57  1  0
 28 58  1  0
 32 59  1  0
M  CHG  2  11  -1  29  -1
M  END
>  <UniqueID>  (3) 
3

>  <SMILES>  (3) 
CC(C)(C)OC(=O)n1c(C([NH-])=O)cc2ccc(N[C@@H]3CC[C@@H](c4ccccc4)[N-]C3=O)cc21

>  <Energy>  (3) 
103.82797388032364

>  <Genealogy>  (3) 
CC(C)(C)OC(=O)n1c(C([NH-])=O)cc2ccc(NC3CCC(c4ccccc4)[N-]C3=O)cc21 (protonated)
CC(C)(C)OC(=O)n1c(C([NH-])=O)cc2ccc(N[C@@H]3CC[C@@H](c4ccccc4)[N-]C3=O)cc21 (chirality)
CC(C)(C)OC(=O)n1c(C([NH-])=O)cc2ccc(N[C@@H]3CC[C@@H](c4ccccc4)[N-]C3=O)cc21 (3D coordinates assigned)
CC(C)(C)OC(=O)n1c(C([NH-])=O)cc2ccc(N[C@@H]3CC[C@@H](c4ccccc4)[N-]C3=O)cc21 (nonaromatic ring conformer: 103.82797388032364 kcal/mol)

>  <smiles>  (3) 
CC(C)(C)OC(=O)n1c(C(N)=O)cc2ccc(NC3CCC(c4ccccc4)NC3=O)cc21

>  <score_type>  (3) 
oracle

>  <origin>  (3) 
adg

>  <m_score__min__energy>  (3) 
-10.82

>  <m_primary>  (3) 
energy

$$$$
3:0
     RDKit          3D

 52 55  0  0  0  0  0  0  0  0999 V2000
  141.1100  158.1210  136.8490 C   0  0  0  0  0  0  0  0  0  0  0  0
  140.5590  157.1730  135.7740 C   0  0  0  0  0  0  0  0  0  0  0  0
  139.4460  157.8510  134.9670 C   0  0  0  0  0  0  0  0  0  0  0  0
  141.6100  156.6580  134.8690 N   0  0  0  0  0  0  0  0  0  0  0  0
  141.5620  155.2870  134.4320 C   0  0  0  0  0  0  0  0  0  0  0  0
  140.6620  154.9030  133.4220 C   0  0  0  0  0  0  0  0  0  0  0  0
  140.6190  153.5770  132.9850 C   0  0  0  0  0  0  0  0  0  0  0  0
  141.4870  152.6190  133.5350 C   0  0  0  0  0  0  0  0  0  0  0  0
  141.4400  151.2210  133.0590 C   0  0  0  0  0  0  0  0  0  0  0  0
  142.5090  150.5570  132.9950 O   0  0  0  0  0  0  0  0  0  0  0  0
  140.2080  150.5870  132.6900 N   0  0  0  0  0  0  0  0  0  0  0  0
  139.8310  150.2980  131.3120 C   0  0  0  0  0  0  0  0  0  0  0  0
  140.1550  148.8830  130.8630 C   0  0  0  0  0  0  0  0  0  0  0  0
  138.7270  149.2600  131.2220 C   0  0  0  0  0  0  0  0  0  0  0  0
  142.3760  152.9980  134.5540 C   0  0  0  0  0  0  0  0  0  0  0  0
  142.4170  154.3240  134.9970 C   0  0  0  0  0  0  0  0  0  0  0  0
  142.6560  157.4910  134.3390 C   0  0  0  0  0  0  0  0  0  0  0  0
  142.3570  158.8210  133.9650 C   0  0  0  0  0  0  0  0  0  0  0  0
  143.3590  159.6590  133.4480 C   0  0  0  0  0  0  0  0  0  0  0  0
  144.6520  159.1500  133.3470 C   0  0  0  0  0  0  0  0  0  0  0  0
  145.7990  159.7450  132.8770 C   0  0  0  0  0  0  0  0  0  0  0  0
  146.7980  158.7910  133.0350 C   0  0  0  0  0  0  0  0  0  0  0  0
  148.2090  159.0530  132.7260 C   0  0  0  0  0  0  0  0  0  0  0  0
  148.8380  158.3540  131.6600 N   0  0  0  0  0  0  0  0  0  0  0  0
  148.8550  159.9170  133.3800 O   0  0  0  0  0  0  0  0  0  0  0  0
  146.2960  157.6360  133.5580 N   0  0  0  0  0  0  0  0  0  0  0  0
  147.0100  156.4010  133.7690 C   0  0  0  0  0  0  0  0  0  0  0  0
  147.7150  155.9020  132.8490 O   0  0  0  0  0  0  0  0  0  0  0  0
  146.9580  155.7590  135.0060 O   0  0  0  0  0  0  0  0  0  0  0  0
  144.9700  157.8730  133.7420 C   0  0  0  0  0  0  0  0  0  0  0  0
  143.9780  157.0060  134.2290 C   0  0  0  0  0  0  0  0  0  0  0  0
  140.8767  157.7197  137.8462 H   0  0  0  0  0  0  0  0  0  0  0  0
  142.2005  158.2099  136.7354 H   0  0  0  0  0  0  0  0  0  0  0  0
  140.6475  159.1126  136.7354 H   0  0  0  0  0  0  0  0  0  0  0  0
  140.1412  156.3065  136.3075 H   0  0  0  0  0  0  0  0  0  0  0  0
  138.7135  158.2972  135.6557 H   0  0  0  0  0  0  0  0  0  0  0  0
  139.8802  158.6382  134.3331 H   0  0  0  0  0  0  0  0  0  0  0  0
  138.9457  157.1041  134.3331 H   0  0  0  0  0  0  0  0  0  0  0  0
  139.9894  155.6496  132.9745 H   0  0  0  0  0  0  0  0  0  0  0  0
  139.9013  153.2811  132.2057 H   0  0  0  0  0  0  0  0  0  0  0  0
  140.0115  151.2995  130.8945 H   0  0  0  0  0  0  0  0  0  0  0  0
  140.4253  148.6866  129.8150 H   0  0  0  0  0  0  0  0  0  0  0  0
  140.8602  148.1049  131.1904 H   0  0  0  0  0  0  0  0  0  0  0  0
  137.9636  149.3361  130.4337 H   0  0  0  0  0  0  0  0  0  0  0  0
  137.9703  148.8672  131.9171 H   0  0  0  0  0  0  0  0  0  0  0  0
  143.0429  152.2488  135.0056 H   0  0  0  0  0  0  0  0  0  0  0  0
  143.1210  154.6148  135.7906 H   0  0  0  0  0  0  0  0  0  0  0  0
  141.3318  159.2028  134.0797 H   0  0  0  0  0  0  0  0  0  0  0  0
  143.1294  160.6873  133.1320 H   0  0  0  0  0  0  0  0  0  0  0  0
  145.9038  160.7592  132.4642 H   0  0  0  0  0  0  0  0  0  0  0  0
  148.6680  157.3350  131.5180 H   0  0  0  0  0  0  0  0  0  0  0  0
  144.2248  155.9737  134.5179 H   0  0  0  0  0  0  0  0  0  0  0  0
  1  2  1  0
  2  3  1  0
  2  4  1  0
  4  5  1  0
  5  6  2  0
  6  7  1  0
  7  8  2  0
  8  9  1  0
  9 10  2  0
  9 11  1  0
 11 12  1  0
 12 13  1  0
 13 14  1  0
  8 15  1  0
 15 16  2  0
  4 17  1  0
 17 18  2  0
 18 19  1  0
 19 20  2  0
 20 21  1  0
 21 22  2  0
 22 23  1  0
 23 24  1  0
 23 25  2  0
 22 26  1  0
 26 27  1  0
 27 28  2  0
 27 29  1  0
 26 30  1  0
 30 31  2  0
 16  5  1  0
 31 17  1  0
 14 12  1  0
 30 20  1  0
  1 32  1  0
  1 33  1  0
  1 34  1  0
  2 35  1  0
  3 36  1  0
  3 37  1  0
  3 38  1  0
  6 39  1  0
  7 40  1  0
 12 41  1  0
 13 42  1  0
 13 43  1  0
 14 44  1  0
 14 45  1  0
 15 46  1  0
 16 47  1  0
 18 48  1  0
 19 49  1  0
 21 50  1  0
 24 51  1  0
 31 52  1  0
M  CHG  3  11  -1  24  -1  29  -1
M  END
>  <UniqueID>  (4) 
4

>  <SMILES>  (4) 
CC(C)N(c1ccc(C(=O)[N-]C2CC2)cc1)c1ccc2cc(C([NH-])=O)n(C(=O)[O-])c2c1

>  <Energy>  (4) 
373.42903466515526

>  <Genealogy>  (4) 
CC(C)N(c1ccc(C(=O)[N-]C2CC2)cc1)c1ccc2cc(C([NH-])=O)n(C(=O)[O-])c2c1 (protonated)
CC(C)N(c1ccc(C(=O)[N-]C2CC2)cc1)c1ccc2cc(C([NH-])=O)n(C(=O)[O-])c2c1 (3D coordinates assigned)
CC(C)N(c1ccc(C(=O)[N-]C2CC2)cc1)c1ccc2cc(C([NH-])=O)n(C(=O)[O-])c2c1 (nonaromatic ring conformer: 373.42903466515526 kcal/mol)

>  <smiles>  (4) 
CC(C)N(c1ccc(C(=O)NC2CC2)cc1)c1ccc2cc(C(N)=O)n(C(=O)O)c2c1

>  <score_type>  (4) 
oracle

>  <origin>  (4) 
adg

>  <m_score__min__energy>  (4) 
-8.8699999999999992

>  <m_primary>  (4) 
energy

$$$$
4:0
     RDKit          3D

 38 41  0  0  0  0  0  0  0  0999 V2000
  145.7810  161.6880  134.1810 N   0  0  0  0  0  0  0  0  0  0  0  0
  144.3800  161.5510  133.9640 C   0  0  0  0  0  0  0  0  0  0  0  0
  143.7080  162.5600  133.6210 O   0  0  0  0  0  0  0  0  0  0  0  0
  143.7120  160.2380  134.0920 C   0  0  0  0  0  0  0  0  0  0  0  0
  142.4630  160.0650  134.6840 C   0  0  0  0  0  0  0  0  0  0  0  0
  142.1740  158.7270  134.5430 C   0  0  0  0  0  0  0  0  0  0  0  0
  141.0620  158.0010  134.9610 C   0  0  0  0  0  0  0  0  0  0  0  0
  141.0460  156.6190  134.7100 C   0  0  0  0  0  0  0  0  0  0  0  0
  142.1410  155.9880  134.0670 C   0  0  0  0  0  0  0  0  0  0  0  0
  142.1140  154.5330  133.8010 C   0  0  0  0  0  0  0  0  0  0  0  0
  143.2600  153.7710  134.0860 C   0  0  0  0  0  0  0  0  0  0  0  0
  143.2850  152.3980  133.8370 C   0  0  0  0  0  0  0  0  0  0  0  0
  142.1590  151.7630  133.3030 C   0  0  0  0  0  0  0  0  0  0  0  0
  142.1610  150.3850  133.0460 C   0  0  0  0  0  0  0  0  0  0  0  0
  141.0200  149.7750  132.5200 C   0  0  0  0  0  0  0  0  0  0  0  0
  139.8880  150.5480  132.2580 C   0  0  0  0  0  0  0  0  0  0  0  0
  139.8980  151.8840  132.5120 N   0  0  0  0  0  0  0  0  0  0  0  0
  140.9940  152.5120  133.0220 C   0  0  0  0  0  0  0  0  0  0  0  0
  140.9690  153.8960  133.2730 C   0  0  0  0  0  0  0  0  0  0  0  0
  139.4770  154.7960  132.9820 Cl  0  0  0  0  0  0  0  0  0  0  0  0
  143.2470  156.7590  133.6490 C   0  0  0  0  0  0  0  0  0  0  0  0
  143.2270  158.1370  133.8930 C   0  0  0  0  0  0  0  0  0  0  0  0
  144.1780  159.0520  133.6070 N   0  0  0  0  0  0  0  0  0  0  0  0
  145.4510  158.7900  132.9950 C   0  0  0  0  0  0  0  0  0  0  0  0
  146.1260  159.8160  132.2670 N   0  0  0  0  0  0  0  0  0  0  0  0
  145.9730  157.6480  133.0930 O   0  0  0  0  0  0  0  0  0  0  0  0
  146.4320  161.8730  133.3870 H   0  0  0  0  0  0  0  0  0  0  0  0
  141.8398  160.8347  135.1627 H   0  0  0  0  0  0  0  0  0  0  0  0
  140.2220  158.4943  135.4719 H   0  0  0  0  0  0  0  0  0  0  0  0
  140.1752  156.0202  135.0154 H   0  0  0  0  0  0  0  0  0  0  0  0
  144.1478  154.2626  134.5104 H   0  0  0  0  0  0  0  0  0  0  0  0
  144.1906  151.8150  134.0608 H   0  0  0  0  0  0  0  0  0  0  0  0
  143.0587  149.7857  133.2580 H   0  0  0  0  0  0  0  0  0  0  0  0
  141.0137  148.6945  132.3140 H   0  0  0  0  0  0  0  0  0  0  0  0
  138.9848  150.0752  131.8447 H   0  0  0  0  0  0  0  0  0  0  0  0
  144.1034  156.2884  133.1440 H   0  0  0  0  0  0  0  0  0  0  0  0
  145.7370  160.7840  132.2290 H   0  0  0  0  0  0  0  0  0  0  0  0
  147.0360  159.6160  131.7970 H   0  0  0  0  0  0  0  0  0  0  0  0
  1  2  1  0
  2  3  2  0
  2  4  1  0
  4  5  2  0
  5  6  1  0
  6  7  2  0
  7  8  1  0
  8  9  2  0
  9 10  1  0
 10 11  2  0
 11 12  1  0
 12 13  2  0
 13 14  1  0
 14 15  2  0
 15 16  1  0
 16 17  2  0
 17 18  1  0
 18 19  2  0
 19 20  1  0
  9 21  1  0
 21 22  2  0
 22 23  1  0
 23 24  1  0
 24 25  1  0
 24 26  2  0
 23  4  1  0
 22  6  1  0
 19 10  1  0
 18 13  1  0
  1 27  1  0
  5 28  1  0
  7 29  1  0
  8 30  1  0
 11 31  1  0
 12 32  1  0
 14 33  1  0
 15 34  1  0
 16 35  1  0
 21 36  1  0
 25 37  1  0
 25 38  1  0
M  CHG  1   1  -1
M  END
>  <UniqueID>  (5) 
5

>  <SMILES>  (5) 
[NH-]C(=O)c1cc2ccc(-c3ccc4cccnc4c3Cl)cc2n1C(N)=O

>  <Energy>  (5) 
93.093226575461

>  <Genealogy>  (5) 
[NH-]C(=O)c1cc2ccc(-c3ccc4cccnc4c3Cl)cc2n1C(N)=O (protonated)
[NH-]C(=O)c1cc2ccc(-c3ccc4cccnc4c3Cl)cc2n1C(N)=O (3D coordinates assigned)
[NH-]C(=O)c1cc2ccc(-c3ccc4cccnc4c3Cl)cc2n1C(N)=O (optimized conformer: 93.093226575461 kcal/mol)

>  <smiles>  (5) 
NC(=O)c1cc2ccc(-c3ccc4cccnc4c3Cl)cc2n1C(N)=O

>  <score_type>  (5) 
oracle

>  <origin>  (5) 
adg

>  <m_score__min__energy>  (5) 
-8.6099999999999994

>  <m_primary>  (5) 
energy

$$$$
5:0
     RDKit          3D

 41 42  0  0  0  0  0  0  0  0999 V2000
  139.0720  158.5410  132.3180 C   0  0  0  0  0  0  0  0  0  0  0  0
  139.0950  157.5310  133.4540 C   0  0  0  0  0  0  0  0  0  0  0  0
  139.3130  158.2090  134.6870 O   0  0  0  0  0  0  0  0  0  0  0  0
  140.4990  158.0860  135.4170 C   0  0  0  0  0  0  0  0  0  0  0  0
  140.6140  158.6210  136.5560 O   0  0  0  0  0  0  0  0  0  0  0  0
  141.6330  157.2910  134.8510 C   0  0  0  0  0  0  0  0  0  0  0  0
  142.7670  158.2000  134.4650 C   0  0  0  0  0  0  0  0  0  0  0  0
  142.5720  159.6040  134.4390 C   0  0  0  0  0  0  0  0  0  0  0  0
  143.6190  160.4660  134.0710 C   0  0  0  0  0  0  0  0  0  0  0  0
  144.8410  159.8970  133.7270 C   0  0  0  0  0  0  0  0  0  0  0  0
  146.0280  160.4990  133.3720 C   0  0  0  0  0  0  0  0  0  0  0  0
  146.9200  159.4520  133.1550 C   0  0  0  0  0  0  0  0  0  0  0  0
  148.3110  159.6500  132.7000 C   0  0  0  0  0  0  0  0  0  0  0  0
  149.4010  158.9830  133.3380 N   0  0  0  0  0  0  0  0  0  0  0  0
  148.5360  160.3760  131.6950 O   0  0  0  0  0  0  0  0  0  0  0  0
  146.3150  158.2500  133.3770 N   0  0  0  0  0  0  0  0  0  0  0  0
  146.9200  156.9480  133.3660 C   0  0  0  0  0  0  0  0  0  0  0  0
  147.7850  156.6460  134.2360 O   0  0  0  0  0  0  0  0  0  0  0  0
  146.5470  156.0180  132.3910 O   0  0  0  0  0  0  0  0  0  0  0  0
  145.8080  154.8400  132.6940 C   0  0  0  0  0  0  0  0  0  0  0  0
  144.5100  154.8400  131.9000 C   0  0  0  0  0  0  0  0  0  0  0  0
  145.0410  158.5410  133.7240 C   0  0  0  0  0  0  0  0  0  0  0  0
  144.0200  157.6600  134.1020 C   0  0  0  0  0  0  0  0  0  0  0  0
  139.0488  159.5594  132.7332 H   0  0  0  0  0  0  0  0  0  0  0  0
  139.9732  158.4177  131.6994 H   0  0  0  0  0  0  0  0  0  0  0  0
  138.1774  158.3768  131.6994 H   0  0  0  0  0  0  0  0  0  0  0  0
  138.1322  157.0004  133.4925 H   0  0  0  0  0  0  0  0  0  0  0  0
  139.9059  156.8072  133.2850 H   0  0  0  0  0  0  0  0  0  0  0  0
  141.9848  156.5726  135.6061 H   0  0  0  0  0  0  0  0  0  0  0  0
  141.2829  156.7561  133.9558 H   0  0  0  0  0  0  0  0  0  0  0  0
  141.5915  160.0227  134.7096 H   0  0  0  0  0  0  0  0  0  0  0  0
  143.4768  161.5567  134.0554 H   0  0  0  0  0  0  0  0  0  0  0  0
  146.2284  161.5766  133.2796 H   0  0  0  0  0  0  0  0  0  0  0  0
  150.3820  159.1830  133.0410 H   0  0  0  0  0  0  0  0  0  0  0  0
  149.2350  158.2280  134.0400 H   0  0  0  0  0  0  0  0  0  0  0  0
  146.4026  153.9544  132.4254 H   0  0  0  0  0  0  0  0  0  0  0  0
  145.5808  154.8152  133.7700 H   0  0  0  0  0  0  0  0  0  0  0  0
  144.1972  153.8029  131.7087 H   0  0  0  0  0  0  0  0  0  0  0  0
  143.7285  155.3585  132.4748 H   0  0  0  0  0  0  0  0  0  0  0  0
  144.6659  155.3585  130.9425 H   0  0  0  0  0  0  0  0  0  0  0  0
  144.1902  156.5733  134.1158 H   0  0  0  0  0  0  0  0  0  0  0  0
  1  2  1  0
  2  3  1  0
  3  4  1  0
  4  5  2  0
  4  6  1  0
  6  7  1  0
  7  8  2  0
  8  9  1  0
  9 10  2  0
 10 11  1  0
 11 12  2  0
 12 13  1  0
 13 14  1  0
 13 15  2  0
 12 16  1  0
 16 17  1  0
 17 18  2  0
 17 19  1  0
 19 20  1  0
 20 21  1  0
 16 22  1  0
 22 23  2  0
 23  7  1  0
 22 10  1  0
  1 24  1  0
  1 25  1  0
  1 26  1  0
  2 27  1  0
  2 28  1  0
  6 29  1  0
  6 30  1  0
  8 31  1  0
  9 32  1  0
 11 33  1  0
 14 34  1  0
 14 35  1  0
 20 36  1  0
 20 37  1  0
 21 38  1  0
 21 39  1  0
 21 40  1  0
 23 41  1  0
M  END
>  <UniqueID>  (6) 
6

>  <SMILES>  (6) 
CCOC(=O)Cc1ccc2cc(C(N)=O)n(C(=O)OCC)c2c1

>  <Energy>  (6) 
68.49522711939458

>  <Genealogy>  (6) 
CCOC(=O)Cc1ccc2cc(C(N)=O)n(C(=O)OCC)c2c1 (3D coordinates assigned)
CCOC(=O)Cc1ccc2cc(C(N)=O)n(C(=O)OCC)c2c1 (optimized conformer: 68.49522711939458 kcal/mol)

>  <smiles>  (6) 
CCOC(=O)Cc1ccc2cc(C(N)=O)n(C(=O)OCC)c2c1

>  <score_type>  (6) 
oracle

>  <origin>  (6) 
adg

>  <m_score__min__energy>  (6) 
-6.6699999999999999

>  <m_primary>  (6) 
energy

$$$$
6:0
     RDKit          3D

 52 55  0  0  0  0  0  0  0  0999 V2000
  141.8120  157.5700  136.9740 C   0  0  0  0  0  0  0  0  0  0  0  0
  140.8800  158.7110  136.5210 C   0  0  0  0  0  0  0  0  0  0  0  0
  140.6780  159.6810  137.6960 C   0  0  0  0  0  0  0  0  0  0  0  0
  139.5110  158.1570  136.0860 C   0  0  0  0  0  0  0  0  0  0  0  0
  141.4800  159.4610  135.4540 O   0  0  0  0  0  0  0  0  0  0  0  0
  141.7570  159.0010  134.1580 C   0  0  0  0  0  0  0  0  0  0  0  0
  142.7800  159.3900  133.5360 O   0  0  0  0  0  0  0  0  0  0  0  0
  140.8280  158.1080  133.5210 N   0  0  0  0  0  0  0  0  0  0  0  0
  139.7600  158.4210  132.7350 C   0  0  0  0  0  0  0  0  0  0  0  0
  139.3780  159.7780  132.2870 C   0  0  0  0  0  0  0  0  0  0  0  0
  140.1490  160.9200  132.6490 N   0  0  0  0  0  0  0  0  0  0  0  0
  138.3810  159.9280  131.5360 O   0  0  0  0  0  0  0  0  0  0  0  0
  139.1110  157.2600  132.3140 C   0  0  0  0  0  0  0  0  0  0  0  0
  139.8300  156.2180  132.8580 C   0  0  0  0  0  0  0  0  0  0  0  0
  139.6600  154.8420  132.7320 C   0  0  0  0  0  0  0  0  0  0  0  0
  140.5630  154.0010  133.4030 C   0  0  0  0  0  0  0  0  0  0  0  0
  141.5940  154.5430  134.2080 C   0  0  0  0  0  0  0  0  0  0  0  0
  142.5400  153.6460  134.9700 C   0  0  0  0  0  0  0  0  0  0  0  0
  141.7990  152.7980  135.9410 N   0  0  0  0  0  0  0  0  0  0  0  0
  141.3580  151.5600  135.5410 C   0  0  0  0  0  0  0  0  0  0  0  0
  141.5340  151.1620  134.3590 O   0  0  0  0  0  0  0  0  0  0  0  0
  140.7260  150.7350  136.4120 N   0  0  0  0  0  0  0  0  0  0  0  0
  140.4960  151.0830  137.6980 C   0  0  0  0  0  0  0  0  0  0  0  0
  139.9100  150.2710  138.4650 O   0  0  0  0  0  0  0  0  0  0  0  0
  140.9080  152.3340  138.1580 C   0  0  0  0  0  0  0  0  0  0  0  0
  140.6650  152.7340  139.4880 C   0  0  0  0  0  0  0  0  0  0  0  0
  141.0780  153.9870  139.9310 C   0  0  0  0  0  0  0  0  0  0  0  0
  141.7410  154.8490  139.0610 C   0  0  0  0  0  0  0  0  0  0  0  0
  141.9900  154.4680  137.7380 C   0  0  0  0  0  0  0  0  0  0  0  0
  141.5780  153.2020  137.2520 C   0  0  0  0  0  0  0  0  0  0  0  0
  141.7430  155.9420  134.2940 C   0  0  0  0  0  0  0  0  0  0  0  0
  140.8540  156.7570  133.5870 C   0  0  0  0  0  0  0  0  0  0  0  0
  141.8409  157.5346  138.0731 H   0  0  0  0  0  0  0  0  0  0  0  0
  141.4345  156.6124  136.5861 H   0  0  0  0  0  0  0  0  0  0  0  0
  142.8257  157.7487  136.5861 H   0  0  0  0  0  0  0  0  0  0  0  0
  140.7914  159.1362  138.6449 H   0  0  0  0  0  0  0  0  0  0  0  0
  141.4283  160.4836  137.6420 H   0  0  0  0  0  0  0  0  0  0  0  0
  139.6697  160.1174  137.6420 H   0  0  0  0  0  0  0  0  0  0  0  0
  138.9133  157.9151  136.9772 H   0  0  0  0  0  0  0  0  0  0  0  0
  138.9839  158.9126  135.4850 H   0  0  0  0  0  0  0  0  0  0  0  0
  139.6577  157.2475  135.4850 H   0  0  0  0  0  0  0  0  0  0  0  0
  141.0960  160.8200  133.0820 H   0  0  0  0  0  0  0  0  0  0  0  0
  138.2140  157.1909  131.6810 H   0  0  0  0  0  0  0  0  0  0  0  0
  138.8426  154.4257  132.1249 H   0  0  0  0  0  0  0  0  0  0  0  0
  140.4682  152.9098  133.3020 H   0  0  0  0  0  0  0  0  0  0  0  0
  143.0733  152.9978  134.2590 H   0  0  0  0  0  0  0  0  0  0  0  0
  143.2521  154.2752  135.5240 H   0  0  0  0  0  0  0  0  0  0  0  0
  140.1466  152.0526  140.1786 H   0  0  0  0  0  0  0  0  0  0  0  0
  140.8808  154.2964  140.9680 H   0  0  0  0  0  0  0  0  0  0  0  0
  142.0712  155.8362  139.4165 H   0  0  0  0  0  0  0  0  0  0  0  0
  142.5139  155.1621  137.0643 H   0  0  0  0  0  0  0  0  0  0  0  0
  142.5433  156.3840  134.9056 H   0  0  0  0  0  0  0  0  0  0  0  0
  1  2  1  0
  2  3  1  0
  2  4  1  0
  2  5  1  0
  5  6  1  0
  6  7  2  0
  6  8  1  0
  8  9  1  0
  9 10  1  0
 10 11  1  0
 10 12  2  0
  9 13  2  0
 13 14  1  0
 14 15  2  0
 15 16  1  0
 16 17  2  0
 17 18  1  0
 18 19  1  0
 19 20  1  0
 20 21  2  0
 20 22  1  0
 22 23  1  0
 23 24  2  0
 23 25  1  0
 25 26  2  0
 26 27  1  0
 27 28  2  0
 28 29  1  0
 29 30  2  0
 17 31  1  0
 31 32  2  0
 32  8  1  0
 32 14  1  0
 30 19  1  0
 30 25  1  0
  1 33  1  0
  1 34  1  0
  1 35  1  0
  3 36  1  0
  3 37  1  0
  3 38  1  0
  4 39  1  0
  4 40  1  0
  4 41  1  0
 11 42  1  0
 13 43  1  0
 15 44  1  0
 16 45  1  0
 18 46  1  0
 18 47  1  0
 26 48  1  0
 27 49  1  0
 28 50  1  0
 29 51  1  0
 31 52  1  0
M  CHG  2  11  -1  22  -1
M  END
>  <UniqueID>  (7) 
7

>  <SMILES>  (7) 
CC(C)(C)OC(=O)n1c(C([NH-])=O)cc2ccc(Cn3c(=O)[n-]c(=O)c4ccccc43)cc21

>  <Energy>  (7) 
102.41327156133978

>  <Genealogy>  (7) 
CC(C)(C)OC(=O)n1c(C([NH-])=O)cc2ccc(Cn3c(=O)[n-]c(=O)c4ccccc43)cc21 (protonated)
CC(C)(C)OC(=O)n1c(C([NH-])=O)cc2ccc(Cn3c(=O)[n-]c(=O)c4ccccc43)cc21 (3D coordinates assigned)
CC(C)(C)OC(=O)n1c(C([NH-])=O)cc2ccc(Cn3c(=O)[n-]c(=O)c4ccccc43)cc21 (optimized conformer: 102.41327156133978 kcal/mol)

>  <smiles>  (7) 
CC(C)(C)OC(=O)n1c(C(N)=O)cc2ccc(Cn3c(=O)[nH]c(=O)c4ccccc43)cc21

>  <score_type>  (7) 
oracle

>  <origin>  (7) 
adg

>  <m_score__min__energy>  (7) 
-8.8699999999999992

>  <m_primary>  (7) 
energy

$$$$
7:0
     RDKit          3D

 62 64  0  0  0  0  0  0  0  0999 V2000
  144.3090  160.6450  133.7480 C   0  0  0  0  0  0  0  0  0  0  0  0
  144.8210  159.2270  133.6320 C   0  0  0  0  0  0  0  0  0  0  0  0
  146.1240  158.9950  133.1300 C   0  0  0  0  0  0  0  0  0  0  0  0
  146.9290  160.0970  132.7880 O   0  0  0  0  0  0  0  0  0  0  0  0
  148.1890  160.0360  132.1270 C   0  0  0  0  0  0  0  0  0  0  0  0
  148.5060  161.2900  131.6460 F   0  0  0  0  0  0  0  0  0  0  0  0
  148.1280  159.1530  131.0650 F   0  0  0  0  0  0  0  0  0  0  0  0
  149.1740  159.6370  133.0130 F   0  0  0  0  0  0  0  0  0  0  0  0
  146.5830  157.6720  132.9820 C   0  0  0  0  0  0  0  0  0  0  0  0
  145.7720  156.5980  133.3350 C   0  0  0  0  0  0  0  0  0  0  0  0
  144.5000  156.8190  133.8520 C   0  0  0  0  0  0  0  0  0  0  0  0
  144.0140  158.1250  134.0260 C   0  0  0  0  0  0  0  0  0  0  0  0
  142.6610  158.2940  134.6130 C   0  0  0  0  0  0  0  0  0  0  0  0
  142.5270  158.8250  135.7480 O   0  0  0  0  0  0  0  0  0  0  0  0
  141.4960  157.8360  133.9080 N   0  0  0  0  0  0  0  0  0  0  0  0
  140.5920  158.5800  133.2110 C   0  0  0  0  0  0  0  0  0  0  0  0
  140.5670  160.0560  133.1250 C   0  0  0  0  0  0  0  0  0  0  0  0
  141.3770  160.8300  134.0030 N   0  0  0  0  0  0  0  0  0  0  0  0
  139.8470  160.6420  132.2730 O   0  0  0  0  0  0  0  0  0  0  0  0
  139.6390  157.7550  132.6130 C   0  0  0  0  0  0  0  0  0  0  0  0
  139.9950  156.4730  132.9630 C   0  0  0  0  0  0  0  0  0  0  0  0
  139.4130  155.2560  132.6220 C   0  0  0  0  0  0  0  0  0  0  0  0
  140.0160  154.0800  133.0990 C   0  0  0  0  0  0  0  0  0  0  0  0
  141.1860  154.1420  133.8970 C   0  0  0  0  0  0  0  0  0  0  0  0
  141.8260  152.8710  134.3930 C   0  0  0  0  0  0  0  0  0  0  0  0
  141.8480  151.8170  133.3250 C   0  0  0  0  0  0  0  0  0  0  0  0
  142.8780  151.6710  132.6090 O   0  0  0  0  0  0  0  0  0  0  0  0
  140.6830  151.0130  133.0870 N   0  0  0  0  0  0  0  0  0  0  0  0
  140.6250  150.0010  132.0270 C   0  0  1  0  0  0  0  0  0  0  0  0
  141.7920  149.0140  132.1690 C   0  0  0  0  0  0  0  0  0  0  0  0
  139.2710  149.2680  132.0520 C   0  0  0  0  0  0  0  0  0  0  0  0
  138.8470  148.9140  130.6750 N   0  0  0  0  0  0  0  0  0  0  0  0
  139.4690  149.7970  129.6750 C   0  0  0  0  0  0  0  0  0  0  0  0
  139.1500  147.5080  130.3620 C   0  0  0  0  0  0  0  0  0  0  0  0
  141.7470  155.3950  134.2240 C   0  0  0  0  0  0  0  0  0  0  0  0
  141.1180  156.5490  133.7450 C   0  0  0  0  0  0  0  0  0  0  0  0
  144.2119  160.9140  134.8102 H   0  0  0  0  0  0  0  0  0  0  0  0
  145.0161  161.3313  133.2591 H   0  0  0  0  0  0  0  0  0  0  0  0
  143.3266  160.7213  133.2591 H   0  0  0  0  0  0  0  0  0  0  0  0
  147.5914  157.4860  132.5839 H   0  0  0  0  0  0  0  0  0  0  0  0
  146.1387  155.5692  133.2046 H   0  0  0  0  0  0  0  0  0  0  0  0
  143.8680  155.9619  134.1275 H   0  0  0  0  0  0  0  0  0  0  0  0
  141.4890  160.5650  135.0050 H   0  0  0  0  0  0  0  0  0  0  0  0
  138.7844  158.0640  131.9932 H   0  0  0  0  0  0  0  0  0  0  0  0
  138.5081  155.2158  131.9978 H   0  0  0  0  0  0  0  0  0  0  0  0
  139.5764  153.1026  132.8510 H   0  0  0  0  0  0  0  0  0  0  0  0
  142.8588  153.0877  134.7035 H   0  0  0  0  0  0  0  0  0  0  0  0
  141.2351  152.4933  135.2405 H   0  0  0  0  0  0  0  0  0  0  0  0
  139.8550  151.1420  133.7120 H   0  0  0  0  0  0  0  0  0  0  0  0
  140.7181  150.5036  131.0529 H   0  0  0  0  0  0  0  0  0  0  0  0
  141.9975  148.8402  133.2356 H   0  0  0  0  0  0  0  0  0  0  0  0
  141.5274  148.0615  131.6866 H   0  0  0  0  0  0  0  0  0  0  0  0
  142.6874  149.4330  131.6866 H   0  0  0  0  0  0  0  0  0  0  0  0
  139.3677  148.3490  132.6487 H   0  0  0  0  0  0  0  0  0  0  0  0
  138.5152  149.9314  132.4978 H   0  0  0  0  0  0  0  0  0  0  0  0
  140.0297  150.5930  130.1869 H   0  0  0  0  0  0  0  0  0  0  0  0
  140.1553  149.2117  129.0454 H   0  0  0  0  0  0  0  0  0  0  0  0
  138.6868  150.2462  129.0454 H   0  0  0  0  0  0  0  0  0  0  0  0
  139.2719  146.9422  131.2974 H   0  0  0  0  0  0  0  0  0  0  0  0
  138.3243  147.0763  129.7773 H   0  0  0  0  0  0  0  0  0  0  0  0
  140.0802  147.4548  129.7773 H   0  0  0  0  0  0  0  0  0  0  0  0
  142.6559  155.4625  134.8400 H   0  0  0  0  0  0  0  0  0  0  0  0
  1  2  1  0
  2  3  2  0
  3  4  1  0
  4  5  1  0
  5  6  1  0
  5  7  1  0
  5  8  1  0
  3  9  1  0
  9 10  2  0
 10 11  1  0
 11 12  2  0
 12 13  1  0
 13 14  2  0
 13 15  1  0
 15 16  1  0
 16 17  1  0
 17 18  1  0
 17 19  2  0
 16 20  2  0
 20 21  1  0
 21 22  2  0
 22 23  1  0
 23 24  2  0
 24 25  1  0
 25 26  1  0
 26 27  2  0
 26 28  1  0
 28 29  1  0
 29 30  1  0
 29 31  1  0
 31 32  1  0
 32 33  1  0
 32 34  1  0
 24 35  1  0
 35 36  2  0
 12  2  1  0
 36 15  1  0
 36 21  1  0
  1 37  1  0
  1 38  1  0
  1 39  1  0
  9 40  1  0
 10 41  1  0
 11 42  1  0
 18 43  1  0
 20 44  1  0
 22 45  1  0
 23 46  1  0
 25 47  1  0
 25 48  1  0
 28 49  1  0
 29 50  1  6
 30 51  1  0
 30 52  1  0
 30 53  1  0
 31 54  1  0
 31 55  1  0
 33 56  1  0
 33 57  1  0
 33 58  1  0
 34 59  1  0
 34 60  1  0
 34 61  1  0
 35 62  1  0
M  CHG  1  18  -1
M  END
>  <UniqueID>  (8) 
8

>  <SMILES>  (8) 
Cc1c(OC(F)(F)F)cccc1C(=O)n1c(C([NH-])=O)cc2ccc(CC(=O)N[C@@H](C)CN(C)C)cc21

>  <Energy>  (8) 
103.56360667841844

>  <Genealogy>  (8) 
Cc1c(OC(F)(F)F)cccc1C(=O)n1c(C([NH-])=O)cc2ccc(CC(=O)NC(C)CN(C)C)cc21 (protonated)
Cc1c(OC(F)(F)F)cccc1C(=O)n1c(C([NH-])=O)cc2ccc(CC(=O)N[C@@H](C)CN(C)C)cc21 (chirality)
Cc1c(OC(F)(F)F)cccc1C(=O)n1c(C([NH-])=O)cc2ccc(CC(=O)N[C@@H](C)CN(C)C)cc21 (3D coordinates assigned)
Cc1c(OC(F)(F)F)cccc1C(=O)n1c(C([NH-])=O)cc2ccc(CC(=O)N[C@@H](C)CN(C)C)cc21 (optimized conformer: 103.56360667841844 kcal/mol)

>  <smiles>  (8) 
Cc1c(OC(F)(F)F)cccc1C(=O)n1c(C(N)=O)cc2ccc(CC(=O)NC(C)CN(C)C)cc21

>  <score_type>  (8) 
oracle

>  <origin>  (8) 
adg

>  <m_score__min__energy>  (8) 
-9.5099999999999998

>  <m_primary>  (8) 
energy

$$$$
8:0
     RDKit          3D

 48 49  0  0  0  0  0  0  0  0999 V2000
  149.5820  152.0580  131.9250 C   0  0  0  0  0  0  0  0  0  0  0  0
  149.2620  152.9330  132.8830 C   0  0  0  0  0  0  0  0  0  0  0  0
  149.1160  154.4090  132.6030 C   0  0  0  0  0  0  0  0  0  0  0  0
  147.6470  154.8820  132.5460 C   0  0  1  0  0  0  0  0  0  0  0  0
  146.7620  154.1020  133.4980 C   0  0  0  0  0  0  0  0  0  0  0  0
  145.7140  153.3990  133.0580 C   0  0  0  0  0  0  0  0  0  0  0  0
  147.5410  156.3840  132.7540 C   0  0  0  0  0  0  0  0  0  0  0  0
  148.7160  157.1780  132.7230 C   0  0  0  0  0  0  0  0  0  0  0  0
  148.6550  158.5630  132.9440 C   0  0  0  0  0  0  0  0  0  0  0  0
  147.4130  159.1280  133.2150 C   0  0  0  0  0  0  0  0  0  0  0  0
  147.0680  160.4390  133.4540 C   0  0  0  0  0  0  0  0  0  0  0  0
  145.6920  160.4260  133.6660 C   0  0  0  0  0  0  0  0  0  0  0  0
  144.9190  161.6250  134.0520 C   0  0  0  0  0  0  0  0  0  0  0  0
  143.5350  161.7410  133.7300 N   0  0  0  0  0  0  0  0  0  0  0  0
  145.4750  162.5370  134.7200 O   0  0  0  0  0  0  0  0  0  0  0  0
  145.2020  159.1590  133.5520 N   0  0  0  0  0  0  0  0  0  0  0  0
  143.8330  158.7290  133.6160 C   0  0  0  0  0  0  0  0  0  0  0  0
  143.3340  158.0880  132.6530 O   0  0  0  0  0  0  0  0  0  0  0  0
  143.0810  159.0030  134.7670 O   0  0  0  0  0  0  0  0  0  0  0  0
  141.6690  158.8130  134.9280 C   0  0  0  0  0  0  0  0  0  0  0  0
  140.9730  159.6360  133.8330 C   0  0  0  0  0  0  0  0  0  0  0  0
  141.2990  157.3290  134.7490 C   0  0  0  0  0  0  0  0  0  0  0  0
  141.2050  159.3290  136.3050 C   0  0  0  0  0  0  0  0  0  0  0  0
  146.2690  158.3760  133.2780 C   0  0  0  0  0  0  0  0  0  0  0  0
  146.2970  156.9980  133.0400 C   0  0  0  0  0  0  0  0  0  0  0  0
  149.6797  150.9893  132.1665 H   0  0  0  0  0  0  0  0  0  0  0  0
  149.7478  152.4064  130.8949 H   0  0  0  0  0  0  0  0  0  0  0  0
  149.1000  152.5662  133.9073 H   0  0  0  0  0  0  0  0  0  0  0  0
  149.6310  154.9671  133.3988 H   0  0  0  0  0  0  0  0  0  0  0  0
  149.5551  154.5956  131.6118 H   0  0  0  0  0  0  0  0  0  0  0  0
  147.2713  154.6708  131.5340 H   0  0  0  0  0  0  0  0  0  0  0  0
  146.9873  154.1149  134.5746 H   0  0  0  0  0  0  0  0  0  0  0  0
  145.0876  152.8416  133.7700 H   0  0  0  0  0  0  0  0  0  0  0  0
  145.4778  153.3778  131.9839 H   0  0  0  0  0  0  0  0  0  0  0  0
  149.6875  156.7024  132.5232 H   0  0  0  0  0  0  0  0  0  0  0  0
  149.5626  159.1832  132.9041 H   0  0  0  0  0  0  0  0  0  0  0  0
  147.7374  161.3117  133.4734 H   0  0  0  0  0  0  0  0  0  0  0  0
  142.9140  160.9010  133.7220 H   0  0  0  0  0  0  0  0  0  0  0  0
  140.3297  160.3968  134.2992 H   0  0  0  0  0  0  0  0  0  0  0  0
  141.7313  160.1302  133.2079 H   0  0  0  0  0  0  0  0  0  0  0  0
  140.3598  158.9703  133.2079 H   0  0  0  0  0  0  0  0  0  0  0  0
  141.1817  156.8587  135.7364 H   0  0  0  0  0  0  0  0  0  0  0  0
  140.3540  157.2514  134.1913 H   0  0  0  0  0  0  0  0  0  0  0  0
  142.0969  156.8168  134.1913 H   0  0  0  0  0  0  0  0  0  0  0  0
  141.7139  158.7630  137.0992 H   0  0  0  0  0  0  0  0  0  0  0  0
  141.4529  160.3966  136.3991 H   0  0  0  0  0  0  0  0  0  0  0  0
  140.1172  159.1955  136.3991 H   0  0  0  0  0  0  0  0  0  0  0  0
  145.3722  156.4034  133.0742 H   0  0  0  0  0  0  0  0  0  0  0  0
  1  2  2  0
  2  3  1  0
  3  4  1  0
  4  5  1  0
  5  6  2  0
  4  7  1  0
  7  8  2  0
  8  9  1  0
  9 10  2  0
 10 11  1  0
 11 12  2  0
 12 13  1  0
 13 14  1  0
 13 15  2  0
 12 16  1  0
 16 17  1  0
 17 18  2  0
 17 19  1  0
 19 20  1  0
 20 21  1  0
 20 22  1  0
 20 23  1  0
 16 24  1  0
 24 25  2  0
 25  7  1  0
 24 10  1  0
  1 26  1  0
  1 27  1  0
  2 28  1  0
  3 29  1  0
  3 30  1  0
  4 31  1  6
  5 32  1  0
  6 33  1  0
  6 34  1  0
  8 35  1  0
  9 36  1  0
 11 37  1  0
 14 38  1  0
 21 39  1  0
 21 40  1  0
 21 41  1  0
 22 42  1  0
 22 43  1  0
 22 44  1  0
 23 45  1  0
 23 46  1  0
 23 47  1  0
 25 48  1  0
M  CHG  1  14  -1
M  END
>  <UniqueID>  (9) 
9

>  <SMILES>  (9) 
C=CC[C@@H](C=C)c1ccc2cc(C([NH-])=O)n(C(=O)OC(C)(C)C)c2c1

>  <Energy>  (9) 
76.79828659649266

>  <Genealogy>  (9) 
C=CCC(C=C)c1ccc2cc(C([NH-])=O)n(C(=O)OC(C)(C)C)c2c1 (protonated)
C=CC[C@@H](C=C)c1ccc2cc(C([NH-])=O)n(C(=O)OC(C)(C)C)c2c1 (chirality)
C=CC[C@@H](C=C)c1ccc2cc(C([NH-])=O)n(C(=O)OC(C)(C)C)c2c1 (3D coordinates assigned)
C=CC[C@@H](C=C)c1ccc2cc(C([NH-])=O)n(C(=O)OC(C)(C)C)c2c1 (optimized conformer: 76.79828659649266 kcal/mol)

>  <smiles>  (9) 
C=CCC(C=C)c1ccc2cc(C(N)=O)n(C(=O)OC(C)(C)C)c2c1

>  <score_type>  (9) 
oracle

>  <origin>  (9) 
adg

>  <m_score__min__energy>  (9) 
-7.54

>  <m_primary>  (9) 
energy

$$$$
9:0
     RDKit          3D

 55 57  0  0  0  0  0  0  0  0999 V2000
  148.6000  160.0690  131.5520 C   0  0  0  0  0  0  0  0  0  0  0  0
  148.2260  159.7690  132.9440 N   0  0  0  0  0  0  0  0  0  0  0  0
  146.9510  160.3760  133.3740 C   0  0  0  0  0  0  0  0  0  0  0  0
  145.6930  159.6550  132.8460 C   0  0  0  0  0  0  0  0  0  0  0  0
  145.4060  158.3420  133.5870 C   0  0  0  0  0  0  0  0  0  0  0  0
  146.2280  157.2020  133.1430 N   0  0  0  0  0  0  0  0  0  0  0  0
  145.6550  155.8840  133.2330 C   0  0  0  0  0  0  0  0  0  0  0  0
  146.4900  154.7400  133.1700 C   0  0  0  0  0  0  0  0  0  0  0  0
  145.9410  153.4490  133.2340 C   0  0  0  0  0  0  0  0  0  0  0  0
  144.5610  153.3310  133.3660 C   0  0  0  0  0  0  0  0  0  0  0  0
  143.7720  152.2060  133.4260 C   0  0  0  0  0  0  0  0  0  0  0  0
  142.4650  152.6780  133.5480 C   0  0  0  0  0  0  0  0  0  0  0  0
  141.2860  151.8040  133.7310 C   0  0  0  0  0  0  0  0  0  0  0  0
  140.1680  151.8910  132.8450 N   0  0  0  0  0  0  0  0  0  0  0  0
  141.2700  150.9480  134.6550 O   0  0  0  0  0  0  0  0  0  0  0  0
  142.4490  154.0410  133.5620 N   0  0  0  0  0  0  0  0  0  0  0  0
  141.2980  154.8990  133.6030 C   0  0  0  0  0  0  0  0  0  0  0  0
  140.2870  154.6240  132.9010 O   0  0  0  0  0  0  0  0  0  0  0  0
  141.3090  156.0270  134.4360 O   0  0  0  0  0  0  0  0  0  0  0  0
  140.8190  157.3350  134.1060 C   0  0  0  0  0  0  0  0  0  0  0  0
  140.8830  158.1800  135.3870 C   0  0  0  0  0  0  0  0  0  0  0  0
  141.7070  157.9920  133.0320 C   0  0  0  0  0  0  0  0  0  0  0  0
  139.3560  157.2610  133.6300 C   0  0  0  0  0  0  0  0  0  0  0  0
  143.7400  154.4260  133.4490 C   0  0  0  0  0  0  0  0  0  0  0  0
  144.2570  155.7240  133.3690 C   0  0  0  0  0  0  0  0  0  0  0  0
  147.5580  157.3630  132.5380 C   0  0  0  0  0  0  0  0  0  0  0  0
  148.4130  158.3600  133.3370 C   0  0  0  0  0  0  0  0  0  0  0  0
  149.4580  160.7573  131.5431 H   0  0  0  0  0  0  0  0  0  0  0  0
  148.8727  159.1363  131.0365 H   0  0  0  0  0  0  0  0  0  0  0  0
  147.7487  160.5376  131.0365 H   0  0  0  0  0  0  0  0  0  0  0  0
  146.9181  160.3651  134.4734 H   0  0  0  0  0  0  0  0  0  0  0  0
  146.9298  161.3929  132.9550 H   0  0  0  0  0  0  0  0  0  0  0  0
  144.8278  160.3234  132.9671 H   0  0  0  0  0  0  0  0  0  0  0  0
  145.8719  159.4071  131.7893 H   0  0  0  0  0  0  0  0  0  0  0  0
  145.5920  158.5038  134.6590 H   0  0  0  0  0  0  0  0  0  0  0  0
  144.3602  158.0797  133.3690 H   0  0  0  0  0  0  0  0  0  0  0  0
  147.5783  154.8648  133.0700 H   0  0  0  0  0  0  0  0  0  0  0  0
  146.5831  152.5574  133.1813 H   0  0  0  0  0  0  0  0  0  0  0  0
  144.1015  151.1573  133.3862 H   0  0  0  0  0  0  0  0  0  0  0  0
  140.1220  152.6200  132.1000 H   0  0  0  0  0  0  0  0  0  0  0  0
  139.3570  151.2440  132.9600 H   0  0  0  0  0  0  0  0  0  0  0  0
  140.8330  157.5192  136.2650 H   0  0  0  0  0  0  0  0  0  0  0  0
  141.8265  158.7451  135.4067 H   0  0  0  0  0  0  0  0  0  0  0  0
  140.0354  158.8808  135.4067 H   0  0  0  0  0  0  0  0  0  0  0  0
  142.4995  158.5784  133.5200 H   0  0  0  0  0  0  0  0  0  0  0  0
  142.1619  157.2114  132.4046 H   0  0  0  0  0  0  0  0  0  0  0  0
  141.0936  158.6554  132.4046 H   0  0  0  0  0  0  0  0  0  0  0  0
  138.6876  157.2272  134.5030 H   0  0  0  0  0  0  0  0  0  0  0  0
  139.1224  158.1485  133.0235 H   0  0  0  0  0  0  0  0  0  0  0  0
  139.2131  156.3545  133.0235 H   0  0  0  0  0  0  0  0  0  0  0  0
  143.5915  156.5988  133.4109 H   0  0  0  0  0  0  0  0  0  0  0  0
  148.0655  156.3872  132.5214 H   0  0  0  0  0  0  0  0  0  0  0  0
  147.4322  157.7511  131.5164 H   0  0  0  0  0  0  0  0  0  0  0  0
  148.1531  158.2615  134.4013 H   0  0  0  0  0  0  0  0  0  0  0  0
  149.4643  158.1113  133.1296 H   0  0  0  0  0  0  0  0  0  0  0  0
  1  2  1  0
  2  3  1  0
  3  4  1  0
  4  5  1  0
  5  6  1  0
  6  7  1  0
  7  8  2  0
  8  9  1  0
  9 10  2  0
 10 11  1  0
 11 12  2  0
 12 13  1  0
 13 14  1  0
 13 15  2  0
 12 16  1  0
 16 17  1  0
 17 18  2  0
 17 19  1  0
 19 20  1  0
 20 21  1  0
 20 22  1  0
 20 23  1  0
 16 24  1  0
 24 25  2  0
  6 26  1  0
 26 27  1  0
 27  2  1  0
 25  7  1  0
 24 10  1  0
  1 28  1  0
  1 29  1  0
  1 30  1  0
  3 31  1  0
  3 32  1  0
  4 33  1  0
  4 34  1  0
  5 35  1  0
  5 36  1  0
  8 37  1  0
  9 38  1  0
 11 39  1  0
 14 40  1  0
 14 41  1  0
 21 42  1  0
 21 43  1  0
 21 44  1  0
 22 45  1  0
 22 46  1  0
 22 47  1  0
 23 48  1  0
 23 49  1  0
 23 50  1  0
 25 51  1  0
 26 52  1  0
 26 53  1  0
 27 54  1  0
 27 55  1  0
M  END
>  <UniqueID>  (10) 
10

>  <SMILES>  (10) 
CN1CCCN(c2ccc3cc(C(N)=O)n(C(=O)OC(C)(C)C)c3c2)CC1

>  <Energy>  (10) 
102.53661693751927

>  <Genealogy>  (10) 
CN1CCCN(c2ccc3cc(C(N)=O)n(C(=O)OC(C)(C)C)c3c2)CC1 (3D coordinates assigned)
CN1CCCN(c2ccc3cc(C(N)=O)n(C(=O)OC(C)(C)C)c3c2)CC1 (nonaromatic ring conformer: 102.53661693751927 kcal/mol)

>  <smiles>  (10) 
CN1CCCN(c2ccc3cc(C(N)=O)n(C(=O)OC(C)(C)C)c3c2)CC1

>  <score_type>  (10) 
oracle

>  <origin>  (10) 
adg

>  <m_score__min__energy>  (10) 
-6.5099999999999998

>  <m_primary>  (10) 
energy

$$$$
10:0
     RDKit          3D

 54 56  0  0  0  0  0  0  0  0999 V2000
  138.7220  157.7760  134.1680 C   0  0  0  0  0  0  0  0  0  0  0  0
  140.2150  157.3980  134.1510 C   0  0  0  0  0  0  0  0  0  0  0  0
  140.7610  157.5960  132.7290 C   0  0  0  0  0  0  0  0  0  0  0  0
  141.0140  158.2910  135.1180 C   0  0  0  0  0  0  0  0  0  0  0  0
  140.3890  156.0120  134.4820 O   0  0  0  0  0  0  0  0  0  0  0  0
  140.6670  154.9710  133.5850 C   0  0  0  0  0  0  0  0  0  0  0  0
  139.8210  154.6170  132.7200 O   0  0  0  0  0  0  0  0  0  0  0  0
  141.9430  154.3140  133.6410 N   0  0  0  0  0  0  0  0  0  0  0  0
  142.1860  152.9800  133.7780 C   0  0  0  0  0  0  0  0  0  0  0  0
  141.1720  151.9060  133.7430 C   0  0  0  0  0  0  0  0  0  0  0  0
  140.3490  151.7440  132.5890 N   0  0  0  0  0  0  0  0  0  0  0  0
  140.9980  151.1500  134.7350 O   0  0  0  0  0  0  0  0  0  0  0  0
  143.5550  152.7410  133.8780 C   0  0  0  0  0  0  0  0  0  0  0  0
  144.1480  153.9790  133.7930 C   0  0  0  0  0  0  0  0  0  0  0  0
  145.4920  154.3320  133.8390 C   0  0  0  0  0  0  0  0  0  0  0  0
  145.8200  155.6950  133.7520 C   0  0  0  0  0  0  0  0  0  0  0  0
  144.8070  156.6820  133.6360 C   0  0  0  0  0  0  0  0  0  0  0  0
  145.1860  158.1160  133.5520 C   0  0  0  0  0  0  0  0  0  0  0  0
  144.3850  159.1280  134.1050 C   0  0  0  0  0  0  0  0  0  0  0  0
  144.8070  160.4510  133.9930 C   0  0  0  0  0  0  0  0  0  0  0  0
  145.9730  160.7420  133.3650 N   0  0  0  0  0  0  0  0  0  0  0  0
  146.7510  159.7590  132.8380 C   0  0  0  0  0  0  0  0  0  0  0  0
  147.9880  160.0650  132.1750 N   0  0  0  0  0  0  0  0  0  0  0  0
  149.0350  159.1090  131.9240 C   0  0  0  0  0  0  0  0  0  0  0  0
  148.8990  157.9060  132.2700 O   0  0  0  0  0  0  0  0  0  0  0  0
  150.2510  159.4980  131.2750 N   0  0  0  0  0  0  0  0  0  0  0  0
  150.3500  159.8860  129.8740 C   0  0  0  0  0  0  0  0  0  0  0  0
  149.5770  161.1810  129.6330 C   0  0  0  0  0  0  0  0  0  0  0  0
  149.6850  162.0340  130.7430 O   0  0  0  0  0  0  0  0  0  0  0  0
  146.3520  158.4630  132.9390 N   0  0  0  0  0  0  0  0  0  0  0  0
  143.4500  156.2790  133.5820 C   0  0  0  0  0  0  0  0  0  0  0  0
  143.1550  154.9120  133.6520 C   0  0  0  0  0  0  0  0  0  0  0  0
  138.3777  157.8632  135.2091 H   0  0  0  0  0  0  0  0  0  0  0  0
  138.5815  158.7381  133.6535 H   0  0  0  0  0  0  0  0  0  0  0  0
  138.1406  156.9967  133.6535 H   0  0  0  0  0  0  0  0  0  0  0  0
  141.7939  157.9706  132.7817 H   0  0  0  0  0  0  0  0  0  0  0  0
  140.7462  156.6353  132.1935 H   0  0  0  0  0  0  0  0  0  0  0  0
  140.1339  158.3239  132.1935 H   0  0  0  0  0  0  0  0  0  0  0  0
  140.7700  158.0183  136.1553 H   0  0  0  0  0  0  0  0  0  0  0  0
  142.0907  158.1475  134.9447 H   0  0  0  0  0  0  0  0  0  0  0  0
  140.7521  159.3452  134.9447 H   0  0  0  0  0  0  0  0  0  0  0  0
  139.9500  152.5710  132.0950 H   0  0  0  0  0  0  0  0  0  0  0  0
  144.0552  151.7688  133.9992 H   0  0  0  0  0  0  0  0  0  0  0  0
  146.2754  153.5665  133.9405 H   0  0  0  0  0  0  0  0  0  0  0  0
  146.8762  156.0014  133.7741 H   0  0  0  0  0  0  0  0  0  0  0  0
  143.4430  158.8811  134.6165 H   0  0  0  0  0  0  0  0  0  0  0  0
  144.1934  161.2607  134.4147 H   0  0  0  0  0  0  0  0  0  0  0  0
  148.1210  161.0520  131.8600 H   0  0  0  0  0  0  0  0  0  0  0  0
  151.4074  160.0393  129.6126 H   0  0  0  0  0  0  0  0  0  0  0  0
  149.9220  159.0890  129.2482 H   0  0  0  0  0  0  0  0  0  0  0  0
  149.9869  161.6873  128.7466 H   0  0  0  0  0  0  0  0  0  0  0  0
  148.5161  160.9370  129.4748 H   0  0  0  0  0  0  0  0  0  0  0  0
  150.3530  161.6250  131.3530 H   0  0  0  0  0  0  0  0  0  0  0  0
  142.6458  157.0235  133.4872 H   0  0  0  0  0  0  0  0  0  0  0  0
  1  2  1  0
  2  3  1  0
  2  4  1  0
  2  5  1  0
  5  6  1  0
  6  7  2  0
  6  8  1  0
  8  9  1  0
  9 10  1  0
 10 11  1  0
 10 12  2  0
  9 13  2  0
 13 14  1  0
 14 15  2  0
 15 16  1  0
 16 17  2  0
 17 18  1  0
 18 19  2  0
 19 20  1  0
 20 21  2  0
 21 22  1  0
 22 23  1  0
 23 24  1  0
 24 25  2  0
 24 26  1  0
 26 27  1  0
 27 28  1  0
 28 29  1  0
 22 30  2  0
 17 31  1  0
 31 32  2  0
 32  8  1  0
 32 14  1  0
 30 18  1  0
  1 33  1  0
  1 34  1  0
  1 35  1  0
  3 36  1  0
  3 37  1  0
  3 38  1  0
  4 39  1  0
  4 40  1  0
  4 41  1  0
 11 42  1  0
 13 43  1  0
 15 44  1  0
 16 45  1  0
 19 46  1  0
 20 47  1  0
 23 48  1  0
 27 49  1  0
 27 50  1  0
 28 51  1  0
 28 52  1  0
 29 53  1  0
 31 54  1  0
M  CHG  2  11  -1  26  -1
M  END
>  <UniqueID>  (11) 
11

>  <SMILES>  (11) 
CC(C)(C)OC(=O)n1c(C([NH-])=O)cc2ccc(-c3ccnc(NC(=O)[N-]CCO)n3)cc21

>  <Energy>  (11) 
90.68026849351435

>  <Genealogy>  (11) 
CC(C)(C)OC(=O)n1c(C([NH-])=O)cc2ccc(-c3ccnc(NC(=O)[N-]CCO)n3)cc21 (protonated)
CC(C)(C)OC(=O)n1c(C([NH-])=O)cc2ccc(-c3ccnc(NC(=O)[N-]CCO)n3)cc21 (3D coordinates assigned)
CC(C)(C)OC(=O)n1c(C([NH-])=O)cc2ccc(-c3ccnc(NC(=O)[N-]CCO)n3)cc21 (optimized conformer: 90.68026849351435 kcal/mol)

>  <smiles>  (11) 
CC(C)(C)OC(=O)n1c(C(N)=O)cc2ccc(-c3ccnc(NC(=O)NCCO)n3)cc21

>  <score_type>  (11) 
oracle

>  <origin>  (11) 
adg

>  <m_score__min__energy>  (11) 
-9.0899999999999999

>  <m_primary>  (11) 
energy

$$$$
11:0
     RDKit          3D

 73 79  0  0  0  0  0  0  0  0999 V2000
  138.8800  157.6830  135.7160 C   0  0  0  0  0  0  0  0  0  0  0  0
  139.7980  157.1730  135.1110 C   0  0  0  0  0  0  0  0  0  0  0  0
  140.8790  156.4820  134.2930 C   0  0  2  0  0  0  0  0  0  0  0  0
  140.2030  156.7370  132.9420 C   0  0  0  0  0  0  0  0  0  0  0  0
  140.3430  158.1510  132.5840 O   0  0  0  0  0  0  0  0  0  0  0  0
  141.0100  159.0810  133.5190 C   0  0  0  0  0  0  0  0  0  0  0  0
  142.2290  158.5080  134.4160 C   0  0  2  0  0  0  0  0  0  0  0  0
  142.0540  158.4880  136.0140 C   0  0  0  0  0  0  0  0  0  0  0  0
  142.4160  157.1480  136.8430 C   0  0  1  0  0  0  0  0  0  0  0  0
  142.4400  157.5450  138.3410 C   0  0  0  0  0  0  0  0  0  0  0  0
  141.6700  155.6810  136.6380 C   0  0  2  0  0  0  0  0  0  0  0  0
  140.4780  155.6790  137.5300 C   0  0  0  0  0  0  0  0  0  0  0  0
  139.5530  155.6710  138.2270 N   0  0  0  0  0  0  0  0  0  0  0  0
  142.5770  154.6020  137.2510 C   0  0  0  0  0  0  0  0  0  0  0  0
  142.1600  153.6280  138.0700 C   0  0  0  0  0  0  0  0  0  0  0  0
  141.1040  155.2140  135.1560 C   0  0  2  0  0  0  0  0  0  0  0  0
  141.7600  153.9820  134.4970 C   0  0  0  0  0  0  0  0  0  0  0  0
  141.0850  152.7530  134.2380 C   0  0  0  0  0  0  0  0  0  0  0  0
  141.7500  151.6680  133.6420 C   0  0  0  0  0  0  0  0  0  0  0  0
  143.0990  151.8070  133.3510 C   0  0  0  0  0  0  0  0  0  0  0  0
  143.9720  150.9230  132.7600 C   0  0  0  0  0  0  0  0  0  0  0  0
  145.1980  151.5840  132.7260 C   0  0  0  0  0  0  0  0  0  0  0  0
  146.4460  150.9570  132.2440 C   0  0  0  0  0  0  0  0  0  0  0  0
  147.5800  151.7490  131.9030 N   0  0  0  0  0  0  0  0  0  0  0  0
  146.5290  149.7010  132.1810 O   0  0  0  0  0  0  0  0  0  0  0  0
  145.0850  152.8280  133.2710 N   0  0  0  0  0  0  0  0  0  0  0  0
  146.0890  153.8530  133.3320 C   0  0  0  0  0  0  0  0  0  0  0  0
  146.3420  154.5600  132.3200 O   0  0  0  0  0  0  0  0  0  0  0  0
  146.8120  154.0580  134.5000 O   0  0  0  0  0  0  0  0  0  0  0  0
  143.7930  152.9460  133.6500 C   0  0  0  0  0  0  0  0  0  0  0  0
  143.1540  154.0470  134.2270 C   0  0  0  0  0  0  0  0  0  0  0  0
  143.5490  159.2070  134.0890 C   0  0  0  0  0  0  0  0  0  0  0  0
  143.6240  160.6090  134.1390 C   0  0  0  0  0  0  0  0  0  0  0  0
  144.8250  161.2670  133.8940 C   0  0  0  0  0  0  0  0  0  0  0  0
  145.9840  160.5410  133.6030 C   0  0  0  0  0  0  0  0  0  0  0  0
  147.1850  161.2170  133.3340 C   0  0  0  0  0  0  0  0  0  0  0  0
  148.3440  160.5010  133.0350 C   0  0  0  0  0  0  0  0  0  0  0  0
  148.3160  159.1080  133.0000 C   0  0  0  0  0  0  0  0  0  0  0  0
  147.1310  158.4190  133.2690 C   0  0  0  0  0  0  0  0  0  0  0  0
  145.9460  159.1210  133.5850 C   0  0  0  0  0  0  0  0  0  0  0  0
  144.7270  158.4520  133.8750 C   0  0  0  0  0  0  0  0  0  0  0  0
  144.6420  156.9330  133.9050 C   0  0  0  0  0  0  0  0  0  0  0  0
  143.4380  156.4400  134.4750 O   0  0  0  0  0  0  0  0  0  0  0  0
  142.3050  157.1130  133.9600 C   0  0  1  0  0  0  0  0  0  0  0  0
  138.0468  158.1459  136.2651 H   0  0  0  0  0  0  0  0  0  0  0  0
  140.6797  156.1146  132.1704 H   0  0  0  0  0  0  0  0  0  0  0  0
  139.1355  156.4809  133.0124 H   0  0  0  0  0  0  0  0  0  0  0  0
  141.4062  159.9164  132.9232 H   0  0  0  0  0  0  0  0  0  0  0  0
  140.2305  159.3446  134.2490 H   0  0  0  0  0  0  0  0  0  0  0  0
  142.6889  159.2921  136.4145 H   0  0  0  0  0  0  0  0  0  0  0  0
  140.9677  158.5900  136.1539 H   0  0  0  0  0  0  0  0  0  0  0  0
  143.3647  156.8591  136.3671 H   0  0  0  0  0  0  0  0  0  0  0  0
  142.3852  156.6384  138.9615 H   0  0  0  0  0  0  0  0  0  0  0  0
  143.3724  158.0850  138.5623 H   0  0  0  0  0  0  0  0  0  0  0  0
  141.5794  158.1934  138.5623 H   0  0  0  0  0  0  0  0  0  0  0  0
  143.6472  154.6321  136.9984 H   0  0  0  0  0  0  0  0  0  0  0  0
  142.8795  152.8952  138.4641 H   0  0  0  0  0  0  0  0  0  0  0  0
  141.0980  153.5608  138.3486 H   0  0  0  0  0  0  0  0  0  0  0  0
  140.1224  154.7372  135.2940 H   0  0  0  0  0  0  0  0  0  0  0  0
  140.0239  152.6523  134.5098 H   0  0  0  0  0  0  0  0  0  0  0  0
  141.2155  150.7343  133.4126 H   0  0  0  0  0  0  0  0  0  0  0  0
  143.7495  149.9103  132.3927 H   0  0  0  0  0  0  0  0  0  0  0  0
  147.4980  152.7840  131.7900 H   0  0  0  0  0  0  0  0  0  0  0  0
  143.7247  154.9555  134.4700 H   0  0  0  0  0  0  0  0  0  0  0  0
  142.7224  161.1934  134.3747 H   0  0  0  0  0  0  0  0  0  0  0  0
  144.8631  162.3658  133.9294 H   0  0  0  0  0  0  0  0  0  0  0  0
  147.2119  162.3164  133.3592 H   0  0  0  0  0  0  0  0  0  0  0  0
  149.2818  161.0367  132.8264 H   0  0  0  0  0  0  0  0  0  0  0  0
  149.2318  158.5482  132.7593 H   0  0  0  0  0  0  0  0  0  0  0  0
  147.1202  157.3196  133.2345 H   0  0  0  0  0  0  0  0  0  0  0  0
  144.7155  156.5605  132.8726 H   0  0  0  0  0  0  0  0  0  0  0  0
  145.4674  156.5771  134.5391 H   0  0  0  0  0  0  0  0  0  0  0  0
  142.4828  157.0177  132.8787 H   0  0  0  0  0  0  0  0  0  0  0  0
  1  2  3  0
  3  2  1  1
  3  4  1  0
  4  5  1  0
  5  6  1  0
  7  6  1  6
  7  8  1  0
  8  9  1  0
  9 10  1  0
  9 11  1  0
 11 12  1  1
 12 13  3  0
 11 14  1  0
 14 15  2  0
 11 16  1  0
 16 17  1  0
 17 18  2  0
 18 19  1  0
 19 20  2  0
 20 21  1  0
 21 22  2  0
 22 23  1  0
 23 24  1  0
 23 25  2  0
 22 26  1  0
 26 27  1  0
 27 28  2  0
 27 29  1  0
 26 30  1  0
 30 31  2  0
  7 32  1  0
 32 33  2  0
 33 34  1  0
 34 35  2  0
 35 36  1  0
 36 37  2  0
 37 38  1  0
 38 39  2  0
 39 40  1  0
 40 41  2  0
 41 42  1  0
 42 43  1  0
 43 44  1  0
 16  3  1  0
 31 17  1  0
 41 32  1  0
 44  3  1  0
 44  7  1  0
 30 20  1  0
 40 35  1  0
  1 45  1  0
  4 46  1  0
  4 47  1  0
  6 48  1  0
  6 49  1  0
  8 50  1  0
  8 51  1  0
  9 52  1  6
 10 53  1  0
 10 54  1  0
 10 55  1  0
 14 56  1  0
 15 57  1  0
 15 58  1  0
 16 59  1  1
 18 60  1  0
 19 61  1  0
 21 62  1  0
 24 63  1  0
 31 64  1  0
 33 65  1  0
 34 66  1  0
 36 67  1  0
 37 68  1  0
 38 69  1  0
 39 70  1  0
 42 71  1  0
 42 72  1  0
 44 73  1  6
M  CHG  2  24  -1  29  -1
M  END
>  <UniqueID>  (12) 
12

>  <SMILES>  (12) 
C#C[C@]12COC[C@]3(C[C@@H](C)[C@](C#N)(C=C)[C@@H]1c1ccc4cc(C([NH-])=O)n(C(=O)[O-])c4c1)c1ccc4ccccc4c1CO[C@H]32

>  <Energy>  (12) 
307.5403831481524

>  <Genealogy>  (12) 
C#C[C@]12COC[C@]3(C[C@@H](C)[C@](C#N)(C=C)[C@@H]1c1ccc4cc(C([NH-])=O)n(C(=O)[O-])c4c1)c1ccc4ccccc4c1CO[C@H]32 (protonated)
C#C[C@]12COC[C@]3(C[C@@H](C)[C@](C#N)(C=C)[C@@H]1c1ccc4cc(C([NH-])=O)n(C(=O)[O-])c4c1)c1ccc4ccccc4c1CO[C@H]32 (3D coordinates assigned)
C#C[C@]12COC[C@]3(C[C@@H](C)[C@](C#N)(C=C)[C@@H]1c1ccc4cc(C([NH-])=O)n(C(=O)[O-])c4c1)c1ccc4ccccc4c1CO[C@H]32 (nonaromatic ring conformer: 307.5403831481524 kcal/mol)

>  <smiles>  (12) 
C#C[C@]12COC[C@]3(C[C@@H](C)[C@](C#N)(C=C)[C@@H]1c1ccc4cc(C(N)=O)n(C(=O)O)c4c1)c1ccc4ccccc4c1CO[C@H]32

>  <score_type>  (12) 
oracle

>  <origin>  (12) 
adg

>  <m_score__min__energy>  (12) 
159.41

>  <m_primary>  (12) 
energy

$$$$
12:0
     RDKit          3D

 52 53  0  0  0  0  0  0  0  0999 V2000
  151.2120  149.2330  129.3410 C   0  0  0  0  0  0  0  0  0  0  0  0
  150.4410  150.4030  129.9380 C   0  0  0  0  0  0  0  0  0  0  0  0
  150.7160  150.5300  131.3320 O   0  0  0  0  0  0  0  0  0  0  0  0
  149.7760  150.9790  132.2660 C   0  0  0  0  0  0  0  0  0  0  0  0
  148.8600  150.2150  132.6770 O   0  0  0  0  0  0  0  0  0  0  0  0
  149.8850  152.3700  132.8090 C   0  0  0  0  0  0  0  0  0  0  0  0
  148.6100  153.1810  132.5470 C   0  0  0  0  0  0  0  0  0  0  0  0
  148.8550  154.6930  132.6360 C   0  0  0  0  0  0  0  0  0  0  0  0
  147.5720  155.4180  132.9380 C   0  0  0  0  0  0  0  0  0  0  0  0
  146.4420  154.6970  133.3990 C   0  0  0  0  0  0  0  0  0  0  0  0
  145.2520  155.3660  133.7300 C   0  0  0  0  0  0  0  0  0  0  0  0
  145.2230  156.7510  133.5920 C   0  0  0  0  0  0  0  0  0  0  0  0
  144.2180  157.6470  133.8750 C   0  0  0  0  0  0  0  0  0  0  0  0
  144.7440  158.9020  133.5700 C   0  0  0  0  0  0  0  0  0  0  0  0
  143.9640  160.1520  133.6560 C   0  0  0  0  0  0  0  0  0  0  0  0
  144.6120  161.4080  133.8370 N   0  0  0  0  0  0  0  0  0  0  0  0
  142.7120  160.1190  133.5170 O   0  0  0  0  0  0  0  0  0  0  0  0
  146.0270  158.7860  133.1240 N   0  0  0  0  0  0  0  0  0  0  0  0
  146.9440  159.8450  132.8110 C   0  0  0  0  0  0  0  0  0  0  0  0
  147.3250  160.6310  133.7190 O   0  0  0  0  0  0  0  0  0  0  0  0
  147.3840  160.0060  131.4880 O   0  0  0  0  0  0  0  0  0  0  0  0
  148.7480  160.0250  131.0400 C   0  0  0  0  0  0  0  0  0  0  0  0
  148.9200  159.1340  129.7950 C   0  0  0  0  0  0  0  0  0  0  0  0
  149.6070  159.4560  132.1800 C   0  0  0  0  0  0  0  0  0  0  0  0
  149.2060  161.4660  130.7450 C   0  0  0  0  0  0  0  0  0  0  0  0
  146.3050  157.4630  133.1410 C   0  0  0  0  0  0  0  0  0  0  0  0
  147.5090  156.8240  132.8220 C   0  0  0  0  0  0  0  0  0  0  0  0
  151.6213  148.6119  130.1514 H   0  0  0  0  0  0  0  0  0  0  0  0
  150.5358  148.6268  128.7202 H   0  0  0  0  0  0  0  0  0  0  0  0
  152.0357  149.6153  128.7202 H   0  0  0  0  0  0  0  0  0  0  0  0
  150.7378  151.3300  129.4256 H   0  0  0  0  0  0  0  0  0  0  0  0
  149.3643  150.2212  129.8053 H   0  0  0  0  0  0  0  0  0  0  0  0
  150.0574  152.3169  133.8941 H   0  0  0  0  0  0  0  0  0  0  0  0
  150.7220  152.8722  132.3018 H   0  0  0  0  0  0  0  0  0  0  0  0
  148.2386  152.9412  131.5397 H   0  0  0  0  0  0  0  0  0  0  0  0
  147.8748  152.9125  133.3198 H   0  0  0  0  0  0  0  0  0  0  0  0
  149.5821  154.8954  133.4362 H   0  0  0  0  0  0  0  0  0  0  0  0
  149.2450  155.0475  131.6705 H   0  0  0  0  0  0  0  0  0  0  0  0
  146.4975  153.6029  133.4985 H   0  0  0  0  0  0  0  0  0  0  0  0
  144.3707  154.8129  134.0870 H   0  0  0  0  0  0  0  0  0  0  0  0
  143.2127  157.4213  134.2602 H   0  0  0  0  0  0  0  0  0  0  0  0
  145.4790  161.6480  133.3070 H   0  0  0  0  0  0  0  0  0  0  0  0
  149.1198  158.0990  130.1096 H   0  0  0  0  0  0  0  0  0  0  0  0
  147.9996  159.1632  129.1933 H   0  0  0  0  0  0  0  0  0  0  0  0
  149.7634  159.5036  129.1933 H   0  0  0  0  0  0  0  0  0  0  0  0
  149.1705  159.7451  133.1474 H   0  0  0  0  0  0  0  0  0  0  0  0
  149.6367  158.3590  132.1043 H   0  0  0  0  0  0  0  0  0  0  0  0
  150.6287  159.8565  132.1043 H   0  0  0  0  0  0  0  0  0  0  0  0
  149.3752  161.9982  131.6927 H   0  0  0  0  0  0  0  0  0  0  0  0
  150.1409  161.4423  130.1658 H   0  0  0  0  0  0  0  0  0  0  0  0
  148.4290  161.9864  130.1658 H   0  0  0  0  0  0  0  0  0  0  0  0
  148.3836  157.4023  132.4895 H   0  0  0  0  0  0  0  0  0  0  0  0
  1  2  1  0
  2  3  1  0
  3  4  1  0
  4  5  2  0
  4  6  1  0
  6  7  1  0
  7  8  1  0
  8  9  1  0
  9 10  2  0
 10 11  1  0
 11 12  2  0
 12 13  1  0
 13 14  2  0
 14 15  1  0
 15 16  1  0
 15 17  2  0
 14 18  1  0
 18 19  1  0
 19 20  2  0
 19 21  1  0
 21 22  1  0
 22 23  1  0
 22 24  1  0
 22 25  1  0
 18 26  1  0
 26 27  2  0
 27  9  1  0
 26 12  1  0
  1 28  1  0
  1 29  1  0
  1 30  1  0
  2 31  1  0
  2 32  1  0
  6 33  1  0
  6 34  1  0
  7 35  1  0
  7 36  1  0
  8 37  1  0
  8 38  1  0
 10 39  1  0
 11 40  1  0
 13 41  1  0
 16 42  1  0
 23 43  1  0
 23 44  1  0
 23 45  1  0
 24 46  1  0
 24 47  1  0
 24 48  1  0
 25 49  1  0
 25 50  1  0
 25 51  1  0
 27 52  1  0
M  CHG  1  16  -1
M  END
>  <UniqueID>  (13) 
13

>  <SMILES>  (13) 
CCOC(=O)CCCc1ccc2cc(C([NH-])=O)n(C(=O)OC(C)(C)C)c2c1

>  <Energy>  (13) 
75.79788706849187

>  <Genealogy>  (13) 
CCOC(=O)CCCc1ccc2cc(C([NH-])=O)n(C(=O)OC(C)(C)C)c2c1 (protonated)
CCOC(=O)CCCc1ccc2cc(C([NH-])=O)n(C(=O)OC(C)(C)C)c2c1 (3D coordinates assigned)
CCOC(=O)CCCc1ccc2cc(C([NH-])=O)n(C(=O)OC(C)(C)C)c2c1 (optimized conformer: 75.79788706849187 kcal/mol)

>  <smiles>  (13) 
CCOC(=O)CCCc1ccc2cc(C(N)=O)n(C(=O)OC(C)(C)C)c2c1

>  <score_type>  (13) 
oracle

>  <origin>  (13) 
adg

>  <m_score__min__energy>  (13) 
-8.0600000000000005

>  <m_primary>  (13) 
energy

$$$$
13:0
     RDKit          3D

 32 33  0  0  0  0  0  0  0  0999 V2000
  148.5010  160.4280  131.0970 C   0  0  0  0  0  0  0  0  0  0  0  0
  149.2190  159.0840  131.0470 C   0  0  0  0  0  0  0  0  0  0  0  0
  148.5960  158.1490  131.9240 O   0  0  0  0  0  0  0  0  0  0  0  0
  148.0090  158.5080  133.1430 C   0  0  0  0  0  0  0  0  0  0  0  0
  148.7110  159.0080  134.0650 O   0  0  0  0  0  0  0  0  0  0  0  0
  146.6020  158.3020  133.3480 N   0  0  0  0  0  0  0  0  0  0  0  0
  145.9080  157.1360  133.2290 C   0  0  0  0  0  0  0  0  0  0  0  0
  146.4970  155.7980  133.0170 C   0  0  0  0  0  0  0  0  0  0  0  0
  147.3440  155.5300  131.8980 N   0  0  0  0  0  0  0  0  0  0  0  0
  146.2930  154.8910  133.8670 O   0  0  0  0  0  0  0  0  0  0  0  0
  144.5430  157.3560  133.3840 C   0  0  0  0  0  0  0  0  0  0  0  0
  144.4180  158.7060  133.6210 C   0  0  0  0  0  0  0  0  0  0  0  0
  143.2770  159.4740  133.8270 C   0  0  0  0  0  0  0  0  0  0  0  0
  143.4390  160.8590  134.0050 C   0  0  0  0  0  0  0  0  0  0  0  0
  144.7280  161.4430  133.9750 C   0  0  0  0  0  0  0  0  0  0  0  0
  144.8810  162.9300  134.1110 C   0  0  0  0  0  0  0  0  0  0  0  0
  145.8620  160.6360  133.7450 C   0  0  0  0  0  0  0  0  0  0  0  0
  145.6750  159.2560  133.5940 C   0  0  0  0  0  0  0  0  0  0  0  0
  148.3444  160.7212  132.1456 H   0  0  0  0  0  0  0  0  0  0  0  0
  149.1125  161.1894  130.5908 H   0  0  0  0  0  0  0  0  0  0  0  0
  147.5281  160.3430  130.5908 H   0  0  0  0  0  0  0  0  0  0  0  0
  149.1845  158.6938  130.0191 H   0  0  0  0  0  0  0  0  0  0  0  0
  150.2622  159.2274  131.3650 H   0  0  0  0  0  0  0  0  0  0  0  0
  147.7170  154.5670  131.7430 H   0  0  0  0  0  0  0  0  0  0  0  0
  147.6730  156.2990  131.2750 H   0  0  0  0  0  0  0  0  0  0  0  0
  143.7362  156.6104  133.3289 H   0  0  0  0  0  0  0  0  0  0  0  0
  142.2789  159.0121  133.8499 H   0  0  0  0  0  0  0  0  0  0  0  0
  142.5563  161.4945  134.1691 H   0  0  0  0  0  0  0  0  0  0  0  0
  144.9088  163.1998  135.1770 H   0  0  0  0  0  0  0  0  0  0  0  0
  145.8166  163.2480  133.6278 H   0  0  0  0  0  0  0  0  0  0  0  0
  144.0298  163.4319  133.6278 H   0  0  0  0  0  0  0  0  0  0  0  0
  146.8671  161.0790  133.6858 H   0  0  0  0  0  0  0  0  0  0  0  0
  1  2  1  0
  2  3  1  0
  3  4  1  0
  4  5  2  0
  4  6  1  0
  6  7  1  0
  7  8  1  0
  8  9  1  0
  8 10  2  0
  7 11  2  0
 11 12  1  0
 12 13  2  0
 13 14  1  0
 14 15  2  0
 15 16  1  0
 15 17  1  0
 17 18  2  0
 18  6  1  0
 18 12  1  0
  1 19  1  0
  1 20  1  0
  1 21  1  0
  2 22  1  0
  2 23  1  0
  9 24  1  0
  9 25  1  0
 11 26  1  0
 13 27  1  0
 14 28  1  0
 16 29  1  0
 16 30  1  0
 16 31  1  0
 17 32  1  0
M  END
>  <UniqueID>  (14) 
14

>  <SMILES>  (14) 
CCOC(=O)n1c(C(N)=O)cc2ccc(C)cc21

>  <Energy>  (14) 
66.74623754942559

>  <Genealogy>  (14) 
CCOC(=O)n1c(C(N)=O)cc2ccc(C)cc21 (3D coordinates assigned)
CCOC(=O)n1c(C(N)=O)cc2ccc(C)cc21 (optimized conformer: 66.74623754942559 kcal/mol)

>  <smiles>  (14) 
CCOC(=O)n1c(C(N)=O)cc2ccc(C)cc21

>  <score_type>  (14) 
oracle

>  <origin>  (14) 
adg

>  <m_score__min__energy>  (14) 
-6.1299999999999999

>  <m_primary>  (14) 
energy

$$$$
14:0
     RDKit          3D

 46 48  0  0  0  0  0  0  0  0999 V2000
  138.3630  157.5250  133.5470 C   0  0  0  0  0  0  0  0  0  0  0  0
  139.8920  157.6670  133.4160 C   0  0  0  0  0  0  0  0  0  0  0  0
  140.5210  157.5820  134.8140 C   0  0  0  0  0  0  0  0  0  0  0  0
  140.2590  159.0260  132.7880 C   0  0  0  0  0  0  0  0  0  0  0  0
  140.4350  156.5890  132.6410 O   0  0  0  0  0  0  0  0  0  0  0  0
  140.4320  155.2290  132.9890 C   0  0  0  0  0  0  0  0  0  0  0  0
  139.3600  154.6440  133.3000 O   0  0  0  0  0  0  0  0  0  0  0  0
  141.6710  154.5030  133.0020 N   0  0  0  0  0  0  0  0  0  0  0  0
  142.9210  155.0040  133.2130 C   0  0  0  0  0  0  0  0  0  0  0  0
  143.2630  156.4400  133.3150 C   0  0  0  0  0  0  0  0  0  0  0  0
  142.7910  157.3730  132.3420 N   0  0  0  0  0  0  0  0  0  0  0  0
  143.9530  156.8600  134.2810 O   0  0  0  0  0  0  0  0  0  0  0  0
  143.8630  153.9770  133.2300 C   0  0  0  0  0  0  0  0  0  0  0  0
  143.1450  152.8220  133.0200 C   0  0  0  0  0  0  0  0  0  0  0  0
  143.5770  151.5030  132.9550 C   0  0  0  0  0  0  0  0  0  0  0  0
  142.6110  150.5030  132.7560 C   0  0  0  0  0  0  0  0  0  0  0  0
  141.2360  150.8250  132.6360 C   0  0  0  0  0  0  0  0  0  0  0  0
  140.2620  149.6760  132.4340 C   0  0  1  0  0  0  0  0  0  0  0  0
  138.9160  150.0210  131.7960 C   0  0  0  0  0  0  0  0  0  0  0  0
  139.9670  149.2520  130.9960 C   0  0  2  0  0  0  0  0  0  0  0  0
  139.6810  147.7600  130.7550 C   0  0  0  0  0  0  0  0  0  0  0  0
  138.3640  147.5200  130.3330 O   0  0  0  0  0  0  0  0  0  0  0  0
  140.8380  152.1870  132.7080 C   0  0  0  0  0  0  0  0  0  0  0  0
  141.8250  153.1650  132.8870 C   0  0  0  0  0  0  0  0  0  0  0  0
  138.0870  157.4994  134.6115 H   0  0  0  0  0  0  0  0  0  0  0  0
  137.8723  158.3814  133.0615 H   0  0  0  0  0  0  0  0  0  0  0  0
  138.0384  156.5928  133.0615 H   0  0  0  0  0  0  0  0  0  0  0  0
  139.7354  157.6882  135.5766 H   0  0  0  0  0  0  0  0  0  0  0  0
  141.0188  156.6084  134.9335 H   0  0  0  0  0  0  0  0  0  0  0  0
  141.2594  158.3885  134.9335 H   0  0  0  0  0  0  0  0  0  0  0  0
  140.4565  159.7572  133.5857 H   0  0  0  0  0  0  0  0  0  0  0  0
  141.1583  158.9112  132.1650 H   0  0  0  0  0  0  0  0  0  0  0  0
  139.4241  159.3795  132.1650 H   0  0  0  0  0  0  0  0  0  0  0  0
  143.0080  158.3900  132.4420 H   0  0  0  0  0  0  0  0  0  0  0  0
  142.2630  157.0580  131.4980 H   0  0  0  0  0  0  0  0  0  0  0  0
  144.9488  154.0699  133.3794 H   0  0  0  0  0  0  0  0  0  0  0  0
  144.6426  151.2498  133.0563 H   0  0  0  0  0  0  0  0  0  0  0  0
  142.9272  149.4514  132.6921 H   0  0  0  0  0  0  0  0  0  0  0  0
  140.5839  149.1519  133.3460 H   0  0  0  0  0  0  0  0  0  0  0  0
  138.0008  149.5125  132.1335 H   0  0  0  0  0  0  0  0  0  0  0  0
  138.3436  150.9473  131.6400 H   0  0  0  0  0  0  0  0  0  0  0  0
  140.4706  149.3921  130.0281 H   0  0  0  0  0  0  0  0  0  0  0  0
  140.3707  147.3903  129.9819 H   0  0  0  0  0  0  0  0  0  0  0  0
  139.8227  147.2367  131.7121 H   0  0  0  0  0  0  0  0  0  0  0  0
  137.7840  147.7240  131.1120 H   0  0  0  0  0  0  0  0  0  0  0  0
  139.7776  152.4676  132.6250 H   0  0  0  0  0  0  0  0  0  0  0  0
  1  2  1  0
  2  3  1  0
  2  4  1  0
  2  5  1  0
  5  6  1  0
  6  7  2  0
  6  8  1  0
  8  9  1  0
  9 10  1  0
 10 11  1  0
 10 12  2  0
  9 13  2  0
 13 14  1  0
 14 15  2  0
 15 16  1  0
 16 17  2  0
 17 18  1  0
 18 19  1  0
 19 20  1  0
 20 21  1  0
 21 22  1  0
 17 23  1  0
 23 24  2  0
 24  8  1  0
 24 14  1  0
 20 18  1  0
  1 25  1  0
  1 26  1  0
  1 27  1  0
  3 28  1  0
  3 29  1  0
  3 30  1  0
  4 31  1  0
  4 32  1  0
  4 33  1  0
 11 34  1  0
 11 35  1  0
 13 36  1  0
 15 37  1  0
 16 38  1  0
 18 39  1  1
 19 40  1  0
 19 41  1  0
 20 42  1  6
 21 43  1  0
 21 44  1  0
 22 45  1  0
 23 46  1  0
M  END
>  <UniqueID>  (15) 
15

>  <SMILES>  (15) 
CC(C)(C)OC(=O)n1c(C(N)=O)cc2ccc([C@H]3C[C@@H]3CO)cc21

>  <Energy>  (15) 
350.64213945343096

>  <Genealogy>  (15) 
CC(C)(C)OC(=O)n1c(C(N)=O)cc2ccc([C@H]3C[C@@H]3CO)cc21 (chirality)
CC(C)(C)OC(=O)n1c(C(N)=O)cc2ccc([C@H]3C[C@@H]3CO)cc21 (3D coordinates assigned)
CC(C)(C)OC(=O)n1c(C(N)=O)cc2ccc([C@H]3C[C@@H]3CO)cc21 (nonaromatic ring conformer: 350.64213945343096 kcal/mol)

>  <smiles>  (15) 
CC(C)(C)OC(=O)n1c(C(N)=O)cc2ccc(C3CC3CO)cc21

>  <score_type>  (15) 
oracle

>  <origin>  (15) 
adg

>  <m_score__min__energy>  (15) 
-8.0800000000000001

>  <m_primary>  (15) 
energy

$$$$
15:0
     RDKit          3D

 67 71  0  0  0  0  0  0  0  0999 V2000
  139.3930  158.2270  135.4180 C   0  0  0  0  0  0  0  0  0  0  0  0
  139.7270  157.8780  134.0360 N   0  0  0  0  0  0  0  0  0  0  0  0
  140.0640  156.5190  133.7160 C   0  0  0  0  0  0  0  0  0  0  0  0
  141.3220  156.0580  133.9510 N   0  0  0  0  0  0  0  0  0  0  0  0
  141.6510  154.7590  133.7330 C   0  0  0  0  0  0  0  0  0  0  0  0
  142.9560  154.2920  134.1030 N   0  0  0  0  0  0  0  0  0  0  0  0
  143.9860  154.1930  133.0670 C   0  0  0  0  0  0  0  0  0  0  0  0
  143.1780  153.7830  135.4380 C   0  0  0  0  0  0  0  0  0  0  0  0
  144.3210  154.1980  136.1730 C   0  0  0  0  0  0  0  0  0  0  0  0
  144.5520  153.7290  137.4770 C   0  0  0  0  0  0  0  0  0  0  0  0
  143.6200  152.8580  138.0310 C   0  0  0  0  0  0  0  0  0  0  0  0
  143.6070  152.2480  139.2640 C   0  0  0  0  0  0  0  0  0  0  0  0
  142.4430  151.4820  139.2840 C   0  0  0  0  0  0  0  0  0  0  0  0
  141.9960  150.7160  140.4680 C   0  0  0  0  0  0  0  0  0  0  0  0
  142.8010  149.6780  141.0180 N   0  0  0  0  0  0  0  0  0  0  0  0
  140.8640  150.9520  140.9730 O   0  0  0  0  0  0  0  0  0  0  0  0
  141.7680  151.6050  138.1060 N   0  0  0  0  0  0  0  0  0  0  0  0
  140.5800  150.9050  137.6950 C   0  0  0  0  0  0  0  0  0  0  0  0
  139.5930  150.8170  138.4730 O   0  0  0  0  0  0  0  0  0  0  0  0
  140.5160  150.3110  136.4380 O   0  0  0  0  0  0  0  0  0  0  0  0
  142.5030  152.4540  137.3480 C   0  0  0  0  0  0  0  0  0  0  0  0
  142.2600  152.8840  136.0360 C   0  0  0  0  0  0  0  0  0  0  0  0
  140.6810  153.8750  133.2270 C   0  0  0  0  0  0  0  0  0  0  0  0
  140.9850  152.4900  132.9750 C   0  0  0  0  0  0  0  0  0  0  0  0
  141.2340  151.3780  132.7740 N   0  0  0  0  0  0  0  0  0  0  0  0
  139.3970  154.3690  132.9790 C   0  0  0  0  0  0  0  0  0  0  0  0
  139.1070  155.6700  133.2390 N   0  0  0  0  0  0  0  0  0  0  0  0
  139.2710  158.7370  132.9770 C   0  0  0  0  0  0  0  0  0  0  0  0
  138.0540  158.4330  132.3400 C   0  0  0  0  0  0  0  0  0  0  0  0
  137.5380  159.2710  131.3530 C   0  0  0  0  0  0  0  0  0  0  0  0
  138.2290  160.4270  130.9870 C   0  0  0  0  0  0  0  0  0  0  0  0
  139.4450  160.7420  131.6020 C   0  0  0  0  0  0  0  0  0  0  0  0
  139.9910  159.9020  132.5970 C   0  0  0  0  0  0  0  0  0  0  0  0
  141.3090  160.2480  133.1940 C   0  0  0  0  0  0  0  0  0  0  0  0
  141.4800  161.3840  133.7210 O   0  0  0  0  0  0  0  0  0  0  0  0
  142.3710  159.3360  133.1390 O   0  0  0  0  0  0  0  0  0  0  0  0
  143.2450  159.0790  134.2410 C   0  0  0  0  0  0  0  0  0  0  0  0
  144.6570  158.9250  133.7490 C   0  0  0  0  0  0  0  0  0  0  0  0
  145.4230  160.0580  133.4210 C   0  0  0  0  0  0  0  0  0  0  0  0
  146.7540  159.9130  133.0220 C   0  0  0  0  0  0  0  0  0  0  0  0
  147.3300  158.6390  132.9520 C   0  0  0  0  0  0  0  0  0  0  0  0
  146.5760  157.5070  133.2800 C   0  0  0  0  0  0  0  0  0  0  0  0
  145.2450  157.6490  133.6820 C   0  0  0  0  0  0  0  0  0  0  0  0
  139.9863  157.6071  136.1063 H   0  0  0  0  0  0  0  0  0  0  0  0
  139.6198  159.2890  135.5930 H   0  0  0  0  0  0  0  0  0  0  0  0
  138.3220  158.0471  135.5930 H   0  0  0  0  0  0  0  0  0  0  0  0
  144.9743  154.0980  133.5405 H   0  0  0  0  0  0  0  0  0  0  0  0
  143.7928  153.3093  132.4411 H   0  0  0  0  0  0  0  0  0  0  0  0
  143.9647  155.0973  132.4411 H   0  0  0  0  0  0  0  0  0  0  0  0
  145.0357  154.8970  135.7141 H   0  0  0  0  0  0  0  0  0  0  0  0
  145.4425  154.0411  138.0424 H   0  0  0  0  0  0  0  0  0  0  0  0
  144.3560  152.3444  140.0639 H   0  0  0  0  0  0  0  0  0  0  0  0
  142.9740  148.7980  140.4810 H   0  0  0  0  0  0  0  0  0  0  0  0
  141.3767  152.5316  135.4831 H   0  0  0  0  0  0  0  0  0  0  0  0
  138.6210  153.7035  132.5730 H   0  0  0  0  0  0  0  0  0  0  0  0
  138.1370  156.0170  133.0650 H   0  0  0  0  0  0  0  0  0  0  0  0
  137.5036  157.5239  132.6240 H   0  0  0  0  0  0  0  0  0  0  0  0
  136.5857  159.0211  130.8623 H   0  0  0  0  0  0  0  0  0  0  0  0
  137.8166  161.0915  130.2135 H   0  0  0  0  0  0  0  0  0  0  0  0
  139.9826  161.6552  131.3070 H   0  0  0  0  0  0  0  0  0  0  0  0
  143.1952  159.9189  134.9496 H   0  0  0  0  0  0  0  0  0  0  0  0
  142.9328  158.1508  134.7420 H   0  0  0  0  0  0  0  0  0  0  0  0
  144.9733  161.0602  133.4787 H   0  0  0  0  0  0  0  0  0  0  0  0
  147.3498  160.8005  132.7627 H   0  0  0  0  0  0  0  0  0  0  0  0
  148.3784  158.5276  132.6382 H   0  0  0  0  0  0  0  0  0  0  0  0
  147.0301  156.5068  133.2216 H   0  0  0  0  0  0  0  0  0  0  0  0
  144.6549  156.7593  133.9471 H   0  0  0  0  0  0  0  0  0  0  0  0
  1  2  1  0
  2  3  1  0
  3  4  2  0
  4  5  1  0
  5  6  1  0
  6  7  1  0
  6  8  1  0
  8  9  2  0
  9 10  1  0
 10 11  2  0
 11 12  1  0
 12 13  2  0
 13 14  1  0
 14 15  1  0
 14 16  2  0
 13 17  1  0
 17 18  1  0
 18 19  2  0
 18 20  1  0
 17 21  1  0
 21 22  2  0
  5 23  2  0
 23 24  1  0
 24 25  3  0
 23 26  1  0
 26 27  2  0
  2 28  1  0
 28 29  2  0
 29 30  1  0
 30 31  2  0
 31 32  1  0
 32 33  2  0
 33 34  1  0
 34 35  2  0
 34 36  1  0
 36 37  1  0
 37 38  1  0
 38 39  2  0
 39 40  1  0
 40 41  2  0
 41 42  1  0
 42 43  2  0
 27  3  1  0
 33 28  1  0
 43 38  1  0
 22  8  1  0
 21 11  1  0
  1 44  1  0
  1 45  1  0
  1 46  1  0
  7 47  1  0
  7 48  1  0
  7 49  1  0
  9 50  1  0
 10 51  1  0
 12 52  1  0
 15 53  1  0
 22 54  1  0
 26 55  1  0
 27 56  1  0
 29 57  1  0
 30 58  1  0
 31 59  1  0
 32 60  1  0
 37 61  1  0
 37 62  1  0
 39 63  1  0
 40 64  1  0
 41 65  1  0
 42 66  1  0
 43 67  1  0
M  CHG  3  15  -1  20  -1  27   1
M  END
>  <UniqueID>  (16) 
16

>  <SMILES>  (16) 
CN(c1nc(N(C)c2ccc3cc(C([NH-])=O)n(C(=O)[O-])c3c2)c(C#N)c[nH+]1)c1ccccc1C(=O)OCc1ccccc1

>  <Energy>  (16) 
131.23049565412322

>  <Genealogy>  (16) 
CN(c1nc(N(C)c2ccc3cc(C([NH-])=O)n(C(=O)[O-])c3c2)c(C#N)c[nH+]1)c1ccccc1C(=O)OCc1ccccc1 (protonated)
CN(c1nc(N(C)c2ccc3cc(C([NH-])=O)n(C(=O)[O-])c3c2)c(C#N)c[nH+]1)c1ccccc1C(=O)OCc1ccccc1 (3D coordinates assigned)
CN(c1nc(N(C)c2ccc3cc(C([NH-])=O)n(C(=O)[O-])c3c2)c(C#N)c[nH+]1)c1ccccc1C(=O)OCc1ccccc1 (optimized conformer: 131.23049565412322 kcal/mol)

>  <smiles>  (16) 
CN(c1ncc(C#N)c(N(C)c2ccc3cc(C(N)=O)n(C(=O)O)c3c2)n1)c1ccccc1C(=O)OCc1ccccc1

>  <score_type>  (16) 
oracle

>  <origin>  (16) 
adg

>  <m_score__min__energy>  (16) 
-11.59

>  <m_primary>  (16) 
energy

$$$$
16:0
     RDKit          3D

 37 39  0  0  0  0  0  0  0  0999 V2000
  139.4910  156.2000  133.3010 C   0  0  0  0  0  0  0  0  0  0  0  0
  139.2430  157.7440  134.1500 S   0  0  0  0  0  0  0  0  0  0  0  0
  138.7340  157.4630  135.5340 O   0  0  0  0  0  0  0  0  0  0  0  0
  138.1900  158.5410  133.4320 O   0  0  0  0  0  0  0  0  0  0  0  0
  140.7730  158.6620  134.1870 C   0  0  0  0  0  0  0  0  0  0  0  0
  141.0290  159.6410  133.1940 C   0  0  0  0  0  0  0  0  0  0  0  0
  139.9420  159.9230  131.8380 Cl  0  0  0  0  0  0  0  0  0  0  0  0
  142.1920  160.4170  133.2520 C   0  0  0  0  0  0  0  0  0  0  0  0
  143.1140  160.2310  134.2780 C   0  0  0  0  0  0  0  0  0  0  0  0
  142.8970  159.2530  135.2420 C   0  0  0  0  0  0  0  0  0  0  0  0
  141.7460  158.4510  135.2020 C   0  0  0  0  0  0  0  0  0  0  0  0
  141.6220  157.3850  136.2140 C   0  0  0  0  0  0  0  0  0  0  0  0
  141.3840  157.7200  137.5680 C   0  0  0  0  0  0  0  0  0  0  0  0
  141.2840  156.7160  138.5450 C   0  0  0  0  0  0  0  0  0  0  0  0
  141.4260  155.3930  138.1360 C   0  0  0  0  0  0  0  0  0  0  0  0
  141.4010  154.2310  138.8730 C   0  0  0  0  0  0  0  0  0  0  0  0
  141.6130  153.2050  137.9550 C   0  0  0  0  0  0  0  0  0  0  0  0
  141.5750  151.7720  138.3170 C   0  0  0  0  0  0  0  0  0  0  0  0
  140.5910  150.9020  137.7650 N   0  0  0  0  0  0  0  0  0  0  0  0
  142.3930  151.3220  139.1630 O   0  0  0  0  0  0  0  0  0  0  0  0
  141.7740  153.7120  136.6990 N   0  0  0  0  0  0  0  0  0  0  0  0
  142.0930  152.9990  135.4930 C   0  0  0  0  0  0  0  0  0  0  0  0
  143.0290  153.3930  134.7490 O   0  0  0  0  0  0  0  0  0  0  0  0
  141.3540  151.8830  135.1230 O   0  0  0  0  0  0  0  0  0  0  0  0
  141.6540  155.0520  136.8270 C   0  0  0  0  0  0  0  0  0  0  0  0
  141.7810  156.0340  135.8370 C   0  0  0  0  0  0  0  0  0  0  0  0
  139.6206  155.3933  134.0375 H   0  0  0  0  0  0  0  0  0  0  0  0
  138.6161  155.9837  132.6703 H   0  0  0  0  0  0  0  0  0  0  0  0
  140.3896  156.2686  132.6703 H   0  0  0  0  0  0  0  0  0  0  0  0
  142.3789  161.1794  132.4814 H   0  0  0  0  0  0  0  0  0  0  0  0
  144.0159  160.8589  134.3262 H   0  0  0  0  0  0  0  0  0  0  0  0
  143.6351  159.1063  136.0443 H   0  0  0  0  0  0  0  0  0  0  0  0
  141.2764  158.7757  137.8578 H   0  0  0  0  0  0  0  0  0  0  0  0
  141.0993  156.9671  139.5999 H   0  0  0  0  0  0  0  0  0  0  0  0
  141.2463  154.1331  139.9577 H   0  0  0  0  0  0  0  0  0  0  0  0
  140.2490  151.0310  136.7860 H   0  0  0  0  0  0  0  0  0  0  0  0
  141.9987  155.7602  134.7941 H   0  0  0  0  0  0  0  0  0  0  0  0
  1  2  1  0
  2  3  2  0
  2  4  2  0
  2  5  1  0
  5  6  2  0
  6  7  1  0
  6  8  1  0
  8  9  2  0
  9 10  1  0
 10 11  2  0
 11 12  1  0
 12 13  2  0
 13 14  1  0
 14 15  2  0
 15 16  1  0
 16 17  2  0
 17 18  1  0
 18 19  1  0
 18 20  2  0
 17 21  1  0
 21 22  1  0
 22 23  2  0
 22 24  1  0
 21 25  1  0
 25 26  2  0
 11  5  1  0
 26 12  1  0
 25 15  1  0
  1 27  1  0
  1 28  1  0
  1 29  1  0
  8 30  1  0
  9 31  1  0
 10 32  1  0
 13 33  1  0
 14 34  1  0
 16 35  1  0
 19 36  1  0
 26 37  1  0
M  CHG  2  19  -1  24  -1
M  END
>  <UniqueID>  (17) 
17

>  <SMILES>  (17) 
CS(=O)(=O)c1c(Cl)cccc1-c1ccc2cc(C([NH-])=O)n(C(=O)[O-])c2c1

>  <Energy>  (17) 
88.41206180275533

>  <Genealogy>  (17) 
CS(=O)(=O)c1c(Cl)cccc1-c1ccc2cc(C([NH-])=O)n(C(=O)[O-])c2c1 (protonated)
CS(=O)(=O)c1c(Cl)cccc1-c1ccc2cc(C([NH-])=O)n(C(=O)[O-])c2c1 (3D coordinates assigned)
CS(=O)(=O)c1c(Cl)cccc1-c1ccc2cc(C([NH-])=O)n(C(=O)[O-])c2c1 (optimized conformer: 88.41206180275533 kcal/mol)

>  <smiles>  (17) 
CS(=O)(=O)c1c(Cl)cccc1-c1ccc2cc(C(N)=O)n(C(=O)O)c2c1

>  <score_type>  (17) 
oracle

>  <origin>  (17) 
adg

>  <m_score__min__energy>  (17) 
-7.7000000000000002

>  <m_primary>  (17) 
energy

$$$$
17:0
     RDKit          3D

 29 31  0  0  0  0  0  0  0  0999 V2000
  146.2920  155.6420  132.4150 N   0  0  0  0  0  0  0  0  0  0  0  0
  146.1500  156.4820  133.5590 C   0  0  0  0  0  0  0  0  0  0  0  0
  146.1820  155.9720  134.7100 O   0  0  0  0  0  0  0  0  0  0  0  0
  145.9850  157.9020  133.3990 N   0  0  0  0  0  0  0  0  0  0  0  0
  146.9440  158.8170  133.0830 C   0  0  0  0  0  0  0  0  0  0  0  0
  148.3270  158.5140  132.6640 C   0  0  0  0  0  0  0  0  0  0  0  0
  148.6220  157.3680  131.8630 N   0  0  0  0  0  0  0  0  0  0  0  0
  149.2550  159.3090  132.9690 O   0  0  0  0  0  0  0  0  0  0  0  0
  146.4330  160.1090  133.1500 C   0  0  0  0  0  0  0  0  0  0  0  0
  145.1120  159.9590  133.5060 C   0  0  0  0  0  0  0  0  0  0  0  0
  144.1320  160.9210  133.7270 C   0  0  0  0  0  0  0  0  0  0  0  0
  142.8560  160.4830  134.1220 C   0  0  0  0  0  0  0  0  0  0  0  0
  142.5870  159.1020  134.2970 C   0  0  0  0  0  0  0  0  0  0  0  0
  141.2480  158.6480  134.7240 C   0  0  0  0  0  0  0  0  0  0  0  0
  140.8230  158.6630  136.0060 N   0  0  0  0  0  0  0  0  0  0  0  0
  139.5720  158.1730  135.9270 C   0  0  0  0  0  0  0  0  0  0  0  0
  139.2830  157.8800  134.6140 C   0  0  0  0  0  0  0  0  0  0  0  0
  140.3360  158.1840  133.8980 O   0  0  0  0  0  0  0  0  0  0  0  0
  143.6100  158.1550  134.0640 C   0  0  0  0  0  0  0  0  0  0  0  0
  144.8660  158.6170  133.6510 C   0  0  0  0  0  0  0  0  0  0  0  0
  146.2480  156.0380  131.4500 H   0  0  0  0  0  0  0  0  0  0  0  0
  149.6110  157.1490  131.6070 H   0  0  0  0  0  0  0  0  0  0  0  0
  147.8590  156.7820  131.4570 H   0  0  0  0  0  0  0  0  0  0  0  0
  146.9701  161.0498  132.9592 H   0  0  0  0  0  0  0  0  0  0  0  0
  144.3488  161.9915  133.5967 H   0  0  0  0  0  0  0  0  0  0  0  0
  142.0579  161.2194  134.2971 H   0  0  0  0  0  0  0  0  0  0  0  0
  138.8889  158.0295  136.7772 H   0  0  0  0  0  0  0  0  0  0  0  0
  138.3376  157.4651  134.2344 H   0  0  0  0  0  0  0  0  0  0  0  0
  143.4240  157.0799  134.2038 H   0  0  0  0  0  0  0  0  0  0  0  0
  1  2  1  0
  2  3  2  0
  2  4  1  0
  4  5  1  0
  5  6  1  0
  6  7  1  0
  6  8  2  0
  5  9  2  0
  9 10  1  0
 10 11  2  0
 11 12  1  0
 12 13  2  0
 13 14  1  0
 14 15  2  0
 15 16  1  0
 16 17  2  0
 17 18  1  0
 13 19  1  0
 19 20  2  0
 20  4  1  0
 20 10  1  0
 18 14  1  0
  1 21  1  0
  7 22  1  0
  7 23  1  0
  9 24  1  0
 11 25  1  0
 12 26  1  0
 16 27  1  0
 17 28  1  0
 19 29  1  0
M  CHG  1   1  -1
M  END
>  <UniqueID>  (18) 
18

>  <SMILES>  (18) 
[NH-]C(=O)n1c(C(N)=O)cc2ccc(-c3ncco3)cc21

>  <Energy>  (18) 
100.69276091460837

>  <Genealogy>  (18) 
[NH-]C(=O)n1c(C(N)=O)cc2ccc(-c3ncco3)cc21 (protonated)
[NH-]C(=O)n1c(C(N)=O)cc2ccc(-c3ncco3)cc21 (3D coordinates assigned)
[NH-]C(=O)n1c(C(N)=O)cc2ccc(-c3ncco3)cc21 (optimized conformer: 100.69276091460837 kcal/mol)

>  <smiles>  (18) 
NC(=O)c1cc2ccc(-c3ncco3)cc2n1C(N)=O

>  <score_type>  (18) 
oracle

>  <origin>  (18) 
adg

>  <m_score__min__energy>  (18) 
-6.5800000000000001

>  <m_primary>  (18) 
energy

$$$$
18:0
     RDKit          3D

 46 49  0  0  0  0  0  0  0  0999 V2000
  139.7630  151.7460  132.6060 N   0  0  0  0  0  0  0  0  0  0  0  0
  140.9780  151.4180  133.2820 C   0  0  0  0  0  0  0  0  0  0  0  0
  141.0730  150.3120  133.8790 O   0  0  0  0  0  0  0  0  0  0  0  0
  142.1440  152.3220  133.2430 C   0  0  0  0  0  0  0  0  0  0  0  0
  143.4570  151.8760  133.1170 C   0  0  0  0  0  0  0  0  0  0  0  0
  144.2250  153.0160  133.0670 C   0  0  0  0  0  0  0  0  0  0  0  0
  145.6040  153.1610  132.9680 C   0  0  0  0  0  0  0  0  0  0  0  0
  146.1350  154.4610  132.9860 C   0  0  0  0  0  0  0  0  0  0  0  0
  145.2850  155.5920  133.1140 C   0  0  0  0  0  0  0  0  0  0  0  0
  145.8570  156.9620  133.1510 C   0  0  0  0  0  0  0  0  0  0  0  0
  147.2400  157.1640  132.9820 C   0  0  0  0  0  0  0  0  0  0  0  0
  147.7760  158.4540  133.0190 C   0  0  0  0  0  0  0  0  0  0  0  0
  146.9420  159.5560  133.2250 C   0  0  0  0  0  0  0  0  0  0  0  0
  147.4800  160.8370  133.2620 O   0  0  0  0  0  0  0  0  0  0  0  0
  145.5670  159.3680  133.3950 C   0  0  0  0  0  0  0  0  0  0  0  0
  144.7520  160.4340  133.5920 F   0  0  0  0  0  0  0  0  0  0  0  0
  145.0260  158.0780  133.3580 C   0  0  0  0  0  0  0  0  0  0  0  0
  143.8860  155.4000  133.2140 C   0  0  0  0  0  0  0  0  0  0  0  0
  143.3840  154.0940  133.1690 C   0  0  0  0  0  0  0  0  0  0  0  0
  142.1000  153.6830  133.2800 N   0  0  0  0  0  0  0  0  0  0  0  0
  140.9520  154.5110  133.5270 C   0  0  0  0  0  0  0  0  0  0  0  0
  140.0240  154.5730  132.6760 O   0  0  0  0  0  0  0  0  0  0  0  0
  140.8730  155.2480  134.7150 O   0  0  0  0  0  0  0  0  0  0  0  0
  141.2630  156.6160  134.8140 C   0  0  0  0  0  0  0  0  0  0  0  0
  140.5130  157.4460  133.8070 C   0  0  0  0  0  0  0  0  0  0  0  0
  141.2030  158.2390  132.8750 C   0  0  0  0  0  0  0  0  0  0  0  0
  140.4950  159.0280  131.9630 C   0  0  0  0  0  0  0  0  0  0  0  0
  139.0980  159.0350  131.9760 C   0  0  0  0  0  0  0  0  0  0  0  0
  138.4050  158.2510  132.9050 C   0  0  0  0  0  0  0  0  0  0  0  0
  139.1090  157.4620  133.8190 C   0  0  0  0  0  0  0  0  0  0  0  0
  138.9350  151.1140  132.6820 H   0  0  0  0  0  0  0  0  0  0  0  0
  139.7060  152.5670  131.9660 H   0  0  0  0  0  0  0  0  0  0  0  0
  143.8058  150.8339  133.0679 H   0  0  0  0  0  0  0  0  0  0  0  0
  146.2603  152.2828  132.8782 H   0  0  0  0  0  0  0  0  0  0  0  0
  147.2221  154.6052  132.8999 H   0  0  0  0  0  0  0  0  0  0  0  0
  147.9027  156.3011  132.8198 H   0  0  0  0  0  0  0  0  0  0  0  0
  148.8578  158.6023  132.8855 H   0  0  0  0  0  0  0  0  0  0  0  0
  143.9435  157.9356  133.4917 H   0  0  0  0  0  0  0  0  0  0  0  0
  143.2077  156.2589  133.3247 H   0  0  0  0  0  0  0  0  0  0  0  0
  141.0405  156.9846  135.8262 H   0  0  0  0  0  0  0  0  0  0  0  0
  142.3414  156.6966  134.6128 H   0  0  0  0  0  0  0  0  0  0  0  0
  142.3029  158.2393  132.8626 H   0  0  0  0  0  0  0  0  0  0  0  0
  141.0397  159.6450  131.2332 H   0  0  0  0  0  0  0  0  0  0  0  0
  138.5436  159.6560  131.2569 H   0  0  0  0  0  0  0  0  0  0  0  0
  137.3051  158.2556  132.9160 H   0  0  0  0  0  0  0  0  0  0  0  0
  138.5607  156.8508  134.5510 H   0  0  0  0  0  0  0  0  0  0  0  0
  1  2  1  0
  2  3  2  0
  2  4  1  0
  4  5  2  0
  5  6  1  0
  6  7  2  0
  7  8  1  0
  8  9  2  0
  9 10  1  0
 10 11  2  0
 11 12  1  0
 12 13  2  0
 13 14  1  0
 13 15  1  0
 15 16  1  0
 15 17  2  0
  9 18  1  0
 18 19  2  0
 19 20  1  0
 20 21  1  0
 21 22  2  0
 21 23  1  0
 23 24  1  0
 24 25  1  0
 25 26  2  0
 26 27  1  0
 27 28  2  0
 28 29  1  0
 29 30  2  0
 20  4  1  0
 30 25  1  0
 19  6  1  0
 17 10  1  0
  1 31  1  0
  1 32  1  0
  5 33  1  0
  7 34  1  0
  8 35  1  0
 11 36  1  0
 12 37  1  0
 17 38  1  0
 18 39  1  0
 24 40  1  0
 24 41  1  0
 26 42  1  0
 27 43  1  0
 28 44  1  0
 29 45  1  0
 30 46  1  0
M  CHG  1  14  -1
M  END
>  <UniqueID>  (19) 
19

>  <SMILES>  (19) 
NC(=O)c1cc2ccc(-c3ccc([O-])c(F)c3)cc2n1C(=O)OCc1ccccc1

>  <Energy>  (19) 
93.6021943503132

>  <Genealogy>  (19) 
NC(=O)c1cc2ccc(-c3ccc([O-])c(F)c3)cc2n1C(=O)OCc1ccccc1 (protonated)
NC(=O)c1cc2ccc(-c3ccc([O-])c(F)c3)cc2n1C(=O)OCc1ccccc1 (3D coordinates assigned)
NC(=O)c1cc2ccc(-c3ccc([O-])c(F)c3)cc2n1C(=O)OCc1ccccc1 (optimized conformer: 93.6021943503132 kcal/mol)

>  <smiles>  (19) 
NC(=O)c1cc2ccc(-c3ccc(O)c(F)c3)cc2n1C(=O)OCc1ccccc1

>  <score_type>  (19) 
oracle

>  <origin>  (19) 
adg

>  <m_score__min__energy>  (19) 
-9.0800000000000001

>  <m_primary>  (19) 
energy

$$$$
19:0
     RDKit          3D

 61 64  0  0  0  0  0  0  0  0999 V2000
  145.2430  152.3070  132.3500 C   0  0  0  0  0  0  0  0  0  0  0  0
  143.8340  152.5120  132.8120 C   0  0  0  0  0  0  0  0  0  0  0  0
  142.9590  151.4690  132.8520 N   0  0  0  0  0  0  0  0  0  0  0  0
  141.7310  151.8540  133.2580 C   0  0  0  0  0  0  0  0  0  0  0  0
  140.6330  150.9440  133.3750 N   0  0  0  0  0  0  0  0  0  0  0  0
  140.8390  149.5030  133.5320 C   0  0  0  0  0  0  0  0  0  0  0  0
  141.4360  148.8760  132.2650 C   0  0  0  0  0  0  0  0  0  0  0  0
  140.3870  148.6630  131.2040 C   0  0  0  0  0  0  0  0  0  0  0  0
  140.0620  147.3610  130.7830 C   0  0  0  0  0  0  0  0  0  0  0  0
  139.1040  147.1600  129.7850 C   0  0  0  0  0  0  0  0  0  0  0  0
  138.4660  148.2560  129.1970 C   0  0  0  0  0  0  0  0  0  0  0  0
  138.7840  149.5530  129.6060 C   0  0  0  0  0  0  0  0  0  0  0  0
  139.7420  149.7580  130.6040 C   0  0  0  0  0  0  0  0  0  0  0  0
  141.6690  153.5020  133.5880 S   0  0  0  0  0  0  0  0  0  0  0  0
  143.2950  153.7450  133.2130 C   0  0  0  0  0  0  0  0  0  0  0  0
  143.9770  155.0550  133.2870 C   0  0  0  0  0  0  0  0  0  0  0  0
  145.3920  155.1410  133.2530 C   0  0  0  0  0  0  0  0  0  0  0  0
  146.0380  156.3840  133.3500 C   0  0  0  0  0  0  0  0  0  0  0  0
  145.2490  157.5220  133.4860 C   0  0  0  0  0  0  0  0  0  0  0  0
  145.6140  158.8390  133.6360 C   0  0  0  0  0  0  0  0  0  0  0  0
  144.4170  159.5430  133.7540 C   0  0  0  0  0  0  0  0  0  0  0  0
  144.3440  161.0160  133.8580 C   0  0  0  0  0  0  0  0  0  0  0  0
  143.0880  161.6750  133.7250 N   0  0  0  0  0  0  0  0  0  0  0  0
  145.3760  161.6960  134.1020 O   0  0  0  0  0  0  0  0  0  0  0  0
  143.3540  158.6930  133.6850 N   0  0  0  0  0  0  0  0  0  0  0  0
  141.9640  159.0120  133.8490 C   0  0  0  0  0  0  0  0  0  0  0  0
  141.1730  158.8780  132.8770 O   0  0  0  0  0  0  0  0  0  0  0  0
  141.5010  159.4450  135.1010 O   0  0  0  0  0  0  0  0  0  0  0  0
  140.9110  158.6260  136.1210 C   0  0  0  0  0  0  0  0  0  0  0  0
  140.9370  159.3510  137.4810 C   0  0  0  0  0  0  0  0  0  0  0  0
  139.4690  158.2390  135.7400 C   0  0  0  0  0  0  0  0  0  0  0  0
  141.7590  157.3500  136.2240 C   0  0  0  0  0  0  0  0  0  0  0  0
  143.8800  157.4590  133.5190 C   0  0  0  0  0  0  0  0  0  0  0  0
  143.2110  156.2320  133.4420 C   0  0  0  0  0  0  0  0  0  0  0  0
  145.9049  152.2107  133.2233 H   0  0  0  0  0  0  0  0  0  0  0  0
  145.3005  151.3910  131.7436 H   0  0  0  0  0  0  0  0  0  0  0  0
  145.5591  153.1686  131.7436 H   0  0  0  0  0  0  0  0  0  0  0  0
  139.6650  151.3400  133.3600 H   0  0  0  0  0  0  0  0  0  0  0  0
  141.5261  149.3303  134.3735 H   0  0  0  0  0  0  0  0  0  0  0  0
  139.8617  149.0344  133.7200 H   0  0  0  0  0  0  0  0  0  0  0  0
  142.2142  149.5447  131.8684 H   0  0  0  0  0  0  0  0  0  0  0  0
  141.8587  147.8963  132.5324 H   0  0  0  0  0  0  0  0  0  0  0  0
  140.5642  146.4964  131.2414 H   0  0  0  0  0  0  0  0  0  0  0  0
  138.8521  146.1390  129.4623 H   0  0  0  0  0  0  0  0  0  0  0  0
  137.7127  148.0968  128.4114 H   0  0  0  0  0  0  0  0  0  0  0  0
  138.2804  150.4142  129.1426 H   0  0  0  0  0  0  0  0  0  0  0  0
  139.9919  150.7813  130.9209 H   0  0  0  0  0  0  0  0  0  0  0  0
  145.9903  154.2238  133.1495 H   0  0  0  0  0  0  0  0  0  0  0  0
  147.1352  156.4559  133.3194 H   0  0  0  0  0  0  0  0  0  0  0  0
  146.6342  159.2498  133.6582 H   0  0  0  0  0  0  0  0  0  0  0  0
  142.1960  161.1820  133.9570 H   0  0  0  0  0  0  0  0  0  0  0  0
  140.9104  158.6090  138.2926 H   0  0  0  0  0  0  0  0  0  0  0  0
  141.8571  159.9485  137.5605 H   0  0  0  0  0  0  0  0  0  0  0  0
  140.0620  160.0129  137.5605 H   0  0  0  0  0  0  0  0  0  0  0  0
  138.8782  158.0804  136.6542 H   0  0  0  0  0  0  0  0  0  0  0  0
  139.0169  159.0476  135.1469 H   0  0  0  0  0  0  0  0  0  0  0  0
  139.4825  157.3127  135.1469 H   0  0  0  0  0  0  0  0  0  0  0  0
  141.9230  157.1033  137.2833 H   0  0  0  0  0  0  0  0  0  0  0  0
  141.2327  156.5192  135.7312 H   0  0  0  0  0  0  0  0  0  0  0  0
  142.7288  157.5135  135.7312 H   0  0  0  0  0  0  0  0  0  0  0  0
  142.1136  156.1851  133.5008 H   0  0  0  0  0  0  0  0  0  0  0  0
  1  2  1  0
  2  3  1  0
  3  4  2  0
  4  5  1  0
  5  6  1  0
  6  7  1  0
  7  8  1  0
  8  9  2  0
  9 10  1  0
 10 11  2  0
 11 12  1  0
 12 13  2  0
  4 14  1  0
 14 15  1  0
 15 16  1  0
 16 17  2  0
 17 18  1  0
 18 19  2  0
 19 20  1  0
 20 21  2  0
 21 22  1  0
 22 23  1  0
 22 24  2  0
 21 25  1  0
 25 26  1  0
 26 27  2  0
 26 28  1  0
 28 29  1  0
 29 30  1  0
 29 31  1  0
 29 32  1  0
 25 33  1  0
 33 34  2  0
 15  2  2  0
 34 16  1  0
 13  8  1  0
 33 19  1  0
  1 35  1  0
  1 36  1  0
  1 37  1  0
  5 38  1  0
  6 39  1  0
  6 40  1  0
  7 41  1  0
  7 42  1  0
  9 43  1  0
 10 44  1  0
 11 45  1  0
 12 46  1  0
 13 47  1  0
 17 48  1  0
 18 49  1  0
 20 50  1  0
 23 51  1  0
 30 52  1  0
 30 53  1  0
 30 54  1  0
 31 55  1  0
 31 56  1  0
 31 57  1  0
 32 58  1  0
 32 59  1  0
 32 60  1  0
 34 61  1  0
M  CHG  1  23  -1
M  END
>  <UniqueID>  (20) 
20

>  <SMILES>  (20) 
Cc1nc(NCCc2ccccc2)sc1-c1ccc2cc(C([NH-])=O)n(C(=O)OC(C)(C)C)c2c1

>  <Energy>  (20) 
127.94999987408755

>  <Genealogy>  (20) 
Cc1nc(NCCc2ccccc2)sc1-c1ccc2cc(C([NH-])=O)n(C(=O)OC(C)(C)C)c2c1 (protonated)
Cc1nc(NCCc2ccccc2)sc1-c1ccc2cc(C([NH-])=O)n(C(=O)OC(C)(C)C)c2c1 (3D coordinates assigned)
Cc1nc(NCCc2ccccc2)sc1-c1ccc2cc(C([NH-])=O)n(C(=O)OC(C)(C)C)c2c1 (optimized conformer: 127.94999987408755 kcal/mol)

>  <smiles>  (20) 
Cc1nc(NCCc2ccccc2)sc1-c1ccc2cc(C(N)=O)n(C(=O)OC(C)(C)C)c2c1

>  <score_type>  (20) 
oracle

>  <origin>  (20) 
adg

>  <m_score__min__energy>  (20) 
-11.32

>  <m_primary>  (20) 
energy

$$$$
20:0
     RDKit          3D

 54 56  0  0  0  0  0  0  0  0999 V2000
  141.0890  152.4790  132.9760 C   0  0  0  0  0  0  0  0  0  0  0  0
  142.0930  152.8150  133.9920 N   0  0  0  0  0  0  0  0  0  0  0  0
  141.7880  152.6090  135.4150 C   0  0  0  0  0  0  0  0  0  0  0  0
  143.3720  153.3470  133.5690 C   0  0  0  0  0  0  0  0  0  0  0  0
  143.5940  153.7850  132.2470 C   0  0  0  0  0  0  0  0  0  0  0  0
  144.8370  154.3150  131.8930 C   0  0  0  0  0  0  0  0  0  0  0  0
  145.8630  154.4090  132.8470 C   0  0  0  0  0  0  0  0  0  0  0  0
  147.1550  154.9480  132.4920 N   0  0  0  0  0  0  0  0  0  0  0  0
  147.1770  156.3710  132.7250 C   0  0  0  0  0  0  0  0  0  0  0  0
  148.3900  157.0950  132.5970 C   0  0  0  0  0  0  0  0  0  0  0  0
  148.4240  158.4840  132.8050 C   0  0  0  0  0  0  0  0  0  0  0  0
  147.2350  159.1190  133.1520 C   0  0  0  0  0  0  0  0  0  0  0  0
  146.9800  160.4500  133.3950 C   0  0  0  0  0  0  0  0  0  0  0  0
  145.6210  160.5150  133.6990 C   0  0  0  0  0  0  0  0  0  0  0  0
  144.9380  161.7580  134.1120 C   0  0  0  0  0  0  0  0  0  0  0  0
  143.5990  162.0280  133.7030 N   0  0  0  0  0  0  0  0  0  0  0  0
  145.5290  162.5690  134.8780 O   0  0  0  0  0  0  0  0  0  0  0  0
  145.0570  159.2760  133.6390 N   0  0  0  0  0  0  0  0  0  0  0  0
  143.6720  158.9320  133.8070 C   0  0  0  0  0  0  0  0  0  0  0  0
  142.8020  159.4810  133.0780 O   0  0  0  0  0  0  0  0  0  0  0  0
  143.3080  158.0080  134.7970 O   0  0  0  0  0  0  0  0  0  0  0  0
  142.0950  157.2380  134.8410 C   0  0  0  0  0  0  0  0  0  0  0  0
  142.3220  156.0860  135.8310 C   0  0  0  0  0  0  0  0  0  0  0  0
  140.9190  158.0990  135.3430 C   0  0  0  0  0  0  0  0  0  0  0  0
  141.7770  156.6440  133.4510 C   0  0  0  0  0  0  0  0  0  0  0  0
  146.0570  158.4330  133.3020 C   0  0  0  0  0  0  0  0  0  0  0  0
  145.9890  157.0550  133.0750 C   0  0  0  0  0  0  0  0  0  0  0  0
  145.6120  153.9470  134.1480 C   0  0  0  0  0  0  0  0  0  0  0  0
  144.3920  153.4410  134.4720 N   0  0  0  0  0  0  0  0  0  0  0  0
  140.1572  152.1672  133.4704 H   0  0  0  0  0  0  0  0  0  0  0  0
  140.8936  153.3607  132.3480 H   0  0  0  0  0  0  0  0  0  0  0  0
  141.4636  151.6573  132.3480 H   0  0  0  0  0  0  0  0  0  0  0  0
  142.5439  153.1196  136.0297 H   0  0  0  0  0  0  0  0  0  0  0  0
  140.7932  153.0209  135.6401 H   0  0  0  0  0  0  0  0  0  0  0  0
  141.7986  151.5323  135.6401 H   0  0  0  0  0  0  0  0  0  0  0  0
  142.7919  153.7096  131.4980 H   0  0  0  0  0  0  0  0  0  0  0  0
  145.0127  154.6599  130.8634 H   0  0  0  0  0  0  0  0  0  0  0  0
  147.8950  154.4650  133.0540 H   0  0  0  0  0  0  0  0  0  0  0  0
  147.3690  154.7660  131.4830 H   0  0  0  0  0  0  0  0  0  0  0  0
  149.3152  156.5625  132.3317 H   0  0  0  0  0  0  0  0  0  0  0  0
  149.3601  159.0514  132.6971 H   0  0  0  0  0  0  0  0  0  0  0  0
  147.6959  161.2843  133.3573 H   0  0  0  0  0  0  0  0  0  0  0  0
  142.8380  161.3310  133.8580 H   0  0  0  0  0  0  0  0  0  0  0  0
  142.2470  156.4669  136.8602 H   0  0  0  0  0  0  0  0  0  0  0  0
  141.5596  155.3094  135.6709 H   0  0  0  0  0  0  0  0  0  0  0  0
  143.3220  155.6567  135.6709 H   0  0  0  0  0  0  0  0  0  0  0  0
  140.9118  158.1043  136.4430 H   0  0  0  0  0  0  0  0  0  0  0  0
  141.0336  159.1282  134.9721 H   0  0  0  0  0  0  0  0  0  0  0  0
  139.9725  157.6789  134.9721 H   0  0  0  0  0  0  0  0  0  0  0  0
  141.2610  155.6803  133.5734 H   0  0  0  0  0  0  0  0  0  0  0  0
  141.1299  157.3383  132.8949 H   0  0  0  0  0  0  0  0  0  0  0  0
  142.7136  156.4905  132.8949 H   0  0  0  0  0  0  0  0  0  0  0  0
  145.0347  156.5156  133.1663 H   0  0  0  0  0  0  0  0  0  0  0  0
  146.4051  153.9943  134.9087 H   0  0  0  0  0  0  0  0  0  0  0  0
  1  2  1  0
  2  3  1  0
  2  4  1  0
  4  5  2  0
  5  6  1  0
  6  7  2  0
  7  8  1  0
  8  9  1  0
  9 10  2  0
 10 11  1  0
 11 12  2  0
 12 13  1  0
 13 14  2  0
 14 15  1  0
 15 16  1  0
 15 17  2  0
 14 18  1  0
 18 19  1  0
 19 20  2  0
 19 21  1  0
 21 22  1  0
 22 23  1  0
 22 24  1  0
 22 25  1  0
 18 26  1  0
 26 27  2  0
  7 28  1  0
 28 29  2  0
 29  4  1  0
 27  9  1  0
 26 12  1  0
  1 30  1  0
  1 31  1  0
  1 32  1  0
  3 33  1  0
  3 34  1  0
  3 35  1  0
  5 36  1  0
  6 37  1  0
  8 38  1  0
  8 39  1  0
 10 40  1  0
 11 41  1  0
 13 42  1  0
 16 43  1  0
 23 44  1  0
 23 45  1  0
 23 46  1  0
 24 47  1  0
 24 48  1  0
 24 49  1  0
 25 50  1  0
 25 51  1  0
 25 52  1  0
 27 53  1  0
 28 54  1  0
M  CHG  2   8   1  16  -1
M  END
>  <UniqueID>  (21) 
21

>  <SMILES>  (21) 
CN(C)c1ccc([NH2+]c2ccc3cc(C([NH-])=O)n(C(=O)OC(C)(C)C)c3c2)cn1

>  <Energy>  (21) 
92.08518024294679

>  <Genealogy>  (21) 
CN(C)c1ccc([NH2+]c2ccc3cc(C([NH-])=O)n(C(=O)OC(C)(C)C)c3c2)cn1 (protonated)
CN(C)c1ccc([NH2+]c2ccc3cc(C([NH-])=O)n(C(=O)OC(C)(C)C)c3c2)cn1 (3D coordinates assigned)
CN(C)c1ccc([NH2+]c2ccc3cc(C([NH-])=O)n(C(=O)OC(C)(C)C)c3c2)cn1 (optimized conformer: 92.08518024294679 kcal/mol)

>  <smiles>  (21) 
CN(C)c1ccc(Nc2ccc3cc(C(N)=O)n(C(=O)OC(C)(C)C)c3c2)cn1

>  <score_type>  (21) 
oracle

>  <origin>  (21) 
adg

>  <m_score__min__energy>  (21) 
-7.7300000000000004

>  <m_primary>  (21) 
energy

$$$$
21:0
     RDKit          3D

 65 67  0  0  0  0  0  0  0  0999 V2000
  138.5920  158.2390  133.0210 C   0  0  0  0  0  0  0  0  0  0  0  0
  139.5200  159.3920  132.5850 C   0  0  0  0  0  0  0  0  0  0  0  0
  140.5880  158.8320  131.6340 C   0  0  0  0  0  0  0  0  0  0  0  0
  138.7170  160.4810  131.8470 C   0  0  0  0  0  0  0  0  0  0  0  0
  140.2080  159.9530  133.7130 O   0  0  0  0  0  0  0  0  0  0  0  0
  141.5140  160.4720  133.7170 C   0  0  0  0  0  0  0  0  0  0  0  0
  141.7250  161.6820  133.4290 O   0  0  0  0  0  0  0  0  0  0  0  0
  142.6150  159.6050  134.0460 N   0  0  0  0  0  0  0  0  0  0  0  0
  143.9760  160.1350  134.2340 C   0  0  0  0  0  0  0  0  0  0  0  0
  144.9990  159.3460  133.3970 C   0  0  0  0  0  0  0  0  0  0  0  0
  144.6290  157.8500  133.2250 C   0  0  0  0  0  0  0  0  0  0  0  0
  145.8730  156.9870  133.1350 C   0  0  0  0  0  0  0  0  0  0  0  0
  147.1680  157.5720  133.1350 C   0  0  0  0  0  0  0  0  0  0  0  0
  148.3170  156.7720  133.0260 C   0  0  0  0  0  0  0  0  0  0  0  0
  148.1460  155.3970  132.8950 C   0  0  0  0  0  0  0  0  0  0  0  0
  149.0830  154.3960  132.7820 C   0  0  0  0  0  0  0  0  0  0  0  0
  148.3500  153.2180  132.6630 C   0  0  0  0  0  0  0  0  0  0  0  0
  148.9700  151.8980  132.4310 C   0  0  0  0  0  0  0  0  0  0  0  0
  148.3330  150.6940  132.8660 N   0  0  0  0  0  0  0  0  0  0  0  0
  150.0530  151.8270  131.7910 O   0  0  0  0  0  0  0  0  0  0  0  0
  147.0140  153.4750  132.7190 N   0  0  0  0  0  0  0  0  0  0  0  0
  145.9430  152.5170  132.7370 C   0  0  0  0  0  0  0  0  0  0  0  0
  145.9330  151.5730  131.9020 O   0  0  0  0  0  0  0  0  0  0  0  0
  144.9160  152.6510  133.6850 O   0  0  0  0  0  0  0  0  0  0  0  0
  143.5110  152.7510  133.4090 C   0  0  0  0  0  0  0  0  0  0  0  0
  142.9370  151.3760  133.0150 C   0  0  0  0  0  0  0  0  0  0  0  0
  143.3500  153.7130  132.2220 C   0  0  0  0  0  0  0  0  0  0  0  0
  142.7550  153.3270  134.6220 C   0  0  0  0  0  0  0  0  0  0  0  0
  146.9040  154.8170  132.8590 C   0  0  0  0  0  0  0  0  0  0  0  0
  145.7440  155.5860  132.9940 C   0  0  0  0  0  0  0  0  0  0  0  0
  143.6630  157.3650  134.3230 C   0  0  0  0  0  0  0  0  0  0  0  0
  142.3580  158.1720  134.2590 C   0  0  0  0  0  0  0  0  0  0  0  0
  138.5552  158.1933  134.1194 H   0  0  0  0  0  0  0  0  0  0  0  0
  137.5799  158.4140  132.6272 H   0  0  0  0  0  0  0  0  0  0  0  0
  138.9793  157.2877  132.6272 H   0  0  0  0  0  0  0  0  0  0  0  0
  141.4117  158.4001  132.2213 H   0  0  0  0  0  0  0  0  0  0  0  0
  140.1415  158.0520  130.9998 H   0  0  0  0  0  0  0  0  0  0  0  0
  140.9757  159.6428  130.9998 H   0  0  0  0  0  0  0  0  0  0  0  0
  138.2312  161.1398  132.5819 H   0  0  0  0  0  0  0  0  0  0  0  0
  139.3962  161.0733  131.2162 H   0  0  0  0  0  0  0  0  0  0  0  0
  137.9504  160.0072  131.2162 H   0  0  0  0  0  0  0  0  0  0  0  0
  143.9964  161.1904  133.9246 H   0  0  0  0  0  0  0  0  0  0  0  0
  144.2449  160.0380  135.2962 H   0  0  0  0  0  0  0  0  0  0  0  0
  145.0634  159.8064  132.4001 H   0  0  0  0  0  0  0  0  0  0  0  0
  145.9579  159.3842  133.9346 H   0  0  0  0  0  0  0  0  0  0  0  0
  144.0901  157.7489  132.2714 H   0  0  0  0  0  0  0  0  0  0  0  0
  147.2716  158.6637  133.2213 H   0  0  0  0  0  0  0  0  0  0  0  0
  149.3221  157.2187  133.0436 H   0  0  0  0  0  0  0  0  0  0  0  0
  150.1777  154.5033  132.7850 H   0  0  0  0  0  0  0  0  0  0  0  0
  148.7920  149.7700  132.7040 H   0  0  0  0  0  0  0  0  0  0  0  0
  147.3730  150.7130  133.2680 H   0  0  0  0  0  0  0  0  0  0  0  0
  142.6983  150.8042  133.9239 H   0  0  0  0  0  0  0  0  0  0  0  0
  142.0227  151.5172  132.4199 H   0  0  0  0  0  0  0  0  0  0  0  0
  143.6803  150.8252  132.4199 H   0  0  0  0  0  0  0  0  0  0  0  0
  143.1793  154.7329  132.5971 H   0  0  0  0  0  0  0  0  0  0  0  0
  144.2635  153.6957  131.6095 H   0  0  0  0  0  0  0  0  0  0  0  0
  142.4919  153.3992  131.6095 H   0  0  0  0  0  0  0  0  0  0  0  0
  143.2245  152.9693  135.5502 H   0  0  0  0  0  0  0  0  0  0  0  0
  142.7948  154.4258  134.5908 H   0  0  0  0  0  0  0  0  0  0  0  0
  141.7061  152.9970  134.5908 H   0  0  0  0  0  0  0  0  0  0  0  0
  144.7519  155.1110  132.9906 H   0  0  0  0  0  0  0  0  0  0  0  0
  143.4411  156.2986  134.1696 H   0  0  0  0  0  0  0  0  0  0  0  0
  144.1310  157.5074  135.3082 H   0  0  0  0  0  0  0  0  0  0  0  0
  141.7444  157.7925  133.4287 H   0  0  0  0  0  0  0  0  0  0  0  0
  141.8354  158.0562  135.2200 H   0  0  0  0  0  0  0  0  0  0  0  0
  1  2  1  0
  2  3  1  0
  2  4  1  0
  2  5  1  0
  5  6  1  0
  6  7  2  0
  6  8  1  0
  8  9  1  0
  9 10  1  0
 10 11  1  0
 11 12  1  0
 12 13  2  0
 13 14  1  0
 14 15  2  0
 15 16  1  0
 16 17  2  0
 17 18  1  0
 18 19  1  0
 18 20  2  0
 17 21  1  0
 21 22  1  0
 22 23  2  0
 22 24  1  0
 24 25  1  0
 25 26  1  0
 25 27  1  0
 25 28  1  0
 21 29  1  0
 29 30  2  0
 11 31  1  0
 31 32  1  0
 32  8  1  0
 30 12  1  0
 29 15  1  0
  1 33  1  0
  1 34  1  0
  1 35  1  0
  3 36  1  0
  3 37  1  0
  3 38  1  0
  4 39  1  0
  4 40  1  0
  4 41  1  0
  9 42  1  0
  9 43  1  0
 10 44  1  0
 10 45  1  0
 11 46  1  0
 13 47  1  0
 14 48  1  0
 16 49  1  0
 19 50  1  0
 19 51  1  0
 26 52  1  0
 26 53  1  0
 26 54  1  0
 27 55  1  0
 27 56  1  0
 27 57  1  0
 28 58  1  0
 28 59  1  0
 28 60  1  0
 30 61  1  0
 31 62  1  0
 31 63  1  0
 32 64  1  0
 32 65  1  0
M  END
>  <UniqueID>  (22) 
22

>  <SMILES>  (22) 
CC(C)(C)OC(=O)N1CCC(c2ccc3cc(C(N)=O)n(C(=O)OC(C)(C)C)c3c2)CC1

>  <Energy>  (22) 
97.75194336875511

>  <Genealogy>  (22) 
CC(C)(C)OC(=O)N1CCC(c2ccc3cc(C(N)=O)n(C(=O)OC(C)(C)C)c3c2)CC1 (3D coordinates assigned)
CC(C)(C)OC(=O)N1CCC(c2ccc3cc(C(N)=O)n(C(=O)OC(C)(C)C)c3c2)CC1 (nonaromatic ring conformer: 97.75194336875511 kcal/mol)

>  <smiles>  (22) 
CC(C)(C)OC(=O)N1CCC(c2ccc3cc(C(N)=O)n(C(=O)OC(C)(C)C)c3c2)CC1

>  <score_type>  (22) 
oracle

>  <origin>  (22) 
adg

>  <m_score__min__energy>  (22) 
-9.4000000000000004

>  <m_primary>  (22) 
energy

$$$$
22:0
     RDKit          3D

 48 50  0  0  0  0  0  0  0  0999 V2000
  140.7570  149.8230  132.4400 C   0  0  0  0  0  0  0  0  0  0  0  0
  141.7830  150.5900  133.0630 O   0  0  0  0  0  0  0  0  0  0  0  0
  141.7740  151.9900  133.1620 C   0  0  0  0  0  0  0  0  0  0  0  0
  142.9760  152.6430  133.4540 C   0  0  0  0  0  0  0  0  0  0  0  0
  143.0220  154.0360  133.5630 C   0  0  0  0  0  0  0  0  0  0  0  0
  141.8580  154.8030  133.3820 C   0  0  0  0  0  0  0  0  0  0  0  0
  141.9060  156.2830  133.4970 C   0  0  0  0  0  0  0  0  0  0  0  0
  140.7050  157.0330  133.6140 C   0  0  0  0  0  0  0  0  0  0  0  0
  140.7380  158.4330  133.7090 C   0  0  0  0  0  0  0  0  0  0  0  0
  141.9790  159.0600  133.6930 C   0  0  0  0  0  0  0  0  0  0  0  0
  142.2940  160.3980  133.7410 C   0  0  0  0  0  0  0  0  0  0  0  0
  143.6850  160.4530  133.6770 C   0  0  0  0  0  0  0  0  0  0  0  0
  144.4550  161.7090  133.7790 C   0  0  0  0  0  0  0  0  0  0  0  0
  145.8410  161.6940  134.1100 N   0  0  0  0  0  0  0  0  0  0  0  0
  143.8710  162.8130  133.6200 O   0  0  0  0  0  0  0  0  0  0  0  0
  144.2090  159.1970  133.5880 N   0  0  0  0  0  0  0  0  0  0  0  0
  145.5850  158.8340  133.4000 C   0  0  0  0  0  0  0  0  0  0  0  0
  146.0650  157.8560  134.0340 O   0  0  0  0  0  0  0  0  0  0  0  0
  146.3710  159.5600  132.4920 O   0  0  0  0  0  0  0  0  0  0  0  0
  147.7880  159.4280  132.2970 C   0  0  0  0  0  0  0  0  0  0  0  0
  148.4590  159.7280  133.6460 C   0  0  0  0  0  0  0  0  0  0  0  0
  148.1470  157.9910  131.8710 C   0  0  0  0  0  0  0  0  0  0  0  0
  148.2870  160.4460  131.2530 C   0  0  0  0  0  0  0  0  0  0  0  0
  143.1510  158.3560  133.5990 C   0  0  0  0  0  0  0  0  0  0  0  0
  143.1490  156.9610  133.4830 C   0  0  0  0  0  0  0  0  0  0  0  0
  140.6500  154.1460  133.0880 C   0  0  0  0  0  0  0  0  0  0  0  0
  140.6060  152.7540  132.9790 C   0  0  0  0  0  0  0  0  0  0  0  0
  140.1296  149.3540  133.2123 H   0  0  0  0  0  0  0  0  0  0  0  0
  140.1368  150.4807  131.8133 H   0  0  0  0  0  0  0  0  0  0  0  0
  141.2123  149.0420  131.8133 H   0  0  0  0  0  0  0  0  0  0  0  0
  143.8941  152.0547  133.5993 H   0  0  0  0  0  0  0  0  0  0  0  0
  143.9752  154.5350  133.7919 H   0  0  0  0  0  0  0  0  0  0  0  0
  139.7374  156.5101  133.6303 H   0  0  0  0  0  0  0  0  0  0  0  0
  139.8096  159.0169  133.7936 H   0  0  0  0  0  0  0  0  0  0  0  0
  141.5960  161.2450  133.8143 H   0  0  0  0  0  0  0  0  0  0  0  0
  146.5680  161.5400  133.3760 H   0  0  0  0  0  0  0  0  0  0  0  0
  147.7878  159.4279  134.4642 H   0  0  0  0  0  0  0  0  0  0  0  0
  149.4014  159.1655  133.7199 H   0  0  0  0  0  0  0  0  0  0  0  0
  148.6683  160.8054  133.7199 H   0  0  0  0  0  0  0  0  0  0  0  0
  148.3019  157.3710  132.7663 H   0  0  0  0  0  0  0  0  0  0  0  0
  147.3263  157.5705  131.2713 H   0  0  0  0  0  0  0  0  0  0  0  0
  149.0690  158.0059  131.2713 H   0  0  0  0  0  0  0  0  0  0  0  0
  148.7149  161.3190  131.7675 H   0  0  0  0  0  0  0  0  0  0  0  0
  149.0576  159.9775  130.6232 H   0  0  0  0  0  0  0  0  0  0  0  0
  147.4446  160.7681  130.6232 H   0  0  0  0  0  0  0  0  0  0  0  0
  144.0922  156.4038  133.3832 H   0  0  0  0  0  0  0  0  0  0  0  0
  139.7314  154.7334  132.9425 H   0  0  0  0  0  0  0  0  0  0  0  0
  139.6543  152.2526  132.7491 H   0  0  0  0  0  0  0  0  0  0  0  0
  1  2  1  0
  2  3  1  0
  3  4  2  0
  4  5  1  0
  5  6  2  0
  6  7  1  0
  7  8  2  0
  8  9  1  0
  9 10  2  0
 10 11  1  0
 11 12  2  0
 12 13  1  0
 13 14  1  0
 13 15  2  0
 12 16  1  0
 16 17  1  0
 17 18  2  0
 17 19  1  0
 19 20  1  0
 20 21  1  0
 20 22  1  0
 20 23  1  0
 16 24  1  0
 24 25  2  0
  6 26  1  0
 26 27  2  0
 27  3  1  0
 25  7  1  0
 24 10  1  0
  1 28  1  0
  1 29  1  0
  1 30  1  0
  4 31  1  0
  5 32  1  0
  8 33  1  0
  9 34  1  0
 11 35  1  0
 14 36  1  0
 21 37  1  0
 21 38  1  0
 21 39  1  0
 22 40  1  0
 22 41  1  0
 22 42  1  0
 23 43  1  0
 23 44  1  0
 23 45  1  0
 25 46  1  0
 26 47  1  0
 27 48  1  0
M  CHG  1  14  -1
M  END
>  <UniqueID>  (23) 
23

>  <SMILES>  (23) 
COc1ccc(-c2ccc3cc(C([NH-])=O)n(C(=O)OC(C)(C)C)c3c2)cc1

>  <Energy>  (23) 
88.9220531097178

>  <Genealogy>  (23) 
COc1ccc(-c2ccc3cc(C([NH-])=O)n(C(=O)OC(C)(C)C)c3c2)cc1 (protonated)
COc1ccc(-c2ccc3cc(C([NH-])=O)n(C(=O)OC(C)(C)C)c3c2)cc1 (3D coordinates assigned)
COc1ccc(-c2ccc3cc(C([NH-])=O)n(C(=O)OC(C)(C)C)c3c2)cc1 (optimized conformer: 88.9220531097178 kcal/mol)

>  <smiles>  (23) 
COc1ccc(-c2ccc3cc(C(N)=O)n(C(=O)OC(C)(C)C)c3c2)cc1

>  <score_type>  (23) 
oracle

>  <origin>  (23) 
adg

>  <m_score__min__energy>  (23) 
-8.25

>  <m_primary>  (23) 
energy

$$$$
23:0
     RDKit          3D

 59 63  0  0  0  0  0  0  0  0999 V2000
  141.0670  158.4780  133.6370 C   0  0  0  0  0  0  0  0  0  0  0  0
  141.5340  158.5570  135.1070 C   0  0  0  0  0  0  0  0  0  0  0  0
  142.1110  157.2000  135.5660 C   0  0  0  0  0  0  0  0  0  0  0  0
  140.3280  158.9170  135.9930 C   0  0  0  0  0  0  0  0  0  0  0  0
  142.5030  159.6030  135.2700 O   0  0  0  0  0  0  0  0  0  0  0  0
  143.0020  160.4360  134.2560 C   0  0  0  0  0  0  0  0  0  0  0  0
  142.2390  161.1990  133.6090 O   0  0  0  0  0  0  0  0  0  0  0  0
  144.4050  160.4050  133.9500 N   0  0  0  0  0  0  0  0  0  0  0  0
  145.2910  161.4400  134.0050 C   0  0  0  0  0  0  0  0  0  0  0  0
  144.9490  162.8580  134.2350 C   0  0  0  0  0  0  0  0  0  0  0  0
  144.0230  163.5130  133.3680 N   0  0  0  0  0  0  0  0  0  0  0  0
  145.4430  163.4920  135.2080 O   0  0  0  0  0  0  0  0  0  0  0  0
  146.5830  160.9890  133.7410 C   0  0  0  0  0  0  0  0  0  0  0  0
  146.4590  159.6350  133.5230 C   0  0  0  0  0  0  0  0  0  0  0  0
  147.4330  158.6810  133.2480 C   0  0  0  0  0  0  0  0  0  0  0  0
  147.0260  157.3440  133.1130 C   0  0  0  0  0  0  0  0  0  0  0  0
  145.6570  156.9780  133.2490 C   0  0  0  0  0  0  0  0  0  0  0  0
  145.2380  155.5570  133.1040 C   0  0  0  0  0  0  0  0  0  0  0  0
  146.1930  154.5060  133.2080 C   0  0  0  0  0  0  0  0  0  0  0  0
  145.8030  153.1600  133.1010 C   0  0  0  0  0  0  0  0  0  0  0  0
  144.4560  152.8930  132.8770 C   0  0  0  0  0  0  0  0  0  0  0  0
  143.8640  151.6950  132.7710 N   0  0  0  0  0  0  0  0  0  0  0  0
  142.5550  152.0250  132.5850 C   0  0  0  0  0  0  0  0  0  0  0  0
  141.4880  151.0040  132.4630 C   0  0  0  0  0  0  0  0  0  0  0  0
  140.5540  151.1130  131.5040 C   0  0  0  0  0  0  0  0  0  0  0  0
  139.4410  150.1120  131.3620 C   0  0  0  0  0  0  0  0  0  0  0  0
  139.1110  149.4820  132.6470 N   0  0  0  0  0  0  0  0  0  0  0  0
  140.3050  148.8730  133.2460 C   0  0  1  0  0  0  0  0  0  0  0  0
  140.7930  147.8690  132.4270 F   0  0  0  0  0  0  0  0  0  0  0  0
  141.4020  149.9210  133.5190 C   0  0  0  0  0  0  0  0  0  0  0  0
  142.3120  153.3640  132.5750 N   0  0  0  0  0  0  0  0  0  0  0  0
  143.5340  153.8850  132.7620 C   0  0  0  0  0  0  0  0  0  0  0  0
  143.8770  155.2290  132.8720 C   0  0  0  0  0  0  0  0  0  0  0  0
  144.6990  157.9850  133.5240 C   0  0  0  0  0  0  0  0  0  0  0  0
  145.1350  159.3080  133.6510 C   0  0  0  0  0  0  0  0  0  0  0  0
  139.9828  158.2946  133.6060 H   0  0  0  0  0  0  0  0  0  0  0  0
  141.2929  159.4271  133.1290 H   0  0  0  0  0  0  0  0  0  0  0  0
  141.5926  157.6560  133.1290 H   0  0  0  0  0  0  0  0  0  0  0  0
  142.1274  157.1615  136.6652 H   0  0  0  0  0  0  0  0  0  0  0  0
  141.4818  156.3845  135.1799 H   0  0  0  0  0  0  0  0  0  0  0  0
  143.1348  157.0874  135.1799 H   0  0  0  0  0  0  0  0  0  0  0  0
  140.6128  158.8320  137.0521 H   0  0  0  0  0  0  0  0  0  0  0  0
  140.0116  159.9488  135.7800 H   0  0  0  0  0  0  0  0  0  0  0  0
  139.4978  158.2275  135.7800 H   0  0  0  0  0  0  0  0  0  0  0  0
  143.1630  163.0230  133.0370 H   0  0  0  0  0  0  0  0  0  0  0  0
  147.5056  161.5874  133.7128 H   0  0  0  0  0  0  0  0  0  0  0  0
  148.4901  158.9653  133.1396 H   0  0  0  0  0  0  0  0  0  0  0  0
  147.7758  156.5681  132.8991 H   0  0  0  0  0  0  0  0  0  0  0  0
  147.2523  154.7513  133.3746 H   0  0  0  0  0  0  0  0  0  0  0  0
  146.5372  152.3459  133.1912 H   0  0  0  0  0  0  0  0  0  0  0  0
  140.6047  151.9587  130.8024 H   0  0  0  0  0  0  0  0  0  0  0  0
  138.5474  150.6245  130.9762 H   0  0  0  0  0  0  0  0  0  0  0  0
  139.7734  149.3250  130.6691 H   0  0  0  0  0  0  0  0  0  0  0  0
  138.7450  150.2160  133.2990 H   0  0  0  0  0  0  0  0  0  0  0  0
  140.0102  148.4387  134.2127 H   0  0  0  0  0  0  0  0  0  0  0  0
  141.1933  150.3973  134.4883 H   0  0  0  0  0  0  0  0  0  0  0  0
  142.3641  149.3879  133.5109 H   0  0  0  0  0  0  0  0  0  0  0  0
  143.1138  156.0160  132.7816 H   0  0  0  0  0  0  0  0  0  0  0  0
  143.6344  157.7316  133.6353 H   0  0  0  0  0  0  0  0  0  0  0  0
  1  2  1  0
  2  3  1  0
  2  4  1  0
  2  5  1  0
  5  6  1  0
  6  7  2  0
  6  8  1  0
  8  9  1  0
  9 10  1  0
 10 11  1  0
 10 12  2  0
  9 13  2  0
 13 14  1  0
 14 15  2  0
 15 16  1  0
 16 17  2  0
 17 18  1  0
 18 19  2  0
 19 20  1  0
 20 21  2  0
 21 22  1  0
 22 23  2  0
 23 24  1  0
 24 25  2  0
 25 26  1  0
 26 27  1  0
 27 28  1  0
 28 29  1  0
 28 30  1  0
 23 31  1  0
 31 32  1  0
 32 33  2  0
 17 34  1  0
 34 35  2  0
 35  8  1  0
 35 14  1  0
 33 18  1  0
 32 21  1  0
 30 24  1  0
  1 36  1  0
  1 37  1  0
  1 38  1  0
  3 39  1  0
  3 40  1  0
  3 41  1  0
  4 42  1  0
  4 43  1  0
  4 44  1  0
 11 45  1  0
 13 46  1  0
 15 47  1  0
 16 48  1  0
 19 49  1  0
 20 50  1  0
 25 51  1  0
 26 52  1  0
 26 53  1  0
 27 54  1  0
 28 55  1  1
 30 56  1  0
 30 57  1  0
 33 58  1  0
 34 59  1  0
M  CHG  2  11  -1  31  -1
M  END
>  <UniqueID>  (24) 
24

>  <SMILES>  (24) 
CC(C)(C)OC(=O)n1c(C([NH-])=O)cc2ccc(-c3ccc4nc(C5=CCN[C@@H](F)C5)[n-]c4c3)cc21

>  <Energy>  (24) 
140.78643572840613

>  <Genealogy>  (24) 
CC(C)(C)OC(=O)n1c(C([NH-])=O)cc2ccc(-c3ccc4nc(C5=CCNC(F)C5)[n-]c4c3)cc21 (protonated)
CC(C)(C)OC(=O)n1c(C([NH-])=O)cc2ccc(-c3ccc4nc(C5=CCN[C@@H](F)C5)[n-]c4c3)cc21 (chirality)
CC(C)(C)OC(=O)n1c(C([NH-])=O)cc2ccc(-c3ccc4nc(C5=CCN[C@@H](F)C5)[n-]c4c3)cc21 (3D coordinates assigned)
CC(C)(C)OC(=O)n1c(C([NH-])=O)cc2ccc(-c3ccc4nc(C5=CCN[C@@H](F)C5)[n-]c4c3)cc21 (nonaromatic ring conformer: 140.78643572840613 kcal/mol)

>  <smiles>  (24) 
CC(C)(C)OC(=O)n1c(C(N)=O)cc2ccc(-c3ccc4nc(C5=CCNC(F)C5)[nH]c4c3)cc21

>  <score_type>  (24) 
oracle

>  <origin>  (24) 
adg

>  <m_score__min__energy>  (24) 
-9.9299999999999997

>  <m_primary>  (24) 
energy

$$$$
24:0
     RDKit          3D

 25 26  0  0  0  0  0  0  0  0999 V2000
  149.2560  162.0340  130.3560 C   0  0  0  0  0  0  0  0  0  0  0  0
  149.0690  160.7270  131.0670 C   0  0  0  0  0  0  0  0  0  0  0  0
  150.1110  159.7680  131.0740 C   0  0  0  0  0  0  0  0  0  0  0  0
  149.9570  158.5500  131.7550 C   0  0  0  0  0  0  0  0  0  0  0  0
  148.7640  158.3300  132.4380 C   0  0  0  0  0  0  0  0  0  0  0  0
  148.3460  157.2320  133.1530 C   0  0  0  0  0  0  0  0  0  0  0  0
  147.0720  157.5560  133.6110 C   0  0  0  0  0  0  0  0  0  0  0  0
  146.2750  156.6720  134.4840 C   0  0  0  0  0  0  0  0  0  0  0  0
  144.8480  156.7180  134.4790 N   0  0  0  0  0  0  0  0  0  0  0  0
  146.8650  155.9050  135.2910 O   0  0  0  0  0  0  0  0  0  0  0  0
  146.7070  158.7980  133.1870 N   0  0  0  0  0  0  0  0  0  0  0  0
  145.4270  159.4330  133.3510 C   0  0  0  0  0  0  0  0  0  0  0  0
  145.3070  160.4530  134.0800 O   0  0  0  0  0  0  0  0  0  0  0  0
  144.3070  158.9300  132.7000 O   0  0  0  0  0  0  0  0  0  0  0  0
  147.7580  159.2630  132.4700 C   0  0  0  0  0  0  0  0  0  0  0  0
  147.8770  160.4760  131.7810 C   0  0  0  0  0  0  0  0  0  0  0  0
  149.3714  162.8403  131.0953 H   0  0  0  0  0  0  0  0  0  0  0  0
  150.1560  161.9830  129.7256 H   0  0  0  0  0  0  0  0  0  0  0  0
  148.3778  162.2374  129.7256 H   0  0  0  0  0  0  0  0  0  0  0  0
  151.0497  159.9794  130.5409 H   0  0  0  0  0  0  0  0  0  0  0  0
  150.7547  157.7926  131.7491 H   0  0  0  0  0  0  0  0  0  0  0  0
  148.9000  156.2975  133.3260 H   0  0  0  0  0  0  0  0  0  0  0  0
  144.3340  157.4540  133.9460 H   0  0  0  0  0  0  0  0  0  0  0  0
  144.3010  156.0610  135.0780 H   0  0  0  0  0  0  0  0  0  0  0  0
  147.0623  161.2149  131.7956 H   0  0  0  0  0  0  0  0  0  0  0  0
  1  2  1  0
  2  3  2  0
  3  4  1  0
  4  5  2  0
  5  6  1  0
  6  7  2  0
  7  8  1  0
  8  9  1  0
  8 10  2  0
  7 11  1  0
 11 12  1  0
 12 13  2  0
 12 14  1  0
 11 15  1  0
 15 16  2  0
 16  2  1  0
 15  5  1  0
  1 17  1  0
  1 18  1  0
  1 19  1  0
  3 20  1  0
  4 21  1  0
  6 22  1  0
  9 23  1  0
  9 24  1  0
 16 25  1  0
M  CHG  1  14  -1
M  END
>  <UniqueID>  (25) 
25

>  <SMILES>  (25) 
Cc1ccc2cc(C(N)=O)n(C(=O)[O-])c2c1

>  <Energy>  (25) 
64.86319026703845

>  <Genealogy>  (25) 
Cc1ccc2cc(C(N)=O)n(C(=O)[O-])c2c1 (protonated)
Cc1ccc2cc(C(N)=O)n(C(=O)[O-])c2c1 (3D coordinates assigned)
Cc1ccc2cc(C(N)=O)n(C(=O)[O-])c2c1 (optimized conformer: 64.86319026703845 kcal/mol)

>  <smiles>  (25) 
Cc1ccc2cc(C(N)=O)n(C(=O)O)c2c1

>  <score_type>  (25) 
oracle

>  <origin>  (25) 
adg

>  <m_score__min__energy>  (25) 
-6

>  <m_primary>  (25) 
energy

$$$$
25:0
     RDKit          3D

 46 48  0  0  0  0  0  0  0  0999 V2000
  146.7020  155.6970  132.4010 C   0  0  0  0  0  0  0  0  0  0  0  0
  146.3760  155.2380  133.8350 C   0  0  0  0  0  0  0  0  0  0  0  0
  147.2460  156.0330  134.8200 C   0  0  0  0  0  0  0  0  0  0  0  0
  146.6710  153.7360  134.0070 C   0  0  0  0  0  0  0  0  0  0  0  0
  145.0070  155.5250  134.1560 O   0  0  0  0  0  0  0  0  0  0  0  0
  144.0840  156.1960  133.3410 C   0  0  0  0  0  0  0  0  0  0  0  0
  143.6220  155.6530  132.3000 O   0  0  0  0  0  0  0  0  0  0  0  0
  143.6830  157.5320  133.6840 N   0  0  0  0  0  0  0  0  0  0  0  0
  142.4410  157.9720  134.0340 C   0  0  0  0  0  0  0  0  0  0  0  0
  141.2510  157.1250  134.2630 C   0  0  0  0  0  0  0  0  0  0  0  0
  140.9420  156.0760  133.3490 N   0  0  0  0  0  0  0  0  0  0  0  0
  140.4830  157.3400  135.2370 O   0  0  0  0  0  0  0  0  0  0  0  0
  142.4520  159.3510  134.2330 C   0  0  0  0  0  0  0  0  0  0  0  0
  143.7500  159.7430  134.0020 C   0  0  0  0  0  0  0  0  0  0  0  0
  144.3230  161.0100  134.0490 C   0  0  0  0  0  0  0  0  0  0  0  0
  145.6880  161.1260  133.7360 C   0  0  0  0  0  0  0  0  0  0  0  0
  146.4530  159.9840  133.3790 C   0  0  0  0  0  0  0  0  0  0  0  0
  147.9220  160.1110  133.0190 C   0  0  2  0  0  0  0  0  0  0  0  0
  148.1530  160.3700  131.5320 C   0  0  0  0  0  0  0  0  0  0  0  0
  148.9920  159.1980  131.0510 C   0  0  0  0  0  0  0  0  0  0  0  0
  149.6280  158.5960  132.2200 N   0  0  0  0  0  0  0  0  0  0  0  0
  148.7130  158.8370  133.3330 C   0  0  0  0  0  0  0  0  0  0  0  0
  145.8290  158.7160  133.3370 C   0  0  0  0  0  0  0  0  0  0  0  0
  144.4730  158.6260  133.6720 C   0  0  0  0  0  0  0  0  0  0  0  0
  147.3386  156.5933  132.4387 H   0  0  0  0  0  0  0  0  0  0  0  0
  147.2324  154.8927  131.8702 H   0  0  0  0  0  0  0  0  0  0  0  0
  145.7678  155.9328  131.8702 H   0  0  0  0  0  0  0  0  0  0  0  0
  146.9627  155.7741  135.8509 H   0  0  0  0  0  0  0  0  0  0  0  0
  148.3050  155.7841  134.6573 H   0  0  0  0  0  0  0  0  0  0  0  0
  147.0933  157.1101  134.6573 H   0  0  0  0  0  0  0  0  0  0  0  0
  146.7189  153.4921  135.0786 H   0  0  0  0  0  0  0  0  0  0  0  0
  145.8711  153.1485  133.5326 H   0  0  0  0  0  0  0  0  0  0  0  0
  147.6337  153.4947  133.5326 H   0  0  0  0  0  0  0  0  0  0  0  0
  141.4960  155.9450  132.4730 H   0  0  0  0  0  0  0  0  0  0  0  0
  141.6027  159.9906  134.5151 H   0  0  0  0  0  0  0  0  0  0  0  0
  143.7265  161.8928  134.3225 H   0  0  0  0  0  0  0  0  0  0  0  0
  146.1702  162.1142  133.7679 H   0  0  0  0  0  0  0  0  0  0  0  0
  148.2647  160.9620  133.6259 H   0  0  0  0  0  0  0  0  0  0  0  0
  147.1948  160.4058  130.9929 H   0  0  0  0  0  0  0  0  0  0  0  0
  148.6520  161.3341  131.3545 H   0  0  0  0  0  0  0  0  0  0  0  0
  148.3497  158.4578  130.5515 H   0  0  0  0  0  0  0  0  0  0  0  0
  149.7519  159.5383  130.3322 H   0  0  0  0  0  0  0  0  0  0  0  0
  150.5110  159.1280  132.4100 H   0  0  0  0  0  0  0  0  0  0  0  0
  148.0245  157.9862  133.4428 H   0  0  0  0  0  0  0  0  0  0  0  0
  149.2723  158.9529  134.2731 H   0  0  0  0  0  0  0  0  0  0  0  0
  146.3969  157.8196  133.0473 H   0  0  0  0  0  0  0  0  0  0  0  0
  1  2  1  0
  2  3  1  0
  2  4  1  0
  2  5  1  0
  5  6  1  0
  6  7  2  0
  6  8  1  0
  8  9  1  0
  9 10  1  0
 10 11  1  0
 10 12  2  0
  9 13  2  0
 13 14  1  0
 14 15  2  0
 15 16  1  0
 16 17  2  0
 17 18  1  0
 18 19  1  0
 19 20  1  0
 20 21  1  0
 21 22  1  0
 17 23  1  0
 23 24  2  0
 24  8  1  0
 24 14  1  0
 22 18  1  0
  1 25  1  0
  1 26  1  0
  1 27  1  0
  3 28  1  0
  3 29  1  0
  3 30  1  0
  4 31  1  0
  4 32  1  0
  4 33  1  0
 11 34  1  0
 13 35  1  0
 15 36  1  0
 16 37  1  0
 18 38  1  1
 19 39  1  0
 19 40  1  0
 20 41  1  0
 20 42  1  0
 21 43  1  0
 22 44  1  0
 22 45  1  0
 23 46  1  0
M  CHG  1  11  -1
M  END
>  <UniqueID>  (26) 
26

>  <SMILES>  (26) 
CC(C)(C)OC(=O)n1c(C([NH-])=O)cc2ccc([C@@H]3CCNC3)cc21

>  <Energy>  (26) 
82.42973345175564

>  <Genealogy>  (26) 
CC(C)(C)OC(=O)n1c(C([NH-])=O)cc2ccc(C3CCNC3)cc21 (protonated)
CC(C)(C)OC(=O)n1c(C([NH-])=O)cc2ccc([C@@H]3CCNC3)cc21 (chirality)
CC(C)(C)OC(=O)n1c(C([NH-])=O)cc2ccc([C@@H]3CCNC3)cc21 (3D coordinates assigned)
CC(C)(C)OC(=O)n1c(C([NH-])=O)cc2ccc([C@@H]3CCNC3)cc21 (nonaromatic ring conformer: 82.42973345175564 kcal/mol)

>  <smiles>  (26) 
CC(C)(C)OC(=O)n1c(C(N)=O)cc2ccc(C3CCNC3)cc21

>  <score_type>  (26) 
oracle

>  <origin>  (26) 
adg

>  <m_score__min__energy>  (26) 
-7.9500000000000002

>  <m_primary>  (26) 
energy

$$$$
26:0
     RDKit          3D

 59 62  0  0  0  0  0  0  0  0999 V2000
  142.1630  155.1960  134.3880 C   0  0  0  0  0  0  0  0  0  0  0  0
  142.0540  155.4460  135.8880 C   0  0  0  0  0  0  0  0  0  0  0  0
  142.4810  156.7680  136.2090 O   0  0  0  0  0  0  0  0  0  0  0  0
  141.6190  157.8720  136.2210 C   0  0  0  0  0  0  0  0  0  0  0  0
  141.6150  158.6600  137.2060 O   0  0  0  0  0  0  0  0  0  0  0  0
  140.7000  158.0900  135.0790 C   0  0  0  0  0  0  0  0  0  0  0  0
  139.3940  157.5890  135.1810 C   0  0  0  0  0  0  0  0  0  0  0  0
  138.4700  157.7840  134.1580 C   0  0  0  0  0  0  0  0  0  0  0  0
  138.8360  158.4680  132.9950 C   0  0  0  0  0  0  0  0  0  0  0  0
  137.8970  158.6460  131.9660 C   0  0  0  0  0  0  0  0  0  0  0  0
  138.2580  159.3020  130.7890 C   0  0  0  0  0  0  0  0  0  0  0  0
  139.5580  159.7780  130.6250 C   0  0  0  0  0  0  0  0  0  0  0  0
  140.5030  159.6110  131.6390 C   0  0  0  0  0  0  0  0  0  0  0  0
  140.1570  158.9660  132.8490 C   0  0  0  0  0  0  0  0  0  0  0  0
  141.0950  158.7830  133.9030 C   0  0  0  0  0  0  0  0  0  0  0  0
  142.4940  159.2530  133.7560 C   0  0  0  0  0  0  0  0  0  0  0  0
  142.7960  160.6340  133.8610 C   0  0  0  0  0  0  0  0  0  0  0  0
  144.1210  161.0860  133.7410 C   0  0  0  0  0  0  0  0  0  0  0  0
  145.1180  160.1350  133.5380 C   0  0  0  0  0  0  0  0  0  0  0  0
  146.4760  160.2950  133.3820 C   0  0  0  0  0  0  0  0  0  0  0  0
  146.9840  159.0080  133.2200 C   0  0  0  0  0  0  0  0  0  0  0  0
  148.4280  158.7110  133.1080 C   0  0  0  0  0  0  0  0  0  0  0  0
  148.9440  158.1400  131.9070 N   0  0  0  0  0  0  0  0  0  0  0  0
  149.2180  158.9900  134.0470 O   0  0  0  0  0  0  0  0  0  0  0  0
  145.9800  158.0880  133.2670 N   0  0  0  0  0  0  0  0  0  0  0  0
  146.0800  156.6660  133.0930 C   0  0  0  0  0  0  0  0  0  0  0  0
  146.7300  156.2020  132.1190 O   0  0  0  0  0  0  0  0  0  0  0  0
  145.4700  155.8120  134.0250 O   0  0  0  0  0  0  0  0  0  0  0  0
  146.1040  154.7400  134.7360 C   0  0  0  0  0  0  0  0  0  0  0  0
  145.2050  154.2450  135.8850 C   0  0  0  0  0  0  0  0  0  0  0  0
  147.4780  155.1800  135.2740 C   0  0  0  0  0  0  0  0  0  0  0  0
  146.3080  153.5910  133.7360 C   0  0  0  0  0  0  0  0  0  0  0  0
  144.8440  158.7940  133.4620 C   0  0  0  0  0  0  0  0  0  0  0  0
  143.5310  158.3180  133.5470 C   0  0  0  0  0  0  0  0  0  0  0  0
  142.5970  154.2005  134.2128 H   0  0  0  0  0  0  0  0  0  0  0  0
  141.1620  155.2446  133.9345 H   0  0  0  0  0  0  0  0  0  0  0  0
  142.8086  155.9625  133.9345 H   0  0  0  0  0  0  0  0  0  0  0  0
  141.0071  155.3184  136.2006 H   0  0  0  0  0  0  0  0  0  0  0  0
  142.6989  154.7274  136.4150 H   0  0  0  0  0  0  0  0  0  0  0  0
  139.0954  157.0339  136.0825 H   0  0  0  0  0  0  0  0  0  0  0  0
  137.4458  157.3975  134.2655 H   0  0  0  0  0  0  0  0  0  0  0  0
  136.8719  158.2663  132.0887 H   0  0  0  0  0  0  0  0  0  0  0  0
  137.5160  159.4439  129.9894 H   0  0  0  0  0  0  0  0  0  0  0  0
  139.8406  160.2877  129.6921 H   0  0  0  0  0  0  0  0  0  0  0  0
  141.5274  159.9850  131.4952 H   0  0  0  0  0  0  0  0  0  0  0  0
  141.9866  161.3576  134.0378 H   0  0  0  0  0  0  0  0  0  0  0  0
  144.3632  162.1571  133.8054 H   0  0  0  0  0  0  0  0  0  0  0  0
  147.0406  161.2390  133.3847 H   0  0  0  0  0  0  0  0  0  0  0  0
  148.5060  157.2910  131.4860 H   0  0  0  0  0  0  0  0  0  0  0  0
  145.6686  154.5003  136.8493 H   0  0  0  0  0  0  0  0  0  0  0  0
  144.2190  154.7274  135.8130 H   0  0  0  0  0  0  0  0  0  0  0  0
  145.0855  153.1539  135.8130 H   0  0  0  0  0  0  0  0  0  0  0  0
  147.4601  155.1743  136.3738 H   0  0  0  0  0  0  0  0  0  0  0  0
  148.2516  154.4847  134.9163 H   0  0  0  0  0  0  0  0  0  0  0  0
  147.7038  156.1954  134.9163 H   0  0  0  0  0  0  0  0  0  0  0  0
  146.4746  152.6524  134.2849 H   0  0  0  0  0  0  0  0  0  0  0  0
  145.4134  153.4921  133.1037 H   0  0  0  0  0  0  0  0  0  0  0  0
  147.1820  153.8061  133.1037 H   0  0  0  0  0  0  0  0  0  0  0  0
  143.3126  157.2440  133.4535 H   0  0  0  0  0  0  0  0  0  0  0  0
  1  2  1  0
  2  3  1  0
  3  4  1  0
  4  5  2  0
  4  6  1  0
  6  7  2  0
  7  8  1  0
  8  9  2  0
  9 10  1  0
 10 11  2  0
 11 12  1  0
 12 13  2  0
 13 14  1  0
 14 15  2  0
 15 16  1  0
 16 17  2  0
 17 18  1  0
 18 19  2  0
 19 20  1  0
 20 21  2  0
 21 22  1  0
 22 23  1  0
 22 24  2  0
 21 25  1  0
 25 26  1  0
 26 27  2  0
 26 28  1  0
 28 29  1  0
 29 30  1  0
 29 31  1  0
 29 32  1  0
 25 33  1  0
 33 34  2  0
 15  6  1  0
 34 16  1  0
 14  9  1  0
 33 19  1  0
  1 35  1  0
  1 36  1  0
  1 37  1  0
  2 38  1  0
  2 39  1  0
  7 40  1  0
  8 41  1  0
 10 42  1  0
 11 43  1  0
 12 44  1  0
 13 45  1  0
 17 46  1  0
 18 47  1  0
 20 48  1  0
 23 49  1  0
 30 50  1  0
 30 51  1  0
 30 52  1  0
 31 53  1  0
 31 54  1  0
 31 55  1  0
 32 56  1  0
 32 57  1  0
 32 58  1  0
 34 59  1  0
M  CHG  1  23  -1
M  END
>  <UniqueID>  (27) 
27

>  <SMILES>  (27) 
CCOC(=O)c1ccc2ccccc2c1-c1ccc2cc(C([NH-])=O)n(C(=O)OC(C)(C)C)c2c1

>  <Energy>  (27) 
108.47159158831013

>  <Genealogy>  (27) 
CCOC(=O)c1ccc2ccccc2c1-c1ccc2cc(C([NH-])=O)n(C(=O)OC(C)(C)C)c2c1 (protonated)
CCOC(=O)c1ccc2ccccc2c1-c1ccc2cc(C([NH-])=O)n(C(=O)OC(C)(C)C)c2c1 (3D coordinates assigned)
CCOC(=O)c1ccc2ccccc2c1-c1ccc2cc(C([NH-])=O)n(C(=O)OC(C)(C)C)c2c1 (optimized conformer: 108.47159158831013 kcal/mol)

>  <smiles>  (27) 
CCOC(=O)c1ccc2ccccc2c1-c1ccc2cc(C(N)=O)n(C(=O)OC(C)(C)C)c2c1

>  <score_type>  (27) 
oracle

>  <origin>  (27) 
adg

>  <m_score__min__energy>  (27) 
-9.5299999999999994

>  <m_primary>  (27) 
energy

$$$$
27:0
     RDKit          3D

 38 40  0  0  0  0  0  0  0  0999 V2000
  145.2120  163.1170  134.4660 C   0  0  0  0  0  0  0  0  0  0  0  0
  144.0440  162.4620  133.7370 C   0  0  0  0  0  0  0  0  0  0  0  0
  144.2650  160.9790  133.6040 C   0  0  0  0  0  0  0  0  0  0  0  0
  143.1780  160.0820  133.7450 C   0  0  0  0  0  0  0  0  0  0  0  0
  143.3800  158.6930  133.6660 C   0  0  0  0  0  0  0  0  0  0  0  0
  144.6760  158.2350  133.4430 C   0  0  0  0  0  0  0  0  0  0  0  0
  145.1600  156.9480  133.3700 C   0  0  0  0  0  0  0  0  0  0  0  0
  146.5320  157.0830  133.1680 C   0  0  0  0  0  0  0  0  0  0  0  0
  147.4550  155.9390  133.0230 C   0  0  0  0  0  0  0  0  0  0  0  0
  148.8280  156.0380  133.4070 N   0  0  0  0  0  0  0  0  0  0  0  0
  147.0350  154.8670  132.5110 O   0  0  0  0  0  0  0  0  0  0  0  0
  146.8820  158.3980  133.1200 N   0  0  0  0  0  0  0  0  0  0  0  0
  148.2110  158.9440  133.0770 C   0  0  0  0  0  0  0  0  0  0  0  0
  148.9750  158.7770  134.0660 O   0  0  0  0  0  0  0  0  0  0  0  0
  148.6980  159.6820  131.8860 C   0  0  0  0  0  0  0  0  0  0  0  0
  149.4050  159.0090  130.8740 C   0  0  0  0  0  0  0  0  0  0  0  0
  149.8620  159.7050  129.7490 C   0  0  0  0  0  0  0  0  0  0  0  0
  149.6150  161.0740  129.6230 C   0  0  0  0  0  0  0  0  0  0  0  0
  148.9060  161.7490  130.6180 C   0  0  0  0  0  0  0  0  0  0  0  0
  148.4450  161.0600  131.7430 C   0  0  0  0  0  0  0  0  0  0  0  0
  145.7360  159.0910  133.2970 C   0  0  0  0  0  0  0  0  0  0  0  0
  145.5680  160.4760  133.3960 C   0  0  0  0  0  0  0  0  0  0  0  0
  145.0604  163.0320  135.5522 H   0  0  0  0  0  0  0  0  0  0  0  0
  146.1485  162.6124  134.1859 H   0  0  0  0  0  0  0  0  0  0  0  0
  145.2698  164.1792  134.1859 H   0  0  0  0  0  0  0  0  0  0  0  0
  143.1186  162.6399  134.3044 H   0  0  0  0  0  0  0  0  0  0  0  0
  143.9645  162.8996  132.7309 H   0  0  0  0  0  0  0  0  0  0  0  0
  142.1657  160.4761  133.9180 H   0  0  0  0  0  0  0  0  0  0  0  0
  142.5410  157.9903  133.7768 H   0  0  0  0  0  0  0  0  0  0  0  0
  144.5862  156.0132  133.4533 H   0  0  0  0  0  0  0  0  0  0  0  0
  149.2580  156.9570  133.6490 H   0  0  0  0  0  0  0  0  0  0  0  0
  149.4480  155.2000  133.3500 H   0  0  0  0  0  0  0  0  0  0  0  0
  149.5999  157.9304  130.9669 H   0  0  0  0  0  0  0  0  0  0  0  0
  150.4169  159.1728  128.9623 H   0  0  0  0  0  0  0  0  0  0  0  0
  149.9790  161.6199  128.7401 H   0  0  0  0  0  0  0  0  0  0  0  0
  148.7095  162.8265  130.5163 H   0  0  0  0  0  0  0  0  0  0  0  0
  147.8818  161.5966  132.5207 H   0  0  0  0  0  0  0  0  0  0  0  0
  146.4288  161.1560  133.3139 H   0  0  0  0  0  0  0  0  0  0  0  0
  1  2  1  0
  2  3  1  0
  3  4  2  0
  4  5  1  0
  5  6  2  0
  6  7  1  0
  7  8  2  0
  8  9  1  0
  9 10  1  0
  9 11  2  0
  8 12  1  0
 12 13  1  0
 13 14  2  0
 13 15  1  0
 15 16  2  0
 16 17  1  0
 17 18  2  0
 18 19  1  0
 19 20  2  0
 12 21  1  0
 21 22  2  0
 22  3  1  0
 21  6  1  0
 20 15  1  0
  1 23  1  0
  1 24  1  0
  1 25  1  0
  2 26  1  0
  2 27  1  0
  4 28  1  0
  5 29  1  0
  7 30  1  0
 10 31  1  0
 10 32  1  0
 16 33  1  0
 17 34  1  0
 18 35  1  0
 19 36  1  0
 20 37  1  0
 22 38  1  0
M  END
>  <UniqueID>  (28) 
28

>  <SMILES>  (28) 
CCc1ccc2cc(C(N)=O)n(C(=O)c3ccccc3)c2c1

>  <Energy>  (28) 
78.46826433895642

>  <Genealogy>  (28) 
CCc1ccc2cc(C(N)=O)n(C(=O)c3ccccc3)c2c1 (3D coordinates assigned)
CCc1ccc2cc(C(N)=O)n(C(=O)c3ccccc3)c2c1 (optimized conformer: 78.46826433895642 kcal/mol)

>  <smiles>  (28) 
CCc1ccc2cc(C(N)=O)n(C(=O)c3ccccc3)c2c1

>  <score_type>  (28) 
oracle

>  <origin>  (28) 
adg

>  <m_score__min__energy>  (28) 
-8.8599999999999994

>  <m_primary>  (28) 
energy

$$$$
28:0
     RDKit          3D

 93 98  0  0  0  0  0  0  0  0999 V2000
  139.4150  159.4300  131.2870 C   0  0  0  0  0  0  0  0  0  0  0  0
  140.5240  158.9270  132.0230 O   0  0  0  0  0  0  0  0  0  0  0  0
  140.6090  157.6400  132.5770 C   0  0  0  0  0  0  0  0  0  0  0  0
  139.4580  156.8540  132.7740 C   0  0  0  0  0  0  0  0  0  0  0  0
  139.5560  155.5640  133.3000 C   0  0  0  0  0  0  0  0  0  0  0  0
  140.8160  155.0030  133.5980 C   0  0  0  0  0  0  0  0  0  0  0  0
  140.9780  153.6080  134.1950 C   0  0  2  0  0  0  0  0  0  0  0  0
  142.2310  153.4540  135.0480 C   0  0  0  0  0  0  0  0  0  0  0  0
  142.3660  153.8660  136.3310 C   0  0  0  0  0  0  0  0  0  0  0  0
  141.3780  154.6530  136.9310 O   0  0  0  0  0  0  0  0  0  0  0  0
  143.5410  153.5180  137.1640 C   0  0  0  0  0  0  0  0  0  0  0  0
  143.3390  152.8800  138.4100 C   0  0  0  0  0  0  0  0  0  0  0  0
  144.4290  152.5220  139.2170 C   0  0  0  0  0  0  0  0  0  0  0  0
  145.7080  152.8230  138.7590 C   0  0  0  0  0  0  0  0  0  0  0  0
  146.9260  152.6400  139.3690 C   0  0  0  0  0  0  0  0  0  0  0  0
  147.8580  153.1940  138.4980 C   0  0  0  0  0  0  0  0  0  0  0  0
  149.2810  153.3630  138.8540 C   0  0  0  0  0  0  0  0  0  0  0  0
  150.0830  154.3540  138.2080 N   0  0  0  0  0  0  0  0  0  0  0  0
  149.7770  152.6780  139.7870 O   0  0  0  0  0  0  0  0  0  0  0  0
  147.2450  153.6800  137.3790 N   0  0  0  0  0  0  0  0  0  0  0  0
  147.8650  154.3180  136.2500 C   0  0  0  0  0  0  0  0  0  0  0  0
  148.1960  155.5360  136.3200 O   0  0  0  0  0  0  0  0  0  0  0  0
  148.0930  153.5850  135.0770 O   0  0  0  0  0  0  0  0  0  0  0  0
  147.5990  153.9060  133.7650 C   0  0  0  0  0  0  0  0  0  0  0  0
  148.6790  154.7450  133.0650 C   0  0  0  0  0  0  0  0  0  0  0  0
  146.3070  154.7460  133.8550 C   0  0  0  0  0  0  0  0  0  0  0  0
  147.3600  152.6200  132.9510 C   0  0  0  0  0  0  0  0  0  0  0  0
  145.9260  153.4440  137.5570 C   0  0  0  0  0  0  0  0  0  0  0  0
  144.8590  153.7550  136.7070 C   0  0  0  0  0  0  0  0  0  0  0  0
  143.2050  152.7070  134.2470 C   0  0  0  0  0  0  0  0  0  0  0  0
  144.4410  152.5940  134.4550 O   0  0  0  0  0  0  0  0  0  0  0  0
  142.5090  152.1920  133.1050 C   0  0  0  0  0  0  0  0  0  0  0  0
  143.0000  151.4150  132.2450 O   0  0  0  0  0  0  0  0  0  0  0  0
  141.1550  152.6270  133.1060 N   0  0  0  0  0  0  0  0  0  0  0  0
  140.0710  151.7580  132.6360 C   0  0  0  0  0  0  0  0  0  0  0  0
  140.3780  150.2820  132.9460 C   0  0  0  0  0  0  0  0  0  0  0  0
  139.6750  149.3880  132.0010 N   0  0  0  0  0  0  0  0  0  0  0  0
  140.4680  148.1650  131.7540 C   0  0  0  0  0  0  0  0  0  0  0  0
  139.8790  147.3470  130.5880 C   0  0  0  0  0  0  0  0  0  0  0  0
  138.5710  147.7830  130.2770 O   0  0  0  0  0  0  0  0  0  0  0  0
  138.6170  149.1120  129.7810 C   0  0  0  0  0  0  0  0  0  0  0  0
  139.3850  150.0650  130.7240 C   0  0  0  0  0  0  0  0  0  0  0  0
  141.9590  155.7860  133.3780 C   0  0  0  0  0  0  0  0  0  0  0  0
  141.8720  157.1110  132.9320 C   0  0  0  0  0  0  0  0  0  0  0  0
  143.0740  157.8460  132.8830 O   0  0  0  0  0  0  0  0  0  0  0  0
  143.8330  158.3270  133.9980 C   0  0  0  0  0  0  0  0  0  0  0  0
  144.1190  159.8080  133.7980 C   0  0  0  0  0  0  0  0  0  0  0  0
  145.4060  159.8800  132.9910 C   0  0  0  0  0  0  0  0  0  0  0  0
  146.1260  158.5500  133.1940 C   0  0  0  0  0  0  0  0  0  0  0  0
  145.2180  157.6800  134.0520 C   0  0  0  0  0  0  0  0  0  0  0  0
  138.6407  159.7812  131.9849 H   0  0  0  0  0  0  0  0  0  0  0  0
  139.7445  160.2668  130.6536 H   0  0  0  0  0  0  0  0  0  0  0  0
  139.0025  158.6309  130.6536 H   0  0  0  0  0  0  0  0  0  0  0  0
  138.4703  157.2604  132.5107 H   0  0  0  0  0  0  0  0  0  0  0  0
  138.6423  154.9797  133.4837 H   0  0  0  0  0  0  0  0  0  0  0  0
  140.0783  153.4481  134.8073 H   0  0  0  0  0  0  0  0  0  0  0  0
  141.4400  154.9950  137.8810 H   0  0  0  0  0  0  0  0  0  0  0  0
  142.3158  152.6621  138.7500 H   0  0  0  0  0  0  0  0  0  0  0  0
  144.2772  152.0183  140.1831 H   0  0  0  0  0  0  0  0  0  0  0  0
  147.1217  152.1585  140.3385 H   0  0  0  0  0  0  0  0  0  0  0  0
  149.6610  155.2490  137.8810 H   0  0  0  0  0  0  0  0  0  0  0  0
  149.3099  155.2351  133.8211 H   0  0  0  0  0  0  0  0  0  0  0  0
  149.3012  154.0910  132.4363 H   0  0  0  0  0  0  0  0  0  0  0  0
  148.1992  155.5096  132.4363 H   0  0  0  0  0  0  0  0  0  0  0  0
  146.0508  154.9126  134.9117 H   0  0  0  0  0  0  0  0  0  0  0  0
  146.4643  155.7150  133.3587 H   0  0  0  0  0  0  0  0  0  0  0  0
  145.4852  154.2090  133.3587 H   0  0  0  0  0  0  0  0  0  0  0  0
  147.2030  151.7752  133.6378 H   0  0  0  0  0  0  0  0  0  0  0  0
  146.4702  152.7474  132.3170 H   0  0  0  0  0  0  0  0  0  0  0  0
  148.2362  152.4192  132.3170 H   0  0  0  0  0  0  0  0  0  0  0  0
  145.0406  154.1742  135.7063 H   0  0  0  0  0  0  0  0  0  0  0  0
  139.1356  152.0448  133.1388 H   0  0  0  0  0  0  0  0  0  0  0  0
  139.9729  151.8757  131.5467 H   0  0  0  0  0  0  0  0  0  0  0  0
  141.4619  150.1141  132.8623 H   0  0  0  0  0  0  0  0  0  0  0  0
  140.0326  150.0575  133.9659 H   0  0  0  0  0  0  0  0  0  0  0  0
  141.5010  148.4507  131.5065 H   0  0  0  0  0  0  0  0  0  0  0  0
  140.4451  147.5447  132.6622 H   0  0  0  0  0  0  0  0  0  0  0  0
  140.5197  147.4694  129.7023 H   0  0  0  0  0  0  0  0  0  0  0  0
  139.8354  146.2893  130.8871 H   0  0  0  0  0  0  0  0  0  0  0  0
  139.1163  149.1064  128.8008 H   0  0  0  0  0  0  0  0  0  0  0  0
  137.5825  149.4777  129.7036 H   0  0  0  0  0  0  0  0  0  0  0  0
  140.3304  150.3643  130.2479 H   0  0  0  0  0  0  0  0  0  0  0  0
  138.7669  150.9537  130.9196 H   0  0  0  0  0  0  0  0  0  0  0  0
  142.9510  155.3473  133.5608 H   0  0  0  0  0  0  0  0  0  0  0  0
  143.2496  158.1049  134.9037 H   0  0  0  0  0  0  0  0  0  0  0  0
  143.2952  160.2856  133.2474 H   0  0  0  0  0  0  0  0  0  0  0  0
  144.2159  160.3335  134.7595 H   0  0  0  0  0  0  0  0  0  0  0  0
  145.1774  160.0285  131.9253 H   0  0  0  0  0  0  0  0  0  0  0  0
  146.0320  160.7229  133.3191 H   0  0  0  0  0  0  0  0  0  0  0  0
  146.3062  158.0657  132.2229 H   0  0  0  0  0  0  0  0  0  0  0  0
  147.1006  158.7011  133.6812 H   0  0  0  0  0  0  0  0  0  0  0  0
  145.1773  156.6574  133.6488 H   0  0  0  0  0  0  0  0  0  0  0  0
  145.5884  157.6106  135.0854 H   0  0  0  0  0  0  0  0  0  0  0  0
  1  2  1  0
  2  3  1  0
  3  4  2  0
  4  5  1  0
  5  6  2  0
  6  7  1  0
  7  8  1  0
  8  9  2  3
  9 10  1  0
  9 11  1  0
 11 12  2  0
 12 13  1  0
 13 14  2  0
 14 15  1  0
 15 16  2  0
 16 17  1  0
 17 18  1  0
 17 19  2  0
 16 20  1  0
 20 21  1  0
 21 22  2  0
 21 23  1  0
 23 24  1  0
 24 25  1  0
 24 26  1  0
 24 27  1  0
 20 28  1  0
 28 29  2  0
  8 30  1  0
 30 31  2  0
 30 32  1  0
 32 33  2  0
 32 34  1  0
 34 35  1  0
 35 36  1  0
 36 37  1  0
 37 38  1  0
 38 39  1  0
 39 40  1  0
 40 41  1  0
 41 42  1  0
  6 43  1  0
 43 44  2  0
 44 45  1  0
 45 46  1  0
 46 47  1  0
 47 48  1  0
 48 49  1  0
 49 50  1  0
 44  3  1  0
 50 46  1  0
 34  7  1  0
 42 37  1  0
 29 11  1  0
 28 14  1  0
  1 51  1  0
  1 52  1  0
  1 53  1  0
  4 54  1  0
  5 55  1  0
  7 56  1  1
 10 57  1  0
 12 58  1  0
 13 59  1  0
 15 60  1  0
 18 61  1  0
 25 62  1  0
 25 63  1  0
 25 64  1  0
 26 65  1  0
 26 66  1  0
 26 67  1  0
 27 68  1  0
 27 69  1  0
 27 70  1  0
 29 71  1  0
 35 72  1  0
 35 73  1  0
 36 74  1  0
 36 75  1  0
 38 76  1  0
 38 77  1  0
 39 78  1  0
 39 79  1  0
 41 80  1  0
 41 81  1  0
 42 82  1  0
 42 83  1  0
 43 84  1  0
 46 85  1  0
 47 86  1  0
 47 87  1  0
 48 88  1  0
 48 89  1  0
 49 90  1  0
 49 91  1  0
 50 92  1  0
 50 93  1  0
M  CHG  1  18  -1
M  END
>  <UniqueID>  (29) 
29

>  <SMILES>  (29) 
COc1ccc([C@@H]2C(=C(O)c3ccc4cc(C([NH-])=O)n(C(=O)OC(C)(C)C)c4c3)C(=O)C(=O)N2CCN2CCOCC2)cc1OC1CCCC1

>  <Energy>  (29) 
176.01644962357048

>  <Genealogy>  (29) 
COc1ccc([C@@H]2C(=C(O)c3ccc4cc(C([NH-])=O)n(C(=O)OC(C)(C)C)c4c3)C(=O)C(=O)N2CCN2CCOCC2)cc1OC1CCCC1 (protonated)
COc1ccc([C@@H]2C(=C(O)c3ccc4cc(C([NH-])=O)n(C(=O)OC(C)(C)C)c4c3)C(=O)C(=O)N2CCN2CCOCC2)cc1OC1CCCC1 (3D coordinates assigned)
COc1ccc([C@@H]2C(=C(O)c3ccc4cc(C([NH-])=O)n(C(=O)OC(C)(C)C)c4c3)C(=O)C(=O)N2CCN2CCOCC2)cc1OC1CCCC1 (nonaromatic ring conformer: 176.01644962357048 kcal/mol)

>  <smiles>  (29) 
COc1ccc([C@@H]2C(=C(O)c3ccc4cc(C(N)=O)n(C(=O)OC(C)(C)C)c4c3)C(=O)C(=O)N2CCN2CCOCC2)cc1OC1CCCC1

>  <score_type>  (29) 
oracle

>  <origin>  (29) 
adg

>  <m_score__min__energy>  (29) 
-12.210000000000001

>  <m_primary>  (29) 
energy

$$$$
29:0
     RDKit          3D

 69 73  0  0  0  0  0  0  0  0999 V2000
  144.9070  155.5640  134.7720 C   0  0  0  0  0  0  0  0  0  0  0  0
  144.6030  154.0750  134.9110 C   0  0  0  0  0  0  0  0  0  0  0  0
  143.8450  153.7880  136.2140 C   0  0  0  0  0  0  0  0  0  0  0  0
  142.5490  153.1730  135.9470 N   0  0  0  0  0  0  0  0  0  0  0  0
  141.7220  152.5590  136.9420 C   0  0  0  0  0  0  0  0  0  0  0  0
  140.9930  151.5750  136.6370 O   0  0  0  0  0  0  0  0  0  0  0  0
  141.6770  153.1030  138.2720 N   0  0  0  0  0  0  0  0  0  0  0  0
  141.7960  152.4210  139.4480 C   0  0  0  0  0  0  0  0  0  0  0  0
  141.7000  150.9570  139.6120 C   0  0  0  0  0  0  0  0  0  0  0  0
  142.7640  150.2190  140.2140 N   0  0  0  0  0  0  0  0  0  0  0  0
  140.7010  150.3420  139.1520 O   0  0  0  0  0  0  0  0  0  0  0  0
  141.8840  153.3050  140.5210 C   0  0  0  0  0  0  0  0  0  0  0  0
  141.7870  154.5600  139.9670 C   0  0  0  0  0  0  0  0  0  0  0  0
  141.7950  155.8080  140.5790 C   0  0  0  0  0  0  0  0  0  0  0  0
  141.6520  156.9430  139.7640 C   0  0  0  0  0  0  0  0  0  0  0  0
  141.5180  156.8150  138.3570 C   0  0  0  0  0  0  0  0  0  0  0  0
  141.2720  158.0320  137.4850 C   0  0  0  0  0  0  0  0  0  0  0  0
  142.1340  157.9570  136.2090 C   0  0  0  0  0  0  0  0  0  0  0  0
  141.6800  159.0150  135.1970 C   0  0  0  0  0  0  0  0  0  0  0  0
  140.2540  158.8790  134.8020 N   0  0  0  0  0  0  0  0  0  0  0  0
  140.1160  158.3130  133.1540 S   0  0  0  0  0  0  0  0  0  0  0  0
  138.7300  158.5800  132.6380 O   0  0  0  0  0  0  0  0  0  0  0  0
  141.1040  159.0330  132.2810 O   0  0  0  0  0  0  0  0  0  0  0  0
  140.4600  156.5870  133.0910 C   0  0  0  0  0  0  0  0  0  0  0  0
  141.7780  156.1190  133.1270 C   0  0  0  0  0  0  0  0  0  0  0  0
  142.0420  154.7480  133.0610 C   0  0  0  0  0  0  0  0  0  0  0  0
  140.9860  153.8210  132.9570 C   0  0  0  0  0  0  0  0  0  0  0  0
  141.2640  152.3630  132.8850 C   0  0  0  0  0  0  0  0  0  0  0  0
  140.2250  151.4460  132.6320 C   0  0  0  0  0  0  0  0  0  0  0  0
  140.4880  150.0750  132.5720 C   0  0  0  0  0  0  0  0  0  0  0  0
  141.7870  149.6020  132.7660 C   0  0  0  0  0  0  0  0  0  0  0  0
  142.8280  150.4990  133.0140 C   0  0  0  0  0  0  0  0  0  0  0  0
  142.5730  151.8720  133.0720 C   0  0  0  0  0  0  0  0  0  0  0  0
  139.6640  154.3010  132.9220 C   0  0  0  0  0  0  0  0  0  0  0  0
  139.4050  155.6740  132.9870 C   0  0  0  0  0  0  0  0  0  0  0  0
  139.4420  158.0150  135.6880 C   0  0  0  0  0  0  0  0  0  0  0  0
  139.7700  158.2530  137.1680 C   0  0  0  0  0  0  0  0  0  0  0  0
  141.5350  155.5270  137.7730 C   0  0  0  0  0  0  0  0  0  0  0  0
  141.6580  154.4120  138.6110 C   0  0  0  0  0  0  0  0  0  0  0  0
  144.9989  156.0143  135.7714 H   0  0  0  0  0  0  0  0  0  0  0  0
  145.8506  155.6958  134.2222 H   0  0  0  0  0  0  0  0  0  0  0  0
  144.0906  156.0551  134.2222 H   0  0  0  0  0  0  0  0  0  0  0  0
  143.9876  153.7523  134.0583 H   0  0  0  0  0  0  0  0  0  0  0  0
  145.5544  153.5233  134.9301 H   0  0  0  0  0  0  0  0  0  0  0  0
  144.4445  153.1060  136.8349 H   0  0  0  0  0  0  0  0  0  0  0  0
  143.6767  154.7416  136.7359 H   0  0  0  0  0  0  0  0  0  0  0  0
  142.8170  149.1810  140.1150 H   0  0  0  0  0  0  0  0  0  0  0  0
  142.0053  153.0529  141.5848 H   0  0  0  0  0  0  0  0  0  0  0  0
  141.9099  155.9039  141.6688 H   0  0  0  0  0  0  0  0  0  0  0  0
  141.6438  157.9431  140.2219 H   0  0  0  0  0  0  0  0  0  0  0  0
  141.5815  158.9188  138.0576 H   0  0  0  0  0  0  0  0  0  0  0  0
  143.1873  158.1346  136.4717 H   0  0  0  0  0  0  0  0  0  0  0  0
  142.0208  156.9597  135.7589 H   0  0  0  0  0  0  0  0  0  0  0  0
  141.8249  160.0098  135.6436 H   0  0  0  0  0  0  0  0  0  0  0  0
  142.2838  158.8758  134.2881 H   0  0  0  0  0  0  0  0  0  0  0  0
  142.6105  156.8335  133.2076 H   0  0  0  0  0  0  0  0  0  0  0  0
  143.0818  154.3901  133.0905 H   0  0  0  0  0  0  0  0  0  0  0  0
  139.1988  151.8120  132.4805 H   0  0  0  0  0  0  0  0  0  0  0  0
  139.6701  149.3672  132.3716 H   0  0  0  0  0  0  0  0  0  0  0  0
  141.9907  148.5219  132.7235 H   0  0  0  0  0  0  0  0  0  0  0  0
  143.8512  150.1241  133.1641 H   0  0  0  0  0  0  0  0  0  0  0  0
  143.3979  152.5737  133.2646 H   0  0  0  0  0  0  0  0  0  0  0  0
  138.8275  153.5910  132.8429 H   0  0  0  0  0  0  0  0  0  0  0  0
  138.3673  156.0375  132.9562 H   0  0  0  0  0  0  0  0  0  0  0  0
  138.3769  158.2322  135.5194 H   0  0  0  0  0  0  0  0  0  0  0  0
  139.6726  156.9662  135.4498 H   0  0  0  0  0  0  0  0  0  0  0  0
  139.5033  159.2884  137.4266 H   0  0  0  0  0  0  0  0  0  0  0  0
  139.1926  157.5275  137.7598 H   0  0  0  0  0  0  0  0  0  0  0  0
  141.4533  155.4037  136.6830 H   0  0  0  0  0  0  0  0  0  0  0  0
  1  2  1  0
  2  3  1  0
  3  4  1  0
  4  5  1  0
  5  6  2  0
  5  7  1  0
  7  8  1  0
  8  9  1  0
  9 10  1  0
  9 11  2  0
  8 12  2  0
 12 13  1  0
 13 14  2  0
 14 15  1  0
 15 16  2  0
 16 17  1  0
 17 18  1  0
 18 19  1  0
 19 20  1  0
 20 21  1  0
 21 22  2  0
 21 23  2  0
 21 24  1  0
 24 25  2  0
 25 26  1  0
 26 27  2  0
 27 28  1  0
 28 29  2  0
 29 30  1  0
 30 31  2  0
 31 32  1  0
 32 33  2  0
 27 34  1  0
 34 35  2  0
 20 36  1  0
 36 37  1  0
 16 38  1  0
 38 39  2  0
 39  7  1  0
 39 13  1  0
 37 17  1  0
 35 24  1  0
 33 28  1  0
  1 40  1  0
  1 41  1  0
  1 42  1  0
  2 43  1  0
  2 44  1  0
  3 45  1  0
  3 46  1  0
 10 47  1  0
 12 48  1  0
 14 49  1  0
 15 50  1  0
 17 51  1  0
 18 52  1  0
 18 53  1  0
 19 54  1  0
 19 55  1  0
 25 56  1  0
 26 57  1  0
 29 58  1  0
 30 59  1  0
 31 60  1  0
 32 61  1  0
 33 62  1  0
 34 63  1  0
 35 64  1  0
 36 65  1  0
 36 66  1  0
 37 67  1  0
 37 68  1  0
 38 69  1  0
M  CHG  2   4  -1  10  -1
M  END
>  <UniqueID>  (30) 
30

>  <SMILES>  (30) 
CCC[N-]C(=O)n1c(C([NH-])=O)cc2ccc(C3CCN(S(=O)(=O)c4ccc(-c5ccccc5)cc4)CC3)cc21

>  <Energy>  (30) 
121.01106125731215

>  <Genealogy>  (30) 
CCC[N-]C(=O)n1c(C([NH-])=O)cc2ccc(C3CCN(S(=O)(=O)c4ccc(-c5ccccc5)cc4)CC3)cc21 (protonated)
CCC[N-]C(=O)n1c(C([NH-])=O)cc2ccc(C3CCN(S(=O)(=O)c4ccc(-c5ccccc5)cc4)CC3)cc21 (3D coordinates assigned)
CCC[N-]C(=O)n1c(C([NH-])=O)cc2ccc(C3CCN(S(=O)(=O)c4ccc(-c5ccccc5)cc4)CC3)cc21 (nonaromatic ring conformer: 121.01106125731215 kcal/mol)

>  <smiles>  (30) 
CCCNC(=O)n1c(C(N)=O)cc2ccc(C3CCN(S(=O)(=O)c4ccc(-c5ccccc5)cc4)CC3)cc21

>  <score_type>  (30) 
oracle

>  <origin>  (30) 
adg

>  <m_score__min__energy>  (30) 
-11.85

>  <m_primary>  (30) 
energy

$$$$
30:0
     RDKit          3D

 52 54  0  0  0  0  0  0  0  0999 V2000
  138.2890  160.2490  131.0550 C   0  0  0  0  0  0  0  0  0  0  0  0
  139.2020  159.0590  131.3050 C   0  0  0  0  0  0  0  0  0  0  0  0
  140.1190  159.3740  132.3350 O   0  0  0  0  0  0  0  0  0  0  0  0
  139.9140  158.5340  133.4480 C   0  0  0  0  0  0  0  0  0  0  0  0
  140.8800  158.6980  134.6460 C   0  0  0  0  0  0  0  0  0  0  0  0
  142.2660  159.1190  134.2300 C   0  0  0  0  0  0  0  0  0  0  0  0
  142.5820  160.4930  134.0890 C   0  0  0  0  0  0  0  0  0  0  0  0
  143.8800  160.8960  133.7330 C   0  0  0  0  0  0  0  0  0  0  0  0
  144.8420  159.9070  133.5460 C   0  0  0  0  0  0  0  0  0  0  0  0
  146.1680  160.0180  133.1920 C   0  0  0  0  0  0  0  0  0  0  0  0
  146.6500  158.7120  133.1700 C   0  0  0  0  0  0  0  0  0  0  0  0
  148.0640  158.3730  132.9120 C   0  0  0  0  0  0  0  0  0  0  0  0
  148.4280  157.4940  131.8480 N   0  0  0  0  0  0  0  0  0  0  0  0
  148.9600  158.8290  133.6700 O   0  0  0  0  0  0  0  0  0  0  0  0
  145.6620  157.8270  133.4800 N   0  0  0  0  0  0  0  0  0  0  0  0
  145.7440  156.3930  133.5030 C   0  0  0  0  0  0  0  0  0  0  0  0
  144.8580  155.7250  134.1020 O   0  0  0  0  0  0  0  0  0  0  0  0
  146.8110  155.7520  132.8520 O   0  0  0  0  0  0  0  0  0  0  0  0
  147.4940  154.5670  133.2910 C   0  0  0  0  0  0  0  0  0  0  0  0
  147.6940  154.6980  134.8100 C   0  0  0  0  0  0  0  0  0  0  0  0
  146.6430  153.3130  133.0100 C   0  0  0  0  0  0  0  0  0  0  0  0
  148.8740  154.4560  132.6130 C   0  0  0  0  0  0  0  0  0  0  0  0
  144.5600  158.5740  133.7080 C   0  0  0  0  0  0  0  0  0  0  0  0
  143.2660  158.1430  134.0270 C   0  0  0  0  0  0  0  0  0  0  0  0
  138.5540  157.8350  133.5360 C   0  0  0  0  0  0  0  0  0  0  0  0
  139.7560  157.0780  133.0060 C   0  0  0  0  0  0  0  0  0  0  0  0
  137.9651  160.6712  132.0177 H   0  0  0  0  0  0  0  0  0  0  0  0
  138.8333  161.0150  130.4832 H   0  0  0  0  0  0  0  0  0  0  0  0
  137.4082  159.9216  130.4832 H   0  0  0  0  0  0  0  0  0  0  0  0
  138.5977  158.1904  131.6056 H   0  0  0  0  0  0  0  0  0  0  0  0
  139.7541  158.8216  130.3837 H   0  0  0  0  0  0  0  0  0  0  0  0
  140.4707  159.4607  135.3248 H   0  0  0  0  0  0  0  0  0  0  0  0
  140.9667  157.7170  135.1361 H   0  0  0  0  0  0  0  0  0  0  0  0
  141.8037  161.2513  134.2599 H   0  0  0  0  0  0  0  0  0  0  0  0
  144.1285  161.9600  133.6059 H   0  0  0  0  0  0  0  0  0  0  0  0
  146.7264  160.9402  132.9736 H   0  0  0  0  0  0  0  0  0  0  0  0
  147.7050  156.9700  131.3040 H   0  0  0  0  0  0  0  0  0  0  0  0
  149.4360  157.3040  131.6480 H   0  0  0  0  0  0  0  0  0  0  0  0
  146.8847  154.1679  135.3334 H   0  0  0  0  0  0  0  0  0  0  0  0
  148.6623  154.2586  135.0916 H   0  0  0  0  0  0  0  0  0  0  0  0
  147.6781  155.7612  135.0916 H   0  0  0  0  0  0  0  0  0  0  0  0
  146.3344  152.8582  133.9629 H   0  0  0  0  0  0  0  0  0  0  0  0
  145.7505  153.5973  132.4333 H   0  0  0  0  0  0  0  0  0  0  0  0
  147.2368  152.5886  132.4333 H   0  0  0  0  0  0  0  0  0  0  0  0
  149.6569  154.3930  133.3831 H   0  0  0  0  0  0  0  0  0  0  0  0
  148.9029  153.5526  131.9860 H   0  0  0  0  0  0  0  0  0  0  0  0
  149.0469  155.3431  131.9860 H   0  0  0  0  0  0  0  0  0  0  0  0
  143.0347  157.0714  134.1171 H   0  0  0  0  0  0  0  0  0  0  0  0
  138.1316  157.5768  134.5183 H   0  0  0  0  0  0  0  0  0  0  0  0
  137.5441  158.0513  133.1575 H   0  0  0  0  0  0  0  0  0  0  0  0
  140.2040  156.2710  133.6043 H   0  0  0  0  0  0  0  0  0  0  0  0
  139.9759  156.5189  132.0845 H   0  0  0  0  0  0  0  0  0  0  0  0
  1  2  1  0
  2  3  1  0
  3  4  1  0
  4  5  1  0
  5  6  1  0
  6  7  2  0
  7  8  1  0
  8  9  2  0
  9 10  1  0
 10 11  2  0
 11 12  1  0
 12 13  1  0
 12 14  2  0
 11 15  1  0
 15 16  1  0
 16 17  2  0
 16 18  1  0
 18 19  1  0
 19 20  1  0
 19 21  1  0
 19 22  1  0
 15 23  1  0
 23 24  2  0
  4 25  1  0
 25 26  1  0
 26  4  1  0
 24  6  1  0
 23  9  1  0
  1 27  1  0
  1 28  1  0
  1 29  1  0
  2 30  1  0
  2 31  1  0
  5 32  1  0
  5 33  1  0
  7 34  1  0
  8 35  1  0
 10 36  1  0
 13 37  1  0
 13 38  1  0
 20 39  1  0
 20 40  1  0
 20 41  1  0
 21 42  1  0
 21 43  1  0
 21 44  1  0
 22 45  1  0
 22 46  1  0
 22 47  1  0
 24 48  1  0
 25 49  1  0
 25 50  1  0
 26 51  1  0
 26 52  1  0
M  END
>  <UniqueID>  (31) 
31

>  <SMILES>  (31) 
CCOC1(Cc2ccc3cc(C(N)=O)n(C(=O)OC(C)(C)C)c3c2)CC1

>  <Energy>  (31) 
354.4121729774587

>  <Genealogy>  (31) 
CCOC1(Cc2ccc3cc(C(N)=O)n(C(=O)OC(C)(C)C)c3c2)CC1 (3D coordinates assigned)
CCOC1(Cc2ccc3cc(C(N)=O)n(C(=O)OC(C)(C)C)c3c2)CC1 (nonaromatic ring conformer: 354.4121729774587 kcal/mol)

>  <smiles>  (31) 
CCOC1(Cc2ccc3cc(C(N)=O)n(C(=O)OC(C)(C)C)c3c2)CC1

>  <score_type>  (31) 
oracle

>  <origin>  (31) 
adg

>  <m_score__min__energy>  (31) 
-8.1799999999999997

>  <m_primary>  (31) 
energy

$$$$
31:0
     RDKit          3D

 46 50  0  0  0  0  0  0  0  0999 V2000
  143.0130  159.7100  134.8780 N   0  0  0  0  0  0  0  0  0  0  0  0
  143.7800  159.1280  133.8260 C   0  0  0  0  0  0  0  0  0  0  0  0
  143.2010  158.3830  132.9930 O   0  0  0  0  0  0  0  0  0  0  0  0
  145.2030  159.3520  133.7450 N   0  0  0  0  0  0  0  0  0  0  0  0
  145.8540  160.5480  133.8090 C   0  0  0  0  0  0  0  0  0  0  0  0
  145.2380  161.8530  134.1010 C   0  0  0  0  0  0  0  0  0  0  0  0
  145.9840  162.8860  134.7430 N   0  0  0  0  0  0  0  0  0  0  0  0
  144.0610  162.0820  133.7160 O   0  0  0  0  0  0  0  0  0  0  0  0
  147.2030  160.4000  133.5090 C   0  0  0  0  0  0  0  0  0  0  0  0
  147.3770  159.0550  133.2840 C   0  0  0  0  0  0  0  0  0  0  0  0
  148.5330  158.3480  132.9690 C   0  0  0  0  0  0  0  0  0  0  0  0
  148.4310  156.9580  132.8130 C   0  0  0  0  0  0  0  0  0  0  0  0
  147.1870  156.2990  132.9760 C   0  0  0  0  0  0  0  0  0  0  0  0
  147.0960  154.8250  132.8360 C   0  0  0  0  0  0  0  0  0  0  0  0
  148.2720  154.0680  132.7090 C   0  0  0  0  0  0  0  0  0  0  0  0
  148.2090  152.6820  132.5790 C   0  0  0  0  0  0  0  0  0  0  0  0
  149.3510  151.9620  132.4570 F   0  0  0  0  0  0  0  0  0  0  0  0
  146.9740  152.0340  132.5650 C   0  0  0  0  0  0  0  0  0  0  0  0
  145.7800  152.7660  132.6800 C   0  0  0  0  0  0  0  0  0  0  0  0
  144.4950  152.0290  132.6530 C   0  0  0  0  0  0  0  0  0  0  0  0
  143.2380  152.5240  133.0130 C   0  0  0  0  0  0  0  0  0  0  0  0
  142.3790  151.4730  132.7910 C   0  0  0  0  0  0  0  0  0  0  0  0
  141.0010  151.3690  132.9590 C   0  0  0  0  0  0  0  0  0  0  0  0
  140.3910  150.1430  132.6330 C   0  0  0  0  0  0  0  0  0  0  0  0
  141.1670  149.0660  132.1480 C   0  0  0  0  0  0  0  0  0  0  0  0
  140.5670  147.8900  131.8370 F   0  0  0  0  0  0  0  0  0  0  0  0
  142.5580  149.2060  131.9870 C   0  0  0  0  0  0  0  0  0  0  0  0
  143.1310  150.4320  132.3190 C   0  0  0  0  0  0  0  0  0  0  0  0
  144.3910  150.7760  132.2380 O   0  0  0  0  0  0  0  0  0  0  0  0
  145.8470  154.1680  132.8420 C   0  0  0  0  0  0  0  0  0  0  0  0
  144.6860  154.9050  133.0590 O   0  0  0  0  0  0  0  0  0  0  0  0
  146.0350  157.0520  133.3030 C   0  0  0  0  0  0  0  0  0  0  0  0
  146.1580  158.4420  133.4340 C   0  0  0  0  0  0  0  0  0  0  0  0
  142.9740  160.7450  135.0040 H   0  0  0  0  0  0  0  0  0  0  0  0
  147.0010  162.7580  134.9500 H   0  0  0  0  0  0  0  0  0  0  0  0
  145.5360  163.8030  134.9590 H   0  0  0  0  0  0  0  0  0  0  0  0
  147.9674  161.1896  133.4617 H   0  0  0  0  0  0  0  0  0  0  0  0
  149.4971  158.8632  132.8461 H   0  0  0  0  0  0  0  0  0  0  0  0
  149.3273  156.3722  132.5611 H   0  0  0  0  0  0  0  0  0  0  0  0
  149.2495  154.5725  132.7122 H   0  0  0  0  0  0  0  0  0  0  0  0
  146.9343  150.9395  132.4630 H   0  0  0  0  0  0  0  0  0  0  0  0
  142.9915  153.5279  133.3891 H   0  0  0  0  0  0  0  0  0  0  0  0
  140.4086  152.2166  133.3340 H   0  0  0  0  0  0  0  0  0  0  0  0
  139.3046  150.0226  132.7564 H   0  0  0  0  0  0  0  0  0  0  0  0
  143.1728  148.3748  131.6114 H   0  0  0  0  0  0  0  0  0  0  0  0
  145.0637  156.5574  133.4512 H   0  0  0  0  0  0  0  0  0  0  0  0
  1  2  1  0
  2  3  2  0
  2  4  1  0
  4  5  1  0
  5  6  1  0
  6  7  1  0
  6  8  2  0
  5  9  2  0
  9 10  1  0
 10 11  2  0
 11 12  1  0
 12 13  2  0
 13 14  1  0
 14 15  2  0
 15 16  1  0
 16 17  1  0
 16 18  2  0
 18 19  1  0
 19 20  1  0
 20 21  2  0
 21 22  1  0
 22 23  2  0
 23 24  1  0
 24 25  2  0
 25 26  1  0
 25 27  1  0
 27 28  2  0
 28 29  1  0
 19 30  2  0
 30 31  1  0
 13 32  1  0
 32 33  2  0
 33  4  1  0
 33 10  1  0
 30 14  1  0
 29 20  1  0
 28 22  1  0
  1 34  1  0
  7 35  1  0
  7 36  1  0
  9 37  1  0
 11 38  1  0
 12 39  1  0
 15 40  1  0
 18 41  1  0
 21 42  1  0
 23 43  1  0
 24 44  1  0
 27 45  1  0
 32 46  1  0
M  CHG  2   1  -1  31  -1
M  END
>  <UniqueID>  (32) 
32

>  <SMILES>  (32) 
[NH-]C(=O)n1c(C(N)=O)cc2ccc(-c3cc(F)cc(-c4cc5ccc(F)cc5o4)c3[O-])cc21

>  <Energy>  (32) 
139.97007112153932

>  <Genealogy>  (32) 
[NH-]C(=O)n1c(C(N)=O)cc2ccc(-c3cc(F)cc(-c4cc5ccc(F)cc5o4)c3[O-])cc21 (protonated)
[NH-]C(=O)n1c(C(N)=O)cc2ccc(-c3cc(F)cc(-c4cc5ccc(F)cc5o4)c3[O-])cc21 (3D coordinates assigned)
[NH-]C(=O)n1c(C(N)=O)cc2ccc(-c3cc(F)cc(-c4cc5ccc(F)cc5o4)c3[O-])cc21 (optimized conformer: 139.97007112153932 kcal/mol)

>  <smiles>  (32) 
NC(=O)c1cc2ccc(-c3cc(F)cc(-c4cc5ccc(F)cc5o4)c3O)cc2n1C(N)=O

>  <score_type>  (32) 
oracle

>  <origin>  (32) 
adg

>  <m_score__min__energy>  (32) 
-10.109999999999999

>  <m_primary>  (32) 
energy

$$$$
32:0
     RDKit          3D

 38 39  0  0  0  0  0  0  0  0999 V2000
  148.0760  153.8870  133.8020 C   0  0  0  0  0  0  0  0  0  0  0  0
  146.8290  154.7030  134.1950 C   0  0  0  0  0  0  0  0  0  0  0  0
  145.8010  154.6180  133.0570 C   0  0  0  0  0  0  0  0  0  0  0  0
  146.1950  154.1410  135.4820 C   0  0  0  0  0  0  0  0  0  0  0  0
  147.1640  156.0890  134.3590 O   0  0  0  0  0  0  0  0  0  0  0  0
  147.3600  157.0250  133.3330 C   0  0  0  0  0  0  0  0  0  0  0  0
  148.1480  156.7840  132.3800 O   0  0  0  0  0  0  0  0  0  0  0  0
  146.6410  158.2690  133.3660 N   0  0  0  0  0  0  0  0  0  0  0  0
  147.1400  159.5170  133.1340 C   0  0  0  0  0  0  0  0  0  0  0  0
  148.5010  159.8190  132.6380 C   0  0  0  0  0  0  0  0  0  0  0  0
  149.6050  158.9810  132.9810 N   0  0  0  0  0  0  0  0  0  0  0  0
  148.7040  160.8430  131.9320 O   0  0  0  0  0  0  0  0  0  0  0  0
  146.1560  160.4810  133.3400 C   0  0  0  0  0  0  0  0  0  0  0  0
  145.0290  159.7800  133.7070 C   0  0  0  0  0  0  0  0  0  0  0  0
  143.7570  160.2410  134.0290 C   0  0  0  0  0  0  0  0  0  0  0  0
  142.7860  159.2920  134.3930 C   0  0  0  0  0  0  0  0  0  0  0  0
  143.1080  157.9120  134.4530 C   0  0  0  0  0  0  0  0  0  0  0  0
  142.0470  156.9000  134.8100 C   0  0  0  0  0  0  0  0  0  0  0  0
  142.6220  155.6940  135.1690 F   0  0  0  0  0  0  0  0  0  0  0  0
  141.3030  157.3790  135.8720 F   0  0  0  0  0  0  0  0  0  0  0  0
  141.2050  156.6740  133.7350 F   0  0  0  0  0  0  0  0  0  0  0  0
  144.4070  157.4820  134.0940 C   0  0  0  0  0  0  0  0  0  0  0  0
  145.3480  158.4480  133.7170 C   0  0  0  0  0  0  0  0  0  0  0  0
  148.5940  153.5481  134.7113 H   0  0  0  0  0  0  0  0  0  0  0  0
  147.7702  153.0137  133.2071 H   0  0  0  0  0  0  0  0  0  0  0  0
  148.7538  154.5168  133.2071 H   0  0  0  0  0  0  0  0  0  0  0  0
  144.7898  154.5344  133.4818 H   0  0  0  0  0  0  0  0  0  0  0  0
  145.8645  155.5245  132.4371 H   0  0  0  0  0  0  0  0  0  0  0  0
  146.0125  153.7343  132.4371 H   0  0  0  0  0  0  0  0  0  0  0  0
  146.6924  154.5819  136.3585 H   0  0  0  0  0  0  0  0  0  0  0  0
  145.1242  154.3921  135.5031 H   0  0  0  0  0  0  0  0  0  0  0  0
  146.3158  153.0479  135.5031 H   0  0  0  0  0  0  0  0  0  0  0  0
  149.4680  158.0970  133.5190 H   0  0  0  0  0  0  0  0  0  0  0  0
  150.5670  159.2240  132.6570 H   0  0  0  0  0  0  0  0  0  0  0  0
  146.2576  161.5710  133.2324 H   0  0  0  0  0  0  0  0  0  0  0  0
  143.5183  161.3144  133.9998 H   0  0  0  0  0  0  0  0  0  0  0  0
  141.7651  159.6233  134.6340 H   0  0  0  0  0  0  0  0  0  0  0  0
  144.6715  156.4144  134.1106 H   0  0  0  0  0  0  0  0  0  0  0  0
  1  2  1  0
  2  3  1  0
  2  4  1  0
  2  5  1  0
  5  6  1  0
  6  7  2  0
  6  8  1  0
  8  9  1  0
  9 10  1  0
 10 11  1  0
 10 12  2  0
  9 13  2  0
 13 14  1  0
 14 15  2  0
 15 16  1  0
 16 17  2  0
 17 18  1  0
 18 19  1  0
 18 20  1  0
 18 21  1  0
 17 22  1  0
 22 23  2  0
 23  8  1  0
 23 14  1  0
  1 24  1  0
  1 25  1  0
  1 26  1  0
  3 27  1  0
  3 28  1  0
  3 29  1  0
  4 30  1  0
  4 31  1  0
  4 32  1  0
 11 33  1  0
 11 34  1  0
 13 35  1  0
 15 36  1  0
 16 37  1  0
 22 38  1  0
M  END
>  <UniqueID>  (33) 
33

>  <SMILES>  (33) 
CC(C)(C)OC(=O)n1c(C(N)=O)cc2ccc(C(F)(F)F)cc21

>  <Energy>  (33) 
72.23669728025524

>  <Genealogy>  (33) 
CC(C)(C)OC(=O)n1c(C(N)=O)cc2ccc(C(F)(F)F)cc21 (3D coordinates assigned)
CC(C)(C)OC(=O)n1c(C(N)=O)cc2ccc(C(F)(F)F)cc21 (optimized conformer: 72.23669728025524 kcal/mol)

>  <smiles>  (33) 
CC(C)(C)OC(=O)n1c(C(N)=O)cc2ccc(C(F)(F)F)cc21

>  <score_type>  (33) 
oracle

>  <origin>  (33) 
adg

>  <m_score__min__energy>  (33) 
-6.54

>  <m_primary>  (33) 
energy

$$$$
33:0
     RDKit          3D

 25 26  0  0  0  0  0  0  0  0999 V2000
  141.4970  159.9360  132.8560 N   0  0  0  0  0  0  0  0  0  0  0  0
  142.4720  159.9480  133.8940 C   0  0  0  0  0  0  0  0  0  0  0  0
  142.0990  160.1150  135.0870 O   0  0  0  0  0  0  0  0  0  0  0  0
  143.9030  159.7240  133.6010 C   0  0  0  0  0  0  0  0  0  0  0  0
  144.8730  160.7210  133.6970 C   0  0  0  0  0  0  0  0  0  0  0  0
  146.0660  160.0990  133.4100 C   0  0  0  0  0  0  0  0  0  0  0  0
  147.3550  160.6190  133.3430 C   0  0  0  0  0  0  0  0  0  0  0  0
  148.3990  159.7490  132.9860 C   0  0  0  0  0  0  0  0  0  0  0  0
  148.1340  158.3890  132.6950 C   0  0  0  0  0  0  0  0  0  0  0  0
  149.2030  157.5170  132.3180 N   0  0  0  0  0  0  0  0  0  0  0  0
  146.8150  157.8960  132.7710 C   0  0  0  0  0  0  0  0  0  0  0  0
  145.7990  158.7800  133.1500 C   0  0  0  0  0  0  0  0  0  0  0  0
  144.4750  158.5340  133.2640 N   0  0  0  0  0  0  0  0  0  0  0  0
  143.8170  157.2860  132.9950 C   0  0  0  0  0  0  0  0  0  0  0  0
  142.5910  157.2600  132.2650 N   0  0  0  0  0  0  0  0  0  0  0  0
  144.3200  156.2070  133.4090 O   0  0  0  0  0  0  0  0  0  0  0  0
  141.7560  159.6810  131.8780 H   0  0  0  0  0  0  0  0  0  0  0  0
  144.7173  161.7804  133.9489 H   0  0  0  0  0  0  0  0  0  0  0  0
  147.5507  161.6789  133.5628 H   0  0  0  0  0  0  0  0  0  0  0  0
  149.4304  160.1276  132.9322 H   0  0  0  0  0  0  0  0  0  0  0  0
  149.2550  157.1200  131.3530 H   0  0  0  0  0  0  0  0  0  0  0  0
  149.9510  157.2620  133.0010 H   0  0  0  0  0  0  0  0  0  0  0  0
  146.5909  156.8445  132.5385 H   0  0  0  0  0  0  0  0  0  0  0  0
  142.0970  156.3560  132.0960 H   0  0  0  0  0  0  0  0  0  0  0  0
  142.1950  158.1380  131.8610 H   0  0  0  0  0  0  0  0  0  0  0  0
  1  2  1  0
  2  3  2  0
  2  4  1  0
  4  5  2  0
  5  6  1  0
  6  7  2  0
  7  8  1  0
  8  9  2  0
  9 10  1  0
  9 11  1  0
 11 12  2  0
 12 13  1  0
 13 14  1  0
 14 15  1  0
 14 16  2  0
 13  4  1  0
 12  6  1  0
  1 17  1  0
  5 18  1  0
  7 19  1  0
  8 20  1  0
 10 21  1  0
 10 22  1  0
 11 23  1  0
 15 24  1  0
 15 25  1  0
M  CHG  1   1  -1
M  END
>  <UniqueID>  (34) 
34

>  <SMILES>  (34) 
[NH-]C(=O)c1cc2ccc(N)cc2n1C(N)=O

>  <Energy>  (34) 
63.296047662354084

>  <Genealogy>  (34) 
[NH-]C(=O)c1cc2ccc(N)cc2n1C(N)=O (protonated)
[NH-]C(=O)c1cc2ccc(N)cc2n1C(N)=O (3D coordinates assigned)
[NH-]C(=O)c1cc2ccc(N)cc2n1C(N)=O (optimized conformer: 63.296047662354084 kcal/mol)

>  <smiles>  (34) 
NC(=O)c1cc2ccc(N)cc2n1C(N)=O

>  <score_type>  (34) 
oracle

>  <origin>  (34) 
adg

>  <m_score__min__energy>  (34) 
-6.5

>  <m_primary>  (34) 
energy

$$$$
34:0
     RDKit          3D

 38 40  0  0  0  0  0  0  0  0999 V2000
  147.9160  155.2020  132.5970 C   0  0  0  0  0  0  0  0  0  0  0  0
  147.7010  156.6690  132.8170 C   0  0  0  0  0  0  0  0  0  0  0  0
  148.8120  157.5460  132.8850 C   0  0  0  0  0  0  0  0  0  0  0  0
  148.6280  158.9150  133.1420 C   0  0  0  0  0  0  0  0  0  0  0  0
  147.3270  159.3740  133.3280 C   0  0  0  0  0  0  0  0  0  0  0  0
  146.8680  160.6370  133.6260 C   0  0  0  0  0  0  0  0  0  0  0  0
  145.4830  160.5140  133.7270 C   0  0  0  0  0  0  0  0  0  0  0  0
  144.5780  161.6580  133.9610 C   0  0  0  0  0  0  0  0  0  0  0  0
  143.1790  161.5470  133.7200 N   0  0  0  0  0  0  0  0  0  0  0  0
  145.0550  162.7630  134.3360 O   0  0  0  0  0  0  0  0  0  0  0  0
  145.1020  159.2230  133.5070 N   0  0  0  0  0  0  0  0  0  0  0  0
  143.7840  158.6660  133.6210 C   0  0  0  0  0  0  0  0  0  0  0  0
  143.2200  158.1750  132.6060 O   0  0  0  0  0  0  0  0  0  0  0  0
  143.1440  158.6480  134.8660 O   0  0  0  0  0  0  0  0  0  0  0  0
  141.9190  159.3290  135.1260 C   0  0  0  0  0  0  0  0  0  0  0  0
  140.8730  158.9260  134.1220 C   0  0  0  0  0  0  0  0  0  0  0  0
  140.1560  157.7270  134.2770 C   0  0  0  0  0  0  0  0  0  0  0  0
  139.1670  157.3760  133.3530 C   0  0  0  0  0  0  0  0  0  0  0  0
  138.8840  158.2180  132.2740 C   0  0  0  0  0  0  0  0  0  0  0  0
  139.5900  159.4140  132.1180 C   0  0  0  0  0  0  0  0  0  0  0  0
  140.5790  159.7700  133.0390 C   0  0  0  0  0  0  0  0  0  0  0  0
  146.2410  158.5390  133.2620 C   0  0  0  0  0  0  0  0  0  0  0  0
  146.3970  157.1670  133.0280 C   0  0  0  0  0  0  0  0  0  0  0  0
  147.9907  154.6925  133.5690 H   0  0  0  0  0  0  0  0  0  0  0  0
  147.0689  154.7882  132.0303 H   0  0  0  0  0  0  0  0  0  0  0  0
  148.8462  155.0487  132.0303 H   0  0  0  0  0  0  0  0  0  0  0  0
  149.8278  157.1514  132.7352 H   0  0  0  0  0  0  0  0  0  0  0  0
  149.4851  159.6025  133.1946 H   0  0  0  0  0  0  0  0  0  0  0  0
  147.4672  161.5501  133.7568 H   0  0  0  0  0  0  0  0  0  0  0  0
  142.7240  160.6140  133.6150 H   0  0  0  0  0  0  0  0  0  0  0  0
  141.5691  159.0729  136.1369 H   0  0  0  0  0  0  0  0  0  0  0  0
  142.0894  160.4130  135.0491 H   0  0  0  0  0  0  0  0  0  0  0  0
  140.3734  157.0634  135.1270 H   0  0  0  0  0  0  0  0  0  0  0  0
  138.6105  156.4351  133.4756 H   0  0  0  0  0  0  0  0  0  0  0  0
  138.1060  157.9395  131.5479 H   0  0  0  0  0  0  0  0  0  0  0  0
  139.3668  160.0764  131.2687 H   0  0  0  0  0  0  0  0  0  0  0  0
  141.1290  160.7146  132.9151 H   0  0  0  0  0  0  0  0  0  0  0  0
  145.5263  156.4951  133.0091 H   0  0  0  0  0  0  0  0  0  0  0  0
  1  2  1  0
  2  3  2  0
  3  4  1  0
  4  5  2  0
  5  6  1  0
  6  7  2  0
  7  8  1  0
  8  9  1  0
  8 10  2  0
  7 11  1  0
 11 12  1  0
 12 13  2  0
 12 14  1  0
 14 15  1  0
 15 16  1  0
 16 17  2  0
 17 18  1  0
 18 19  2  0
 19 20  1  0
 20 21  2  0
 11 22  1  0
 22 23  2  0
 23  2  1  0
 22  5  1  0
 21 16  1  0
  1 24  1  0
  1 25  1  0
  1 26  1  0
  3 27  1  0
  4 28  1  0
  6 29  1  0
  9 30  1  0
 15 31  1  0
 15 32  1  0
 17 33  1  0
 18 34  1  0
 19 35  1  0
 20 36  1  0
 21 37  1  0
 23 38  1  0
M  CHG  1   9  -1
M  END
>  <UniqueID>  (35) 
35

>  <SMILES>  (35) 
Cc1ccc2cc(C([NH-])=O)n(C(=O)OCc3ccccc3)c2c1

>  <Energy>  (35) 
77.03146735497981

>  <Genealogy>  (35) 
Cc1ccc2cc(C([NH-])=O)n(C(=O)OCc3ccccc3)c2c1 (protonated)
Cc1ccc2cc(C([NH-])=O)n(C(=O)OCc3ccccc3)c2c1 (3D coordinates assigned)
Cc1ccc2cc(C([NH-])=O)n(C(=O)OCc3ccccc3)c2c1 (optimized conformer: 77.03146735497981 kcal/mol)

>  <smiles>  (35) 
Cc1ccc2cc(C(N)=O)n(C(=O)OCc3ccccc3)c2c1

>  <score_type>  (35) 
oracle

>  <origin>  (35) 
adg

>  <m_score__min__energy>  (35) 
-7.5700000000000003

>  <m_primary>  (35) 
energy

$$$$
35:0
     RDKit          3D

 24 25  0  0  0  0  0  0  0  0999 V2000
  144.5200  156.7860  134.4400 N   0  0  0  0  0  0  0  0  0  0  0  0
  145.9400  156.6300  134.4790 C   0  0  0  0  0  0  0  0  0  0  0  0
  146.4490  155.8170  135.2950 O   0  0  0  0  0  0  0  0  0  0  0  0
  146.8220  157.4530  133.6300 C   0  0  0  0  0  0  0  0  0  0  0  0
  148.0810  157.0370  133.2070 C   0  0  0  0  0  0  0  0  0  0  0  0
  148.5990  158.1020  132.5060 C   0  0  0  0  0  0  0  0  0  0  0  0
  149.8200  158.2300  131.8510 C   0  0  0  0  0  0  0  0  0  0  0  0
  150.0800  159.4330  131.1720 C   0  0  0  0  0  0  0  0  0  0  0  0
  149.1180  160.4710  131.1540 C   0  0  0  0  0  0  0  0  0  0  0  0
  149.3890  161.6840  130.4480 N   0  0  0  0  0  0  0  0  0  0  0  0
  147.8890  160.3050  131.8270 C   0  0  0  0  0  0  0  0  0  0  0  0
  147.6630  159.1050  132.5120 C   0  0  0  0  0  0  0  0  0  0  0  0
  146.5620  158.7200  133.1990 N   0  0  0  0  0  0  0  0  0  0  0  0
  145.3280  159.4470  133.3280 C   0  0  0  0  0  0  0  0  0  0  0  0
  145.2840  160.5190  133.9870 O   0  0  0  0  0  0  0  0  0  0  0  0
  144.1690  158.9760  132.7210 O   0  0  0  0  0  0  0  0  0  0  0  0
  143.9090  156.1710  135.0220 H   0  0  0  0  0  0  0  0  0  0  0  0
  144.0780  157.5610  133.8990 H   0  0  0  0  0  0  0  0  0  0  0  0
  148.5599  156.0644  133.3933 H   0  0  0  0  0  0  0  0  0  0  0  0
  150.5588  157.4151  131.8642 H   0  0  0  0  0  0  0  0  0  0  0  0
  151.0389  159.5688  130.6504 H   0  0  0  0  0  0  0  0  0  0  0  0
  150.3560  162.0800  130.4180 H   0  0  0  0  0  0  0  0  0  0  0  0
  148.6260  162.1960  129.9520 H   0  0  0  0  0  0  0  0  0  0  0  0
  147.1274  161.0986  131.8138 H   0  0  0  0  0  0  0  0  0  0  0  0
  1  2  1  0
  2  3  2  0
  2  4  1  0
  4  5  2  0
  5  6  1  0
  6  7  2  0
  7  8  1  0
  8  9  2  0
  9 10  1  0
  9 11  1  0
 11 12  2  0
 12 13  1  0
 13 14  1  0
 14 15  2  0
 14 16  1  0
 13  4  1  0
 12  6  1  0
  1 17  1  0
  1 18  1  0
  5 19  1  0
  7 20  1  0
  8 21  1  0
 10 22  1  0
 10 23  1  0
 11 24  1  0
M  CHG  1  16  -1
M  END
>  <UniqueID>  (36) 
36

>  <SMILES>  (36) 
NC(=O)c1cc2ccc(N)cc2n1C(=O)[O-]

>  <Energy>  (36) 
63.827730601975496

>  <Genealogy>  (36) 
NC(=O)c1cc2ccc(N)cc2n1C(=O)[O-] (protonated)
NC(=O)c1cc2ccc(N)cc2n1C(=O)[O-] (3D coordinates assigned)
NC(=O)c1cc2ccc(N)cc2n1C(=O)[O-] (optimized conformer: 63.827730601975496 kcal/mol)

>  <smiles>  (36) 
NC(=O)c1cc2ccc(N)cc2n1C(=O)O

>  <score_type>  (36) 
oracle

>  <origin>  (36) 
adg

>  <m_score__min__energy>  (36) 
-5.8600000000000003

>  <m_primary>  (36) 
energy

$$$$
36:0
     RDKit          3D

 52 54  0  0  0  0  0  0  0  0999 V2000
  139.5510  159.0800  130.2970 C   0  0  0  0  0  0  0  0  0  0  0  0
  138.7810  159.0020  131.6290 C   0  0  0  0  0  0  0  0  0  0  0  0
  139.3470  160.0560  132.5920 C   0  0  0  0  0  0  0  0  0  0  0  0
  137.2820  159.2840  131.4070 C   0  0  0  0  0  0  0  0  0  0  0  0
  138.9700  157.7210  132.2470 O   0  0  0  0  0  0  0  0  0  0  0  0
  139.4450  157.4840  133.5470 C   0  0  0  0  0  0  0  0  0  0  0  0
  138.7360  157.7550  134.5540 O   0  0  0  0  0  0  0  0  0  0  0  0
  140.7440  156.9010  133.7270 N   0  0  0  0  0  0  0  0  0  0  0  0
  141.9120  157.5470  134.0070 C   0  0  0  0  0  0  0  0  0  0  0  0
  142.0500  158.9720  134.3710 C   0  0  0  0  0  0  0  0  0  0  0  0
  141.0960  159.6080  135.2150 N   0  0  0  0  0  0  0  0  0  0  0  0
  143.0520  159.6240  133.9690 O   0  0  0  0  0  0  0  0  0  0  0  0
  142.9820  156.6540  133.9850 C   0  0  0  0  0  0  0  0  0  0  0  0
  142.4290  155.4300  133.6870 C   0  0  0  0  0  0  0  0  0  0  0  0
  143.0390  154.1920  133.5130 C   0  0  0  0  0  0  0  0  0  0  0  0
  142.2280  153.1000  133.1650 C   0  0  0  0  0  0  0  0  0  0  0  0
  140.8280  153.2610  132.9980 C   0  0  0  0  0  0  0  0  0  0  0  0
  140.0110  152.1430  132.6000 N   0  0  0  0  0  0  0  0  0  0  0  0
  140.7340  150.8850  132.8330 C   0  0  0  0  0  0  0  0  0  0  0  0
  140.2670  149.8230  131.8710 C   0  0  0  0  0  0  0  0  0  0  0  0
  139.4800  150.1670  130.7630 C   0  0  0  0  0  0  0  0  0  0  0  0
  139.0730  149.1860  129.8530 C   0  0  0  0  0  0  0  0  0  0  0  0
  139.4600  147.8460  130.0280 C   0  0  0  0  0  0  0  0  0  0  0  0
  139.0400  146.8380  129.0900 N   0  0  0  0  0  0  0  0  0  0  0  0
  138.4720  147.1560  128.0250 O   0  0  0  0  0  0  0  0  0  0  0  0
  139.2620  145.5050  129.3500 O   0  0  0  0  0  0  0  0  0  0  0  0
  140.2650  147.5090  131.1310 C   0  0  0  0  0  0  0  0  0  0  0  0
  140.6670  148.4890  132.0420 C   0  0  0  0  0  0  0  0  0  0  0  0
  140.2470  154.5390  133.1720 C   0  0  0  0  0  0  0  0  0  0  0  0
  141.0780  155.6060  133.5350 C   0  0  0  0  0  0  0  0  0  0  0  0
  140.6264  159.1889  130.5010 H   0  0  0  0  0  0  0  0  0  0  0  0
  139.3787  158.1598  129.7195 H   0  0  0  0  0  0  0  0  0  0  0  0
  139.1977  159.9470  129.7195 H   0  0  0  0  0  0  0  0  0  0  0  0
  139.1745  159.7347  133.6298 H   0  0  0  0  0  0  0  0  0  0  0  0
  140.4272  160.1692  132.4180 H   0  0  0  0  0  0  0  0  0  0  0  0
  138.8447  161.0190  132.4180 H   0  0  0  0  0  0  0  0  0  0  0  0
  136.7786  159.3787  132.3805 H   0  0  0  0  0  0  0  0  0  0  0  0
  137.1649  160.2199  130.8410 H   0  0  0  0  0  0  0  0  0  0  0  0
  136.8328  158.4546  130.8410 H   0  0  0  0  0  0  0  0  0  0  0  0
  140.1090  159.2680  135.2640 H   0  0  0  0  0  0  0  0  0  0  0  0
  144.0430  156.8799  134.1672 H   0  0  0  0  0  0  0  0  0  0  0  0
  144.1246  154.0721  133.6442 H   0  0  0  0  0  0  0  0  0  0  0  0
  142.6827  152.1089  133.0202 H   0  0  0  0  0  0  0  0  0  0  0  0
  139.1180  152.1440  133.1450 H   0  0  0  0  0  0  0  0  0  0  0  0
  139.7700  152.2290  131.5840 H   0  0  0  0  0  0  0  0  0  0  0  0
  141.8114  151.0546  132.6901 H   0  0  0  0  0  0  0  0  0  0  0  0
  140.5370  150.5461  133.8608 H   0  0  0  0  0  0  0  0  0  0  0  0
  139.1809  151.2142  130.6085 H   0  0  0  0  0  0  0  0  0  0  0  0
  138.4453  149.4651  128.9939 H   0  0  0  0  0  0  0  0  0  0  0  0
  140.5806  146.4655  131.2776 H   0  0  0  0  0  0  0  0  0  0  0  0
  141.3005  148.2133  132.8980 H   0  0  0  0  0  0  0  0  0  0  0  0
  139.1674  154.6911  133.0255 H   0  0  0  0  0  0  0  0  0  0  0  0
  1  2  1  0
  2  3  1  0
  2  4  1  0
  2  5  1  0
  5  6  1  0
  6  7  2  0
  6  8  1  0
  8  9  1  0
  9 10  1  0
 10 11  1  0
 10 12  2  0
  9 13  2  0
 13 14  1  0
 14 15  2  0
 15 16  1  0
 16 17  2  0
 17 18  1  0
 18 19  1  0
 19 20  1  0
 20 21  2  0
 21 22  1  0
 22 23  2  0
 23 24  1  0
 24 25  2  0
 24 26  1  0
 23 27  1  0
 27 28  2  0
 17 29  1  0
 29 30  2  0
 30  8  1  0
 30 14  1  0
 28 20  1  0
  1 31  1  0
  1 32  1  0
  1 33  1  0
  3 34  1  0
  3 35  1  0
  3 36  1  0
  4 37  1  0
  4 38  1  0
  4 39  1  0
 11 40  1  0
 13 41  1  0
 15 42  1  0
 16 43  1  0
 18 44  1  0
 18 45  1  0
 19 46  1  0
 19 47  1  0
 21 48  1  0
 22 49  1  0
 27 50  1  0
 28 51  1  0
 29 52  1  0
M  CHG  4  11  -1  18   1  24   1  26  -1
M  END
>  <UniqueID>  (37) 
37

>  <SMILES>  (37) 
CC(C)(C)OC(=O)n1c(C([NH-])=O)cc2ccc([NH2+]Cc3ccc([N+](=O)[O-])cc3)cc21

>  <Energy>  (37) 
89.41295351366539

>  <Genealogy>  (37) 
CC(C)(C)OC(=O)n1c(C([NH-])=O)cc2ccc([NH2+]Cc3ccc([N+](=O)[O-])cc3)cc21 (protonated)
CC(C)(C)OC(=O)n1c(C([NH-])=O)cc2ccc([NH2+]Cc3ccc([N+](=O)[O-])cc3)cc21 (3D coordinates assigned)
CC(C)(C)OC(=O)n1c(C([NH-])=O)cc2ccc([NH2+]Cc3ccc([N+](=O)[O-])cc3)cc21 (optimized conformer: 89.41295351366539 kcal/mol)

>  <smiles>  (37) 
CC(C)(C)OC(=O)n1c(C(N)=O)cc2ccc(NCc3ccc([N+](=O)[O-])cc3)cc21

>  <score_type>  (37) 
oracle

>  <origin>  (37) 
adg

>  <m_score__min__energy>  (37) 
-9.8499999999999996

>  <m_primary>  (37) 
energy

$$$$
37:0
     RDKit          3D

 35 37  0  0  0  0  0  0  0  0999 V2000
  138.3690  157.3610  133.5000 N   0  0  0  0  0  0  0  0  0  0  0  0
  139.1600  158.0210  134.4900 C   0  0  0  0  0  0  0  0  0  0  0  0
  138.6830  158.1980  135.6430 O   0  0  0  0  0  0  0  0  0  0  0  0
  140.5470  158.4410  134.2060 C   0  0  0  0  0  0  0  0  0  0  0  0
  140.9780  159.7610  134.2910 C   0  0  0  0  0  0  0  0  0  0  0  0
  142.3250  159.7200  134.0170 C   0  0  0  0  0  0  0  0  0  0  0  0
  143.2540  160.7540  133.9520 C   0  0  0  0  0  0  0  0  0  0  0  0
  144.5760  160.4310  133.6090 C   0  0  0  0  0  0  0  0  0  0  0  0
  144.9480  159.0910  133.3270 C   0  0  0  0  0  0  0  0  0  0  0  0
  146.3460  158.7650  132.9500 C   0  0  0  0  0  0  0  0  0  0  0  0
  146.9470  157.5740  133.3920 C   0  0  0  0  0  0  0  0  0  0  0  0
  148.2670  157.2760  133.0470 C   0  0  0  0  0  0  0  0  0  0  0  0
  148.8380  156.1280  133.4890 F   0  0  0  0  0  0  0  0  0  0  0  0
  149.0000  158.1570  132.2510 C   0  0  0  0  0  0  0  0  0  0  0  0
  148.4130  159.3410  131.7730 C   0  0  0  0  0  0  0  0  0  0  0  0
  149.2200  160.3200  130.9570 C   0  0  0  0  0  0  0  0  0  0  0  0
  150.5650  160.0450  131.1170 F   0  0  0  0  0  0  0  0  0  0  0  0
  148.8970  160.2230  129.6140 F   0  0  0  0  0  0  0  0  0  0  0  0
  148.9720  161.6170  131.3680 F   0  0  0  0  0  0  0  0  0  0  0  0
  147.0920  159.6490  132.1470 C   0  0  0  0  0  0  0  0  0  0  0  0
  143.9720  158.0690  133.4010 C   0  0  0  0  0  0  0  0  0  0  0  0
  142.6650  158.4150  133.7680 C   0  0  0  0  0  0  0  0  0  0  0  0
  141.5810  157.6150  133.8780 N   0  0  0  0  0  0  0  0  0  0  0  0
  141.5160  156.2080  133.5860 C   0  0  0  0  0  0  0  0  0  0  0  0
  142.4840  155.4550  133.8720 O   0  0  0  0  0  0  0  0  0  0  0  0
  140.3880  155.6650  132.9850 O   0  0  0  0  0  0  0  0  0  0  0  0
  138.7880  157.0480  132.5970 H   0  0  0  0  0  0  0  0  0  0  0  0
  137.3770  157.1060  133.7070 H   0  0  0  0  0  0  0  0  0  0  0  0
  140.3712  160.6477  134.5269 H   0  0  0  0  0  0  0  0  0  0  0  0
  142.9611  161.7931  134.1631 H   0  0  0  0  0  0  0  0  0  0  0  0
  145.3336  161.2269  133.5581 H   0  0  0  0  0  0  0  0  0  0  0  0
  146.3734  156.8713  134.0143 H   0  0  0  0  0  0  0  0  0  0  0  0
  150.0442  157.9232  131.9960 H   0  0  0  0  0  0  0  0  0  0  0  0
  146.6367  160.5913  131.8082 H   0  0  0  0  0  0  0  0  0  0  0  0
  144.2341  157.0248  133.1751 H   0  0  0  0  0  0  0  0  0  0  0  0
  1  2  1  0
  2  3  2  0
  2  4  1  0
  4  5  2  0
  5  6  1  0
  6  7  2  0
  7  8  1  0
  8  9  2  0
  9 10  1  0
 10 11  2  0
 11 12  1  0
 12 13  1  0
 12 14  2  0
 14 15  1  0
 15 16  1  0
 16 17  1  0
 16 18  1  0
 16 19  1  0
 15 20  2  0
  9 21  1  0
 21 22  2  0
 22 23  1  0
 23 24  1  0
 24 25  2  0
 24 26  1  0
 23  4  1  0
 22  6  1  0
 20 10  1  0
  1 27  1  0
  1 28  1  0
  5 29  1  0
  7 30  1  0
  8 31  1  0
 11 32  1  0
 14 33  1  0
 20 34  1  0
 21 35  1  0
M  CHG  1  26  -1
M  END
>  <UniqueID>  (38) 
38

>  <SMILES>  (38) 
NC(=O)c1cc2ccc(-c3cc(F)cc(C(F)(F)F)c3)cc2n1C(=O)[O-]

>  <Energy>  (38) 
83.82052388196459

>  <Genealogy>  (38) 
NC(=O)c1cc2ccc(-c3cc(F)cc(C(F)(F)F)c3)cc2n1C(=O)[O-] (protonated)
NC(=O)c1cc2ccc(-c3cc(F)cc(C(F)(F)F)c3)cc2n1C(=O)[O-] (3D coordinates assigned)
NC(=O)c1cc2ccc(-c3cc(F)cc(C(F)(F)F)c3)cc2n1C(=O)[O-] (optimized conformer: 83.82052388196459 kcal/mol)

>  <smiles>  (38) 
NC(=O)c1cc2ccc(-c3cc(F)cc(C(F)(F)F)c3)cc2n1C(=O)O

>  <score_type>  (38) 
oracle

>  <origin>  (38) 
adg

>  <m_score__min__energy>  (38) 
-7.7199999999999998

>  <m_primary>  (38) 
energy

$$$$
38:0
     RDKit          3D

 58 62  0  0  0  0  0  0  0  0999 V2000
  140.5380  159.0180  132.2190 C   0  0  0  0  0  0  0  0  0  0  0  0
  141.2860  158.2320  133.3070 C   0  0  0  0  0  0  0  0  0  0  0  0
  140.7800  156.7770  133.3100 C   0  0  0  0  0  0  0  0  0  0  0  0
  141.0270  158.9010  134.6710 C   0  0  0  0  0  0  0  0  0  0  0  0
  142.6820  158.2780  132.9770 O   0  0  0  0  0  0  0  0  0  0  0  0
  143.7530  158.0380  133.8520 C   0  0  0  0  0  0  0  0  0  0  0  0
  143.6210  157.2650  134.8390 O   0  0  0  0  0  0  0  0  0  0  0  0
  145.0230  158.6600  133.5990 N   0  0  0  0  0  0  0  0  0  0  0  0
  145.2890  159.9930  133.4940 C   0  0  0  0  0  0  0  0  0  0  0  0
  144.3470  161.0910  133.7940 C   0  0  0  0  0  0  0  0  0  0  0  0
  142.9770  160.9740  133.4160 N   0  0  0  0  0  0  0  0  0  0  0  0
  144.7470  162.1510  134.3430 O   0  0  0  0  0  0  0  0  0  0  0  0
  146.6200  160.2000  133.1380 C   0  0  0  0  0  0  0  0  0  0  0  0
  147.1690  158.9430  133.0340 C   0  0  0  0  0  0  0  0  0  0  0  0
  148.4600  158.5580  132.6870 C   0  0  0  0  0  0  0  0  0  0  0  0
  148.7440  157.1830  132.6300 C   0  0  0  0  0  0  0  0  0  0  0  0
  147.7420  156.2240  132.9270 C   0  0  0  0  0  0  0  0  0  0  0  0
  148.0440  154.7760  132.8660 C   0  0  0  0  0  0  0  0  0  0  0  0
  149.1470  154.2260  132.2430 C   0  0  0  0  0  0  0  0  0  0  0  0
  149.0630  152.8690  132.5240 C   0  0  0  0  0  0  0  0  0  0  0  0
  150.0070  151.7750  132.1000 C   0  0  0  0  0  0  0  0  0  0  0  0
  150.3370  150.7340  133.1600 C   0  0  0  0  0  0  0  0  0  0  0  0
  149.4190  150.3740  132.0000 C   0  0  0  0  0  0  0  0  0  0  0  0
  147.9630  152.6290  133.2630 N   0  0  0  0  0  0  0  0  0  0  0  0
  147.3450  153.7820  133.4640 N   0  0  0  0  0  0  0  0  0  0  0  0
  146.0810  153.8730  134.1450 C   0  0  0  0  0  0  0  0  0  0  0  0
  146.0480  154.1700  135.5150 C   0  0  0  0  0  0  0  0  0  0  0  0
  144.8260  154.2580  136.1880 C   0  0  0  0  0  0  0  0  0  0  0  0
  143.6260  154.0400  135.5030 C   0  0  0  0  0  0  0  0  0  0  0  0
  142.1070  154.1670  136.3810 Cl  0  0  0  0  0  0  0  0  0  0  0  0
  143.6530  153.7180  134.1360 C   0  0  0  0  0  0  0  0  0  0  0  0
  142.1700  153.4230  133.2390 Cl  0  0  0  0  0  0  0  0  0  0  0  0
  144.8770  153.6270  133.4650 C   0  0  0  0  0  0  0  0  0  0  0  0
  146.4370  156.6550  133.2520 C   0  0  0  0  0  0  0  0  0  0  0  0
  146.1860  158.0300  133.3170 C   0  0  0  0  0  0  0  0  0  0  0  0
  139.8533  159.7375  132.6917 H   0  0  0  0  0  0  0  0  0  0  0  0
  141.2632  159.5587  131.5932 H   0  0  0  0  0  0  0  0  0  0  0  0
  139.9620  158.3204  131.5932 H   0  0  0  0  0  0  0  0  0  0  0  0
  140.6602  156.4326  134.3478 H   0  0  0  0  0  0  0  0  0  0  0  0
  139.8109  156.7247  132.7922 H   0  0  0  0  0  0  0  0  0  0  0  0
  141.5075  156.1347  132.7922 H   0  0  0  0  0  0  0  0  0  0  0  0
  141.2968  158.2042  135.4783 H   0  0  0  0  0  0  0  0  0  0  0  0
  141.6372  159.8124  134.7541 H   0  0  0  0  0  0  0  0  0  0  0  0
  139.9621  159.1639  134.7541 H   0  0  0  0  0  0  0  0  0  0  0  0
  142.6950  160.3920  132.5960 H   0  0  0  0  0  0  0  0  0  0  0  0
  147.1246  161.1637  132.9748 H   0  0  0  0  0  0  0  0  0  0  0  0
  149.2345  159.3067  132.4642 H   0  0  0  0  0  0  0  0  0  0  0  0
  149.7539  156.8469  132.3522 H   0  0  0  0  0  0  0  0  0  0  0  0
  149.9185  154.7461  131.6562 H   0  0  0  0  0  0  0  0  0  0  0  0
  150.5926  152.4205  131.4289 H   0  0  0  0  0  0  0  0  0  0  0  0
  151.3488  150.3057  133.2140 H   0  0  0  0  0  0  0  0  0  0  0  0
  150.2592  150.6887  134.2563 H   0  0  0  0  0  0  0  0  0  0  0  0
  149.7675  149.6858  131.2158 H   0  0  0  0  0  0  0  0  0  0  0  0
  148.4034  149.9611  131.9108 H   0  0  0  0  0  0  0  0  0  0  0  0
  146.9878  154.3344  136.0625 H   0  0  0  0  0  0  0  0  0  0  0  0
  144.8079  154.4997  137.2610 H   0  0  0  0  0  0  0  0  0  0  0  0
  144.8967  153.3610  132.3978 H   0  0  0  0  0  0  0  0  0  0  0  0
  145.6365  155.9268  133.4494 H   0  0  0  0  0  0  0  0  0  0  0  0
  1  2  1  0
  2  3  1  0
  2  4  1  0
  2  5  1  0
  5  6  1  0
  6  7  2  0
  6  8  1  0
  8  9  1  0
  9 10  1  0
 10 11  1  0
 10 12  2  0
  9 13  2  0
 13 14  1  0
 14 15  2  0
 15 16  1  0
 16 17  2  0
 17 18  1  0
 18 19  2  0
 19 20  1  0
 20 21  1  0
 21 22  1  0
 22 23  1  0
 20 24  2  0
 24 25  1  0
 25 26  1  0
 26 27  2  0
 27 28  1  0
 28 29  2  0
 29 30  1  0
 29 31  1  0
 31 32  1  0
 31 33  2  0
 17 34  1  0
 34 35  2  0
 35  8  1  0
 35 14  1  0
 25 18  1  0
 33 26  1  0
 23 21  1  0
  1 36  1  0
  1 37  1  0
  1 38  1  0
  3 39  1  0
  3 40  1  0
  3 41  1  0
  4 42  1  0
  4 43  1  0
  4 44  1  0
 11 45  1  0
 13 46  1  0
 15 47  1  0
 16 48  1  0
 19 49  1  0
 21 50  1  0
 22 51  1  0
 22 52  1  0
 23 53  1  0
 23 54  1  0
 27 55  1  0
 28 56  1  0
 33 57  1  0
 34 58  1  0
M  CHG  1  11  -1
M  END
>  <UniqueID>  (39) 
39

>  <SMILES>  (39) 
CC(C)(C)OC(=O)n1c(C([NH-])=O)cc2ccc(-c3cc(C4CC4)nn3-c3ccc(Cl)c(Cl)c3)cc21

>  <Energy>  (39) 
401.3766267161827

>  <Genealogy>  (39) 
CC(C)(C)OC(=O)n1c(C([NH-])=O)cc2ccc(-c3cc(C4CC4)nn3-c3ccc(Cl)c(Cl)c3)cc21 (protonated)
CC(C)(C)OC(=O)n1c(C([NH-])=O)cc2ccc(-c3cc(C4CC4)nn3-c3ccc(Cl)c(Cl)c3)cc21 (3D coordinates assigned)
CC(C)(C)OC(=O)n1c(C([NH-])=O)cc2ccc(-c3cc(C4CC4)nn3-c3ccc(Cl)c(Cl)c3)cc21 (nonaromatic ring conformer: 401.3766267161827 kcal/mol)

>  <smiles>  (39) 
CC(C)(C)OC(=O)n1c(C(N)=O)cc2ccc(-c3cc(C4CC4)nn3-c3ccc(Cl)c(Cl)c3)cc21

>  <score_type>  (39) 
oracle

>  <origin>  (39) 
adg

>  <m_score__min__energy>  (39) 
-10.82

>  <m_primary>  (39) 
energy

$$$$
39:0
     RDKit          3D

 33 35  0  0  0  0  0  0  0  0999 V2000
  138.5500  157.8590  133.6570 C   0  0  0  0  0  0  0  0  0  0  0  0
  139.8170  158.3350  134.1920 N   0  0  0  0  0  0  0  0  0  0  0  0
  140.9160  158.6250  133.4720 C   0  0  0  0  0  0  0  0  0  0  0  0
  141.9290  158.9690  134.3510 C   0  0  0  0  0  0  0  0  0  0  0  0
  143.3220  159.3640  134.0210 C   0  0  0  0  0  0  0  0  0  0  0  0
  143.7070  160.7320  134.0460 C   0  0  0  0  0  0  0  0  0  0  0  0
  145.0240  161.1170  133.7440 C   0  0  0  0  0  0  0  0  0  0  0  0
  145.9360  160.1220  133.4160 C   0  0  0  0  0  0  0  0  0  0  0  0
  147.2740  160.2130  133.1010 C   0  0  0  0  0  0  0  0  0  0  0  0
  147.6880  158.9030  132.8680 C   0  0  0  0  0  0  0  0  0  0  0  0
  149.0460  158.5470  132.4080 C   0  0  0  0  0  0  0  0  0  0  0  0
  149.4320  157.1850  132.2460 N   0  0  0  0  0  0  0  0  0  0  0  0
  149.8640  159.4590  132.1120 O   0  0  0  0  0  0  0  0  0  0  0  0
  146.6500  158.0360  133.0420 N   0  0  0  0  0  0  0  0  0  0  0  0
  146.6770  156.6020  132.9780 C   0  0  0  0  0  0  0  0  0  0  0  0
  147.2570  155.9390  131.8540 N   0  0  0  0  0  0  0  0  0  0  0  0
  146.2170  155.9210  133.9320 O   0  0  0  0  0  0  0  0  0  0  0  0
  145.5850  158.7990  133.3730 C   0  0  0  0  0  0  0  0  0  0  0  0
  144.2860  158.3830  133.6830 C   0  0  0  0  0  0  0  0  0  0  0  0
  141.3560  158.8480  135.6110 C   0  0  0  0  0  0  0  0  0  0  0  0
  140.0740  158.4540  135.4850 N   0  0  0  0  0  0  0  0  0  0  0  0
  137.8739  157.6050  134.4867 H   0  0  0  0  0  0  0  0  0  0  0  0
  138.0934  158.6469  133.0400 H   0  0  0  0  0  0  0  0  0  0  0  0
  138.7251  156.9653  133.0400 H   0  0  0  0  0  0  0  0  0  0  0  0
  140.9959  158.5942  132.3753 H   0  0  0  0  0  0  0  0  0  0  0  0
  142.9634  161.5000  134.3054 H   0  0  0  0  0  0  0  0  0  0  0  0
  145.3240  162.1751  133.7666 H   0  0  0  0  0  0  0  0  0  0  0  0
  147.8855  161.1257  133.0453 H   0  0  0  0  0  0  0  0  0  0  0  0
  149.6190  156.7890  131.2980 H   0  0  0  0  0  0  0  0  0  0  0  0
  147.7090  156.4880  131.0900 H   0  0  0  0  0  0  0  0  0  0  0  0
  147.2650  154.8960  131.8030 H   0  0  0  0  0  0  0  0  0  0  0  0
  144.0187  157.3161  133.6646 H   0  0  0  0  0  0  0  0  0  0  0  0
  141.8697  159.0437  136.5638 H   0  0  0  0  0  0  0  0  0  0  0  0
  1  2  1  0
  2  3  1  0
  3  4  2  0
  4  5  1  0
  5  6  2  0
  6  7  1  0
  7  8  2  0
  8  9  1  0
  9 10  2  0
 10 11  1  0
 11 12  1  0
 11 13  2  0
 10 14  1  0
 14 15  1  0
 15 16  1  0
 15 17  2  0
 14 18  1  0
 18 19  2  0
  4 20  1  0
 20 21  2  0
 21  2  1  0
 19  5  1  0
 18  8  1  0
  1 22  1  0
  1 23  1  0
  1 24  1  0
  3 25  1  0
  6 26  1  0
  7 27  1  0
  9 28  1  0
 12 29  1  0
 16 30  1  0
 16 31  1  0
 19 32  1  0
 20 33  1  0
M  CHG  1  12  -1
M  END
>  <UniqueID>  (40) 
40

>  <SMILES>  (40) 
Cn1cc(-c2ccc3cc(C([NH-])=O)n(C(N)=O)c3c2)cn1

>  <Energy>  (40) 
105.06237438637272

>  <Genealogy>  (40) 
Cn1cc(-c2ccc3cc(C([NH-])=O)n(C(N)=O)c3c2)cn1 (protonated)
Cn1cc(-c2ccc3cc(C([NH-])=O)n(C(N)=O)c3c2)cn1 (3D coordinates assigned)
Cn1cc(-c2ccc3cc(C([NH-])=O)n(C(N)=O)c3c2)cn1 (optimized conformer: 105.06237438637272 kcal/mol)

>  <smiles>  (40) 
Cn1cc(-c2ccc3cc(C(N)=O)n(C(N)=O)c3c2)cn1

>  <score_type>  (40) 
oracle

>  <origin>  (40) 
adg

>  <m_score__min__energy>  (40) 
-7.2699999999999996

>  <m_primary>  (40) 
energy

$$$$
40:0
     RDKit          3D

 54 57  0  0  0  0  0  0  0  0999 V2000
  144.2210  155.4790  132.7590 C   0  0  0  0  0  0  0  0  0  0  0  0
  145.0450  155.1390  134.0150 C   0  0  0  0  0  0  0  0  0  0  0  0
  145.6310  153.7170  133.9120 C   0  0  0  0  0  0  0  0  0  0  0  0
  144.1280  155.2070  135.2450 C   0  0  0  0  0  0  0  0  0  0  0  0
  146.0880  156.1040  134.2120 O   0  0  0  0  0  0  0  0  0  0  0  0
  146.7570  156.8240  133.2100 C   0  0  0  0  0  0  0  0  0  0  0  0
  147.4850  156.2350  132.3670 O   0  0  0  0  0  0  0  0  0  0  0  0
  146.6010  158.2520  133.1480 N   0  0  0  0  0  0  0  0  0  0  0  0
  147.5420  159.1660  132.7780 C   0  0  0  0  0  0  0  0  0  0  0  0
  148.8640  158.8600  132.1990 C   0  0  0  0  0  0  0  0  0  0  0  0
  149.0110  157.8770  131.1720 N   0  0  0  0  0  0  0  0  0  0  0  0
  149.8740  159.5100  132.5790 O   0  0  0  0  0  0  0  0  0  0  0  0
  147.0760  160.4620  132.9810 C   0  0  0  0  0  0  0  0  0  0  0  0
  145.8020  160.3150  133.4800 C   0  0  0  0  0  0  0  0  0  0  0  0
  144.8830  161.2820  133.8820 C   0  0  0  0  0  0  0  0  0  0  0  0
  143.6560  160.8450  134.4080 C   0  0  0  0  0  0  0  0  0  0  0  0
  143.3800  159.4630  134.5290 C   0  0  0  0  0  0  0  0  0  0  0  0
  142.1040  159.0170  135.1110 C   0  0  0  0  0  0  0  0  0  0  0  0
  142.0670  158.5740  136.4370 C   0  0  0  0  0  0  0  0  0  0  0  0
  140.8950  158.1660  136.9870 N   0  0  0  0  0  0  0  0  0  0  0  0
  139.7450  158.1830  136.2660 C   0  0  0  0  0  0  0  0  0  0  0  0
  139.7550  158.6130  134.9790 N   0  0  0  0  0  0  0  0  0  0  0  0
  140.9000  159.0400  134.3790 C   0  0  0  0  0  0  0  0  0  0  0  0
  140.8720  159.4760  133.0080 N   0  0  0  0  0  0  0  0  0  0  0  0
  139.6640  159.5690  132.2330 C   0  0  0  0  0  0  0  0  0  0  0  0
  139.2560  160.7950  131.6820 C   0  0  0  0  0  0  0  0  0  0  0  0
  138.1000  160.8640  130.9040 C   0  0  0  0  0  0  0  0  0  0  0  0
  137.3630  159.7030  130.6720 C   0  0  0  0  0  0  0  0  0  0  0  0
  137.7740  158.5200  131.1960 N   0  0  0  0  0  0  0  0  0  0  0  0
  138.8970  158.4210  131.9570 C   0  0  0  0  0  0  0  0  0  0  0  0
  139.3370  156.8480  132.6060 Cl  0  0  0  0  0  0  0  0  0  0  0  0
  144.3320  158.5100  134.1130 C   0  0  0  0  0  0  0  0  0  0  0  0
  145.5390  158.9720  133.5730 C   0  0  0  0  0  0  0  0  0  0  0  0
  143.2430  155.8825  133.0602 H   0  0  0  0  0  0  0  0  0  0  0  0
  144.7583  156.2289  132.1599 H   0  0  0  0  0  0  0  0  0  0  0  0
  144.0732  154.5684  132.1599 H   0  0  0  0  0  0  0  0  0  0  0  0
  145.7968  153.3147  134.9223 H   0  0  0  0  0  0  0  0  0  0  0  0
  144.9268  153.0686  133.3701 H   0  0  0  0  0  0  0  0  0  0  0  0
  146.5876  153.7530  133.3701 H   0  0  0  0  0  0  0  0  0  0  0  0
  144.7374  155.1618  136.1596 H   0  0  0  0  0  0  0  0  0  0  0  0
  143.5613  156.1496  135.2282 H   0  0  0  0  0  0  0  0  0  0  0  0
  143.4285  154.3583  135.2282 H   0  0  0  0  0  0  0  0  0  0  0  0
  148.1750  157.4470  130.7170 H   0  0  0  0  0  0  0  0  0  0  0  0
  149.9590  157.6340  130.8090 H   0  0  0  0  0  0  0  0  0  0  0  0
  147.6116  161.4025  132.7845 H   0  0  0  0  0  0  0  0  0  0  0  0
  145.1112  162.3542  133.7903 H   0  0  0  0  0  0  0  0  0  0  0  0
  142.9050  161.5823  134.7279 H   0  0  0  0  0  0  0  0  0  0  0  0
  142.9897  158.5562  137.0356 H   0  0  0  0  0  0  0  0  0  0  0  0
  138.8036  157.8477  136.7257 H   0  0  0  0  0  0  0  0  0  0  0  0
  141.7740  159.6860  132.5260 H   0  0  0  0  0  0  0  0  0  0  0  0
  139.8495  161.7030  131.8644 H   0  0  0  0  0  0  0  0  0  0  0  0
  137.7733  161.8241  130.4780 H   0  0  0  0  0  0  0  0  0  0  0  0
  136.4475  159.7459  130.0637 H   0  0  0  0  0  0  0  0  0  0  0  0
  144.1323  157.4326  134.2099 H   0  0  0  0  0  0  0  0  0  0  0  0
  1  2  1  0
  2  3  1  0
  2  4  1  0
  2  5  1  0
  5  6  1  0
  6  7  2  0
  6  8  1  0
  8  9  1  0
  9 10  1  0
 10 11  1  0
 10 12  2  0
  9 13  2  0
 13 14  1  0
 14 15  2  0
 15 16  1  0
 16 17  2  0
 17 18  1  0
 18 19  2  0
 19 20  1  0
 20 21  2  0
 21 22  1  0
 22 23  2  0
 23 24  1  0
 24 25  1  0
 25 26  2  0
 26 27  1  0
 27 28  2  0
 28 29  1  0
 29 30  2  0
 30 31  1  0
 17 32  1  0
 32 33  2  0
 33  8  1  0
 33 14  1  0
 23 18  1  0
 30 25  1  0
  1 34  1  0
  1 35  1  0
  1 36  1  0
  3 37  1  0
  3 38  1  0
  3 39  1  0
  4 40  1  0
  4 41  1  0
  4 42  1  0
 11 43  1  0
 11 44  1  0
 13 45  1  0
 15 46  1  0
 16 47  1  0
 19 48  1  0
 21 49  1  0
 24 50  1  0
 26 51  1  0
 27 52  1  0
 28 53  1  0
 32 54  1  0
M  END
>  <UniqueID>  (41) 
41

>  <SMILES>  (41) 
CC(C)(C)OC(=O)n1c(C(N)=O)cc2ccc(-c3cncnc3Nc3cccnc3Cl)cc21

>  <Energy>  (41) 
107.53359191476207

>  <Genealogy>  (41) 
CC(C)(C)OC(=O)n1c(C(N)=O)cc2ccc(-c3cncnc3Nc3cccnc3Cl)cc21 (3D coordinates assigned)
CC(C)(C)OC(=O)n1c(C(N)=O)cc2ccc(-c3cncnc3Nc3cccnc3Cl)cc21 (optimized conformer: 107.53359191476207 kcal/mol)

>  <smiles>  (41) 
CC(C)(C)OC(=O)n1c(C(N)=O)cc2ccc(-c3cncnc3Nc3cccnc3Cl)cc21

>  <score_type>  (41) 
oracle

>  <origin>  (41) 
adg

>  <m_score__min__energy>  (41) 
-10.109999999999999

>  <m_primary>  (41) 
energy

$$$$
41:0
     RDKit          3D

 58 61  0  0  0  0  0  0  0  0999 V2000
  149.8270  153.6030  139.8010 C   0  0  0  0  0  0  0  0  0  0  0  0
  148.7610  153.0170  138.8740 C   0  0  0  0  0  0  0  0  0  0  0  0
  148.4420  151.6160  139.2290 N   0  0  0  0  0  0  0  0  0  0  0  0
  148.3690  151.4350  140.7030 C   0  0  0  0  0  0  0  0  0  0  0  0
  146.9240  151.4750  141.2180 C   0  0  0  0  0  0  0  0  0  0  0  0
  146.1260  150.3770  140.6280 N   0  0  0  0  0  0  0  0  0  0  0  0
  144.6650  150.5410  140.8100 C   0  0  0  0  0  0  0  0  0  0  0  0
  144.0050  151.4000  139.7490 C   0  0  0  0  0  0  0  0  0  0  0  0
  142.7210  151.0860  139.2690 C   0  0  0  0  0  0  0  0  0  0  0  0
  142.1220  151.8750  138.2820 C   0  0  0  0  0  0  0  0  0  0  0  0
  142.7910  152.9950  137.7750 C   0  0  0  0  0  0  0  0  0  0  0  0
  142.1770  153.8010  136.7550 C   0  0  0  0  0  0  0  0  0  0  0  0
  141.6630  154.4770  135.8980 C   0  0  0  0  0  0  0  0  0  0  0  0
  141.0490  155.2840  134.8780 C   0  0  0  0  0  0  0  0  0  0  0  0
  140.4570  154.6660  133.7520 C   0  0  0  0  0  0  0  0  0  0  0  0
  139.8660  155.4440  132.7420 C   0  0  0  0  0  0  0  0  0  0  0  0
  139.8780  156.8290  132.8940 C   0  0  0  0  0  0  0  0  0  0  0  0
  139.4060  157.8160  132.0600 C   0  0  0  0  0  0  0  0  0  0  0  0
  139.7010  159.0160  132.7030 C   0  0  0  0  0  0  0  0  0  0  0  0
  139.3120  160.3430  132.1790 C   0  0  0  0  0  0  0  0  0  0  0  0
  138.2760  160.4460  131.2050 N   0  0  0  0  0  0  0  0  0  0  0  0
  139.8670  161.3910  132.6000 O   0  0  0  0  0  0  0  0  0  0  0  0
  140.3300  158.7800  133.8890 N   0  0  0  0  0  0  0  0  0  0  0  0
  140.8410  159.7460  134.8210 C   0  0  0  0  0  0  0  0  0  0  0  0
  140.3040  159.8300  136.1410 N   0  0  0  0  0  0  0  0  0  0  0  0
  141.7720  160.5220  134.4780 O   0  0  0  0  0  0  0  0  0  0  0  0
  140.4320  157.4370  133.9910 C   0  0  0  0  0  0  0  0  0  0  0  0
  141.0460  156.6870  135.0020 C   0  0  0  0  0  0  0  0  0  0  0  0
  144.0560  153.3320  138.2700 C   0  0  0  0  0  0  0  0  0  0  0  0
  144.6560  152.5450  139.2570 C   0  0  0  0  0  0  0  0  0  0  0  0
  146.5410  149.9840  139.2620 C   0  0  0  0  0  0  0  0  0  0  0  0
  147.2260  151.1390  138.5170 C   0  0  0  0  0  0  0  0  0  0  0  0
  149.5317  153.4407  140.8481 H   0  0  0  0  0  0  0  0  0  0  0  0
  150.7907  153.1078  139.6108 H   0  0  0  0  0  0  0  0  0  0  0  0
  149.9253  154.6820  139.6108 H   0  0  0  0  0  0  0  0  0  0  0  0
  147.8463  153.6228  138.9537 H   0  0  0  0  0  0  0  0  0  0  0  0
  149.1528  153.0312  137.8462 H   0  0  0  0  0  0  0  0  0  0  0  0
  148.8117  150.4622  140.9634 H   0  0  0  0  0  0  0  0  0  0  0  0
  148.9198  152.2626  141.1739 H   0  0  0  0  0  0  0  0  0  0  0  0
  146.9282  151.3699  142.3130 H   0  0  0  0  0  0  0  0  0  0  0  0
  146.4723  152.4350  140.9276 H   0  0  0  0  0  0  0  0  0  0  0  0
  144.1994  149.5446  140.7876 H   0  0  0  0  0  0  0  0  0  0  0  0
  144.5193  151.0544  141.7718 H   0  0  0  0  0  0  0  0  0  0  0  0
  142.1846  150.2145  139.6724 H   0  0  0  0  0  0  0  0  0  0  0  0
  141.1226  151.6148  137.9031 H   0  0  0  0  0  0  0  0  0  0  0  0
  140.4592  153.5693  133.6663 H   0  0  0  0  0  0  0  0  0  0  0  0
  139.4082  154.9743  131.8590 H   0  0  0  0  0  0  0  0  0  0  0  0
  138.9024  157.6853  131.0908 H   0  0  0  0  0  0  0  0  0  0  0  0
  137.6120  161.2520  131.2090 H   0  0  0  0  0  0  0  0  0  0  0  0
  139.4870  159.2430  136.4210 H   0  0  0  0  0  0  0  0  0  0  0  0
  140.6980  160.5100  136.8290 H   0  0  0  0  0  0  0  0  0  0  0  0
  141.5125  157.1795  135.8679 H   0  0  0  0  0  0  0  0  0  0  0  0
  144.5792  154.2182  137.8814 H   0  0  0  0  0  0  0  0  0  0  0  0
  145.6443  152.8233  139.6516 H   0  0  0  0  0  0  0  0  0  0  0  0
  147.2432  149.1403  139.3326 H   0  0  0  0  0  0  0  0  0  0  0  0
  145.6386  149.7029  138.6992 H   0  0  0  0  0  0  0  0  0  0  0  0
  147.5145  150.7932  137.5134 H   0  0  0  0  0  0  0  0  0  0  0  0
  146.5148  151.9762  138.4593 H   0  0  0  0  0  0  0  0  0  0  0  0
  1  2  1  0
  2  3  1  0
  3  4  1  0
  4  5  1  0
  5  6  1  0
  6  7  1  0
  7  8  1  0
  8  9  2  0
  9 10  1  0
 10 11  2  0
 11 12  1  0
 12 13  3  0
 13 14  1  0
 14 15  2  0
 15 16  1  0
 16 17  2  0
 17 18  1  0
 18 19  2  0
 19 20  1  0
 20 21  1  0
 20 22  2  0
 19 23  1  0
 23 24  1  0
 24 25  1  0
 24 26  2  0
 23 27  1  0
 27 28  2  0
 11 29  1  0
 29 30  2  0
  6 31  1  0
 31 32  1  0
 32  3  1  0
 30  8  1  0
 28 14  1  0
 27 17  1  0
  1 33  1  0
  1 34  1  0
  1 35  1  0
  2 36  1  0
  2 37  1  0
  4 38  1  0
  4 39  1  0
  5 40  1  0
  5 41  1  0
  7 42  1  0
  7 43  1  0
  9 44  1  0
 10 45  1  0
 15 46  1  0
 16 47  1  0
 18 48  1  0
 21 49  1  0
 25 50  1  0
 25 51  1  0
 28 52  1  0
 29 53  1  0
 30 54  1  0
 31 55  1  0
 31 56  1  0
 32 57  1  0
 32 58  1  0
M  CHG  1  21  -1
M  END
>  <UniqueID>  (42) 
42

>  <SMILES>  (42) 
CCN1CCN(Cc2ccc(C#Cc3ccc4cc(C([NH-])=O)n(C(N)=O)c4c3)cc2)CC1

>  <Energy>  (42) 
109.09069306402701

>  <Genealogy>  (42) 
CCN1CCN(Cc2ccc(C#Cc3ccc4cc(C([NH-])=O)n(C(N)=O)c4c3)cc2)CC1 (protonated)
CCN1CCN(Cc2ccc(C#Cc3ccc4cc(C([NH-])=O)n(C(N)=O)c4c3)cc2)CC1 (3D coordinates assigned)
CCN1CCN(Cc2ccc(C#Cc3ccc4cc(C([NH-])=O)n(C(N)=O)c4c3)cc2)CC1 (nonaromatic ring conformer: 109.09069306402701 kcal/mol)

>  <smiles>  (42) 
CCN1CCN(Cc2ccc(C#Cc3ccc4cc(C(N)=O)n(C(N)=O)c4c3)cc2)CC1

>  <score_type>  (42) 
oracle

>  <origin>  (42) 
adg

>  <m_score__min__energy>  (42) 
-9.5700000000000003

>  <m_primary>  (42) 
energy

$$$$
42:0
     RDKit          3D

 55 57  0  0  0  0  0  0  0  0999 V2000
  141.7390  149.2760  132.2660 C   0  0  0  0  0  0  0  0  0  0  0  0
  140.7010  150.1580  132.9500 C   0  0  0  0  0  0  0  0  0  0  0  0
  140.5770  151.4480  132.2700 N   0  0  0  0  0  0  0  0  0  0  0  0
  140.9370  152.6730  132.9180 C   0  0  0  0  0  0  0  0  0  0  0  0
  140.1160  153.7530  132.8280 N   0  0  0  0  0  0  0  0  0  0  0  0
  140.4330  154.9300  133.4290 C   0  0  0  0  0  0  0  0  0  0  0  0
  139.5010  156.0940  133.3290 C   0  0  0  0  0  0  0  0  0  0  0  0
  141.6200  155.0330  134.1630 C   0  0  0  0  0  0  0  0  0  0  0  0
  142.4630  153.9200  134.2410 C   0  0  0  0  0  0  0  0  0  0  0  0
  143.6770  153.9880  135.0050 N   0  0  0  0  0  0  0  0  0  0  0  0
  144.8740  154.6410  134.5510 C   0  0  0  0  0  0  0  0  0  0  0  0
  146.0850  153.9200  134.3800 C   0  0  0  0  0  0  0  0  0  0  0  0
  147.2420  154.5640  133.9080 C   0  0  0  0  0  0  0  0  0  0  0  0
  147.1580  155.9210  133.6090 C   0  0  0  0  0  0  0  0  0  0  0  0
  148.1130  156.7780  133.1130 C   0  0  0  0  0  0  0  0  0  0  0  0
  147.4730  158.0100  132.9890 C   0  0  0  0  0  0  0  0  0  0  0  0
  148.1650  159.2480  132.5690 C   0  0  0  0  0  0  0  0  0  0  0  0
  147.5230  160.1500  131.6710 N   0  0  0  0  0  0  0  0  0  0  0  0
  149.3320  159.5020  132.9660 O   0  0  0  0  0  0  0  0  0  0  0  0
  146.1720  157.9150  133.3840 N   0  0  0  0  0  0  0  0  0  0  0  0
  145.1630  158.9360  133.3610 C   0  0  0  0  0  0  0  0  0  0  0  0
  145.4610  160.1180  133.6790 O   0  0  0  0  0  0  0  0  0  0  0  0
  143.8610  158.6050  132.9540 O   0  0  0  0  0  0  0  0  0  0  0  0
  142.6420  158.9870  133.6070 C   0  0  0  0  0  0  0  0  0  0  0  0
  141.4210  158.5860  132.7560 C   0  0  0  0  0  0  0  0  0  0  0  0
  142.6650  160.5160  133.7530 C   0  0  0  0  0  0  0  0  0  0  0  0
  142.5590  158.3540  135.0090 C   0  0  0  0  0  0  0  0  0  0  0  0
  145.9960  156.6300  133.7640 C   0  0  0  0  0  0  0  0  0  0  0  0
  144.8240  156.0100  134.2130 C   0  0  0  0  0  0  0  0  0  0  0  0
  142.0950  152.7640  133.6260 N   0  0  0  0  0  0  0  0  0  0  0  0
  142.3434  148.7625  133.0283 H   0  0  0  0  0  0  0  0  0  0  0  0
  141.2298  148.5301  131.6381 H   0  0  0  0  0  0  0  0  0  0  0  0
  142.3929  149.8989  131.6381 H   0  0  0  0  0  0  0  0  0  0  0  0
  139.7271  149.6470  132.9319 H   0  0  0  0  0  0  0  0  0  0  0  0
  141.0232  150.3383  133.9862 H   0  0  0  0  0  0  0  0  0  0  0  0
  140.2270  151.4910  131.2850 H   0  0  0  0  0  0  0  0  0  0  0  0
  139.2290  156.4337  134.3392 H   0  0  0  0  0  0  0  0  0  0  0  0
  139.9951  156.9138  132.7871 H   0  0  0  0  0  0  0  0  0  0  0  0
  138.5929  155.7911  132.7871 H   0  0  0  0  0  0  0  0  0  0  0  0
  141.8852  155.9727  134.6696 H   0  0  0  0  0  0  0  0  0  0  0  0
  143.7250  153.4470  135.9000 H   0  0  0  0  0  0  0  0  0  0  0  0
  146.1183  152.8468  134.6192 H   0  0  0  0  0  0  0  0  0  0  0  0
  148.1850  154.0125  133.7789 H   0  0  0  0  0  0  0  0  0  0  0  0
  149.1587  156.5414  132.8668 H   0  0  0  0  0  0  0  0  0  0  0  0
  146.5570  160.4980  131.8580 H   0  0  0  0  0  0  0  0  0  0  0  0
  140.5866  158.3119  133.4183 H   0  0  0  0  0  0  0  0  0  0  0  0
  141.1223  159.4332  132.1212 H   0  0  0  0  0  0  0  0  0  0  0  0
  141.6828  157.7266  132.1212 H   0  0  0  0  0  0  0  0  0  0  0  0
  142.6690  160.7824  134.8203 H   0  0  0  0  0  0  0  0  0  0  0  0
  143.5693  160.9168  133.2717 H   0  0  0  0  0  0  0  0  0  0  0  0
  141.7732  160.9438  133.2717 H   0  0  0  0  0  0  0  0  0  0  0  0
  142.6620  159.1392  135.7725 H   0  0  0  0  0  0  0  0  0  0  0  0
  141.5874  157.8522  135.1278 H   0  0  0  0  0  0  0  0  0  0  0  0
  143.3684  157.6187  135.1278 H   0  0  0  0  0  0  0  0  0  0  0  0
  143.8855  156.5771  134.3003 H   0  0  0  0  0  0  0  0  0  0  0  0
  1  2  1  0
  2  3  1  0
  3  4  1  0
  4  5  2  0
  5  6  1  0
  6  7  1  0
  6  8  2  0
  8  9  1  0
  9 10  1  0
 10 11  1  0
 11 12  2  0
 12 13  1  0
 13 14  2  0
 14 15  1  0
 15 16  2  0
 16 17  1  0
 17 18  1  0
 17 19  2  0
 16 20  1  0
 20 21  1  0
 21 22  2  0
 21 23  1  0
 23 24  1  0
 24 25  1  0
 24 26  1  0
 24 27  1  0
 20 28  1  0
 28 29  2  0
  9 30  2  0
 30  4  1  0
 29 11  1  0
 28 14  1  0
  1 31  1  0
  1 32  1  0
  1 33  1  0
  2 34  1  0
  2 35  1  0
  3 36  1  0
  7 37  1  0
  7 38  1  0
  7 39  1  0
  8 40  1  0
 10 41  1  0
 12 42  1  0
 13 43  1  0
 15 44  1  0
 18 45  1  0
 25 46  1  0
 25 47  1  0
 25 48  1  0
 26 49  1  0
 26 50  1  0
 26 51  1  0
 27 52  1  0
 27 53  1  0
 27 54  1  0
 29 55  1  0
M  CHG  1  18  -1
M  END
>  <UniqueID>  (43) 
43

>  <SMILES>  (43) 
CCNc1nc(C)cc(Nc2ccc3cc(C([NH-])=O)n(C(=O)OC(C)(C)C)c3c2)n1

>  <Energy>  (43) 
87.99098133665824

>  <Genealogy>  (43) 
CCNc1nc(C)cc(Nc2ccc3cc(C([NH-])=O)n(C(=O)OC(C)(C)C)c3c2)n1 (protonated)
CCNc1nc(C)cc(Nc2ccc3cc(C([NH-])=O)n(C(=O)OC(C)(C)C)c3c2)n1 (3D coordinates assigned)
CCNc1nc(C)cc(Nc2ccc3cc(C([NH-])=O)n(C(=O)OC(C)(C)C)c3c2)n1 (optimized conformer: 87.99098133665824 kcal/mol)

>  <smiles>  (43) 
CCNc1nc(C)cc(Nc2ccc3cc(C(N)=O)n(C(=O)OC(C)(C)C)c3c2)n1

>  <score_type>  (43) 
oracle

>  <origin>  (43) 
adg

>  <m_score__min__energy>  (43) 
-8.9199999999999999

>  <m_primary>  (43) 
energy

$$$$
43:0
     RDKit          3D

 51 53  0  0  0  0  0  0  0  0999 V2000
  141.7560  157.6070  135.4570 C   0  0  0  0  0  0  0  0  0  0  0  0
  142.4500  158.2850  134.2600 C   0  0  0  0  0  0  0  0  0  0  0  0
  141.9750  159.7420  134.1090 C   0  0  0  0  0  0  0  0  0  0  0  0
  142.0980  157.5110  132.9810 C   0  0  0  0  0  0  0  0  0  0  0  0
  143.8760  158.2290  134.4080 O   0  0  0  0  0  0  0  0  0  0  0  0
  144.8280  158.4900  133.4110 C   0  0  0  0  0  0  0  0  0  0  0  0
  144.6820  159.4550  132.6130 O   0  0  0  0  0  0  0  0  0  0  0  0
  145.9920  157.6540  133.3140 N   0  0  0  0  0  0  0  0  0  0  0  0
  147.3000  158.0320  133.3920 C   0  0  0  0  0  0  0  0  0  0  0  0
  147.7890  159.4280  133.4480 C   0  0  0  0  0  0  0  0  0  0  0  0
  147.0460  160.4860  132.8410 N   0  0  0  0  0  0  0  0  0  0  0  0
  148.8550  159.7010  134.0600 O   0  0  0  0  0  0  0  0  0  0  0  0
  148.1340  156.9180  133.3170 C   0  0  0  0  0  0  0  0  0  0  0  0
  147.2900  155.8380  133.1870 C   0  0  0  0  0  0  0  0  0  0  0  0
  147.5820  154.4830  133.0790 C   0  0  0  0  0  0  0  0  0  0  0  0
  146.5070  153.5820  132.9810 C   0  0  0  0  0  0  0  0  0  0  0  0
  145.1660  154.0450  133.0010 C   0  0  0  0  0  0  0  0  0  0  0  0
  144.0380  153.0850  132.9090 C   0  0  0  0  0  0  0  0  0  0  0  0
  144.2820  151.7120  132.7200 C   0  0  0  0  0  0  0  0  0  0  0  0
  143.2190  150.8090  132.6270 C   0  0  0  0  0  0  0  0  0  0  0  0
  141.8980  151.2610  132.7240 C   0  0  0  0  0  0  0  0  0  0  0  0
  140.5600  150.1260  132.5860 S   0  0  0  0  0  0  0  0  0  0  0  0
  140.9400  148.9150  131.3400 C   0  0  0  0  0  0  0  0  0  0  0  0
  139.3040  150.8600  132.2090 O   0  0  0  0  0  0  0  0  0  0  0  0
  140.3380  149.4370  133.9040 O   0  0  0  0  0  0  0  0  0  0  0  0
  141.6470  152.6270  132.9050 C   0  0  0  0  0  0  0  0  0  0  0  0
  142.7070  153.5320  132.9980 C   0  0  0  0  0  0  0  0  0  0  0  0
  144.9130  155.4340  133.1140 C   0  0  0  0  0  0  0  0  0  0  0  0
  146.0040  156.3080  133.1890 C   0  0  0  0  0  0  0  0  0  0  0  0
  142.1671  158.0087  136.3949 H   0  0  0  0  0  0  0  0  0  0  0  0
  140.6751  157.8066  135.4153 H   0  0  0  0  0  0  0  0  0  0  0  0
  141.9303  156.5217  135.4153 H   0  0  0  0  0  0  0  0  0  0  0  0
  141.8304  160.1856  135.1051 H   0  0  0  0  0  0  0  0  0  0  0  0
  142.7316  160.3190  133.5570 H   0  0  0  0  0  0  0  0  0  0  0  0
  141.0238  159.7622  133.5570 H   0  0  0  0  0  0  0  0  0  0  0  0
  141.6564  156.5400  133.2498 H   0  0  0  0  0  0  0  0  0  0  0  0
  141.3752  158.0911  132.3886 H   0  0  0  0  0  0  0  0  0  0  0  0
  143.0103  157.3475  132.3886 H   0  0  0  0  0  0  0  0  0  0  0  0
  147.3800  161.4730  132.9210 H   0  0  0  0  0  0  0  0  0  0  0  0
  146.1890  160.2950  132.2770 H   0  0  0  0  0  0  0  0  0  0  0  0
  149.2333  156.9044  133.3539 H   0  0  0  0  0  0  0  0  0  0  0  0
  148.6226  154.1266  133.0705 H   0  0  0  0  0  0  0  0  0  0  0  0
  146.7082  152.5046  132.8877 H   0  0  0  0  0  0  0  0  0  0  0  0
  145.3168  151.3467  132.6449 H   0  0  0  0  0  0  0  0  0  0  0  0
  143.4217  149.7383  132.4769 H   0  0  0  0  0  0  0  0  0  0  0  0
  141.2359  147.9721  131.8232 H   0  0  0  0  0  0  0  0  0  0  0  0
  140.0526  148.7430  130.7131 H   0  0  0  0  0  0  0  0  0  0  0  0
  141.7665  149.2808  130.7131 H   0  0  0  0  0  0  0  0  0  0  0  0
  140.6105  152.9888  132.9742 H   0  0  0  0  0  0  0  0  0  0  0  0
  142.4994  154.6026  133.1420 H   0  0  0  0  0  0  0  0  0  0  0  0
  143.8824  155.8174  133.1422 H   0  0  0  0  0  0  0  0  0  0  0  0
  1  2  1  0
  2  3  1  0
  2  4  1  0
  2  5  1  0
  5  6  1  0
  6  7  2  0
  6  8  1  0
  8  9  1  0
  9 10  1  0
 10 11  1  0
 10 12  2  0
  9 13  2  0
 13 14  1  0
 14 15  2  0
 15 16  1  0
 16 17  2  0
 17 18  1  0
 18 19  2  0
 19 20  1  0
 20 21  2  0
 21 22  1  0
 22 23  1  0
 22 24  2  0
 22 25  2  0
 21 26  1  0
 26 27  2  0
 17 28  1  0
 28 29  2  0
 29  8  1  0
 29 14  1  0
 27 18  1  0
  1 30  1  0
  1 31  1  0
  1 32  1  0
  3 33  1  0
  3 34  1  0
  3 35  1  0
  4 36  1  0
  4 37  1  0
  4 38  1  0
 11 39  1  0
 11 40  1  0
 13 41  1  0
 15 42  1  0
 16 43  1  0
 19 44  1  0
 20 45  1  0
 23 46  1  0
 23 47  1  0
 23 48  1  0
 26 49  1  0
 27 50  1  0
 28 51  1  0
M  END
>  <UniqueID>  (44) 
44

>  <SMILES>  (44) 
CC(C)(C)OC(=O)n1c(C(N)=O)cc2ccc(-c3ccc(S(C)(=O)=O)cc3)cc21

>  <Energy>  (44) 
88.89166125850953

>  <Genealogy>  (44) 
CC(C)(C)OC(=O)n1c(C(N)=O)cc2ccc(-c3ccc(S(C)(=O)=O)cc3)cc21 (3D coordinates assigned)
CC(C)(C)OC(=O)n1c(C(N)=O)cc2ccc(-c3ccc(S(C)(=O)=O)cc3)cc21 (optimized conformer: 88.89166125850953 kcal/mol)

>  <smiles>  (44) 
CC(C)(C)OC(=O)n1c(C(N)=O)cc2ccc(-c3ccc(S(C)(=O)=O)cc3)cc21

>  <score_type>  (44) 
oracle

>  <origin>  (44) 
adg

>  <m_score__min__energy>  (44) 
-9.7799999999999994

>  <m_primary>  (44) 
energy

$$$$
44:0
     RDKit          3D

 39 41  0  0  0  0  0  0  0  0999 V2000
  148.2310  160.4010  131.2590 C   0  0  0  0  0  0  0  0  0  0  0  0
  147.6690  159.7820  132.5330 C   0  0  0  0  0  0  0  0  0  0  0  0
  146.2530  159.6390  132.4390 O   0  0  0  0  0  0  0  0  0  0  0  0
  145.4890  158.9060  133.3560 C   0  0  0  0  0  0  0  0  0  0  0  0
  146.0040  157.9490  133.9960 O   0  0  0  0  0  0  0  0  0  0  0  0
  144.1030  159.2280  133.5440 N   0  0  0  0  0  0  0  0  0  0  0  0
  143.5540  160.4510  133.7980 C   0  0  0  0  0  0  0  0  0  0  0  0
  144.2680  161.7450  133.7800 C   0  0  0  0  0  0  0  0  0  0  0  0
  145.6550  161.8220  134.0950 N   0  0  0  0  0  0  0  0  0  0  0  0
  143.6550  162.7910  133.4350 O   0  0  0  0  0  0  0  0  0  0  0  0
  142.1800  160.3350  134.0020 C   0  0  0  0  0  0  0  0  0  0  0  0
  141.9010  158.9960  133.8540 C   0  0  0  0  0  0  0  0  0  0  0  0
  140.6920  158.3170  133.9670 C   0  0  0  0  0  0  0  0  0  0  0  0
  140.7010  156.9230  133.7960 C   0  0  0  0  0  0  0  0  0  0  0  0
  141.9080  156.2310  133.5150 C   0  0  0  0  0  0  0  0  0  0  0  0
  141.8880  154.7540  133.3580 C   0  0  0  0  0  0  0  0  0  0  0  0
  143.0650  153.9890  133.4010 C   0  0  0  0  0  0  0  0  0  0  0  0
  143.0010  152.6020  133.2450 C   0  0  0  0  0  0  0  0  0  0  0  0
  144.0690  151.9330  133.2880 O   0  0  0  0  0  0  0  0  0  0  0  0
  141.7550  151.9710  133.0380 C   0  0  0  0  0  0  0  0  0  0  0  0
  141.6260  150.5000  132.8680 C   0  0  0  0  0  0  0  0  0  0  0  0
  142.2550  149.8950  131.9600 O   0  0  0  0  0  0  0  0  0  0  0  0
  140.8020  149.7660  133.7150 O   0  0  0  0  0  0  0  0  0  0  0  0
  140.6060  152.7780  132.9890 C   0  0  0  0  0  0  0  0  0  0  0  0
  140.7000  154.1230  133.1460 N   0  0  0  0  0  0  0  0  0  0  0  0
  143.1200  156.9590  133.4200 C   0  0  0  0  0  0  0  0  0  0  0  0
  143.0760  158.3500  133.5760 C   0  0  0  0  0  0  0  0  0  0  0  0
  148.9491  161.1919  131.5215 H   0  0  0  0  0  0  0  0  0  0  0  0
  148.7398  159.6252  130.6679 H   0  0  0  0  0  0  0  0  0  0  0  0
  147.4099  160.8327  130.6679 H   0  0  0  0  0  0  0  0  0  0  0  0
  148.1231  158.7917  132.6846 H   0  0  0  0  0  0  0  0  0  0  0  0
  147.9034  160.4418  133.3813 H   0  0  0  0  0  0  0  0  0  0  0  0
  146.3820  161.6040  133.3780 H   0  0  0  0  0  0  0  0  0  0  0  0
  141.4696  161.1426  134.2324 H   0  0  0  0  0  0  0  0  0  0  0  0
  139.7576  158.8555  134.1836 H   0  0  0  0  0  0  0  0  0  0  0  0
  139.7599  156.3599  133.8810 H   0  0  0  0  0  0  0  0  0  0  0  0
  144.0362  154.4813  133.5573 H   0  0  0  0  0  0  0  0  0  0  0  0
  139.6218  152.3159  132.8220 H   0  0  0  0  0  0  0  0  0  0  0  0
  144.0728  156.4438  133.2283 H   0  0  0  0  0  0  0  0  0  0  0  0
  1  2  1  0
  2  3  1  0
  3  4  1  0
  4  5  2  0
  4  6  1  0
  6  7  1  0
  7  8  1  0
  8  9  1  0
  8 10  2  0
  7 11  2  0
 11 12  1  0
 12 13  2  0
 13 14  1  0
 14 15  2  0
 15 16  1  0
 16 17  2  0
 17 18  1  0
 18 19  2  0
 18 20  1  0
 20 21  1  0
 21 22  2  0
 21 23  1  0
 20 24  2  0
 24 25  1  0
 15 26  1  0
 26 27  2  0
 27  6  1  0
 27 12  1  0
 25 16  1  0
  1 28  1  0
  1 29  1  0
  1 30  1  0
  2 31  1  0
  2 32  1  0
  9 33  1  0
 11 34  1  0
 13 35  1  0
 14 36  1  0
 17 37  1  0
 24 38  1  0
 26 39  1  0
M  CHG  3   9  -1  23  -1  25  -1
M  END
>  <UniqueID>  (45) 
45

>  <SMILES>  (45) 
CCOC(=O)n1c(C([NH-])=O)cc2ccc(-c3cc(=O)c(C(=O)[O-])c[n-]3)cc21

>  <Energy>  (45) 
84.28457168940444

>  <Genealogy>  (45) 
CCOC(=O)n1c(C([NH-])=O)cc2ccc(-c3cc(=O)c(C(=O)[O-])c[n-]3)cc21 (protonated)
CCOC(=O)n1c(C([NH-])=O)cc2ccc(-c3cc(=O)c(C(=O)[O-])c[n-]3)cc21 (3D coordinates assigned)
CCOC(=O)n1c(C([NH-])=O)cc2ccc(-c3cc(=O)c(C(=O)[O-])c[n-]3)cc21 (optimized conformer: 84.28457168940444 kcal/mol)

>  <smiles>  (45) 
CCOC(=O)n1c(C(N)=O)cc2ccc(-c3cc(=O)c(C(=O)O)c[nH]3)cc21

>  <score_type>  (45) 
oracle

>  <origin>  (45) 
adg

>  <m_score__min__energy>  (45) 
-7.0899999999999999

>  <m_primary>  (45) 
energy

$$$$
45:0
     RDKit          3D

 65 68  0  0  0  0  0  0  0  0999 V2000
  149.2320  159.8880  130.6930 C   0  0  0  0  0  0  0  0  0  0  0  0
  148.1450  160.0870  131.4470 C   0  0  0  0  0  0  0  0  0  0  0  0
  148.0110  159.4870  132.8210 C   0  0  0  0  0  0  0  0  0  0  0  0
  146.5640  159.1720  133.1400 C   0  0  0  0  0  0  0  0  0  0  0  0
  145.6680  160.2350  133.3250 C   0  0  0  0  0  0  0  0  0  0  0  0
  144.3180  160.0010  133.5940 C   0  0  0  0  0  0  0  0  0  0  0  0
  143.8380  158.6810  133.7510 C   0  0  0  0  0  0  0  0  0  0  0  0
  144.7320  157.6140  133.5320 C   0  0  0  0  0  0  0  0  0  0  0  0
  146.0850  157.8450  133.2420 C   0  0  0  0  0  0  0  0  0  0  0  0
  146.9620  156.6810  132.9990 C   0  0  0  0  0  0  0  0  0  0  0  0
  148.3500  156.8770  132.8080 C   0  0  0  0  0  0  0  0  0  0  0  0
  149.2030  155.7780  132.6130 C   0  0  0  0  0  0  0  0  0  0  0  0
  148.6360  154.5060  132.5990 C   0  0  0  0  0  0  0  0  0  0  0  0
  149.2310  153.2780  132.4430 C   0  0  0  0  0  0  0  0  0  0  0  0
  148.2010  152.3460  132.5340 C   0  0  0  0  0  0  0  0  0  0  0  0
  148.4340  150.8940  132.3530 C   0  0  0  0  0  0  0  0  0  0  0  0
  147.3190  150.0160  132.2210 N   0  0  0  0  0  0  0  0  0  0  0  0
  149.6040  150.4220  132.2610 O   0  0  0  0  0  0  0  0  0  0  0  0
  147.0030  152.9760  132.7310 N   0  0  0  0  0  0  0  0  0  0  0  0
  145.6860  152.3960  132.8070 C   0  0  0  0  0  0  0  0  0  0  0  0
  145.2640  151.6830  131.8530 O   0  0  0  0  0  0  0  0  0  0  0  0
  144.8670  152.6560  133.9150 O   0  0  0  0  0  0  0  0  0  0  0  0
  143.6360  153.3950  133.9110 C   0  0  0  0  0  0  0  0  0  0  0  0
  142.4330  152.4630  134.1730 C   0  0  0  0  0  0  0  0  0  0  0  0
  143.4760  154.1460  132.5720 C   0  0  0  0  0  0  0  0  0  0  0  0
  143.7210  154.4220  135.0550 C   0  0  0  0  0  0  0  0  0  0  0  0
  147.2920  154.3000  132.7630 C   0  0  0  0  0  0  0  0  0  0  0  0
  146.4210  155.3780  132.9630 C   0  0  0  0  0  0  0  0  0  0  0  0
  142.3530  158.4270  134.0540 C   0  0  0  0  0  0  0  0  0  0  0  0
  141.6540  157.9420  132.7650 C   0  0  0  0  0  0  0  0  0  0  0  0
  142.1950  157.3470  135.1510 C   0  0  0  0  0  0  0  0  0  0  0  0
  141.6660  159.7230  134.5790 C   0  0  0  0  0  0  0  0  0  0  0  0
  142.0390  160.9440  133.7360 C   0  0  0  0  0  0  0  0  0  0  0  0
  143.4550  161.0950  133.7070 O   0  0  0  0  0  0  0  0  0  0  0  0
  149.2981  160.3411  129.6928 H   0  0  0  0  0  0  0  0  0  0  0  0
  150.0597  159.2712  131.0732 H   0  0  0  0  0  0  0  0  0  0  0  0
  147.3263  160.7064  131.0519 H   0  0  0  0  0  0  0  0  0  0  0  0
  148.5992  158.5586  132.8665 H   0  0  0  0  0  0  0  0  0  0  0  0
  148.3805  160.2154  133.5578 H   0  0  0  0  0  0  0  0  0  0  0  0
  146.0347  161.2698  133.2571 H   0  0  0  0  0  0  0  0  0  0  0  0
  144.3618  156.5798  133.5895 H   0  0  0  0  0  0  0  0  0  0  0  0
  148.7638  157.8962  132.8122 H   0  0  0  0  0  0  0  0  0  0  0  0
  150.2854  155.9178  132.4756 H   0  0  0  0  0  0  0  0  0  0  0  0
  150.2995  153.0735  132.2800 H   0  0  0  0  0  0  0  0  0  0  0  0
  146.6040  150.1630  131.4750 H   0  0  0  0  0  0  0  0  0  0  0  0
  142.2865  152.3495  135.2573 H   0  0  0  0  0  0  0  0  0  0  0  0
  141.5277  152.8978  133.7242 H   0  0  0  0  0  0  0  0  0  0  0  0
  142.6279  151.4778  133.7242 H   0  0  0  0  0  0  0  0  0  0  0  0
  143.2505  155.2043  132.7698 H   0  0  0  0  0  0  0  0  0  0  0  0
  144.4102  154.0716  131.9960 H   0  0  0  0  0  0  0  0  0  0  0  0
  142.6533  153.6973  131.9960 H   0  0  0  0  0  0  0  0  0  0  0  0
  143.6777  153.8986  136.0215 H   0  0  0  0  0  0  0  0  0  0  0  0
  144.6681  154.9765  134.9804 H   0  0  0  0  0  0  0  0  0  0  0  0
  142.8779  155.1246  134.9804 H   0  0  0  0  0  0  0  0  0  0  0  0
  145.3408  155.2132  133.0891 H   0  0  0  0  0  0  0  0  0  0  0  0
  140.7769  157.3334  133.0303 H   0  0  0  0  0  0  0  0  0  0  0  0
  141.3316  158.8115  132.1733 H   0  0  0  0  0  0  0  0  0  0  0  0
  142.3556  157.3357  132.1733 H   0  0  0  0  0  0  0  0  0  0  0  0
  142.2640  157.8185  136.1424 H   0  0  0  0  0  0  0  0  0  0  0  0
  141.2157  156.8574  135.0452 H   0  0  0  0  0  0  0  0  0  0  0  0
  142.9931  156.5974  135.0452 H   0  0  0  0  0  0  0  0  0  0  0  0
  140.5750  159.5866  134.5452 H   0  0  0  0  0  0  0  0  0  0  0  0
  142.0101  159.8999  135.6087 H   0  0  0  0  0  0  0  0  0  0  0  0
  141.6650  160.8080  132.7105 H   0  0  0  0  0  0  0  0  0  0  0  0
  141.5865  161.8435  134.1788 H   0  0  0  0  0  0  0  0  0  0  0  0
  1  2  2  0
  2  3  1  0
  3  4  1  0
  4  5  2  0
  5  6  1  0
  6  7  2  0
  7  8  1  0
  8  9  2  0
  9 10  1  0
 10 11  2  0
 11 12  1  0
 12 13  2  0
 13 14  1  0
 14 15  2  0
 15 16  1  0
 16 17  1  0
 16 18  2  0
 15 19  1  0
 19 20  1  0
 20 21  2  0
 20 22  1  0
 22 23  1  0
 23 24  1  0
 23 25  1  0
 23 26  1  0
 19 27  1  0
 27 28  2  0
  7 29  1  0
 29 30  1  0
 29 31  1  0
 29 32  1  0
 32 33  1  0
 33 34  1  0
  9  4  1  0
 28 10  1  0
 34  6  1  0
 27 13  1  0
  1 35  1  0
  1 36  1  0
  2 37  1  0
  3 38  1  0
  3 39  1  0
  5 40  1  0
  8 41  1  0
 11 42  1  0
 12 43  1  0
 14 44  1  0
 17 45  1  0
 24 46  1  0
 24 47  1  0
 24 48  1  0
 25 49  1  0
 25 50  1  0
 25 51  1  0
 26 52  1  0
 26 53  1  0
 26 54  1  0
 28 55  1  0
 30 56  1  0
 30 57  1  0
 30 58  1  0
 31 59  1  0
 31 60  1  0
 31 61  1  0
 32 62  1  0
 32 63  1  0
 33 64  1  0
 33 65  1  0
M  CHG  1  17  -1
M  END
>  <UniqueID>  (46) 
46

>  <SMILES>  (46) 
C=CCc1cc2c(cc1-c1ccc3cc(C([NH-])=O)n(C(=O)OC(C)(C)C)c3c1)C(C)(C)CCO2

>  <Energy>  (46) 
108.99547926964847

>  <Genealogy>  (46) 
C=CCc1cc2c(cc1-c1ccc3cc(C([NH-])=O)n(C(=O)OC(C)(C)C)c3c1)C(C)(C)CCO2 (protonated)
C=CCc1cc2c(cc1-c1ccc3cc(C([NH-])=O)n(C(=O)OC(C)(C)C)c3c1)C(C)(C)CCO2 (3D coordinates assigned)
C=CCc1cc2c(cc1-c1ccc3cc(C([NH-])=O)n(C(=O)OC(C)(C)C)c3c1)C(C)(C)CCO2 (nonaromatic ring conformer: 108.99547926964847 kcal/mol)

>  <smiles>  (46) 
C=CCc1cc2c(cc1-c1ccc3cc(C(N)=O)n(C(=O)OC(C)(C)C)c3c1)C(C)(C)CCO2

>  <score_type>  (46) 
oracle

>  <origin>  (46) 
adg

>  <m_score__min__energy>  (46) 
-10.41

>  <m_primary>  (46) 
energy

$$$$
46:0
     RDKit          3D

 41 43  0  0  0  0  0  0  0  0999 V2000
  148.9330  158.9880  129.9420 C   0  0  0  0  0  0  0  0  0  0  0  0
  148.7170  159.8890  131.1730 C   0  0  0  0  0  0  0  0  0  0  0  0
  149.5380  159.3320  132.3460 C   0  0  0  0  0  0  0  0  0  0  0  0
  149.1800  161.3290  130.8800 C   0  0  0  0  0  0  0  0  0  0  0  0
  147.3400  159.8720  131.5740 O   0  0  0  0  0  0  0  0  0  0  0  0
  146.8530  160.0000  132.8830 C   0  0  0  0  0  0  0  0  0  0  0  0
  147.3520  160.8390  133.6820 O   0  0  0  0  0  0  0  0  0  0  0  0
  145.7530  159.1820  133.3070 N   0  0  0  0  0  0  0  0  0  0  0  0
  144.4900  159.5770  133.6380 C   0  0  0  0  0  0  0  0  0  0  0  0
  144.0260  160.9720  133.7820 C   0  0  0  0  0  0  0  0  0  0  0  0
  144.9400  162.0220  134.0890 N   0  0  0  0  0  0  0  0  0  0  0  0
  142.7980  161.2340  133.6810 O   0  0  0  0  0  0  0  0  0  0  0  0
  143.6900  158.4690  133.9110 C   0  0  0  0  0  0  0  0  0  0  0  0
  144.5100  157.3760  133.7470 C   0  0  0  0  0  0  0  0  0  0  0  0
  144.2320  156.0210  133.8830 C   0  0  0  0  0  0  0  0  0  0  0  0
  145.2670  155.1060  133.6250 C   0  0  0  0  0  0  0  0  0  0  0  0
  146.5530  155.5570  133.2270 C   0  0  0  0  0  0  0  0  0  0  0  0
  147.6510  154.6040  132.9400 C   0  0  0  0  0  0  0  0  0  0  0  0
  147.5900  153.2210  132.9820 C   0  0  0  0  0  0  0  0  0  0  0  0
  148.8490  152.7780  132.6410 C   0  0  0  0  0  0  0  0  0  0  0  0
  149.6040  153.9080  132.4120 C   0  0  0  0  0  0  0  0  0  0  0  0
  148.8640  154.9780  132.5980 O   0  0  0  0  0  0  0  0  0  0  0  0
  146.7920  156.9450  133.0990 C   0  0  0  0  0  0  0  0  0  0  0  0
  145.7490  157.8330  133.3830 C   0  0  0  0  0  0  0  0  0  0  0  0
  149.1776  157.9678  130.2727 H   0  0  0  0  0  0  0  0  0  0  0  0
  148.0144  158.9671  129.3372 H   0  0  0  0  0  0  0  0  0  0  0  0
  149.7612  159.3859  129.3372 H   0  0  0  0  0  0  0  0  0  0  0  0
  149.0787  159.6436  133.2957 H   0  0  0  0  0  0  0  0  0  0  0  0
  149.5573  158.2335  132.2911 H   0  0  0  0  0  0  0  0  0  0  0  0
  150.5658  159.7200  132.2911 H   0  0  0  0  0  0  0  0  0  0  0  0
  149.3505  161.8594  131.8284 H   0  0  0  0  0  0  0  0  0  0  0  0
  150.1150  161.3029  130.3012 H   0  0  0  0  0  0  0  0  0  0  0  0
  148.4050  161.8527  130.3012 H   0  0  0  0  0  0  0  0  0  0  0  0
  145.7570  162.2220  133.4690 H   0  0  0  0  0  0  0  0  0  0  0  0
  142.6278  158.4682  134.1970 H   0  0  0  0  0  0  0  0  0  0  0  0
  143.2319  155.6752  134.1835 H   0  0  0  0  0  0  0  0  0  0  0  0
  145.0785  154.0276  133.7327 H   0  0  0  0  0  0  0  0  0  0  0  0
  146.7159  152.6033  133.2355 H   0  0  0  0  0  0  0  0  0  0  0  0
  149.1842  151.7330  132.5665 H   0  0  0  0  0  0  0  0  0  0  0  0
  150.6641  153.9135  132.1184 H   0  0  0  0  0  0  0  0  0  0  0  0
  147.7772  157.3185  132.7828 H   0  0  0  0  0  0  0  0  0  0  0  0
  1  2  1  0
  2  3  1  0
  2  4  1  0
  2  5  1  0
  5  6  1  0
  6  7  2  0
  6  8  1  0
  8  9  1  0
  9 10  1  0
 10 11  1  0
 10 12  2  0
  9 13  2  0
 13 14  1  0
 14 15  2  0
 15 16  1  0
 16 17  2  0
 17 18  1  0
 18 19  2  0
 19 20  1  0
 20 21  2  0
 21 22  1  0
 17 23  1  0
 23 24  2  0
 24  8  1  0
 24 14  1  0
 22 18  1  0
  1 25  1  0
  1 26  1  0
  1 27  1  0
  3 28  1  0
  3 29  1  0
  3 30  1  0
  4 31  1  0
  4 32  1  0
  4 33  1  0
 11 34  1  0
 13 35  1  0
 15 36  1  0
 16 37  1  0
 19 38  1  0
 20 39  1  0
 21 40  1  0
 23 41  1  0
M  CHG  1  11  -1
M  END
>  <UniqueID>  (47) 
47

>  <SMILES>  (47) 
CC(C)(C)OC(=O)n1c(C([NH-])=O)cc2ccc(-c3ccco3)cc21

>  <Energy>  (47) 
104.31078321657697

>  <Genealogy>  (47) 
CC(C)(C)OC(=O)n1c(C([NH-])=O)cc2ccc(-c3ccco3)cc21 (protonated)
CC(C)(C)OC(=O)n1c(C([NH-])=O)cc2ccc(-c3ccco3)cc21 (3D coordinates assigned)
CC(C)(C)OC(=O)n1c(C([NH-])=O)cc2ccc(-c3ccco3)cc21 (optimized conformer: 104.31078321657697 kcal/mol)

>  <smiles>  (47) 
CC(C)(C)OC(=O)n1c(C(N)=O)cc2ccc(-c3ccco3)cc21

>  <score_type>  (47) 
oracle

>  <origin>  (47) 
adg

>  <m_score__min__energy>  (47) 
-7.3600000000000003

>  <m_primary>  (47) 
energy

$$$$
47:0
     RDKit          3D

 66 68  0  0  0  0  0  0  0  0999 V2000
  141.7530  158.1210  139.0430 C   0  0  0  0  0  0  0  0  0  0  0  0
  141.7060  158.5830  137.5750 C   0  0  0  0  0  0  0  0  0  0  0  0
  140.6940  159.7150  137.3950 C   0  0  0  0  0  0  0  0  0  0  0  0
  141.4440  157.4480  136.6570 N   0  0  0  0  0  0  0  0  0  0  0  0
  140.3480  157.5610  135.7040 C   0  0  0  0  0  0  0  0  0  0  0  0
  139.1740  157.6870  136.1540 O   0  0  0  0  0  0  0  0  0  0  0  0
  140.5410  157.5730  134.1820 C   0  0  0  0  0  0  0  0  0  0  0  0
  140.4890  156.1470  133.5670 C   0  0  0  0  0  0  0  0  0  0  0  0
  139.3630  158.3740  133.5530 C   0  0  0  0  0  0  0  0  0  0  0  0
  141.9000  158.2490  133.8600 C   0  0  0  0  0  0  0  0  0  0  0  0
  142.0630  159.6710  133.9500 C   0  0  0  0  0  0  0  0  0  0  0  0
  143.3050  160.2820  133.7280 C   0  0  0  0  0  0  0  0  0  0  0  0
  144.3950  159.4680  133.4500 C   0  0  0  0  0  0  0  0  0  0  0  0
  145.7150  159.8080  133.2540 C   0  0  0  0  0  0  0  0  0  0  0  0
  146.3830  158.5960  133.1060 C   0  0  0  0  0  0  0  0  0  0  0  0
  147.8520  158.4880  133.1000 C   0  0  0  0  0  0  0  0  0  0  0  0
  148.5290  157.9920  131.9470 N   0  0  0  0  0  0  0  0  0  0  0  0
  148.5170  158.9070  134.0810 O   0  0  0  0  0  0  0  0  0  0  0  0
  145.5110  157.5470  133.1720 N   0  0  0  0  0  0  0  0  0  0  0  0
  145.8300  156.1560  132.9740 C   0  0  0  0  0  0  0  0  0  0  0  0
  147.0210  155.7990  132.7540 O   0  0  0  0  0  0  0  0  0  0  0  0
  144.8090  155.2010  133.0300 O   0  0  0  0  0  0  0  0  0  0  0  0
  144.9820  153.8560  132.5980 C   0  0  0  0  0  0  0  0  0  0  0  0
  143.7110  153.0900  132.8250 C   0  0  0  0  0  0  0  0  0  0  0  0
  142.4780  153.7530  132.9410 C   0  0  0  0  0  0  0  0  0  0  0  0
  141.3030  153.0200  133.1510 C   0  0  0  0  0  0  0  0  0  0  0  0
  141.3470  151.6250  133.2360 C   0  0  0  0  0  0  0  0  0  0  0  0
  142.5700  150.9560  133.1140 C   0  0  0  0  0  0  0  0  0  0  0  0
  143.7470  151.6860  132.9080 C   0  0  0  0  0  0  0  0  0  0  0  0
  144.2930  158.1030  133.3890 C   0  0  0  0  0  0  0  0  0  0  0  0
  143.0530  157.4680  133.5530 C   0  0  0  0  0  0  0  0  0  0  0  0
  141.9970  156.1300  137.0780 C   0  0  0  0  0  0  0  0  0  0  0  0
  140.9900  155.2170  137.7950 C   0  0  0  0  0  0  0  0  0  0  0  0
  142.6520  155.3960  135.8980 C   0  0  0  0  0  0  0  0  0  0  0  0
  141.6641  158.9947  139.7054 H   0  0  0  0  0  0  0  0  0  0  0  0
  140.9207  157.4282  139.2362 H   0  0  0  0  0  0  0  0  0  0  0  0
  142.7078  157.6100  139.2362 H   0  0  0  0  0  0  0  0  0  0  0  0
  142.6963  158.9813  137.3093 H   0  0  0  0  0  0  0  0  0  0  0  0
  140.3700  160.0775  138.3817 H   0  0  0  0  0  0  0  0  0  0  0  0
  141.1616  160.5395  136.8369 H   0  0  0  0  0  0  0  0  0  0  0  0
  139.8224  159.3423  136.8369 H   0  0  0  0  0  0  0  0  0  0  0  0
  140.4618  155.4003  134.3743 H   0  0  0  0  0  0  0  0  0  0  0  0
  139.5867  156.0483  132.9457 H   0  0  0  0  0  0  0  0  0  0  0  0
  141.3818  155.9829  132.9457 H   0  0  0  0  0  0  0  0  0  0  0  0
  138.7392  158.7981  134.3536 H   0  0  0  0  0  0  0  0  0  0  0  0
  139.7639  159.1875  132.9305 H   0  0  0  0  0  0  0  0  0  0  0  0
  138.7538  157.7021  132.9305 H   0  0  0  0  0  0  0  0  0  0  0  0
  141.1933  160.2968  134.1990 H   0  0  0  0  0  0  0  0  0  0  0  0
  143.4130  161.3758  133.7728 H   0  0  0  0  0  0  0  0  0  0  0  0
  146.1478  160.8188  133.2214 H   0  0  0  0  0  0  0  0  0  0  0  0
  148.2220  157.1050  131.4960 H   0  0  0  0  0  0  0  0  0  0  0  0
  145.2309  153.8442  131.5266 H   0  0  0  0  0  0  0  0  0  0  0  0
  145.7982  153.3896  133.1692 H   0  0  0  0  0  0  0  0  0  0  0  0
  142.4352  154.8497  132.8668 H   0  0  0  0  0  0  0  0  0  0  0  0
  140.3410  153.5443  133.2495 H   0  0  0  0  0  0  0  0  0  0  0  0
  140.4210  151.0539  133.3986 H   0  0  0  0  0  0  0  0  0  0  0  0
  142.6067  149.8586  133.1798 H   0  0  0  0  0  0  0  0  0  0  0  0
  144.7069  151.1578  132.8103 H   0  0  0  0  0  0  0  0  0  0  0  0
  142.9707  156.3764  133.4456 H   0  0  0  0  0  0  0  0  0  0  0  0
  142.7662  156.3702  137.8268 H   0  0  0  0  0  0  0  0  0  0  0  0
  141.1082  155.3242  138.8834 H   0  0  0  0  0  0  0  0  0  0  0  0
  139.9672  155.5020  137.5074 H   0  0  0  0  0  0  0  0  0  0  0  0
  141.1738  154.1713  137.5074 H   0  0  0  0  0  0  0  0  0  0  0  0
  143.3387  154.6265  136.2805 H   0  0  0  0  0  0  0  0  0  0  0  0
  141.8730  154.9200  135.2843 H   0  0  0  0  0  0  0  0  0  0  0  0
  143.2133  156.1160  135.2843 H   0  0  0  0  0  0  0  0  0  0  0  0
  1  2  1  0
  2  3  1  0
  2  4  1  0
  4  5  1  0
  5  6  2  0
  5  7  1  0
  7  8  1  0
  7  9  1  0
  7 10  1  0
 10 11  2  0
 11 12  1  0
 12 13  2  0
 13 14  1  0
 14 15  2  0
 15 16  1  0
 16 17  1  0
 16 18  2  0
 15 19  1  0
 19 20  1  0
 20 21  2  0
 20 22  1  0
 22 23  1  0
 23 24  1  0
 24 25  2  0
 25 26  1  0
 26 27  2  0
 27 28  1  0
 28 29  2  0
 19 30  1  0
 30 31  2  0
  4 32  1  0
 32 33  1  0
 32 34  1  0
 31 10  1  0
 30 13  1  0
 29 24  1  0
  1 35  1  0
  1 36  1  0
  1 37  1  0
  2 38  1  0
  3 39  1  0
  3 40  1  0
  3 41  1  0
  8 42  1  0
  8 43  1  0
  8 44  1  0
  9 45  1  0
  9 46  1  0
  9 47  1  0
 11 48  1  0
 12 49  1  0
 14 50  1  0
 17 51  1  0
 23 52  1  0
 23 53  1  0
 25 54  1  0
 26 55  1  0
 27 56  1  0
 28 57  1  0
 29 58  1  0
 31 59  1  0
 32 60  1  0
 33 61  1  0
 33 62  1  0
 33 63  1  0
 34 64  1  0
 34 65  1  0
 34 66  1  0
M  CHG  1  17  -1
M  END
>  <UniqueID>  (48) 
48

>  <SMILES>  (48) 
CC(C)N(C(=O)C(C)(C)c1ccc2cc(C([NH-])=O)n(C(=O)OCc3ccccc3)c2c1)C(C)C

>  <Energy>  (48) 
114.93149166476128

>  <Genealogy>  (48) 
CC(C)N(C(=O)C(C)(C)c1ccc2cc(C([NH-])=O)n(C(=O)OCc3ccccc3)c2c1)C(C)C (protonated)
CC(C)N(C(=O)C(C)(C)c1ccc2cc(C([NH-])=O)n(C(=O)OCc3ccccc3)c2c1)C(C)C (3D coordinates assigned)
CC(C)N(C(=O)C(C)(C)c1ccc2cc(C([NH-])=O)n(C(=O)OCc3ccccc3)c2c1)C(C)C (optimized conformer: 114.93149166476128 kcal/mol)

>  <smiles>  (48) 
CC(C)N(C(=O)C(C)(C)c1ccc2cc(C(N)=O)n(C(=O)OCc3ccccc3)c2c1)C(C)C

>  <score_type>  (48) 
oracle

>  <origin>  (48) 
adg

>  <m_score__min__energy>  (48) 
-10.32

>  <m_primary>  (48) 
energy

$$$$
48:0
     RDKit          3D

 76 79  0  0  0  0  0  0  0  0999 V2000
  149.6190  157.0500  133.0580 H   0  0  0  0  0  0  0  0  0  0  0  0
  149.6020  157.6800  132.2270 N   0  0  0  0  0  0  0  0  0  0  0  0
  149.0610  158.9980  132.3120 C   0  0  0  0  0  0  0  0  0  0  0  0
  149.7730  159.9790  131.9690 O   0  0  0  0  0  0  0  0  0  0  0  0
  147.6970  159.1980  132.8440 C   0  0  0  0  0  0  0  0  0  0  0  0
  147.1030  160.4510  132.9700 C   0  0  0  0  0  0  0  0  0  0  0  0
  147.5622  161.4308  132.7721 H   0  0  0  0  0  0  0  0  0  0  0  0
  145.8190  160.2010  133.3950 C   0  0  0  0  0  0  0  0  0  0  0  0
  144.7920  161.0880  133.6890 C   0  0  0  0  0  0  0  0  0  0  0  0
  144.9334  162.1737  133.5826 H   0  0  0  0  0  0  0  0  0  0  0  0
  143.5680  160.5580  134.1260 C   0  0  0  0  0  0  0  0  0  0  0  0
  142.7350  161.2372  134.3600 H   0  0  0  0  0  0  0  0  0  0  0  0
  143.3910  159.1560  134.2700 C   0  0  0  0  0  0  0  0  0  0  0  0
  142.1260  158.6240  134.7220 N   0  0  0  0  0  0  0  0  0  0  0  0
  141.4400  157.5730  133.9580 C   0  0  0  0  0  0  0  0  0  0  0  0
  140.6925  158.0408  133.3004 H   0  0  0  0  0  0  0  0  0  0  0  0
  142.1945  157.0274  133.3723 H   0  0  0  0  0  0  0  0  0  0  0  0
  140.7290  156.5640  134.8850 C   0  0  0  0  0  0  0  0  0  0  0  0
  139.8642  156.1518  134.3444 H   0  0  0  0  0  0  0  0  0  0  0  0
  141.4770  155.8014  135.1478 H   0  0  0  0  0  0  0  0  0  0  0  0
  140.2450  157.1360  136.1640 N   0  0  0  0  0  0  0  0  0  0  0  0
  141.2070  156.5870  137.5200 S   0  0  0  0  0  0  0  0  0  0  0  0
  142.4040  155.8270  137.0260 O   0  0  0  0  0  0  0  0  0  0  0  0
  141.6950  157.7880  138.2780 O   0  0  0  0  0  0  0  0  0  0  0  0
  140.2440  155.6180  138.5920 N   0  0  0  0  0  0  0  0  0  0  0  0
  140.4560  154.2390  138.9040 C   0  0  0  0  0  0  0  0  0  0  0  0
  139.8790  153.7590  139.9160 O   0  0  0  0  0  0  0  0  0  0  0  0
  141.2850  153.4060  138.0810 N   0  0  0  0  0  0  0  0  0  0  0  0
  141.6660  153.7800  137.1840 H   0  0  0  0  0  0  0  0  0  0  0  0
  141.7900  152.1400  138.5190 C   0  0  0  0  0  0  0  0  0  0  0  0
  141.1370  150.9280  138.4340 C   0  0  0  0  0  0  0  0  0  0  0  0
  139.7830  150.6810  137.8550 C   0  0  0  0  0  0  0  0  0  0  0  0
  139.0549  150.5482  138.6688 H   0  0  0  0  0  0  0  0  0  0  0  0
  139.4871  151.5400  137.2348 H   0  0  0  0  0  0  0  0  0  0  0  0
  139.8095  149.7729  137.2348 H   0  0  0  0  0  0  0  0  0  0  0  0
  141.9160  150.0020  138.9520 O   0  0  0  0  0  0  0  0  0  0  0  0
  143.0250  150.5250  139.3850 N   0  0  0  0  0  0  0  0  0  0  0  0
  143.8010  149.9880  139.8370 H   0  0  0  0  0  0  0  0  0  0  0  0
  142.9870  151.8520  139.1540 C   0  0  0  0  0  0  0  0  0  0  0  0
  144.0710  152.8020  139.5550 C   0  0  0  0  0  0  0  0  0  0  0  0
  144.1276  152.8516  140.6524 H   0  0  0  0  0  0  0  0  0  0  0  0
  145.0332  152.4510  139.1537 H   0  0  0  0  0  0  0  0  0  0  0  0
  143.8492  153.8019  139.1537 H   0  0  0  0  0  0  0  0  0  0  0  0
  140.0880  158.6010  136.1350 C   0  0  0  0  0  0  0  0  0  0  0  0
  139.3428  158.8641  135.3698 H   0  0  0  0  0  0  0  0  0  0  0  0
  139.7629  158.9298  137.1331 H   0  0  0  0  0  0  0  0  0  0  0  0
  141.4060  159.3080  135.8070 C   0  0  0  0  0  0  0  0  0  0  0  0
  141.1906  160.3414  135.4978 H   0  0  0  0  0  0  0  0  0  0  0  0
  142.0397  159.2938  136.7060 H   0  0  0  0  0  0  0  0  0  0  0  0
  144.4660  158.2880  133.9630 C   0  0  0  0  0  0  0  0  0  0  0  0
  144.3575  157.1989  134.0726 H   0  0  0  0  0  0  0  0  0  0  0  0
  145.6700  158.8450  133.5170 C   0  0  0  0  0  0  0  0  0  0  0  0
  146.8190  158.2150  133.1900 N   0  0  0  0  0  0  0  0  0  0  0  0
  147.0820  156.8060  133.2930 C   0  0  0  0  0  0  0  0  0  0  0  0
  147.8900  156.3820  134.1620 O   0  0  0  0  0  0  0  0  0  0  0  0
  146.4120  155.9060  132.4560 O   0  0  0  0  0  0  0  0  0  0  0  0
  146.4470  154.4910  132.6520 C   0  0  0  0  0  0  0  0  0  0  0  0
  147.4623  154.1923  132.9520 H   0  0  0  0  0  0  0  0  0  0  0  0
  146.1677  153.9949  131.7108 H   0  0  0  0  0  0  0  0  0  0  0  0
  145.4540  154.0740  133.7460 C   0  0  0  0  0  0  0  0  0  0  0  0
  145.8784  154.3251  134.7293 H   0  0  0  0  0  0  0  0  0  0  0  0
  145.2798  152.9912  133.6614 H   0  0  0  0  0  0  0  0  0  0  0  0
  144.1330  154.7810  133.5870 C   0  0  0  0  0  0  0  0  0  0  0  0
  144.0658  155.5433  132.7968 H   0  0  0  0  0  0  0  0  0  0  0  0
  143.0290  154.5650  134.3230 C   0  0  0  0  0  0  0  0  0  0  0  0
  142.1587  155.2028  134.1090 H   0  0  0  0  0  0  0  0  0  0  0  0
  142.8680  153.5570  135.3900 C   0  0  0  0  0  0  0  0  0  0  0  0
  143.6710  153.4870  136.3600 O   0  0  0  0  0  0  0  0  0  0  0  0
  141.8080  152.6470  135.2940 O   0  0  0  0  0  0  0  0  0  0  0  0
  141.6850  151.6890  134.2420 C   0  0  0  0  0  0  0  0  0  0  0  0
  141.1139  150.8231  134.6082 H   0  0  0  0  0  0  0  0  0  0  0  0
  142.6929  151.3794  133.9286 H   0  0  0  0  0  0  0  0  0  0  0  0
  140.9650  152.2900  133.0420 C   0  0  0  0  0  0  0  0  0  0  0  0
  140.1643  152.9583  133.3917 H   0  0  0  0  0  0  0  0  0  0  0  0
  141.6809  152.8624  132.4338 H   0  0  0  0  0  0  0  0  0  0  0  0
  140.5298  151.4834  132.4338 H   0  0  0  0  0  0  0  0  0  0  0  0
  1  2  1  0
  2  3  1  0
  3  4  2  0
  3  5  1  0
  5  6  2  0
  6  7  1  0
  6  8  1  0
  8  9  2  0
  9 10  1  0
  9 11  1  0
 11 12  1  0
 11 13  2  0
 13 14  1  0
 14 15  1  0
 15 16  1  0
 15 17  1  0
 15 18  1  0
 18 19  1  0
 18 20  1  0
 18 21  1  0
 21 22  1  0
 22 23  2  0
 22 24  2  0
 22 25  1  0
 25 26  1  0
 26 27  2  0
 26 28  1  0
 28 29  1  0
 28 30  1  0
 30 31  2  0
 31 32  1  0
 32 33  1  0
 32 34  1  0
 32 35  1  0
 31 36  1  0
 36 37  1  0
 37 38  1  0
 37 39  2  0
 39 40  1  0
 40 41  1  0
 40 42  1  0
 40 43  1  0
 21 44  1  0
 44 45  1  0
 44 46  1  0
 44 47  1  0
 47 48  1  0
 47 49  1  0
 13 50  1  0
 50 51  1  0
 50 52  2  0
 52 53  1  0
 53 54  1  0
 54 55  2  0
 54 56  1  0
 56 57  1  0
 57 58  1  0
 57 59  1  0
 57 60  1  0
 60 61  1  0
 60 62  1  0
 60 63  1  0
 63 64  1  0
 63 65  2  0
 65 66  1  0
 65 67  1  0
 67 68  2  0
 67 69  1  0
 69 70  1  0
 70 71  1  0
 70 72  1  0
 70 73  1  0
 73 74  1  0
 73 75  1  0
 73 76  1  0
 53  5  1  0
 52  8  1  0
 47 14  1  0
 39 30  1  0
M  CHG  3   2  -1  25  -1  37   1
M  END
>  <UniqueID>  (49) 
49

>  <SMILES>  (49) 
CCOC(=O)/C=C\CCOC(=O)n1c(C([NH-])=O)cc2ccc(N3CCN(S(=O)(=O)[N-]C(=O)Nc4c(C)[nH+]oc4C)CC3)cc21

>  <Energy>  (49) 
160.34176162610586

>  <Genealogy>  (49) 
CCOC(=O)/C=C\CCOC(=O)n1c(C([NH-])=O)cc2ccc(N3CCN(S(=O)(=O)[N-]C(=O)Nc4c(C)[nH+]oc4C)CC3)cc21 (protonated)
CCOC(=O)/C=C\CCOC(=O)n1c(C([NH-])=O)cc2ccc(N3CCN(S(=O)(=O)[N-]C(=O)Nc4c(C)[nH+]oc4C)CC3)cc21 (cis-trans isomerization)
CCOC(=O)/C=C\CCOC(=O)n1c(C([NH-])=O)cc2ccc(N3CCN(S(=O)(=O)[N-]C(=O)Nc4c(C)[nH+]oc4C)CC3)cc21 (3D coordinates assigned)
CCOC(=O)/C=C\CCOC(=O)n1c(C([NH-])=O)cc2ccc(N3CCN(S(=O)(=O)[N-]C(=O)Nc4c(C)[nH+]oc4C)CC3)cc21 (nonaromatic ring conformer: 160.34176162610586 kcal/mol)

>  <smiles>  (49) 
CCOC(=O)/C=C\CCOC(=O)n1c(C(N)=O)cc2ccc(N3CCN(S(=O)(=O)NC(=O)Nc4c(C)noc4C)CC3)cc21

>  <score_type>  (49) 
oracle

>  <origin>  (49) 
adg

>  <m_score__min__energy>  (49) 
-11.19

>  <m_primary>  (49) 
energy

$$$$
49:0
     RDKit          3D

 50 51  0  0  0  0  0  0  0  0999 V2000
  149.9920  150.7470  130.9350 C   0  0  0  0  0  0  0  0  0  0  0  0
  149.4560  150.6090  132.3010 N   0  0  0  0  0  0  0  0  0  0  0  0
  147.9970  150.4190  132.2320 C   0  0  0  0  0  0  0  0  0  0  0  0
  149.7710  151.7980  133.1300 C   0  0  0  0  0  0  0  0  0  0  0  0
  149.8190  153.0840  132.2890 C   0  0  0  0  0  0  0  0  0  0  0  0
  148.7080  153.9840  132.6160 C   0  0  0  0  0  0  0  0  0  0  0  0
  147.7800  154.7030  132.8860 C   0  0  0  0  0  0  0  0  0  0  0  0
  146.6920  155.5910  133.1970 C   0  0  0  0  0  0  0  0  0  0  0  0
  145.4690  155.0780  133.6860 C   0  0  0  0  0  0  0  0  0  0  0  0
  144.4110  155.9460  134.0050 C   0  0  0  0  0  0  0  0  0  0  0  0
  144.6090  157.3130  133.8190 C   0  0  0  0  0  0  0  0  0  0  0  0
  143.7700  158.3750  134.0730 C   0  0  0  0  0  0  0  0  0  0  0  0
  144.4920  159.5110  133.7120 C   0  0  0  0  0  0  0  0  0  0  0  0
  143.9310  160.8780  133.7490 C   0  0  0  0  0  0  0  0  0  0  0  0
  144.7610  162.0050  134.0200 N   0  0  0  0  0  0  0  0  0  0  0  0
  142.7100  161.0580  133.4910 O   0  0  0  0  0  0  0  0  0  0  0  0
  145.7300  159.1650  133.2590 N   0  0  0  0  0  0  0  0  0  0  0  0
  146.8050  160.0310  132.8670 C   0  0  0  0  0  0  0  0  0  0  0  0
  147.2840  160.8490  133.6980 O   0  0  0  0  0  0  0  0  0  0  0  0
  147.3320  159.9270  131.5700 O   0  0  0  0  0  0  0  0  0  0  0  0
  148.7210  159.9270  131.2130 C   0  0  0  0  0  0  0  0  0  0  0  0
  149.5700  159.3380  132.3540 C   0  0  0  0  0  0  0  0  0  0  0  0
  149.1930  161.3500  130.8570 C   0  0  0  0  0  0  0  0  0  0  0  0
  148.8680  159.0320  129.9720 C   0  0  0  0  0  0  0  0  0  0  0  0
  145.7850  157.8190  133.3270 C   0  0  0  0  0  0  0  0  0  0  0  0
  146.8610  156.9780  133.0190 C   0  0  0  0  0  0  0  0  0  0  0  0
  151.0562  151.0210  130.9846 H   0  0  0  0  0  0  0  0  0  0  0  0
  149.8839  149.7917  130.4004 H   0  0  0  0  0  0  0  0  0  0  0  0
  149.4360  151.5313  130.4004 H   0  0  0  0  0  0  0  0  0  0  0  0
  147.5856  150.3654  133.2508 H   0  0  0  0  0  0  0  0  0  0  0  0
  147.5419  151.2655  131.6968 H   0  0  0  0  0  0  0  0  0  0  0  0
  147.7739  149.4842  131.6968 H   0  0  0  0  0  0  0  0  0  0  0  0
  148.9971  151.9075  133.9041 H   0  0  0  0  0  0  0  0  0  0  0  0
  150.7629  151.6472  133.5810 H   0  0  0  0  0  0  0  0  0  0  0  0
  150.7687  153.6034  132.4846 H   0  0  0  0  0  0  0  0  0  0  0  0
  149.7354  152.8051  131.2282 H   0  0  0  0  0  0  0  0  0  0  0  0
  145.3447  153.9930  133.8176 H   0  0  0  0  0  0  0  0  0  0  0  0
  143.4560  155.5586  134.3896 H   0  0  0  0  0  0  0  0  0  0  0  0
  142.7470  158.3351  134.4754 H   0  0  0  0  0  0  0  0  0  0  0  0
  145.6190  162.1880  133.4530 H   0  0  0  0  0  0  0  0  0  0  0  0
  149.1406  159.6359  133.3219 H   0  0  0  0  0  0  0  0  0  0  0  0
  149.5761  158.2407  132.2777 H   0  0  0  0  0  0  0  0  0  0  0  0
  150.6000  159.7166  132.2777 H   0  0  0  0  0  0  0  0  0  0  0  0
  149.3807  161.9160  131.7813 H   0  0  0  0  0  0  0  0  0  0  0  0
  150.1201  161.2921  130.2678 H   0  0  0  0  0  0  0  0  0  0  0  0
  148.4151  161.8577  130.2678 H   0  0  0  0  0  0  0  0  0  0  0  0
  149.0388  157.9923  130.2879 H   0  0  0  0  0  0  0  0  0  0  0  0
  147.9489  159.0860  129.3700 H   0  0  0  0  0  0  0  0  0  0  0  0
  149.7215  159.3772  129.3700 H   0  0  0  0  0  0  0  0  0  0  0  0
  147.8117  157.3888  132.6484 H   0  0  0  0  0  0  0  0  0  0  0  0
  1  2  1  0
  2  3  1  0
  2  4  1  0
  4  5  1  0
  5  6  1  0
  6  7  3  0
  7  8  1  0
  8  9  2  0
  9 10  1  0
 10 11  2  0
 11 12  1  0
 12 13  2  0
 13 14  1  0
 14 15  1  0
 14 16  2  0
 13 17  1  0
 17 18  1  0
 18 19  2  0
 18 20  1  0
 20 21  1  0
 21 22  1  0
 21 23  1  0
 21 24  1  0
 17 25  1  0
 25 26  2  0
 26  8  1  0
 25 11  1  0
  1 27  1  0
  1 28  1  0
  1 29  1  0
  3 30  1  0
  3 31  1  0
  3 32  1  0
  4 33  1  0
  4 34  1  0
  5 35  1  0
  5 36  1  0
  9 37  1  0
 10 38  1  0
 12 39  1  0
 15 40  1  0
 22 41  1  0
 22 42  1  0
 22 43  1  0
 23 44  1  0
 23 45  1  0
 23 46  1  0
 24 47  1  0
 24 48  1  0
 24 49  1  0
 26 50  1  0
M  CHG  1  15  -1
M  END
>  <UniqueID>  (50) 
50

>  <SMILES>  (50) 
CN(C)CCC#Cc1ccc2cc(C([NH-])=O)n(C(=O)OC(C)(C)C)c2c1

>  <Energy>  (50) 
78.27345460474386

>  <Genealogy>  (50) 
CN(C)CCC#Cc1ccc2cc(C([NH-])=O)n(C(=O)OC(C)(C)C)c2c1 (protonated)
CN(C)CCC#Cc1ccc2cc(C([NH-])=O)n(C(=O)OC(C)(C)C)c2c1 (3D coordinates assigned)
CN(C)CCC#Cc1ccc2cc(C([NH-])=O)n(C(=O)OC(C)(C)C)c2c1 (optimized conformer: 78.27345460474386 kcal/mol)

>  <smiles>  (50) 
CN(C)CCC#Cc1ccc2cc(C(N)=O)n(C(=O)OC(C)(C)C)c2c1

>  <score_type>  (50) 
oracle

>  <origin>  (50) 
adg

>  <m_score__min__energy>  (50) 
-8.2100000000000009

>  <m_primary>  (50) 
energy

$$$$
50:0
     RDKit          3D

 38 39  0  0  0  0  0  0  0  0999 V2000
  148.8680  154.8780  132.5950 C   0  0  0  0  0  0  0  0  0  0  0  0
  147.5850  155.5740  132.9370 C   0  0  0  0  0  0  0  0  0  0  0  0
  146.4840  154.8320  133.4280 C   0  0  0  0  0  0  0  0  0  0  0  0
  145.2930  155.4780  133.7990 C   0  0  0  0  0  0  0  0  0  0  0  0
  145.2360  156.8630  133.6720 C   0  0  0  0  0  0  0  0  0  0  0  0
  144.2210  157.7390  133.9830 C   0  0  0  0  0  0  0  0  0  0  0  0
  144.7160  159.0040  133.6700 C   0  0  0  0  0  0  0  0  0  0  0  0
  143.9180  160.2480  133.7620 C   0  0  0  0  0  0  0  0  0  0  0  0
  144.5370  161.5260  133.6090 N   0  0  0  0  0  0  0  0  0  0  0  0
  142.6830  160.1900  134.0070 O   0  0  0  0  0  0  0  0  0  0  0  0
  145.9870  158.9130  133.1870 N   0  0  0  0  0  0  0  0  0  0  0  0
  146.8620  159.9860  132.8040 C   0  0  0  0  0  0  0  0  0  0  0  0
  147.1700  160.8730  133.6450 O   0  0  0  0  0  0  0  0  0  0  0  0
  147.3750  160.0230  131.4980 O   0  0  0  0  0  0  0  0  0  0  0  0
  148.7570  159.9360  131.1240 C   0  0  0  0  0  0  0  0  0  0  0  0
  149.6100  159.4380  132.3060 C   0  0  0  0  0  0  0  0  0  0  0  0
  149.2120  161.3530  130.7440 C   0  0  0  0  0  0  0  0  0  0  0  0
  148.9290  159.0140  129.9010 C   0  0  0  0  0  0  0  0  0  0  0  0
  146.2910  157.5970  133.1940 C   0  0  0  0  0  0  0  0  0  0  0  0
  147.4970  156.9800  132.8360 C   0  0  0  0  0  0  0  0  0  0  0  0
  149.3898  154.5950  133.5211 H   0  0  0  0  0  0  0  0  0  0  0  0
  148.6495  153.9747  132.0065 H   0  0  0  0  0  0  0  0  0  0  0  0
  149.5061  155.5536  132.0065 H   0  0  0  0  0  0  0  0  0  0  0  0
  146.5618  153.7386  133.5199 H   0  0  0  0  0  0  0  0  0  0  0  0
  144.4324  154.9072  134.1780 H   0  0  0  0  0  0  0  0  0  0  0  0
  143.2298  157.4931  134.3917 H   0  0  0  0  0  0  0  0  0  0  0  0
  143.9720  162.3970  133.7140 H   0  0  0  0  0  0  0  0  0  0  0  0
  145.5450  161.6140  133.3510 H   0  0  0  0  0  0  0  0  0  0  0  0
  149.1258  159.7207  133.2524 H   0  0  0  0  0  0  0  0  0  0  0  0
  149.7038  158.3432  132.2549 H   0  0  0  0  0  0  0  0  0  0  0  0
  150.6095  159.8945  132.2549 H   0  0  0  0  0  0  0  0  0  0  0  0
  149.3991  161.9355  131.6581 H   0  0  0  0  0  0  0  0  0  0  0  0
  150.1365  161.2945  130.1509 H   0  0  0  0  0  0  0  0  0  0  0  0
  148.4263  161.8437  130.1509 H   0  0  0  0  0  0  0  0  0  0  0  0
  149.1208  157.9857  130.2412 H   0  0  0  0  0  0  0  0  0  0  0  0
  148.0115  159.0344  129.2945 H   0  0  0  0  0  0  0  0  0  0  0  0
  149.7774  159.3639  129.2945 H   0  0  0  0  0  0  0  0  0  0  0  0
  148.3530  157.5752  132.4854 H   0  0  0  0  0  0  0  0  0  0  0  0
  1  2  1  0
  2  3  2  0
  3  4  1  0
  4  5  2  0
  5  6  1  0
  6  7  2  0
  7  8  1  0
  8  9  1  0
  8 10  2  0
  7 11  1  0
 11 12  1  0
 12 13  2  0
 12 14  1  0
 14 15  1  0
 15 16  1  0
 15 17  1  0
 15 18  1  0
 11 19  1  0
 19 20  2  0
 20  2  1  0
 19  5  1  0
  1 21  1  0
  1 22  1  0
  1 23  1  0
  3 24  1  0
  4 25  1  0
  6 26  1  0
  9 27  1  0
  9 28  1  0
 16 29  1  0
 16 30  1  0
 16 31  1  0
 17 32  1  0
 17 33  1  0
 17 34  1  0
 18 35  1  0
 18 36  1  0
 18 37  1  0
 20 38  1  0
M  END
>  <UniqueID>  (51) 
51

>  <SMILES>  (51) 
Cc1ccc2cc(C(N)=O)n(C(=O)OC(C)(C)C)c2c1

>  <Energy>  (51) 
70.74974129763883

>  <Genealogy>  (51) 
Cc1ccc2cc(C(N)=O)n(C(=O)OC(C)(C)C)c2c1 (3D coordinates assigned)
Cc1ccc2cc(C(N)=O)n(C(=O)OC(C)(C)C)c2c1 (optimized conformer: 70.74974129763883 kcal/mol)

>  <smiles>  (51) 
Cc1ccc2cc(C(N)=O)n(C(=O)OC(C)(C)C)c2c1

>  <score_type>  (51) 
oracle

>  <origin>  (51) 
adg

>  <m_score__min__energy>  (51) 
-6.8099999999999996

>  <m_primary>  (51) 
energy

$$$$
51:0
     RDKit          3D

 49 50  0  0  0  0  0  0  0  0999 V2000
  139.4730  156.8870  133.1460 C   0  0  0  0  0  0  0  0  0  0  0  0
  139.3360  158.2410  133.8330 C   0  0  0  0  0  0  0  0  0  0  0  0
  140.4040  158.4220  134.8250 N   0  0  0  0  0  0  0  0  0  0  0  0
  140.1510  158.1600  136.2480 C   0  0  0  0  0  0  0  0  0  0  0  0
  140.9910  159.0870  137.1180 C   0  0  0  0  0  0  0  0  0  0  0  0
  141.7010  158.8790  134.4040 C   0  0  0  0  0  0  0  0  0  0  0  0
  141.9230  160.2550  134.1500 C   0  0  0  0  0  0  0  0  0  0  0  0
  143.1900  160.7140  133.7510 C   0  0  0  0  0  0  0  0  0  0  0  0
  144.2070  159.7750  133.6050 C   0  0  0  0  0  0  0  0  0  0  0  0
  145.5270  159.9460  133.2510 C   0  0  0  0  0  0  0  0  0  0  0  0
  146.0830  158.6670  133.2650 C   0  0  0  0  0  0  0  0  0  0  0  0
  147.4710  158.3670  132.8540 C   0  0  0  0  0  0  0  0  0  0  0  0
  147.7400  157.3630  131.8730 N   0  0  0  0  0  0  0  0  0  0  0  0
  148.4360  158.9750  133.3880 O   0  0  0  0  0  0  0  0  0  0  0  0
  145.1440  157.7440  133.6170 N   0  0  0  0  0  0  0  0  0  0  0  0
  145.3210  156.3300  133.7940 C   0  0  0  0  0  0  0  0  0  0  0  0
  144.6100  155.7100  134.6290 O   0  0  0  0  0  0  0  0  0  0  0  0
  146.2730  155.6550  133.0160 O   0  0  0  0  0  0  0  0  0  0  0  0
  147.0600  154.5250  133.4210 C   0  0  0  0  0  0  0  0  0  0  0  0
  148.3630  154.4490  132.6050 C   0  0  0  0  0  0  0  0  0  0  0  0
  146.2210  153.2690  133.1420 C   0  0  0  0  0  0  0  0  0  0  0  0
  147.3640  154.5940  134.9300 C   0  0  0  0  0  0  0  0  0  0  0  0
  144.0020  158.4380  133.8240 C   0  0  0  0  0  0  0  0  0  0  0  0
  142.7580  157.9560  134.2440 C   0  0  0  0  0  0  0  0  0  0  0  0
  139.5530  156.0964  133.9066 H   0  0  0  0  0  0  0  0  0  0  0  0
  138.5889  156.7034  132.5179 H   0  0  0  0  0  0  0  0  0  0  0  0
  140.3760  156.8842  132.5179 H   0  0  0  0  0  0  0  0  0  0  0  0
  139.4030  159.0387  133.0786 H   0  0  0  0  0  0  0  0  0  0  0  0
  138.3629  158.2851  134.3441 H   0  0  0  0  0  0  0  0  0  0  0  0
  139.0855  158.3282  136.4633 H   0  0  0  0  0  0  0  0  0  0  0  0
  140.4229  157.1180  136.4721 H   0  0  0  0  0  0  0  0  0  0  0  0
  140.7955  158.8713  138.1788 H   0  0  0  0  0  0  0  0  0  0  0  0
  142.0575  158.9264  136.9016 H   0  0  0  0  0  0  0  0  0  0  0  0
  140.7264  160.1326  136.9016 H   0  0  0  0  0  0  0  0  0  0  0  0
  141.0959  160.9708  134.2662 H   0  0  0  0  0  0  0  0  0  0  0  0
  143.3722  161.7819  133.5601 H   0  0  0  0  0  0  0  0  0  0  0  0
  146.0350  160.8911  133.0086 H   0  0  0  0  0  0  0  0  0  0  0  0
  146.9680  156.8790  131.3660 H   0  0  0  0  0  0  0  0  0  0  0  0
  148.7260  157.1260  131.6220 H   0  0  0  0  0  0  0  0  0  0  0  0
  149.2222  154.3989  133.2900 H   0  0  0  0  0  0  0  0  0  0  0  0
  148.3467  153.5503  131.9709 H   0  0  0  0  0  0  0  0  0  0  0  0
  148.4513  155.3435  131.9709 H   0  0  0  0  0  0  0  0  0  0  0  0
  145.9161  152.8125  134.0952 H   0  0  0  0  0  0  0  0  0  0  0  0
  145.3262  153.5464  132.5655 H   0  0  0  0  0  0  0  0  0  0  0  0
  146.8199  152.5486  132.5655 H   0  0  0  0  0  0  0  0  0  0  0  0
  146.4459  154.3856  135.4989 H   0  0  0  0  0  0  0  0  0  0  0  0
  148.1304  153.8470  135.1842 H   0  0  0  0  0  0  0  0  0  0  0  0
  147.7328  155.5987  135.1842 H   0  0  0  0  0  0  0  0  0  0  0  0
  142.6067  156.8851  134.4446 H   0  0  0  0  0  0  0  0  0  0  0  0
  1  2  1  0
  2  3  1  0
  3  4  1  0
  4  5  1  0
  3  6  1  0
  6  7  2  0
  7  8  1  0
  8  9  2  0
  9 10  1  0
 10 11  2  0
 11 12  1  0
 12 13  1  0
 12 14  2  0
 11 15  1  0
 15 16  1  0
 16 17  2  0
 16 18  1  0
 18 19  1  0
 19 20  1  0
 19 21  1  0
 19 22  1  0
 15 23  1  0
 23 24  2  0
 24  6  1  0
 23  9  1  0
  1 25  1  0
  1 26  1  0
  1 27  1  0
  2 28  1  0
  2 29  1  0
  4 30  1  0
  4 31  1  0
  5 32  1  0
  5 33  1  0
  5 34  1  0
  7 35  1  0
  8 36  1  0
 10 37  1  0
 13 38  1  0
 13 39  1  0
 20 40  1  0
 20 41  1  0
 20 42  1  0
 21 43  1  0
 21 44  1  0
 21 45  1  0
 22 46  1  0
 22 47  1  0
 22 48  1  0
 24 49  1  0
M  END
>  <UniqueID>  (52) 
52

>  <SMILES>  (52) 
CCN(CC)c1ccc2cc(C(N)=O)n(C(=O)OC(C)(C)C)c2c1

>  <Energy>  (52) 
78.98640746960562

>  <Genealogy>  (52) 
CCN(CC)c1ccc2cc(C(N)=O)n(C(=O)OC(C)(C)C)c2c1 (3D coordinates assigned)
CCN(CC)c1ccc2cc(C(N)=O)n(C(=O)OC(C)(C)C)c2c1 (optimized conformer: 78.98640746960562 kcal/mol)

>  <smiles>  (52) 
CCN(CC)c1ccc2cc(C(N)=O)n(C(=O)OC(C)(C)C)c2c1

>  <score_type>  (52) 
oracle

>  <origin>  (52) 
adg

>  <m_score__min__energy>  (52) 
-7.2199999999999998

>  <m_primary>  (52) 
energy

$$$$
52:0
     RDKit          3D

 52 54  0  0  0  0  0  0  0  0999 V2000
  148.7300  158.6740  131.9770 C   0  0  0  0  0  0  0  0  0  0  0  0
  148.6660  158.5950  133.4970 C   0  0  0  0  0  0  0  0  0  0  0  0
  147.3460  158.8710  133.9610 O   0  0  0  0  0  0  0  0  0  0  0  0
  146.6610  160.0570  133.6730 C   0  0  0  0  0  0  0  0  0  0  0  0
  147.2930  161.0930  133.3310 O   0  0  0  0  0  0  0  0  0  0  0  0
  145.2270  160.0870  133.7490 N   0  0  0  0  0  0  0  0  0  0  0  0
  144.4300  161.1630  134.0080 C   0  0  0  0  0  0  0  0  0  0  0  0
  144.8720  162.5690  134.0960 C   0  0  0  0  0  0  0  0  0  0  0  0
  146.0030  162.9340  134.8810 N   0  0  0  0  0  0  0  0  0  0  0  0
  144.2710  163.4550  133.4290 O   0  0  0  0  0  0  0  0  0  0  0  0
  143.0960  160.7690  134.1050 C   0  0  0  0  0  0  0  0  0  0  0  0
  143.1000  159.4100  133.8890 C   0  0  0  0  0  0  0  0  0  0  0  0
  142.0460  158.5010  133.8800 C   0  0  0  0  0  0  0  0  0  0  0  0
  142.3460  157.1470  133.6590 C   0  0  0  0  0  0  0  0  0  0  0  0
  143.6860  156.7230  133.4670 C   0  0  0  0  0  0  0  0  0  0  0  0
  143.9800  155.3310  133.2440 N   0  0  0  0  0  0  0  0  0  0  0  0
  144.2950  154.8650  131.8870 C   0  0  0  0  0  0  0  0  0  0  0  0
  144.8840  153.4470  131.9120 C   0  0  0  0  0  0  0  0  0  0  0  0
  146.0120  153.3110  132.9800 C   0  0  0  0  0  0  0  0  0  0  0  0
  147.2830  154.0210  132.6140 N   0  0  0  0  0  0  0  0  0  0  0  0
  147.3620  155.3340  133.2930 C   0  0  0  0  0  0  0  0  0  0  0  0
  148.5010  153.2570  132.9610 C   0  0  0  0  0  0  0  0  0  0  0  0
  145.4940  153.7750  134.3880 C   0  0  0  0  0  0  0  0  0  0  0  0
  144.0900  154.3940  134.3680 C   0  0  0  0  0  0  0  0  0  0  0  0
  144.7280  157.6780  133.4770 C   0  0  0  0  0  0  0  0  0  0  0  0
  144.3990  159.0230  133.6790 C   0  0  0  0  0  0  0  0  0  0  0  0
  149.3968  159.4971  131.6804 H   0  0  0  0  0  0  0  0  0  0  0  0
  149.1176  157.7256  131.5765 H   0  0  0  0  0  0  0  0  0  0  0  0
  147.7218  158.8564  131.5765 H   0  0  0  0  0  0  0  0  0  0  0  0
  148.9579  157.5844  133.8187 H   0  0  0  0  0  0  0  0  0  0  0  0
  149.3529  159.3432  133.9192 H   0  0  0  0  0  0  0  0  0  0  0  0
  146.9680  162.8960  134.4830 H   0  0  0  0  0  0  0  0  0  0  0  0
  142.2251  161.4088  134.3106 H   0  0  0  0  0  0  0  0  0  0  0  0
  141.0098  158.8330  134.0411 H   0  0  0  0  0  0  0  0  0  0  0  0
  141.5326  156.4068  133.6345 H   0  0  0  0  0  0  0  0  0  0  0  0
  143.3739  154.8608  131.2857 H   0  0  0  0  0  0  0  0  0  0  0  0
  145.0401  155.5450  131.4483 H   0  0  0  0  0  0  0  0  0  0  0  0
  144.0821  152.7318  132.1472 H   0  0  0  0  0  0  0  0  0  0  0  0
  145.3199  153.2388  130.9238 H   0  0  0  0  0  0  0  0  0  0  0  0
  146.2700  152.2424  133.0201 H   0  0  0  0  0  0  0  0  0  0  0  0
  147.3010  154.1880  131.5790 H   0  0  0  0  0  0  0  0  0  0  0  0
  147.3530  155.1844  134.3827 H   0  0  0  0  0  0  0  0  0  0  0  0
  148.2924  155.8427  133.0004 H   0  0  0  0  0  0  0  0  0  0  0  0
  146.4993  155.9506  133.0004 H   0  0  0  0  0  0  0  0  0  0  0  0
  148.5968  153.1969  134.0552 H   0  0  0  0  0  0  0  0  0  0  0  0
  148.4288  152.2421  132.5429 H   0  0  0  0  0  0  0  0  0  0  0  0
  149.3833  153.7638  132.5429 H   0  0  0  0  0  0  0  0  0  0  0  0
  145.4761  152.9002  135.0546 H   0  0  0  0  0  0  0  0  0  0  0  0
  146.1814  154.5606  134.7350 H   0  0  0  0  0  0  0  0  0  0  0  0
  143.3403  153.5970  134.2547 H   0  0  0  0  0  0  0  0  0  0  0  0
  143.9154  154.9331  135.3108 H   0  0  0  0  0  0  0  0  0  0  0  0
  145.7739  157.3708  133.3293 H   0  0  0  0  0  0  0  0  0  0  0  0
  1  2  1  0
  2  3  1  0
  3  4  1  0
  4  5  2  0
  4  6  1  0
  6  7  1  0
  7  8  1  0
  8  9  1  0
  8 10  2  0
  7 11  2  0
 11 12  1  0
 12 13  2  0
 13 14  1  0
 14 15  2  0
 15 16  1  0
 16 17  1  0
 17 18  1  0
 18 19  1  0
 19 20  1  0
 20 21  1  0
 20 22  1  0
 19 23  1  0
 23 24  1  0
 15 25  1  0
 25 26  2  0
 26  6  1  0
 26 12  1  0
 24 16  1  0
  1 27  1  0
  1 28  1  0
  1 29  1  0
  2 30  1  0
  2 31  1  0
  9 32  1  0
 11 33  1  0
 13 34  1  0
 14 35  1  0
 17 36  1  0
 17 37  1  0
 18 38  1  0
 18 39  1  0
 19 40  1  0
 20 41  1  0
 21 42  1  0
 21 43  1  0
 21 44  1  0
 22 45  1  0
 22 46  1  0
 22 47  1  0
 23 48  1  0
 23 49  1  0
 24 50  1  0
 24 51  1  0
 25 52  1  0
M  CHG  2   9  -1  20   1
M  END
>  <UniqueID>  (53) 
53

>  <SMILES>  (53) 
CCOC(=O)n1c(C([NH-])=O)cc2ccc(N3CCC([NH+](C)C)CC3)cc21

>  <Energy>  (53) 
102.26583297783027

>  <Genealogy>  (53) 
CCOC(=O)n1c(C([NH-])=O)cc2ccc(N3CCC([NH+](C)C)CC3)cc21 (protonated)
CCOC(=O)n1c(C([NH-])=O)cc2ccc(N3CCC([NH+](C)C)CC3)cc21 (3D coordinates assigned)
CCOC(=O)n1c(C([NH-])=O)cc2ccc(N3CCC([NH+](C)C)CC3)cc21 (nonaromatic ring conformer: 102.26583297783027 kcal/mol)

>  <smiles>  (53) 
CCOC(=O)n1c(C(N)=O)cc2ccc(N3CCC(N(C)C)CC3)cc21

>  <score_type>  (53) 
oracle

>  <origin>  (53) 
adg

>  <m_score__min__energy>  (53) 
-7.1100000000000003

>  <m_primary>  (53) 
energy

$$$$
53:0
     RDKit          3D

 46 49  0  0  0  0  0  0  0  0999 V2000
  149.6070  158.9820  132.1000 C   0  0  0  0  0  0  0  0  0  0  0  0
  148.7580  159.7880  131.1050 C   0  0  0  0  0  0  0  0  0  0  0  0
  148.8860  159.1470  129.7110 C   0  0  0  0  0  0  0  0  0  0  0  0
  149.2610  161.2440  131.0830 C   0  0  0  0  0  0  0  0  0  0  0  0
  147.4010  159.7280  131.5640 O   0  0  0  0  0  0  0  0  0  0  0  0
  146.9660  159.8140  132.8950 C   0  0  0  0  0  0  0  0  0  0  0  0
  147.5580  160.5550  133.7250 O   0  0  0  0  0  0  0  0  0  0  0  0
  145.8090  159.0680  133.3040 N   0  0  0  0  0  0  0  0  0  0  0  0
  144.5780  159.5430  133.6450 C   0  0  0  0  0  0  0  0  0  0  0  0
  144.2100  160.9650  133.8110 C   0  0  0  0  0  0  0  0  0  0  0  0
  145.1930  161.9460  134.1330 N   0  0  0  0  0  0  0  0  0  0  0  0
  143.0020  161.3120  133.7140 O   0  0  0  0  0  0  0  0  0  0  0  0
  143.7050  158.4900  133.9090 C   0  0  0  0  0  0  0  0  0  0  0  0
  144.4490  157.3450  133.7290 C   0  0  0  0  0  0  0  0  0  0  0  0
  144.0810  156.0100  133.8530 C   0  0  0  0  0  0  0  0  0  0  0  0
  145.0520  155.0310  133.5810 C   0  0  0  0  0  0  0  0  0  0  0  0
  146.3650  155.3990  133.1830 C   0  0  0  0  0  0  0  0  0  0  0  0
  147.3830  154.3590  132.8890 C   0  0  0  0  0  0  0  0  0  0  0  0
  148.7300  154.7240  132.6390 C   0  0  0  0  0  0  0  0  0  0  0  0
  149.7000  153.7460  132.3660 C   0  0  0  0  0  0  0  0  0  0  0  0
  149.3010  152.4140  132.3480 C   0  0  0  0  0  0  0  0  0  0  0  0
  150.2240  151.0440  132.0560 S   0  0  0  0  0  0  0  0  0  0  0  0
  148.8960  150.0120  132.2510 C   0  0  0  0  0  0  0  0  0  0  0  0
  147.7630  150.6960  132.5360 N   0  0  0  0  0  0  0  0  0  0  0  0
  147.9950  152.0330  132.5900 C   0  0  0  0  0  0  0  0  0  0  0  0
  147.0180  152.9920  132.8630 C   0  0  0  0  0  0  0  0  0  0  0  0
  146.6940  156.7700  133.0660 C   0  0  0  0  0  0  0  0  0  0  0  0
  145.7140  157.7220  133.3640 C   0  0  0  0  0  0  0  0  0  0  0  0
  149.3225  159.2521  133.1277 H   0  0  0  0  0  0  0  0  0  0  0  0
  149.4348  157.9071  131.9424 H   0  0  0  0  0  0  0  0  0  0  0  0
  150.6715  159.2098  131.9424 H   0  0  0  0  0  0  0  0  0  0  0  0
  149.1004  158.0735  129.8193 H   0  0  0  0  0  0  0  0  0  0  0  0
  147.9438  159.2789  129.1589 H   0  0  0  0  0  0  0  0  0  0  0  0
  149.7053  159.6306  129.1589 H   0  0  0  0  0  0  0  0  0  0  0  0
  149.3856  161.6045  132.1147 H   0  0  0  0  0  0  0  0  0  0  0  0
  150.2272  161.2903  130.5593 H   0  0  0  0  0  0  0  0  0  0  0  0
  148.5294  161.8768  130.5593 H   0  0  0  0  0  0  0  0  0  0  0  0
  146.0390  162.0740  133.5350 H   0  0  0  0  0  0  0  0  0  0  0  0
  142.6463  158.5585  134.1995 H   0  0  0  0  0  0  0  0  0  0  0  0
  143.0613  155.7287  134.1547 H   0  0  0  0  0  0  0  0  0  0  0  0
  144.7920  153.9665  133.6775 H   0  0  0  0  0  0  0  0  0  0  0  0
  149.0185  155.7853  132.6591 H   0  0  0  0  0  0  0  0  0  0  0  0
  150.7460  154.0257  132.1718 H   0  0  0  0  0  0  0  0  0  0  0  0
  148.9476  148.9172  132.1574 H   0  0  0  0  0  0  0  0  0  0  0  0
  145.9782  152.6891  133.0554 H   0  0  0  0  0  0  0  0  0  0  0  0
  147.6999  157.0807  132.7472 H   0  0  0  0  0  0  0  0  0  0  0  0
  1  2  1  0
  2  3  1  0
  2  4  1  0
  2  5  1  0
  5  6  1  0
  6  7  2  0
  6  8  1  0
  8  9  1  0
  9 10  1  0
 10 11  1  0
 10 12  2  0
  9 13  2  0
 13 14  1  0
 14 15  2  0
 15 16  1  0
 16 17  2  0
 17 18  1  0
 18 19  2  0
 19 20  1  0
 20 21  2  0
 21 22  1  0
 22 23  1  0
 23 24  2  0
 24 25  1  0
 25 26  2  0
 17 27  1  0
 27 28  2  0
 28  8  1  0
 28 14  1  0
 26 18  1  0
 25 21  1  0
  1 29  1  0
  1 30  1  0
  1 31  1  0
  3 32  1  0
  3 33  1  0
  3 34  1  0
  4 35  1  0
  4 36  1  0
  4 37  1  0
 11 38  1  0
 13 39  1  0
 15 40  1  0
 16 41  1  0
 19 42  1  0
 20 43  1  0
 23 44  1  0
 26 45  1  0
 27 46  1  0
M  CHG  1  11  -1
M  END
>  <UniqueID>  (54) 
54

>  <SMILES>  (54) 
CC(C)(C)OC(=O)n1c(C([NH-])=O)cc2ccc(-c3ccc4scnc4c3)cc21

>  <Energy>  (54) 
123.68795289778716

>  <Genealogy>  (54) 
CC(C)(C)OC(=O)n1c(C([NH-])=O)cc2ccc(-c3ccc4scnc4c3)cc21 (protonated)
CC(C)(C)OC(=O)n1c(C([NH-])=O)cc2ccc(-c3ccc4scnc4c3)cc21 (3D coordinates assigned)
CC(C)(C)OC(=O)n1c(C([NH-])=O)cc2ccc(-c3ccc4scnc4c3)cc21 (optimized conformer: 123.68795289778716 kcal/mol)

>  <smiles>  (54) 
CC(C)(C)OC(=O)n1c(C(N)=O)cc2ccc(-c3ccc4scnc4c3)cc21

>  <score_type>  (54) 
oracle

>  <origin>  (54) 
adg

>  <m_score__min__energy>  (54) 
-9.2300000000000004

>  <m_primary>  (54) 
energy

$$$$
54:0
     RDKit          3D

 40 42  0  0  0  0  0  0  0  0999 V2000
  149.9590  158.7900  131.8820 N   0  0  0  0  0  0  0  0  0  0  0  0
  148.9800  157.9320  132.4670 C   0  0  0  0  0  0  0  0  0  0  0  0
  149.2380  156.7070  132.6060 O   0  0  0  0  0  0  0  0  0  0  0  0
  147.6680  158.4810  132.8740 C   0  0  0  0  0  0  0  0  0  0  0  0
  147.4420  159.8350  133.1200 C   0  0  0  0  0  0  0  0  0  0  0  0
  146.0990  159.9340  133.4070 C   0  0  0  0  0  0  0  0  0  0  0  0
  145.3360  161.0490  133.7440 C   0  0  0  0  0  0  0  0  0  0  0  0
  143.9730  160.8510  134.0200 C   0  0  0  0  0  0  0  0  0  0  0  0
  143.4060  159.5530  133.9720 C   0  0  0  0  0  0  0  0  0  0  0  0
  141.9390  159.3550  134.2420 C   0  0  0  0  0  0  0  0  0  0  0  0
  141.1270  160.2560  133.3530 C   0  0  0  0  0  0  0  0  0  0  0  0
  141.3530  161.4960  133.3840 O   0  0  0  0  0  0  0  0  0  0  0  0
  140.0740  159.7490  132.5100 N   0  0  0  0  0  0  0  0  0  0  0  0
  139.8330  158.3400  132.2380 C   0  0  0  0  0  0  0  0  0  0  0  0
  138.7320  158.3050  131.1880 C   0  0  0  0  0  0  0  0  0  0  0  0
  138.1000  159.6940  131.2010 C   0  0  0  0  0  0  0  0  0  0  0  0
  139.1410  160.6190  131.8170 C   0  0  0  0  0  0  0  0  0  0  0  0
  144.2120  158.4480  133.6200 C   0  0  0  0  0  0  0  0  0  0  0  0
  145.5610  158.6760  133.3300 C   0  0  0  0  0  0  0  0  0  0  0  0
  146.5110  157.7730  133.0020 N   0  0  0  0  0  0  0  0  0  0  0  0
  146.3290  156.3540  132.8860 C   0  0  0  0  0  0  0  0  0  0  0  0
  146.9930  155.6250  131.8570 N   0  0  0  0  0  0  0  0  0  0  0  0
  145.5720  155.7480  133.6900 O   0  0  0  0  0  0  0  0  0  0  0  0
  150.9690  158.7070  132.1390 H   0  0  0  0  0  0  0  0  0  0  0  0
  148.1797  160.6504  133.0909 H   0  0  0  0  0  0  0  0  0  0  0  0
  145.7857  162.0517  133.7925 H   0  0  0  0  0  0  0  0  0  0  0  0
  143.3389  161.7126  134.2761 H   0  0  0  0  0  0  0  0  0  0  0  0
  141.6699  158.3073  134.0424 H   0  0  0  0  0  0  0  0  0  0  0  0
  141.7288  159.5999  135.2936 H   0  0  0  0  0  0  0  0  0  0  0  0
  140.7458  157.8623  131.8525 H   0  0  0  0  0  0  0  0  0  0  0  0
  139.5429  157.7949  133.1484 H   0  0  0  0  0  0  0  0  0  0  0  0
  139.1552  158.0861  130.1965 H   0  0  0  0  0  0  0  0  0  0  0  0
  137.9911  157.5213  131.4045 H   0  0  0  0  0  0  0  0  0  0  0  0
  137.8607  160.0153  130.1766 H   0  0  0  0  0  0  0  0  0  0  0  0
  137.1602  159.7053  131.7725 H   0  0  0  0  0  0  0  0  0  0  0  0
  139.6589  161.1907  131.0328 H   0  0  0  0  0  0  0  0  0  0  0  0
  138.6831  161.3508  132.4988 H   0  0  0  0  0  0  0  0  0  0  0  0
  143.7893  157.4334  133.5750 H   0  0  0  0  0  0  0  0  0  0  0  0
  146.8220  154.6000  131.7430 H   0  0  0  0  0  0  0  0  0  0  0  0
  147.6820  156.0950  131.2310 H   0  0  0  0  0  0  0  0  0  0  0  0
  1  2  1  0
  2  3  2  0
  2  4  1  0
  4  5  2  0
  5  6  1  0
  6  7  2  0
  7  8  1  0
  8  9  2  0
  9 10  1  0
 10 11  1  0
 11 12  2  0
 11 13  1  0
 13 14  1  0
 14 15  1  0
 15 16  1  0
 16 17  1  0
  9 18  1  0
 18 19  2  0
 19 20  1  0
 20 21  1  0
 21 22  1  0
 21 23  2  0
 20  4  1  0
 19  6  1  0
 17 13  1  0
  1 24  1  0
  5 25  1  0
  7 26  1  0
  8 27  1  0
 10 28  1  0
 10 29  1  0
 14 30  1  0
 14 31  1  0
 15 32  1  0
 15 33  1  0
 16 34  1  0
 16 35  1  0
 17 36  1  0
 17 37  1  0
 18 38  1  0
 22 39  1  0
 22 40  1  0
M  CHG  1   1  -1
M  END
>  <UniqueID>  (55) 
55

>  <SMILES>  (55) 
[NH-]C(=O)c1cc2ccc(CC(=O)N3CCCC3)cc2n1C(N)=O

>  <Energy>  (55) 
76.83860112538338

>  <Genealogy>  (55) 
[NH-]C(=O)c1cc2ccc(CC(=O)N3CCCC3)cc2n1C(N)=O (protonated)
[NH-]C(=O)c1cc2ccc(CC(=O)N3CCCC3)cc2n1C(N)=O (3D coordinates assigned)
[NH-]C(=O)c1cc2ccc(CC(=O)N3CCCC3)cc2n1C(N)=O (nonaromatic ring conformer: 76.83860112538338 kcal/mol)

>  <smiles>  (55) 
NC(=O)c1cc2ccc(CC(=O)N3CCCC3)cc2n1C(N)=O

>  <score_type>  (55) 
oracle

>  <origin>  (55) 
adg

>  <m_score__min__energy>  (55) 
-8.4100000000000001

>  <m_primary>  (55) 
energy

$$$$
55:0
     RDKit          3D

 62 64  0  0  0  0  0  0  0  0999 V2000
  146.9760  153.0570  139.4180 C   0  0  0  0  0  0  0  0  0  0  0  0
  147.7430  152.4980  138.2040 C   0  0  0  0  0  0  0  0  0  0  0  0
  147.7370  150.9570  138.2190 C   0  0  0  0  0  0  0  0  0  0  0  0
  149.1970  152.9890  138.2660 C   0  0  0  0  0  0  0  0  0  0  0  0
  147.1810  152.9940  136.9800 O   0  0  0  0  0  0  0  0  0  0  0  0
  147.8420  153.7650  136.0120 C   0  0  0  0  0  0  0  0  0  0  0  0
  147.9440  155.0150  136.1300 O   0  0  0  0  0  0  0  0  0  0  0  0
  148.4150  153.1270  134.8690 N   0  0  0  0  0  0  0  0  0  0  0  0
  147.9280  153.3460  133.5080 C   0  0  2  0  0  0  0  0  0  0  0  0
  149.0060  154.0190  132.6550 C   0  0  0  0  0  0  0  0  0  0  0  0
  148.7130  155.5110  132.7220 C   0  0  0  0  0  0  0  0  0  0  0  0
  147.3290  155.6250  133.1600 N   0  0  0  0  0  0  0  0  0  0  0  0
  146.6020  156.8740  133.2250 C   0  0  0  0  0  0  0  0  0  0  0  0
  147.2210  158.0910  132.8320 C   0  0  0  0  0  0  0  0  0  0  0  0
  146.5230  159.3090  132.8870 C   0  0  0  0  0  0  0  0  0  0  0  0
  145.2110  159.2890  133.3460 C   0  0  0  0  0  0  0  0  0  0  0  0
  144.3060  160.3160  133.4820 C   0  0  0  0  0  0  0  0  0  0  0  0
  143.1460  159.7240  133.9760 C   0  0  0  0  0  0  0  0  0  0  0  0
  141.9380  160.4860  134.3530 C   0  0  0  0  0  0  0  0  0  0  0  0
  141.1030  160.0150  135.4100 N   0  0  0  0  0  0  0  0  0  0  0  0
  141.6120  161.5290  133.7280 O   0  0  0  0  0  0  0  0  0  0  0  0
  143.3260  158.3810  134.1340 N   0  0  0  0  0  0  0  0  0  0  0  0
  142.3550  157.4100  134.5500 C   0  0  0  0  0  0  0  0  0  0  0  0
  142.2680  157.0960  135.7670 O   0  0  0  0  0  0  0  0  0  0  0  0
  141.5280  156.8060  133.5890 O   0  0  0  0  0  0  0  0  0  0  0  0
  140.1100  156.9830  133.4550 C   0  0  0  0  0  0  0  0  0  0  0  0
  139.8870  158.0680  132.3910 C   0  0  0  0  0  0  0  0  0  0  0  0
  139.4950  157.4570  134.7850 C   0  0  0  0  0  0  0  0  0  0  0  0
  139.4420  155.6780  132.9820 C   0  0  0  0  0  0  0  0  0  0  0  0
  144.5970  158.1330  133.7460 C   0  0  0  0  0  0  0  0  0  0  0  0
  145.2600  156.9010  133.6830 C   0  0  0  0  0  0  0  0  0  0  0  0
  146.7650  154.3340  133.5300 C   0  0  0  0  0  0  0  0  0  0  0  0
  147.4538  152.7088  140.3456 H   0  0  0  0  0  0  0  0  0  0  0  0
  146.9924  154.1565  139.3875 H   0  0  0  0  0  0  0  0  0  0  0  0
  145.9344  152.7048  139.3875 H   0  0  0  0  0  0  0  0  0  0  0  0
  147.7356  150.6005  139.2596 H   0  0  0  0  0  0  0  0  0  0  0  0
  146.8374  150.5888  137.7040 H   0  0  0  0  0  0  0  0  0  0  0  0
  148.6337  150.5818  137.7040 H   0  0  0  0  0  0  0  0  0  0  0  0
  149.5044  153.0928  139.3171 H   0  0  0  0  0  0  0  0  0  0  0  0
  149.8513  152.2620  137.7627 H   0  0  0  0  0  0  0  0  0  0  0  0
  149.2766  153.9638  137.7627 H   0  0  0  0  0  0  0  0  0  0  0  0
  147.6398  152.3651  133.1019 H   0  0  0  0  0  0  0  0  0  0  0  0
  150.0055  153.8059  133.0619 H   0  0  0  0  0  0  0  0  0  0  0  0
  148.9934  153.6491  131.6191 H   0  0  0  0  0  0  0  0  0  0  0  0
  149.3843  156.0011  133.4426 H   0  0  0  0  0  0  0  0  0  0  0  0
  148.8707  155.9984  131.7485 H   0  0  0  0  0  0  0  0  0  0  0  0
  148.2628  158.0794  132.4792 H   0  0  0  0  0  0  0  0  0  0  0  0
  147.0003  160.2501  132.5762 H   0  0  0  0  0  0  0  0  0  0  0  0
  144.4648  161.3794  133.2498 H   0  0  0  0  0  0  0  0  0  0  0  0
  141.2160  159.0500  135.7920 H   0  0  0  0  0  0  0  0  0  0  0  0
  139.6891  159.0307  132.8849 H   0  0  0  0  0  0  0  0  0  0  0  0
  140.7858  158.1560  131.7630 H   0  0  0  0  0  0  0  0  0  0  0  0
  139.0263  157.7943  131.7630 H   0  0  0  0  0  0  0  0  0  0  0  0
  140.0580  157.0231  135.6245 H   0  0  0  0  0  0  0  0  0  0  0  0
  139.5422  158.5546  134.8402 H   0  0  0  0  0  0  0  0  0  0  0  0
  138.4456  157.1318  134.8402 H   0  0  0  0  0  0  0  0  0  0  0  0
  139.1379  155.0839  133.8564 H   0  0  0  0  0  0  0  0  0  0  0  0
  138.5561  155.9183  132.3759 H   0  0  0  0  0  0  0  0  0  0  0  0
  140.1550  155.0999  132.3759 H   0  0  0  0  0  0  0  0  0  0  0  0
  144.7504  155.9734  133.9826 H   0  0  0  0  0  0  0  0  0  0  0  0
  146.3244  154.3836  134.5367 H   0  0  0  0  0  0  0  0  0  0  0  0
  145.9649  154.0305  132.8388 H   0  0  0  0  0  0  0  0  0  0  0  0
  1  2  1  0
  2  3  1  0
  2  4  1  0
  2  5  1  0
  5  6  1  0
  6  7  2  0
  6  8  1  0
  8  9  1  0
  9 10  1  0
 10 11  1  0
 11 12  1  0
 12 13  1  0
 13 14  2  0
 14 15  1  0
 15 16  2  0
 16 17  1  0
 17 18  2  0
 18 19  1  0
 19 20  1  0
 19 21  2  0
 18 22  1  0
 22 23  1  0
 23 24  2  0
 23 25  1  0
 25 26  1  0
 26 27  1  0
 26 28  1  0
 26 29  1  0
 22 30  1  0
 30 31  2  0
 12 32  1  0
 32  9  1  0
 31 13  1  0
 30 16  1  0
  1 33  1  0
  1 34  1  0
  1 35  1  0
  3 36  1  0
  3 37  1  0
  3 38  1  0
  4 39  1  0
  4 40  1  0
  4 41  1  0
  9 42  1  6
 10 43  1  0
 10 44  1  0
 11 45  1  0
 11 46  1  0
 14 47  1  0
 15 48  1  0
 17 49  1  0
 20 50  1  0
 27 51  1  0
 27 52  1  0
 27 53  1  0
 28 54  1  0
 28 55  1  0
 28 56  1  0
 29 57  1  0
 29 58  1  0
 29 59  1  0
 31 60  1  0
 32 61  1  0
 32 62  1  0
M  CHG  2   8  -1  20  -1
M  END
>  <UniqueID>  (56) 
56

>  <SMILES>  (56) 
CC(C)(C)OC(=O)[N-][C@@H]1CCN(c2ccc3cc(C([NH-])=O)n(C(=O)OC(C)(C)C)c3c2)C1

>  <Energy>  (56) 
91.2282650112443

>  <Genealogy>  (56) 
CC(C)(C)OC(=O)[N-][C@@H]1CCN(c2ccc3cc(C([NH-])=O)n(C(=O)OC(C)(C)C)c3c2)C1 (protonated)
CC(C)(C)OC(=O)[N-][C@@H]1CCN(c2ccc3cc(C([NH-])=O)n(C(=O)OC(C)(C)C)c3c2)C1 (3D coordinates assigned)
CC(C)(C)OC(=O)[N-][C@@H]1CCN(c2ccc3cc(C([NH-])=O)n(C(=O)OC(C)(C)C)c3c2)C1 (nonaromatic ring conformer: 91.2282650112443 kcal/mol)

>  <smiles>  (56) 
CC(C)(C)OC(=O)N[C@@H]1CCN(c2ccc3cc(C(N)=O)n(C(=O)OC(C)(C)C)c3c2)C1

>  <score_type>  (56) 
oracle

>  <origin>  (56) 
adg

>  <m_score__min__energy>  (56) 
-9.1500000000000004

>  <m_primary>  (56) 
energy

$$$$
56:0
     RDKit          3D

 41 43  0  0  0  0  0  0  0  0999 V2000
  148.2490  157.8950  131.8650 C   0  0  0  0  0  0  0  0  0  0  0  0
  147.9600  159.3570  132.2700 C   0  0  0  0  0  0  0  0  0  0  0  0
  148.6590  159.6480  133.6110 C   0  0  0  0  0  0  0  0  0  0  0  0
  148.4890  160.3320  131.2060 C   0  0  0  0  0  0  0  0  0  0  0  0
  146.5540  159.5650  132.4680 O   0  0  0  0  0  0  0  0  0  0  0  0
  145.7470  158.9610  133.4400 C   0  0  0  0  0  0  0  0  0  0  0  0
  146.1820  158.0000  134.1340 O   0  0  0  0  0  0  0  0  0  0  0  0
  144.4120  159.4530  133.6420 N   0  0  0  0  0  0  0  0  0  0  0  0
  144.0340  160.7570  133.7680 C   0  0  0  0  0  0  0  0  0  0  0  0
  144.9440  161.9090  133.9400 C   0  0  0  0  0  0  0  0  0  0  0  0
  146.3480  161.7220  134.1060 N   0  0  0  0  0  0  0  0  0  0  0  0
  144.4660  163.0690  134.0180 O   0  0  0  0  0  0  0  0  0  0  0  0
  142.6490  160.8720  133.7820 C   0  0  0  0  0  0  0  0  0  0  0  0
  142.1810  159.5810  133.6770 C   0  0  0  0  0  0  0  0  0  0  0  0
  140.8750  159.1080  133.6500 C   0  0  0  0  0  0  0  0  0  0  0  0
  140.6780  157.7190  133.5330 C   0  0  0  0  0  0  0  0  0  0  0  0
  141.7840  156.8350  133.4390 C   0  0  0  0  0  0  0  0  0  0  0  0
  141.5760  155.3760  133.3570 C   0  0  0  0  0  0  0  0  0  0  0  0
  142.5310  154.4620  133.6420 N   0  0  0  0  0  0  0  0  0  0  0  0
  141.9160  153.2900  133.4110 C   0  0  0  0  0  0  0  0  0  0  0  0
  140.6220  153.5300  133.0010 C   0  0  0  0  0  0  0  0  0  0  0  0
  140.4440  154.8250  132.9780 O   0  0  0  0  0  0  0  0  0  0  0  0
  143.0950  157.3560  133.4510 C   0  0  0  0  0  0  0  0  0  0  0  0
  143.2630  158.7410  133.5940 C   0  0  0  0  0  0  0  0  0  0  0  0
  148.3703  157.2811  132.7696 H   0  0  0  0  0  0  0  0  0  0  0  0
  147.4101  157.5071  131.2685 H   0  0  0  0  0  0  0  0  0  0  0  0
  149.1723  157.8555  131.2685 H   0  0  0  0  0  0  0  0  0  0  0  0
  147.9917  159.3702  134.4402 H   0  0  0  0  0  0  0  0  0  0  0  0
  149.5875  159.0617  133.6753 H   0  0  0  0  0  0  0  0  0  0  0  0
  148.8971  160.7200  133.6753 H   0  0  0  0  0  0  0  0  0  0  0  0
  148.9575  161.1956  131.7006 H   0  0  0  0  0  0  0  0  0  0  0  0
  149.2334  159.8208  130.5780 H   0  0  0  0  0  0  0  0  0  0  0  0
  147.6546  160.6774  130.5780 H   0  0  0  0  0  0  0  0  0  0  0  0
  146.7570  160.7660  134.2280 H   0  0  0  0  0  0  0  0  0  0  0  0
  146.9840  162.5500  134.1510 H   0  0  0  0  0  0  0  0  0  0  0  0
  142.0551  161.7946  133.8601 H   0  0  0  0  0  0  0  0  0  0  0  0
  140.0209  159.7978  133.7180 H   0  0  0  0  0  0  0  0  0  0  0  0
  139.6553  157.3144  133.5143 H   0  0  0  0  0  0  0  0  0  0  0  0
  142.3727  152.2964  133.5302 H   0  0  0  0  0  0  0  0  0  0  0  0
  139.8729  152.7680  132.7398 H   0  0  0  0  0  0  0  0  0  0  0  0
  143.9655  156.6911  133.3505 H   0  0  0  0  0  0  0  0  0  0  0  0
  1  2  1  0
  2  3  1  0
  2  4  1  0
  2  5  1  0
  5  6  1  0
  6  7  2  0
  6  8  1  0
  8  9  1  0
  9 10  1  0
 10 11  1  0
 10 12  2  0
  9 13  2  0
 13 14  1  0
 14 15  2  0
 15 16  1  0
 16 17  2  0
 17 18  1  0
 18 19  2  0
 19 20  1  0
 20 21  2  0
 21 22  1  0
 17 23  1  0
 23 24  2  0
 24  8  1  0
 24 14  1  0
 22 18  1  0
  1 25  1  0
  1 26  1  0
  1 27  1  0
  3 28  1  0
  3 29  1  0
  3 30  1  0
  4 31  1  0
  4 32  1  0
  4 33  1  0
 11 34  1  0
 11 35  1  0
 13 36  1  0
 15 37  1  0
 16 38  1  0
 20 39  1  0
 21 40  1  0
 23 41  1  0
M  END
>  <UniqueID>  (57) 
57

>  <SMILES>  (57) 
CC(C)(C)OC(=O)n1c(C(N)=O)cc2ccc(-c3ncco3)cc21

>  <Energy>  (57) 
107.21006600124763

>  <Genealogy>  (57) 
CC(C)(C)OC(=O)n1c(C(N)=O)cc2ccc(-c3ncco3)cc21 (3D coordinates assigned)
CC(C)(C)OC(=O)n1c(C(N)=O)cc2ccc(-c3ncco3)cc21 (optimized conformer: 107.21006600124763 kcal/mol)

>  <smiles>  (57) 
CC(C)(C)OC(=O)n1c(C(N)=O)cc2ccc(-c3ncco3)cc21

>  <score_type>  (57) 
oracle

>  <origin>  (57) 
adg

>  <m_score__min__energy>  (57) 
-7.3600000000000003

>  <m_primary>  (57) 
energy

$$$$
57:0
     RDKit          3D

 57 59  0  0  0  0  0  0  0  0999 V2000
  141.0450  152.0620  132.2760 C   0  0  0  0  0  0  0  0  0  0  0  0
  141.6400  151.0850  133.3120 C   0  0  0  0  0  0  0  0  0  0  0  0
  143.1570  150.9640  133.0720 C   0  0  0  0  0  0  0  0  0  0  0  0
  141.4040  151.6190  134.6660 N   0  0  0  0  0  0  0  0  0  0  0  0
  142.0990  152.7450  135.2310 C   0  0  0  0  0  0  0  0  0  0  0  0
  143.0560  153.2830  134.6100 O   0  0  0  0  0  0  0  0  0  0  0  0
  141.6810  153.2830  136.4970 N   0  0  0  0  0  0  0  0  0  0  0  0
  141.2830  152.6070  137.6110 C   0  0  0  0  0  0  0  0  0  0  0  0
  141.0960  151.1440  137.7220 C   0  0  0  0  0  0  0  0  0  0  0  0
  140.2450  150.4370  136.8260 N   0  0  0  0  0  0  0  0  0  0  0  0
  141.6770  150.5120  138.6440 O   0  0  0  0  0  0  0  0  0  0  0  0
  140.9860  153.5000  138.6410 C   0  0  0  0  0  0  0  0  0  0  0  0
  141.2040  154.7530  138.1160 C   0  0  0  0  0  0  0  0  0  0  0  0
  141.0500  156.0120  138.6950 C   0  0  0  0  0  0  0  0  0  0  0  0
  141.3430  157.1400  137.9080 C   0  0  0  0  0  0  0  0  0  0  0  0
  141.7890  156.9840  136.5760 C   0  0  0  0  0  0  0  0  0  0  0  0
  142.0580  158.1350  135.7560 C   0  0  0  0  0  0  0  0  0  0  0  0
  142.2810  159.0670  135.0260 C   0  0  0  0  0  0  0  0  0  0  0  0
  142.5650  160.1600  134.0910 C   0  0  0  0  0  0  0  0  0  0  0  0
  143.7890  159.8750  133.3520 N   0  0  0  0  0  0  0  0  0  0  0  0
  145.0800  160.3870  133.7120 C   0  0  0  0  0  0  0  0  0  0  0  0
  145.1750  161.5080  134.2840 O   0  0  0  0  0  0  0  0  0  0  0  0
  146.3080  159.6220  133.3860 C   0  0  0  0  0  0  0  0  0  0  0  0
  147.4140  160.3010  132.8420 C   0  0  0  0  0  0  0  0  0  0  0  0
  148.5830  159.6120  132.5150 C   0  0  0  0  0  0  0  0  0  0  0  0
  148.6670  158.2380  132.7340 C   0  0  0  0  0  0  0  0  0  0  0  0
  147.5880  157.5490  133.2940 C   0  0  0  0  0  0  0  0  0  0  0  0
  146.3940  158.2280  133.6190 C   0  0  0  0  0  0  0  0  0  0  0  0
  145.2940  157.5590  134.1860 O   0  0  0  0  0  0  0  0  0  0  0  0
  144.7390  156.3220  133.7350 C   0  0  0  0  0  0  0  0  0  0  0  0
  144.8030  155.3750  134.7440 F   0  0  0  0  0  0  0  0  0  0  0  0
  145.4170  155.8680  132.6120 F   0  0  0  0  0  0  0  0  0  0  0  0
  143.4140  156.5210  133.3990 F   0  0  0  0  0  0  0  0  0  0  0  0
  141.9500  155.6980  136.0270 C   0  0  0  0  0  0  0  0  0  0  0  0
  141.6260  154.5930  136.8230 C   0  0  0  0  0  0  0  0  0  0  0  0
  141.0340  149.7010  133.1750 C   0  0  0  0  0  0  0  0  0  0  0  0
  141.3810  148.8590  132.0770 N   0  0  0  0  0  0  0  0  0  0  0  0
  140.2630  149.2560  134.0700 O   0  0  0  0  0  0  0  0  0  0  0  0
  140.5415  152.8887  132.7986 H   0  0  0  0  0  0  0  0  0  0  0  0
  141.8518  152.4640  131.6455 H   0  0  0  0  0  0  0  0  0  0  0  0
  140.3176  151.5297  131.6455 H   0  0  0  0  0  0  0  0  0  0  0  0
  143.6791  150.9224  134.0393 H   0  0  0  0  0  0  0  0  0  0  0  0
  143.3661  150.0463  132.5027 H   0  0  0  0  0  0  0  0  0  0  0  0
  143.5089  151.8369  132.5027 H   0  0  0  0  0  0  0  0  0  0  0  0
  140.7080  151.1380  135.2840 H   0  0  0  0  0  0  0  0  0  0  0  0
  140.6400  149.9010  136.0210 H   0  0  0  0  0  0  0  0  0  0  0  0
  140.6485  153.2541  139.6587 H   0  0  0  0  0  0  0  0  0  0  0  0
  140.7098  156.1196  139.7355 H   0  0  0  0  0  0  0  0  0  0  0  0
  141.2245  158.1484  138.3311 H   0  0  0  0  0  0  0  0  0  0  0  0
  141.7280  160.2626  133.3847 H   0  0  0  0  0  0  0  0  0  0  0  0
  142.6920  161.0957  134.6553 H   0  0  0  0  0  0  0  0  0  0  0  0
  147.3567  161.3864  132.6726 H   0  0  0  0  0  0  0  0  0  0  0  0
  149.4382  160.1535  132.0844 H   0  0  0  0  0  0  0  0  0  0  0  0
  149.5850  157.6947  132.4653 H   0  0  0  0  0  0  0  0  0  0  0  0
  147.6698  156.4685  133.4831 H   0  0  0  0  0  0  0  0  0  0  0  0
  142.3205  155.5648  134.9999 H   0  0  0  0  0  0  0  0  0  0  0  0
  142.1070  148.1140  132.1780 H   0  0  0  0  0  0  0  0  0  0  0  0
  1  2  1  0
  2  3  1  0
  2  4  1  0
  4  5  1  0
  5  6  2  0
  5  7  1  0
  7  8  1  0
  8  9  1  0
  9 10  1  0
  9 11  2  0
  8 12  2  0
 12 13  1  0
 13 14  2  0
 14 15  1  0
 15 16  2  0
 16 17  1  0
 17 18  3  0
 18 19  1  0
 19 20  1  0
 20 21  1  0
 21 22  2  0
 21 23  1  0
 23 24  2  0
 24 25  1  0
 25 26  2  0
 26 27  1  0
 27 28  2  0
 28 29  1  0
 29 30  1  0
 30 31  1  0
 30 32  1  0
 30 33  1  0
 16 34  1  0
 34 35  2  0
  2 36  1  0
 36 37  1  0
 36 38  2  0
 35  7  1  0
 35 13  1  0
 28 23  1  0
  1 39  1  0
  1 40  1  0
  1 41  1  0
  3 42  1  0
  3 43  1  0
  3 44  1  0
  4 45  1  0
 10 46  1  0
 12 47  1  0
 14 48  1  0
 15 49  1  0
 19 50  1  0
 19 51  1  0
 24 52  1  0
 25 53  1  0
 26 54  1  0
 27 55  1  0
 34 56  1  0
 37 57  1  0
M  CHG  3  10  -1  20  -1  37  -1
M  END
>  <UniqueID>  (58) 
58

>  <SMILES>  (58) 
CC(C)(NC(=O)n1c(C([NH-])=O)cc2ccc(C#CC[N-]C(=O)c3ccccc3OC(F)(F)F)cc21)C([NH-])=O

>  <Energy>  (58) 
91.47213181974978

>  <Genealogy>  (58) 
CC(C)(NC(=O)n1c(C([NH-])=O)cc2ccc(C#CC[N-]C(=O)c3ccccc3OC(F)(F)F)cc21)C([NH-])=O (protonated)
CC(C)(NC(=O)n1c(C([NH-])=O)cc2ccc(C#CC[N-]C(=O)c3ccccc3OC(F)(F)F)cc21)C([NH-])=O (3D coordinates assigned)
CC(C)(NC(=O)n1c(C([NH-])=O)cc2ccc(C#CC[N-]C(=O)c3ccccc3OC(F)(F)F)cc21)C([NH-])=O (optimized conformer: 91.47213181974978 kcal/mol)

>  <smiles>  (58) 
CC(C)(NC(=O)n1c(C(N)=O)cc2ccc(C#CCNC(=O)c3ccccc3OC(F)(F)F)cc21)C(N)=O

>  <score_type>  (58) 
oracle

>  <origin>  (58) 
adg

>  <m_score__min__energy>  (58) 
-9.8900000000000006

>  <m_primary>  (58) 
energy

$$$$
58:0
     RDKit          3D

 43 44  0  0  0  0  0  0  0  0999 V2000
  149.9910  151.1590  133.6960 C   0  0  0  0  0  0  0  0  0  0  0  0
  148.9430  151.3490  132.5820 C   0  0  0  0  0  0  0  0  0  0  0  0
  148.1770  150.0300  132.3920 C   0  0  0  0  0  0  0  0  0  0  0  0
  149.6220  151.7280  131.2530 C   0  0  0  0  0  0  0  0  0  0  0  0
  147.9830  152.3440  132.9620 O   0  0  0  0  0  0  0  0  0  0  0  0
  148.0630  153.7200  132.7030 C   0  0  0  0  0  0  0  0  0  0  0  0
  149.1400  154.2440  132.3120 O   0  0  0  0  0  0  0  0  0  0  0  0
  146.9050  154.5450  132.9120 N   0  0  0  0  0  0  0  0  0  0  0  0
  145.5950  154.1660  132.8930 C   0  0  0  0  0  0  0  0  0  0  0  0
  145.1060  152.7720  132.8080 C   0  0  0  0  0  0  0  0  0  0  0  0
  145.7000  151.8440  131.8990 N   0  0  0  0  0  0  0  0  0  0  0  0
  144.1360  152.3980  133.5190 O   0  0  0  0  0  0  0  0  0  0  0  0
  144.7650  155.2740  133.0590 C   0  0  0  0  0  0  0  0  0  0  0  0
  145.6140  156.3500  133.1820 C   0  0  0  0  0  0  0  0  0  0  0  0
  145.3260  157.7030  133.3440 C   0  0  0  0  0  0  0  0  0  0  0  0
  146.4030  158.6030  133.4030 C   0  0  0  0  0  0  0  0  0  0  0  0
  147.7370  158.1390  133.3040 C   0  0  0  0  0  0  0  0  0  0  0  0
  148.8820  159.1190  133.3200 C   0  0  0  0  0  0  0  0  0  0  0  0
  148.8380  160.0640  132.1120 C   0  0  0  0  0  0  0  0  0  0  0  0
  149.5560  159.4860  130.9310 C   0  0  0  0  0  0  0  0  0  0  0  0
  150.7770  159.7340  130.7460 O   0  0  0  0  0  0  0  0  0  0  0  0
  148.8870  158.6350  130.0580 O   0  0  0  0  0  0  0  0  0  0  0  0
  147.9900  156.7600  133.1320 C   0  0  0  0  0  0  0  0  0  0  0  0
  146.8990  155.8840  133.0900 C   0  0  0  0  0  0  0  0  0  0  0  0
  149.5027  151.2475  134.6777 H   0  0  0  0  0  0  0  0  0  0  0  0
  150.4489  150.1632  133.6027 H   0  0  0  0  0  0  0  0  0  0  0  0
  150.7693  151.9307  133.6027 H   0  0  0  0  0  0  0  0  0  0  0  0
  147.9299  149.6045  133.3758 H   0  0  0  0  0  0  0  0  0  0  0  0
  147.2498  150.2218  131.8321 H   0  0  0  0  0  0  0  0  0  0  0  0
  148.8031  149.3197  131.8321 H   0  0  0  0  0  0  0  0  0  0  0  0
  150.5653  152.2545  131.4603 H   0  0  0  0  0  0  0  0  0  0  0  0
  149.8306  150.8159  130.6747 H   0  0  0  0  0  0  0  0  0  0  0  0
  148.9551  152.3844  130.6747 H   0  0  0  0  0  0  0  0  0  0  0  0
  145.3220  150.8740  131.8190 H   0  0  0  0  0  0  0  0  0  0  0  0
  146.5410  152.0990  131.3340 H   0  0  0  0  0  0  0  0  0  0  0  0
  143.6654  155.2856  133.0859 H   0  0  0  0  0  0  0  0  0  0  0  0
  144.2872  158.0560  133.4233 H   0  0  0  0  0  0  0  0  0  0  0  0
  146.2081  159.6784  133.5273 H   0  0  0  0  0  0  0  0  0  0  0  0
  148.8269  159.7164  134.2420 H   0  0  0  0  0  0  0  0  0  0  0  0
  149.8216  158.5488  133.2749 H   0  0  0  0  0  0  0  0  0  0  0  0
  147.7880  160.2439  131.8380 H   0  0  0  0  0  0  0  0  0  0  0  0
  149.3382  161.0028  132.3921 H   0  0  0  0  0  0  0  0  0  0  0  0
  149.0190  156.3838  133.0335 H   0  0  0  0  0  0  0  0  0  0  0  0
  1  2  1  0
  2  3  1  0
  2  4  1  0
  2  5  1  0
  5  6  1  0
  6  7  2  0
  6  8  1  0
  8  9  1  0
  9 10  1  0
 10 11  1  0
 10 12  2  0
  9 13  2  0
 13 14  1  0
 14 15  2  0
 15 16  1  0
 16 17  2  0
 17 18  1  0
 18 19  1  0
 19 20  1  0
 20 21  2  0
 20 22  1  0
 17 23  1  0
 23 24  2  0
 24  8  1  0
 24 14  1  0
  1 25  1  0
  1 26  1  0
  1 27  1  0
  3 28  1  0
  3 29  1  0
  3 30  1  0
  4 31  1  0
  4 32  1  0
  4 33  1  0
 11 34  1  0
 11 35  1  0
 13 36  1  0
 15 37  1  0
 16 38  1  0
 18 39  1  0
 18 40  1  0
 19 41  1  0
 19 42  1  0
 23 43  1  0
M  CHG  1  22  -1
M  END
>  <UniqueID>  (59) 
59

>  <SMILES>  (59) 
CC(C)(C)OC(=O)n1c(C(N)=O)cc2ccc(CCC(=O)[O-])cc21

>  <Energy>  (59) 
72.51428203330414

>  <Genealogy>  (59) 
CC(C)(C)OC(=O)n1c(C(N)=O)cc2ccc(CCC(=O)[O-])cc21 (protonated)
CC(C)(C)OC(=O)n1c(C(N)=O)cc2ccc(CCC(=O)[O-])cc21 (3D coordinates assigned)
CC(C)(C)OC(=O)n1c(C(N)=O)cc2ccc(CCC(=O)[O-])cc21 (optimized conformer: 72.51428203330414 kcal/mol)

>  <smiles>  (59) 
CC(C)(C)OC(=O)n1c(C(N)=O)cc2ccc(CCC(=O)O)cc21

>  <score_type>  (59) 
oracle

>  <origin>  (59) 
adg

>  <m_score__min__energy>  (59) 
-7.7300000000000004

>  <m_primary>  (59) 
energy

$$$$
59:0
     RDKit          3D

 34 35  0  0  0  0  0  0  0  0999 V2000
  149.5950  153.3950  132.5060 C   0  0  0  0  0  0  0  0  0  0  0  0
  148.3590  154.1170  132.2330 N   0  0  0  0  0  0  0  0  0  0  0  0
  147.4620  154.5020  133.2830 C   0  0  0  0  0  0  0  0  0  0  0  0
  147.7480  154.2400  134.4840 O   0  0  0  0  0  0  0  0  0  0  0  0
  146.2100  155.2770  132.9500 C   0  0  1  0  0  0  0  0  0  0  0  0
  145.0050  154.8210  133.7830 C   0  0  0  0  0  0  0  0  0  0  0  0
  146.4500  156.7640  133.1120 C   0  0  0  0  0  0  0  0  0  0  0  0
  147.7480  157.2970  132.9050 C   0  0  0  0  0  0  0  0  0  0  0  0
  147.9880  158.6740  133.0330 C   0  0  0  0  0  0  0  0  0  0  0  0
  146.9190  159.4940  133.3750 C   0  0  0  0  0  0  0  0  0  0  0  0
  146.8690  160.8590  133.5400 C   0  0  0  0  0  0  0  0  0  0  0  0
  145.5440  161.1440  133.8660 C   0  0  0  0  0  0  0  0  0  0  0  0
  145.0680  162.4980  134.2170 C   0  0  0  0  0  0  0  0  0  0  0  0
  144.0060  163.1110  133.4920 N   0  0  0  0  0  0  0  0  0  0  0  0
  145.5740  163.1020  135.2000 O   0  0  0  0  0  0  0  0  0  0  0  0
  144.8020  160.0010  133.8960 N   0  0  0  0  0  0  0  0  0  0  0  0
  143.3850  159.8780  134.0980 C   0  0  0  0  0  0  0  0  0  0  0  0
  142.5810  160.5120  133.3670 O   0  0  0  0  0  0  0  0  0  0  0  0
  142.8890  159.0780  135.1210 O   0  0  0  0  0  0  0  0  0  0  0  0
  145.6600  158.9990  133.5960 C   0  0  0  0  0  0  0  0  0  0  0  0
  145.3860  157.6340  133.4550 C   0  0  0  0  0  0  0  0  0  0  0  0
  149.7382  153.3113  133.5934 H   0  0  0  0  0  0  0  0  0  0  0  0
  149.5369  152.3888  132.0653 H   0  0  0  0  0  0  0  0  0  0  0  0
  150.4429  153.9399  132.0653 H   0  0  0  0  0  0  0  0  0  0  0  0
  148.1290  154.3670  131.2450 H   0  0  0  0  0  0  0  0  0  0  0  0
  145.9654  155.0703  131.8977 H   0  0  0  0  0  0  0  0  0  0  0  0
  145.2437  154.9113  134.8530 H   0  0  0  0  0  0  0  0  0  0  0  0
  144.1358  155.4524  133.5466 H   0  0  0  0  0  0  0  0  0  0  0  0
  144.7716  153.7724  133.5466 H   0  0  0  0  0  0  0  0  0  0  0  0
  148.5764  156.6232  132.6410 H   0  0  0  0  0  0  0  0  0  0  0  0
  148.9921  159.0917  132.8676 H   0  0  0  0  0  0  0  0  0  0  0  0
  147.6987  161.5738  133.4366 H   0  0  0  0  0  0  0  0  0  0  0  0
  143.2820  162.5340  133.0090 H   0  0  0  0  0  0  0  0  0  0  0  0
  144.3681  157.2456  133.6070 H   0  0  0  0  0  0  0  0  0  0  0  0
  1  2  1  0
  2  3  1  0
  3  4  2  0
  3  5  1  0
  5  6  1  0
  5  7  1  0
  7  8  2  0
  8  9  1  0
  9 10  2  0
 10 11  1  0
 11 12  2  0
 12 13  1  0
 13 14  1  0
 13 15  2  0
 12 16  1  0
 16 17  1  0
 17 18  2  0
 17 19  1  0
 16 20  1  0
 20 21  2  0
 21  7  1  0
 20 10  1  0
  1 22  1  0
  1 23  1  0
  1 24  1  0
  2 25  1  0
  5 26  1  6
  6 27  1  0
  6 28  1  0
  6 29  1  0
  8 30  1  0
  9 31  1  0
 11 32  1  0
 14 33  1  0
 21 34  1  0
M  CHG  2  14  -1  19  -1
M  END
>  <UniqueID>  (60) 
60

>  <SMILES>  (60) 
CNC(=O)[C@@H](C)c1ccc2cc(C([NH-])=O)n(C(=O)[O-])c2c1

>  <Energy>  (60) 
69.1656091117048

>  <Genealogy>  (60) 
CNC(=O)C(C)c1ccc2cc(C([NH-])=O)n(C(=O)[O-])c2c1 (protonated)
CNC(=O)[C@@H](C)c1ccc2cc(C([NH-])=O)n(C(=O)[O-])c2c1 (chirality)
CNC(=O)[C@@H](C)c1ccc2cc(C([NH-])=O)n(C(=O)[O-])c2c1 (3D coordinates assigned)
CNC(=O)[C@@H](C)c1ccc2cc(C([NH-])=O)n(C(=O)[O-])c2c1 (optimized conformer: 69.1656091117048 kcal/mol)

>  <smiles>  (60) 
CNC(=O)C(C)c1ccc2cc(C(N)=O)n(C(=O)O)c2c1

>  <score_type>  (60) 
oracle

>  <origin>  (60) 
adg

>  <m_score__min__energy>  (60) 
-6.9000000000000004

>  <m_primary>  (60) 
energy

$$$$
60:0
     RDKit          3D

 25 26  0  0  0  0  0  0  0  0999 V2000
  148.4270  155.0200  132.6090 C   0  0  0  0  0  0  0  0  0  0  0  0
  147.9680  156.4420  132.7350 C   0  0  0  0  0  0  0  0  0  0  0  0
  148.9080  157.4990  132.6640 C   0  0  0  0  0  0  0  0  0  0  0  0
  148.4980  158.8320  132.8320 C   0  0  0  0  0  0  0  0  0  0  0  0
  147.1490  159.0750  133.0730 C   0  0  0  0  0  0  0  0  0  0  0  0
  146.4910  160.2610  133.3060 C   0  0  0  0  0  0  0  0  0  0  0  0
  145.1580  159.9110  133.5060 C   0  0  0  0  0  0  0  0  0  0  0  0
  144.0800  160.9020  133.7150 C   0  0  0  0  0  0  0  0  0  0  0  0
  142.7280  160.5970  133.3860 N   0  0  0  0  0  0  0  0  0  0  0  0
  144.3660  162.0510  134.1470 O   0  0  0  0  0  0  0  0  0  0  0  0
  144.9980  158.5600  133.4090 N   0  0  0  0  0  0  0  0  0  0  0  0
  143.8010  157.7980  133.6340 C   0  0  0  0  0  0  0  0  0  0  0  0
  142.7260  157.8590  132.6990 N   0  0  0  0  0  0  0  0  0  0  0  0
  143.7010  157.0620  134.6510 O   0  0  0  0  0  0  0  0  0  0  0  0
  146.2260  158.0640  133.1420 C   0  0  0  0  0  0  0  0  0  0  0  0
  146.6100  156.7240  132.9980 C   0  0  0  0  0  0  0  0  0  0  0  0
  148.5660  154.5894  133.6116 H   0  0  0  0  0  0  0  0  0  0  0  0
  147.6711  154.4379  132.0615 H   0  0  0  0  0  0  0  0  0  0  0  0
  149.3806  154.9897  132.0615 H   0  0  0  0  0  0  0  0  0  0  0  0
  149.9682  157.2742  132.4757 H   0  0  0  0  0  0  0  0  0  0  0  0
  149.2213  159.6588  132.7748 H   0  0  0  0  0  0  0  0  0  0  0  0
  146.9257  161.2712  133.3293 H   0  0  0  0  0  0  0  0  0  0  0  0
  142.4960  160.0270  132.5420 H   0  0  0  0  0  0  0  0  0  0  0  0
  142.4730  158.7570  132.2300 H   0  0  0  0  0  0  0  0  0  0  0  0
  145.8724  155.9129  133.0876 H   0  0  0  0  0  0  0  0  0  0  0  0
  1  2  1  0
  2  3  2  0
  3  4  1  0
  4  5  2  0
  5  6  1  0
  6  7  2  0
  7  8  1  0
  8  9  1  0
  8 10  2  0
  7 11  1  0
 11 12  1  0
 12 13  1  0
 12 14  2  0
 11 15  1  0
 15 16  2  0
 16  2  1  0
 15  5  1  0
  1 17  1  0
  1 18  1  0
  1 19  1  0
  3 20  1  0
  4 21  1  0
  6 22  1  0
  9 23  1  0
 13 24  1  0
 16 25  1  0
M  CHG  2   9  -1  13  -1
M  END
>  <UniqueID>  (61) 
61

>  <SMILES>  (61) 
Cc1ccc2cc(C([NH-])=O)n(C([NH-])=O)c2c1

>  <Energy>  (61) 
64.18654104555795

>  <Genealogy>  (61) 
Cc1ccc2cc(C([NH-])=O)n(C([NH-])=O)c2c1 (protonated)
Cc1ccc2cc(C([NH-])=O)n(C([NH-])=O)c2c1 (3D coordinates assigned)
Cc1ccc2cc(C([NH-])=O)n(C([NH-])=O)c2c1 (optimized conformer: 64.18654104555795 kcal/mol)

>  <smiles>  (61) 
Cc1ccc2cc(C(N)=O)n(C(N)=O)c2c1

>  <score_type>  (61) 
oracle

>  <origin>  (61) 
adg

>  <m_score__min__energy>  (61) 
-5.8799999999999999

>  <m_primary>  (61) 
energy

$$$$
61:0
     RDKit          3D

 49 52  0  0  0  0  0  0  0  0999 V2000
  138.7270  146.6550  128.3950 C   0  0  0  0  0  0  0  0  0  0  0  0
  138.4640  147.9440  128.9400 O   0  0  0  0  0  0  0  0  0  0  0  0
  139.2570  148.5690  129.9130 C   0  0  0  0  0  0  0  0  0  0  0  0
  139.9880  147.7630  130.7950 C   0  0  0  0  0  0  0  0  0  0  0  0
  140.7900  148.3380  131.7850 C   0  0  0  0  0  0  0  0  0  0  0  0
  140.8770  149.7330  131.9030 C   0  0  0  0  0  0  0  0  0  0  0  0
  141.7050  150.3510  133.0060 C   0  0  0  0  0  0  0  0  0  0  0  0
  140.9750  151.4250  133.7000 N   0  0  0  0  0  0  0  0  0  0  0  0
  141.7010  152.6650  133.6390 C   0  0  0  0  0  0  0  0  0  0  0  0
  141.0970  153.8290  133.9990 N   0  0  0  0  0  0  0  0  0  0  0  0
  141.7770  155.0030  133.9920 C   0  0  0  0  0  0  0  0  0  0  0  0
  143.1300  155.0340  133.6250 C   0  0  0  0  0  0  0  0  0  0  0  0
  143.8970  156.3040  133.6230 C   0  0  0  0  0  0  0  0  0  0  0  0
  145.2930  156.2980  133.3620 C   0  0  0  0  0  0  0  0  0  0  0  0
  146.0270  157.4950  133.3480 C   0  0  0  0  0  0  0  0  0  0  0  0
  145.3470  158.6820  133.6010 C   0  0  0  0  0  0  0  0  0  0  0  0
  145.8090  159.9780  133.6250 C   0  0  0  0  0  0  0  0  0  0  0  0
  144.6950  160.7610  133.9220 C   0  0  0  0  0  0  0  0  0  0  0  0
  144.7630  162.2210  134.1320 C   0  0  0  0  0  0  0  0  0  0  0  0
  143.9420  163.0890  133.3540 N   0  0  0  0  0  0  0  0  0  0  0  0
  145.5670  162.7160  134.9650 O   0  0  0  0  0  0  0  0  0  0  0  0
  143.5870  159.9810  134.0690 N   0  0  0  0  0  0  0  0  0  0  0  0
  142.2360  160.4100  134.3080 C   0  0  0  0  0  0  0  0  0  0  0  0
  141.7490  161.3710  133.6570 O   0  0  0  0  0  0  0  0  0  0  0  0
  141.4630  159.7860  135.2800 O   0  0  0  0  0  0  0  0  0  0  0  0
  144.0040  158.7100  133.8740 C   0  0  0  0  0  0  0  0  0  0  0  0
  143.2440  157.5340  133.8790 C   0  0  0  0  0  0  0  0  0  0  0  0
  143.7330  153.8200  133.2670 C   0  0  0  0  0  0  0  0  0  0  0  0
  143.0130  152.6700  133.2810 N   0  0  0  0  0  0  0  0  0  0  0  0
  140.1400  150.5430  131.0270 C   0  0  0  0  0  0  0  0  0  0  0  0
  139.3390  149.9690  130.0360 C   0  0  0  0  0  0  0  0  0  0  0  0
  138.8741  145.9342  129.2128 H   0  0  0  0  0  0  0  0  0  0  0  0
  137.8750  146.3380  127.7756 H   0  0  0  0  0  0  0  0  0  0  0  0
  139.6351  146.6971  127.7756 H   0  0  0  0  0  0  0  0  0  0  0  0
  139.9305  146.6680  130.7078 H   0  0  0  0  0  0  0  0  0  0  0  0
  141.3553  147.6938  132.4745 H   0  0  0  0  0  0  0  0  0  0  0  0
  141.9674  149.5700  133.7348 H   0  0  0  0  0  0  0  0  0  0  0  0
  142.6074  150.7876  132.5531 H   0  0  0  0  0  0  0  0  0  0  0  0
  140.8530  151.1570  134.7030 H   0  0  0  0  0  0  0  0  0  0  0  0
  140.0240  151.5460  133.2780 H   0  0  0  0  0  0  0  0  0  0  0  0
  141.2648  155.9343  134.2754 H   0  0  0  0  0  0  0  0  0  0  0  0
  145.8055  155.3441  133.1685 H   0  0  0  0  0  0  0  0  0  0  0  0
  147.1077  157.4941  133.1431 H   0  0  0  0  0  0  0  0  0  0  0  0
  146.8385  160.3226  133.4475 H   0  0  0  0  0  0  0  0  0  0  0  0
  142.9210  163.1820  133.5500 H   0  0  0  0  0  0  0  0  0  0  0  0
  142.1625  157.5650  134.0776 H   0  0  0  0  0  0  0  0  0  0  0  0
  144.7930  153.7997  132.9739 H   0  0  0  0  0  0  0  0  0  0  0  0
  140.1927  151.6377  131.1205 H   0  0  0  0  0  0  0  0  0  0  0  0
  138.7705  150.6136  129.3495 H   0  0  0  0  0  0  0  0  0  0  0  0
  1  2  1  0
  2  3  1  0
  3  4  2  0
  4  5  1  0
  5  6  2  0
  6  7  1  0
  7  8  1  0
  8  9  1  0
  9 10  2  0
 10 11  1  0
 11 12  2  0
 12 13  1  0
 13 14  2  0
 14 15  1  0
 15 16  2  0
 16 17  1  0
 17 18  2  0
 18 19  1  0
 19 20  1  0
 19 21  2  0
 18 22  1  0
 22 23  1  0
 23 24  2  0
 23 25  1  0
 22 26  1  0
 26 27  2  0
 12 28  1  0
 28 29  2  0
  6 30  1  0
 30 31  2  0
 31  3  1  0
 29  9  1  0
 27 13  1  0
 26 16  1  0
  1 32  1  0
  1 33  1  0
  1 34  1  0
  4 35  1  0
  5 36  1  0
  7 37  1  0
  7 38  1  0
  8 39  1  0
  8 40  1  0
 11 41  1  0
 14 42  1  0
 15 43  1  0
 17 44  1  0
 20 45  1  0
 27 46  1  0
 28 47  1  0
 30 48  1  0
 31 49  1  0
M  CHG  3   8   1  20  -1  25  -1
M  END
>  <UniqueID>  (62) 
62

>  <SMILES>  (62) 
COc1ccc(C[NH2+]c2ncc(-c3ccc4cc(C([NH-])=O)n(C(=O)[O-])c4c3)cn2)cc1

>  <Energy>  (62) 
97.9515177828587

>  <Genealogy>  (62) 
COc1ccc(C[NH2+]c2ncc(-c3ccc4cc(C([NH-])=O)n(C(=O)[O-])c4c3)cn2)cc1 (protonated)
COc1ccc(C[NH2+]c2ncc(-c3ccc4cc(C([NH-])=O)n(C(=O)[O-])c4c3)cn2)cc1 (3D coordinates assigned)
COc1ccc(C[NH2+]c2ncc(-c3ccc4cc(C([NH-])=O)n(C(=O)[O-])c4c3)cn2)cc1 (optimized conformer: 97.9515177828587 kcal/mol)

>  <smiles>  (62) 
COc1ccc(CNc2ncc(-c3ccc4cc(C(N)=O)n(C(=O)O)c4c3)cn2)cc1

>  <score_type>  (62) 
oracle

>  <origin>  (62) 
adg

>  <m_score__min__energy>  (62) 
-8.9299999999999997

>  <m_primary>  (62) 
energy

$$$$
62:0
     RDKit          3D

 47 50  0  0  0  0  0  0  0  0999 V2000
  148.1930  153.5780  137.2150 C   0  0  0  0  0  0  0  0  0  0  0  0
  146.9520  153.0700  136.7340 O   0  0  0  0  0  0  0  0  0  0  0  0
  145.9960  153.8350  136.0490 C   0  0  0  0  0  0  0  0  0  0  0  0
  144.6600  153.9360  136.4770 C   0  0  0  0  0  0  0  0  0  0  0  0
  143.7460  154.7170  135.7640 C   0  0  0  0  0  0  0  0  0  0  0  0
  144.1510  155.4170  134.6140 C   0  0  0  0  0  0  0  0  0  0  0  0
  143.1880  156.2640  133.8720 C   0  0  0  0  0  0  0  0  0  0  0  0
  142.4410  155.7480  132.9970 O   0  0  0  0  0  0  0  0  0  0  0  0
  143.0730  157.6700  134.1500 N   0  0  0  0  0  0  0  0  0  0  0  0
  142.0420  158.3210  134.7550 C   0  0  0  0  0  0  0  0  0  0  0  0
  140.7710  157.7050  135.1920 C   0  0  0  0  0  0  0  0  0  0  0  0
  140.0060  156.9290  134.2720 N   0  0  0  0  0  0  0  0  0  0  0  0
  140.3630  157.8420  136.3740 O   0  0  0  0  0  0  0  0  0  0  0  0
  142.3210  159.6840  134.8560 C   0  0  0  0  0  0  0  0  0  0  0  0
  143.5650  159.8460  134.2890 C   0  0  0  0  0  0  0  0  0  0  0  0
  144.3320  160.9940  134.1160 C   0  0  0  0  0  0  0  0  0  0  0  0
  145.5870  160.8610  133.4970 C   0  0  0  0  0  0  0  0  0  0  0  0
  146.0520  159.5910  133.0690 C   0  0  0  0  0  0  0  0  0  0  0  0
  147.3800  159.4640  132.4270 C   0  0  0  0  0  0  0  0  0  0  0  0
  147.6880  160.2930  131.3350 C   0  0  0  0  0  0  0  0  0  0  0  0
  148.9070  160.2260  130.7400 N   0  0  0  0  0  0  0  0  0  0  0  0
  149.8640  159.3640  131.1670 C   0  0  0  0  0  0  0  0  0  0  0  0
  149.6090  158.5090  132.2390 C   0  0  0  0  0  0  0  0  0  0  0  0
  148.3550  158.5340  132.8690 C   0  0  0  0  0  0  0  0  0  0  0  0
  148.1010  157.5830  134.0110 C   0  0  0  0  0  0  0  0  0  0  0  0
  145.2540  158.4470  133.2860 C   0  0  0  0  0  0  0  0  0  0  0  0
  143.9990  158.6140  133.8780 C   0  0  0  0  0  0  0  0  0  0  0  0
  145.4850  155.3010  134.1820 C   0  0  0  0  0  0  0  0  0  0  0  0
  146.3950  154.5190  134.8970 C   0  0  0  0  0  0  0  0  0  0  0  0
  148.1883  153.5761  138.3150 H   0  0  0  0  0  0  0  0  0  0  0  0
  149.0147  152.9439  136.8507 H   0  0  0  0  0  0  0  0  0  0  0  0
  148.3342  154.6063  136.8507 H   0  0  0  0  0  0  0  0  0  0  0  0
  144.3325  153.3971  137.3783 H   0  0  0  0  0  0  0  0  0  0  0  0
  142.7024  154.7844  136.1051 H   0  0  0  0  0  0  0  0  0  0  0  0
  140.4620  156.4530  133.4630 H   0  0  0  0  0  0  0  0  0  0  0  0
  141.6823  160.4642  135.2956 H   0  0  0  0  0  0  0  0  0  0  0  0
  143.9674  161.9755  134.4533 H   0  0  0  0  0  0  0  0  0  0  0  0
  146.2150  161.7509  133.3429 H   0  0  0  0  0  0  0  0  0  0  0  0
  146.9357  161.0020  130.9590 H   0  0  0  0  0  0  0  0  0  0  0  0
  150.8432  159.3395  130.6665 H   0  0  0  0  0  0  0  0  0  0  0  0
  150.3886  157.8169  132.5898 H   0  0  0  0  0  0  0  0  0  0  0  0
  148.2419  158.1107  134.9658 H   0  0  0  0  0  0  0  0  0  0  0  0
  147.0701  157.2040  133.9502 H   0  0  0  0  0  0  0  0  0  0  0  0
  148.8056  156.7405  133.9502 H   0  0  0  0  0  0  0  0  0  0  0  0
  145.6114  157.4479  132.9961 H   0  0  0  0  0  0  0  0  0  0  0  0
  145.8135  155.8297  133.2751 H   0  0  0  0  0  0  0  0  0  0  0  0
  147.4359  154.4406  134.5502 H   0  0  0  0  0  0  0  0  0  0  0  0
  1  2  1  0
  2  3  1  0
  3  4  2  0
  4  5  1  0
  5  6  2  0
  6  7  1  0
  7  8  2  0
  7  9  1  0
  9 10  1  0
 10 11  1  0
 11 12  1  0
 11 13  2  0
 10 14  2  0
 14 15  1  0
 15 16  2  0
 16 17  1  0
 17 18  2  0
 18 19  1  0
 19 20  2  0
 20 21  1  0
 21 22  2  0
 22 23  1  0
 23 24  2  0
 24 25  1  0
 18 26  1  0
 26 27  2  0
  6 28  1  0
 28 29  2  0
 29  3  1  0
 27  9  1  0
 27 15  1  0
 24 19  1  0
  1 30  1  0
  1 31  1  0
  1 32  1  0
  4 33  1  0
  5 34  1  0
 12 35  1  0
 14 36  1  0
 16 37  1  0
 17 38  1  0
 20 39  1  0
 22 40  1  0
 23 41  1  0
 25 42  1  0
 25 43  1  0
 25 44  1  0
 26 45  1  0
 28 46  1  0
 29 47  1  0
M  CHG  1  12  -1
M  END
>  <UniqueID>  (63) 
63

>  <SMILES>  (63) 
COc1ccc(C(=O)n2c(C([NH-])=O)cc3ccc(-c4cnccc4C)cc32)cc1

>  <Energy>  (63) 
97.86645242530223

>  <Genealogy>  (63) 
COc1ccc(C(=O)n2c(C([NH-])=O)cc3ccc(-c4cnccc4C)cc32)cc1 (protonated)
COc1ccc(C(=O)n2c(C([NH-])=O)cc3ccc(-c4cnccc4C)cc32)cc1 (3D coordinates assigned)
COc1ccc(C(=O)n2c(C([NH-])=O)cc3ccc(-c4cnccc4C)cc32)cc1 (optimized conformer: 97.86645242530223 kcal/mol)

>  <smiles>  (63) 
COc1ccc(C(=O)n2c(C(N)=O)cc3ccc(-c4cnccc4C)cc32)cc1

>  <score_type>  (63) 
oracle

>  <origin>  (63) 
adg

>  <m_score__min__energy>  (63) 
-8.6699999999999999

>  <m_primary>  (63) 
energy

$$$$
63:0
     RDKit          3D

 49 51  0  0  0  0  0  0  0  0999 V2000
  149.7900  152.0800  132.4800 C   0  0  0  0  0  0  0  0  0  0  0  0
  148.4680  152.7890  132.5920 C   0  0  0  0  0  0  0  0  0  0  0  0
  148.4460  154.1830  132.7740 C   0  0  0  0  0  0  0  0  0  0  0  0
  147.2290  154.8800  132.8790 C   0  0  0  0  0  0  0  0  0  0  0  0
  147.2160  156.3530  133.0700 C   0  0  0  0  0  0  0  0  0  0  0  0
  148.4280  157.0930  133.0490 C   0  0  0  0  0  0  0  0  0  0  0  0
  148.4230  158.4870  133.2190 C   0  0  0  0  0  0  0  0  0  0  0  0
  147.1980  159.1170  133.4160 C   0  0  0  0  0  0  0  0  0  0  0  0
  146.9040  160.4500  133.5860 C   0  0  0  0  0  0  0  0  0  0  0  0
  145.5190  160.5080  133.7350 C   0  0  0  0  0  0  0  0  0  0  0  0
  144.7850  161.7550  134.0320 C   0  0  0  0  0  0  0  0  0  0  0  0
  143.4030  161.8870  133.7090 N   0  0  0  0  0  0  0  0  0  0  0  0
  145.3730  162.7000  134.6210 O   0  0  0  0  0  0  0  0  0  0  0  0
  144.9790  159.2590  133.6500 N   0  0  0  0  0  0  0  0  0  0  0  0
  143.5920  158.8900  133.6810 C   0  0  0  0  0  0  0  0  0  0  0  0
  143.0940  158.2490  132.7180 O   0  0  0  0  0  0  0  0  0  0  0  0
  142.8190  159.2260  134.8030 O   0  0  0  0  0  0  0  0  0  0  0  0
  141.4020  159.0540  134.9440 C   0  0  0  0  0  0  0  0  0  0  0  0
  141.0430  157.5580  135.0150 C   0  0  0  0  0  0  0  0  0  0  0  0
  140.9950  159.7240  136.2650 C   0  0  0  0  0  0  0  0  0  0  0  0
  140.6550  159.7390  133.7850 C   0  0  0  0  0  0  0  0  0  0  0  0
  146.0200  158.4190  133.4590 C   0  0  0  0  0  0  0  0  0  0  0  0
  145.9920  157.0330  133.2710 C   0  0  0  0  0  0  0  0  0  0  0  0
  146.0260  154.1630  132.7980 C   0  0  0  0  0  0  0  0  0  0  0  0
  146.0360  152.7790  132.6180 C   0  0  0  0  0  0  0  0  0  0  0  0
  147.2460  152.0800  132.5130 C   0  0  0  0  0  0  0  0  0  0  0  0
  147.2140  150.6580  132.3270 N   0  0  0  0  0  0  0  0  0  0  0  0
  150.1803  151.8707  133.4869 H   0  0  0  0  0  0  0  0  0  0  0  0
  149.6537  151.1339  131.9356 H   0  0  0  0  0  0  0  0  0  0  0  0
  150.5027  152.7169  131.9356 H   0  0  0  0  0  0  0  0  0  0  0  0
  149.3946  154.7366  132.8352 H   0  0  0  0  0  0  0  0  0  0  0  0
  149.3825  156.5677  132.8977 H   0  0  0  0  0  0  0  0  0  0  0  0
  149.3595  159.0637  133.1971 H   0  0  0  0  0  0  0  0  0  0  0  0
  147.6118  161.2919  133.6012 H   0  0  0  0  0  0  0  0  0  0  0  0
  142.7830  161.0500  133.6470 H   0  0  0  0  0  0  0  0  0  0  0  0
  140.9687  157.2483  136.0679 H   0  0  0  0  0  0  0  0  0  0  0  0
  140.0786  157.3882  134.5139 H   0  0  0  0  0  0  0  0  0  0  0  0
  141.8253  156.9690  134.5139 H   0  0  0  0  0  0  0  0  0  0  0  0
  141.3609  159.1217  137.1096 H   0  0  0  0  0  0  0  0  0  0  0  0
  141.4339  160.7314  136.3157 H   0  0  0  0  0  0  0  0  0  0  0  0
  139.8987  159.7988  136.3157 H   0  0  0  0  0  0  0  0  0  0  0  0
  139.9017  160.4298  134.1917 H   0  0  0  0  0  0  0  0  0  0  0  0
  141.3718  160.3003  133.1676 H   0  0  0  0  0  0  0  0  0  0  0  0
  140.1578  158.9764  133.1676 H   0  0  0  0  0  0  0  0  0  0  0  0
  145.0389  156.4839  133.2793 H   0  0  0  0  0  0  0  0  0  0  0  0
  145.0670  154.6959  132.8770 H   0  0  0  0  0  0  0  0  0  0  0  0
  145.0840  152.2311  132.5579 H   0  0  0  0  0  0  0  0  0  0  0  0
  147.4230  149.9900  133.1000 H   0  0  0  0  0  0  0  0  0  0  0  0
  146.9730  150.2520  131.3950 H   0  0  0  0  0  0  0  0  0  0  0  0
  1  2  1  0
  2  3  2  0
  3  4  1  0
  4  5  1  0
  5  6  2  0
  6  7  1  0
  7  8  2  0
  8  9  1  0
  9 10  2  0
 10 11  1  0
 11 12  1  0
 11 13  2  0
 10 14  1  0
 14 15  1  0
 15 16  2  0
 15 17  1  0
 17 18  1  0
 18 19  1  0
 18 20  1  0
 18 21  1  0
 14 22  1  0
 22 23  2  0
  4 24  2  0
 24 25  1  0
 25 26  2  0
 26 27  1  0
 26  2  1  0
 23  5  1  0
 22  8  1  0
  1 28  1  0
  1 29  1  0
  1 30  1  0
  3 31  1  0
  6 32  1  0
  7 33  1  0
  9 34  1  0
 12 35  1  0
 19 36  1  0
 19 37  1  0
 19 38  1  0
 20 39  1  0
 20 40  1  0
 20 41  1  0
 21 42  1  0
 21 43  1  0
 21 44  1  0
 23 45  1  0
 24 46  1  0
 25 47  1  0
 27 48  1  0
 27 49  1  0
M  CHG  1  12  -1
M  END
>  <UniqueID>  (64) 
64

>  <SMILES>  (64) 
Cc1cc(-c2ccc3cc(C([NH-])=O)n(C(=O)OC(C)(C)C)c3c2)ccc1N

>  <Energy>  (64) 
90.29138792191891

>  <Genealogy>  (64) 
Cc1cc(-c2ccc3cc(C([NH-])=O)n(C(=O)OC(C)(C)C)c3c2)ccc1N (protonated)
Cc1cc(-c2ccc3cc(C([NH-])=O)n(C(=O)OC(C)(C)C)c3c2)ccc1N (3D coordinates assigned)
Cc1cc(-c2ccc3cc(C([NH-])=O)n(C(=O)OC(C)(C)C)c3c2)ccc1N (optimized conformer: 90.29138792191891 kcal/mol)

>  <smiles>  (64) 
Cc1cc(-c2ccc3cc(C(N)=O)n(C(=O)OC(C)(C)C)c3c2)ccc1N

>  <score_type>  (64) 
oracle

>  <origin>  (64) 
adg

>  <m_score__min__energy>  (64) 
-8.7100000000000009

>  <m_primary>  (64) 
energy

$$$$
64:0
     RDKit          3D

 73 78  0  0  0  0  0  0  0  0999 V2000
  140.2960  155.1800  139.0550 C   0  0  0  0  0  0  0  0  0  0  0  0
  141.3050  156.2360  138.5650 C   0  0  0  0  0  0  0  0  0  0  0  0
  140.6680  157.1450  137.4930 C   0  0  0  0  0  0  0  0  0  0  0  0
  141.7320  157.1070  139.7570 C   0  0  0  0  0  0  0  0  0  0  0  0
  142.4880  155.6060  138.0520 O   0  0  0  0  0  0  0  0  0  0  0  0
  142.7770  154.2330  138.0720 C   0  0  0  0  0  0  0  0  0  0  0  0
  143.4980  153.7390  138.9810 O   0  0  0  0  0  0  0  0  0  0  0  0
  142.2510  153.3840  137.0400 N   0  0  0  0  0  0  0  0  0  0  0  0
  141.7070  152.1400  137.1710 C   0  0  0  0  0  0  0  0  0  0  0  0
  141.3910  151.4560  138.4440 C   0  0  0  0  0  0  0  0  0  0  0  0
  142.4180  151.0800  139.3530 N   0  0  0  0  0  0  0  0  0  0  0  0
  140.1890  151.2500  138.7580 O   0  0  0  0  0  0  0  0  0  0  0  0
  141.3540  151.6260  135.9250 C   0  0  0  0  0  0  0  0  0  0  0  0
  141.6840  152.6070  135.0200 C   0  0  0  0  0  0  0  0  0  0  0  0
  141.5020  152.6470  133.6420 C   0  0  0  0  0  0  0  0  0  0  0  0
  141.8830  153.8130  132.9550 C   0  0  0  0  0  0  0  0  0  0  0  0
  142.4700  154.9060  133.6510 C   0  0  0  0  0  0  0  0  0  0  0  0
  142.8250  156.1390  132.9890 N   0  0  0  0  0  0  0  0  0  0  0  0
  144.0030  156.9120  133.2580 C   0  0  0  0  0  0  0  0  0  0  0  0
  143.8930  158.2610  133.4400 N   0  0  0  0  0  0  0  0  0  0  0  0
  144.9760  159.0460  133.7110 C   0  0  0  0  0  0  0  0  0  0  0  0
  144.8010  160.4680  133.8870 N   0  0  0  0  0  0  0  0  0  0  0  0
  145.8770  161.4260  134.1110 C   0  0  0  0  0  0  0  0  0  0  0  0
  145.2070  162.7890  134.2290 C   0  0  0  0  0  0  0  0  0  0  0  0
  143.7960  162.6090  133.6750 C   0  0  0  0  0  0  0  0  0  0  0  0
  143.5070  161.1140  133.7400 C   0  0  0  0  0  0  0  0  0  0  0  0
  146.2140  158.4030  133.8120 C   0  0  0  0  0  0  0  0  0  0  0  0
  147.4110  158.9560  134.1040 N   0  0  0  0  0  0  0  0  0  0  0  0
  148.2580  157.8950  134.1240 C   0  0  0  0  0  0  0  0  0  0  0  0
  147.5650  156.7260  133.8450 C   0  0  0  0  0  0  0  0  0  0  0  0
  148.1270  155.3590  133.8510 C   0  0  0  0  0  0  0  0  0  0  0  0
  148.1620  154.7230  134.9420 O   0  0  0  0  0  0  0  0  0  0  0  0
  148.6670  154.7660  132.6610 N   0  0  0  0  0  0  0  0  0  0  0  0
  148.7280  153.3420  132.4470 C   0  0  0  0  0  0  0  0  0  0  0  0
  149.9600  152.6840  132.2690 C   0  0  0  0  0  0  0  0  0  0  0  0
  150.0070  151.2980  132.1020 C   0  0  0  0  0  0  0  0  0  0  0  0
  148.8300  150.5490  132.1340 C   0  0  0  0  0  0  0  0  0  0  0  0
  148.8790  149.2020  131.9920 F   0  0  0  0  0  0  0  0  0  0  0  0
  147.6010  151.1880  132.3310 C   0  0  0  0  0  0  0  0  0  0  0  0
  147.5480  152.5770  132.4860 C   0  0  0  0  0  0  0  0  0  0  0  0
  146.3440  153.1730  132.6890 F   0  0  0  0  0  0  0  0  0  0  0  0
  146.2820  157.0760  133.6530 N   0  0  0  0  0  0  0  0  0  0  0  0
  145.2210  156.3130  133.3960 N   0  0  0  0  0  0  0  0  0  0  0  0
  142.6500  154.8140  135.0530 C   0  0  0  0  0  0  0  0  0  0  0  0
  142.2240  153.6560  135.7160 C   0  0  0  0  0  0  0  0  0  0  0  0
  140.2837  155.1672  140.1548 H   0  0  0  0  0  0  0  0  0  0  0  0
  139.2925  155.4299  138.6800 H   0  0  0  0  0  0  0  0  0  0  0  0
  140.5913  154.1889  138.6800 H   0  0  0  0  0  0  0  0  0  0  0  0
  140.1032  157.9510  137.9843 H   0  0  0  0  0  0  0  0  0  0  0  0
  141.4589  157.5814  136.8653 H   0  0  0  0  0  0  0  0  0  0  0  0
  139.9878  156.5506  136.8653 H   0  0  0  0  0  0  0  0  0  0  0  0
  141.4798  156.5925  140.6960 H   0  0  0  0  0  0  0  0  0  0  0  0
  142.8174  157.2806  139.7141 H   0  0  0  0  0  0  0  0  0  0  0  0
  141.2045  158.0713  139.7141 H   0  0  0  0  0  0  0  0  0  0  0  0
  143.2870  151.6510  139.4490 H   0  0  0  0  0  0  0  0  0  0  0  0
  140.9065  150.6442  135.7109 H   0  0  0  0  0  0  0  0  0  0  0  0
  141.0716  151.7895  133.1040 H   0  0  0  0  0  0  0  0  0  0  0  0
  141.7256  153.8808  131.8684 H   0  0  0  0  0  0  0  0  0  0  0  0
  142.3030  156.3870  132.1160 H   0  0  0  0  0  0  0  0  0  0  0  0
  146.4174  161.1841  135.0380 H   0  0  0  0  0  0  0  0  0  0  0  0
  146.6107  161.4070  133.2917 H   0  0  0  0  0  0  0  0  0  0  0  0
  145.1675  163.1065  135.2815 H   0  0  0  0  0  0  0  0  0  0  0  0
  145.7625  163.5620  133.6777 H   0  0  0  0  0  0  0  0  0  0  0  0
  143.0711  163.1654  134.2873 H   0  0  0  0  0  0  0  0  0  0  0  0
  143.7151  162.9908  132.6465 H   0  0  0  0  0  0  0  0  0  0  0  0
  142.8641  160.8850  134.6027 H   0  0  0  0  0  0  0  0  0  0  0  0
  142.9787  160.7637  132.8410 H   0  0  0  0  0  0  0  0  0  0  0  0
  149.3367  157.9538  134.3312 H   0  0  0  0  0  0  0  0  0  0  0  0
  149.1510  155.3900  131.9790 H   0  0  0  0  0  0  0  0  0  0  0  0
  150.8932  153.2663  132.2614 H   0  0  0  0  0  0  0  0  0  0  0  0
  150.9732  150.7962  131.9450 H   0  0  0  0  0  0  0  0  0  0  0  0
  146.6742  150.5965  132.3640 H   0  0  0  0  0  0  0  0  0  0  0  0
  143.1167  155.6385  135.6119 H   0  0  0  0  0  0  0  0  0  0  0  0
  1  2  1  0
  2  3  1  0
  2  4  1  0
  2  5  1  0
  5  6  1  0
  6  7  2  0
  6  8  1  0
  8  9  1  0
  9 10  1  0
 10 11  1  0
 10 12  2  0
  9 13  2  0
 13 14  1  0
 14 15  2  0
 15 16  1  0
 16 17  2  0
 17 18  1  0
 18 19  1  0
 19 20  1  0
 20 21  2  0
 21 22  1  0
 22 23  1  0
 23 24  1  0
 24 25  1  0
 25 26  1  0
 21 27  1  0
 27 28  2  0
 28 29  1  0
 29 30  2  0
 30 31  1  0
 31 32  2  0
 31 33  1  0
 33 34  1  0
 34 35  2  0
 35 36  1  0
 36 37  2  0
 37 38  1  0
 37 39  1  0
 39 40  2  0
 40 41  1  0
 30 42  1  0
 42 43  1  0
 17 44  1  0
 44 45  2  0
 45  8  1  0
 45 14  1  0
 43 19  2  0
 26 22  1  0
 42 27  1  0
 40 34  1  0
  1 46  1  0
  1 47  1  0
  1 48  1  0
  3 49  1  0
  3 50  1  0
  3 51  1  0
  4 52  1  0
  4 53  1  0
  4 54  1  0
 11 55  1  0
 13 56  1  0
 15 57  1  0
 16 58  1  0
 18 59  1  0
 23 60  1  0
 23 61  1  0
 24 62  1  0
 24 63  1  0
 25 64  1  0
 25 65  1  0
 26 66  1  0
 26 67  1  0
 29 68  1  0
 33 69  1  0
 35 70  1  0
 36 71  1  0
 39 72  1  0
 44 73  1  0
M  CHG  1  11  -1
M  END
>  <UniqueID>  (65) 
65

>  <SMILES>  (65) 
CC(C)(C)OC(=O)n1c(C([NH-])=O)cc2ccc(Nc3nc(N4CCCC4)c4ncc(C(=O)Nc5ccc(F)cc5F)n4n3)cc21

>  <Energy>  (65) 
164.0495118458017

>  <Genealogy>  (65) 
CC(C)(C)OC(=O)n1c(C([NH-])=O)cc2ccc(Nc3nc(N4CCCC4)c4ncc(C(=O)Nc5ccc(F)cc5F)n4n3)cc21 (protonated)
CC(C)(C)OC(=O)n1c(C([NH-])=O)cc2ccc(Nc3nc(N4CCCC4)c4ncc(C(=O)Nc5ccc(F)cc5F)n4n3)cc21 (3D coordinates assigned)
CC(C)(C)OC(=O)n1c(C([NH-])=O)cc2ccc(Nc3nc(N4CCCC4)c4ncc(C(=O)Nc5ccc(F)cc5F)n4n3)cc21 (nonaromatic ring conformer: 164.0495118458017 kcal/mol)

>  <smiles>  (65) 
CC(C)(C)OC(=O)n1c(C(N)=O)cc2ccc(Nc3nc(N4CCCC4)c4ncc(C(=O)Nc5ccc(F)cc5F)n4n3)cc21

>  <score_type>  (65) 
oracle

>  <origin>  (65) 
adg

>  <m_score__min__energy>  (65) 
-10.619999999999999

>  <m_primary>  (65) 
energy

$$$$
65:0
     RDKit          3D

 69 73  0  0  0  0  0  0  0  0999 V2000
  145.4850  159.3880  133.0950 C   0  0  0  0  0  0  0  0  0  0  0  0
  144.4500  158.5750  133.8880 C   0  0  0  0  0  0  0  0  0  0  0  0
  143.4760  159.3780  134.6680 N   0  0  0  0  0  0  0  0  0  0  0  0
  142.9170  160.5550  133.9850 C   0  0  0  0  0  0  0  0  0  0  0  0
  141.8270  160.1780  132.9820 C   0  0  0  0  0  0  0  0  0  0  0  0
  140.8780  159.1130  133.4950 C   0  0  0  0  0  0  0  0  0  0  0  0
  139.6740  158.8480  132.7930 C   0  0  0  0  0  0  0  0  0  0  0  0
  139.2920  159.6250  131.5580 C   0  0  0  0  0  0  0  0  0  0  0  0
  138.7980  157.8620  133.2670 C   0  0  0  0  0  0  0  0  0  0  0  0
  139.1100  157.1220  134.4010 C   0  0  0  0  0  0  0  0  0  0  0  0
  140.3100  157.3380  135.0840 C   0  0  0  0  0  0  0  0  0  0  0  0
  140.5850  156.5560  136.2550 N   0  0  0  0  0  0  0  0  0  0  0  0
  140.0930  156.8180  137.4570 N   0  0  0  0  0  0  0  0  0  0  0  0
  140.5840  155.8970  138.3140 C   0  0  0  0  0  0  0  0  0  0  0  0
  141.4310  155.0300  137.6360 C   0  0  0  0  0  0  0  0  0  0  0  0
  142.1630  153.8680  138.1930 C   0  0  0  0  0  0  0  0  0  0  0  0
  141.4590  152.8560  138.8950 C   0  0  0  0  0  0  0  0  0  0  0  0
  142.1360  151.7460  139.4280 C   0  0  0  0  0  0  0  0  0  0  0  0
  143.5120  151.6700  139.2420 C   0  0  0  0  0  0  0  0  0  0  0  0
  144.4130  150.7220  139.6700 C   0  0  0  0  0  0  0  0  0  0  0  0
  145.6550  151.1590  139.2140 C   0  0  0  0  0  0  0  0  0  0  0  0
  146.9030  150.3850  139.3860 C   0  0  0  0  0  0  0  0  0  0  0  0
  147.6000  150.3780  140.6290 N   0  0  0  0  0  0  0  0  0  0  0  0
  147.3890  149.7590  138.4050 O   0  0  0  0  0  0  0  0  0  0  0  0
  145.5270  152.3360  138.5380 N   0  0  0  0  0  0  0  0  0  0  0  0
  146.5660  153.1560  137.9810 C   0  0  0  0  0  0  0  0  0  0  0  0
  146.6760  153.2620  136.7310 O   0  0  0  0  0  0  0  0  0  0  0  0
  147.4750  153.7890  138.8420 O   0  0  0  0  0  0  0  0  0  0  0  0
  148.9040  153.6450  138.8290 C   0  0  0  0  0  0  0  0  0  0  0  0
  149.5830  155.0070  138.5930 C   0  0  0  0  0  0  0  0  0  0  0  0
  149.3360  152.6260  137.7560 C   0  0  0  0  0  0  0  0  0  0  0  0
  149.3180  153.1140  140.2100 C   0  0  0  0  0  0  0  0  0  0  0  0
  144.2090  152.6330  138.5590 C   0  0  0  0  0  0  0  0  0  0  0  0
  143.5640  153.7590  138.0360 C   0  0  0  0  0  0  0  0  0  0  0  0
  141.3990  155.4900  136.3330 C   0  0  0  0  0  0  0  0  0  0  0  0
  142.0000  154.9850  135.3470 O   0  0  0  0  0  0  0  0  0  0  0  0
  141.2150  158.3260  134.6290 C   0  0  0  0  0  0  0  0  0  0  0  0
  142.4660  158.6290  135.4340 C   0  0  0  0  0  0  0  0  0  0  0  0
  146.1529  159.9126  133.7941 H   0  0  0  0  0  0  0  0  0  0  0  0
  146.0763  158.7104  132.4616 H   0  0  0  0  0  0  0  0  0  0  0  0
  144.9667  160.1230  132.4616 H   0  0  0  0  0  0  0  0  0  0  0  0
  143.8861  157.9552  133.1753 H   0  0  0  0  0  0  0  0  0  0  0  0
  145.0213  157.9905  134.6242 H   0  0  0  0  0  0  0  0  0  0  0  0
  142.4863  161.2304  134.7388 H   0  0  0  0  0  0  0  0  0  0  0  0
  143.7324  161.0418  133.4299 H   0  0  0  0  0  0  0  0  0  0  0  0
  141.2436  161.0801  132.7458 H   0  0  0  0  0  0  0  0  0  0  0  0
  142.3306  159.7642  132.0959 H   0  0  0  0  0  0  0  0  0  0  0  0
  138.8245  160.5760  131.8531 H   0  0  0  0  0  0  0  0  0  0  0  0
  140.1925  159.8291  130.9601 H   0  0  0  0  0  0  0  0  0  0  0  0
  138.5805  159.0366  130.9601 H   0  0  0  0  0  0  0  0  0  0  0  0
  137.8537  157.6719  132.7358 H   0  0  0  0  0  0  0  0  0  0  0  0
  138.4059  156.3590  134.7645 H   0  0  0  0  0  0  0  0  0  0  0  0
  140.3486  155.8419  139.3871 H   0  0  0  0  0  0  0  0  0  0  0  0
  140.3699  152.9413  139.0237 H   0  0  0  0  0  0  0  0  0  0  0  0
  141.5940  150.9610  139.9757 H   0  0  0  0  0  0  0  0  0  0  0  0
  144.1982  149.8120  140.2494 H   0  0  0  0  0  0  0  0  0  0  0  0
  148.2120  149.5760  140.8980 H   0  0  0  0  0  0  0  0  0  0  0  0
  149.8156  155.4735  139.5617 H   0  0  0  0  0  0  0  0  0  0  0  0
  150.5130  154.8595  138.0244 H   0  0  0  0  0  0  0  0  0  0  0  0
  148.9054  155.6609  138.0244 H   0  0  0  0  0  0  0  0  0  0  0  0
  149.7205  151.7190  138.2454 H   0  0  0  0  0  0  0  0  0  0  0  0
  148.4710  152.3654  137.1285 H   0  0  0  0  0  0  0  0  0  0  0  0
  150.1248  153.0665  137.1285 H   0  0  0  0  0  0  0  0  0  0  0  0
  148.8436  153.7224  140.9941 H   0  0  0  0  0  0  0  0  0  0  0  0
  148.9951  152.0675  140.3123 H   0  0  0  0  0  0  0  0  0  0  0  0
  150.4117  153.1719  140.3123 H   0  0  0  0  0  0  0  0  0  0  0  0
  144.1340  154.5419  137.5144 H   0  0  0  0  0  0  0  0  0  0  0  0
  142.1809  159.2244  136.3139 H   0  0  0  0  0  0  0  0  0  0  0  0
  142.9158  157.6661  135.7177 H   0  0  0  0  0  0  0  0  0  0  0  0
  1  2  1  0
  2  3  1  0
  3  4  1  0
  4  5  1  0
  5  6  1  0
  6  7  2  0
  7  8  1  0
  7  9  1  0
  9 10  2  0
 10 11  1  0
 11 12  1  0
 12 13  1  0
 13 14  1  0
 14 15  2  0
 15 16  1  0
 16 17  2  0
 17 18  1  0
 18 19  2  0
 19 20  1  0
 20 21  2  0
 21 22  1  0
 22 23  1  0
 22 24  2  0
 21 25  1  0
 25 26  1  0
 26 27  2  0
 26 28  1  0
 28 29  1  0
 29 30  1  0
 29 31  1  0
 29 32  1  0
 25 33  1  0
 33 34  2  0
 15 35  1  0
 35 36  2  0
 11 37  2  0
 37 38  1  0
 38  3  1  0
 37  6  1  0
 35 12  1  0
 34 16  1  0
 33 19  1  0
  1 39  1  0
  1 40  1  0
  1 41  1  0
  2 42  1  0
  2 43  1  0
  4 44  1  0
  4 45  1  0
  5 46  1  0
  5 47  1  0
  8 48  1  0
  8 49  1  0
  8 50  1  0
  9 51  1  0
 10 52  1  0
 14 53  1  0
 17 54  1  0
 18 55  1  0
 20 56  1  0
 23 57  1  0
 30 58  1  0
 30 59  1  0
 30 60  1  0
 31 61  1  0
 31 62  1  0
 31 63  1  0
 32 64  1  0
 32 65  1  0
 32 66  1  0
 34 67  1  0
 38 68  1  0
 38 69  1  0
M  CHG  2  13  -1  23  -1
M  END
>  <UniqueID>  (66) 
66

>  <SMILES>  (66) 
CCN1CCc2c(C)ccc(-n3[n-]cc(-c4ccc5cc(C([NH-])=O)n(C(=O)OC(C)(C)C)c5c4)c3=O)c2C1

>  <Energy>  (66) 
162.08132124423554

>  <Genealogy>  (66) 
CCN1CCc2c(C)ccc(-n3[n-]cc(-c4ccc5cc(C([NH-])=O)n(C(=O)OC(C)(C)C)c5c4)c3=O)c2C1 (protonated)
CCN1CCc2c(C)ccc(-n3[n-]cc(-c4ccc5cc(C([NH-])=O)n(C(=O)OC(C)(C)C)c5c4)c3=O)c2C1 (3D coordinates assigned)
CCN1CCc2c(C)ccc(-n3[n-]cc(-c4ccc5cc(C([NH-])=O)n(C(=O)OC(C)(C)C)c5c4)c3=O)c2C1 (nonaromatic ring conformer: 162.08132124423554 kcal/mol)

>  <smiles>  (66) 
CCN1CCc2c(C)ccc(-n3[nH]cc(-c4ccc5cc(C(N)=O)n(C(=O)OC(C)(C)C)c5c4)c3=O)c2C1

>  <score_type>  (66) 
oracle

>  <origin>  (66) 
adg

>  <m_score__min__energy>  (66) 
-10.449999999999999

>  <m_primary>  (66) 
energy

$$$$
66:0
     RDKit          3D

 58 61  0  0  0  0  0  0  0  0999 V2000
  139.5380  150.2180  130.8250 C   0  0  0  0  0  0  0  0  0  0  0  0
  140.5510  150.1780  131.9830 C   0  0  0  0  0  0  0  0  0  0  0  0
  139.9540  149.4540  133.2050 C   0  0  0  0  0  0  0  0  0  0  0  0
  141.8030  149.4180  131.5220 C   0  0  0  0  0  0  0  0  0  0  0  0
  140.9650  151.5060  132.3310 O   0  0  0  0  0  0  0  0  0  0  0  0
  141.9670  151.8510  133.2500 C   0  0  0  0  0  0  0  0  0  0  0  0
  142.0560  151.2660  134.3620 O   0  0  0  0  0  0  0  0  0  0  0  0
  142.8910  152.9010  132.9260 N   0  0  0  0  0  0  0  0  0  0  0  0
  144.1990  152.7730  132.5660 C   0  0  0  0  0  0  0  0  0  0  0  0
  144.8860  151.5050  132.2500 C   0  0  0  0  0  0  0  0  0  0  0  0
  146.2150  151.4940  131.7250 N   0  0  0  0  0  0  0  0  0  0  0  0
  144.3130  150.4100  132.4970 O   0  0  0  0  0  0  0  0  0  0  0  0
  144.8140  154.0190  132.5000 C   0  0  0  0  0  0  0  0  0  0  0  0
  143.8320  154.9260  132.8240 C   0  0  0  0  0  0  0  0  0  0  0  0
  143.9010  156.3090  132.9560 C   0  0  0  0  0  0  0  0  0  0  0  0
  142.7450  156.9890  133.3690 C   0  0  0  0  0  0  0  0  0  0  0  0
  141.5410  156.2880  133.6370 C   0  0  0  0  0  0  0  0  0  0  0  0
  140.3270  157.0600  134.1290 C   0  0  0  0  0  0  0  0  0  0  0  0
  139.7380  157.9560  133.0470 C   0  0  0  0  0  0  0  0  0  0  0  0
  140.5980  158.5950  132.1320 C   0  0  0  0  0  0  0  0  0  0  0  0
  140.0840  159.4100  131.1180 C   0  0  0  0  0  0  0  0  0  0  0  0
  138.7050  159.5900  130.9970 C   0  0  0  0  0  0  0  0  0  0  0  0
  137.8390  158.9470  131.8840 C   0  0  0  0  0  0  0  0  0  0  0  0
  138.3460  158.1310  132.9010 C   0  0  0  0  0  0  0  0  0  0  0  0
  140.5910  157.7810  135.4450 C   0  0  0  0  0  0  0  0  0  0  0  0
  140.5520  159.1880  135.4660 C   0  0  0  0  0  0  0  0  0  0  0  0
  140.7620  159.8900  136.6570 C   0  0  0  0  0  0  0  0  0  0  0  0
  141.0120  159.1970  137.8430 C   0  0  0  0  0  0  0  0  0  0  0  0
  141.0410  157.8010  137.8430 C   0  0  0  0  0  0  0  0  0  0  0  0
  140.8220  157.0940  136.6580 C   0  0  0  0  0  0  0  0  0  0  0  0
  141.5160  154.8780  133.5010 C   0  0  0  0  0  0  0  0  0  0  0  0
  142.6800  154.2270  133.0750 C   0  0  0  0  0  0  0  0  0  0  0  0
  138.5170  150.2583  131.2323 H   0  0  0  0  0  0  0  0  0  0  0  0
  139.7220  151.1096  130.2075 H   0  0  0  0  0  0  0  0  0  0  0  0
  139.6511  149.3147  130.2075 H   0  0  0  0  0  0  0  0  0  0  0  0
  140.3352  149.9163  134.1275 H   0  0  0  0  0  0  0  0  0  0  0  0
  138.8573  149.5358  133.1800 H   0  0  0  0  0  0  0  0  0  0  0  0
  140.2432  148.3930  133.1800 H   0  0  0  0  0  0  0  0  0  0  0  0
  142.3681  149.0749  132.4012 H   0  0  0  0  0  0  0  0  0  0  0  0
  141.5028  148.5495  130.9173 H   0  0  0  0  0  0  0  0  0  0  0  0
  142.4349  150.0851  130.9173 H   0  0  0  0  0  0  0  0  0  0  0  0
  146.7820  152.3700  131.6720 H   0  0  0  0  0  0  0  0  0  0  0  0
  146.6730  150.5900  131.4750 H   0  0  0  0  0  0  0  0  0  0  0  0
  145.8620  154.2332  132.2434 H   0  0  0  0  0  0  0  0  0  0  0  0
  144.8331  156.8530  132.7432 H   0  0  0  0  0  0  0  0  0  0  0  0
  142.7728  158.0823  133.4868 H   0  0  0  0  0  0  0  0  0  0  0  0
  139.5453  156.3202  134.3563 H   0  0  0  0  0  0  0  0  0  0  0  0
  141.6854  158.4514  132.2160 H   0  0  0  0  0  0  0  0  0  0  0  0
  140.7671  159.9096  130.4153 H   0  0  0  0  0  0  0  0  0  0  0  0
  138.3012  160.2371  130.2044 H   0  0  0  0  0  0  0  0  0  0  0  0
  136.7522  159.0829  131.7825 H   0  0  0  0  0  0  0  0  0  0  0  0
  137.6555  157.6232  133.5904 H   0  0  0  0  0  0  0  0  0  0  0  0
  140.3543  159.7410  134.5359 H   0  0  0  0  0  0  0  0  0  0  0  0
  140.7302  160.9895  136.6595 H   0  0  0  0  0  0  0  0  0  0  0  0
  141.1861  159.7508  138.7774 H   0  0  0  0  0  0  0  0  0  0  0  0
  141.2368  157.2564  138.7785 H   0  0  0  0  0  0  0  0  0  0  0  0
  140.8295  155.9941  136.6694 H   0  0  0  0  0  0  0  0  0  0  0  0
  140.6026  154.3075  133.7251 H   0  0  0  0  0  0  0  0  0  0  0  0
  1  2  1  0
  2  3  1  0
  2  4  1  0
  2  5  1  0
  5  6  1  0
  6  7  2  0
  6  8  1  0
  8  9  1  0
  9 10  1  0
 10 11  1  0
 10 12  2  0
  9 13  2  0
 13 14  1  0
 14 15  2  0
 15 16  1  0
 16 17  2  0
 17 18  1  0
 18 19  1  0
 19 20  2  0
 20 21  1  0
 21 22  2  0
 22 23  1  0
 23 24  2  0
 18 25  1  0
 25 26  2  0
 26 27  1  0
 27 28  2  0
 28 29  1  0
 29 30  2  0
 17 31  1  0
 31 32  2  0
 32  8  1  0
 32 14  1  0
 24 19  1  0
 30 25  1  0
  1 33  1  0
  1 34  1  0
  1 35  1  0
  3 36  1  0
  3 37  1  0
  3 38  1  0
  4 39  1  0
  4 40  1  0
  4 41  1  0
 11 42  1  0
 11 43  1  0
 13 44  1  0
 15 45  1  0
 16 46  1  0
 18 47  1  0
 20 48  1  0
 21 49  1  0
 22 50  1  0
 23 51  1  0
 24 52  1  0
 26 53  1  0
 27 54  1  0
 28 55  1  0
 29 56  1  0
 30 57  1  0
 31 58  1  0
M  END
>  <UniqueID>  (67) 
67

>  <SMILES>  (67) 
CC(C)(C)OC(=O)n1c(C(N)=O)cc2ccc(C(c3ccccc3)c3ccccc3)cc21

>  <Energy>  (67) 
99.5795953583972

>  <Genealogy>  (67) 
CC(C)(C)OC(=O)n1c(C(N)=O)cc2ccc(C(c3ccccc3)c3ccccc3)cc21 (3D coordinates assigned)
CC(C)(C)OC(=O)n1c(C(N)=O)cc2ccc(C(c3ccccc3)c3ccccc3)cc21 (optimized conformer: 99.5795953583972 kcal/mol)

>  <smiles>  (67) 
CC(C)(C)OC(=O)n1c(C(N)=O)cc2ccc(C(c3ccccc3)c3ccccc3)cc21

>  <score_type>  (67) 
oracle

>  <origin>  (67) 
adg

>  <m_score__min__energy>  (67) 
-10.720000000000001

>  <m_primary>  (67) 
energy

$$$$
67:0
     RDKit          3D

 56 58  0  0  0  0  0  0  0  0999 V2000
  143.4000  154.6960  134.0380 C   0  0  0  0  0  0  0  0  0  0  0  0
  144.0920  155.2970  135.2180 C   0  0  0  0  0  0  0  0  0  0  0  0
  143.4420  155.5020  136.2780 O   0  0  0  0  0  0  0  0  0  0  0  0
  145.4860  155.6380  135.1600 N   0  0  0  0  0  0  0  0  0  0  0  0
  146.5350  154.9410  135.6810 C   0  0  0  0  0  0  0  0  0  0  0  0
  146.4410  153.7220  136.5140 C   0  0  0  0  0  0  0  0  0  0  0  0
  145.2270  153.3720  137.1720 N   0  0  0  0  0  0  0  0  0  0  0  0
  147.4570  152.9930  136.6690 O   0  0  0  0  0  0  0  0  0  0  0  0
  147.7380  155.5750  135.3800 C   0  0  0  0  0  0  0  0  0  0  0  0
  147.3920  156.6920  134.6550 C   0  0  0  0  0  0  0  0  0  0  0  0
  148.1940  157.6900  134.1090 C   0  0  0  0  0  0  0  0  0  0  0  0
  147.5610  158.7350  133.4150 C   0  0  0  0  0  0  0  0  0  0  0  0
  146.1510  158.7570  133.2700 C   0  0  0  0  0  0  0  0  0  0  0  0
  145.4850  159.9380  132.6130 C   0  0  0  0  0  0  0  0  0  0  0  0
  144.9870  160.9580  133.6520 C   0  0  0  0  0  0  0  0  0  0  0  0
  143.5040  160.7660  134.0360 C   0  0  0  0  0  0  0  0  0  0  0  0
  143.2370  159.4160  134.3740 O   0  0  0  0  0  0  0  0  0  0  0  0
  141.8530  159.2220  134.5930 C   0  0  0  0  0  0  0  0  0  0  0  0
  141.1650  158.4490  133.4320 C   0  0  2  0  0  0  0  0  0  0  0  0
  142.2200  157.5710  132.7140 C   0  0  0  0  0  0  0  0  0  0  0  0
  140.4250  159.3680  132.4430 C   0  0  0  0  0  0  0  0  0  0  0  0
  139.0960  158.6940  132.7810 C   0  0  0  0  0  0  0  0  0  0  0  0
  139.8030  157.7370  133.7580 C   0  0  0  0  0  0  0  0  0  0  0  0
  139.6810  156.2630  133.3020 C   0  0  0  0  0  0  0  0  0  0  0  0
  139.2730  157.8770  135.2030 C   0  0  0  0  0  0  0  0  0  0  0  0
  145.3730  157.7150  133.8210 C   0  0  0  0  0  0  0  0  0  0  0  0
  146.0260  156.7040  134.5320 C   0  0  0  0  0  0  0  0  0  0  0  0
  142.6118  154.0115  134.3846 H   0  0  0  0  0  0  0  0  0  0  0  0
  142.9504  155.4951  133.4303 H   0  0  0  0  0  0  0  0  0  0  0  0
  144.1283  154.1389  133.4303 H   0  0  0  0  0  0  0  0  0  0  0  0
  144.5700  154.1080  137.5130 H   0  0  0  0  0  0  0  0  0  0  0  0
  148.7507  155.2512  135.6622 H   0  0  0  0  0  0  0  0  0  0  0  0
  149.2883  157.6615  134.2173 H   0  0  0  0  0  0  0  0  0  0  0  0
  148.1657  159.5443  132.9798 H   0  0  0  0  0  0  0  0  0  0  0  0
  146.2086  160.4310  131.9472 H   0  0  0  0  0  0  0  0  0  0  0  0
  144.6161  159.5717  132.0466 H   0  0  0  0  0  0  0  0  0  0  0  0
  145.5986  160.8573  134.5607 H   0  0  0  0  0  0  0  0  0  0  0  0
  145.0789  161.9558  133.1982 H   0  0  0  0  0  0  0  0  0  0  0  0
  143.2704  161.4059  134.8997 H   0  0  0  0  0  0  0  0  0  0  0  0
  142.8803  161.0408  133.1726 H   0  0  0  0  0  0  0  0  0  0  0  0
  141.7205  158.6506  135.5236 H   0  0  0  0  0  0  0  0  0  0  0  0
  141.3838  160.2149  134.6555 H   0  0  0  0  0  0  0  0  0  0  0  0
  142.8392  157.0557  133.4630 H   0  0  0  0  0  0  0  0  0  0  0  0
  141.7105  156.8266  132.0846 H   0  0  0  0  0  0  0  0  0  0  0  0
  142.8595  158.2073  132.0846 H   0  0  0  0  0  0  0  0  0  0  0  0
  140.4650  160.4345  132.7095 H   0  0  0  0  0  0  0  0  0  0  0  0
  140.7588  159.4328  131.3969 H   0  0  0  0  0  0  0  0  0  0  0  0
  138.3667  159.3627  133.2615 H   0  0  0  0  0  0  0  0  0  0  0  0
  138.4653  158.2892  131.9758 H   0  0  0  0  0  0  0  0  0  0  0  0
  139.6269  155.6093  134.1850 H   0  0  0  0  0  0  0  0  0  0  0  0
  138.7696  156.1401  132.6984 H   0  0  0  0  0  0  0  0  0  0  0  0
  140.5598  155.9920  132.6984 H   0  0  0  0  0  0  0  0  0  0  0  0
  140.0848  157.6626  135.9137 H   0  0  0  0  0  0  0  0  0  0  0  0
  138.9079  158.9024  135.3619 H   0  0  0  0  0  0  0  0  0  0  0  0
  138.4491  157.1657  135.3619 H   0  0  0  0  0  0  0  0  0  0  0  0
  144.2805  157.6994  133.6938 H   0  0  0  0  0  0  0  0  0  0  0  0
  1  2  1  0
  2  3  2  0
  2  4  1  0
  4  5  1  0
  5  6  1  0
  6  7  1  0
  6  8  2  0
  5  9  2  0
  9 10  1  0
 10 11  2  0
 11 12  1  0
 12 13  2  0
 13 14  1  0
 14 15  1  0
 15 16  1  0
 16 17  1  0
 17 18  1  0
 19 18  1  1
 19 20  1  0
 19 21  1  0
 21 22  1  0
 22 23  1  0
 23 24  1  0
 23 25  1  0
 13 26  1  0
 26 27  2  0
 27  4  1  0
 27 10  1  0
 23 19  1  0
  1 28  1  0
  1 29  1  0
  1 30  1  0
  7 31  1  0
  9 32  1  0
 11 33  1  0
 12 34  1  0
 14 35  1  0
 14 36  1  0
 15 37  1  0
 15 38  1  0
 16 39  1  0
 16 40  1  0
 18 41  1  0
 18 42  1  0
 20 43  1  0
 20 44  1  0
 20 45  1  0
 21 46  1  0
 21 47  1  0
 22 48  1  0
 22 49  1  0
 24 50  1  0
 24 51  1  0
 24 52  1  0
 25 53  1  0
 25 54  1  0
 25 55  1  0
 26 56  1  0
M  CHG  1   7  -1
M  END
>  <UniqueID>  (68) 
68

>  <SMILES>  (68) 
CC(=O)n1c(C([NH-])=O)cc2ccc(CCCOC[C@]3(C)CCC3(C)C)cc21

>  <Energy>  (68) 
158.7041191020093

>  <Genealogy>  (68) 
CC(=O)n1c(C([NH-])=O)cc2ccc(CCCOCC3(C)CCC3(C)C)cc21 (protonated)
CC(=O)n1c(C([NH-])=O)cc2ccc(CCCOC[C@]3(C)CCC3(C)C)cc21 (chirality)
CC(=O)n1c(C([NH-])=O)cc2ccc(CCCOC[C@]3(C)CCC3(C)C)cc21 (3D coordinates assigned)
CC(=O)n1c(C([NH-])=O)cc2ccc(CCCOC[C@]3(C)CCC3(C)C)cc21 (nonaromatic ring conformer: 158.7041191020093 kcal/mol)

>  <smiles>  (68) 
CC(=O)n1c(C(N)=O)cc2ccc(CCCOCC3(C)CCC3(C)C)cc21

>  <score_type>  (68) 
oracle

>  <origin>  (68) 
adg

>  <m_score__min__energy>  (68) 
-8.2599999999999998

>  <m_primary>  (68) 
energy

$$$$
68:0
     RDKit          3D

 55 58  0  0  0  0  0  0  0  0999 V2000
  142.5410  156.6880  135.5700 C   0  0  0  0  0  0  0  0  0  0  0  0
  142.4780  158.0840  135.1330 N   0  0  0  0  0  0  0  0  0  0  0  0
  141.1730  158.7540  135.0710 C   0  0  0  0  0  0  0  0  0  0  0  0
  140.3000  158.0890  134.0420 C   0  0  0  0  0  0  0  0  0  0  0  0
  140.0660  156.7110  134.0450 C   0  0  0  0  0  0  0  0  0  0  0  0
  139.1510  156.2980  132.6880 S   0  0  0  0  0  0  0  0  0  0  0  0
  139.0500  157.8590  132.0840 C   0  0  0  0  0  0  0  0  0  0  0  0
  138.4210  158.2860  130.9180 C   0  0  0  0  0  0  0  0  0  0  0  0
  138.4760  159.6480  130.5940 C   0  0  0  0  0  0  0  0  0  0  0  0
  139.1510  160.5510  131.4370 C   0  0  0  0  0  0  0  0  0  0  0  0
  139.7770  160.0990  132.6100 C   0  0  0  0  0  0  0  0  0  0  0  0
  139.7250  158.7330  132.9260 C   0  0  0  0  0  0  0  0  0  0  0  0
  143.6040  158.6690  134.4550 C   0  0  0  0  0  0  0  0  0  0  0  0
  143.6270  160.0580  134.1750 C   0  0  0  0  0  0  0  0  0  0  0  0
  144.7370  160.6420  133.5410 C   0  0  0  0  0  0  0  0  0  0  0  0
  145.8060  159.8170  133.2080 C   0  0  0  0  0  0  0  0  0  0  0  0
  146.9930  160.1160  132.5790 C   0  0  0  0  0  0  0  0  0  0  0  0
  147.6850  158.9100  132.5010 C   0  0  0  0  0  0  0  0  0  0  0  0
  149.0580  158.7900  131.9680 C   0  0  0  0  0  0  0  0  0  0  0  0
  149.7410  157.5410  132.0430 N   0  0  0  0  0  0  0  0  0  0  0  0
  149.6220  159.7690  131.4120 O   0  0  0  0  0  0  0  0  0  0  0  0
  146.9520  157.9020  133.0550 N   0  0  0  0  0  0  0  0  0  0  0  0
  147.2810  156.5050  133.1120 C   0  0  0  0  0  0  0  0  0  0  0  0
  147.2620  155.8170  132.0570 O   0  0  0  0  0  0  0  0  0  0  0  0
  147.6440  155.9310  134.3400 O   0  0  0  0  0  0  0  0  0  0  0  0
  147.3470  154.5970  134.7760 C   0  0  0  0  0  0  0  0  0  0  0  0
  147.7250  154.4160  136.2590 C   0  0  0  0  0  0  0  0  0  0  0  0
  145.8320  154.3960  134.6210 C   0  0  0  0  0  0  0  0  0  0  0  0
  148.0780  153.5640  133.8980 C   0  0  0  0  0  0  0  0  0  0  0  0
  145.8040  158.4740  133.4830 C   0  0  0  0  0  0  0  0  0  0  0  0
  144.7030  157.8620  134.0910 C   0  0  0  0  0  0  0  0  0  0  0  0
  142.5428  156.6476  136.6693 H   0  0  0  0  0  0  0  0  0  0  0  0
  141.6665  156.1433  135.1845 H   0  0  0  0  0  0  0  0  0  0  0  0
  143.4610  156.2243  135.1845 H   0  0  0  0  0  0  0  0  0  0  0  0
  140.6858  158.6939  136.0554 H   0  0  0  0  0  0  0  0  0  0  0  0
  141.3216  159.8074  134.7912 H   0  0  0  0  0  0  0  0  0  0  0  0
  140.4221  156.0065  134.8111 H   0  0  0  0  0  0  0  0  0  0  0  0
  137.8942  157.5723  130.2675 H   0  0  0  0  0  0  0  0  0  0  0  0
  137.9898  160.0131  129.6773 H   0  0  0  0  0  0  0  0  0  0  0  0
  139.1884  161.6187  131.1749 H   0  0  0  0  0  0  0  0  0  0  0  0
  140.3003  160.8054  133.2712 H   0  0  0  0  0  0  0  0  0  0  0  0
  142.7681  160.6849  134.4565 H   0  0  0  0  0  0  0  0  0  0  0  0
  144.7596  161.7183  133.3151 H   0  0  0  0  0  0  0  0  0  0  0  0
  147.3249  161.0995  132.2149 H   0  0  0  0  0  0  0  0  0  0  0  0
  149.2460  156.6450  131.8330 H   0  0  0  0  0  0  0  0  0  0  0  0
  146.9148  154.8039  136.8939 H   0  0  0  0  0  0  0  0  0  0  0  0
  147.8771  153.3474  136.4708 H   0  0  0  0  0  0  0  0  0  0  0  0
  148.6529  154.9675  136.4708 H   0  0  0  0  0  0  0  0  0  0  0  0
  145.3666  154.3343  135.6158 H   0  0  0  0  0  0  0  0  0  0  0  0
  145.4041  155.2452  134.0681 H   0  0  0  0  0  0  0  0  0  0  0  0
  145.6404  153.4646  134.0681 H   0  0  0  0  0  0  0  0  0  0  0  0
  148.5935  152.8355  134.5411 H   0  0  0  0  0  0  0  0  0  0  0  0
  147.3481  153.0406  133.2629 H   0  0  0  0  0  0  0  0  0  0  0  0
  148.8144  154.0782  133.2629 H   0  0  0  0  0  0  0  0  0  0  0  0
  144.6940  156.7785  134.2807 H   0  0  0  0  0  0  0  0  0  0  0  0
  1  2  1  0
  2  3  1  0
  3  4  1  0
  4  5  2  0
  5  6  1  0
  6  7  1  0
  7  8  2  0
  8  9  1  0
  9 10  2  0
 10 11  1  0
 11 12  2  0
  2 13  1  0
 13 14  2  0
 14 15  1  0
 15 16  2  0
 16 17  1  0
 17 18  2  0
 18 19  1  0
 19 20  1  0
 19 21  2  0
 18 22  1  0
 22 23  1  0
 23 24  2  0
 23 25  1  0
 25 26  1  0
 26 27  1  0
 26 28  1  0
 26 29  1  0
 22 30  1  0
 30 31  2  0
 12  4  1  0
 31 13  1  0
 12  7  1  0
 30 16  1  0
  1 32  1  0
  1 33  1  0
  1 34  1  0
  3 35  1  0
  3 36  1  0
  5 37  1  0
  8 38  1  0
  9 39  1  0
 10 40  1  0
 11 41  1  0
 14 42  1  0
 15 43  1  0
 17 44  1  0
 20 45  1  0
 27 46  1  0
 27 47  1  0
 27 48  1  0
 28 49  1  0
 28 50  1  0
 28 51  1  0
 29 52  1  0
 29 53  1  0
 29 54  1  0
 31 55  1  0
M  CHG  1  20  -1
M  END
>  <UniqueID>  (69) 
69

>  <SMILES>  (69) 
CN(Cc1csc2ccccc12)c1ccc2cc(C([NH-])=O)n(C(=O)OC(C)(C)C)c2c1

>  <Energy>  (69) 
124.00646492009946

>  <Genealogy>  (69) 
CN(Cc1csc2ccccc12)c1ccc2cc(C([NH-])=O)n(C(=O)OC(C)(C)C)c2c1 (protonated)
CN(Cc1csc2ccccc12)c1ccc2cc(C([NH-])=O)n(C(=O)OC(C)(C)C)c2c1 (3D coordinates assigned)
CN(Cc1csc2ccccc12)c1ccc2cc(C([NH-])=O)n(C(=O)OC(C)(C)C)c2c1 (optimized conformer: 124.00646492009946 kcal/mol)

>  <smiles>  (69) 
CN(Cc1csc2ccccc12)c1ccc2cc(C(N)=O)n(C(=O)OC(C)(C)C)c2c1

>  <score_type>  (69) 
oracle

>  <origin>  (69) 
adg

>  <m_score__min__energy>  (69) 
-9.6199999999999992

>  <m_primary>  (69) 
energy

$$$$
69:0
     RDKit          3D

 69 72  0  0  0  0  0  0  0  0999 V2000
  142.7722  151.4195  132.8215 H   0  0  0  0  0  0  0  0  0  0  0  0
  143.5560  150.7230  132.4890 C   0  0  0  0  0  0  0  0  0  0  0  0
  143.2020  149.3120  132.2410 C   0  0  0  0  0  0  0  0  0  0  0  0
  144.0990  148.5190  131.8540 O   0  0  0  0  0  0  0  0  0  0  0  0
  141.8780  148.8110  132.4580 N   0  0  0  0  0  0  0  0  0  0  0  0
  140.7000  149.3960  131.8930 C   0  0  0  0  0  0  0  0  0  0  0  0
  140.0160  148.8940  130.8490 N   0  0  0  0  0  0  0  0  0  0  0  0
  139.0250  149.7560  130.6540 N   0  0  0  0  0  0  0  0  0  0  0  0
  139.0990  150.7460  131.5360 N   0  0  0  0  0  0  0  0  0  0  0  0
  140.1300  150.5280  132.3310 N   0  0  0  0  0  0  0  0  0  0  0  0
  140.6310  151.4590  133.3350 C   0  0  0  0  0  0  0  0  0  0  0  0
  141.6178  151.1222  133.6854 H   0  0  0  0  0  0  0  0  0  0  0  0
  139.9293  151.4930  134.1814 H   0  0  0  0  0  0  0  0  0  0  0  0
  140.7550  152.8270  132.7400 C   0  0  0  0  0  0  0  0  0  0  0  0
  141.6320  153.0540  131.8630 O   0  0  0  0  0  0  0  0  0  0  0  0
  139.9000  153.8440  133.1760 O   0  0  0  0  0  0  0  0  0  0  0  0
  140.3390  155.1820  133.3820 C   0  0  0  0  0  0  0  0  0  0  0  0
  141.3388  155.3117  132.9420 H   0  0  0  0  0  0  0  0  0  0  0  0
  140.3832  155.3913  134.4610 H   0  0  0  0  0  0  0  0  0  0  0  0
  139.3650  156.1430  132.7190 C   0  0  0  0  0  0  0  0  0  0  0  0
  138.8082  156.6924  133.4924 H   0  0  0  0  0  0  0  0  0  0  0  0
  139.9219  156.8553  132.0925 H   0  0  0  0  0  0  0  0  0  0  0  0
  138.6603  155.5766  132.0925 H   0  0  0  0  0  0  0  0  0  0  0  0
  144.8050  151.1810  132.3210 C   0  0  0  0  0  0  0  0  0  0  0  0
  145.5827  150.4696  132.0061 H   0  0  0  0  0  0  0  0  0  0  0  0
  145.1930  152.5940  132.5370 C   0  0  0  0  0  0  0  0  0  0  0  0
  146.4790  152.9600  132.9740 C   0  0  0  0  0  0  0  0  0  0  0  0
  147.2241  152.1806  133.1914 H   0  0  0  0  0  0  0  0  0  0  0  0
  146.8170  154.3070  133.1340 C   0  0  0  0  0  0  0  0  0  0  0  0
  147.8232  154.5788  133.4857 H   0  0  0  0  0  0  0  0  0  0  0  0
  145.8810  155.3180  132.8490 C   0  0  0  0  0  0  0  0  0  0  0  0
  146.2510  156.7480  132.9990 C   0  0  0  0  0  0  0  0  0  0  0  0
  147.5870  157.1730  132.7790 C   0  0  0  0  0  0  0  0  0  0  0  0
  148.3480  156.4380  132.4778 H   0  0  0  0  0  0  0  0  0  0  0  0
  147.9500  158.5200  132.9410 C   0  0  0  0  0  0  0  0  0  0  0  0
  148.9832  158.8540  132.7650 H   0  0  0  0  0  0  0  0  0  0  0  0
  146.9620  159.4190  133.3310 C   0  0  0  0  0  0  0  0  0  0  0  0
  147.0390  160.7760  133.5500 C   0  0  0  0  0  0  0  0  0  0  0  0
  147.9266  161.4183  133.4517 H   0  0  0  0  0  0  0  0  0  0  0  0
  145.7520  161.1630  133.9230 C   0  0  0  0  0  0  0  0  0  0  0  0
  145.3970  162.5350  134.3470 C   0  0  0  0  0  0  0  0  0  0  0  0
  146.0660  163.1140  135.2450 O   0  0  0  0  0  0  0  0  0  0  0  0
  144.3210  163.2350  133.7220 N   0  0  0  0  0  0  0  0  0  0  0  0
  144.1020  164.2180  134.0010 H   0  0  0  0  0  0  0  0  0  0  0  0
  143.6960  162.7610  133.0330 H   0  0  0  0  0  0  0  0  0  0  0  0
  144.9140  160.0870  133.9290 N   0  0  0  0  0  0  0  0  0  0  0  0
  143.5050  160.0700  134.2100 C   0  0  0  0  0  0  0  0  0  0  0  0
  142.7490  160.9270  133.6770 O   0  0  0  0  0  0  0  0  0  0  0  0
  142.9840  159.0830  135.0620 O   0  0  0  0  0  0  0  0  0  0  0  0
  142.0690  158.0400  134.7020 C   0  0  0  0  0  0  0  0  0  0  0  0
  142.5740  156.6780  135.2120 C   0  0  0  0  0  0  0  0  0  0  0  0
  142.5748  156.6757  136.3120 H   0  0  0  0  0  0  0  0  0  0  0  0
  141.9119  155.8803  134.8442 H   0  0  0  0  0  0  0  0  0  0  0  0
  143.5961  156.5048  134.8442 H   0  0  0  0  0  0  0  0  0  0  0  0
  142.0050  158.0060  133.1670 C   0  0  0  0  0  0  0  0  0  0  0  0
  141.0749  157.5119  132.8497 H   0  0  0  0  0  0  0  0  0  0  0  0
  142.0258  159.0341  132.7763 H   0  0  0  0  0  0  0  0  0  0  0  0
  142.8685  157.4477  132.7763 H   0  0  0  0  0  0  0  0  0  0  0  0
  140.6600  158.3400  135.2500 C   0  0  0  0  0  0  0  0  0  0  0  0
  140.6855  158.3346  136.3497 H   0  0  0  0  0  0  0  0  0  0  0  0
  140.3315  159.3282  134.8957 H   0  0  0  0  0  0  0  0  0  0  0  0
  139.9574  157.5713  134.8957 H   0  0  0  0  0  0  0  0  0  0  0  0
  145.6710  159.0280  133.5640 C   0  0  0  0  0  0  0  0  0  0  0  0
  145.2760  157.6970  133.3860 C   0  0  0  0  0  0  0  0  0  0  0  0
  144.2299  157.3955  133.5437 H   0  0  0  0  0  0  0  0  0  0  0  0
  144.6000  154.9510  132.4060 C   0  0  0  0  0  0  0  0  0  0  0  0
  143.8566  155.7298  132.1807 H   0  0  0  0  0  0  0  0  0  0  0  0
  144.2620  153.6030  132.2490 C   0  0  0  0  0  0  0  0  0  0  0  0
  143.2562  153.3313  131.8962 H   0  0  0  0  0  0  0  0  0  0  0  0
  1  2  1  0
  2  3  1  0
  3  4  2  0
  3  5  1  0
  5  6  1  0
  6  7  2  0
  7  8  1  0
  8  9  2  0
  9 10  1  0
 10 11  1  0
 11 12  1  0
 11 13  1  0
 11 14  1  0
 14 15  2  0
 14 16  1  0
 16 17  1  0
 17 18  1  0
 17 19  1  0
 17 20  1  0
 20 21  1  0
 20 22  1  0
 20 23  1  0
  2 24  2  0
 24 25  1  0
 24 26  1  0
 26 27  2  0
 27 28  1  0
 27 29  1  0
 29 30  1  0
 29 31  2  0
 31 32  1  0
 32 33  2  0
 33 34  1  0
 33 35  1  0
 35 36  1  0
 35 37  2  0
 37 38  1  0
 38 39  1  0
 38 40  2  0
 40 41  1  0
 41 42  2  0
 41 43  1  0
 43 44  1  0
 43 45  1  0
 40 46  1  0
 46 47  1  0
 47 48  2  0
 47 49  1  0
 49 50  1  0
 50 51  1  0
 51 52  1  0
 51 53  1  0
 51 54  1  0
 50 55  1  0
 55 56  1  0
 55 57  1  0
 55 58  1  0
 50 59  1  0
 59 60  1  0
 59 61  1  0
 59 62  1  0
 46 63  1  0
 63 64  2  0
 64 65  1  0
 31 66  1  0
 66 67  1  0
 66 68  2  0
 68 69  1  0
 10  6  1  0
 68 26  1  0
 64 32  1  0
 63 37  1  0
M  CHG  1   5  -1
M  END
>  <UniqueID>  (70) 
70

>  <SMILES>  (70) 
CCOC(=O)Cn1nnnc1[N-]C(=O)/C=C/c1ccc(-c2ccc3cc(C(N)=O)n(C(=O)OC(C)(C)C)c3c2)cc1

>  <Energy>  (70) 
149.6402197887633

>  <Genealogy>  (70) 
CCOC(=O)Cn1nnnc1[N-]C(=O)/C=C/c1ccc(-c2ccc3cc(C(N)=O)n(C(=O)OC(C)(C)C)c3c2)cc1 (protonated)
CCOC(=O)Cn1nnnc1[N-]C(=O)/C=C/c1ccc(-c2ccc3cc(C(N)=O)n(C(=O)OC(C)(C)C)c3c2)cc1 (cis-trans isomerization)
CCOC(=O)Cn1nnnc1[N-]C(=O)/C=C/c1ccc(-c2ccc3cc(C(N)=O)n(C(=O)OC(C)(C)C)c3c2)cc1 (3D coordinates assigned)
CCOC(=O)Cn1nnnc1[N-]C(=O)/C=C/c1ccc(-c2ccc3cc(C(N)=O)n(C(=O)OC(C)(C)C)c3c2)cc1 (optimized conformer: 149.6402197887633 kcal/mol)

>  <smiles>  (70) 
CCOC(=O)Cn1nnnc1NC(=O)/C=C/c1ccc(-c2ccc3cc(C(N)=O)n(C(=O)OC(C)(C)C)c3c2)cc1

>  <score_type>  (70) 
oracle

>  <origin>  (70) 
adg

>  <m_score__min__energy>  (70) 
-10.52

>  <m_primary>  (70) 
energy

$$$$
70:0
     RDKit          3D

 53 55  0  0  0  0  0  0  0  0999 V2000
  139.1190  147.5230  130.3040 C   0  0  0  0  0  0  0  0  0  0  0  0
  138.7300  148.8750  130.1960 O   0  0  0  0  0  0  0  0  0  0  0  0
  138.7660  149.5000  131.4660 C   0  0  0  0  0  0  0  0  0  0  0  0
  140.0610  150.3020  131.6210 C   0  0  0  0  0  0  0  0  0  0  0  0
  140.7700  149.9310  132.8950 C   0  0  0  0  0  0  0  0  0  0  0  0
  140.1650  149.2090  133.7330 O   0  0  0  0  0  0  0  0  0  0  0  0
  142.1070  150.3560  133.1930 N   0  0  0  0  0  0  0  0  0  0  0  0
  142.6350  151.6820  133.0710 C   0  0  0  0  0  0  0  0  0  0  0  0
  141.9560  152.8320  133.3940 C   0  0  0  0  0  0  0  0  0  0  0  0
  142.8790  153.8320  133.1310 C   0  0  0  0  0  0  0  0  0  0  0  0
  142.6910  155.2920  133.3080 C   0  0  0  0  0  0  0  0  0  0  0  0
  141.3800  155.8170  133.4660 C   0  0  0  0  0  0  0  0  0  0  0  0
  141.1710  157.1970  133.6220 C   0  0  0  0  0  0  0  0  0  0  0  0
  142.2870  158.0290  133.6260 C   0  0  0  0  0  0  0  0  0  0  0  0
  142.3700  159.3990  133.7400 C   0  0  0  0  0  0  0  0  0  0  0  0
  143.7290  159.6930  133.6790 C   0  0  0  0  0  0  0  0  0  0  0  0
  144.2770  161.0550  133.8410 C   0  0  0  0  0  0  0  0  0  0  0  0
  145.6730  161.2350  134.0770 N   0  0  0  0  0  0  0  0  0  0  0  0
  143.5320  162.0650  133.7370 O   0  0  0  0  0  0  0  0  0  0  0  0
  144.4580  158.5500  133.5290 N   0  0  0  0  0  0  0  0  0  0  0  0
  145.8800  158.4210  133.3870 C   0  0  0  0  0  0  0  0  0  0  0  0
  146.5130  157.6300  134.1380 O   0  0  0  0  0  0  0  0  0  0  0  0
  146.5470  159.1970  132.4270 O   0  0  0  0  0  0  0  0  0  0  0  0
  147.9660  159.3850  132.3240 C   0  0  0  0  0  0  0  0  0  0  0  0
  148.2920  160.5410  131.3590 C   0  0  0  0  0  0  0  0  0  0  0  0
  148.4770  159.7500  133.7260 C   0  0  0  0  0  0  0  0  0  0  0  0
  148.6510  158.0840  131.8680 C   0  0  0  0  0  0  0  0  0  0  0  0
  143.5590  157.5410  133.5000 C   0  0  0  0  0  0  0  0  0  0  0  0
  143.7980  156.1740  133.3230 C   0  0  0  0  0  0  0  0  0  0  0  0
  144.0250  153.2740  132.6840 N   0  0  0  0  0  0  0  0  0  0  0  0
  143.8420  151.9860  132.6610 O   0  0  0  0  0  0  0  0  0  0  0  0
  139.1981  147.2479  131.3661 H   0  0  0  0  0  0  0  0  0  0  0  0
  138.3679  146.8852  129.8150 H   0  0  0  0  0  0  0  0  0  0  0  0
  140.0942  147.3819  129.8150 H   0  0  0  0  0  0  0  0  0  0  0  0
  137.9047  150.1774  131.5627 H   0  0  0  0  0  0  0  0  0  0  0  0
  138.7247  148.7280  132.2485 H   0  0  0  0  0  0  0  0  0  0  0  0
  140.7206  150.0905  130.7665 H   0  0  0  0  0  0  0  0  0  0  0  0
  139.8107  151.3726  131.6558 H   0  0  0  0  0  0  0  0  0  0  0  0
  140.9276  152.9344  133.7706 H   0  0  0  0  0  0  0  0  0  0  0  0
  140.5179  155.1338  133.4661 H   0  0  0  0  0  0  0  0  0  0  0  0
  140.1571  157.6076  133.7374 H   0  0  0  0  0  0  0  0  0  0  0  0
  141.5386  160.1100  133.8549 H   0  0  0  0  0  0  0  0  0  0  0  0
  146.3610  161.1900  133.2940 H   0  0  0  0  0  0  0  0  0  0  0  0
  148.5459  161.4413  131.9378 H   0  0  0  0  0  0  0  0  0  0  0  0
  149.1459  160.2597  130.7251 H   0  0  0  0  0  0  0  0  0  0  0  0
  147.4170  160.7473  130.7251 H   0  0  0  0  0  0  0  0  0  0  0  0
  147.8288  159.2870  134.4846 H   0  0  0  0  0  0  0  0  0  0  0  0
  149.5061  159.3813  133.8487 H   0  0  0  0  0  0  0  0  0  0  0  0
  148.4620  160.8430  133.8487 H   0  0  0  0  0  0  0  0  0  0  0  0
  148.9573  157.5023  132.7499 H   0  0  0  0  0  0  0  0  0  0  0  0
  147.9479  157.4916  131.2641 H   0  0  0  0  0  0  0  0  0  0  0  0
  149.5373  158.3285  131.2641 H   0  0  0  0  0  0  0  0  0  0  0  0
  144.8225  155.7934  133.1984 H   0  0  0  0  0  0  0  0  0  0  0  0
  1  2  1  0
  2  3  1  0
  3  4  1  0
  4  5  1  0
  5  6  2  0
  5  7  1  0
  7  8  1  0
  8  9  2  0
  9 10  1  0
 10 11  1  0
 11 12  2  0
 12 13  1  0
 13 14  2  0
 14 15  1  0
 15 16  2  0
 16 17  1  0
 17 18  1  0
 17 19  2  0
 16 20  1  0
 20 21  1  0
 21 22  2  0
 21 23  1  0
 23 24  1  0
 24 25  1  0
 24 26  1  0
 24 27  1  0
 20 28  1  0
 28 29  2  0
 10 30  2  0
 30 31  1  0
 31  8  1  0
 29 11  1  0
 28 14  1  0
  1 32  1  0
  1 33  1  0
  1 34  1  0
  3 35  1  0
  3 36  1  0
  4 37  1  0
  4 38  1  0
  9 39  1  0
 12 40  1  0
 13 41  1  0
 15 42  1  0
 18 43  1  0
 25 44  1  0
 25 45  1  0
 25 46  1  0
 26 47  1  0
 26 48  1  0
 26 49  1  0
 27 50  1  0
 27 51  1  0
 27 52  1  0
 29 53  1  0
M  CHG  2   7  -1  18  -1
M  END
>  <UniqueID>  (71) 
71

>  <SMILES>  (71) 
COCCC(=O)[N-]c1cc(-c2ccc3cc(C([NH-])=O)n(C(=O)OC(C)(C)C)c3c2)no1

>  <Energy>  (71) 
120.5278160876209

>  <Genealogy>  (71) 
COCCC(=O)[N-]c1cc(-c2ccc3cc(C([NH-])=O)n(C(=O)OC(C)(C)C)c3c2)no1 (protonated)
COCCC(=O)[N-]c1cc(-c2ccc3cc(C([NH-])=O)n(C(=O)OC(C)(C)C)c3c2)no1 (3D coordinates assigned)
COCCC(=O)[N-]c1cc(-c2ccc3cc(C([NH-])=O)n(C(=O)OC(C)(C)C)c3c2)no1 (optimized conformer: 120.5278160876209 kcal/mol)

>  <smiles>  (71) 
COCCC(=O)Nc1cc(-c2ccc3cc(C(N)=O)n(C(=O)OC(C)(C)C)c3c2)no1

>  <score_type>  (71) 
oracle

>  <origin>  (71) 
adg

>  <m_score__min__energy>  (71) 
-9.0999999999999996

>  <m_primary>  (71) 
energy

$$$$
71:0
     RDKit          3D

 53 56  0  0  0  0  0  0  0  0999 V2000
  149.9690  150.7390  129.4980 C   0  0  0  0  0  0  0  0  0  0  0  0
  150.6800  149.8970  130.5510 C   0  0  0  0  0  0  0  0  0  0  0  0
  150.3360  150.3540  131.8940 N   0  0  0  0  0  0  0  0  0  0  0  0
  149.0010  150.6630  132.3100 C   0  0  0  0  0  0  0  0  0  0  0  0
  148.1680  149.7320  132.4860 O   0  0  0  0  0  0  0  0  0  0  0  0
  148.5960  152.0720  132.5280 C   0  0  0  0  0  0  0  0  0  0  0  0
  147.2520  152.4000  132.7790 C   0  0  0  0  0  0  0  0  0  0  0  0
  146.8700  153.7300  132.9830 C   0  0  0  0  0  0  0  0  0  0  0  0
  147.8240  154.7610  132.9390 C   0  0  0  0  0  0  0  0  0  0  0  0
  147.4180  156.1740  133.1560 C   0  0  0  0  0  0  0  0  0  0  0  0
  148.3990  157.1760  133.3770 C   0  0  0  0  0  0  0  0  0  0  0  0
  148.0260  158.5180  133.5720 C   0  0  0  0  0  0  0  0  0  0  0  0
  146.6710  158.8280  133.5460 C   0  0  0  0  0  0  0  0  0  0  0  0
  146.0310  160.0410  133.6910 C   0  0  0  0  0  0  0  0  0  0  0  0
  144.6720  159.7580  133.5680 C   0  0  0  0  0  0  0  0  0  0  0  0
  143.6010  160.7660  133.7020 C   0  0  0  0  0  0  0  0  0  0  0  0
  142.2600  160.4310  133.3510 N   0  0  0  0  0  0  0  0  0  0  0  0
  143.8590  161.9280  134.1150 O   0  0  0  0  0  0  0  0  0  0  0  0
  144.4840  158.4270  133.3500 N   0  0  0  0  0  0  0  0  0  0  0  0
  143.2440  157.7350  133.1480 C   0  0  0  0  0  0  0  0  0  0  0  0
  142.8930  157.4390  131.9730 O   0  0  0  0  0  0  0  0  0  0  0  0
  142.3870  157.4230  134.2650 N   0  0  0  0  0  0  0  0  0  0  0  0
  142.5540  158.1710  135.5210 C   0  0  0  0  0  0  0  0  0  0  0  0
  141.4240  157.8990  136.5160 C   0  0  0  0  0  0  0  0  0  0  0  0
  139.7900  158.2340  135.7670 S   0  0  0  0  0  0  0  0  0  0  0  0
  139.9400  157.2090  134.2470 C   0  0  0  0  0  0  0  0  0  0  0  0
  141.2750  156.4770  134.1110 C   0  0  0  0  0  0  0  0  0  0  0  0
  145.7120  157.8720  133.3440 C   0  0  0  0  0  0  0  0  0  0  0  0
  146.0500  156.5330  133.1390 C   0  0  0  0  0  0  0  0  0  0  0  0
  149.1670  154.4340  132.6870 C   0  0  0  0  0  0  0  0  0  0  0  0
  149.5490  153.1050  132.4840 C   0  0  0  0  0  0  0  0  0  0  0  0
  149.3357  151.4890  129.9945 H   0  0  0  0  0  0  0  0  0  0  0  0
  150.7153  151.2473  128.8698 H   0  0  0  0  0  0  0  0  0  0  0  0
  149.3429  150.0884  128.8698 H   0  0  0  0  0  0  0  0  0  0  0  0
  150.3765  148.8457  130.4383 H   0  0  0  0  0  0  0  0  0  0  0  0
  151.7663  149.9972  130.4102 H   0  0  0  0  0  0  0  0  0  0  0  0
  146.4942  151.6035  132.8153 H   0  0  0  0  0  0  0  0  0  0  0  0
  145.8148  153.9708  133.1794 H   0  0  0  0  0  0  0  0  0  0  0  0
  149.4635  156.8995  133.3960 H   0  0  0  0  0  0  0  0  0  0  0  0
  148.7830  159.2982  133.7399 H   0  0  0  0  0  0  0  0  0  0  0  0
  146.4946  161.0230  133.8664 H   0  0  0  0  0  0  0  0  0  0  0  0
  142.0610  159.7350  132.5990 H   0  0  0  0  0  0  0  0  0  0  0  0
  143.5089  157.8785  135.9821 H   0  0  0  0  0  0  0  0  0  0  0  0
  142.5360  159.2436  135.2777 H   0  0  0  0  0  0  0  0  0  0  0  0
  141.4665  156.8451  136.8282 H   0  0  0  0  0  0  0  0  0  0  0  0
  141.5539  158.5650  137.3818 H   0  0  0  0  0  0  0  0  0  0  0  0
  139.1353  156.4591  134.2564 H   0  0  0  0  0  0  0  0  0  0  0  0
  139.8710  157.8994  133.3935 H   0  0  0  0  0  0  0  0  0  0  0  0
  141.3460  155.7023  134.8887 H   0  0  0  0  0  0  0  0  0  0  0  0
  141.3317  156.0137  133.1149 H   0  0  0  0  0  0  0  0  0  0  0  0
  145.2710  155.7753  132.9684 H   0  0  0  0  0  0  0  0  0  0  0  0
  149.9244  155.2309  132.6491 H   0  0  0  0  0  0  0  0  0  0  0  0
  150.6045  152.8650  132.2881 H   0  0  0  0  0  0  0  0  0  0  0  0
  1  2  1  0
  2  3  1  0
  3  4  1  0
  4  5  2  0
  4  6  1  0
  6  7  2  0
  7  8  1  0
  8  9  2  0
  9 10  1  0
 10 11  2  0
 11 12  1  0
 12 13  2  0
 13 14  1  0
 14 15  2  0
 15 16  1  0
 16 17  1  0
 16 18  2  0
 15 19  1  0
 19 20  1  0
 20 21  2  0
 20 22  1  0
 22 23  1  0
 23 24  1  0
 24 25  1  0
 25 26  1  0
 26 27  1  0
 19 28  1  0
 28 29  2  0
  9 30  1  0
 30 31  2  0
 31  6  1  0
 29 10  1  0
 28 13  1  0
 27 22  1  0
  1 32  1  0
  1 33  1  0
  1 34  1  0
  2 35  1  0
  2 36  1  0
  7 37  1  0
  8 38  1  0
 11 39  1  0
 12 40  1  0
 14 41  1  0
 17 42  1  0
 23 43  1  0
 23 44  1  0
 24 45  1  0
 24 46  1  0
 26 47  1  0
 26 48  1  0
 27 49  1  0
 27 50  1  0
 29 51  1  0
 30 52  1  0
 31 53  1  0
M  CHG  2   3  -1  17  -1
M  END
>  <UniqueID>  (72) 
72

>  <SMILES>  (72) 
CC[N-]C(=O)c1ccc(-c2ccc3cc(C([NH-])=O)n(C(=O)N4CCSCC4)c3c2)cc1

>  <Energy>  (72) 
97.67995952049438

>  <Genealogy>  (72) 
CC[N-]C(=O)c1ccc(-c2ccc3cc(C([NH-])=O)n(C(=O)N4CCSCC4)c3c2)cc1 (protonated)
CC[N-]C(=O)c1ccc(-c2ccc3cc(C([NH-])=O)n(C(=O)N4CCSCC4)c3c2)cc1 (3D coordinates assigned)
CC[N-]C(=O)c1ccc(-c2ccc3cc(C([NH-])=O)n(C(=O)N4CCSCC4)c3c2)cc1 (nonaromatic ring conformer: 97.67995952049438 kcal/mol)

>  <smiles>  (72) 
CCNC(=O)c1ccc(-c2ccc3cc(C(N)=O)n(C(=O)N4CCSCC4)c3c2)cc1

>  <score_type>  (72) 
oracle

>  <origin>  (72) 
adg

>  <m_score__min__energy>  (72) 
-9.8200000000000003

>  <m_primary>  (72) 
energy

$$$$
72:0
     RDKit          3D

 59 60  0  0  0  0  0  0  0  0999 V2000
  148.6130  156.7420  132.9670 C   0  0  0  0  0  0  0  0  0  0  0  0
  147.5350  157.7770  133.1240 C   0  0  0  0  0  0  0  0  0  0  0  0
  147.8210  159.1450  132.8860 C   0  0  0  0  0  0  0  0  0  0  0  0
  146.8280  160.1250  133.0570 C   0  0  0  0  0  0  0  0  0  0  0  0
  145.5660  159.7090  133.4790 C   0  0  0  0  0  0  0  0  0  0  0  0
  144.4140  160.4320  133.6790 C   0  0  0  0  0  0  0  0  0  0  0  0
  143.4520  159.4990  134.0520 C   0  0  0  0  0  0  0  0  0  0  0  0
  142.0360  159.8490  134.2610 C   0  0  0  0  0  0  0  0  0  0  0  0
  141.1860  158.9600  134.9920 N   0  0  0  0  0  0  0  0  0  0  0  0
  141.5560  160.9000  133.7570 O   0  0  0  0  0  0  0  0  0  0  0  0
  143.9820  158.2430  134.0790 N   0  0  0  0  0  0  0  0  0  0  0  0
  143.2930  156.9840  134.1850 C   0  0  0  0  0  0  0  0  0  0  0  0
  143.3990  156.3080  135.2470 O   0  0  0  0  0  0  0  0  0  0  0  0
  142.3440  156.5240  133.1200 C   0  0  0  0  0  0  0  0  0  0  0  0
  140.8170  155.9090  133.8350 S   0  0  0  0  0  0  0  0  0  0  0  0
  139.6640  156.7210  133.3060 O   0  0  0  0  0  0  0  0  0  0  0  0
  140.8690  156.0510  135.3320 O   0  0  0  0  0  0  0  0  0  0  0  0
  140.6160  154.1920  133.3340 C   0  0  0  0  0  0  0  0  0  0  0  0
  141.8520  153.2580  133.5230 C   0  0  0  0  0  0  0  0  0  0  0  0
  141.3300  151.8030  133.5820 C   0  0  0  0  0  0  0  0  0  0  0  0
  142.8080  153.3730  132.3130 C   0  0  0  0  0  0  0  0  0  0  0  0
  142.5940  153.5840  134.8500 C   0  0  0  0  0  0  0  0  0  0  0  0
  142.1360  152.7640  135.9280 O   0  0  0  0  0  0  0  0  0  0  0  0
  141.7440  153.2600  137.1770 C   0  0  0  0  0  0  0  0  0  0  0  0
  141.3210  152.4810  138.0740 O   0  0  0  0  0  0  0  0  0  0  0  0
  141.8140  154.6690  137.4200 N   0  0  0  0  0  0  0  0  0  0  0  0
  141.3860  155.2740  138.6850 C   0  0  0  0  0  0  0  0  0  0  0  0
  141.4850  156.8000  138.6020 C   0  0  0  0  0  0  0  0  0  0  0  0
  139.9520  154.8500  139.0200 C   0  0  0  0  0  0  0  0  0  0  0  0
  145.2770  158.3910  133.7210 C   0  0  0  0  0  0  0  0  0  0  0  0
  146.2460  157.3950  133.5650 C   0  0  0  0  0  0  0  0  0  0  0  0
  148.9542  156.4144  133.9601 H   0  0  0  0  0  0  0  0  0  0  0  0
  148.2149  155.8791  132.4130 H   0  0  0  0  0  0  0  0  0  0  0  0
  149.4590  157.1749  132.4130 H   0  0  0  0  0  0  0  0  0  0  0  0
  148.8300  159.4425  132.5643 H   0  0  0  0  0  0  0  0  0  0  0  0
  147.0400  161.1870  132.8639 H   0  0  0  0  0  0  0  0  0  0  0  0
  144.2811  161.5183  133.5677 H   0  0  0  0  0  0  0  0  0  0  0  0
  140.8360  158.0760  134.5590 H   0  0  0  0  0  0  0  0  0  0  0  0
  142.1140  157.3692  132.4546 H   0  0  0  0  0  0  0  0  0  0  0  0
  142.8199  155.7070  132.5579 H   0  0  0  0  0  0  0  0  0  0  0  0
  139.7859  153.7690  133.9188 H   0  0  0  0  0  0  0  0  0  0  0  0
  140.4423  154.2258  132.2483 H   0  0  0  0  0  0  0  0  0  0  0  0
  141.2196  151.4954  134.6323 H   0  0  0  0  0  0  0  0  0  0  0  0
  140.3542  151.7428  133.0778 H   0  0  0  0  0  0  0  0  0  0  0  0
  142.0450  151.1362  133.0778 H   0  0  0  0  0  0  0  0  0  0  0  0
  143.8404  153.4972  132.6719 H   0  0  0  0  0  0  0  0  0  0  0  0
  142.7391  152.4601  131.7032 H   0  0  0  0  0  0  0  0  0  0  0  0
  142.5246  154.2435  131.7032 H   0  0  0  0  0  0  0  0  0  0  0  0
  143.6714  153.4150  134.7066 H   0  0  0  0  0  0  0  0  0  0  0  0
  142.3901  154.6338  135.1075 H   0  0  0  0  0  0  0  0  0  0  0  0
  142.0930  155.2800  136.6210 H   0  0  0  0  0  0  0  0  0  0  0  0
  142.0511  154.9213  139.4870 H   0  0  0  0  0  0  0  0  0  0  0  0
  141.5123  157.2214  139.6177 H   0  0  0  0  0  0  0  0  0  0  0  0
  142.4031  157.0792  138.0644 H   0  0  0  0  0  0  0  0  0  0  0  0
  140.6106  157.1955  138.0644 H   0  0  0  0  0  0  0  0  0  0  0  0
  139.8263  154.8128  140.1122 H   0  0  0  0  0  0  0  0  0  0  0  0
  139.2455  155.5777  138.5942 H   0  0  0  0  0  0  0  0  0  0  0  0
  139.7548  153.8551  138.5942 H   0  0  0  0  0  0  0  0  0  0  0  0
  146.0122  156.3418  133.7796 H   0  0  0  0  0  0  0  0  0  0  0  0
  1  2  1  0
  2  3  2  0
  3  4  1  0
  4  5  2  0
  5  6  1  0
  6  7  2  0
  7  8  1  0
  8  9  1  0
  8 10  2  0
  7 11  1  0
 11 12  1  0
 12 13  2  0
 12 14  1  0
 14 15  1  0
 15 16  2  0
 15 17  2  0
 15 18  1  0
 18 19  1  0
 19 20  1  0
 19 21  1  0
 19 22  1  0
 22 23  1  0
 23 24  1  0
 24 25  2  0
 24 26  1  0
 26 27  1  0
 27 28  1  0
 27 29  1  0
 11 30  1  0
 30 31  2  0
 31  2  1  0
 30  5  1  0
  1 32  1  0
  1 33  1  0
  1 34  1  0
  3 35  1  0
  4 36  1  0
  6 37  1  0
  9 38  1  0
 14 39  1  0
 14 40  1  0
 18 41  1  0
 18 42  1  0
 20 43  1  0
 20 44  1  0
 20 45  1  0
 21 46  1  0
 21 47  1  0
 21 48  1  0
 22 49  1  0
 22 50  1  0
 26 51  1  0
 27 52  1  0
 28 53  1  0
 28 54  1  0
 28 55  1  0
 29 56  1  0
 29 57  1  0
 29 58  1  0
 31 59  1  0
M  CHG  1   9  -1
M  END
>  <UniqueID>  (73) 
73

>  <SMILES>  (73) 
Cc1ccc2cc(C([NH-])=O)n(C(=O)CS(=O)(=O)CC(C)(C)COC(=O)NC(C)C)c2c1

>  <Energy>  (73) 
87.46625862618791

>  <Genealogy>  (73) 
Cc1ccc2cc(C([NH-])=O)n(C(=O)CS(=O)(=O)CC(C)(C)COC(=O)NC(C)C)c2c1 (protonated)
Cc1ccc2cc(C([NH-])=O)n(C(=O)CS(=O)(=O)CC(C)(C)COC(=O)NC(C)C)c2c1 (3D coordinates assigned)
Cc1ccc2cc(C([NH-])=O)n(C(=O)CS(=O)(=O)CC(C)(C)COC(=O)NC(C)C)c2c1 (optimized conformer: 87.46625862618791 kcal/mol)

>  <smiles>  (73) 
Cc1ccc2cc(C(N)=O)n(C(=O)CS(=O)(=O)CC(C)(C)COC(=O)NC(C)C)c2c1

>  <score_type>  (73) 
oracle

>  <origin>  (73) 
adg

>  <m_score__min__energy>  (73) 
-8.2899999999999991

>  <m_primary>  (73) 
energy

$$$$
73:0
     RDKit          3D

 56 58  0  0  0  0  0  0  0  0999 V2000
  138.8480  148.1500  130.0590 C   0  0  0  0  0  0  0  0  0  0  0  0
  139.5090  149.4790  130.4280 C   0  0  0  0  0  0  0  0  0  0  0  0
  139.6500  149.6750  131.9500 C   0  0  0  0  0  0  0  0  0  0  0  0
  141.0730  149.4280  132.4760 C   0  0  0  0  0  0  0  0  0  0  0  0
  141.8630  150.6990  132.6040 C   0  0  0  0  0  0  0  0  0  0  0  0
  143.2640  150.6780  132.6280 C   0  0  0  0  0  0  0  0  0  0  0  0
  143.9650  151.8740  132.7900 C   0  0  0  0  0  0  0  0  0  0  0  0
  143.2710  153.0890  132.9220 C   0  0  0  0  0  0  0  0  0  0  0  0
  144.0030  154.3680  133.0980 C   0  0  0  0  0  0  0  0  0  0  0  0
  143.2920  155.5620  133.3780 C   0  0  0  0  0  0  0  0  0  0  0  0
  143.9690  156.7830  133.5220 C   0  0  0  0  0  0  0  0  0  0  0  0
  145.3520  156.7830  133.3910 C   0  0  0  0  0  0  0  0  0  0  0  0
  146.2350  157.8300  133.4630 C   0  0  0  0  0  0  0  0  0  0  0  0
  147.4850  157.2710  133.2320 C   0  0  0  0  0  0  0  0  0  0  0  0
  148.7140  158.0790  133.1660 C   0  0  0  0  0  0  0  0  0  0  0  0
  149.6800  157.8520  132.1410 N   0  0  0  0  0  0  0  0  0  0  0  0
  148.8690  159.0380  133.9670 O   0  0  0  0  0  0  0  0  0  0  0  0
  147.3960  155.9200  133.0560 N   0  0  0  0  0  0  0  0  0  0  0  0
  148.4940  154.9830  132.9680 C   0  0  0  0  0  0  0  0  0  0  0  0
  149.5230  155.2750  132.3040 O   0  0  0  0  0  0  0  0  0  0  0  0
  148.3920  153.7260  133.5820 O   0  0  0  0  0  0  0  0  0  0  0  0
  148.6230  152.4510  132.9650 C   0  0  0  0  0  0  0  0  0  0  0  0
  149.5810  152.5890  131.7630 C   0  0  0  0  0  0  0  0  0  0  0  0
  149.2840  151.5530  134.0230 C   0  0  0  0  0  0  0  0  0  0  0  0
  147.2900  151.8120  132.5270 C   0  0  0  0  0  0  0  0  0  0  0  0
  146.0680  155.6400  133.1380 C   0  0  0  0  0  0  0  0  0  0  0  0
  145.4120  154.4100  132.9760 C   0  0  0  0  0  0  0  0  0  0  0  0
  141.8670  153.0620  132.8820 C   0  0  0  0  0  0  0  0  0  0  0  0
  141.2060  151.8850  132.7310 N   0  0  0  0  0  0  0  0  0  0  0  0
  138.5781  147.6074  130.9770 H   0  0  0  0  0  0  0  0  0  0  0  0
  137.9411  148.3434  129.4673 H   0  0  0  0  0  0  0  0  0  0  0  0
  139.5494  147.5434  129.4673 H   0  0  0  0  0  0  0  0  0  0  0  0
  140.5111  149.5104  129.9755 H   0  0  0  0  0  0  0  0  0  0  0  0
  138.8640  150.2855  130.0491 H   0  0  0  0  0  0  0  0  0  0  0  0
  139.3638  150.7085  132.1950 H   0  0  0  0  0  0  0  0  0  0  0  0
  138.9962  148.9329  132.4314 H   0  0  0  0  0  0  0  0  0  0  0  0
  141.0065  148.9518  133.4654 H   0  0  0  0  0  0  0  0  0  0  0  0
  141.5913  148.7815  131.7525 H   0  0  0  0  0  0  0  0  0  0  0  0
  143.8065  149.7272  132.5201 H   0  0  0  0  0  0  0  0  0  0  0  0
  145.0647  151.8656  132.8144 H   0  0  0  0  0  0  0  0  0  0  0  0
  142.1975  155.5312  133.4836 H   0  0  0  0  0  0  0  0  0  0  0  0
  143.4204  157.7129  133.7325 H   0  0  0  0  0  0  0  0  0  0  0  0
  146.0027  158.8867  133.6613 H   0  0  0  0  0  0  0  0  0  0  0  0
  149.5190  157.1320  131.4000 H   0  0  0  0  0  0  0  0  0  0  0  0
  150.5510  158.4270  132.1020 H   0  0  0  0  0  0  0  0  0  0  0  0
  150.6081  152.7370  132.1279 H   0  0  0  0  0  0  0  0  0  0  0  0
  149.5369  151.6752  131.1522 H   0  0  0  0  0  0  0  0  0  0  0  0
  149.2808  153.4532  131.1522 H   0  0  0  0  0  0  0  0  0  0  0  0
  149.0185  151.9137  135.0277 H   0  0  0  0  0  0  0  0  0  0  0  0
  148.9299  150.5189  133.8992 H   0  0  0  0  0  0  0  0  0  0  0  0
  150.3766  151.5837  133.8992 H   0  0  0  0  0  0  0  0  0  0  0  0
  146.7073  151.5327  133.4172 H   0  0  0  0  0  0  0  0  0  0  0  0
  146.7176  152.5336  131.9256 H   0  0  0  0  0  0  0  0  0  0  0  0
  147.4941  150.9138  131.9256 H   0  0  0  0  0  0  0  0  0  0  0  0
  145.9828  153.4953  132.7581 H   0  0  0  0  0  0  0  0  0  0  0  0
  141.2994  153.9998  132.9735 H   0  0  0  0  0  0  0  0  0  0  0  0
  1  2  1  0
  2  3  1  0
  3  4  1  0
  4  5  1  0
  5  6  2  0
  6  7  1  0
  7  8  2  0
  8  9  1  0
  9 10  2  0
 10 11  1  0
 11 12  2  0
 12 13  1  0
 13 14  2  0
 14 15  1  0
 15 16  1  0
 15 17  2  0
 14 18  1  0
 18 19  1  0
 19 20  2  0
 19 21  1  0
 21 22  1  0
 22 23  1  0
 22 24  1  0
 22 25  1  0
 18 26  1  0
 26 27  2  0
  8 28  1  0
 28 29  2  0
 29  5  1  0
 27  9  1  0
 26 12  1  0
  1 30  1  0
  1 31  1  0
  1 32  1  0
  2 33  1  0
  2 34  1  0
  3 35  1  0
  3 36  1  0
  4 37  1  0
  4 38  1  0
  6 39  1  0
  7 40  1  0
 10 41  1  0
 11 42  1  0
 13 43  1  0
 16 44  1  0
 16 45  1  0
 23 46  1  0
 23 47  1  0
 23 48  1  0
 24 49  1  0
 24 50  1  0
 24 51  1  0
 25 52  1  0
 25 53  1  0
 25 54  1  0
 27 55  1  0
 28 56  1  0
M  END
>  <UniqueID>  (74) 
74

>  <SMILES>  (74) 
CCCCc1ccc(-c2ccc3cc(C(N)=O)n(C(=O)OC(C)(C)C)c3c2)cn1

>  <Energy>  (74) 
95.13414296831354

>  <Genealogy>  (74) 
CCCCc1ccc(-c2ccc3cc(C(N)=O)n(C(=O)OC(C)(C)C)c3c2)cn1 (3D coordinates assigned)
CCCCc1ccc(-c2ccc3cc(C(N)=O)n(C(=O)OC(C)(C)C)c3c2)cn1 (optimized conformer: 95.13414296831354 kcal/mol)

>  <smiles>  (74) 
CCCCc1ccc(-c2ccc3cc(C(N)=O)n(C(=O)OC(C)(C)C)c3c2)cn1

>  <score_type>  (74) 
oracle

>  <origin>  (74) 
adg

>  <m_score__min__energy>  (74) 
-9.7200000000000006

>  <m_primary>  (74) 
energy

$$$$
74:0
     RDKit          3D

 64 66  0  0  0  0  0  0  0  0999 V2000
  142.6560  154.4920  132.9750 C   0  0  0  0  0  0  0  0  0  0  0  0
  141.6380  153.5150  133.5950 C   0  0  0  0  0  0  0  0  0  0  0  0
  141.5170  152.2800  132.6900 C   0  0  0  0  0  0  0  0  0  0  0  0
  142.0980  153.0590  134.9940 C   0  0  0  0  0  0  0  0  0  0  0  0
  140.3360  154.1170  133.6660 O   0  0  0  0  0  0  0  0  0  0  0  0
  139.9960  155.4230  133.2790 C   0  0  0  0  0  0  0  0  0  0  0  0
  139.3460  155.6280  132.2170 O   0  0  0  0  0  0  0  0  0  0  0  0
  140.4150  156.5400  134.0880 N   0  0  0  0  0  0  0  0  0  0  0  0
  140.2780  157.9080  133.5620 C   0  0  0  0  0  0  0  0  0  0  0  0
  141.0630  158.9120  134.4140 C   0  0  0  0  0  0  0  0  0  0  0  0
  142.3740  158.3400  134.7510 N   0  0  0  0  0  0  0  0  0  0  0  0
  143.6000  158.9560  134.3020 C   0  0  0  0  0  0  0  0  0  0  0  0
  143.7310  160.3700  134.2810 C   0  0  0  0  0  0  0  0  0  0  0  0
  144.9020  160.9760  133.7990 C   0  0  0  0  0  0  0  0  0  0  0  0
  145.9170  160.1540  133.3270 C   0  0  0  0  0  0  0  0  0  0  0  0
  147.1410  160.4820  132.7930 C   0  0  0  0  0  0  0  0  0  0  0  0
  147.7360  159.2680  132.4620 C   0  0  0  0  0  0  0  0  0  0  0  0
  149.0270  159.1610  131.7480 C   0  0  0  0  0  0  0  0  0  0  0  0
  150.0630  158.3090  132.2400 N   0  0  0  0  0  0  0  0  0  0  0  0
  149.2380  159.8490  130.7130 O   0  0  0  0  0  0  0  0  0  0  0  0
  146.9170  158.2270  132.7880 N   0  0  0  0  0  0  0  0  0  0  0  0
  147.1940  156.8220  132.6430 C   0  0  0  0  0  0  0  0  0  0  0  0
  148.3350  156.4440  132.2660 O   0  0  0  0  0  0  0  0  0  0  0  0
  146.1910  155.8840  132.9330 O   0  0  0  0  0  0  0  0  0  0  0  0
  146.2620  154.8350  133.9110 C   0  0  0  0  0  0  0  0  0  0  0  0
  145.2230  155.0660  135.0250 C   0  0  0  0  0  0  0  0  0  0  0  0
  146.0500  153.4600  133.2480 C   0  0  0  0  0  0  0  0  0  0  0  0
  147.6710  154.8800  134.5230 C   0  0  0  0  0  0  0  0  0  0  0  0
  145.8040  158.7870  133.3170 C   0  0  0  0  0  0  0  0  0  0  0  0
  144.6600  158.1550  133.8180 C   0  0  0  0  0  0  0  0  0  0  0  0
  142.4320  157.0210  135.4070 C   0  0  0  0  0  0  0  0  0  0  0  0
  141.0660  156.3270  135.3900 C   0  0  0  0  0  0  0  0  0  0  0  0
  143.1992  155.0133  133.7770 H   0  0  0  0  0  0  0  0  0  0  0  0
  143.3696  153.9320  132.3528 H   0  0  0  0  0  0  0  0  0  0  0  0
  142.1258  155.2280  132.3528 H   0  0  0  0  0  0  0  0  0  0  0  0
  141.4285  151.3770  133.3119 H   0  0  0  0  0  0  0  0  0  0  0  0
  140.6240  152.3768  132.0550 H   0  0  0  0  0  0  0  0  0  0  0  0
  142.4118  152.2017  132.0550 H   0  0  0  0  0  0  0  0  0  0  0  0
  141.5390  153.6131  135.7625 H   0  0  0  0  0  0  0  0  0  0  0  0
  141.9093  151.9814  135.1089 H   0  0  0  0  0  0  0  0  0  0  0  0
  143.1739  153.2571  135.1089 H   0  0  0  0  0  0  0  0  0  0  0  0
  140.6609  157.9359  132.5312 H   0  0  0  0  0  0  0  0  0  0  0  0
  139.2141  158.1860  133.5888 H   0  0  0  0  0  0  0  0  0  0  0  0
  141.2032  159.8445  133.8476 H   0  0  0  0  0  0  0  0  0  0  0  0
  140.5058  159.1276  135.3376 H   0  0  0  0  0  0  0  0  0  0  0  0
  142.9051  160.9978  134.6468 H   0  0  0  0  0  0  0  0  0  0  0  0
  145.0124  162.0704  133.7953 H   0  0  0  0  0  0  0  0  0  0  0  0
  147.5607  161.4896  132.6564 H   0  0  0  0  0  0  0  0  0  0  0  0
  150.9730  158.2440  131.7340 H   0  0  0  0  0  0  0  0  0  0  0  0
  149.9060  157.6950  133.0690 H   0  0  0  0  0  0  0  0  0  0  0  0
  145.7077  154.9582  136.0065 H   0  0  0  0  0  0  0  0  0  0  0  0
  144.8047  156.0791  134.9319 H   0  0  0  0  0  0  0  0  0  0  0  0
  144.4148  154.3256  134.9319 H   0  0  0  0  0  0  0  0  0  0  0  0
  145.9316  152.6919  134.0265 H   0  0  0  0  0  0  0  0  0  0  0  0
  145.1459  153.4902  132.6222 H   0  0  0  0  0  0  0  0  0  0  0  0
  146.9212  153.2165  132.6222 H   0  0  0  0  0  0  0  0  0  0  0  0
  147.5944  154.8776  135.6203 H   0  0  0  0  0  0  0  0  0  0  0  0
  148.2422  153.9996  134.1934 H   0  0  0  0  0  0  0  0  0  0  0  0
  148.1849  155.7950  134.1934 H   0  0  0  0  0  0  0  0  0  0  0  0
  144.5870  157.0576  133.8348 H   0  0  0  0  0  0  0  0  0  0  0  0
  143.1607  156.3897  134.8773 H   0  0  0  0  0  0  0  0  0  0  0  0
  142.7320  157.1687  136.4549 H   0  0  0  0  0  0  0  0  0  0  0  0
  141.2022  155.2485  135.5581 H   0  0  0  0  0  0  0  0  0  0  0  0
  140.4342  156.7492  136.1854 H   0  0  0  0  0  0  0  0  0  0  0  0
  1  2  1  0
  2  3  1  0
  2  4  1  0
  2  5  1  0
  5  6  1  0
  6  7  2  0
  6  8  1  0
  8  9  1  0
  9 10  1  0
 10 11  1  0
 11 12  1  0
 12 13  2  0
 13 14  1  0
 14 15  2  0
 15 16  1  0
 16 17  2  0
 17 18  1  0
 18 19  1  0
 18 20  2  0
 17 21  1  0
 21 22  1  0
 22 23  2  0
 22 24  1  0
 24 25  1  0
 25 26  1  0
 25 27  1  0
 25 28  1  0
 21 29  1  0
 29 30  2  0
 11 31  1  0
 31 32  1  0
 32  8  1  0
 30 12  1  0
 29 15  1  0
  1 33  1  0
  1 34  1  0
  1 35  1  0
  3 36  1  0
  3 37  1  0
  3 38  1  0
  4 39  1  0
  4 40  1  0
  4 41  1  0
  9 42  1  0
  9 43  1  0
 10 44  1  0
 10 45  1  0
 13 46  1  0
 14 47  1  0
 16 48  1  0
 19 49  1  0
 19 50  1  0
 26 51  1  0
 26 52  1  0
 26 53  1  0
 27 54  1  0
 27 55  1  0
 27 56  1  0
 28 57  1  0
 28 58  1  0
 28 59  1  0
 30 60  1  0
 31 61  1  0
 31 62  1  0
 32 63  1  0
 32 64  1  0
M  END
>  <UniqueID>  (75) 
75

>  <SMILES>  (75) 
CC(C)(C)OC(=O)N1CCN(c2ccc3cc(C(N)=O)n(C(=O)OC(C)(C)C)c3c2)CC1

>  <Energy>  (75) 
98.60162805346616

>  <Genealogy>  (75) 
CC(C)(C)OC(=O)N1CCN(c2ccc3cc(C(N)=O)n(C(=O)OC(C)(C)C)c3c2)CC1 (3D coordinates assigned)
CC(C)(C)OC(=O)N1CCN(c2ccc3cc(C(N)=O)n(C(=O)OC(C)(C)C)c3c2)CC1 (nonaromatic ring conformer: 98.60162805346616 kcal/mol)

>  <smiles>  (75) 
CC(C)(C)OC(=O)N1CCN(c2ccc3cc(C(N)=O)n(C(=O)OC(C)(C)C)c3c2)CC1

>  <score_type>  (75) 
oracle

>  <origin>  (75) 
adg

>  <m_score__min__energy>  (75) 
-8.7300000000000004

>  <m_primary>  (75) 
energy

$$$$
75:0
     RDKit          3D

 54 57  0  0  0  0  0  0  0  0999 V2000
  142.8760  159.1910  135.1520 C   0  0  0  0  0  0  0  0  0  0  0  0
  142.8760  159.7490  133.7160 C   0  0  0  0  0  0  0  0  0  0  0  0
  142.8310  161.2890  133.7300 C   0  0  0  0  0  0  0  0  0  0  0  0
  141.6340  159.2230  132.9800 C   0  0  0  0  0  0  0  0  0  0  0  0
  144.0240  159.2830  132.9940 O   0  0  0  0  0  0  0  0  0  0  0  0
  145.3650  159.4280  133.3810 C   0  0  0  0  0  0  0  0  0  0  0  0
  145.8210  160.5490  133.7320 O   0  0  0  0  0  0  0  0  0  0  0  0
  146.2190  158.2750  133.4030 N   0  0  0  0  0  0  0  0  0  0  0  0
  147.5560  158.2150  133.1460 C   0  0  0  0  0  0  0  0  0  0  0  0
  148.3920  159.3190  132.6290 C   0  0  0  0  0  0  0  0  0  0  0  0
  147.8550  160.2900  131.7360 N   0  0  0  0  0  0  0  0  0  0  0  0
  149.6110  159.3790  132.9450 O   0  0  0  0  0  0  0  0  0  0  0  0
  148.0370  156.9250  133.3600 C   0  0  0  0  0  0  0  0  0  0  0  0
  146.9430  156.1870  133.7480 C   0  0  0  0  0  0  0  0  0  0  0  0
  146.8450  154.8440  134.0930 C   0  0  0  0  0  0  0  0  0  0  0  0
  145.5880  154.3520  134.4830 C   0  0  0  0  0  0  0  0  0  0  0  0
  144.4560  155.2090  134.5320 C   0  0  0  0  0  0  0  0  0  0  0  0
  143.1610  154.7320  134.9460 N   0  0  0  0  0  0  0  0  0  0  0  0
  142.6140  154.8880  136.2950 C   0  0  0  0  0  0  0  0  0  0  0  0
  141.6720  156.0710  136.3580 C   0  0  0  0  0  0  0  0  0  0  0  0
  141.6700  156.8800  137.5080 C   0  0  0  0  0  0  0  0  0  0  0  0
  140.8160  157.9810  137.6040 C   0  0  0  0  0  0  0  0  0  0  0  0
  139.9580  158.3010  136.5520 C   0  0  0  0  0  0  0  0  0  0  0  0
  139.9560  157.5210  135.3870 C   0  0  0  0  0  0  0  0  0  0  0  0
  139.1100  157.8320  134.3140 C   0  0  0  0  0  0  0  0  0  0  0  0
  139.1310  157.0460  133.1620 C   0  0  0  0  0  0  0  0  0  0  0  0
  139.9990  155.9550  133.0910 C   0  0  0  0  0  0  0  0  0  0  0  0
  140.8150  155.6620  134.1390 N   0  0  0  0  0  0  0  0  0  0  0  0
  140.8190  156.4040  135.2830 C   0  0  0  0  0  0  0  0  0  0  0  0
  144.5980  156.5660  134.1660 C   0  0  0  0  0  0  0  0  0  0  0  0
  145.8580  157.0240  133.7650 C   0  0  0  0  0  0  0  0  0  0  0  0
  143.9131  159.0582  135.4938 H   0  0  0  0  0  0  0  0  0  0  0  0
  142.3575  159.8954  135.8191 H   0  0  0  0  0  0  0  0  0  0  0  0
  142.3575  158.2210  135.1685 H   0  0  0  0  0  0  0  0  0  0  0  0
  142.8206  161.6461  134.7704 H   0  0  0  0  0  0  0  0  0  0  0  0
  143.7179  161.6864  133.2148 H   0  0  0  0  0  0  0  0  0  0  0  0
  141.9224  161.6340  133.2148 H   0  0  0  0  0  0  0  0  0  0  0  0
  140.8802  158.9038  133.7147 H   0  0  0  0  0  0  0  0  0  0  0  0
  141.2161  160.0214  132.3492 H   0  0  0  0  0  0  0  0  0  0  0  0
  141.9166  158.3673  132.3492 H   0  0  0  0  0  0  0  0  0  0  0  0
  147.0810  160.9260  132.0330 H   0  0  0  0  0  0  0  0  0  0  0  0
  149.0722  156.5717  133.2434 H   0  0  0  0  0  0  0  0  0  0  0  0
  147.7257  154.1857  134.0616 H   0  0  0  0  0  0  0  0  0  0  0  0
  145.4792  153.2913  134.7534 H   0  0  0  0  0  0  0  0  0  0  0  0
  142.5420  154.2870  134.2290 H   0  0  0  0  0  0  0  0  0  0  0  0
  142.0656  153.9749  136.5699 H   0  0  0  0  0  0  0  0  0  0  0  0
  143.4447  155.0603  136.9952 H   0  0  0  0  0  0  0  0  0  0  0  0
  142.3483  156.6433  138.3410 H   0  0  0  0  0  0  0  0  0  0  0  0
  140.8201  158.5989  138.5140 H   0  0  0  0  0  0  0  0  0  0  0  0
  139.2829  159.1653  136.6364 H   0  0  0  0  0  0  0  0  0  0  0  0
  138.4305  158.6945  134.3802 H   0  0  0  0  0  0  0  0  0  0  0  0
  138.4690  157.2839  132.3163 H   0  0  0  0  0  0  0  0  0  0  0  0
  140.0231  155.3309  132.1855 H   0  0  0  0  0  0  0  0  0  0  0  0
  143.7359  157.2486  134.1956 H   0  0  0  0  0  0  0  0  0  0  0  0
  1  2  1  0
  2  3  1  0
  2  4  1  0
  2  5  1  0
  5  6  1  0
  6  7  2  0
  6  8  1  0
  8  9  1  0
  9 10  1  0
 10 11  1  0
 10 12  2  0
  9 13  2  0
 13 14  1  0
 14 15  2  0
 15 16  1  0
 16 17  2  0
 17 18  1  0
 18 19  1  0
 19 20  1  0
 20 21  2  0
 21 22  1  0
 22 23  2  0
 23 24  1  0
 24 25  2  0
 25 26  1  0
 26 27  2  0
 27 28  1  0
 28 29  2  0
 17 30  1  0
 30 31  2  0
 31  8  1  0
 31 14  1  0
 29 20  1  0
 29 24  1  0
  1 32  1  0
  1 33  1  0
  1 34  1  0
  3 35  1  0
  3 36  1  0
  3 37  1  0
  4 38  1  0
  4 39  1  0
  4 40  1  0
 11 41  1  0
 13 42  1  0
 15 43  1  0
 16 44  1  0
 18 45  1  0
 19 46  1  0
 19 47  1  0
 21 48  1  0
 22 49  1  0
 23 50  1  0
 25 51  1  0
 26 52  1  0
 27 53  1  0
 30 54  1  0
M  CHG  1  11  -1
M  END
>  <UniqueID>  (76) 
76

>  <SMILES>  (76) 
CC(C)(C)OC(=O)n1c(C([NH-])=O)cc2ccc(NCc3cccc4cccnc34)cc21

>  <Energy>  (76) 
96.07042790855061

>  <Genealogy>  (76) 
CC(C)(C)OC(=O)n1c(C([NH-])=O)cc2ccc(NCc3cccc4cccnc34)cc21 (protonated)
CC(C)(C)OC(=O)n1c(C([NH-])=O)cc2ccc(NCc3cccc4cccnc34)cc21 (3D coordinates assigned)
CC(C)(C)OC(=O)n1c(C([NH-])=O)cc2ccc(NCc3cccc4cccnc34)cc21 (optimized conformer: 96.07042790855061 kcal/mol)

>  <smiles>  (76) 
CC(C)(C)OC(=O)n1c(C(N)=O)cc2ccc(NCc3cccc4cccnc34)cc21

>  <score_type>  (76) 
oracle

>  <origin>  (76) 
adg

>  <m_score__min__energy>  (76) 
-9.1699999999999999

>  <m_primary>  (76) 
energy

$$$$
76:0
     RDKit          3D

 39 41  0  0  0  0  0  0  0  0999 V2000
  144.3630  154.8480  132.0140 C   0  0  0  0  0  0  0  0  0  0  0  0
  143.2440  154.3480  132.9150 C   0  0  0  0  0  0  0  0  0  0  0  0
  142.8120  155.4050  133.7630 O   0  0  0  0  0  0  0  0  0  0  0  0
  141.6830  156.1830  133.4890 C   0  0  0  0  0  0  0  0  0  0  0  0
  140.6530  155.6530  132.9890 O   0  0  0  0  0  0  0  0  0  0  0  0
  141.7000  157.5920  133.7740 N   0  0  0  0  0  0  0  0  0  0  0  0
  140.6400  158.3920  134.0790 C   0  0  0  0  0  0  0  0  0  0  0  0
  139.2580  157.9370  134.3310 C   0  0  0  0  0  0  0  0  0  0  0  0
  138.5190  157.2260  133.3380 N   0  0  0  0  0  0  0  0  0  0  0  0
  138.7400  158.1310  135.4640 O   0  0  0  0  0  0  0  0  0  0  0  0
  141.0380  159.7210  134.1790 C   0  0  0  0  0  0  0  0  0  0  0  0
  142.3930  159.7130  133.9380 C   0  0  0  0  0  0  0  0  0  0  0  0
  143.3000  160.7670  133.9010 C   0  0  0  0  0  0  0  0  0  0  0  0
  144.6390  160.4730  133.5930 C   0  0  0  0  0  0  0  0  0  0  0  0
  145.0470  159.1420  133.3160 C   0  0  0  0  0  0  0  0  0  0  0  0
  146.4620  158.8430  132.9780 C   0  0  0  0  0  0  0  0  0  0  0  0
  147.0760  157.6660  133.4410 C   0  0  0  0  0  0  0  0  0  0  0  0
  148.4100  157.3910  133.1240 C   0  0  0  0  0  0  0  0  0  0  0  0
  149.1440  158.2860  132.3420 C   0  0  0  0  0  0  0  0  0  0  0  0
  148.5460  159.4590  131.8740 C   0  0  0  0  0  0  0  0  0  0  0  0
  149.4680  160.5800  130.8890 Cl  0  0  0  0  0  0  0  0  0  0  0  0
  147.2110  159.7380  132.1890 C   0  0  0  0  0  0  0  0  0  0  0  0
  144.0900  158.1000  133.3590 C   0  0  0  0  0  0  0  0  0  0  0  0
  142.7690  158.4170  133.6950 C   0  0  0  0  0  0  0  0  0  0  0  0
  145.1936  155.2191  132.6324 H   0  0  0  0  0  0  0  0  0  0  0  0
  144.7187  154.0232  131.3790 H   0  0  0  0  0  0  0  0  0  0  0  0
  143.9859  155.6632  131.3790 H   0  0  0  0  0  0  0  0  0  0  0  0
  142.4009  154.0053  132.2972 H   0  0  0  0  0  0  0  0  0  0  0  0
  143.6119  153.5121  133.5282 H   0  0  0  0  0  0  0  0  0  0  0  0
  137.5300  156.9470  133.5200 H   0  0  0  0  0  0  0  0  0  0  0  0
  138.9750  156.9000  132.4570 H   0  0  0  0  0  0  0  0  0  0  0  0
  140.4050  160.5923  134.4029 H   0  0  0  0  0  0  0  0  0  0  0  0
  142.9789  161.7988  134.1065 H   0  0  0  0  0  0  0  0  0  0  0  0
  145.3807  161.2849  133.5662 H   0  0  0  0  0  0  0  0  0  0  0  0
  146.5033  156.9568  134.0566 H   0  0  0  0  0  0  0  0  0  0  0  0
  148.8823  156.4679  133.4912 H   0  0  0  0  0  0  0  0  0  0  0  0
  150.1932  158.0673  132.0945 H   0  0  0  0  0  0  0  0  0  0  0  0
  146.7437  160.6621  131.8180 H   0  0  0  0  0  0  0  0  0  0  0  0
  144.3785  157.0629  133.1330 H   0  0  0  0  0  0  0  0  0  0  0  0
  1  2  1  0
  2  3  1  0
  3  4  1  0
  4  5  2  0
  4  6  1  0
  6  7  1  0
  7  8  1  0
  8  9  1  0
  8 10  2  0
  7 11  2  0
 11 12  1  0
 12 13  2  0
 13 14  1  0
 14 15  2  0
 15 16  1  0
 16 17  2  0
 17 18  1  0
 18 19  2  0
 19 20  1  0
 20 21  1  0
 20 22  2  0
 15 23  1  0
 23 24  2  0
 24  6  1  0
 24 12  1  0
 22 16  1  0
  1 25  1  0
  1 26  1  0
  1 27  1  0
  2 28  1  0
  2 29  1  0
  9 30  1  0
  9 31  1  0
 11 32  1  0
 13 33  1  0
 14 34  1  0
 17 35  1  0
 18 36  1  0
 19 37  1  0
 22 38  1  0
 23 39  1  0
M  END
>  <UniqueID>  (77) 
77

>  <SMILES>  (77) 
CCOC(=O)n1c(C(N)=O)cc2ccc(-c3cccc(Cl)c3)cc21

>  <Energy>  (77) 
80.71075476347453

>  <Genealogy>  (77) 
CCOC(=O)n1c(C(N)=O)cc2ccc(-c3cccc(Cl)c3)cc21 (3D coordinates assigned)
CCOC(=O)n1c(C(N)=O)cc2ccc(-c3cccc(Cl)c3)cc21 (optimized conformer: 80.71075476347453 kcal/mol)

>  <smiles>  (77) 
CCOC(=O)n1c(C(N)=O)cc2ccc(-c3cccc(Cl)c3)cc21

>  <score_type>  (77) 
oracle

>  <origin>  (77) 
adg

>  <m_score__min__energy>  (77) 
-8.3200000000000003

>  <m_primary>  (77) 
energy

$$$$
77:0
     RDKit          3D

 41 42  0  0  0  0  0  0  0  0999 V2000
  145.9720  163.0710  134.8800 C   0  0  0  0  0  0  0  0  0  0  0  0
  144.7040  162.7440  134.0990 C   0  0  0  0  0  0  0  0  0  0  0  0
  144.5350  161.2560  133.9590 C   0  0  0  0  0  0  0  0  0  0  0  0
  143.2580  160.6650  134.1260 C   0  0  0  0  0  0  0  0  0  0  0  0
  143.0860  159.2790  133.9780 C   0  0  0  0  0  0  0  0  0  0  0  0
  144.2010  158.5150  133.6450 C   0  0  0  0  0  0  0  0  0  0  0  0
  144.3190  157.1570  133.4560 C   0  0  0  0  0  0  0  0  0  0  0  0
  145.6610  156.9420  133.1400 C   0  0  0  0  0  0  0  0  0  0  0  0
  146.2190  155.6240  132.7630 C   0  0  0  0  0  0  0  0  0  0  0  0
  147.3570  155.5330  131.9040 N   0  0  0  0  0  0  0  0  0  0  0  0
  145.7120  154.5680  133.2230 O   0  0  0  0  0  0  0  0  0  0  0  0
  146.3430  158.1230  133.1360 N   0  0  0  0  0  0  0  0  0  0  0  0
  147.7460  158.3270  132.9050 C   0  0  0  0  0  0  0  0  0  0  0  0
  148.5420  158.3580  133.8830 O   0  0  0  0  0  0  0  0  0  0  0  0
  148.2090  158.5050  131.5930 O   0  0  0  0  0  0  0  0  0  0  0  0
  148.8520  159.6740  131.0670 C   0  0  0  0  0  0  0  0  0  0  0  0
  148.5010  159.8610  129.5780 C   0  0  0  0  0  0  0  0  0  0  0  0
  150.3670  159.4530  131.1950 C   0  0  0  0  0  0  0  0  0  0  0  0
  148.4600  160.9220  131.8800 C   0  0  0  0  0  0  0  0  0  0  0  0
  145.4370  159.0750  133.4470 C   0  0  0  0  0  0  0  0  0  0  0  0
  145.6420  160.4510  133.6100 C   0  0  0  0  0  0  0  0  0  0  0  0
  145.7625  163.0170  135.9585 H   0  0  0  0  0  0  0  0  0  0  0  0
  146.7584  162.3463  134.6225 H   0  0  0  0  0  0  0  0  0  0  0  0
  146.3099  164.0857  134.6225 H   0  0  0  0  0  0  0  0  0  0  0  0
  143.8350  163.1576  134.6317 H   0  0  0  0  0  0  0  0  0  0  0  0
  144.7826  163.1871  133.0953 H   0  0  0  0  0  0  0  0  0  0  0  0
  142.3931  161.2978  134.3740 H   0  0  0  0  0  0  0  0  0  0  0  0
  142.1006  158.8116  134.1208 H   0  0  0  0  0  0  0  0  0  0  0  0
  143.5239  156.4012  133.5369 H   0  0  0  0  0  0  0  0  0  0  0  0
  147.7670  154.5990  131.6760 H   0  0  0  0  0  0  0  0  0  0  0  0
  147.7710  156.3800  131.4580 H   0  0  0  0  0  0  0  0  0  0  0  0
  147.5332  160.3766  129.4914 H   0  0  0  0  0  0  0  0  0  0  0  0
  149.2820  160.4626  129.0899 H   0  0  0  0  0  0  0  0  0  0  0  0
  148.4374  158.8773  129.0899 H   0  0  0  0  0  0  0  0  0  0  0  0
  150.6431  159.4127  132.2590 H   0  0  0  0  0  0  0  0  0  0  0  0
  150.6417  158.5053  130.7088 H   0  0  0  0  0  0  0  0  0  0  0  0
  150.9010  160.2828  130.7088 H   0  0  0  0  0  0  0  0  0  0  0  0
  148.5307  160.6968  132.9544 H   0  0  0  0  0  0  0  0  0  0  0  0
  149.1415  161.7494  131.6331 H   0  0  0  0  0  0  0  0  0  0  0  0
  147.4278  161.2111  131.6331 H   0  0  0  0  0  0  0  0  0  0  0  0
  146.6393  160.8933  133.4698 H   0  0  0  0  0  0  0  0  0  0  0  0
  1  2  1  0
  2  3  1  0
  3  4  2  0
  4  5  1  0
  5  6  2  0
  6  7  1  0
  7  8  2  0
  8  9  1  0
  9 10  1  0
  9 11  2  0
  8 12  1  0
 12 13  1  0
 13 14  2  0
 13 15  1  0
 15 16  1  0
 16 17  1  0
 16 18  1  0
 16 19  1  0
 12 20  1  0
 20 21  2  0
 21  3  1  0
 20  6  1  0
  1 22  1  0
  1 23  1  0
  1 24  1  0
  2 25  1  0
  2 26  1  0
  4 27  1  0
  5 28  1  0
  7 29  1  0
 10 30  1  0
 10 31  1  0
 17 32  1  0
 17 33  1  0
 17 34  1  0
 18 35  1  0
 18 36  1  0
 18 37  1  0
 19 38  1  0
 19 39  1  0
 19 40  1  0
 21 41  1  0
M  END
>  <UniqueID>  (78) 
78

>  <SMILES>  (78) 
CCc1ccc2cc(C(N)=O)n(C(=O)OC(C)(C)C)c2c1

>  <Energy>  (78) 
70.84373894358208

>  <Genealogy>  (78) 
CCc1ccc2cc(C(N)=O)n(C(=O)OC(C)(C)C)c2c1 (3D coordinates assigned)
CCc1ccc2cc(C(N)=O)n(C(=O)OC(C)(C)C)c2c1 (optimized conformer: 70.84373894358208 kcal/mol)

>  <smiles>  (78) 
CCc1ccc2cc(C(N)=O)n(C(=O)OC(C)(C)C)c2c1

>  <score_type>  (78) 
oracle

>  <origin>  (78) 
adg

>  <m_score__min__energy>  (78) 
-7.3499999999999996

>  <m_primary>  (78) 
energy

$$$$
78:0
     RDKit          3D

 34 36  0  0  0  0  0  0  0  0999 V2000
  138.7760  157.7420  132.8960 N   0  0  0  0  0  0  0  0  0  0  0  0
  139.7070  157.5220  133.9570 C   0  0  0  0  0  0  0  0  0  0  0  0
  139.2860  157.1270  135.0760 O   0  0  0  0  0  0  0  0  0  0  0  0
  141.1440  157.8120  133.7850 C   0  0  0  0  0  0  0  0  0  0  0  0
  142.1400  156.8510  133.9230 C   0  0  0  0  0  0  0  0  0  0  0  0
  143.3250  157.5300  133.7570 C   0  0  0  0  0  0  0  0  0  0  0  0
  144.6350  157.0600  133.7890 C   0  0  0  0  0  0  0  0  0  0  0  0
  145.6700  157.9800  133.5530 C   0  0  0  0  0  0  0  0  0  0  0  0
  145.3790  159.3390  133.2650 C   0  0  0  0  0  0  0  0  0  0  0  0
  146.4310  160.2910  133.0360 N   0  0  0  0  0  0  0  0  0  0  0  0
  147.6790  159.9830  132.3920 C   0  0  0  0  0  0  0  0  0  0  0  0
  148.4610  158.8850  132.7980 C   0  0  0  0  0  0  0  0  0  0  0  0
  149.6570  158.5890  132.1370 C   0  0  0  0  0  0  0  0  0  0  0  0
  150.0750  159.3740  131.0590 C   0  0  0  0  0  0  0  0  0  0  0  0
  149.2930  160.4510  130.6350 C   0  0  0  0  0  0  0  0  0  0  0  0
  148.0960  160.7510  131.2930 C   0  0  0  0  0  0  0  0  0  0  0  0
  144.0380  159.7800  133.2610 C   0  0  0  0  0  0  0  0  0  0  0  0
  143.0260  158.8470  133.5200 C   0  0  0  0  0  0  0  0  0  0  0  0
  141.6860  159.0370  133.5310 N   0  0  0  0  0  0  0  0  0  0  0  0
  140.9840  160.2510  133.2100 C   0  0  0  0  0  0  0  0  0  0  0  0
  141.3740  161.3550  133.6700 O   0  0  0  0  0  0  0  0  0  0  0  0
  139.8690  160.2160  132.3810 O   0  0  0  0  0  0  0  0  0  0  0  0
  139.0650  158.2220  132.0160 H   0  0  0  0  0  0  0  0  0  0  0  0
  137.7690  157.4980  133.0250 H   0  0  0  0  0  0  0  0  0  0  0  0
  142.0083  155.7772  134.1223 H   0  0  0  0  0  0  0  0  0  0  0  0
  144.8528  156.0012  133.9927 H   0  0  0  0  0  0  0  0  0  0  0  0
  146.7166  157.6437  133.5918 H   0  0  0  0  0  0  0  0  0  0  0  0
  146.2780  161.2750  133.3590 H   0  0  0  0  0  0  0  0  0  0  0  0
  148.1298  158.2575  133.6386 H   0  0  0  0  0  0  0  0  0  0  0  0
  150.2699  157.7369  132.4660 H   0  0  0  0  0  0  0  0  0  0  0  0
  151.0196  159.1438  130.5445 H   0  0  0  0  0  0  0  0  0  0  0  0
  149.6193  161.0642  129.7821 H   0  0  0  0  0  0  0  0  0  0  0  0
  147.4780  161.5930  130.9478 H   0  0  0  0  0  0  0  0  0  0  0  0
  143.7932  160.8332  133.0589 H   0  0  0  0  0  0  0  0  0  0  0  0
  1  2  1  0
  2  3  2  0
  2  4  1  0
  4  5  2  0
  5  6  1  0
  6  7  2  0
  7  8  1  0
  8  9  2  0
  9 10  1  0
 10 11  1  0
 11 12  2  0
 12 13  1  0
 13 14  2  0
 14 15  1  0
 15 16  2  0
  9 17  1  0
 17 18  2  0
 18 19  1  0
 19 20  1  0
 20 21  2  0
 20 22  1  0
 19  4  1  0
 18  6  1  0
 16 11  1  0
  1 23  1  0
  1 24  1  0
  5 25  1  0
  7 26  1  0
  8 27  1  0
 10 28  1  0
 12 29  1  0
 13 30  1  0
 14 31  1  0
 15 32  1  0
 16 33  1  0
 17 34  1  0
M  CHG  1  22  -1
M  END
>  <UniqueID>  (79) 
79

>  <SMILES>  (79) 
NC(=O)c1cc2ccc(Nc3ccccc3)cc2n1C(=O)[O-]

>  <Energy>  (79) 
82.29616214490196

>  <Genealogy>  (79) 
NC(=O)c1cc2ccc(Nc3ccccc3)cc2n1C(=O)[O-] (protonated)
NC(=O)c1cc2ccc(Nc3ccccc3)cc2n1C(=O)[O-] (3D coordinates assigned)
NC(=O)c1cc2ccc(Nc3ccccc3)cc2n1C(=O)[O-] (optimized conformer: 82.29616214490196 kcal/mol)

>  <smiles>  (79) 
NC(=O)c1cc2ccc(Nc3ccccc3)cc2n1C(=O)O

>  <score_type>  (79) 
oracle

>  <origin>  (79) 
adg

>  <m_score__min__energy>  (79) 
-7.8700000000000001

>  <m_primary>  (79) 
energy

$$$$
79:0
     RDKit          3D

 66 69  0  0  0  0  0  0  0  0999 V2000
  148.6060  161.1430  131.2890 C   0  0  0  0  0  0  0  0  0  0  0  0
  148.2080  159.8340  131.9970 C   0  0  0  0  0  0  0  0  0  0  0  0
  148.5180  158.6170  131.1060 C   0  0  0  0  0  0  0  0  0  0  0  0
  149.0100  159.7140  133.3020 C   0  0  0  0  0  0  0  0  0  0  0  0
  146.8190  159.8610  132.3560 O   0  0  0  0  0  0  0  0  0  0  0  0
  146.1990  159.0840  133.3460 C   0  0  0  0  0  0  0  0  0  0  0  0
  146.8040  158.1200  133.8870 O   0  0  0  0  0  0  0  0  0  0  0  0
  144.8480  159.3800  133.7290 N   0  0  0  0  0  0  0  0  0  0  0  0
  144.3300  160.5830  134.1080 C   0  0  0  0  0  0  0  0  0  0  0  0
  145.0420  161.8790  134.0500 C   0  0  0  0  0  0  0  0  0  0  0  0
  146.4670  161.9350  134.1350 N   0  0  0  0  0  0  0  0  0  0  0  0
  144.3930  162.9530  133.9520 O   0  0  0  0  0  0  0  0  0  0  0  0
  142.9940  160.4410  134.4820 C   0  0  0  0  0  0  0  0  0  0  0  0
  142.7100  159.1050  134.3200 C   0  0  0  0  0  0  0  0  0  0  0  0
  141.5340  158.4030  134.5690 C   0  0  0  0  0  0  0  0  0  0  0  0
  141.5360  157.0150  134.3510 C   0  0  0  0  0  0  0  0  0  0  0  0
  142.7040  156.3530  133.8860 C   0  0  0  0  0  0  0  0  0  0  0  0
  142.7210  154.8500  133.6850 C   0  0  0  0  0  0  0  0  0  0  0  0
  141.2840  154.2770  133.5840 C   0  0  0  0  0  0  0  0  0  0  0  0
  141.1840  153.0340  132.6810 C   0  0  0  0  0  0  0  0  0  0  0  0
  142.4290  152.2510  132.7150 N   0  0  0  0  0  0  0  0  0  0  0  0
  142.4030  150.8330  132.9680 C   0  0  0  0  0  0  0  0  0  0  0  0
  143.4710  150.1620  132.9040 O   0  0  0  0  0  0  0  0  0  0  0  0
  141.1990  150.2000  133.3020 O   0  0  0  0  0  0  0  0  0  0  0  0
  140.9000  148.8500  132.9530 C   0  0  0  0  0  0  0  0  0  0  0  0
  140.1400  148.8050  131.6540 C   0  0  0  0  0  0  0  0  0  0  0  0
  139.8140  147.5680  131.0760 C   0  0  0  0  0  0  0  0  0  0  0  0
  139.1380  147.5170  129.8540 C   0  0  0  0  0  0  0  0  0  0  0  0
  138.7830  148.7010  129.2000 C   0  0  0  0  0  0  0  0  0  0  0  0
  139.1070  149.9370  129.7680 C   0  0  0  0  0  0  0  0  0  0  0  0
  139.7840  149.9910  130.9900 C   0  0  0  0  0  0  0  0  0  0  0  0
  143.7130  152.9120  132.4330 C   0  0  0  0  0  0  0  0  0  0  0  0
  143.5860  154.4420  132.4800 C   0  0  0  0  0  0  0  0  0  0  0  0
  143.8790  157.1030  133.6530 C   0  0  0  0  0  0  0  0  0  0  0  0
  143.8440  158.4860  133.8640 C   0  0  0  0  0  0  0  0  0  0  0  0
  148.8394  161.9106  132.0416 H   0  0  0  0  0  0  0  0  0  0  0  0
  149.4907  160.9653  130.6599 H   0  0  0  0  0  0  0  0  0  0  0  0
  147.7721  161.4878  130.6599 H   0  0  0  0  0  0  0  0  0  0  0  0
  148.7400  157.7457  131.7397 H   0  0  0  0  0  0  0  0  0  0  0  0
  147.6474  158.3963  130.4709 H   0  0  0  0  0  0  0  0  0  0  0  0
  149.3881  158.8397  130.4709 H   0  0  0  0  0  0  0  0  0  0  0  0
  148.3302  159.8157  134.1608 H   0  0  0  0  0  0  0  0  0  0  0  0
  149.5041  158.7319  133.3398 H   0  0  0  0  0  0  0  0  0  0  0  0
  149.7699  160.5085  133.3398 H   0  0  0  0  0  0  0  0  0  0  0  0
  146.9550  162.8580  134.1320 H   0  0  0  0  0  0  0  0  0  0  0  0
  147.0440  161.0670  134.1550 H   0  0  0  0  0  0  0  0  0  0  0  0
  142.3121  161.2299  134.8322 H   0  0  0  0  0  0  0  0  0  0  0  0
  140.6305  158.9193  134.9256 H   0  0  0  0  0  0  0  0  0  0  0  0
  140.6220  156.4337  134.5427 H   0  0  0  0  0  0  0  0  0  0  0  0
  143.1889  154.4064  134.5762 H   0  0  0  0  0  0  0  0  0  0  0  0
  140.9462  154.0023  134.5942 H   0  0  0  0  0  0  0  0  0  0  0  0
  140.6538  155.0577  133.1331 H   0  0  0  0  0  0  0  0  0  0  0  0
  140.3534  152.4028  133.0298 H   0  0  0  0  0  0  0  0  0  0  0  0
  141.0099  153.3672  131.6472 H   0  0  0  0  0  0  0  0  0  0  0  0
  141.8384  148.2863  132.8447 H   0  0  0  0  0  0  0  0  0  0  0  0
  140.2825  148.4026  133.7458 H   0  0  0  0  0  0  0  0  0  0  0  0
  140.0919  146.6345  131.5873 H   0  0  0  0  0  0  0  0  0  0  0  0
  138.8849  146.5447  129.4062 H   0  0  0  0  0  0  0  0  0  0  0  0
  138.2491  148.6600  128.2391 H   0  0  0  0  0  0  0  0  0  0  0  0
  138.8288  150.8681  129.2526 H   0  0  0  0  0  0  0  0  0  0  0  0
  140.0388  150.9651  131.4331 H   0  0  0  0  0  0  0  0  0  0  0  0
  144.4511  152.5922  133.1833 H   0  0  0  0  0  0  0  0  0  0  0  0
  144.0315  152.6250  131.4200 H   0  0  0  0  0  0  0  0  0  0  0  0
  144.5859  154.8897  132.5785 H   0  0  0  0  0  0  0  0  0  0  0  0
  143.1133  154.7985  131.5529 H   0  0  0  0  0  0  0  0  0  0  0  0
  144.8017  156.6100  133.3129 H   0  0  0  0  0  0  0  0  0  0  0  0
  1  2  1  0
  2  3  1  0
  2  4  1  0
  2  5  1  0
  5  6  1  0
  6  7  2  0
  6  8  1  0
  8  9  1  0
  9 10  1  0
 10 11  1  0
 10 12  2  0
  9 13  2  0
 13 14  1  0
 14 15  2  0
 15 16  1  0
 16 17  2  0
 17 18  1  0
 18 19  1  0
 19 20  1  0
 20 21  1  0
 21 22  1  0
 22 23  2  0
 22 24  1  0
 24 25  1  0
 25 26  1  0
 26 27  2  0
 27 28  1  0
 28 29  2  0
 29 30  1  0
 30 31  2  0
 21 32  1  0
 32 33  1  0
 17 34  1  0
 34 35  2  0
 35  8  1  0
 35 14  1  0
 33 18  1  0
 31 26  1  0
  1 36  1  0
  1 37  1  0
  1 38  1  0
  3 39  1  0
  3 40  1  0
  3 41  1  0
  4 42  1  0
  4 43  1  0
  4 44  1  0
 11 45  1  0
 11 46  1  0
 13 47  1  0
 15 48  1  0
 16 49  1  0
 18 50  1  0
 19 51  1  0
 19 52  1  0
 20 53  1  0
 20 54  1  0
 25 55  1  0
 25 56  1  0
 27 57  1  0
 28 58  1  0
 29 59  1  0
 30 60  1  0
 31 61  1  0
 32 62  1  0
 32 63  1  0
 33 64  1  0
 33 65  1  0
 34 66  1  0
M  END
>  <UniqueID>  (80) 
80

>  <SMILES>  (80) 
CC(C)(C)OC(=O)n1c(C(N)=O)cc2ccc(C3CCN(C(=O)OCc4ccccc4)CC3)cc21

>  <Energy>  (80) 
103.11801403863676

>  <Genealogy>  (80) 
CC(C)(C)OC(=O)n1c(C(N)=O)cc2ccc(C3CCN(C(=O)OCc4ccccc4)CC3)cc21 (3D coordinates assigned)
CC(C)(C)OC(=O)n1c(C(N)=O)cc2ccc(C3CCN(C(=O)OCc4ccccc4)CC3)cc21 (nonaromatic ring conformer: 103.11801403863676 kcal/mol)

>  <smiles>  (80) 
CC(C)(C)OC(=O)n1c(C(N)=O)cc2ccc(C3CCN(C(=O)OCc4ccccc4)CC3)cc21

>  <score_type>  (80) 
oracle

>  <origin>  (80) 
adg

>  <m_score__min__energy>  (80) 
-10.949999999999999

>  <m_primary>  (80) 
energy

$$$$
80:0
     RDKit          3D

 44 46  0  0  0  0  0  0  0  0999 V2000
  143.6990  155.2110  135.1130 C   0  0  0  0  0  0  0  0  0  0  0  0
  144.6940  155.0220  133.9510 C   0  0  0  0  0  0  0  0  0  0  0  0
  143.9910  155.2200  132.5950 C   0  0  0  0  0  0  0  0  0  0  0  0
  145.2640  153.5970  134.0110 C   0  0  0  0  0  0  0  0  0  0  0  0
  145.8000  155.9250  134.0810 O   0  0  0  0  0  0  0  0  0  0  0  0
  146.3590  156.7120  133.0640 C   0  0  0  0  0  0  0  0  0  0  0  0
  146.9640  156.1820  132.0930 O   0  0  0  0  0  0  0  0  0  0  0  0
  146.2540  158.1430  133.1430 N   0  0  0  0  0  0  0  0  0  0  0  0
  147.2450  159.0660  132.9780 C   0  0  0  0  0  0  0  0  0  0  0  0
  148.6280  158.7730  132.5430 C   0  0  0  0  0  0  0  0  0  0  0  0
  148.8790  157.8610  131.4710 N   0  0  0  0  0  0  0  0  0  0  0  0
  149.6050  159.3040  133.1360 O   0  0  0  0  0  0  0  0  0  0  0  0
  146.7490  160.3530  133.1820 C   0  0  0  0  0  0  0  0  0  0  0  0
  145.4150  160.1870  133.4770 C   0  0  0  0  0  0  0  0  0  0  0  0
  144.4400  161.1350  133.7720 C   0  0  0  0  0  0  0  0  0  0  0  0
  143.1430  160.6790  134.0600 C   0  0  0  0  0  0  0  0  0  0  0  0
  142.8420  159.2910  134.0560 C   0  0  0  0  0  0  0  0  0  0  0  0
  141.4700  158.8170  134.3710 C   0  0  0  0  0  0  0  0  0  0  0  0
  140.5710  158.4860  133.3420 C   0  0  0  0  0  0  0  0  0  0  0  0
  139.2840  158.0450  133.6630 C   0  0  0  0  0  0  0  0  0  0  0  0
  138.9030  157.9370  134.9620 N   0  0  0  0  0  0  0  0  0  0  0  0
  139.7480  158.2480  135.9800 C   0  0  0  0  0  0  0  0  0  0  0  0
  141.0430  158.6930  135.7060 C   0  0  0  0  0  0  0  0  0  0  0  0
  143.8640  158.3610  133.7520 C   0  0  0  0  0  0  0  0  0  0  0  0
  145.1410  158.8450  133.4470 C   0  0  0  0  0  0  0  0  0  0  0  0
  144.2304  155.1101  136.0708 H   0  0  0  0  0  0  0  0  0  0  0  0
  143.2459  156.2113  135.0487 H   0  0  0  0  0  0  0  0  0  0  0  0
  142.9107  154.4465  135.0487 H   0  0  0  0  0  0  0  0  0  0  0  0
  142.9448  155.5147  132.7640 H   0  0  0  0  0  0  0  0  0  0  0  0
  144.5066  156.0079  132.0263 H   0  0  0  0  0  0  0  0  0  0  0  0
  144.0196  154.2789  132.0263 H   0  0  0  0  0  0  0  0  0  0  0  0
  145.3850  153.2944  135.0616 H   0  0  0  0  0  0  0  0  0  0  0  0
  144.5737  152.9044  133.5072 H   0  0  0  0  0  0  0  0  0  0  0  0
  146.2415  153.5716  133.5072 H   0  0  0  0  0  0  0  0  0  0  0  0
  148.0980  157.4450  130.9190 H   0  0  0  0  0  0  0  0  0  0  0  0
  149.8600  157.6310  131.1980 H   0  0  0  0  0  0  0  0  0  0  0  0
  147.3056  161.2998  133.1203 H   0  0  0  0  0  0  0  0  0  0  0  0
  144.6778  162.2090  133.7794 H   0  0  0  0  0  0  0  0  0  0  0  0
  142.3506  161.4060  134.2915 H   0  0  0  0  0  0  0  0  0  0  0  0
  140.8789  158.5736  132.2896 H   0  0  0  0  0  0  0  0  0  0  0  0
  138.5776  157.7846  132.8609 H   0  0  0  0  0  0  0  0  0  0  0  0
  139.4110  158.1490  137.0224 H   0  0  0  0  0  0  0  0  0  0  0  0
  141.7263  158.9455  136.5302 H   0  0  0  0  0  0  0  0  0  0  0  0
  143.6590  157.2803  133.7553 H   0  0  0  0  0  0  0  0  0  0  0  0
  1  2  1  0
  2  3  1  0
  2  4  1  0
  2  5  1  0
  5  6  1  0
  6  7  2  0
  6  8  1  0
  8  9  1  0
  9 10  1  0
 10 11  1  0
 10 12  2  0
  9 13  2  0
 13 14  1  0
 14 15  2  0
 15 16  1  0
 16 17  2  0
 17 18  1  0
 18 19  2  0
 19 20  1  0
 20 21  2  0
 21 22  1  0
 22 23  2  0
 17 24  1  0
 24 25  2  0
 25  8  1  0
 25 14  1  0
 23 18  1  0
  1 26  1  0
  1 27  1  0
  1 28  1  0
  3 29  1  0
  3 30  1  0
  3 31  1  0
  4 32  1  0
  4 33  1  0
  4 34  1  0
 11 35  1  0
 11 36  1  0
 13 37  1  0
 15 38  1  0
 16 39  1  0
 19 40  1  0
 20 41  1  0
 22 42  1  0
 23 43  1  0
 24 44  1  0
M  END
>  <UniqueID>  (81) 
81

>  <SMILES>  (81) 
CC(C)(C)OC(=O)n1c(C(N)=O)cc2ccc(-c3ccncc3)cc21

>  <Energy>  (81) 
85.61385173062773

>  <Genealogy>  (81) 
CC(C)(C)OC(=O)n1c(C(N)=O)cc2ccc(-c3ccncc3)cc21 (3D coordinates assigned)
CC(C)(C)OC(=O)n1c(C(N)=O)cc2ccc(-c3ccncc3)cc21 (optimized conformer: 85.61385173062773 kcal/mol)

>  <smiles>  (81) 
CC(C)(C)OC(=O)n1c(C(N)=O)cc2ccc(-c3ccncc3)cc21

>  <score_type>  (81) 
oracle

>  <origin>  (81) 
adg

>  <m_score__min__energy>  (81) 
-7.9299999999999997

>  <m_primary>  (81) 
energy

$$$$
81:0
     RDKit          3D

 56 58  0  0  0  0  0  0  0  0999 V2000
  148.4670  159.3140  132.4510 C   0  0  0  0  0  0  0  0  0  0  0  0
  147.2480  159.5280  133.3460 C   0  0  0  0  0  0  0  0  0  0  0  0
  145.9380  159.5610  132.5490 C   0  0  0  0  0  0  0  0  0  0  0  0
  144.8270  158.9810  133.3200 N   0  0  0  0  0  0  0  0  0  0  0  0
  143.9530  159.8600  134.1100 C   0  0  0  0  0  0  0  0  0  0  0  0
  144.0800  161.3220  133.6600 C   0  0  0  0  0  0  0  0  0  0  0  0
  145.1200  162.0880  134.4740 C   0  0  0  0  0  0  0  0  0  0  0  0
  144.5870  157.5610  133.2810 C   0  0  0  0  0  0  0  0  0  0  0  0
  145.6600  156.6550  133.0880 C   0  0  0  0  0  0  0  0  0  0  0  0
  145.4330  155.2700  133.0650 C   0  0  0  0  0  0  0  0  0  0  0  0
  144.1270  154.8190  133.2370 C   0  0  0  0  0  0  0  0  0  0  0  0
  143.6350  153.5350  133.2970 C   0  0  0  0  0  0  0  0  0  0  0  0
  142.2670  153.6770  133.5110 C   0  0  0  0  0  0  0  0  0  0  0  0
  141.3310  152.5360  133.5800 C   0  0  0  0  0  0  0  0  0  0  0  0
  140.0830  152.5610  132.8880 N   0  0  0  0  0  0  0  0  0  0  0  0
  141.6640  151.5000  134.2130 O   0  0  0  0  0  0  0  0  0  0  0  0
  141.9260  154.9930  133.5930 N   0  0  0  0  0  0  0  0  0  0  0  0
  140.6460  155.5390  133.9470 C   0  0  0  0  0  0  0  0  0  0  0  0
  139.6140  155.1890  133.3130 O   0  0  0  0  0  0  0  0  0  0  0  0
  140.5560  156.4740  134.9870 O   0  0  0  0  0  0  0  0  0  0  0  0
  139.5480  157.4800  135.0460 C   0  0  0  0  0  0  0  0  0  0  0  0
  139.4930  158.2400  133.7480 C   0  0  0  0  0  0  0  0  0  0  0  0
  138.4300  158.0490  132.8500 C   0  0  0  0  0  0  0  0  0  0  0  0
  138.4060  158.7350  131.6320 C   0  0  0  0  0  0  0  0  0  0  0  0
  139.4450  159.6100  131.2980 C   0  0  0  0  0  0  0  0  0  0  0  0
  140.5080  159.7980  132.1830 C   0  0  0  0  0  0  0  0  0  0  0  0
  140.5380  159.1140  133.4030 C   0  0  0  0  0  0  0  0  0  0  0  0
  143.0770  155.6800  133.4180 C   0  0  0  0  0  0  0  0  0  0  0  0
  143.2780  157.0640  133.4640 C   0  0  0  0  0  0  0  0  0  0  0  0
  149.3582  159.1575  133.0765 H   0  0  0  0  0  0  0  0  0  0  0  0
  148.3051  158.4305  131.8160 H   0  0  0  0  0  0  0  0  0  0  0  0
  148.6157  160.1998  131.8160 H   0  0  0  0  0  0  0  0  0  0  0  0
  147.1970  158.7069  134.0762 H   0  0  0  0  0  0  0  0  0  0  0  0
  147.3633  160.5022  133.8436 H   0  0  0  0  0  0  0  0  0  0  0  0
  145.6956  160.6050  132.3016 H   0  0  0  0  0  0  0  0  0  0  0  0
  146.0735  158.9651  131.6344 H   0  0  0  0  0  0  0  0  0  0  0  0
  142.9096  159.5354  133.9838 H   0  0  0  0  0  0  0  0  0  0  0  0
  144.2558  159.7937  135.1654 H   0  0  0  0  0  0  0  0  0  0  0  0
  144.3746  161.3421  132.6004 H   0  0  0  0  0  0  0  0  0  0  0  0
  143.1055  161.8085  133.8141 H   0  0  0  0  0  0  0  0  0  0  0  0
  144.9246  161.9440  135.5469 H   0  0  0  0  0  0  0  0  0  0  0  0
  146.1250  161.7128  134.2308 H   0  0  0  0  0  0  0  0  0  0  0  0
  145.0597  163.1591  134.2308 H   0  0  0  0  0  0  0  0  0  0  0  0
  146.6813  157.0414  132.9548 H   0  0  0  0  0  0  0  0  0  0  0  0
  146.2618  154.5624  132.9156 H   0  0  0  0  0  0  0  0  0  0  0  0
  144.2015  152.5974  133.1972 H   0  0  0  0  0  0  0  0  0  0  0  0
  139.8520  153.3260  132.2180 H   0  0  0  0  0  0  0  0  0  0  0  0
  139.4180  151.7610  132.9790 H   0  0  0  0  0  0  0  0  0  0  0  0
  138.5726  157.0062  135.2309 H   0  0  0  0  0  0  0  0  0  0  0  0
  139.7872  158.1794  135.8607 H   0  0  0  0  0  0  0  0  0  0  0  0
  137.6137  157.3574  133.1059 H   0  0  0  0  0  0  0  0  0  0  0  0
  137.5682  158.5863  130.9348 H   0  0  0  0  0  0  0  0  0  0  0  0
  139.4244  160.1491  130.3394 H   0  0  0  0  0  0  0  0  0  0  0  0
  141.3248  160.4863  131.9202 H   0  0  0  0  0  0  0  0  0  0  0  0
  141.3814  159.2606  134.0938 H   0  0  0  0  0  0  0  0  0  0  0  0
  142.4355  157.7493  133.6388 H   0  0  0  0  0  0  0  0  0  0  0  0
  1  2  1  0
  2  3  1  0
  3  4  1  0
  4  5  1  0
  5  6  1  0
  6  7  1  0
  4  8  1  0
  8  9  2  0
  9 10  1  0
 10 11  2  0
 11 12  1  0
 12 13  2  0
 13 14  1  0
 14 15  1  0
 14 16  2  0
 13 17  1  0
 17 18  1  0
 18 19  2  0
 18 20  1  0
 20 21  1  0
 21 22  1  0
 22 23  2  0
 23 24  1  0
 24 25  2  0
 25 26  1  0
 26 27  2  0
 17 28  1  0
 28 29  2  0
 29  8  1  0
 28 11  1  0
 27 22  1  0
  1 30  1  0
  1 31  1  0
  1 32  1  0
  2 33  1  0
  2 34  1  0
  3 35  1  0
  3 36  1  0
  5 37  1  0
  5 38  1  0
  6 39  1  0
  6 40  1  0
  7 41  1  0
  7 42  1  0
  7 43  1  0
  9 44  1  0
 10 45  1  0
 12 46  1  0
 15 47  1  0
 15 48  1  0
 21 49  1  0
 21 50  1  0
 23 51  1  0
 24 52  1  0
 25 53  1  0
 26 54  1  0
 27 55  1  0
 29 56  1  0
M  END
>  <UniqueID>  (82) 
82

>  <SMILES>  (82) 
CCCN(CCC)c1ccc2cc(C(N)=O)n(C(=O)OCc3ccccc3)c2c1

>  <Energy>  (82) 
87.58558615387508

>  <Genealogy>  (82) 
CCCN(CCC)c1ccc2cc(C(N)=O)n(C(=O)OCc3ccccc3)c2c1 (3D coordinates assigned)
CCCN(CCC)c1ccc2cc(C(N)=O)n(C(=O)OCc3ccccc3)c2c1 (optimized conformer: 87.58558615387508 kcal/mol)

>  <smiles>  (82) 
CCCN(CCC)c1ccc2cc(C(N)=O)n(C(=O)OCc3ccccc3)c2c1

>  <score_type>  (82) 
oracle

>  <origin>  (82) 
adg

>  <m_score__min__energy>  (82) 
-8.8900000000000006

>  <m_primary>  (82) 
energy

$$$$
82:0
     RDKit          3D

 48 50  0  0  0  0  0  0  0  0999 V2000
  144.0430  155.0650  132.2350 C   0  0  0  0  0  0  0  0  0  0  0  0
  143.5120  154.4220  133.5250 C   0  0  0  0  0  0  0  0  0  0  0  0
  142.6360  153.2110  133.1520 C   0  0  0  0  0  0  0  0  0  0  0  0
  144.7080  153.9820  134.3910 C   0  0  0  0  0  0  0  0  0  0  0  0
  142.7340  155.4190  134.2060 O   0  0  0  0  0  0  0  0  0  0  0  0
  141.6980  156.1870  133.6540 C   0  0  0  0  0  0  0  0  0  0  0  0
  140.7710  155.6440  132.9940 O   0  0  0  0  0  0  0  0  0  0  0  0
  141.6900  157.6090  133.8570 N   0  0  0  0  0  0  0  0  0  0  0  0
  140.6130  158.3990  134.1310 C   0  0  0  0  0  0  0  0  0  0  0  0
  139.2480  157.9140  134.4350 C   0  0  0  0  0  0  0  0  0  0  0  0
  138.5300  157.1190  133.4900 N   0  0  0  0  0  0  0  0  0  0  0  0
  138.6930  158.2270  135.5210 O   0  0  0  0  0  0  0  0  0  0  0  0
  140.9910  159.7390  134.1800 C   0  0  0  0  0  0  0  0  0  0  0  0
  142.3430  159.7460  133.9260 C   0  0  0  0  0  0  0  0  0  0  0  0
  143.2310  160.8140  133.8420 C   0  0  0  0  0  0  0  0  0  0  0  0
  144.5730  160.5340  133.5360 C   0  0  0  0  0  0  0  0  0  0  0  0
  145.0040  159.1990  133.3120 C   0  0  0  0  0  0  0  0  0  0  0  0
  146.4220  158.9140  132.9770 C   0  0  0  0  0  0  0  0  0  0  0  0
  147.0870  157.8250  133.5660 C   0  0  0  0  0  0  0  0  0  0  0  0
  148.4190  157.5560  133.2490 C   0  0  0  0  0  0  0  0  0  0  0  0
  149.1070  158.3670  132.3450 C   0  0  0  0  0  0  0  0  0  0  0  0
  150.3990  158.0760  132.0470 F   0  0  0  0  0  0  0  0  0  0  0  0
  148.4660  159.4680  131.7480 C   0  0  0  0  0  0  0  0  0  0  0  0
  149.2180  160.3260  130.7580 C   0  0  0  0  0  0  0  0  0  0  0  0
  150.5570  159.9760  130.7610 F   0  0  0  0  0  0  0  0  0  0  0  0
  149.1210  161.6720  131.0680 F   0  0  0  0  0  0  0  0  0  0  0  0
  148.7010  160.1240  129.4920 F   0  0  0  0  0  0  0  0  0  0  0  0
  147.1190  159.7280  132.0650 C   0  0  0  0  0  0  0  0  0  0  0  0
  144.0680  158.1420  133.4090 C   0  0  0  0  0  0  0  0  0  0  0  0
  142.7410  158.4490  133.7340 C   0  0  0  0  0  0  0  0  0  0  0  0
  144.7243  155.8900  132.4901 H   0  0  0  0  0  0  0  0  0  0  0  0
  144.5850  154.3108  131.6456 H   0  0  0  0  0  0  0  0  0  0  0  0
  143.1999  155.4546  131.6456 H   0  0  0  0  0  0  0  0  0  0  0  0
  142.2803  152.7193  134.0694 H   0  0  0  0  0  0  0  0  0  0  0  0
  141.7734  153.5509  132.5601 H   0  0  0  0  0  0  0  0  0  0  0  0
  143.2288  152.4981  132.5601 H   0  0  0  0  0  0  0  0  0  0  0  0
  144.4455  154.0785  135.4549 H   0  0  0  0  0  0  0  0  0  0  0  0
  144.9560  152.9337  134.1682 H   0  0  0  0  0  0  0  0  0  0  0  0
  145.5762  154.6196  134.1682 H   0  0  0  0  0  0  0  0  0  0  0  0
  138.9750  156.7960  132.6030 H   0  0  0  0  0  0  0  0  0  0  0  0
  137.5530  156.8130  133.6980 H   0  0  0  0  0  0  0  0  0  0  0  0
  140.3455  160.6071  134.3794 H   0  0  0  0  0  0  0  0  0  0  0  0
  142.8921  161.8469  134.0102 H   0  0  0  0  0  0  0  0  0  0  0  0
  145.2986  161.3580  133.4690 H   0  0  0  0  0  0  0  0  0  0  0  0
  146.5543  157.1809  134.2811 H   0  0  0  0  0  0  0  0  0  0  0  0
  148.9297  156.7000  133.7141 H   0  0  0  0  0  0  0  0  0  0  0  0
  146.6048  160.5785  131.5936 H   0  0  0  0  0  0  0  0  0  0  0  0
  144.3765  157.1009  133.2328 H   0  0  0  0  0  0  0  0  0  0  0  0
  1  2  1  0
  2  3  1  0
  2  4  1  0
  2  5  1  0
  5  6  1  0
  6  7  2  0
  6  8  1  0
  8  9  1  0
  9 10  1  0
 10 11  1  0
 10 12  2  0
  9 13  2  0
 13 14  1  0
 14 15  2  0
 15 16  1  0
 16 17  2  0
 17 18  1  0
 18 19  2  0
 19 20  1  0
 20 21  2  0
 21 22  1  0
 21 23  1  0
 23 24  1  0
 24 25  1  0
 24 26  1  0
 24 27  1  0
 23 28  2  0
 17 29  1  0
 29 30  2  0
 30  8  1  0
 30 14  1  0
 28 18  1  0
  1 31  1  0
  1 32  1  0
  1 33  1  0
  3 34  1  0
  3 35  1  0
  3 36  1  0
  4 37  1  0
  4 38  1  0
  4 39  1  0
 11 40  1  0
 11 41  1  0
 13 42  1  0
 15 43  1  0
 16 44  1  0
 19 45  1  0
 20 46  1  0
 28 47  1  0
 29 48  1  0
M  END
>  <UniqueID>  (83) 
83

>  <SMILES>  (83) 
CC(C)(C)OC(=O)n1c(C(N)=O)cc2ccc(-c3ccc(F)c(C(F)(F)F)c3)cc21

>  <Energy>  (83) 
90.23672725791101

>  <Genealogy>  (83) 
CC(C)(C)OC(=O)n1c(C(N)=O)cc2ccc(-c3ccc(F)c(C(F)(F)F)c3)cc21 (3D coordinates assigned)
CC(C)(C)OC(=O)n1c(C(N)=O)cc2ccc(-c3ccc(F)c(C(F)(F)F)c3)cc21 (optimized conformer: 90.23672725791101 kcal/mol)

>  <smiles>  (83) 
CC(C)(C)OC(=O)n1c(C(N)=O)cc2ccc(-c3ccc(F)c(C(F)(F)F)c3)cc21

>  <score_type>  (83) 
oracle

>  <origin>  (83) 
adg

>  <m_score__min__energy>  (83) 
-8.5700000000000003

>  <m_primary>  (83) 
energy

$$$$
83:0
     RDKit          3D

 39 41  0  0  0  0  0  0  0  0999 V2000
  143.3310  155.6530  133.1300 N   0  0  0  0  0  0  0  0  0  0  0  0
  143.3180  154.4300  133.8650 C   0  0  0  0  0  0  0  0  0  0  0  0
  143.8440  154.3840  135.0090 O   0  0  0  0  0  0  0  0  0  0  0  0
  142.6190  153.2440  133.3410 C   0  0  0  0  0  0  0  0  0  0  0  0
  143.2650  152.0390  133.0960 C   0  0  0  0  0  0  0  0  0  0  0  0
  142.2850  151.1850  132.6560 C   0  0  0  0  0  0  0  0  0  0  0  0
  142.3750  149.8480  132.2810 C   0  0  0  0  0  0  0  0  0  0  0  0
  141.1990  149.1950  131.8780 C   0  0  0  0  0  0  0  0  0  0  0  0
  139.9600  149.8790  131.8810 C   0  0  0  0  0  0  0  0  0  0  0  0
  138.7100  149.1780  131.4360 C   0  0  0  0  0  0  0  0  0  0  0  0
  138.7510  148.9370  129.6720 Cl  0  0  0  0  0  0  0  0  0  0  0  0
  139.9070  151.2380  132.2590 C   0  0  0  0  0  0  0  0  0  0  0  0
  141.0990  151.8770  132.6340 C   0  0  0  0  0  0  0  0  0  0  0  0
  141.2900  153.1610  133.0370 N   0  0  0  0  0  0  0  0  0  0  0  0
  140.3340  154.2430  132.9820 C   0  0  0  0  0  0  0  0  0  0  0  0
  139.0960  154.0040  133.0170 O   0  0  0  0  0  0  0  0  0  0  0  0
  140.7760  155.5670  132.9400 O   0  0  0  0  0  0  0  0  0  0  0  0
  139.9420  156.6800  133.2360 C   0  0  0  0  0  0  0  0  0  0  0  0
  140.2480  157.1570  134.6250 C   0  0  0  0  0  0  0  0  0  0  0  0
  139.9140  158.4690  135.0050 C   0  0  0  0  0  0  0  0  0  0  0  0
  140.2450  158.9380  136.2790 C   0  0  0  0  0  0  0  0  0  0  0  0
  140.9220  158.1070  137.1770 C   0  0  0  0  0  0  0  0  0  0  0  0
  141.2690  156.8060  136.8020 C   0  0  0  0  0  0  0  0  0  0  0  0
  140.9410  156.3330  135.5270 C   0  0  0  0  0  0  0  0  0  0  0  0
  143.8300  156.4890  133.5080 H   0  0  0  0  0  0  0  0  0  0  0  0
  142.8010  155.7470  132.2350 H   0  0  0  0  0  0  0  0  0  0  0  0
  144.3343  151.8166  133.2268 H   0  0  0  0  0  0  0  0  0  0  0  0
  143.3389  149.3183  132.2997 H   0  0  0  0  0  0  0  0  0  0  0  0
  141.2411  148.1436  131.5575 H   0  0  0  0  0  0  0  0  0  0  0  0
  138.6409  148.2011  131.9368 H   0  0  0  0  0  0  0  0  0  0  0  0
  137.8356  149.7913  131.6992 H   0  0  0  0  0  0  0  0  0  0  0  0
  138.9522  151.7843  132.2596 H   0  0  0  0  0  0  0  0  0  0  0  0
  140.1356  157.4889  132.5162 H   0  0  0  0  0  0  0  0  0  0  0  0
  138.8848  156.3840  133.1667 H   0  0  0  0  0  0  0  0  0  0  0  0
  139.3904  159.1283  134.2970 H   0  0  0  0  0  0  0  0  0  0  0  0
  139.9728  159.9617  136.5757 H   0  0  0  0  0  0  0  0  0  0  0  0
  141.1818  158.4775  138.1796 H   0  0  0  0  0  0  0  0  0  0  0  0
  141.8006  156.1534  137.5102 H   0  0  0  0  0  0  0  0  0  0  0  0
  141.2266  155.3131  135.2300 H   0  0  0  0  0  0  0  0  0  0  0  0
  1  2  1  0
  2  3  2  0
  2  4  1  0
  4  5  2  0
  5  6  1  0
  6  7  2  0
  7  8  1  0
  8  9  2  0
  9 10  1  0
 10 11  1  0
  9 12  1  0
 12 13  2  0
 13 14  1  0
 14 15  1  0
 15 16  2  0
 15 17  1  0
 17 18  1  0
 18 19  1  0
 19 20  2  0
 20 21  1  0
 21 22  2  0
 22 23  1  0
 23 24  2  0
 14  4  1  0
 24 19  1  0
 13  6  1  0
  1 25  1  0
  1 26  1  0
  5 27  1  0
  7 28  1  0
  8 29  1  0
 10 30  1  0
 10 31  1  0
 12 32  1  0
 18 33  1  0
 18 34  1  0
 20 35  1  0
 21 36  1  0
 22 37  1  0
 23 38  1  0
 24 39  1  0
M  END
>  <UniqueID>  (84) 
84

>  <SMILES>  (84) 
NC(=O)c1cc2ccc(CCl)cc2n1C(=O)OCc1ccccc1

>  <Energy>  (84) 
79.41178032798007

>  <Genealogy>  (84) 
NC(=O)c1cc2ccc(CCl)cc2n1C(=O)OCc1ccccc1 (3D coordinates assigned)
NC(=O)c1cc2ccc(CCl)cc2n1C(=O)OCc1ccccc1 (optimized conformer: 79.41178032798007 kcal/mol)

>  <smiles>  (84) 
NC(=O)c1cc2ccc(CCl)cc2n1C(=O)OCc1ccccc1

>  <score_type>  (84) 
oracle

>  <origin>  (84) 
adg

>  <m_score__min__energy>  (84) 
-8.3599999999999994

>  <m_primary>  (84) 
energy

$$$$
84:0
     RDKit          3D

 47 49  0  0  0  0  0  0  0  0999 V2000
  148.9120  158.9790  129.9900 C   0  0  0  0  0  0  0  0  0  0  0  0
  148.6580  159.8150  131.2580 C   0  0  0  0  0  0  0  0  0  0  0  0
  149.4030  159.1710  132.4370 C   0  0  0  0  0  0  0  0  0  0  0  0
  149.1690  161.2560  131.0740 C   0  0  0  0  0  0  0  0  0  0  0  0
  147.2620  159.8140  131.5930 O   0  0  0  0  0  0  0  0  0  0  0  0
  146.7130  159.9820  132.8730 C   0  0  0  0  0  0  0  0  0  0  0  0
  147.2040  160.8130  133.6850 O   0  0  0  0  0  0  0  0  0  0  0  0
  145.5780  159.1930  133.2630 N   0  0  0  0  0  0  0  0  0  0  0  0
  144.3710  159.6380  133.7110 C   0  0  0  0  0  0  0  0  0  0  0  0
  143.9220  161.0450  133.7330 C   0  0  0  0  0  0  0  0  0  0  0  0
  144.8600  162.1210  133.7670 N   0  0  0  0  0  0  0  0  0  0  0  0
  142.6900  161.3020  133.6660 O   0  0  0  0  0  0  0  0  0  0  0  0
  143.5710  158.5700  134.1110 C   0  0  0  0  0  0  0  0  0  0  0  0
  144.3280  157.4440  133.8790 C   0  0  0  0  0  0  0  0  0  0  0  0
  144.0280  156.1050  134.1060 C   0  0  0  0  0  0  0  0  0  0  0  0
  145.0140  155.1490  133.8090 C   0  0  0  0  0  0  0  0  0  0  0  0
  146.2790  155.5430  133.2990 C   0  0  0  0  0  0  0  0  0  0  0  0
  147.3180  154.5260  132.9990 C   0  0  0  0  0  0  0  0  0  0  0  0
  148.6480  154.9130  132.7500 C   0  0  0  0  0  0  0  0  0  0  0  0
  149.6240  153.9540  132.4640 C   0  0  0  0  0  0  0  0  0  0  0  0
  149.2880  152.5950  132.4210 C   0  0  0  0  0  0  0  0  0  0  0  0
  150.2880  151.6140  132.1290 N   0  0  0  0  0  0  0  0  0  0  0  0
  147.9670  152.2020  132.6690 C   0  0  0  0  0  0  0  0  0  0  0  0
  146.9890  153.1590  132.9560 C   0  0  0  0  0  0  0  0  0  0  0  0
  146.5430  156.9170  133.0840 C   0  0  0  0  0  0  0  0  0  0  0  0
  145.5350  157.8460  133.3690 C   0  0  0  0  0  0  0  0  0  0  0  0
  149.2207  157.9628  130.2765 H   0  0  0  0  0  0  0  0  0  0  0  0
  147.9890  158.9274  129.3939 H   0  0  0  0  0  0  0  0  0  0  0  0
  149.7077  159.4496  129.3939 H   0  0  0  0  0  0  0  0  0  0  0  0
  148.9787  159.5378  133.3832 H   0  0  0  0  0  0  0  0  0  0  0  0
  149.2946  158.0776  132.3860 H   0  0  0  0  0  0  0  0  0  0  0  0
  150.4693  159.4365  132.3860 H   0  0  0  0  0  0  0  0  0  0  0  0
  149.3321  161.7159  132.0599 H   0  0  0  0  0  0  0  0  0  0  0  0
  150.1165  161.2405  130.5154 H   0  0  0  0  0  0  0  0  0  0  0  0
  148.4235  161.8409  130.5154 H   0  0  0  0  0  0  0  0  0  0  0  0
  144.5230  163.1070  133.8250 H   0  0  0  0  0  0  0  0  0  0  0  0
  145.8830  161.9500  133.6480 H   0  0  0  0  0  0  0  0  0  0  0  0
  142.5525  158.6165  134.5238 H   0  0  0  0  0  0  0  0  0  0  0  0
  143.0486  155.8036  134.5059 H   0  0  0  0  0  0  0  0  0  0  0  0
  144.8032  154.0820  133.9737 H   0  0  0  0  0  0  0  0  0  0  0  0
  148.9215  155.9780  132.7807 H   0  0  0  0  0  0  0  0  0  0  0  0
  150.6605  154.2681  132.2719 H   0  0  0  0  0  0  0  0  0  0  0  0
  150.0260  150.6180  131.9600 H   0  0  0  0  0  0  0  0  0  0  0  0
  151.2970  151.8790  132.0790 H   0  0  0  0  0  0  0  0  0  0  0  0
  147.6977  151.1359  132.6379 H   0  0  0  0  0  0  0  0  0  0  0  0
  145.9541  152.8405  133.1497 H   0  0  0  0  0  0  0  0  0  0  0  0
  147.5196  157.2479  132.7010 H   0  0  0  0  0  0  0  0  0  0  0  0
  1  2  1  0
  2  3  1  0
  2  4  1  0
  2  5  1  0
  5  6  1  0
  6  7  2  0
  6  8  1  0
  8  9  1  0
  9 10  1  0
 10 11  1  0
 10 12  2  0
  9 13  2  0
 13 14  1  0
 14 15  2  0
 15 16  1  0
 16 17  2  0
 17 18  1  0
 18 19  2  0
 19 20  1  0
 20 21  2  0
 21 22  1  0
 21 23  1  0
 23 24  2  0
 17 25  1  0
 25 26  2  0
 26  8  1  0
 26 14  1  0
 24 18  1  0
  1 27  1  0
  1 28  1  0
  1 29  1  0
  3 30  1  0
  3 31  1  0
  3 32  1  0
  4 33  1  0
  4 34  1  0
  4 35  1  0
 11 36  1  0
 11 37  1  0
 13 38  1  0
 15 39  1  0
 16 40  1  0
 19 41  1  0
 20 42  1  0
 22 43  1  0
 22 44  1  0
 23 45  1  0
 24 46  1  0
 25 47  1  0
M  END
>  <UniqueID>  (85) 
85

>  <SMILES>  (85) 
CC(C)(C)OC(=O)n1c(C(N)=O)cc2ccc(-c3ccc(N)cc3)cc21

>  <Energy>  (85) 
87.56494238401915

>  <Genealogy>  (85) 
CC(C)(C)OC(=O)n1c(C(N)=O)cc2ccc(-c3ccc(N)cc3)cc21 (3D coordinates assigned)
CC(C)(C)OC(=O)n1c(C(N)=O)cc2ccc(-c3ccc(N)cc3)cc21 (optimized conformer: 87.56494238401915 kcal/mol)

>  <smiles>  (85) 
CC(C)(C)OC(=O)n1c(C(N)=O)cc2ccc(-c3ccc(N)cc3)cc21

>  <score_type>  (85) 
oracle

>  <origin>  (85) 
adg

>  <m_score__min__energy>  (85) 
-8.3000000000000007

>  <m_primary>  (85) 
energy

$$$$
85:0
     RDKit          3D

 50 52  0  0  0  0  0  0  0  0999 V2000
  147.5860  154.6930  134.7880 C   0  0  0  0  0  0  0  0  0  0  0  0
  147.3920  154.5640  133.2700 C   0  0  0  0  0  0  0  0  0  0  0  0
  148.7730  154.4240  132.6010 C   0  0  0  0  0  0  0  0  0  0  0  0
  146.5180  153.3300  132.9810 C   0  0  0  0  0  0  0  0  0  0  0  0
  146.7330  155.7590  132.8270 O   0  0  0  0  0  0  0  0  0  0  0  0
  145.6860  156.4270  133.4800 C   0  0  0  0  0  0  0  0  0  0  0  0
  144.8320  155.7790  134.1410 O   0  0  0  0  0  0  0  0  0  0  0  0
  145.5810  157.8590  133.3710 N   0  0  0  0  0  0  0  0  0  0  0  0
  146.5820  158.7540  133.1370 C   0  0  0  0  0  0  0  0  0  0  0  0
  147.9880  158.4210  132.8530 C   0  0  0  0  0  0  0  0  0  0  0  0
  148.3210  157.4570  131.8550 N   0  0  0  0  0  0  0  0  0  0  0  0
  148.9060  159.0450  133.4490 O   0  0  0  0  0  0  0  0  0  0  0  0
  146.1210  160.0600  133.2550 C   0  0  0  0  0  0  0  0  0  0  0  0
  144.7820  159.9460  133.5450 C   0  0  0  0  0  0  0  0  0  0  0  0
  143.8210  160.9350  133.7340 C   0  0  0  0  0  0  0  0  0  0  0  0
  142.5010  160.5300  133.9920 C   0  0  0  0  0  0  0  0  0  0  0  0
  142.1660  159.1550  134.0590 C   0  0  0  0  0  0  0  0  0  0  0  0
  140.7360  158.7370  134.2800 C   0  0  0  0  0  0  0  0  0  0  0  0
  139.9160  158.9800  133.0320 C   0  0  0  0  0  0  0  0  0  0  0  0
  139.8690  160.2910  132.5210 C   0  0  0  0  0  0  0  0  0  0  0  0
  139.1930  160.5740  131.3330 C   0  0  0  0  0  0  0  0  0  0  0  0
  138.5610  159.5510  130.6310 C   0  0  0  0  0  0  0  0  0  0  0  0
  138.6000  158.2440  131.1150 C   0  0  0  0  0  0  0  0  0  0  0  0
  139.2670  157.9390  132.3120 C   0  0  0  0  0  0  0  0  0  0  0  0
  139.2640  156.5770  132.7650 N   0  0  0  0  0  0  0  0  0  0  0  0
  143.1680  158.1800  133.8570 C   0  0  0  0  0  0  0  0  0  0  0  0
  144.4790  158.6090  133.6110 C   0  0  0  0  0  0  0  0  0  0  0  0
  146.7787  154.1562  135.3077 H   0  0  0  0  0  0  0  0  0  0  0  0
  148.5564  154.2597  135.0718 H   0  0  0  0  0  0  0  0  0  0  0  0
  147.5618  155.7555  135.0718 H   0  0  0  0  0  0  0  0  0  0  0  0
  149.5496  154.3453  133.3760 H   0  0  0  0  0  0  0  0  0  0  0  0
  148.7870  153.5198  131.9747 H   0  0  0  0  0  0  0  0  0  0  0  0
  148.9682  155.3070  131.9747 H   0  0  0  0  0  0  0  0  0  0  0  0
  146.1973  152.8772  133.9308 H   0  0  0  0  0  0  0  0  0  0  0  0
  145.6332  153.6346  132.4028 H   0  0  0  0  0  0  0  0  0  0  0  0
  147.0990  152.5964  132.4028 H   0  0  0  0  0  0  0  0  0  0  0  0
  147.5790  157.0290  131.2570 H   0  0  0  0  0  0  0  0  0  0  0  0
  149.3200  157.2090  131.6760 H   0  0  0  0  0  0  0  0  0  0  0  0
  146.7030  160.9864  133.1408 H   0  0  0  0  0  0  0  0  0  0  0  0
  144.0871  162.0011  133.6829 H   0  0  0  0  0  0  0  0  0  0  0  0
  141.7190  161.2885  134.1437 H   0  0  0  0  0  0  0  0  0  0  0  0
  140.7060  157.6663  134.5305 H   0  0  0  0  0  0  0  0  0  0  0  0
  140.3145  159.3304  135.1048 H   0  0  0  0  0  0  0  0  0  0  0  0
  140.3720  161.1037  133.0655 H   0  0  0  0  0  0  0  0  0  0  0  0
  139.1595  161.6052  130.9514 H   0  0  0  0  0  0  0  0  0  0  0  0
  138.0304  159.7742  129.6936 H   0  0  0  0  0  0  0  0  0  0  0  0
  138.1016  157.4414  130.5516 H   0  0  0  0  0  0  0  0  0  0  0  0
  138.3600  156.0670  132.8860 H   0  0  0  0  0  0  0  0  0  0  0  0
  140.1260  156.0620  133.0370 H   0  0  0  0  0  0  0  0  0  0  0  0
  142.9245  157.1079  133.8920 H   0  0  0  0  0  0  0  0  0  0  0  0
  1  2  1  0
  2  3  1  0
  2  4  1  0
  2  5  1  0
  5  6  1  0
  6  7  2  0
  6  8  1  0
  8  9  1  0
  9 10  1  0
 10 11  1  0
 10 12  2  0
  9 13  2  0
 13 14  1  0
 14 15  2  0
 15 16  1  0
 16 17  2  0
 17 18  1  0
 18 19  1  0
 19 20  2  0
 20 21  1  0
 21 22  2  0
 22 23  1  0
 23 24  2  0
 24 25  1  0
 17 26  1  0
 26 27  2  0
 27  8  1  0
 27 14  1  0
 24 19  1  0
  1 28  1  0
  1 29  1  0
  1 30  1  0
  3 31  1  0
  3 32  1  0
  3 33  1  0
  4 34  1  0
  4 35  1  0
  4 36  1  0
 11 37  1  0
 11 38  1  0
 13 39  1  0
 15 40  1  0
 16 41  1  0
 18 42  1  0
 18 43  1  0
 20 44  1  0
 21 45  1  0
 22 46  1  0
 23 47  1  0
 25 48  1  0
 25 49  1  0
 26 50  1  0
M  END
>  <UniqueID>  (86) 
86

>  <SMILES>  (86) 
CC(C)(C)OC(=O)n1c(C(N)=O)cc2ccc(Cc3ccccc3N)cc21

>  <Energy>  (86) 
89.66222242915312

>  <Genealogy>  (86) 
CC(C)(C)OC(=O)n1c(C(N)=O)cc2ccc(Cc3ccccc3N)cc21 (3D coordinates assigned)
CC(C)(C)OC(=O)n1c(C(N)=O)cc2ccc(Cc3ccccc3N)cc21 (optimized conformer: 89.66222242915312 kcal/mol)

>  <smiles>  (86) 
CC(C)(C)OC(=O)n1c(C(N)=O)cc2ccc(Cc3ccccc3N)cc21

>  <score_type>  (86) 
oracle

>  <origin>  (86) 
adg

>  <m_score__min__energy>  (86) 
-9.4399999999999995

>  <m_primary>  (86) 
energy

$$$$
86:0
     RDKit          3D

 26 27  0  0  0  0  0  0  0  0999 V2000
  143.5430  156.4000  132.6340 C   0  0  0  0  0  0  0  0  0  0  0  0
  143.7050  157.2660  133.8440 C   0  0  0  0  0  0  0  0  0  0  0  0
  143.2910  156.8510  134.9590 O   0  0  0  0  0  0  0  0  0  0  0  0
  144.3950  158.5220  133.7620 N   0  0  0  0  0  0  0  0  0  0  0  0
  143.8800  159.7780  133.8950 C   0  0  0  0  0  0  0  0  0  0  0  0
  142.5020  160.1080  134.3120 C   0  0  0  0  0  0  0  0  0  0  0  0
  141.9030  159.4720  135.4370 N   0  0  0  0  0  0  0  0  0  0  0  0
  141.8580  160.9960  133.6900 O   0  0  0  0  0  0  0  0  0  0  0  0
  144.8650  160.7360  133.6600 C   0  0  0  0  0  0  0  0  0  0  0  0
  146.0110  160.0210  133.3880 C   0  0  0  0  0  0  0  0  0  0  0  0
  147.2930  160.4660  133.0770 C   0  0  0  0  0  0  0  0  0  0  0  0
  148.2810  159.4980  132.8240 C   0  0  0  0  0  0  0  0  0  0  0  0
  147.9690  158.1190  132.8810 C   0  0  0  0  0  0  0  0  0  0  0  0
  148.9810  157.1440  132.6130 N   0  0  0  0  0  0  0  0  0  0  0  0
  146.6580  157.7050  133.1990 C   0  0  0  0  0  0  0  0  0  0  0  0
  145.6990  158.6880  133.4580 C   0  0  0  0  0  0  0  0  0  0  0  0
  143.3492  155.3638  132.9481 H   0  0  0  0  0  0  0  0  0  0  0  0
  142.6976  156.7650  132.0324 H   0  0  0  0  0  0  0  0  0  0  0  0
  144.4632  156.4347  132.0324 H   0  0  0  0  0  0  0  0  0  0  0  0
  142.2560  158.5530  135.7850 H   0  0  0  0  0  0  0  0  0  0  0  0
  144.7515  161.8298  133.6861 H   0  0  0  0  0  0  0  0  0  0  0  0
  147.5255  161.5402  133.0307 H   0  0  0  0  0  0  0  0  0  0  0  0
  149.3054  159.8155  132.5796 H   0  0  0  0  0  0  0  0  0  0  0  0
  149.6270  156.8230  133.3670 H   0  0  0  0  0  0  0  0  0  0  0  0
  149.0910  156.7380  131.6560 H   0  0  0  0  0  0  0  0  0  0  0  0
  146.3978  156.6371  133.2419 H   0  0  0  0  0  0  0  0  0  0  0  0
  1  2  1  0
  2  3  2  0
  2  4  1  0
  4  5  1  0
  5  6  1  0
  6  7  1  0
  6  8  2  0
  5  9  2  0
  9 10  1  0
 10 11  2  0
 11 12  1  0
 12 13  2  0
 13 14  1  0
 13 15  1  0
 15 16  2  0
 16  4  1  0
 16 10  1  0
  1 17  1  0
  1 18  1  0
  1 19  1  0
  7 20  1  0
  9 21  1  0
 11 22  1  0
 12 23  1  0
 14 24  1  0
 14 25  1  0
 15 26  1  0
M  CHG  1   7  -1
M  END
>  <UniqueID>  (87) 
87

>  <SMILES>  (87) 
CC(=O)n1c(C([NH-])=O)cc2ccc(N)cc21

>  <Energy>  (87) 
64.74124372632211

>  <Genealogy>  (87) 
CC(=O)n1c(C([NH-])=O)cc2ccc(N)cc21 (protonated)
CC(=O)n1c(C([NH-])=O)cc2ccc(N)cc21 (3D coordinates assigned)
CC(=O)n1c(C([NH-])=O)cc2ccc(N)cc21 (optimized conformer: 64.74124372632211 kcal/mol)

>  <smiles>  (87) 
CC(=O)n1c(C(N)=O)cc2ccc(N)cc21

>  <score_type>  (87) 
oracle

>  <origin>  (87) 
adg

>  <m_score__min__energy>  (87) 
-5.75

>  <m_primary>  (87) 
energy

$$$$
87:0
     RDKit          3D

 48 50  0  0  0  0  0  0  0  0999 V2000
  138.1490  159.8090  130.7370 C   0  0  0  0  0  0  0  0  0  0  0  0
  139.2820  159.1770  131.4820 C   0  0  0  0  0  0  0  0  0  0  0  0
  140.4530  159.3190  131.0440 O   0  0  0  0  0  0  0  0  0  0  0  0
  139.0830  158.4210  132.6830 N   0  0  0  0  0  0  0  0  0  0  0  0
  139.8960  158.4370  133.8610 C   0  0  0  0  0  0  0  0  0  0  0  0
  141.2630  158.5150  134.0590 C   0  0  0  0  0  0  0  0  0  0  0  0
  142.3890  158.6060  133.1790 N   0  0  0  0  0  0  0  0  0  0  0  0
  143.6630  158.0100  133.4610 C   0  0  0  0  0  0  0  0  0  0  0  0
  144.8670  158.6100  133.0100 C   0  0  0  0  0  0  0  0  0  0  0  0
  146.1080  158.0010  133.2580 C   0  0  0  0  0  0  0  0  0  0  0  0
  146.1160  156.7940  133.9500 C   0  0  0  0  0  0  0  0  0  0  0  0
  147.1680  155.9770  134.2920 C   0  0  0  0  0  0  0  0  0  0  0  0
  146.5950  154.8910  134.9490 C   0  0  0  0  0  0  0  0  0  0  0  0
  147.3850  153.8020  135.5610 C   0  0  0  0  0  0  0  0  0  0  0  0
  146.9450  153.1590  136.7530 N   0  0  0  0  0  0  0  0  0  0  0  0
  148.4880  153.4680  135.0510 O   0  0  0  0  0  0  0  0  0  0  0  0
  145.2400  155.0260  135.0040 N   0  0  0  0  0  0  0  0  0  0  0  0
  144.2850  154.0780  135.5030 C   0  0  0  0  0  0  0  0  0  0  0  0
  143.9170  154.1360  136.7080 O   0  0  0  0  0  0  0  0  0  0  0  0
  143.7530  153.1130  134.6340 O   0  0  0  0  0  0  0  0  0  0  0  0
  142.7700  153.3360  133.6130 C   0  0  0  0  0  0  0  0  0  0  0  0
  141.7120  154.3480  134.0920 C   0  0  0  0  0  0  0  0  0  0  0  0
  142.1040  152.0100  133.1970 C   0  0  0  0  0  0  0  0  0  0  0  0
  143.5040  153.9240  132.3980 C   0  0  0  0  0  0  0  0  0  0  0  0
  144.9620  156.1980  134.3900 C   0  0  0  0  0  0  0  0  0  0  0  0
  143.7110  156.7720  134.1380 C   0  0  0  0  0  0  0  0  0  0  0  0
  141.0710  158.4230  135.4250 C   0  0  0  0  0  0  0  0  0  0  0  0
  141.8230  158.3960  136.4340 O   0  0  0  0  0  0  0  0  0  0  0  0
  139.7090  158.3480  135.2320 C   0  0  0  0  0  0  0  0  0  0  0  0
  138.7190  158.2250  136.0000 O   0  0  0  0  0  0  0  0  0  0  0  0
  137.4203  160.2155  131.4538 H   0  0  0  0  0  0  0  0  0  0  0  0
  138.5344  160.6225  130.1047 H   0  0  0  0  0  0  0  0  0  0  0  0
  137.6593  159.0537  130.1047 H   0  0  0  0  0  0  0  0  0  0  0  0
  142.2380  159.0520  132.2470 H   0  0  0  0  0  0  0  0  0  0  0  0
  144.8281  159.5621  132.4604 H   0  0  0  0  0  0  0  0  0  0  0  0
  147.0451  158.4642  132.9156 H   0  0  0  0  0  0  0  0  0  0  0  0
  148.2360  156.1456  134.0895 H   0  0  0  0  0  0  0  0  0  0  0  0
  145.9610  153.2600  137.0870 H   0  0  0  0  0  0  0  0  0  0  0  0
  141.6932  154.3660  135.1917 H   0  0  0  0  0  0  0  0  0  0  0  0
  141.9645  155.3494  133.7132 H   0  0  0  0  0  0  0  0  0  0  0  0
  140.7228  154.0513  133.7132 H   0  0  0  0  0  0  0  0  0  0  0  0
  141.8199  151.4443  134.0966 H   0  0  0  0  0  0  0  0  0  0  0  0
  141.2058  152.2227  132.5987 H   0  0  0  0  0  0  0  0  0  0  0  0
  142.8110  151.4165  132.5987 H   0  0  0  0  0  0  0  0  0  0  0  0
  144.3192  154.5771  132.7428 H   0  0  0  0  0  0  0  0  0  0  0  0
  143.9207  153.1070  131.7906 H   0  0  0  0  0  0  0  0  0  0  0  0
  142.7976  154.5089  131.7906 H   0  0  0  0  0  0  0  0  0  0  0  0
  142.7865  156.2704  134.4599 H   0  0  0  0  0  0  0  0  0  0  0  0
  1  2  1  0
  2  3  2  0
  2  4  1  0
  4  5  1  0
  5  6  2  0
  6  7  1  0
  7  8  1  0
  8  9  2  0
  9 10  1  0
 10 11  2  0
 11 12  1  0
 12 13  2  0
 13 14  1  0
 14 15  1  0
 14 16  2  0
 13 17  1  0
 17 18  1  0
 18 19  2  0
 18 20  1  0
 20 21  1  0
 21 22  1  0
 21 23  1  0
 21 24  1  0
 17 25  1  0
 25 26  2  0
  6 27  1  0
 27 28  2  0
 27 29  1  0
 29 30  2  0
 29  5  1  0
 26  8  1  0
 25 11  1  0
  1 31  1  0
  1 32  1  0
  1 33  1  0
  7 34  1  0
  9 35  1  0
 10 36  1  0
 12 37  1  0
 15 38  1  0
 22 39  1  0
 22 40  1  0
 22 41  1  0
 23 42  1  0
 23 43  1  0
 23 44  1  0
 24 45  1  0
 24 46  1  0
 24 47  1  0
 26 48  1  0
M  CHG  2   4  -1  15  -1
M  END
>  <UniqueID>  (88) 
88

>  <SMILES>  (88) 
CC(=O)[N-]c1c(Nc2ccc3cc(C([NH-])=O)n(C(=O)OC(C)(C)C)c3c2)c(=O)c1=O

>  <Energy>  (88) 
79.02098551664683

>  <Genealogy>  (88) 
CC(=O)[N-]c1c(Nc2ccc3cc(C([NH-])=O)n(C(=O)OC(C)(C)C)c3c2)c(=O)c1=O (protonated)
CC(=O)[N-]c1c(Nc2ccc3cc(C([NH-])=O)n(C(=O)OC(C)(C)C)c3c2)c(=O)c1=O (3D coordinates assigned)
CC(=O)[N-]c1c(Nc2ccc3cc(C([NH-])=O)n(C(=O)OC(C)(C)C)c3c2)c(=O)c1=O (optimized conformer: 79.02098551664683 kcal/mol)

>  <smiles>  (88) 
CC(=O)Nc1c(Nc2ccc3cc(C(N)=O)n(C(=O)OC(C)(C)C)c3c2)c(=O)c1=O

>  <score_type>  (88) 
oracle

>  <origin>  (88) 
adg

>  <m_score__min__energy>  (88) 
-8.8000000000000007

>  <m_primary>  (88) 
energy

$$$$
88:0
     RDKit          3D

 40 41  0  0  0  0  0  0  0  0999 V2000
  149.3550  151.7510  133.9010 C   0  0  0  0  0  0  0  0  0  0  0  0
  148.8160  151.7640  132.4580 C   0  0  0  0  0  0  0  0  0  0  0  0
  149.9820  151.5190  131.4890 C   0  0  0  0  0  0  0  0  0  0  0  0
  147.7630  150.6570  132.2580 C   0  0  0  0  0  0  0  0  0  0  0  0
  148.2630  153.0480  132.1360 O   0  0  0  0  0  0  0  0  0  0  0  0
  148.8000  154.2980  132.4840 C   0  0  0  0  0  0  0  0  0  0  0  0
  150.0190  154.5530  132.3000 O   0  0  0  0  0  0  0  0  0  0  0  0
  147.9450  155.2920  133.0720 N   0  0  0  0  0  0  0  0  0  0  0  0
  146.8260  155.0930  133.8240 C   0  0  0  0  0  0  0  0  0  0  0  0
  146.3380  153.7820  134.3070 C   0  0  0  0  0  0  0  0  0  0  0  0
  145.9740  152.7530  133.3840 N   0  0  0  0  0  0  0  0  0  0  0  0
  146.2090  153.5700  135.5410 O   0  0  0  0  0  0  0  0  0  0  0  0
  146.2460  156.3140  134.1660 C   0  0  0  0  0  0  0  0  0  0  0  0
  147.0520  157.2740  133.5980 C   0  0  0  0  0  0  0  0  0  0  0  0
  146.9450  158.6610  133.6220 C   0  0  0  0  0  0  0  0  0  0  0  0
  147.9140  159.4080  132.9320 C   0  0  0  0  0  0  0  0  0  0  0  0
  148.9530  158.7600  132.2200 C   0  0  0  0  0  0  0  0  0  0  0  0
  149.9960  159.5710  131.5010 C   0  0  0  0  0  0  0  0  0  0  0  0
  149.3920  160.2790  130.3280 C   0  0  0  0  0  0  0  0  0  0  0  0
  149.9360  160.2400  129.2350 O   0  0  0  0  0  0  0  0  0  0  0  0
  149.0360  157.3500  132.2270 C   0  0  0  0  0  0  0  0  0  0  0  0
  148.0700  156.6320  132.9410 C   0  0  0  0  0  0  0  0  0  0  0  0
  148.5121  151.7713  134.6075 H   0  0  0  0  0  0  0  0  0  0  0  0
  149.9472  150.8383  134.0630 H   0  0  0  0  0  0  0  0  0  0  0  0
  149.9906  152.6341  134.0630 H   0  0  0  0  0  0  0  0  0  0  0  0
  150.9008  151.3259  132.0622 H   0  0  0  0  0  0  0  0  0  0  0  0
  149.7555  150.6488  130.8553 H   0  0  0  0  0  0  0  0  0  0  0  0
  150.1249  152.4067  130.8553 H   0  0  0  0  0  0  0  0  0  0  0  0
  147.4197  150.2960  133.2387 H   0  0  0  0  0  0  0  0  0  0  0  0
  146.9081  151.0613  131.6962 H   0  0  0  0  0  0  0  0  0  0  0  0
  148.2096  149.8233  131.6962 H   0  0  0  0  0  0  0  0  0  0  0  0
  145.5930  151.8460  133.7340 H   0  0  0  0  0  0  0  0  0  0  0  0
  146.1180  152.8700  132.3570 H   0  0  0  0  0  0  0  0  0  0  0  0
  145.3366  156.4757  134.7634 H   0  0  0  0  0  0  0  0  0  0  0  0
  146.1269  159.1573  134.1645 H   0  0  0  0  0  0  0  0  0  0  0  0
  147.8655  160.5069  132.9447 H   0  0  0  0  0  0  0  0  0  0  0  0
  150.4185  160.3135  132.1939 H   0  0  0  0  0  0  0  0  0  0  0  0
  150.7864  158.8959  131.1411 H   0  0  0  0  0  0  0  0  0  0  0  0
  148.4525  160.8377  130.4513 H   0  0  0  0  0  0  0  0  0  0  0  0
  149.8394  156.8296  131.6851 H   0  0  0  0  0  0  0  0  0  0  0  0
  1  2  1  0
  2  3  1  0
  2  4  1  0
  2  5  1  0
  5  6  1  0
  6  7  2  0
  6  8  1  0
  8  9  1  0
  9 10  1  0
 10 11  1  0
 10 12  2  0
  9 13  2  0
 13 14  1  0
 14 15  2  0
 15 16  1  0
 16 17  2  0
 17 18  1  0
 18 19  1  0
 19 20  2  0
 17 21  1  0
 21 22  2  0
 22  8  1  0
 22 14  1  0
  1 23  1  0
  1 24  1  0
  1 25  1  0
  3 26  1  0
  3 27  1  0
  3 28  1  0
  4 29  1  0
  4 30  1  0
  4 31  1  0
 11 32  1  0
 11 33  1  0
 13 34  1  0
 15 35  1  0
 16 36  1  0
 18 37  1  0
 18 38  1  0
 19 39  1  0
 21 40  1  0
M  END
>  <UniqueID>  (89) 
89

>  <SMILES>  (89) 
CC(C)(C)OC(=O)n1c(C(N)=O)cc2ccc(CC=O)cc21

>  <Energy>  (89) 
71.29641980870322

>  <Genealogy>  (89) 
CC(C)(C)OC(=O)n1c(C(N)=O)cc2ccc(CC=O)cc21 (3D coordinates assigned)
CC(C)(C)OC(=O)n1c(C(N)=O)cc2ccc(CC=O)cc21 (optimized conformer: 71.29641980870322 kcal/mol)

>  <smiles>  (89) 
CC(C)(C)OC(=O)n1c(C(N)=O)cc2ccc(CC=O)cc21

>  <score_type>  (89) 
oracle

>  <origin>  (89) 
adg

>  <m_score__min__energy>  (89) 
-7.0999999999999996

>  <m_primary>  (89) 
energy

$$$$
89:0
     RDKit          3D

 68 72  0  0  0  0  0  0  0  0999 V2000
  139.1010  146.1930  129.4510 C   0  0  0  0  0  0  0  0  0  0  0  0
  138.6170  147.1440  128.5300 O   0  0  0  0  0  0  0  0  0  0  0  0
  138.7330  148.4370  129.0850 C   0  0  0  0  0  0  0  0  0  0  0  0
  139.1320  148.3400  130.5570 C   0  0  0  0  0  0  0  0  0  0  0  0
  140.5250  148.6070  130.7280 O   0  0  0  0  0  0  0  0  0  0  0  0
  141.0830  149.6120  131.5370 C   0  0  0  0  0  0  0  0  0  0  0  0
  142.3370  149.4650  132.1970 C   0  0  0  0  0  0  0  0  0  0  0  0
  142.8610  150.5030  132.9890 C   0  0  0  0  0  0  0  0  0  0  0  0
  142.1140  151.6690  133.1000 C   0  0  0  0  0  0  0  0  0  0  0  0
  140.8990  151.8270  132.4650 C   0  0  0  0  0  0  0  0  0  0  0  0
  140.3600  150.8150  131.6750 C   0  0  0  0  0  0  0  0  0  0  0  0
  140.3640  153.0470  132.7070 N   0  0  0  0  0  0  0  0  0  0  0  0
  141.2690  153.6610  133.5030 C   0  0  0  0  0  0  0  0  0  0  0  0
  141.2350  154.9440  134.0280 C   0  0  0  0  0  0  0  0  0  0  0  0
  140.2520  155.6970  133.7880 O   0  0  0  0  0  0  0  0  0  0  0  0
  142.2960  155.3690  134.8040 N   0  0  0  0  0  0  0  0  0  0  0  0
  142.3260  156.7440  135.3410 C   0  0  0  0  0  0  0  0  0  0  0  0
  143.2750  157.5990  134.5410 C   0  0  0  0  0  0  0  0  0  0  0  0
  142.9030  158.9090  134.1440 C   0  0  0  0  0  0  0  0  0  0  0  0
  143.7880  159.7110  133.4020 C   0  0  0  0  0  0  0  0  0  0  0  0
  145.0380  159.1850  133.0880 C   0  0  0  0  0  0  0  0  0  0  0  0
  146.0810  159.7380  132.3800 C   0  0  0  0  0  0  0  0  0  0  0  0
  147.0870  158.7720  132.3880 C   0  0  0  0  0  0  0  0  0  0  0  0
  148.4330  158.9960  131.8210 C   0  0  0  0  0  0  0  0  0  0  0  0
  149.6010  158.8720  132.6310 N   0  0  0  0  0  0  0  0  0  0  0  0
  148.5510  159.3540  130.6190 O   0  0  0  0  0  0  0  0  0  0  0  0
  146.6760  157.6600  133.0630 N   0  0  0  0  0  0  0  0  0  0  0  0
  147.3860  156.4300  133.2620 C   0  0  0  0  0  0  0  0  0  0  0  0
  148.4900  156.4360  133.8710 O   0  0  0  0  0  0  0  0  0  0  0  0
  146.8460  155.2390  132.7530 O   0  0  0  0  0  0  0  0  0  0  0  0
  147.0960  153.9120  133.2370 C   0  0  0  0  0  0  0  0  0  0  0  0
  147.1350  153.9000  134.7770 C   0  0  0  0  0  0  0  0  0  0  0  0
  148.4720  153.4910  132.7010 C   0  0  0  0  0  0  0  0  0  0  0  0
  146.0310  152.9300  132.7120 C   0  0  0  0  0  0  0  0  0  0  0  0
  145.4220  157.9310  133.4860 C   0  0  0  0  0  0  0  0  0  0  0  0
  144.5510  157.0990  134.1990 C   0  0  0  0  0  0  0  0  0  0  0  0
  143.3650  154.5170  135.0430 C   0  0  0  0  0  0  0  0  0  0  0  0
  144.3410  154.9000  135.7450 O   0  0  0  0  0  0  0  0  0  0  0  0
  143.3820  153.2520  134.5190 N   0  0  0  0  0  0  0  0  0  0  0  0
  142.3370  152.8530  133.7600 C   0  0  0  0  0  0  0  0  0  0  0  0
  138.9195  146.5495  130.4757 H   0  0  0  0  0  0  0  0  0  0  0  0
  138.5801  145.2363  129.2980 H   0  0  0  0  0  0  0  0  0  0  0  0
  140.1810  146.0510  129.2980 H   0  0  0  0  0  0  0  0  0  0  0  0
  139.5009  149.0016  128.5359 H   0  0  0  0  0  0  0  0  0  0  0  0
  137.7641  148.9518  129.0067 H   0  0  0  0  0  0  0  0  0  0  0  0
  138.5514  149.0730  131.1363 H   0  0  0  0  0  0  0  0  0  0  0  0
  138.9247  147.3190  130.9100 H   0  0  0  0  0  0  0  0  0  0  0  0
  142.9026  148.5281  132.0860 H   0  0  0  0  0  0  0  0  0  0  0  0
  143.8280  150.3952  133.5022 H   0  0  0  0  0  0  0  0  0  0  0  0
  139.3922  150.9507  131.1700 H   0  0  0  0  0  0  0  0  0  0  0  0
  139.4610  153.4310  132.3480 H   0  0  0  0  0  0  0  0  0  0  0  0
  141.3159  157.1762  135.2878 H   0  0  0  0  0  0  0  0  0  0  0  0
  142.6684  156.7120  136.3859 H   0  0  0  0  0  0  0  0  0  0  0  0
  141.9128  159.3011  134.4192 H   0  0  0  0  0  0  0  0  0  0  0  0
  143.5014  160.7229  133.0796 H   0  0  0  0  0  0  0  0  0  0  0  0
  146.1140  160.7311  131.9081 H   0  0  0  0  0  0  0  0  0  0  0  0
  149.6380  158.1880  133.4180 H   0  0  0  0  0  0  0  0  0  0  0  0
  146.1535  154.2022  135.1710 H   0  0  0  0  0  0  0  0  0  0  0  0
  147.3754  152.8862  135.1298 H   0  0  0  0  0  0  0  0  0  0  0  0
  147.9040  154.6030  135.1298 H   0  0  0  0  0  0  0  0  0  0  0  0
  149.1467  153.2846  133.5449 H   0  0  0  0  0  0  0  0  0  0  0  0
  148.3647  152.5846  132.0871 H   0  0  0  0  0  0  0  0  0  0  0  0
  148.8903  154.3023  132.0871 H   0  0  0  0  0  0  0  0  0  0  0  0
  145.5178  152.4568  133.5621 H   0  0  0  0  0  0  0  0  0  0  0  0
  145.2986  153.4764  132.0996 H   0  0  0  0  0  0  0  0  0  0  0  0
  146.5163  152.1558  132.0996 H   0  0  0  0  0  0  0  0  0  0  0  0
  144.8528  156.0809  134.4859 H   0  0  0  0  0  0  0  0  0  0  0  0
  144.1890  152.6120  134.6950 H   0  0  0  0  0  0  0  0  0  0  0  0
  1  2  1  0
  2  3  1  0
  3  4  1  0
  4  5  1  0
  5  6  1  0
  6  7  2  0
  7  8  1  0
  8  9  2  0
  9 10  1  0
 10 11  2  0
 10 12  1  0
 12 13  1  0
 13 14  1  0
 14 15  2  0
 14 16  1  0
 16 17  1  0
 17 18  1  0
 18 19  2  0
 19 20  1  0
 20 21  2  0
 21 22  1  0
 22 23  2  0
 23 24  1  0
 24 25  1  0
 24 26  2  0
 23 27  1  0
 27 28  1  0
 28 29  2  0
 28 30  1  0
 30 31  1  0
 31 32  1  0
 31 33  1  0
 31 34  1  0
 27 35  1  0
 35 36  2  0
 16 37  1  0
 37 38  2  0
 37 39  1  0
 39 40  1  0
 11  6  1  0
 40 13  2  0
 40  9  1  0
 36 18  1  0
 35 21  1  0
  1 41  1  0
  1 42  1  0
  1 43  1  0
  3 44  1  0
  3 45  1  0
  4 46  1  0
  4 47  1  0
  7 48  1  0
  8 49  1  0
 11 50  1  0
 12 51  1  0
 17 52  1  0
 17 53  1  0
 19 54  1  0
 20 55  1  0
 22 56  1  0
 25 57  1  0
 32 58  1  0
 32 59  1  0
 32 60  1  0
 33 61  1  0
 33 62  1  0
 33 63  1  0
 34 64  1  0
 34 65  1  0
 34 66  1  0
 36 67  1  0
 39 68  1  0
M  CHG  1  25  -1
M  END
>  <UniqueID>  (90) 
90

>  <SMILES>  (90) 
COCCOc1ccc2c(c1)[nH]c1c(=O)n(Cc3ccc4cc(C([NH-])=O)n(C(=O)OC(C)(C)C)c4c3)c(=O)[nH]c12

>  <Energy>  (90) 
152.34670640688648

>  <Genealogy>  (90) 
COCCOc1ccc2c(c1)[nH]c1c(=O)n(Cc3ccc4cc(C([NH-])=O)n(C(=O)OC(C)(C)C)c4c3)c(=O)[nH]c12 (protonated)
COCCOc1ccc2c(c1)[nH]c1c(=O)n(Cc3ccc4cc(C([NH-])=O)n(C(=O)OC(C)(C)C)c4c3)c(=O)[nH]c12 (3D coordinates assigned)
COCCOc1ccc2c(c1)[nH]c1c(=O)n(Cc3ccc4cc(C([NH-])=O)n(C(=O)OC(C)(C)C)c4c3)c(=O)[nH]c12 (optimized conformer: 152.34670640688648 kcal/mol)

>  <smiles>  (90) 
COCCOc1ccc2c(c1)[nH]c1c(=O)n(Cc3ccc4cc(C(N)=O)n(C(=O)OC(C)(C)C)c4c3)c(=O)[nH]c12

>  <score_type>  (90) 
oracle

>  <origin>  (90) 
adg

>  <m_score__min__energy>  (90) 
-9.6500000000000004

>  <m_primary>  (90) 
energy

$$$$
90:0
     RDKit          3D

 46 49  0  0  0  0  0  0  0  0999 V2000
  149.6140  160.5280  128.8590 C   0  0  0  0  0  0  0  0  0  0  0  0
  149.1930  159.9400  130.1390 N   0  0  0  0  0  0  0  0  0  0  0  0
  150.3570  159.7580  131.0290 C   0  0  0  0  0  0  0  0  0  0  0  0
  149.9700  158.9530  132.2860 C   0  0  0  0  0  0  0  0  0  0  0  0
  148.4410  158.9600  132.5370 C   0  0  0  0  0  0  0  0  0  0  0  0
  147.8370  160.3440  132.2220 C   0  0  0  0  0  0  0  0  0  0  0  0
  148.1690  160.7970  130.7810 C   0  0  0  0  0  0  0  0  0  0  0  0
  148.0610  158.3970  133.9170 C   0  0  0  0  0  0  0  0  0  0  0  0
  147.4480  157.1680  133.2400 C   0  0  0  0  0  0  0  0  0  0  0  0
  145.9940  156.8850  133.5750 C   0  0  0  0  0  0  0  0  0  0  0  0
  145.4990  155.5630  133.7320 C   0  0  0  0  0  0  0  0  0  0  0  0
  144.1470  155.3310  134.0330 C   0  0  0  0  0  0  0  0  0  0  0  0
  143.3120  156.4330  134.1790 C   0  0  0  0  0  0  0  0  0  0  0  0
  141.9630  156.4920  134.4410 C   0  0  0  0  0  0  0  0  0  0  0  0
  141.6510  157.8490  134.4670 C   0  0  0  0  0  0  0  0  0  0  0  0
  140.3090  158.3660  134.8060 C   0  0  0  0  0  0  0  0  0  0  0  0
  139.8970  158.4980  136.1640 N   0  0  0  0  0  0  0  0  0  0  0  0
  139.4960  158.6450  133.8860 O   0  0  0  0  0  0  0  0  0  0  0  0
  142.7610  158.6000  134.2200 N   0  0  0  0  0  0  0  0  0  0  0  0
  142.8390  160.0270  134.0670 C   0  0  0  0  0  0  0  0  0  0  0  0
  141.8500  160.6750  133.6330 O   0  0  0  0  0  0  0  0  0  0  0  0
  143.9970  160.7080  134.4230 O   0  0  0  0  0  0  0  0  0  0  0  0
  143.7710  157.7170  134.0480 C   0  0  0  0  0  0  0  0  0  0  0  0
  145.1090  157.9770  133.7310 C   0  0  0  0  0  0  0  0  0  0  0  0
  147.7040  157.7850  131.8640 C   0  0  0  0  0  0  0  0  0  0  0  0
  150.2447  161.4088  129.0499 H   0  0  0  0  0  0  0  0  0  0  0  0
  150.1864  159.7847  128.2847 H   0  0  0  0  0  0  0  0  0  0  0  0
  148.7259  160.8304  128.2847 H   0  0  0  0  0  0  0  0  0  0  0  0
  151.1454  159.2179  130.4844 H   0  0  0  0  0  0  0  0  0  0  0  0
  150.7162  160.7489  131.3438 H   0  0  0  0  0  0  0  0  0  0  0  0
  150.3032  157.9126  132.1570 H   0  0  0  0  0  0  0  0  0  0  0  0
  150.4569  159.4245  133.1524 H   0  0  0  0  0  0  0  0  0  0  0  0
  146.7443  160.2907  132.3363 H   0  0  0  0  0  0  0  0  0  0  0  0
  148.2706  161.0750  132.9203 H   0  0  0  0  0  0  0  0  0  0  0  0
  147.2494  160.7594  130.1786 H   0  0  0  0  0  0  0  0  0  0  0  0
  148.5745  161.8180  130.8365 H   0  0  0  0  0  0  0  0  0  0  0  0
  148.9219  158.1720  134.5638 H   0  0  0  0  0  0  0  0  0  0  0  0
  147.4700  158.9992  134.6227 H   0  0  0  0  0  0  0  0  0  0  0  0
  147.8318  156.1639  133.4733 H   0  0  0  0  0  0  0  0  0  0  0  0
  146.1835  154.7097  133.6163 H   0  0  0  0  0  0  0  0  0  0  0  0
  143.7602  154.3079  134.1498 H   0  0  0  0  0  0  0  0  0  0  0  0
  141.2764  155.6468  134.5969 H   0  0  0  0  0  0  0  0  0  0  0  0
  139.4750  159.3880  136.5130 H   0  0  0  0  0  0  0  0  0  0  0  0
  145.4653  159.0101  133.6057 H   0  0  0  0  0  0  0  0  0  0  0  0
  148.3388  157.1724  131.2069 H   0  0  0  0  0  0  0  0  0  0  0  0
  146.8706  157.9710  131.1705 H   0  0  0  0  0  0  0  0  0  0  0  0
  1  2  1  0
  2  3  1  0
  3  4  1  0
  4  5  1  0
  5  6  1  0
  6  7  1  0
  5  8  1  0
  8  9  1  0
  9 10  1  0
 10 11  2  0
 11 12  1  0
 12 13  2  0
 13 14  1  0
 14 15  2  0
 15 16  1  0
 16 17  1  0
 16 18  2  0
 15 19  1  0
 19 20  1  0
 20 21  2  0
 20 22  1  0
 19 23  1  0
 23 24  2  0
  9 25  1  0
  7  2  1  0
 24 10  1  0
 25  5  1  0
 23 13  1  0
  1 26  1  0
  1 27  1  0
  1 28  1  0
  3 29  1  0
  3 30  1  0
  4 31  1  0
  4 32  1  0
  6 33  1  0
  6 34  1  0
  7 35  1  0
  7 36  1  0
  8 37  1  0
  8 38  1  0
  9 39  1  0
 11 40  1  0
 12 41  1  0
 14 42  1  0
 17 43  1  0
 24 44  1  0
 25 45  1  0
 25 46  1  0
M  CHG  2  17  -1  22  -1
M  END
>  <UniqueID>  (91) 
91

>  <SMILES>  (91) 
CN1CCC2(CC1)CC(c1ccc3cc(C([NH-])=O)n(C(=O)[O-])c3c1)C2

>  <Energy>  (91) 
158.39124069563053

>  <Genealogy>  (91) 
CN1CCC2(CC1)CC(c1ccc3cc(C([NH-])=O)n(C(=O)[O-])c3c1)C2 (protonated)
CN1CCC2(CC1)CC(c1ccc3cc(C([NH-])=O)n(C(=O)[O-])c3c1)C2 (3D coordinates assigned)
CN1CCC2(CC1)CC(c1ccc3cc(C([NH-])=O)n(C(=O)[O-])c3c1)C2 (nonaromatic ring conformer: 158.39124069563053 kcal/mol)

>  <smiles>  (91) 
CN1CCC2(CC1)CC(c1ccc3cc(C(N)=O)n(C(=O)O)c3c1)C2

>  <score_type>  (91) 
oracle

>  <origin>  (91) 
adg

>  <m_score__min__energy>  (91) 
-8.3900000000000006

>  <m_primary>  (91) 
energy

$$$$
91:0
     RDKit          3D

 55 58  0  0  0  0  0  0  0  0999 V2000
  142.2160  152.3510  134.2310 C   0  0  0  0  0  0  0  0  0  0  0  0
  143.2960  153.4110  133.9670 C   0  0  0  0  0  0  0  0  0  0  0  0
  143.2510  154.4570  135.0960 C   0  0  0  0  0  0  0  0  0  0  0  0
  143.0220  154.0730  132.6020 C   0  0  0  0  0  0  0  0  0  0  0  0
  144.5600  152.7320  133.9600 O   0  0  0  0  0  0  0  0  0  0  0  0
  145.4340  152.6170  132.8670 C   0  0  0  0  0  0  0  0  0  0  0  0
  145.1540  151.8720  131.8890 O   0  0  0  0  0  0  0  0  0  0  0  0
  146.6750  153.3430  132.8790 N   0  0  0  0  0  0  0  0  0  0  0  0
  147.9280  152.8410  132.6800 C   0  0  0  0  0  0  0  0  0  0  0  0
  148.2720  151.4040  132.5880 C   0  0  0  0  0  0  0  0  0  0  0  0
  147.4400  150.4990  131.8590 N   0  0  0  0  0  0  0  0  0  0  0  0
  149.3260  150.9710  133.1250 O   0  0  0  0  0  0  0  0  0  0  0  0
  148.8700  153.8680  132.6720 C   0  0  0  0  0  0  0  0  0  0  0  0
  148.1490  155.0240  132.8750 C   0  0  0  0  0  0  0  0  0  0  0  0
  148.5810  156.3450  132.9450 C   0  0  0  0  0  0  0  0  0  0  0  0
  147.6140  157.3470  133.1380 C   0  0  0  0  0  0  0  0  0  0  0  0
  146.2350  157.0160  133.2510 C   0  0  0  0  0  0  0  0  0  0  0  0
  145.2170  158.0710  133.4530 C   0  0  0  0  0  0  0  0  0  0  0  0
  145.5180  159.3860  133.5550 N   0  0  0  0  0  0  0  0  0  0  0  0
  144.4130  160.1590  133.7230 C   0  0  0  0  0  0  0  0  0  0  0  0
  143.2190  159.4570  133.7610 C   0  0  0  0  0  0  0  0  0  0  0  0
  141.6180  160.1530  133.9210 S   0  0  0  0  0  0  0  0  0  0  0  0
  141.6900  161.6110  133.5610 O   0  0  0  0  0  0  0  0  0  0  0  0
  140.6720  159.4340  133.0010 O   0  0  0  0  0  0  0  0  0  0  0  0
  141.0890  159.9670  135.5600 N   0  0  0  0  0  0  0  0  0  0  0  0
  141.1950  158.7880  136.3770 C   0  0  0  0  0  0  0  0  0  0  0  0
  141.6290  158.9480  137.7010 C   0  0  0  0  0  0  0  0  0  0  0  0
  141.7340  157.8470  138.5570 C   0  0  0  0  0  0  0  0  0  0  0  0
  141.4070  156.5680  138.0980 C   0  0  0  0  0  0  0  0  0  0  0  0
  141.5000  155.5020  138.9290 F   0  0  0  0  0  0  0  0  0  0  0  0
  140.9880  156.3920  136.7770 C   0  0  0  0  0  0  0  0  0  0  0  0
  140.8860  157.4890  135.9120 C   0  0  0  0  0  0  0  0  0  0  0  0
  140.5070  157.2610  134.6290 F   0  0  0  0  0  0  0  0  0  0  0  0
  143.5500  157.8250  133.5680 S   0  0  0  0  0  0  0  0  0  0  0  0
  145.8390  155.6600  133.1700 C   0  0  0  0  0  0  0  0  0  0  0  0
  146.8270  154.6830  132.9970 C   0  0  0  0  0  0  0  0  0  0  0  0
  142.0854  152.2228  135.3157 H   0  0  0  0  0  0  0  0  0  0  0  0
  141.2655  152.6765  133.7832 H   0  0  0  0  0  0  0  0  0  0  0  0
  142.5237  151.3946  133.7832 H   0  0  0  0  0  0  0  0  0  0  0  0
  143.2730  153.9464  136.0700 H   0  0  0  0  0  0  0  0  0  0  0  0
  144.1213  155.1246  135.0123 H   0  0  0  0  0  0  0  0  0  0  0  0
  142.3266  155.0474  135.0123 H   0  0  0  0  0  0  0  0  0  0  0  0
  142.6056  155.0789  132.7593 H   0  0  0  0  0  0  0  0  0  0  0  0
  143.9623  154.1497  132.0363 H   0  0  0  0  0  0  0  0  0  0  0  0
  142.3026  153.4627  132.0363 H   0  0  0  0  0  0  0  0  0  0  0  0
  146.5350  150.8110  131.4440 H   0  0  0  0  0  0  0  0  0  0  0  0
  147.7060  149.4940  131.7790 H   0  0  0  0  0  0  0  0  0  0  0  0
  149.9573  153.7753  132.5332 H   0  0  0  0  0  0  0  0  0  0  0  0
  149.6475  156.5977  132.8521 H   0  0  0  0  0  0  0  0  0  0  0  0
  147.9273  158.3995  133.2024 H   0  0  0  0  0  0  0  0  0  0  0  0
  144.4625  161.2535  133.8209 H   0  0  0  0  0  0  0  0  0  0  0  0
  141.8898  159.9508  138.0704 H   0  0  0  0  0  0  0  0  0  0  0  0
  142.0746  157.9879  139.5934 H   0  0  0  0  0  0  0  0  0  0  0  0
  140.7364  155.3847  136.4135 H   0  0  0  0  0  0  0  0  0  0  0  0
  144.7778  155.3794  133.2414 H   0  0  0  0  0  0  0  0  0  0  0  0
  1  2  1  0
  2  3  1  0
  2  4  1  0
  2  5  1  0
  5  6  1  0
  6  7  2  0
  6  8  1  0
  8  9  1  0
  9 10  1  0
 10 11  1  0
 10 12  2  0
  9 13  2  0
 13 14  1  0
 14 15  2  0
 15 16  1  0
 16 17  2  0
 17 18  1  0
 18 19  2  0
 19 20  1  0
 20 21  2  0
 21 22  1  0
 22 23  2  0
 22 24  2  0
 22 25  1  0
 25 26  1  0
 26 27  2  0
 27 28  1  0
 28 29  2  0
 29 30  1  0
 29 31  1  0
 31 32  2  0
 32 33  1  0
 21 34  1  0
 17 35  1  0
 35 36  2  0
 36  8  1  0
 36 14  1  0
 34 18  1  0
 32 26  1  0
  1 37  1  0
  1 38  1  0
  1 39  1  0
  3 40  1  0
  3 41  1  0
  3 42  1  0
  4 43  1  0
  4 44  1  0
  4 45  1  0
 11 46  1  0
 11 47  1  0
 13 48  1  0
 15 49  1  0
 16 50  1  0
 20 51  1  0
 27 52  1  0
 28 53  1  0
 31 54  1  0
 35 55  1  0
M  CHG  1  25  -1
M  END
>  <UniqueID>  (92) 
92

>  <SMILES>  (92) 
CC(C)(C)OC(=O)n1c(C(N)=O)cc2ccc(-c3ncc(S(=O)(=O)[N-]c4ccc(F)cc4F)s3)cc21

>  <Energy>  (92) 
130.76285698685146

>  <Genealogy>  (92) 
CC(C)(C)OC(=O)n1c(C(N)=O)cc2ccc(-c3ncc(S(=O)(=O)[N-]c4ccc(F)cc4F)s3)cc21 (protonated)
CC(C)(C)OC(=O)n1c(C(N)=O)cc2ccc(-c3ncc(S(=O)(=O)[N-]c4ccc(F)cc4F)s3)cc21 (3D coordinates assigned)
CC(C)(C)OC(=O)n1c(C(N)=O)cc2ccc(-c3ncc(S(=O)(=O)[N-]c4ccc(F)cc4F)s3)cc21 (optimized conformer: 130.76285698685146 kcal/mol)

>  <smiles>  (92) 
CC(C)(C)OC(=O)n1c(C(N)=O)cc2ccc(-c3ncc(S(=O)(=O)Nc4ccc(F)cc4F)s3)cc21

>  <score_type>  (92) 
oracle

>  <origin>  (92) 
adg

>  <m_score__min__energy>  (92) 
-10.85

>  <m_primary>  (92) 
energy

$$$$
92:0
     RDKit          3D

 47 48  0  0  0  0  0  0  0  0999 V2000
  142.8180  153.8650  133.0760 C   0  0  0  0  0  0  0  0  0  0  0  0
  144.2490  154.2490  132.6570 C   0  0  0  0  0  0  0  0  0  0  0  0
  145.2010  153.1050  133.0360 C   0  0  0  0  0  0  0  0  0  0  0  0
  144.3270  154.4820  131.1360 C   0  0  0  0  0  0  0  0  0  0  0  0
  144.6870  155.4140  133.3690 O   0  0  0  0  0  0  0  0  0  0  0  0
  145.7450  156.2630  133.0090 C   0  0  0  0  0  0  0  0  0  0  0  0
  146.8020  155.8000  132.5020 O   0  0  0  0  0  0  0  0  0  0  0  0
  145.6170  157.6780  133.2180 N   0  0  0  0  0  0  0  0  0  0  0  0
  146.5840  158.6280  133.0860 C   0  0  0  0  0  0  0  0  0  0  0  0
  148.0190  158.3750  132.8430 C   0  0  0  0  0  0  0  0  0  0  0  0
  148.4570  157.6160  131.7160 N   0  0  0  0  0  0  0  0  0  0  0  0
  148.8690  158.7910  133.6750 O   0  0  0  0  0  0  0  0  0  0  0  0
  146.0480  159.9010  133.2600 C   0  0  0  0  0  0  0  0  0  0  0  0
  144.7110  159.6970  133.5220 C   0  0  0  0  0  0  0  0  0  0  0  0
  143.7010  160.6180  133.7610 C   0  0  0  0  0  0  0  0  0  0  0  0
  142.4000  160.1310  133.9640 C   0  0  0  0  0  0  0  0  0  0  0  0
  142.1120  158.7350  133.9170 C   0  0  0  0  0  0  0  0  0  0  0  0
  140.6630  158.2530  134.1360 C   0  0  0  0  0  0  0  0  0  0  0  0
  140.5910  156.7260  133.9110 C   0  0  0  0  0  0  0  0  0  0  0  0
  140.1330  158.5430  135.5610 C   0  0  0  0  0  0  0  0  0  0  0  0
  139.7270  158.9630  133.1360 C   0  0  0  0  0  0  0  0  0  0  0  0
  143.1850  157.8360  133.6610 C   0  0  0  0  0  0  0  0  0  0  0  0
  144.4760  158.3500  133.4890 C   0  0  0  0  0  0  0  0  0  0  0  0
  142.7498  153.8467  134.1737 H   0  0  0  0  0  0  0  0  0  0  0  0
  142.1082  154.6044  132.6768 H   0  0  0  0  0  0  0  0  0  0  0  0
  142.5737  152.8695  132.6768 H   0  0  0  0  0  0  0  0  0  0  0  0
  145.2646  153.0286  134.1315 H   0  0  0  0  0  0  0  0  0  0  0  0
  144.8198  152.1590  132.6240 H   0  0  0  0  0  0  0  0  0  0  0  0
  146.2005  153.3080  132.6240 H   0  0  0  0  0  0  0  0  0  0  0  0
  144.6706  155.5083  130.9394 H   0  0  0  0  0  0  0  0  0  0  0  0
  145.0347  153.7669  130.6913 H   0  0  0  0  0  0  0  0  0  0  0  0
  143.3314  154.3371  130.6913 H   0  0  0  0  0  0  0  0  0  0  0  0
  149.4770  157.4850  131.5380 H   0  0  0  0  0  0  0  0  0  0  0  0
  147.7750  157.1100  131.1070 H   0  0  0  0  0  0  0  0  0  0  0  0
  146.5781  160.8630  133.2010 H   0  0  0  0  0  0  0  0  0  0  0  0
  143.9133  161.6969  133.7905 H   0  0  0  0  0  0  0  0  0  0  0  0
  141.5847  160.8419  134.1637 H   0  0  0  0  0  0  0  0  0  0  0  0
  140.5668  156.2128  134.8836 H   0  0  0  0  0  0  0  0  0  0  0  0
  139.6803  156.4814  133.3446 H   0  0  0  0  0  0  0  0  0  0  0  0
  141.4746  156.3968  133.3446 H   0  0  0  0  0  0  0  0  0  0  0  0
  140.8451  158.1534  136.3034 H   0  0  0  0  0  0  0  0  0  0  0  0
  140.0197  159.6288  135.6962 H   0  0  0  0  0  0  0  0  0  0  0  0
  139.1575  158.0529  135.6962 H   0  0  0  0  0  0  0  0  0  0  0  0
  138.9690  159.5380  133.6881 H   0  0  0  0  0  0  0  0  0  0  0  0
  140.3151  159.6442  132.5035 H   0  0  0  0  0  0  0  0  0  0  0  0
  139.2295  158.2130  132.5035 H   0  0  0  0  0  0  0  0  0  0  0  0
  143.0028  156.7530  133.5991 H   0  0  0  0  0  0  0  0  0  0  0  0
  1  2  1  0
  2  3  1  0
  2  4  1  0
  2  5  1  0
  5  6  1  0
  6  7  2  0
  6  8  1  0
  8  9  1  0
  9 10  1  0
 10 11  1  0
 10 12  2  0
  9 13  2  0
 13 14  1  0
 14 15  2  0
 15 16  1  0
 16 17  2  0
 17 18  1  0
 18 19  1  0
 18 20  1  0
 18 21  1  0
 17 22  1  0
 22 23  2  0
 23  8  1  0
 23 14  1  0
  1 24  1  0
  1 25  1  0
  1 26  1  0
  3 27  1  0
  3 28  1  0
  3 29  1  0
  4 30  1  0
  4 31  1  0
  4 32  1  0
 11 33  1  0
 11 34  1  0
 13 35  1  0
 15 36  1  0
 16 37  1  0
 19 38  1  0
 19 39  1  0
 19 40  1  0
 20 41  1  0
 20 42  1  0
 20 43  1  0
 21 44  1  0
 21 45  1  0
 21 46  1  0
 22 47  1  0
M  END
>  <UniqueID>  (93) 
93

>  <SMILES>  (93) 
CC(C)(C)OC(=O)n1c(C(N)=O)cc2ccc(C(C)(C)C)cc21

>  <Energy>  (93) 
81.51723848567025

>  <Genealogy>  (93) 
CC(C)(C)OC(=O)n1c(C(N)=O)cc2ccc(C(C)(C)C)cc21 (3D coordinates assigned)
CC(C)(C)OC(=O)n1c(C(N)=O)cc2ccc(C(C)(C)C)cc21 (optimized conformer: 81.51723848567025 kcal/mol)

>  <smiles>  (93) 
CC(C)(C)OC(=O)n1c(C(N)=O)cc2ccc(C(C)(C)C)cc21

>  <score_type>  (93) 
oracle

>  <origin>  (93) 
adg

>  <m_score__min__energy>  (93) 
-7.4299999999999997

>  <m_primary>  (93) 
energy

$$$$
