0:0
     RDKit          3D

 41 42  0  0  0  0  0  0  0  0999 V2000
  141.5620  155.6920  138.7410 C   0  0  0  0  0  0  0  0  0  0  0  0
  141.2840  156.7360  137.7020 C   0  0  0  0  0  0  0  0  0  0  0  0
  141.5510  158.1000  137.9760 C   0  0  0  0  0  0  0  0  0  0  0  0
  141.3380  159.0830  136.9930 C   0  0  0  0  0  0  0  0  0  0  0  0
  140.8640  158.6710  135.7520 C   0  0  0  0  0  0  0  0  0  0  0  0
  140.6020  159.4030  134.6140 C   0  0  0  0  0  0  0  0  0  0  0  0
  140.1780  158.4720  133.6670 C   0  0  0  0  0  0  0  0  0  0  0  0
  139.7480  158.8290  132.2990 C   0  0  0  0  0  0  0  0  0  0  0  0
  138.4140  158.5510  131.8780 N   0  0  0  0  0  0  0  0  0  0  0  0
  140.5510  159.3610  131.4880 O   0  0  0  0  0  0  0  0  0  0  0  0
  140.1750  157.2190  134.1990 N   0  0  0  0  0  0  0  0  0  0  0  0
  139.8560  155.9860  133.5340 C   0  0  0  0  0  0  0  0  0  0  0  0
  138.7300  155.8510  132.9860 O   0  0  0  0  0  0  0  0  0  0  0  0
  140.8280  154.8780  133.5010 C   0  0  0  0  0  0  0  0  0  0  0  0
  141.9790  155.0480  133.9860 O   0  0  0  0  0  0  0  0  0  0  0  0
  140.4690  153.6100  132.9310 N   0  0  0  0  0  0  0  0  0  0  0  0
  141.3790  152.4670  132.9290 C   0  0  0  0  0  0  0  0  0  0  0  0
  140.6900  151.2410  132.3900 C   0  0  0  0  0  0  0  0  0  0  0  0
  139.4400  151.2840  132.2220 O   0  0  0  0  0  0  0  0  0  0  0  0
  141.4180  150.0440  132.0390 N   0  0  0  0  0  0  0  0  0  0  0  0
  140.6880  148.9140  131.4550 C   0  0  0  0  0  0  0  0  0  0  0  0
  142.8640  149.9440  132.2660 C   0  0  0  0  0  0  0  0  0  0  0  0
  140.6010  157.3560  135.4720 C   0  0  0  0  0  0  0  0  0  0  0  0
  140.8200  156.3540  136.4240 C   0  0  0  0  0  0  0  0  0  0  0  0
  141.4450  156.1313  139.7427 H   0  0  0  0  0  0  0  0  0  0  0  0
  140.8546  154.8582  138.6214 H   0  0  0  0  0  0  0  0  0  0  0  0
  142.5904  155.3204  138.6214 H   0  0  0  0  0  0  0  0  0  0  0  0
  141.9284  158.3930  138.9668 H   0  0  0  0  0  0  0  0  0  0  0  0
  141.5400  160.1445  137.1992 H   0  0  0  0  0  0  0  0  0  0  0  0
  140.7054  160.4901  134.4813 H   0  0  0  0  0  0  0  0  0  0  0  0
  137.9040  157.7120  132.2300 H   0  0  0  0  0  0  0  0  0  0  0  0
  139.5430  153.5030  132.4600 H   0  0  0  0  0  0  0  0  0  0  0  0
  142.2495  152.6992  132.2979 H   0  0  0  0  0  0  0  0  0  0  0  0
  141.6999  152.2677  133.9621 H   0  0  0  0  0  0  0  0  0  0  0  0
  140.2814  148.2846  132.2603 H   0  0  0  0  0  0  0  0  0  0  0  0
  139.8631  149.2923  130.8333 H   0  0  0  0  0  0  0  0  0  0  0  0
  141.3720  148.3176  130.8333 H   0  0  0  0  0  0  0  0  0  0  0  0
  143.0653  149.9301  133.3473 H   0  0  0  0  0  0  0  0  0  0  0  0
  143.2435  149.0175  131.8104 H   0  0  0  0  0  0  0  0  0  0  0  0
  143.3674  150.8095  131.8104 H   0  0  0  0  0  0  0  0  0  0  0  0
  140.6356  155.2966  136.1832 H   0  0  0  0  0  0  0  0  0  0  0  0
  1  2  1  0
  2  3  2  0
  3  4  1  0
  4  5  2  0
  5  6  1  0
  6  7  2  0
  7  8  1  0
  8  9  1  0
  8 10  2  0
  7 11  1  0
 11 12  1  0
 12 13  2  0
 12 14  1  0
 14 15  2  0
 14 16  1  0
 16 17  1  0
 17 18  1  0
 18 19  2  0
 18 20  1  0
 20 21  1  0
 20 22  1  0
 11 23  1  0
 23 24  2  0
 24  2  1  0
 23  5  1  0
  1 25  1  0
  1 26  1  0
  1 27  1  0
  3 28  1  0
  4 29  1  0
  6 30  1  0
  9 31  1  0
 16 32  1  0
 17 33  1  0
 17 34  1  0
 21 35  1  0
 21 36  1  0
 21 37  1  0
 22 38  1  0
 22 39  1  0
 22 40  1  0
 24 41  1  0
M  CHG  1   9  -1
M  END
>  <UniqueID>  (1) 
1

>  <SMILES>  (1) 
Cc1ccc2cc(C([NH-])=O)n(C(=O)C(=O)NCC(=O)N(C)C)c2c1

>  <Energy>  (1) 
73.82581057600017

>  <Genealogy>  (1) 
Cc1ccc2cc(C([NH-])=O)n(C(=O)C(=O)NCC(=O)N(C)C)c2c1 (protonated)
Cc1ccc2cc(C([NH-])=O)n(C(=O)C(=O)NCC(=O)N(C)C)c2c1 (3D coordinates assigned)
Cc1ccc2cc(C([NH-])=O)n(C(=O)C(=O)NCC(=O)N(C)C)c2c1 (optimized conformer: 73.82581057600017 kcal/mol)

>  <smiles>  (1) 
Cc1ccc2cc(C(N)=O)n(C(=O)C(=O)NCC(=O)N(C)C)c2c1

>  <score_type>  (1) 
oracle

>  <origin>  (1) 
adg

>  <m_score__min__energy>  (1) 
-7.0300000000000002

>  <m_primary>  (1) 
energy

$$$$
1:0
     RDKit          3D

 49 50  0  0  0  0  0  0  0  0999 V2000
  146.4410  153.3550  132.9990 C   0  0  0  0  0  0  0  0  0  0  0  0
  147.2320  154.2050  133.8960 N   0  0  0  0  0  0  0  0  0  0  0  0
  148.1340  153.5570  134.8620 C   0  0  0  0  0  0  0  0  0  0  0  0
  147.7100  153.8490  136.2690 C   0  0  0  0  0  0  0  0  0  0  0  0
  146.7160  153.2600  136.7700 O   0  0  0  0  0  0  0  0  0  0  0  0
  148.4380  154.7440  137.0430 O   0  0  0  0  0  0  0  0  0  0  0  0
  147.0970  155.6480  133.8450 C   0  0  0  0  0  0  0  0  0  0  0  0
  148.2460  156.4800  133.7330 C   0  0  0  0  0  0  0  0  0  0  0  0
  148.1260  157.8790  133.6620 C   0  0  0  0  0  0  0  0  0  0  0  0
  146.8500  158.4280  133.7120 C   0  0  0  0  0  0  0  0  0  0  0  0
  146.4460  159.7410  133.6270 C   0  0  0  0  0  0  0  0  0  0  0  0
  145.0570  159.7050  133.7110 C   0  0  0  0  0  0  0  0  0  0  0  0
  144.2100  160.9160  133.7340 C   0  0  0  0  0  0  0  0  0  0  0  0
  142.8300  160.8540  133.3810 N   0  0  0  0  0  0  0  0  0  0  0  0
  144.7000  162.0120  134.1170 O   0  0  0  0  0  0  0  0  0  0  0  0
  144.6200  158.4210  133.8370 N   0  0  0  0  0  0  0  0  0  0  0  0
  143.2640  157.9490  133.8540 C   0  0  0  0  0  0  0  0  0  0  0  0
  142.6150  157.8670  132.7750 O   0  0  0  0  0  0  0  0  0  0  0  0
  142.6600  157.6110  135.0710 O   0  0  0  0  0  0  0  0  0  0  0  0
  142.1030  158.5780  135.9590 C   0  0  0  0  0  0  0  0  0  0  0  0
  141.0280  159.3990  135.2400 C   0  0  0  0  0  0  0  0  0  0  0  0
  139.7280  158.3570  134.5700 S   0  0  0  0  0  0  0  0  0  0  0  0
  140.2570  156.9680  134.3420 O   0  0  0  0  0  0  0  0  0  0  0  0
  138.6190  158.2760  135.5810 O   0  0  0  0  0  0  0  0  0  0  0  0
  139.0860  158.9730  133.0640 N   0  0  0  0  0  0  0  0  0  0  0  0
  139.0710  157.9150  132.0470 C   0  0  0  0  0  0  0  0  0  0  0  0
  139.8780  160.1190  132.6020 C   0  0  0  0  0  0  0  0  0  0  0  0
  145.7300  157.6520  133.8380 C   0  0  0  0  0  0  0  0  0  0  0  0
  145.8170  156.2570  133.8900 C   0  0  0  0  0  0  0  0  0  0  0  0
  145.8114  152.6784  133.5955 H   0  0  0  0  0  0  0  0  0  0  0  0
  145.8018  153.9865  132.3645 H   0  0  0  0  0  0  0  0  0  0  0  0
  147.1168  152.7628  132.3645 H   0  0  0  0  0  0  0  0  0  0  0  0
  148.1152  152.4694  134.6986 H   0  0  0  0  0  0  0  0  0  0  0  0
  149.1502  153.9507  134.7125 H   0  0  0  0  0  0  0  0  0  0  0  0
  149.2451  156.0208  133.7014 H   0  0  0  0  0  0  0  0  0  0  0  0
  149.0152  158.5199  133.5697 H   0  0  0  0  0  0  0  0  0  0  0  0
  147.0848  160.6296  133.5163 H   0  0  0  0  0  0  0  0  0  0  0  0
  142.4560  160.0630  132.8110 H   0  0  0  0  0  0  0  0  0  0  0  0
  141.6518  158.0633  136.8201 H   0  0  0  0  0  0  0  0  0  0  0  0
  142.9013  159.2531  136.3012 H   0  0  0  0  0  0  0  0  0  0  0  0
  140.5835  160.1071  135.9549 H   0  0  0  0  0  0  0  0  0  0  0  0
  141.5061  159.9290  134.4030 H   0  0  0  0  0  0  0  0  0  0  0  0
  139.0571  156.9321  132.5406 H   0  0  0  0  0  0  0  0  0  0  0  0
  138.1743  158.0227  131.4191 H   0  0  0  0  0  0  0  0  0  0  0  0
  139.9704  157.9972  131.4191 H   0  0  0  0  0  0  0  0  0  0  0  0
  140.2615  160.6739  133.4710 H   0  0  0  0  0  0  0  0  0  0  0  0
  140.7219  159.7604  131.9944 H   0  0  0  0  0  0  0  0  0  0  0  0
  139.2442  160.7817  131.9944 H   0  0  0  0  0  0  0  0  0  0  0  0
  144.9077  155.6425  133.9646 H   0  0  0  0  0  0  0  0  0  0  0  0
  1  2  1  0
  2  3  1  0
  3  4  1  0
  4  5  2  0
  4  6  1  0
  2  7  1  0
  7  8  2  0
  8  9  1  0
  9 10  2  0
 10 11  1  0
 11 12  2  0
 12 13  1  0
 13 14  1  0
 13 15  2  0
 12 16  1  0
 16 17  1  0
 17 18  2  0
 17 19  1  0
 19 20  1  0
 20 21  1  0
 21 22  1  0
 22 23  2  0
 22 24  2  0
 22 25  1  0
 25 26  1  0
 25 27  1  0
 16 28  1  0
 28 29  2  0
 29  7  1  0
 28 10  1  0
  1 30  1  0
  1 31  1  0
  1 32  1  0
  3 33  1  0
  3 34  1  0
  8 35  1  0
  9 36  1  0
 11 37  1  0
 14 38  1  0
 20 39  1  0
 20 40  1  0
 21 41  1  0
 21 42  1  0
 26 43  1  0
 26 44  1  0
 26 45  1  0
 27 46  1  0
 27 47  1  0
 27 48  1  0
 29 49  1  0
M  CHG  2   6  -1  14  -1
M  END
>  <UniqueID>  (2) 
2

>  <SMILES>  (2) 
CN(CC(=O)[O-])c1ccc2cc(C([NH-])=O)n(C(=O)OCCS(=O)(=O)N(C)C)c2c1

>  <Energy>  (2) 
80.23228485568079

>  <Genealogy>  (2) 
CN(CC(=O)[O-])c1ccc2cc(C([NH-])=O)n(C(=O)OCCS(=O)(=O)N(C)C)c2c1 (protonated)
CN(CC(=O)[O-])c1ccc2cc(C([NH-])=O)n(C(=O)OCCS(=O)(=O)N(C)C)c2c1 (3D coordinates assigned)
CN(CC(=O)[O-])c1ccc2cc(C([NH-])=O)n(C(=O)OCCS(=O)(=O)N(C)C)c2c1 (optimized conformer: 80.23228485568079 kcal/mol)

>  <smiles>  (2) 
CN(CC(=O)O)c1ccc2cc(C(N)=O)n(C(=O)OCCS(=O)(=O)N(C)C)c2c1

>  <score_type>  (2) 
oracle

>  <origin>  (2) 
adg

>  <m_score__min__energy>  (2) 
-7.5499999999999998

>  <m_primary>  (2) 
energy

$$$$
2:0
     RDKit          3D

 41 43  0  0  0  0  0  0  0  0999 V2000
  149.2790  159.0780  130.0060 C   0  0  0  0  0  0  0  0  0  0  0  0
  148.8660  159.9510  131.1120 N   0  0  0  0  0  0  0  0  0  0  0  0
  148.8450  161.4050  130.9310 C   0  0  0  0  0  0  0  0  0  0  0  0
  148.6320  159.4040  132.4250 C   0  0  0  0  0  0  0  0  0  0  0  0
  148.8930  160.1020  133.4440 O   0  0  0  0  0  0  0  0  0  0  0  0
  148.1000  158.0390  132.6150 C   0  0  0  0  0  0  0  0  0  0  0  0
  148.9740  156.9420  132.6280 C   0  0  0  0  0  0  0  0  0  0  0  0
  148.4790  155.6490  132.8150 C   0  0  0  0  0  0  0  0  0  0  0  0
  147.1120  155.4410  133.0050 C   0  0  0  0  0  0  0  0  0  0  0  0
  146.2210  156.5290  133.0210 C   0  0  0  0  0  0  0  0  0  0  0  0
  144.7690  156.3110  133.2400 C   0  0  0  0  0  0  0  0  0  0  0  0
  144.1970  155.0290  133.0300 C   0  0  0  0  0  0  0  0  0  0  0  0
  142.8260  154.8090  133.2430 C   0  0  0  0  0  0  0  0  0  0  0  0
  142.0490  155.8860  133.6580 C   0  0  0  0  0  0  0  0  0  0  0  0
  140.7090  155.9440  133.9610 C   0  0  0  0  0  0  0  0  0  0  0  0
  140.4700  157.2650  134.3300 C   0  0  0  0  0  0  0  0  0  0  0  0
  139.1260  157.7880  134.6530 C   0  0  0  0  0  0  0  0  0  0  0  0
  138.8090  158.2310  135.9690 N   0  0  0  0  0  0  0  0  0  0  0  0
  138.2630  157.8920  133.7410 O   0  0  0  0  0  0  0  0  0  0  0  0
  141.6200  157.9950  134.2670 N   0  0  0  0  0  0  0  0  0  0  0  0
  141.8140  159.3640  134.6560 C   0  0  0  0  0  0  0  0  0  0  0  0
  142.5290  160.1290  133.9570 O   0  0  0  0  0  0  0  0  0  0  0  0
  141.2350  159.8510  135.8210 O   0  0  0  0  0  0  0  0  0  0  0  0
  142.5770  157.1350  133.8500 C   0  0  0  0  0  0  0  0  0  0  0  0
  143.9420  157.3790  133.6640 C   0  0  0  0  0  0  0  0  0  0  0  0
  146.7280  157.8280  132.8310 C   0  0  0  0  0  0  0  0  0  0  0  0
  149.7162  158.1539  130.4119 H   0  0  0  0  0  0  0  0  0  0  0  0
  148.4032  158.8290  129.3887 H   0  0  0  0  0  0  0  0  0  0  0  0
  150.0270  159.5972  129.3887 H   0  0  0  0  0  0  0  0  0  0  0  0
  148.8379  161.8969  131.9149 H   0  0  0  0  0  0  0  0  0  0  0  0
  149.7387  161.7177  130.3711 H   0  0  0  0  0  0  0  0  0  0  0  0
  147.9426  161.6918  130.3711 H   0  0  0  0  0  0  0  0  0  0  0  0
  150.0538  157.1004  132.4904 H   0  0  0  0  0  0  0  0  0  0  0  0
  149.1688  154.7922  132.8125 H   0  0  0  0  0  0  0  0  0  0  0  0
  146.7289  154.4191  133.1432 H   0  0  0  0  0  0  0  0  0  0  0  0
  144.8352  154.1975  132.6963 H   0  0  0  0  0  0  0  0  0  0  0  0
  142.3803  153.8156  133.0865 H   0  0  0  0  0  0  0  0  0  0  0  0
  139.9803  155.1210  133.9204 H   0  0  0  0  0  0  0  0  0  0  0  0
  139.2660  159.0780  136.3750 H   0  0  0  0  0  0  0  0  0  0  0  0
  144.3636  158.3791  133.8433 H   0  0  0  0  0  0  0  0  0  0  0  0
  146.0422  158.6878  132.8518 H   0  0  0  0  0  0  0  0  0  0  0  0
  1  2  1  0
  2  3  1  0
  2  4  1  0
  4  5  2  0
  4  6  1  0
  6  7  2  0
  7  8  1  0
  8  9  2  0
  9 10  1  0
 10 11  1  0
 11 12  2  0
 12 13  1  0
 13 14  2  0
 14 15  1  0
 15 16  2  0
 16 17  1  0
 17 18  1  0
 17 19  2  0
 16 20  1  0
 20 21  1  0
 21 22  2  0
 21 23  1  0
 20 24  1  0
 24 25  2  0
 10 26  2  0
 26  6  1  0
 25 11  1  0
 24 14  1  0
  1 27  1  0
  1 28  1  0
  1 29  1  0
  3 30  1  0
  3 31  1  0
  3 32  1  0
  7 33  1  0
  8 34  1  0
  9 35  1  0
 12 36  1  0
 13 37  1  0
 15 38  1  0
 18 39  1  0
 25 40  1  0
 26 41  1  0
M  CHG  2  18  -1  23  -1
M  END
>  <UniqueID>  (3) 
3

>  <SMILES>  (3) 
CN(C)C(=O)c1cccc(-c2ccc3cc(C([NH-])=O)n(C(=O)[O-])c3c2)c1

>  <Energy>  (3) 
91.6410508184205

>  <Genealogy>  (3) 
CN(C)C(=O)c1cccc(-c2ccc3cc(C([NH-])=O)n(C(=O)[O-])c3c2)c1 (protonated)
CN(C)C(=O)c1cccc(-c2ccc3cc(C([NH-])=O)n(C(=O)[O-])c3c2)c1 (3D coordinates assigned)
CN(C)C(=O)c1cccc(-c2ccc3cc(C([NH-])=O)n(C(=O)[O-])c3c2)c1 (optimized conformer: 91.6410508184205 kcal/mol)

>  <smiles>  (3) 
CN(C)C(=O)c1cccc(-c2ccc3cc(C(N)=O)n(C(=O)O)c3c2)c1

>  <score_type>  (3) 
oracle

>  <origin>  (3) 
adg

>  <m_score__min__energy>  (3) 
-8.2200000000000006

>  <m_primary>  (3) 
energy

$$$$
3:0
     RDKit          3D

 40 41  0  0  0  0  0  0  0  0999 V2000
  139.9620  159.2280  131.2360 C   0  0  0  0  0  0  0  0  0  0  0  0
  139.5940  158.6410  132.3390 C   0  0  0  0  0  0  0  0  0  0  0  0
  138.4030  157.8630  132.2050 O   0  0  0  0  0  0  0  0  0  0  0  0
  140.2000  158.6650  133.6320 C   0  0  0  0  0  0  0  0  0  0  0  0
  139.4360  158.3710  134.6320 O   0  0  0  0  0  0  0  0  0  0  0  0
  141.5340  158.9690  133.9770 N   0  0  0  0  0  0  0  0  0  0  0  0
  142.2870  160.1050  133.4820 C   0  0  0  0  0  0  0  0  0  0  0  0
  142.2620  158.0470  134.9360 C   0  0  0  0  0  0  0  0  0  0  0  0
  141.7550  156.6920  134.7430 C   0  0  0  0  0  0  0  0  0  0  0  0
  140.6900  156.4550  135.4430 O   0  0  0  0  0  0  0  0  0  0  0  0
  142.2340  155.6500  133.9430 N   0  0  0  0  0  0  0  0  0  0  0  0
  141.5690  154.7020  133.2290 C   0  0  0  0  0  0  0  0  0  0  0  0
  140.1560  154.4800  133.0600 C   0  0  0  0  0  0  0  0  0  0  0  0
  139.2800  155.6410  133.0090 N   0  0  0  0  0  0  0  0  0  0  0  0
  139.5420  153.4060  132.9460 O   0  0  0  0  0  0  0  0  0  0  0  0
  142.5200  153.8860  132.6060 C   0  0  0  0  0  0  0  0  0  0  0  0
  143.7540  154.3330  132.9390 C   0  0  0  0  0  0  0  0  0  0  0  0
  144.9990  153.8690  132.5800 C   0  0  0  0  0  0  0  0  0  0  0  0
  146.1360  154.4780  133.0350 C   0  0  0  0  0  0  0  0  0  0  0  0
  145.9950  155.5650  133.8590 C   0  0  0  0  0  0  0  0  0  0  0  0
  147.2260  156.2450  134.3680 C   0  0  0  0  0  0  0  0  0  0  0  0
  148.2900  156.0800  133.5020 F   0  0  0  0  0  0  0  0  0  0  0  0
  146.9630  157.5950  134.4630 F   0  0  0  0  0  0  0  0  0  0  0  0
  147.5370  155.7510  135.6320 F   0  0  0  0  0  0  0  0  0  0  0  0
  144.7290  156.0290  134.2180 C   0  0  0  0  0  0  0  0  0  0  0  0
  143.5700  155.4180  133.7610 C   0  0  0  0  0  0  0  0  0  0  0  0
  140.8664  159.8540  131.2214 H   0  0  0  0  0  0  0  0  0  0  0  0
  139.3684  159.0977  130.3191 H   0  0  0  0  0  0  0  0  0  0  0  0
  137.9490  157.4810  133.0330 H   0  0  0  0  0  0  0  0  0  0  0  0
  142.6730  160.6874  134.3316 H   0  0  0  0  0  0  0  0  0  0  0  0
  143.1282  159.7485  132.8694 H   0  0  0  0  0  0  0  0  0  0  0  0
  141.6310  160.7409  132.8694 H   0  0  0  0  0  0  0  0  0  0  0  0
  143.3421  158.0730  134.7292 H   0  0  0  0  0  0  0  0  0  0  0  0
  142.0937  158.3703  135.9739 H   0  0  0  0  0  0  0  0  0  0  0  0
  138.5800  155.7000  132.2300 H   0  0  0  0  0  0  0  0  0  0  0  0
  139.3470  156.3950  133.7270 H   0  0  0  0  0  0  0  0  0  0  0  0
  142.3018  153.0263  131.9554 H   0  0  0  0  0  0  0  0  0  0  0  0
  145.0809  152.9951  131.9170 H   0  0  0  0  0  0  0  0  0  0  0  0
  147.1316  154.1077  132.7491 H   0  0  0  0  0  0  0  0  0  0  0  0
  144.6475  156.9028  134.8812 H   0  0  0  0  0  0  0  0  0  0  0  0
  1  2  2  0
  2  3  1  0
  2  4  1  0
  4  5  2  0
  4  6  1  0
  6  7  1  0
  6  8  1  0
  8  9  1  0
  9 10  2  0
  9 11  1  0
 11 12  1  0
 12 13  1  0
 13 14  1  0
 13 15  2  0
 12 16  2  0
 16 17  1  0
 17 18  2  0
 18 19  1  0
 19 20  2  0
 20 21  1  0
 21 22  1  0
 21 23  1  0
 21 24  1  0
 20 25  1  0
 25 26  2  0
 26 11  1  0
 26 17  1  0
  1 27  1  0
  1 28  1  0
  3 29  1  0
  7 30  1  0
  7 31  1  0
  7 32  1  0
  8 33  1  0
  8 34  1  0
 14 35  1  0
 14 36  1  0
 16 37  1  0
 18 38  1  0
 19 39  1  0
 25 40  1  0
M  END
>  <smiles>  (4) 
C=C(O)C(=O)N(C)CC(=O)n1c(C(N)=O)cc2ccc(C(F)(F)F)cc21

>  <score_type>  (4) 
oracle

>  <origin>  (4) 
adg

>  <m_score__min__energy>  (4) 
-6.5099999999999998

>  <m_primary>  (4) 
energy

$$$$
4:0
     RDKit          3D

 40 42  0  0  0  0  0  0  0  0999 V2000
  147.4590  153.6890  133.8500 C   0  0  0  0  0  0  0  0  0  0  0  0
  146.7450  154.6430  134.8260 C   0  0  0  0  0  0  0  0  0  0  0  0
  147.7330  155.7090  135.3350 C   0  0  0  0  0  0  0  0  0  0  0  0
  145.2980  155.4500  134.0230 S   0  0  0  0  0  0  0  0  0  0  0  0
  146.1580  156.6460  132.9830 C   0  0  0  0  0  0  0  0  0  0  0  0
  146.9750  156.2240  132.1220 O   0  0  0  0  0  0  0  0  0  0  0  0
  145.9740  158.0630  133.1660 N   0  0  0  0  0  0  0  0  0  0  0  0
  146.9360  159.0340  133.1800 C   0  0  0  0  0  0  0  0  0  0  0  0
  148.3840  158.8400  132.9510 C   0  0  0  0  0  0  0  0  0  0  0  0
  148.8460  158.3930  131.6780 N   0  0  0  0  0  0  0  0  0  0  0  0
  149.2220  159.0410  133.8680 O   0  0  0  0  0  0  0  0  0  0  0  0
  146.3630  160.2860  133.3930 C   0  0  0  0  0  0  0  0  0  0  0  0
  145.0150  160.0550  133.5210 C   0  0  0  0  0  0  0  0  0  0  0  0
  143.9800  160.9480  133.7710 C   0  0  0  0  0  0  0  0  0  0  0  0
  142.6810  160.4320  133.9020 C   0  0  0  0  0  0  0  0  0  0  0  0
  142.4350  159.0390  133.8040 C   0  0  0  0  0  0  0  0  0  0  0  0
  141.0010  158.5680  133.9790 C   0  0  0  0  0  0  0  0  0  0  0  0
  139.9940  158.9870  132.9170 C   0  0  0  0  0  0  0  0  0  0  0  0
  140.4780  157.5440  132.9830 C   0  0  0  0  0  0  0  0  0  0  0  0
  143.5240  158.1620  133.5560 C   0  0  0  0  0  0  0  0  0  0  0  0
  144.8040  158.7070  133.3900 C   0  0  0  0  0  0  0  0  0  0  0  0
  146.2010  153.8400  135.9880 C   0  0  0  0  0  0  0  0  0  0  0  0
  146.9870  153.1830  136.7230 O   0  0  0  0  0  0  0  0  0  0  0  0
  144.8340  153.7640  136.2320 O   0  0  0  0  0  0  0  0  0  0  0  0
  148.0227  152.9358  134.4200 H   0  0  0  0  0  0  0  0  0  0  0  0
  146.7130  153.1868  133.2165 H   0  0  0  0  0  0  0  0  0  0  0  0
  148.1511  154.2631  133.2165 H   0  0  0  0  0  0  0  0  0  0  0  0
  147.7352  155.7114  136.4350 H   0  0  0  0  0  0  0  0  0  0  0  0
  148.7435  155.4780  134.9668 H   0  0  0  0  0  0  0  0  0  0  0  0
  147.4260  156.6990  134.9668 H   0  0  0  0  0  0  0  0  0  0  0  0
  148.5600  157.4630  131.2990 H   0  0  0  0  0  0  0  0  0  0  0  0
  146.8808  161.2550  133.4472 H   0  0  0  0  0  0  0  0  0  0  0  0
  144.1728  162.0270  133.8635 H   0  0  0  0  0  0  0  0  0  0  0  0
  141.8412  161.1188  134.0834 H   0  0  0  0  0  0  0  0  0  0  0  0
  141.0470  158.6337  135.0761 H   0  0  0  0  0  0  0  0  0  0  0  0
  138.9617  159.2348  133.2050 H   0  0  0  0  0  0  0  0  0  0  0  0
  139.9623  159.7623  132.1374 H   0  0  0  0  0  0  0  0  0  0  0  0
  139.7950  156.7496  133.3183 H   0  0  0  0  0  0  0  0  0  0  0  0
  140.9406  156.8454  132.2703 H   0  0  0  0  0  0  0  0  0  0  0  0
  143.3656  157.0752  133.4954 H   0  0  0  0  0  0  0  0  0  0  0  0
  1  2  1  0
  2  3  1  0
  2  4  1  0
  4  5  1  0
  5  6  2  0
  5  7  1  0
  7  8  1  0
  8  9  1  0
  9 10  1  0
  9 11  2  0
  8 12  2  0
 12 13  1  0
 13 14  2  0
 14 15  1  0
 15 16  2  0
 16 17  1  0
 17 18  1  0
 18 19  1  0
 16 20  1  0
 20 21  2  0
  2 22  1  0
 22 23  2  0
 22 24  1  0
 21  7  1  0
 21 13  1  0
 19 17  1  0
  1 25  1  0
  1 26  1  0
  1 27  1  0
  3 28  1  0
  3 29  1  0
  3 30  1  0
 10 31  1  0
 12 32  1  0
 14 33  1  0
 15 34  1  0
 17 35  1  0
 18 36  1  0
 18 37  1  0
 19 38  1  0
 19 39  1  0
 20 40  1  0
M  CHG  2  10  -1  24  -1
M  END
>  <UniqueID>  (5) 
4

>  <SMILES>  (5) 
CC(C)(SC(=O)n1c(C([NH-])=O)cc2ccc(C3CC3)cc21)C(=O)[O-]

>  <Energy>  (5) 
344.3374373881112

>  <Genealogy>  (5) 
CC(C)(SC(=O)n1c(C([NH-])=O)cc2ccc(C3CC3)cc21)C(=O)[O-] (protonated)
CC(C)(SC(=O)n1c(C([NH-])=O)cc2ccc(C3CC3)cc21)C(=O)[O-] (3D coordinates assigned)
CC(C)(SC(=O)n1c(C([NH-])=O)cc2ccc(C3CC3)cc21)C(=O)[O-] (nonaromatic ring conformer: 344.3374373881112 kcal/mol)

>  <smiles>  (5) 
CC(C)(SC(=O)n1c(C(N)=O)cc2ccc(C3CC3)cc21)C(=O)O

>  <score_type>  (5) 
oracle

>  <origin>  (5) 
adg

>  <m_score__min__energy>  (5) 
-7.9000000000000004

>  <m_primary>  (5) 
energy

$$$$
5:0
     RDKit          3D

 37 38  0  0  0  0  0  0  0  0999 V2000
  137.4310  160.0830  130.7680 C   0  0  0  0  0  0  0  0  0  0  0  0
  138.7300  160.4880  131.1360 O   0  0  0  0  0  0  0  0  0  0  0  0
  139.5550  159.3500  131.2710 C   0  0  0  0  0  0  0  0  0  0  0  0
  139.9710  159.1950  132.7280 C   0  0  0  0  0  0  0  0  0  0  0  0
  141.2930  159.7770  132.9310 N   0  0  0  0  0  0  0  0  0  0  0  0
  142.4940  159.0570  133.2440 C   0  0  0  0  0  0  0  0  0  0  0  0
  142.7210  157.9830  132.6270 O   0  0  0  0  0  0  0  0  0  0  0  0
  143.4730  159.5170  134.2550 C   0  0  0  0  0  0  0  0  0  0  0  0
  143.1080  159.7900  135.4290 O   0  0  0  0  0  0  0  0  0  0  0  0
  144.8610  159.6400  133.9090 N   0  0  0  0  0  0  0  0  0  0  0  0
  145.5910  160.7840  133.7840 C   0  0  0  0  0  0  0  0  0  0  0  0
  145.1250  162.1490  134.1070 C   0  0  0  0  0  0  0  0  0  0  0  0
  145.9300  163.0390  134.8750 N   0  0  0  0  0  0  0  0  0  0  0  0
  144.0110  162.5470  133.6730 O   0  0  0  0  0  0  0  0  0  0  0  0
  146.8840  160.4910  133.3530 C   0  0  0  0  0  0  0  0  0  0  0  0
  146.9200  159.1210  133.2130 C   0  0  0  0  0  0  0  0  0  0  0  0
  147.9570  158.2890  132.8030 C   0  0  0  0  0  0  0  0  0  0  0  0
  147.7040  156.9090  132.7290 C   0  0  0  0  0  0  0  0  0  0  0  0
  146.4200  156.3890  133.0360 C   0  0  0  0  0  0  0  0  0  0  0  0
  146.1710  154.9020  132.9900 C   0  0  0  0  0  0  0  0  0  0  0  0
  147.3410  154.2560  132.6380 F   0  0  0  0  0  0  0  0  0  0  0  0
  145.1910  154.5990  132.0600 F   0  0  0  0  0  0  0  0  0  0  0  0
  145.7520  154.4370  134.2250 F   0  0  0  0  0  0  0  0  0  0  0  0
  145.3980  157.2660  133.4690 C   0  0  0  0  0  0  0  0  0  0  0  0
  145.6870  158.6330  133.5500 C   0  0  0  0  0  0  0  0  0  0  0  0
  136.8346  159.8970  131.6734 H   0  0  0  0  0  0  0  0  0  0  0  0
  136.9550  160.8754  130.1717 H   0  0  0  0  0  0  0  0  0  0  0  0
  137.4897  159.1605  130.1717 H   0  0  0  0  0  0  0  0  0  0  0  0
  139.0010  158.4553  130.9506 H   0  0  0  0  0  0  0  0  0  0  0  0
  140.4511  159.4701  130.6444 H   0  0  0  0  0  0  0  0  0  0  0  0
  139.2429  159.7099  133.3720 H   0  0  0  0  0  0  0  0  0  0  0  0
  140.0027  158.1257  132.9840 H   0  0  0  0  0  0  0  0  0  0  0  0
  146.9710  163.0250  134.7990 H   0  0  0  0  0  0  0  0  0  0  0  0
  147.7016  161.2024  133.1647 H   0  0  0  0  0  0  0  0  0  0  0  0
  148.9445  158.6990  132.5447 H   0  0  0  0  0  0  0  0  0  0  0  0
  148.5107  156.2237  132.4296 H   0  0  0  0  0  0  0  0  0  0  0  0
  144.4016  156.8834  133.7352 H   0  0  0  0  0  0  0  0  0  0  0  0
  1  2  1  0
  2  3  1  0
  3  4  1  0
  4  5  1  0
  5  6  1  0
  6  7  2  0
  6  8  1  0
  8  9  2  0
  8 10  1  0
 10 11  1  0
 11 12  1  0
 12 13  1  0
 12 14  2  0
 11 15  2  0
 15 16  1  0
 16 17  2  0
 17 18  1  0
 18 19  2  0
 19 20  1  0
 20 21  1  0
 20 22  1  0
 20 23  1  0
 19 24  1  0
 24 25  2  0
 25 10  1  0
 25 16  1  0
  1 26  1  0
  1 27  1  0
  1 28  1  0
  3 29  1  0
  3 30  1  0
  4 31  1  0
  4 32  1  0
 13 33  1  0
 15 34  1  0
 17 35  1  0
 18 36  1  0
 24 37  1  0
M  CHG  2   5  -1  13  -1
M  END
>  <UniqueID>  (6) 
5

>  <SMILES>  (6) 
COCC[N-]C(=O)C(=O)n1c(C([NH-])=O)cc2ccc(C(F)(F)F)cc21

>  <Energy>  (6) 
75.57907285263624

>  <Genealogy>  (6) 
COCC[N-]C(=O)C(=O)n1c(C([NH-])=O)cc2ccc(C(F)(F)F)cc21 (protonated)
COCC[N-]C(=O)C(=O)n1c(C([NH-])=O)cc2ccc(C(F)(F)F)cc21 (3D coordinates assigned)
COCC[N-]C(=O)C(=O)n1c(C([NH-])=O)cc2ccc(C(F)(F)F)cc21 (optimized conformer: 75.57907285263624 kcal/mol)

>  <smiles>  (6) 
COCCNC(=O)C(=O)n1c(C(N)=O)cc2ccc(C(F)(F)F)cc21

>  <score_type>  (6) 
oracle

>  <origin>  (6) 
adg

>  <m_score__min__energy>  (6) 
-5.96

>  <m_primary>  (6) 
energy

$$$$
6:0
     RDKit          3D

 35 36  0  0  0  0  0  0  0  0999 V2000
  149.5370  154.6380  132.2340 N   0  0  0  0  0  0  0  0  0  0  0  0
  148.8950  154.0670  133.0090 C   0  0  0  0  0  0  0  0  0  0  0  0
  148.0840  153.3440  133.9880 C   0  0  0  0  0  0  0  0  0  0  0  0
  146.3750  153.8110  133.8090 S   0  0  0  0  0  0  0  0  0  0  0  0
  145.8160  153.4430  132.2670 O   0  0  0  0  0  0  0  0  0  0  0  0
  146.1030  155.5290  134.2240 C   0  0  0  0  0  0  0  0  0  0  0  0
  146.3350  156.4310  133.0470 C   0  0  0  0  0  0  0  0  0  0  0  0
  146.6710  155.9350  131.9370 O   0  0  0  0  0  0  0  0  0  0  0  0
  146.2910  157.8590  133.1970 N   0  0  0  0  0  0  0  0  0  0  0  0
  147.3120  158.7390  132.9910 C   0  0  0  0  0  0  0  0  0  0  0  0
  148.7130  158.3660  132.6930 C   0  0  0  0  0  0  0  0  0  0  0  0
  149.0240  157.1190  132.0690 N   0  0  0  0  0  0  0  0  0  0  0  0
  149.6520  159.1600  132.9730 O   0  0  0  0  0  0  0  0  0  0  0  0
  146.8670  160.0490  133.1670 C   0  0  0  0  0  0  0  0  0  0  0  0
  145.5330  159.9440  133.4830 C   0  0  0  0  0  0  0  0  0  0  0  0
  144.5920  160.9370  133.7370 C   0  0  0  0  0  0  0  0  0  0  0  0
  143.2690  160.5410  134.0020 C   0  0  0  0  0  0  0  0  0  0  0  0
  142.9170  159.1700  134.0120 C   0  0  0  0  0  0  0  0  0  0  0  0
  141.4930  158.7610  134.2450 C   0  0  0  0  0  0  0  0  0  0  0  0
  140.6870  159.3250  133.2750 F   0  0  0  0  0  0  0  0  0  0  0  0
  143.8950  158.1900  133.7340 C   0  0  0  0  0  0  0  0  0  0  0  0
  145.2070  158.6120  133.4930 C   0  0  0  0  0  0  0  0  0  0  0  0
  148.1872  152.2616  133.8211 H   0  0  0  0  0  0  0  0  0  0  0  0
  148.4269  153.5943  135.0028 H   0  0  0  0  0  0  0  0  0  0  0  0
  146.5010  153.8040  131.6500 H   0  0  0  0  0  0  0  0  0  0  0  0
  145.0654  155.6522  134.5677 H   0  0  0  0  0  0  0  0  0  0  0  0
  146.8170  155.8069  135.0133 H   0  0  0  0  0  0  0  0  0  0  0  0
  150.0130  156.8860  131.8300 H   0  0  0  0  0  0  0  0  0  0  0  0
  148.2870  156.4060  131.8800 H   0  0  0  0  0  0  0  0  0  0  0  0
  147.4585  160.9716  133.0729 H   0  0  0  0  0  0  0  0  0  0  0  0
  144.8746  162.0001  133.7307 H   0  0  0  0  0  0  0  0  0  0  0  0
  142.5014  161.3028  134.2032 H   0  0  0  0  0  0  0  0  0  0  0  0
  141.4136  157.6650  134.1958 H   0  0  0  0  0  0  0  0  0  0  0  0
  141.1697  159.1080  135.2375 H   0  0  0  0  0  0  0  0  0  0  0  0
  143.6320  157.1222  133.7076 H   0  0  0  0  0  0  0  0  0  0  0  0
  1  2  3  0
  2  3  1  0
  3  4  1  0
  4  5  1  6
  4  6  1  0
  6  7  1  0
  7  8  2  0
  7  9  1  0
  9 10  1  0
 10 11  1  0
 11 12  1  0
 11 13  2  0
 10 14  2  0
 14 15  1  0
 15 16  2  0
 16 17  1  0
 17 18  2  0
 18 19  1  0
 19 20  1  0
 18 21  1  0
 21 22  2  0
 22  9  1  0
 22 15  1  0
  3 23  1  0
  3 24  1  0
  5 25  1  0
  6 26  1  0
  6 27  1  0
 12 28  1  0
 12 29  1  0
 14 30  1  0
 16 31  1  0
 17 32  1  0
 19 33  1  0
 19 34  1  0
 21 35  1  0
M  CHG  1   4   1
M  END
>  <UniqueID>  (7) 
6

>  <SMILES>  (7) 
N#CC[S@+](O)CC(=O)n1c(C(N)=O)cc2ccc(CF)cc21

>  <Energy>  (7) 
65.76030592964972

>  <Genealogy>  (7) 
N#CC[S+](O)CC(=O)n1c(C(N)=O)cc2ccc(CF)cc21 (protonated)
N#CC[S@+](O)CC(=O)n1c(C(N)=O)cc2ccc(CF)cc21 (chirality)
N#CC[S@+](O)CC(=O)n1c(C(N)=O)cc2ccc(CF)cc21 (3D coordinates assigned)
N#CC[S@+](O)CC(=O)n1c(C(N)=O)cc2ccc(CF)cc21 (optimized conformer: 65.76030592964972 kcal/mol)

>  <smiles>  (7) 
N#CC[S+]([O-])CC(=O)n1c(C(N)=O)cc2ccc(CF)cc21

>  <score_type>  (7) 
oracle

>  <origin>  (7) 
adg

>  <m_score__min__energy>  (7) 
-6.21

>  <m_primary>  (7) 
energy

$$$$
7:0
     RDKit          3D

 36 37  0  0  0  0  0  0  0  0999 V2000
  143.9130  160.2600  134.0680 C   0  0  0  0  0  0  0  0  0  0  0  0
  145.1640  160.5200  133.3640 N   0  0  0  0  0  0  0  0  0  0  0  0
  146.1840  159.5240  133.1610 C   0  0  0  0  0  0  0  0  0  0  0  0
  147.4810  159.8740  132.6950 C   0  0  0  0  0  0  0  0  0  0  0  0
  148.4590  158.8870  132.4890 C   0  0  0  0  0  0  0  0  0  0  0  0
  148.1230  157.5650  132.7640 C   0  0  0  0  0  0  0  0  0  0  0  0
  148.8660  156.4170  132.6190 C   0  0  0  0  0  0  0  0  0  0  0  0
  148.0280  155.3840  133.0270 C   0  0  0  0  0  0  0  0  0  0  0  0
  148.4500  153.9700  133.0890 C   0  0  0  0  0  0  0  0  0  0  0  0
  147.5940  152.9640  133.6340 N   0  0  0  0  0  0  0  0  0  0  0  0
  149.6070  153.6540  132.7050 O   0  0  0  0  0  0  0  0  0  0  0  0
  146.8100  155.8710  133.3990 N   0  0  0  0  0  0  0  0  0  0  0  0
  145.6420  155.1200  133.7710 C   0  0  0  0  0  0  0  0  0  0  0  0
  145.1460  154.2870  132.9640 O   0  0  0  0  0  0  0  0  0  0  0  0
  145.0620  155.3170  135.0290 O   0  0  0  0  0  0  0  0  0  0  0  0
  144.4880  154.2700  135.8100 C   0  0  2  0  0  0  0  0  0  0  0  0
  143.3430  154.8140  136.6650 C   0  0  0  0  0  0  0  0  0  0  0  0
  145.5460  153.6850  136.6930 C   0  0  0  0  0  0  0  0  0  0  0  0
  146.7090  153.4950  136.2470 O   0  0  0  0  0  0  0  0  0  0  0  0
  145.2400  153.3060  137.9940 O   0  0  0  0  0  0  0  0  0  0  0  0
  146.8850  157.2110  133.2330 C   0  0  0  0  0  0  0  0  0  0  0  0
  145.8840  158.1700  133.4260 C   0  0  0  0  0  0  0  0  0  0  0  0
  144.0886  160.2965  135.1533 H   0  0  0  0  0  0  0  0  0  0  0  0
  143.1708  161.0231  133.7908 H   0  0  0  0  0  0  0  0  0  0  0  0
  143.5363  159.2644  133.7908 H   0  0  0  0  0  0  0  0  0  0  0  0
  145.3190  161.4840  132.9900 H   0  0  0  0  0  0  0  0  0  0  0  0
  147.7210  160.9285  132.4938 H   0  0  0  0  0  0  0  0  0  0  0  0
  149.4613  159.1514  132.1210 H   0  0  0  0  0  0  0  0  0  0  0  0
  149.9016  156.3333  132.2577 H   0  0  0  0  0  0  0  0  0  0  0  0
  147.8940  151.9650  133.6320 H   0  0  0  0  0  0  0  0  0  0  0  0
  146.7040  153.2180  134.1160 H   0  0  0  0  0  0  0  0  0  0  0  0
  144.0878  153.4935  135.1415 H   0  0  0  0  0  0  0  0  0  0  0  0
  143.5922  154.6956  137.7298 H   0  0  0  0  0  0  0  0  0  0  0  0
  143.1919  155.8801  136.4401 H   0  0  0  0  0  0  0  0  0  0  0  0
  142.4211  154.2576  136.4401 H   0  0  0  0  0  0  0  0  0  0  0  0
  144.8841  157.8749  133.7769 H   0  0  0  0  0  0  0  0  0  0  0  0
  1  2  1  0
  2  3  1  0
  3  4  2  0
  4  5  1  0
  5  6  2  0
  6  7  1  0
  7  8  2  0
  8  9  1  0
  9 10  1  0
  9 11  2  0
  8 12  1  0
 12 13  1  0
 13 14  2  0
 13 15  1  0
 15 16  1  0
 16 17  1  0
 16 18  1  0
 18 19  2  0
 18 20  1  0
 12 21  1  0
 21 22  2  0
 22  3  1  0
 21  6  1  0
  1 23  1  0
  1 24  1  0
  1 25  1  0
  2 26  1  0
  4 27  1  0
  5 28  1  0
  7 29  1  0
 10 30  1  0
 10 31  1  0
 16 32  1  6
 17 33  1  0
 17 34  1  0
 17 35  1  0
 22 36  1  0
M  CHG  1  20  -1
M  END
>  <UniqueID>  (8) 
7

>  <SMILES>  (8) 
CNc1ccc2cc(C(N)=O)n(C(=O)O[C@H](C)C(=O)[O-])c2c1

>  <Energy>  (8) 
69.68058222116986

>  <Genealogy>  (8) 
CNc1ccc2cc(C(N)=O)n(C(=O)OC(C)C(=O)[O-])c2c1 (protonated)
CNc1ccc2cc(C(N)=O)n(C(=O)O[C@H](C)C(=O)[O-])c2c1 (chirality)
CNc1ccc2cc(C(N)=O)n(C(=O)O[C@H](C)C(=O)[O-])c2c1 (3D coordinates assigned)
CNc1ccc2cc(C(N)=O)n(C(=O)O[C@H](C)C(=O)[O-])c2c1 (optimized conformer: 69.68058222116986 kcal/mol)

>  <smiles>  (8) 
CNc1ccc2cc(C(N)=O)n(C(=O)OC(C)C(=O)O)c2c1

>  <score_type>  (8) 
oracle

>  <origin>  (8) 
adg

>  <m_score__min__energy>  (8) 
-6.46

>  <m_primary>  (8) 
energy

$$$$
8:0
     RDKit          3D

 46 47  0  0  0  0  0  0  0  0999 V2000
  149.8780  159.7270  129.6350 C   0  0  0  0  0  0  0  0  0  0  0  0
  149.1730  160.6230  130.5520 N   0  0  0  0  0  0  0  0  0  0  0  0
  149.2410  162.0770  130.3790 C   0  0  0  0  0  0  0  0  0  0  0  0
  148.4100  160.0700  131.6380 C   0  0  0  0  0  0  0  0  0  0  0  0
  147.8620  160.8350  132.4780 O   0  0  0  0  0  0  0  0  0  0  0  0
  148.2740  158.6830  131.7610 O   0  0  0  0  0  0  0  0  0  0  0  0
  148.7310  157.9630  132.9020 C   0  0  0  0  0  0  0  0  0  0  0  0
  147.6280  157.8930  133.9580 C   0  0  0  0  0  0  0  0  0  0  0  0
  146.4820  157.1190  133.4670 N   0  0  0  0  0  0  0  0  0  0  0  0
  146.7060  155.8900  132.7070 C   0  0  0  0  0  0  0  0  0  0  0  0
  145.1720  157.7020  133.4840 C   0  0  0  0  0  0  0  0  0  0  0  0
  145.0170  159.0990  133.3240 C   0  0  0  0  0  0  0  0  0  0  0  0
  143.7420  159.6850  133.3890 C   0  0  0  0  0  0  0  0  0  0  0  0
  142.6510  158.8470  133.6110 C   0  0  0  0  0  0  0  0  0  0  0  0
  141.3240  159.1560  133.8030 C   0  0  0  0  0  0  0  0  0  0  0  0
  140.6930  157.9410  134.0770 C   0  0  0  0  0  0  0  0  0  0  0  0
  139.2410  157.7950  134.3450 C   0  0  0  0  0  0  0  0  0  0  0  0
  138.3710  157.1930  133.3810 N   0  0  0  0  0  0  0  0  0  0  0  0
  138.7520  158.1990  135.4340 O   0  0  0  0  0  0  0  0  0  0  0  0
  141.5990  156.9220  134.0420 N   0  0  0  0  0  0  0  0  0  0  0  0
  141.3860  155.5340  134.3430 C   0  0  0  0  0  0  0  0  0  0  0  0
  141.7440  155.0750  135.4620 O   0  0  0  0  0  0  0  0  0  0  0  0
  140.7700  154.6360  133.3580 C   0  0  0  0  0  0  0  0  0  0  0  0
  141.2190  153.4720  133.1900 O   0  0  0  0  0  0  0  0  0  0  0  0
  139.7010  155.0780  132.5890 O   0  0  0  0  0  0  0  0  0  0  0  0
  142.7880  157.4920  133.7480 C   0  0  0  0  0  0  0  0  0  0  0  0
  144.0460  156.8830  133.6930 C   0  0  0  0  0  0  0  0  0  0  0  0
  150.4566  158.9916  130.2133 H   0  0  0  0  0  0  0  0  0  0  0  0
  149.1479  159.2025  129.0011 H   0  0  0  0  0  0  0  0  0  0  0  0
  150.5596  160.3133  129.0011 H   0  0  0  0  0  0  0  0  0  0  0  0
  149.2637  162.5630  131.3656 H   0  0  0  0  0  0  0  0  0  0  0  0
  150.1523  162.3376  129.8208 H   0  0  0  0  0  0  0  0  0  0  0  0
  148.3580  162.4215  129.8208 H   0  0  0  0  0  0  0  0  0  0  0  0
  149.0104  156.9428  132.6001 H   0  0  0  0  0  0  0  0  0  0  0  0
  149.6033  158.4806  133.3276 H   0  0  0  0  0  0  0  0  0  0  0  0
  148.0262  157.4119  134.8635 H   0  0  0  0  0  0  0  0  0  0  0  0
  147.2912  158.9157  134.1830 H   0  0  0  0  0  0  0  0  0  0  0  0
  146.8588  155.0515  133.4024 H   0  0  0  0  0  0  0  0  0  0  0  0
  145.8302  155.6859  132.0734 H   0  0  0  0  0  0  0  0  0  0  0  0
  147.5974  156.0080  132.0734 H   0  0  0  0  0  0  0  0  0  0  0  0
  145.9004  159.7303  133.1476 H   0  0  0  0  0  0  0  0  0  0  0  0
  143.6091  160.7703  133.2686 H   0  0  0  0  0  0  0  0  0  0  0  0
  140.8582  160.1512  133.7515 H   0  0  0  0  0  0  0  0  0  0  0  0
  137.3490  157.1170  133.5780 H   0  0  0  0  0  0  0  0  0  0  0  0
  138.7280  156.7820  132.4910 H   0  0  0  0  0  0  0  0  0  0  0  0
  144.1526  155.7944  133.8098 H   0  0  0  0  0  0  0  0  0  0  0  0
  1  2  1  0
  2  3  1  0
  2  4  1  0
  4  5  2  0
  4  6  1  0
  6  7  1  0
  7  8  1  0
  8  9  1  0
  9 10  1  0
  9 11  1  0
 11 12  2  0
 12 13  1  0
 13 14  2  0
 14 15  1  0
 15 16  2  0
 16 17  1  0
 17 18  1  0
 17 19  2  0
 16 20  1  0
 20 21  1  0
 21 22  2  0
 21 23  1  0
 23 24  2  0
 23 25  1  0
 20 26  1  0
 26 27  2  0
 27 11  1  0
 26 14  1  0
  1 28  1  0
  1 29  1  0
  1 30  1  0
  3 31  1  0
  3 32  1  0
  3 33  1  0
  7 34  1  0
  7 35  1  0
  8 36  1  0
  8 37  1  0
 10 38  1  0
 10 39  1  0
 10 40  1  0
 12 41  1  0
 13 42  1  0
 15 43  1  0
 18 44  1  0
 18 45  1  0
 27 46  1  0
M  CHG  1  25  -1
M  END
>  <UniqueID>  (9) 
8

>  <SMILES>  (9) 
CN(C)C(=O)OCCN(C)c1ccc2cc(C(N)=O)n(C(=O)C(=O)[O-])c2c1

>  <Energy>  (9) 
79.17856332127721

>  <Genealogy>  (9) 
CN(C)C(=O)OCCN(C)c1ccc2cc(C(N)=O)n(C(=O)C(=O)[O-])c2c1 (protonated)
CN(C)C(=O)OCCN(C)c1ccc2cc(C(N)=O)n(C(=O)C(=O)[O-])c2c1 (3D coordinates assigned)
CN(C)C(=O)OCCN(C)c1ccc2cc(C(N)=O)n(C(=O)C(=O)[O-])c2c1 (optimized conformer: 79.17856332127721 kcal/mol)

>  <smiles>  (9) 
CN(C)C(=O)OCCN(C)c1ccc2cc(C(N)=O)n(C(=O)C(=O)O)c2c1

>  <score_type>  (9) 
oracle

>  <origin>  (9) 
adg

>  <m_score__min__energy>  (9) 
-7.0800000000000001

>  <m_primary>  (9) 
energy

$$$$
9:0
     RDKit          3D

 35 36  0  0  0  0  0  0  0  0999 V2000
  146.0800  151.8670  131.8900 N   0  0  0  0  0  0  0  0  0  0  0  0
  145.2910  152.7420  132.6970 C   0  0  0  0  0  0  0  0  0  0  0  0
  144.3070  152.2780  133.3310 O   0  0  0  0  0  0  0  0  0  0  0  0
  145.6470  154.1670  132.8520 C   0  0  0  0  0  0  0  0  0  0  0  0
  144.7020  155.1840  132.9610 C   0  0  0  0  0  0  0  0  0  0  0  0
  145.4290  156.3360  133.1490 C   0  0  0  0  0  0  0  0  0  0  0  0
  144.9970  157.6490  133.3070 C   0  0  0  0  0  0  0  0  0  0  0  0
  145.9720  158.6510  133.4480 C   0  0  0  0  0  0  0  0  0  0  0  0
  147.3530  158.3290  133.4060 C   0  0  0  0  0  0  0  0  0  0  0  0
  148.3910  159.4060  133.5760 C   0  0  1  0  0  0  0  0  0  0  0  0
  149.2160  159.1140  134.6510 F   0  0  0  0  0  0  0  0  0  0  0  0
  149.2050  159.5370  132.3280 C   0  0  0  0  0  0  0  0  0  0  0  0
  149.9720  158.6050  131.9670 O   0  0  0  0  0  0  0  0  0  0  0  0
  149.0780  160.6680  131.5320 O   0  0  0  0  0  0  0  0  0  0  0  0
  147.7530  156.9820  133.2540 C   0  0  0  0  0  0  0  0  0  0  0  0
  146.7590  156.0000  133.1390 C   0  0  0  0  0  0  0  0  0  0  0  0
  146.9090  154.6690  132.9550 N   0  0  0  0  0  0  0  0  0  0  0  0
  148.1450  153.9590  132.7700 C   0  0  0  0  0  0  0  0  0  0  0  0
  149.1260  154.5330  132.2250 O   0  0  0  0  0  0  0  0  0  0  0  0
  148.2520  152.6320  133.2040 O   0  0  0  0  0  0  0  0  0  0  0  0
  149.4610  151.8760  133.1480 C   0  0  0  0  0  0  0  0  0  0  0  0
  149.2260  150.5230  132.4810 C   0  0  0  0  0  0  0  0  0  0  0  0
  147.8540  150.3000  132.3070 O   0  0  0  0  0  0  0  0  0  0  0  0
  146.9910  152.1780  131.4880 H   0  0  0  0  0  0  0  0  0  0  0  0
  145.7900  150.8720  131.7590 H   0  0  0  0  0  0  0  0  0  0  0  0
  143.6076  155.0866  132.9080 H   0  0  0  0  0  0  0  0  0  0  0  0
  143.9250  157.8952  133.3211 H   0  0  0  0  0  0  0  0  0  0  0  0
  145.6611  159.6962  133.5925 H   0  0  0  0  0  0  0  0  0  0  0  0
  147.8792  160.3599  133.7714 H   0  0  0  0  0  0  0  0  0  0  0  0
  148.8187  156.7106  133.2266 H   0  0  0  0  0  0  0  0  0  0  0  0
  150.2104  152.4371  132.5705 H   0  0  0  0  0  0  0  0  0  0  0  0
  149.8169  151.7051  134.1747 H   0  0  0  0  0  0  0  0  0  0  0  0
  149.7232  150.5105  131.4999 H   0  0  0  0  0  0  0  0  0  0  0  0
  149.6394  149.7306  133.1223 H   0  0  0  0  0  0  0  0  0  0  0  0
  147.4060  150.7340  133.0780 H   0  0  0  0  0  0  0  0  0  0  0  0
  1  2  1  0
  2  3  2  0
  2  4  1  0
  4  5  2  0
  5  6  1  0
  6  7  2  0
  7  8  1  0
  8  9  2  0
  9 10  1  0
 10 11  1  0
 10 12  1  0
 12 13  2  0
 12 14  1  0
  9 15  1  0
 15 16  2  0
 16 17  1  0
 17 18  1  0
 18 19  2  0
 18 20  1  0
 20 21  1  0
 21 22  1  0
 22 23  1  0
 17  4  1  0
 16  6  1  0
  1 24  1  0
  1 25  1  0
  5 26  1  0
  7 27  1  0
  8 28  1  0
 10 29  1  1
 15 30  1  0
 21 31  1  0
 21 32  1  0
 22 33  1  0
 22 34  1  0
 23 35  1  0
M  CHG  1  14  -1
M  END
>  <UniqueID>  (10) 
9

>  <SMILES>  (10) 
NC(=O)c1cc2ccc([C@@H](F)C(=O)[O-])cc2n1C(=O)OCCO

>  <Energy>  (10) 
70.19986317400043

>  <Genealogy>  (10) 
NC(=O)c1cc2ccc(C(F)C(=O)[O-])cc2n1C(=O)OCCO (protonated)
NC(=O)c1cc2ccc([C@@H](F)C(=O)[O-])cc2n1C(=O)OCCO (chirality)
NC(=O)c1cc2ccc([C@@H](F)C(=O)[O-])cc2n1C(=O)OCCO (3D coordinates assigned)
NC(=O)c1cc2ccc([C@@H](F)C(=O)[O-])cc2n1C(=O)OCCO (optimized conformer: 70.19986317400043 kcal/mol)

>  <smiles>  (10) 
NC(=O)c1cc2ccc(C(F)C(=O)O)cc2n1C(=O)OCCO

>  <score_type>  (10) 
oracle

>  <origin>  (10) 
adg

>  <m_score__min__energy>  (10) 
-6.5

>  <m_primary>  (10) 
energy

$$$$
10:0
     RDKit          3D

 52 54  0  0  0  0  0  0  0  0999 V2000
  147.9850  153.8670  134.0180 C   0  0  0  0  0  0  0  0  0  0  0  0
  146.6040  154.4720  134.2920 C   0  0  2  0  0  0  0  0  0  0  0  0
  146.6640  155.8980  134.2300 O   0  0  0  0  0  0  0  0  0  0  0  0
  146.7320  156.6210  133.0340 C   0  0  0  0  0  0  0  0  0  0  0  0
  146.9760  156.0300  131.9470 O   0  0  0  0  0  0  0  0  0  0  0  0
  146.5580  158.0470  133.0530 N   0  0  0  0  0  0  0  0  0  0  0  0
  147.5020  159.0120  132.8540 C   0  0  0  0  0  0  0  0  0  0  0  0
  148.8910  158.7850  132.4040 C   0  0  0  0  0  0  0  0  0  0  0  0
  149.3710  157.4540  132.2320 N   0  0  0  0  0  0  0  0  0  0  0  0
  149.6710  159.7550  132.2050 O   0  0  0  0  0  0  0  0  0  0  0  0
  146.9580  160.2790  133.0650 C   0  0  0  0  0  0  0  0  0  0  0  0
  145.6390  160.0600  133.3920 C   0  0  0  0  0  0  0  0  0  0  0  0
  144.6370  160.9690  133.7260 C   0  0  0  0  0  0  0  0  0  0  0  0
  143.3720  160.4580  134.0640 C   0  0  0  0  0  0  0  0  0  0  0  0
  143.1330  159.0600  134.0640 C   0  0  0  0  0  0  0  0  0  0  0  0
  141.7930  158.5150  134.4820 C   0  0  0  0  0  0  0  0  0  0  0  0
  141.9380  157.1690  135.1460 C   0  0  0  0  0  0  0  0  0  0  0  0
  142.2830  157.1150  136.3600 O   0  0  0  0  0  0  0  0  0  0  0  0
  141.6350  155.9490  134.4380 N   0  0  0  0  0  0  0  0  0  0  0  0
  140.7350  155.9560  133.2770 C   0  0  0  0  0  0  0  0  0  0  0  0
  140.1510  154.5570  133.0450 C   0  0  0  0  0  0  0  0  0  0  0  0
  141.2170  153.5420  132.8680 N   0  0  0  0  0  0  0  0  0  0  0  0
  140.6470  152.1860  132.9600 C   0  0  0  0  0  0  0  0  0  0  0  0
  142.3850  153.7030  133.7770 C   0  0  0  0  0  0  0  0  0  0  0  0
  142.1280  154.6640  134.9470 C   0  0  0  0  0  0  0  0  0  0  0  0
  144.1770  158.1690  133.7290 C   0  0  0  0  0  0  0  0  0  0  0  0
  145.4230  158.7050  133.3780 C   0  0  0  0  0  0  0  0  0  0  0  0
  146.1290  154.0590  135.6510 C   0  0  0  0  0  0  0  0  0  0  0  0
  144.9710  154.3700  136.0450 O   0  0  0  0  0  0  0  0  0  0  0  0
  146.9910  153.3910  136.5150 O   0  0  0  0  0  0  0  0  0  0  0  0
  148.4853  153.6478  134.9728 H   0  0  0  0  0  0  0  0  0  0  0  0
  147.8701  152.9368  133.4423 H   0  0  0  0  0  0  0  0  0  0  0  0
  148.5909  154.5821  133.4423 H   0  0  0  0  0  0  0  0  0  0  0  0
  145.9043  154.1059  133.5262 H   0  0  0  0  0  0  0  0  0  0  0  0
  148.9400  156.8120  131.5290 H   0  0  0  0  0  0  0  0  0  0  0  0
  147.4736  161.2475  132.9867 H   0  0  0  0  0  0  0  0  0  0  0  0
  144.8299  162.0519  133.7252 H   0  0  0  0  0  0  0  0  0  0  0  0
  142.5592  161.1493  134.3312 H   0  0  0  0  0  0  0  0  0  0  0  0
  141.3247  159.2158  135.1888 H   0  0  0  0  0  0  0  0  0  0  0  0
  141.1684  158.3964  133.5843 H   0  0  0  0  0  0  0  0  0  0  0  0
  139.9145  156.6657  133.4587 H   0  0  0  0  0  0  0  0  0  0  0  0
  141.3048  156.2572  132.3856 H   0  0  0  0  0  0  0  0  0  0  0  0
  139.5345  154.2794  133.9127 H   0  0  0  0  0  0  0  0  0  0  0  0
  139.5470  154.5848  132.1261 H   0  0  0  0  0  0  0  0  0  0  0  0
  140.5303  151.9083  134.0180 H   0  0  0  0  0  0  0  0  0  0  0  0
  139.6647  152.1668  132.4654 H   0  0  0  0  0  0  0  0  0  0  0  0
  141.3206  151.4708  132.4654 H   0  0  0  0  0  0  0  0  0  0  0  0
  142.6437  152.7162  134.1884 H   0  0  0  0  0  0  0  0  0  0  0  0
  143.2009  154.1351  133.1790 H   0  0  0  0  0  0  0  0  0  0  0  0
  141.3768  154.2260  135.6207 H   0  0  0  0  0  0  0  0  0  0  0  0
  143.0678  154.8276  135.4947 H   0  0  0  0  0  0  0  0  0  0  0  0
  144.0155  157.0810  133.7434 H   0  0  0  0  0  0  0  0  0  0  0  0
  1  2  1  0
  2  3  1  0
  3  4  1  0
  4  5  2  0
  4  6  1  0
  6  7  1  0
  7  8  1  0
  8  9  1  0
  8 10  2  0
  7 11  2  0
 11 12  1  0
 12 13  2  0
 13 14  1  0
 14 15  2  0
 15 16  1  0
 16 17  1  0
 17 18  2  0
 17 19  1  0
 19 20  1  0
 20 21  1  0
 21 22  1  0
 22 23  1  0
 22 24  1  0
 24 25  1  0
 15 26  1  0
 26 27  2  0
  2 28  1  0
 28 29  2  0
 28 30  1  0
 27  6  1  0
 27 12  1  0
 25 19  1  0
  1 31  1  0
  1 32  1  0
  1 33  1  0
  2 34  1  6
  9 35  1  0
 11 36  1  0
 13 37  1  0
 14 38  1  0
 16 39  1  0
 16 40  1  0
 20 41  1  0
 20 42  1  0
 21 43  1  0
 21 44  1  0
 23 45  1  0
 23 46  1  0
 23 47  1  0
 24 48  1  0
 24 49  1  0
 25 50  1  0
 25 51  1  0
 26 52  1  0
M  CHG  2   9  -1  30  -1
M  END
>  <UniqueID>  (11) 
10

>  <SMILES>  (11) 
C[C@H](OC(=O)n1c(C([NH-])=O)cc2ccc(CC(=O)N3CCN(C)CC3)cc21)C(=O)[O-]

>  <Energy>  (11) 
93.05782136443354

>  <Genealogy>  (11) 
CC(OC(=O)n1c(C([NH-])=O)cc2ccc(CC(=O)N3CCN(C)CC3)cc21)C(=O)[O-] (protonated)
C[C@H](OC(=O)n1c(C([NH-])=O)cc2ccc(CC(=O)N3CCN(C)CC3)cc21)C(=O)[O-] (chirality)
C[C@H](OC(=O)n1c(C([NH-])=O)cc2ccc(CC(=O)N3CCN(C)CC3)cc21)C(=O)[O-] (3D coordinates assigned)
C[C@H](OC(=O)n1c(C([NH-])=O)cc2ccc(CC(=O)N3CCN(C)CC3)cc21)C(=O)[O-] (nonaromatic ring conformer: 93.05782136443354 kcal/mol)

>  <smiles>  (11) 
CC(OC(=O)n1c(C(N)=O)cc2ccc(CC(=O)N3CCN(C)CC3)cc21)C(=O)O

>  <score_type>  (11) 
oracle

>  <origin>  (11) 
adg

>  <m_score__min__energy>  (11) 
-8.7699999999999996

>  <m_primary>  (11) 
energy

$$$$
11:0
     RDKit          3D

 44 46  0  0  0  0  0  0  0  0999 V2000
  140.9920  160.1040  135.1360 N   0  0  0  0  0  0  0  0  0  0  0  0
  141.6270  159.9230  133.8720 C   0  0  0  0  0  0  0  0  0  0  0  0
  140.9410  160.0030  132.8190 O   0  0  0  0  0  0  0  0  0  0  0  0
  143.0820  159.6750  133.8090 C   0  0  0  0  0  0  0  0  0  0  0  0
  144.0370  160.6860  133.7190 C   0  0  0  0  0  0  0  0  0  0  0  0
  145.2460  160.0360  133.5930 C   0  0  0  0  0  0  0  0  0  0  0  0
  146.5330  160.5500  133.4590 C   0  0  0  0  0  0  0  0  0  0  0  0
  147.5970  159.6390  133.3510 C   0  0  0  0  0  0  0  0  0  0  0  0
  147.3590  158.2420  133.3900 C   0  0  0  0  0  0  0  0  0  0  0  0
  148.5020  157.2760  133.2380 C   0  0  0  0  0  0  0  0  0  0  0  0
  148.0290  155.8700  133.4870 C   0  0  0  0  0  0  0  0  0  0  0  0
  148.0020  154.9340  132.4430 C   0  0  0  0  0  0  0  0  0  0  0  0
  147.5230  153.6450  132.6870 C   0  0  0  0  0  0  0  0  0  0  0  0
  147.0790  153.3010  133.9260 N   0  0  0  0  0  0  0  0  0  0  0  0
  147.0820  154.1950  134.9530 C   0  0  0  0  0  0  0  0  0  0  0  0
  147.5530  155.4950  134.7520 C   0  0  0  0  0  0  0  0  0  0  0  0
  146.0380  157.7570  133.5180 C   0  0  0  0  0  0  0  0  0  0  0  0
  145.0000  158.6880  133.6130 C   0  0  0  0  0  0  0  0  0  0  0  0
  143.6790  158.4500  133.7520 N   0  0  0  0  0  0  0  0  0  0  0  0
  143.0610  157.1580  133.8420 C   0  0  0  0  0  0  0  0  0  0  0  0
  143.5510  156.1880  133.2050 O   0  0  0  0  0  0  0  0  0  0  0  0
  141.8930  156.9390  134.7070 C   0  0  0  0  0  0  0  0  0  0  0  0
  141.8370  157.4850  135.8430 O   0  0  0  0  0  0  0  0  0  0  0  0
  140.8550  156.1140  134.2650 O   0  0  0  0  0  0  0  0  0  0  0  0
  140.0090  156.4610  133.1730 C   0  0  0  0  0  0  0  0  0  0  0  0
  138.7960  157.2300  133.6830 C   0  0  0  0  0  0  0  0  0  0  0  0
  139.1560  158.0720  134.7450 O   0  0  0  0  0  0  0  0  0  0  0  0
  140.6590  159.2840  135.6910 H   0  0  0  0  0  0  0  0  0  0  0  0
  143.8630  161.7719  133.7433 H   0  0  0  0  0  0  0  0  0  0  0  0
  146.7111  161.6353  133.4383 H   0  0  0  0  0  0  0  0  0  0  0  0
  148.6248  160.0133  133.2350 H   0  0  0  0  0  0  0  0  0  0  0  0
  148.9059  157.3483  132.2174 H   0  0  0  0  0  0  0  0  0  0  0  0
  149.2843  157.5269  133.9695 H   0  0  0  0  0  0  0  0  0  0  0  0
  148.3555  155.2130  131.4394 H   0  0  0  0  0  0  0  0  0  0  0  0
  147.5047  152.9046  131.8737 H   0  0  0  0  0  0  0  0  0  0  0  0
  146.7230  152.3340  134.0930 H   0  0  0  0  0  0  0  0  0  0  0  0
  146.7125  153.8928  135.9440 H   0  0  0  0  0  0  0  0  0  0  0  0
  147.5505  156.2192  135.5799 H   0  0  0  0  0  0  0  0  0  0  0  0
  145.8323  156.6767  133.5422 H   0  0  0  0  0  0  0  0  0  0  0  0
  140.5677  157.0892  132.4636 H   0  0  0  0  0  0  0  0  0  0  0  0
  139.6714  155.5431  132.6695 H   0  0  0  0  0  0  0  0  0  0  0  0
  138.3826  157.8373  132.8643 H   0  0  0  0  0  0  0  0  0  0  0  0
  138.0445  156.5105  134.0401 H   0  0  0  0  0  0  0  0  0  0  0  0
  140.1420  158.1800  134.7000 H   0  0  0  0  0  0  0  0  0  0  0  0
  1  2  1  0
  2  3  2  0
  2  4  1  0
  4  5  2  0
  5  6  1  0
  6  7  2  0
  7  8  1  0
  8  9  2  0
  9 10  1  0
 10 11  1  0
 11 12  2  0
 12 13  1  0
 13 14  2  0
 14 15  1  0
 15 16  2  0
  9 17  1  0
 17 18  2  0
 18 19  1  0
 19 20  1  0
 20 21  2  0
 20 22  1  0
 22 23  2  0
 22 24  1  0
 24 25  1  0
 25 26  1  0
 26 27  1  0
 19  4  1  0
 18  6  1  0
 16 11  1  0
  1 28  1  0
  5 29  1  0
  7 30  1  0
  8 31  1  0
 10 32  1  0
 10 33  1  0
 12 34  1  0
 13 35  1  0
 14 36  1  0
 15 37  1  0
 16 38  1  0
 17 39  1  0
 25 40  1  0
 25 41  1  0
 26 42  1  0
 26 43  1  0
 27 44  1  0
M  CHG  2   1  -1  14   1
M  END
>  <UniqueID>  (12) 
11

>  <SMILES>  (12) 
[NH-]C(=O)c1cc2ccc(Cc3cc[nH+]cc3)cc2n1C(=O)C(=O)OCCO

>  <Energy>  (12) 
79.12910495890851

>  <Genealogy>  (12) 
[NH-]C(=O)c1cc2ccc(Cc3cc[nH+]cc3)cc2n1C(=O)C(=O)OCCO (protonated)
[NH-]C(=O)c1cc2ccc(Cc3cc[nH+]cc3)cc2n1C(=O)C(=O)OCCO (3D coordinates assigned)
[NH-]C(=O)c1cc2ccc(Cc3cc[nH+]cc3)cc2n1C(=O)C(=O)OCCO (optimized conformer: 79.12910495890851 kcal/mol)

>  <smiles>  (12) 
NC(=O)c1cc2ccc(Cc3ccncc3)cc2n1C(=O)C(=O)OCCO

>  <score_type>  (12) 
oracle

>  <origin>  (12) 
adg

>  <m_score__min__energy>  (12) 
-6.1699999999999999

>  <m_primary>  (12) 
energy

$$$$
12:0
     RDKit          3D

 38 39  0  0  0  0  0  0  0  0999 V2000
  151.8230  149.0020  129.1770 C   0  0  0  0  0  0  0  0  0  0  0  0
  150.9560  149.2080  130.2860 O   0  0  0  0  0  0  0  0  0  0  0  0
  150.2970  150.4210  130.5170 C   0  0  0  0  0  0  0  0  0  0  0  0
  150.2060  151.2770  129.5930 O   0  0  0  0  0  0  0  0  0  0  0  0
  149.7180  150.6890  131.8080 N   0  0  0  0  0  0  0  0  0  0  0  0
  148.5550  149.9160  132.2530 C   0  0  0  0  0  0  0  0  0  0  0  0
  150.2790  151.7480  132.6580 C   0  0  0  0  0  0  0  0  0  0  0  0
  149.2930  152.8150  132.8490 C   0  0  0  0  0  0  0  0  0  0  0  0
  148.4690  153.6810  133.0070 C   0  0  0  0  0  0  0  0  0  0  0  0
  147.4970  154.7250  133.1910 C   0  0  0  0  0  0  0  0  0  0  0  0
  146.1520  154.3960  133.4730 C   0  0  0  0  0  0  0  0  0  0  0  0
  145.1920  155.4080  133.6410 C   0  0  0  0  0  0  0  0  0  0  0  0
  145.6140  156.7310  133.5300 C   0  0  0  0  0  0  0  0  0  0  0  0
  144.8900  157.8980  133.6150 C   0  0  0  0  0  0  0  0  0  0  0  0
  145.8150  158.9190  133.4130 C   0  0  0  0  0  0  0  0  0  0  0  0
  145.4680  160.3510  133.4880 C   0  0  0  0  0  0  0  0  0  0  0  0
  146.4660  161.3420  133.7330 N   0  0  0  0  0  0  0  0  0  0  0  0
  144.2610  160.7010  133.3910 O   0  0  0  0  0  0  0  0  0  0  0  0
  147.0590  158.4080  133.1970 N   0  0  0  0  0  0  0  0  0  0  0  0
  148.2520  159.1310  132.8410 C   0  0  0  0  0  0  0  0  0  0  0  0
  148.8750  159.7970  133.7100 O   0  0  0  0  0  0  0  0  0  0  0  0
  148.7300  159.1050  131.5370 O   0  0  0  0  0  0  0  0  0  0  0  0
  146.9210  157.0640  133.2750 C   0  0  0  0  0  0  0  0  0  0  0  0
  147.8920  156.0730  133.0830 C   0  0  0  0  0  0  0  0  0  0  0  0
  152.8330  148.7620  129.5408 H   0  0  0  0  0  0  0  0  0  0  0  0
  151.4456  148.1685  128.5664 H   0  0  0  0  0  0  0  0  0  0  0  0
  151.8608  149.9162  128.5664 H   0  0  0  0  0  0  0  0  0  0  0  0
  148.5263  149.8969  133.3525 H   0  0  0  0  0  0  0  0  0  0  0  0
  147.6358  150.3835  131.8703 H   0  0  0  0  0  0  0  0  0  0  0  0
  148.6301  148.8875  131.8703 H   0  0  0  0  0  0  0  0  0  0  0  0
  150.5505  151.3241  133.6360 H   0  0  0  0  0  0  0  0  0  0  0  0
  151.1722  152.1659  132.1705 H   0  0  0  0  0  0  0  0  0  0  0  0
  145.8547  153.3407  133.5616 H   0  0  0  0  0  0  0  0  0  0  0  0
  144.1408  155.1635  133.8534 H   0  0  0  0  0  0  0  0  0  0  0  0
  143.8111  158.0021  133.8025 H   0  0  0  0  0  0  0  0  0  0  0  0
  147.4430  161.0720  133.9800 H   0  0  0  0  0  0  0  0  0  0  0  0
  146.2090  162.3540  133.7490 H   0  0  0  0  0  0  0  0  0  0  0  0
  148.9343  156.3399  132.8542 H   0  0  0  0  0  0  0  0  0  0  0  0
  1  2  1  0
  2  3  1  0
  3  4  2  0
  3  5  1  0
  5  6  1  0
  5  7  1  0
  7  8  1  0
  8  9  3  0
  9 10  1  0
 10 11  2  0
 11 12  1  0
 12 13  2  0
 13 14  1  0
 14 15  2  0
 15 16  1  0
 16 17  1  0
 16 18  2  0
 15 19  1  0
 19 20  1  0
 20 21  2  0
 20 22  1  0
 19 23  1  0
 23 24  2  0
 24 10  1  0
 23 13  1  0
  1 25  1  0
  1 26  1  0
  1 27  1  0
  6 28  1  0
  6 29  1  0
  6 30  1  0
  7 31  1  0
  7 32  1  0
 11 33  1  0
 12 34  1  0
 14 35  1  0
 17 36  1  0
 17 37  1  0
 24 38  1  0
M  CHG  1  22  -1
M  END
>  <UniqueID>  (13) 
12

>  <SMILES>  (13) 
COC(=O)N(C)CC#Cc1ccc2cc(C(N)=O)n(C(=O)[O-])c2c1

>  <Energy>  (13) 
68.28328544923457

>  <Genealogy>  (13) 
COC(=O)N(C)CC#Cc1ccc2cc(C(N)=O)n(C(=O)[O-])c2c1 (protonated)
COC(=O)N(C)CC#Cc1ccc2cc(C(N)=O)n(C(=O)[O-])c2c1 (3D coordinates assigned)
COC(=O)N(C)CC#Cc1ccc2cc(C(N)=O)n(C(=O)[O-])c2c1 (optimized conformer: 68.28328544923457 kcal/mol)

>  <smiles>  (13) 
COC(=O)N(C)CC#Cc1ccc2cc(C(N)=O)n(C(=O)O)c2c1

>  <score_type>  (13) 
oracle

>  <origin>  (13) 
adg

>  <m_score__min__energy>  (13) 
-6.8399999999999999

>  <m_primary>  (13) 
energy

$$$$
13:0
     RDKit          3D

 53 55  0  0  0  0  0  0  0  0999 V2000
  141.3450  151.1180  141.1070 C   0  0  0  0  0  0  0  0  0  0  0  0
  140.6060  152.1740  140.3990 N   0  0  0  0  0  0  0  0  0  0  0  0
  140.9960  152.2400  138.9650 C   0  0  0  0  0  0  0  0  0  0  0  0
  141.7810  153.5080  138.5950 C   0  0  0  0  0  0  0  0  0  0  0  0
  141.0470  154.7020  139.0320 N   0  0  0  0  0  0  0  0  0  0  0  0
  141.1440  155.9410  138.2960 C   0  0  0  0  0  0  0  0  0  0  0  0
  141.5520  157.1370  138.9460 C   0  0  0  0  0  0  0  0  0  0  0  0
  141.6650  158.3430  138.2340 C   0  0  0  0  0  0  0  0  0  0  0  0
  141.3560  158.3310  136.8780 C   0  0  0  0  0  0  0  0  0  0  0  0
  141.4140  159.3440  135.9470 C   0  0  0  0  0  0  0  0  0  0  0  0
  141.0160  158.7630  134.7450 C   0  0  0  0  0  0  0  0  0  0  0  0
  140.8700  159.5160  133.4820 C   0  0  0  0  0  0  0  0  0  0  0  0
  139.6390  159.4660  132.7640 N   0  0  0  0  0  0  0  0  0  0  0  0
  141.8320  160.1770  133.0110 O   0  0  0  0  0  0  0  0  0  0  0  0
  140.7240  157.4450  134.9260 N   0  0  0  0  0  0  0  0  0  0  0  0
  140.3590  156.4780  133.9300 C   0  0  0  0  0  0  0  0  0  0  0  0
  139.2380  156.5600  133.3600 O   0  0  0  0  0  0  0  0  0  0  0  0
  141.2400  155.4370  133.6180 O   0  0  0  0  0  0  0  0  0  0  0  0
  140.8540  154.0650  133.5310 C   0  0  0  0  0  0  0  0  0  0  0  0
  141.9630  153.1260  134.0690 C   0  0  0  0  0  0  0  0  0  0  0  0
  142.6310  153.7630  135.3070 C   0  0  0  0  0  0  0  0  0  0  0  0
  143.0370  152.9370  132.9780 C   0  0  0  0  0  0  0  0  0  0  0  0
  141.3720  151.7740  134.4230 C   0  0  0  0  0  0  0  0  0  0  0  0
  141.1680  150.9140  133.5240 O   0  0  0  0  0  0  0  0  0  0  0  0
  140.9940  151.4800  135.7300 O   0  0  0  0  0  0  0  0  0  0  0  0
  140.9380  157.1960  136.2370 C   0  0  0  0  0  0  0  0  0  0  0  0
  140.8320  155.9770  136.9150 C   0  0  0  0  0  0  0  0  0  0  0  0
  140.2640  154.6380  140.2730 C   0  0  0  0  0  0  0  0  0  0  0  0
  140.7210  153.4550  141.1310 C   0  0  0  0  0  0  0  0  0  0  0  0
  141.2430  151.2638  142.1925 H   0  0  0  0  0  0  0  0  0  0  0  0
  140.9365  150.1352  140.8290 H   0  0  0  0  0  0  0  0  0  0  0  0
  142.4083  151.1651  140.8290 H   0  0  0  0  0  0  0  0  0  0  0  0
  141.6216  151.3650  138.7348 H   0  0  0  0  0  0  0  0  0  0  0  0
  140.0649  152.2567  138.3796 H   0  0  0  0  0  0  0  0  0  0  0  0
  142.7638  153.4843  139.0885 H   0  0  0  0  0  0  0  0  0  0  0  0
  141.9109  153.5450  137.5033 H   0  0  0  0  0  0  0  0  0  0  0  0
  141.7826  157.1184  140.0214 H   0  0  0  0  0  0  0  0  0  0  0  0
  141.9879  159.2682  138.7337 H   0  0  0  0  0  0  0  0  0  0  0  0
  141.7113  160.3894  136.1164 H   0  0  0  0  0  0  0  0  0  0  0  0
  139.0060  158.6380  132.8420 H   0  0  0  0  0  0  0  0  0  0  0  0
  139.9393  153.9131  134.1229 H   0  0  0  0  0  0  0  0  0  0  0  0
  140.6811  153.8224  132.4721 H   0  0  0  0  0  0  0  0  0  0  0  0
  142.1879  153.3405  136.2209 H   0  0  0  0  0  0  0  0  0  0  0  0
  143.7103  153.5512  135.2910 H   0  0  0  0  0  0  0  0  0  0  0  0
  142.4706  154.8511  135.2910 H   0  0  0  0  0  0  0  0  0  0  0  0
  144.0147  152.7649  133.4518 H   0  0  0  0  0  0  0  0  0  0  0  0
  142.7754  152.0711  132.3521 H   0  0  0  0  0  0  0  0  0  0  0  0
  143.0868  153.8402  132.3521 H   0  0  0  0  0  0  0  0  0  0  0  0
  140.5132  155.0662  136.3870 H   0  0  0  0  0  0  0  0  0  0  0  0
  140.4035  155.5712  140.8383 H   0  0  0  0  0  0  0  0  0  0  0  0
  139.2020  154.5057  140.0188 H   0  0  0  0  0  0  0  0  0  0  0  0
  141.7714  153.6081  141.4196 H   0  0  0  0  0  0  0  0  0  0  0  0
  140.0731  153.4033  142.0184 H   0  0  0  0  0  0  0  0  0  0  0  0
  1  2  1  0
  2  3  1  0
  3  4  1  0
  4  5  1  0
  5  6  1  0
  6  7  2  0
  7  8  1  0
  8  9  2  0
  9 10  1  0
 10 11  2  0
 11 12  1  0
 12 13  1  0
 12 14  2  0
 11 15  1  0
 15 16  1  0
 16 17  2  0
 16 18  1  0
 18 19  1  0
 19 20  1  0
 20 21  1  0
 20 22  1  0
 20 23  1  0
 23 24  2  0
 23 25  1  0
 15 26  1  0
 26 27  2  0
  5 28  1  0
 28 29  1  0
 29  2  1  0
 27  6  1  0
 26  9  1  0
  1 30  1  0
  1 31  1  0
  1 32  1  0
  3 33  1  0
  3 34  1  0
  4 35  1  0
  4 36  1  0
  7 37  1  0
  8 38  1  0
 10 39  1  0
 13 40  1  0
 19 41  1  0
 19 42  1  0
 21 43  1  0
 21 44  1  0
 21 45  1  0
 22 46  1  0
 22 47  1  0
 22 48  1  0
 27 49  1  0
 28 50  1  0
 28 51  1  0
 29 52  1  0
 29 53  1  0
M  CHG  2  13  -1  25  -1
M  END
>  <UniqueID>  (14) 
13

>  <SMILES>  (14) 
CN1CCN(c2ccc3cc(C([NH-])=O)n(C(=O)OCC(C)(C)C(=O)[O-])c3c2)CC1

>  <Energy>  (14) 
98.23357672117253

>  <Genealogy>  (14) 
CN1CCN(c2ccc3cc(C([NH-])=O)n(C(=O)OCC(C)(C)C(=O)[O-])c3c2)CC1 (protonated)
CN1CCN(c2ccc3cc(C([NH-])=O)n(C(=O)OCC(C)(C)C(=O)[O-])c3c2)CC1 (3D coordinates assigned)
CN1CCN(c2ccc3cc(C([NH-])=O)n(C(=O)OCC(C)(C)C(=O)[O-])c3c2)CC1 (nonaromatic ring conformer: 98.23357672117253 kcal/mol)

>  <smiles>  (14) 
CN1CCN(c2ccc3cc(C(N)=O)n(C(=O)OCC(C)(C)C(=O)O)c3c2)CC1

>  <score_type>  (14) 
oracle

>  <origin>  (14) 
adg

>  <m_score__min__energy>  (14) 
-8.1699999999999999

>  <m_primary>  (14) 
energy

$$$$
14:0
     RDKit          3D

 42 44  0  0  0  0  0  0  0  0999 V2000
  141.6990  155.6570  138.8280 C   0  0  0  0  0  0  0  0  0  0  0  0
  141.3960  156.6960  137.7910 C   0  0  0  0  0  0  0  0  0  0  0  0
  141.5910  158.0690  138.0810 C   0  0  0  0  0  0  0  0  0  0  0  0
  141.3340  159.0500  137.1080 C   0  0  0  0  0  0  0  0  0  0  0  0
  140.9050  158.6270  135.8540 C   0  0  0  0  0  0  0  0  0  0  0  0
  140.5600  159.3600  134.7390 C   0  0  0  0  0  0  0  0  0  0  0  0
  140.1950  158.4190  133.7760 C   0  0  0  0  0  0  0  0  0  0  0  0
  139.7980  158.7710  132.3970 C   0  0  0  0  0  0  0  0  0  0  0  0
  138.5580  158.3260  131.8510 N   0  0  0  0  0  0  0  0  0  0  0  0
  140.5800  159.4480  131.6770 O   0  0  0  0  0  0  0  0  0  0  0  0
  140.3120  157.1570  134.2770 N   0  0  0  0  0  0  0  0  0  0  0  0
  139.9560  155.9210  133.6390 C   0  0  0  0  0  0  0  0  0  0  0  0
  138.7610  155.7310  133.2940 O   0  0  0  0  0  0  0  0  0  0  0  0
  140.9950  154.9100  133.3560 C   0  0  0  0  0  0  0  0  0  0  0  0
  142.2020  155.2650  133.4090 O   0  0  0  0  0  0  0  0  0  0  0  0
  140.7080  153.5390  133.0300 N   0  0  0  0  0  0  0  0  0  0  0  0
  141.4940  152.3320  133.3110 C   0  0  1  0  0  0  0  0  0  0  0  0
  141.7340  152.1960  134.8240 C   0  0  0  0  0  0  0  0  0  0  0  0
  140.9030  151.1090  132.6230 C   0  0  0  0  0  0  0  0  0  0  0  0
  141.7020  149.9640  132.4530 C   0  0  0  0  0  0  0  0  0  0  0  0
  141.1680  148.8210  131.8550 C   0  0  0  0  0  0  0  0  0  0  0  0
  139.8700  148.8040  131.4550 N   0  0  0  0  0  0  0  0  0  0  0  0
  139.0600  149.8800  131.6260 C   0  0  0  0  0  0  0  0  0  0  0  0
  139.5530  151.0440  132.2210 C   0  0  0  0  0  0  0  0  0  0  0  0
  140.7440  157.3010  135.5480 C   0  0  0  0  0  0  0  0  0  0  0  0
  140.9740  156.3030  136.5020 C   0  0  0  0  0  0  0  0  0  0  0  0
  141.5722  156.0916  139.8305 H   0  0  0  0  0  0  0  0  0  0  0  0
  141.0113  154.8070  138.7073 H   0  0  0  0  0  0  0  0  0  0  0  0
  142.7358  155.3099  138.7073 H   0  0  0  0  0  0  0  0  0  0  0  0
  141.9470  158.3701  139.0773 H   0  0  0  0  0  0  0  0  0  0  0  0
  141.4679  160.1188  137.3310 H   0  0  0  0  0  0  0  0  0  0  0  0
  140.5703  160.4547  134.6313 H   0  0  0  0  0  0  0  0  0  0  0  0
  138.0670  157.4930  132.2440 H   0  0  0  0  0  0  0  0  0  0  0  0
  142.4962  152.4223  132.8666 H   0  0  0  0  0  0  0  0  0  0  0  0
  140.9036  152.6666  135.3707 H   0  0  0  0  0  0  0  0  0  0  0  0
  141.7922  151.1307  135.0917 H   0  0  0  0  0  0  0  0  0  0  0  0
  142.6778  152.6935  135.0917 H   0  0  0  0  0  0  0  0  0  0  0  0
  142.7486  149.9691  132.7915 H   0  0  0  0  0  0  0  0  0  0  0  0
  141.7996  147.9326  131.7075 H   0  0  0  0  0  0  0  0  0  0  0  0
  138.0119  149.8352  131.2950 H   0  0  0  0  0  0  0  0  0  0  0  0
  138.8896  151.9077  132.3755 H   0  0  0  0  0  0  0  0  0  0  0  0
  140.8299  155.2410  136.2543 H   0  0  0  0  0  0  0  0  0  0  0  0
  1  2  1  0
  2  3  2  0
  3  4  1  0
  4  5  2  0
  5  6  1  0
  6  7  2  0
  7  8  1  0
  8  9  1  0
  8 10  2  0
  7 11  1  0
 11 12  1  0
 12 13  2  0
 12 14  1  0
 14 15  2  0
 14 16  1  0
 16 17  1  0
 17 18  1  0
 17 19  1  0
 19 20  2  0
 20 21  1  0
 21 22  2  0
 22 23  1  0
 23 24  2  0
 11 25  1  0
 25 26  2  0
 26  2  1  0
 25  5  1  0
 24 19  1  0
  1 27  1  0
  1 28  1  0
  1 29  1  0
  3 30  1  0
  4 31  1  0
  6 32  1  0
  9 33  1  0
 17 34  1  6
 18 35  1  0
 18 36  1  0
 18 37  1  0
 20 38  1  0
 21 39  1  0
 23 40  1  0
 24 41  1  0
 26 42  1  0
M  CHG  2   9  -1  16  -1
M  END
>  <UniqueID>  (15) 
14

>  <SMILES>  (15) 
Cc1ccc2cc(C([NH-])=O)n(C(=O)C(=O)[N-][C@@H](C)c3ccncc3)c2c1

>  <Energy>  (15) 
88.73702788883283

>  <Genealogy>  (15) 
Cc1ccc2cc(C([NH-])=O)n(C(=O)C(=O)[N-]C(C)c3ccncc3)c2c1 (protonated)
Cc1ccc2cc(C([NH-])=O)n(C(=O)C(=O)[N-][C@@H](C)c3ccncc3)c2c1 (chirality)
Cc1ccc2cc(C([NH-])=O)n(C(=O)C(=O)[N-][C@@H](C)c3ccncc3)c2c1 (3D coordinates assigned)
Cc1ccc2cc(C([NH-])=O)n(C(=O)C(=O)[N-][C@@H](C)c3ccncc3)c2c1 (optimized conformer: 88.73702788883283 kcal/mol)

>  <smiles>  (15) 
Cc1ccc2cc(C(N)=O)n(C(=O)C(=O)NC(C)c3ccncc3)c2c1

>  <score_type>  (15) 
oracle

>  <origin>  (15) 
adg

>  <m_score__min__energy>  (15) 
-8.3000000000000007

>  <m_primary>  (15) 
energy

$$$$
15:0
     RDKit          3D

 31 32  0  0  0  0  0  0  0  0999 V2000
  148.4790  161.4840  131.2080 N   0  0  0  0  0  0  0  0  0  0  0  0
  149.2640  160.2970  131.2690 C   0  0  0  0  0  0  0  0  0  0  0  0
  150.4100  160.2870  130.7470 O   0  0  0  0  0  0  0  0  0  0  0  0
  148.7470  159.1090  131.9800 C   0  0  0  0  0  0  0  0  0  0  0  0
  149.3390  157.8500  131.9030 C   0  0  0  0  0  0  0  0  0  0  0  0
  148.5160  157.0150  132.6230 C   0  0  0  0  0  0  0  0  0  0  0  0
  148.6260  155.6510  132.8750 C   0  0  0  0  0  0  0  0  0  0  0  0
  147.6390  155.0470  133.6710 C   0  0  0  0  0  0  0  0  0  0  0  0
  146.5780  155.8130  134.2180 C   0  0  0  0  0  0  0  0  0  0  0  0
  145.5040  155.1450  135.0390 C   0  0  0  0  0  0  0  0  0  0  0  0
  145.9940  154.7770  136.2800 F   0  0  0  0  0  0  0  0  0  0  0  0
  145.0620  154.0170  134.3760 F   0  0  0  0  0  0  0  0  0  0  0  0
  144.4340  156.0020  135.2340 F   0  0  0  0  0  0  0  0  0  0  0  0
  146.4890  157.1930  133.9180 C   0  0  0  0  0  0  0  0  0  0  0  0
  147.4770  157.7650  133.1080 C   0  0  0  0  0  0  0  0  0  0  0  0
  147.6050  159.0550  132.7240 N   0  0  0  0  0  0  0  0  0  0  0  0
  146.7530  160.1490  133.1010 C   0  0  0  0  0  0  0  0  0  0  0  0
  147.2410  161.1550  133.6840 O   0  0  0  0  0  0  0  0  0  0  0  0
  145.3890  160.1000  132.8020 O   0  0  0  0  0  0  0  0  0  0  0  0
  144.3860  160.5430  133.7090 C   0  0  0  0  0  0  0  0  0  0  0  0
  143.0190  159.3520  133.7120 P   0  0  0  0  0  0  0  0  0  0  0  0
  143.3130  158.2440  132.7280 O   0  0  0  0  0  0  0  0  0  0  0  0
  141.5880  160.1360  133.2670 O   0  0  0  0  0  0  0  0  0  0  0  0
  142.8440  158.6980  135.2620 O   0  0  0  0  0  0  0  0  0  0  0  0
  148.1060  161.9260  132.0760 H   0  0  0  0  0  0  0  0  0  0  0  0
  150.2674  157.5808  131.3780 H   0  0  0  0  0  0  0  0  0  0  0  0
  149.4602  155.0639  132.4635 H   0  0  0  0  0  0  0  0  0  0  0  0
  147.6895  153.9668  133.8726 H   0  0  0  0  0  0  0  0  0  0  0  0
  145.6624  157.8023  134.3123 H   0  0  0  0  0  0  0  0  0  0  0  0
  144.8115  160.6176  134.7206 H   0  0  0  0  0  0  0  0  0  0  0  0
  144.0155  161.5308  133.3975 H   0  0  0  0  0  0  0  0  0  0  0  0
  1  2  1  0
  2  3  2  0
  2  4  1  0
  4  5  2  0
  5  6  1  0
  6  7  2  0
  7  8  1  0
  8  9  2  0
  9 10  1  0
 10 11  1  0
 10 12  1  0
 10 13  1  0
  9 14  1  0
 14 15  2  0
 15 16  1  0
 16 17  1  0
 17 18  2  0
 17 19  1  0
 19 20  1  0
 20 21  1  0
 21 22  2  0
 21 23  1  0
 21 24  1  0
 16  4  1  0
 15  6  1  0
  1 25  1  0
  5 26  1  0
  7 27  1  0
  8 28  1  0
 14 29  1  0
 20 30  1  0
 20 31  1  0
M  CHG  3   1  -1  23  -1  24  -1
M  END
>  <UniqueID>  (16) 
15

>  <SMILES>  (16) 
[NH-]C(=O)c1cc2ccc(C(F)(F)F)cc2n1C(=O)OCP(=O)([O-])[O-]

>  <Energy>  (16) 
64.60958245781349

>  <Genealogy>  (16) 
[NH-]C(=O)c1cc2ccc(C(F)(F)F)cc2n1C(=O)OCP(=O)([O-])[O-] (protonated)
[NH-]C(=O)c1cc2ccc(C(F)(F)F)cc2n1C(=O)OCP(=O)([O-])[O-] (3D coordinates assigned)
[NH-]C(=O)c1cc2ccc(C(F)(F)F)cc2n1C(=O)OCP(=O)([O-])[O-] (optimized conformer: 64.60958245781349 kcal/mol)

>  <smiles>  (16) 
NC(=O)c1cc2ccc(C(F)(F)F)cc2n1C(=O)OCP(=O)(O)O

>  <score_type>  (16) 
oracle

>  <origin>  (16) 
adg

>  <m_score__min__energy>  (16) 
-5.7599999999999998

>  <m_primary>  (16) 
energy

$$$$
16:0
     RDKit          3D

 48 51  0  0  0  0  0  0  0  0999 V2000
  144.4160  161.2600  134.1580 C   0  0  0  0  0  0  0  0  0  0  0  0
  145.2210  160.4140  133.8510 C   0  0  0  0  0  0  0  0  0  0  0  0
  146.1780  159.4010  133.4900 C   0  0  0  0  0  0  0  0  0  0  0  0
  147.3530  159.7600  132.7860 C   0  0  0  0  0  0  0  0  0  0  0  0
  148.2940  158.7790  132.4240 C   0  0  0  0  0  0  0  0  0  0  0  0
  148.0320  157.4590  132.7840 C   0  0  0  0  0  0  0  0  0  0  0  0
  148.7870  156.3190  132.6050 C   0  0  0  0  0  0  0  0  0  0  0  0
  148.0530  155.2930  133.2050 C   0  0  0  0  0  0  0  0  0  0  0  0
  148.5260  153.8980  133.3140 C   0  0  0  0  0  0  0  0  0  0  0  0
  147.8350  152.9350  134.1120 N   0  0  0  0  0  0  0  0  0  0  0  0
  149.5470  153.5400  132.6670 O   0  0  0  0  0  0  0  0  0  0  0  0
  146.8960  155.7840  133.7290 N   0  0  0  0  0  0  0  0  0  0  0  0
  145.9420  155.1040  134.5540 C   0  0  0  0  0  0  0  0  0  0  0  0
  146.2680  154.8180  135.7380 O   0  0  0  0  0  0  0  0  0  0  0  0
  144.6580  154.6880  134.0240 N   0  0  0  0  0  0  0  0  0  0  0  0
  144.4560  153.3010  133.5720 C   0  0  0  0  0  0  0  0  0  0  0  0
  143.1250  152.6960  134.0740 C   0  0  1  0  0  0  0  0  0  0  0  0
  142.7840  153.1420  135.5070 C   0  0  0  0  0  0  0  0  0  0  0  0
  142.2390  154.5850  135.5580 C   0  0  0  0  0  0  0  0  0  0  0  0
  142.2240  155.2830  134.1740 C   0  0  1  0  0  0  0  0  0  0  0  0
  143.6360  155.7010  133.7080 C   0  0  0  0  0  0  0  0  0  0  0  0
  141.5770  154.4580  133.1230 N   0  0  0  0  0  0  0  0  0  0  0  0
  140.1130  154.6290  133.1130 C   0  0  0  0  0  0  0  0  0  0  0  0
  141.9490  153.0200  133.1330 C   0  0  0  0  0  0  0  0  0  0  0  0
  146.8950  157.1040  133.4610 C   0  0  0  0  0  0  0  0  0  0  0  0
  145.9430  158.0540  133.8380 C   0  0  0  0  0  0  0  0  0  0  0  0
  143.6827  162.0307  134.4377 H   0  0  0  0  0  0  0  0  0  0  0  0
  147.5310  160.8125  132.5205 H   0  0  0  0  0  0  0  0  0  0  0  0
  149.2083  159.0459  131.8738 H   0  0  0  0  0  0  0  0  0  0  0  0
  149.7596  156.2354  132.0980 H   0  0  0  0  0  0  0  0  0  0  0  0
  146.8870  153.1330  134.4990 H   0  0  0  0  0  0  0  0  0  0  0  0
  148.2220  151.9680  134.2160 H   0  0  0  0  0  0  0  0  0  0  0  0
  144.4563  153.2861  132.4721 H   0  0  0  0  0  0  0  0  0  0  0  0
  145.2737  152.6943  133.9882 H   0  0  0  0  0  0  0  0  0  0  0  0
  143.2764  151.6065  134.0795 H   0  0  0  0  0  0  0  0  0  0  0  0
  142.0230  152.4619  135.9174 H   0  0  0  0  0  0  0  0  0  0  0  0
  143.7111  153.1117  136.0982 H   0  0  0  0  0  0  0  0  0  0  0  0
  141.2101  154.5563  135.9459 H   0  0  0  0  0  0  0  0  0  0  0  0
  142.9106  155.1646  136.2084 H   0  0  0  0  0  0  0  0  0  0  0  0
  141.6210  156.1916  134.3184 H   0  0  0  0  0  0  0  0  0  0  0  0
  143.6168  155.8548  132.6190 H   0  0  0  0  0  0  0  0  0  0  0  0
  143.9044  156.6242  134.2425 H   0  0  0  0  0  0  0  0  0  0  0  0
  139.7418  154.6724  134.1476 H   0  0  0  0  0  0  0  0  0  0  0  0
  139.8565  155.5632  132.5920 H   0  0  0  0  0  0  0  0  0  0  0  0
  139.6481  153.7790  132.5920 H   0  0  0  0  0  0  0  0  0  0  0  0
  141.0741  152.4363  133.4553 H   0  0  0  0  0  0  0  0  0  0  0  0
  142.2701  152.7618  132.1131 H   0  0  0  0  0  0  0  0  0  0  0  0
  145.0375  157.7609  134.3895 H   0  0  0  0  0  0  0  0  0  0  0  0
  1  2  3  0
  2  3  1  0
  3  4  2  0
  4  5  1  0
  5  6  2  0
  6  7  1  0
  7  8  2  0
  8  9  1  0
  9 10  1  0
  9 11  2  0
  8 12  1  0
 12 13  1  0
 13 14  2  0
 13 15  1  0
 15 16  1  0
 16 17  1  0
 17 18  1  0
 18 19  1  0
 19 20  1  0
 20 21  1  0
 20 22  1  0
 22 23  1  0
 22 24  1  0
 12 25  1  0
 25 26  2  0
 26  3  1  0
 25  6  1  0
 21 15  1  0
 24 17  1  0
  1 27  1  0
  4 28  1  0
  5 29  1  0
  7 30  1  0
 10 31  1  0
 10 32  1  0
 16 33  1  0
 16 34  1  0
 17 35  1  1
 18 36  1  0
 18 37  1  0
 19 38  1  0
 19 39  1  0
 20 40  1  1
 21 41  1  0
 21 42  1  0
 23 43  1  0
 23 44  1  0
 23 45  1  0
 24 46  1  0
 24 47  1  0
 26 48  1  0
M  END
>  <UniqueID>  (17) 
16

>  <SMILES>  (17) 
C#Cc1ccc2cc(C(N)=O)n(C(=O)N3C[C@H]4CC[C@@H](C3)N(C)C4)c2c1

>  <Energy>  (17) 
105.5730309817431

>  <Genealogy>  (17) 
C#Cc1ccc2cc(C(N)=O)n(C(=O)N3C[C@H]4CC[C@@H](C3)N(C)C4)c2c1 (chirality)
C#Cc1ccc2cc(C(N)=O)n(C(=O)N3C[C@H]4CC[C@@H](C3)N(C)C4)c2c1 (3D coordinates assigned)
C#Cc1ccc2cc(C(N)=O)n(C(=O)N3C[C@H]4CC[C@@H](C3)N(C)C4)c2c1 (nonaromatic ring conformer: 105.5730309817431 kcal/mol)

>  <smiles>  (17) 
C#Cc1ccc2cc(C(N)=O)n(C(=O)N3CC4CCC(C3)N(C)C4)c2c1

>  <score_type>  (17) 
oracle

>  <origin>  (17) 
adg

>  <m_score__min__energy>  (17) 
-7.7800000000000002

>  <m_primary>  (17) 
energy

$$$$
17:0
     RDKit          3D

 36 37  0  0  0  0  0  0  0  0999 V2000
  140.5900  156.3200  134.7970 N   0  0  0  0  0  0  0  0  0  0  0  0
  141.7310  156.2440  133.9460 C   0  0  0  0  0  0  0  0  0  0  0  0
  141.9130  155.2120  133.2480 O   0  0  0  0  0  0  0  0  0  0  0  0
  142.6620  157.3910  133.8610 C   0  0  0  0  0  0  0  0  0  0  0  0
  143.9510  157.2940  133.3420 C   0  0  0  0  0  0  0  0  0  0  0  0
  144.5110  158.5380  133.5220 C   0  0  0  0  0  0  0  0  0  0  0  0
  145.7730  159.0100  133.1740 C   0  0  0  0  0  0  0  0  0  0  0  0
  146.0740  160.3540  133.4520 C   0  0  0  0  0  0  0  0  0  0  0  0
  145.1170  161.1930  134.0710 C   0  0  0  0  0  0  0  0  0  0  0  0
  145.4320  162.6400  134.3150 C   0  0  0  0  0  0  0  0  0  0  0  0
  144.4180  163.4260  133.8000 F   0  0  0  0  0  0  0  0  0  0  0  0
  143.8390  160.6850  134.3950 C   0  0  0  0  0  0  0  0  0  0  0  0
  143.5740  159.3370  134.1240 C   0  0  0  0  0  0  0  0  0  0  0  0
  142.4300  158.6480  134.3350 N   0  0  0  0  0  0  0  0  0  0  0  0
  141.2150  159.1710  134.8970 C   0  0  0  0  0  0  0  0  0  0  0  0
  141.0180  159.1000  136.1400 O   0  0  0  0  0  0  0  0  0  0  0  0
  140.2460  159.7270  134.0550 O   0  0  0  0  0  0  0  0  0  0  0  0
  140.2510  159.5930  132.6340 C   0  0  0  0  0  0  0  0  0  0  0  0
  139.2800  158.4940  132.1870 C   0  0  0  0  0  0  0  0  0  0  0  0
  138.6690  158.7400  130.8010 C   0  0  0  0  0  0  0  0  0  0  0  0
  138.0180  160.0870  130.7090 C   0  0  0  0  0  0  0  0  0  0  0  0
  138.7220  161.1280  130.6340 O   0  0  0  0  0  0  0  0  0  0  0  0
  136.6340  160.1920  130.7080 O   0  0  0  0  0  0  0  0  0  0  0  0
  140.3360  157.2110  135.2770 H   0  0  0  0  0  0  0  0  0  0  0  0
  144.4213  156.4107  132.8853 H   0  0  0  0  0  0  0  0  0  0  0  0
  146.5125  158.3509  132.6958 H   0  0  0  0  0  0  0  0  0  0  0  0
  147.0622  160.7576  133.1862 H   0  0  0  0  0  0  0  0  0  0  0  0
  145.5207  162.8185  135.3968 H   0  0  0  0  0  0  0  0  0  0  0  0
  146.3811  162.8967  133.8217 H   0  0  0  0  0  0  0  0  0  0  0  0
  143.0727  161.3312  134.8480 H   0  0  0  0  0  0  0  0  0  0  0  0
  139.9478  160.5483  132.1807 H   0  0  0  0  0  0  0  0  0  0  0  0
  141.2659  159.3200  132.3093 H   0  0  0  0  0  0  0  0  0  0  0  0
  139.8240  157.5383  132.1625 H   0  0  0  0  0  0  0  0  0  0  0  0
  138.4496  158.4846  132.9083 H   0  0  0  0  0  0  0  0  0  0  0  0
  139.4655  158.6774  130.0449 H   0  0  0  0  0  0  0  0  0  0  0  0
  137.8973  157.9755  130.6277 H   0  0  0  0  0  0  0  0  0  0  0  0
  1  2  1  0
  2  3  2  0
  2  4  1  0
  4  5  2  0
  5  6  1  0
  6  7  2  0
  7  8  1  0
  8  9  2  0
  9 10  1  0
 10 11  1  0
  9 12  1  0
 12 13  2  0
 13 14  1  0
 14 15  1  0
 15 16  2  0
 15 17  1  0
 17 18  1  0
 18 19  1  0
 19 20  1  0
 20 21  1  0
 21 22  2  0
 21 23  1  0
 14  4  1  0
 13  6  1  0
  1 24  1  0
  5 25  1  0
  7 26  1  0
  8 27  1  0
 10 28  1  0
 10 29  1  0
 12 30  1  0
 18 31  1  0
 18 32  1  0
 19 33  1  0
 19 34  1  0
 20 35  1  0
 20 36  1  0
M  CHG  2   1  -1  23  -1
M  END
>  <UniqueID>  (18) 
17

>  <SMILES>  (18) 
[NH-]C(=O)c1cc2ccc(CF)cc2n1C(=O)OCCCC(=O)[O-]

>  <Energy>  (18) 
69.77108143772065

>  <Genealogy>  (18) 
[NH-]C(=O)c1cc2ccc(CF)cc2n1C(=O)OCCCC(=O)[O-] (protonated)
[NH-]C(=O)c1cc2ccc(CF)cc2n1C(=O)OCCCC(=O)[O-] (3D coordinates assigned)
[NH-]C(=O)c1cc2ccc(CF)cc2n1C(=O)OCCCC(=O)[O-] (optimized conformer: 69.77108143772065 kcal/mol)

>  <smiles>  (18) 
NC(=O)c1cc2ccc(CF)cc2n1C(=O)OCCCC(=O)O

>  <score_type>  (18) 
oracle

>  <origin>  (18) 
adg

>  <m_score__min__energy>  (18) 
-6.1399999999999997

>  <m_primary>  (18) 
energy

$$$$
18:0
     RDKit          3D

 30 31  0  0  0  0  0  0  0  0999 V2000
  149.1150  161.9400  130.3510 C   0  0  0  0  0  0  0  0  0  0  0  0
  148.9870  160.6390  131.0860 C   0  0  0  0  0  0  0  0  0  0  0  0
  150.0740  159.7310  131.1140 C   0  0  0  0  0  0  0  0  0  0  0  0
  149.9580  158.4980  131.7770 C   0  0  0  0  0  0  0  0  0  0  0  0
  148.7430  158.1950  132.3840 C   0  0  0  0  0  0  0  0  0  0  0  0
  148.3660  157.0860  133.1070 C   0  0  0  0  0  0  0  0  0  0  0  0
  147.0430  157.3180  133.4770 C   0  0  0  0  0  0  0  0  0  0  0  0
  146.2160  156.3320  134.2030 C   0  0  0  0  0  0  0  0  0  0  0  0
  144.9370  156.7120  134.7050 N   0  0  0  0  0  0  0  0  0  0  0  0
  146.6420  155.1670  134.4170 O   0  0  0  0  0  0  0  0  0  0  0  0
  146.6190  158.5250  133.0050 N   0  0  0  0  0  0  0  0  0  0  0  0
  145.3510  159.1600  133.2330 C   0  0  0  0  0  0  0  0  0  0  0  0
  144.3160  158.7200  132.6620 O   0  0  0  0  0  0  0  0  0  0  0  0
  145.2740  160.2790  134.0710 O   0  0  0  0  0  0  0  0  0  0  0  0
  144.3410  161.3390  133.8790 C   0  0  0  0  0  0  0  0  0  0  0  0
  145.0010  162.6610  134.1040 C   0  0  0  0  0  0  0  0  0  0  0  0
  146.1320  162.7210  134.6520 O   0  0  0  0  0  0  0  0  0  0  0  0
  144.3530  163.8320  133.7320 O   0  0  0  0  0  0  0  0  0  0  0  0
  147.6700  159.0490  132.3370 C   0  0  0  0  0  0  0  0  0  0  0  0
  147.7630  160.2910  131.6970 C   0  0  0  0  0  0  0  0  0  0  0  0
  149.1961  162.7639  131.0753 H   0  0  0  0  0  0  0  0  0  0  0  0
  150.0152  161.9172  129.7193 H   0  0  0  0  0  0  0  0  0  0  0  0
  148.2276  162.0931  129.7193 H   0  0  0  0  0  0  0  0  0  0  0  0
  151.0170  159.9937  130.6123 H   0  0  0  0  0  0  0  0  0  0  0  0
  150.8019  157.7934  131.8152 H   0  0  0  0  0  0  0  0  0  0  0  0
  148.9792  156.2037  133.3426 H   0  0  0  0  0  0  0  0  0  0  0  0
  144.5560  157.6680  134.5320 H   0  0  0  0  0  0  0  0  0  0  0  0
  143.9526  161.2982  132.8507 H   0  0  0  0  0  0  0  0  0  0  0  0
  143.5173  161.2242  134.5990 H   0  0  0  0  0  0  0  0  0  0  0  0
  146.9042  160.9779  131.6711 H   0  0  0  0  0  0  0  0  0  0  0  0
  1  2  1  0
  2  3  2  0
  3  4  1  0
  4  5  2  0
  5  6  1  0
  6  7  2  0
  7  8  1  0
  8  9  1  0
  8 10  2  0
  7 11  1  0
 11 12  1  0
 12 13  2  0
 12 14  1  0
 14 15  1  0
 15 16  1  0
 16 17  2  0
 16 18  1  0
 11 19  1  0
 19 20  2  0
 20  2  1  0
 19  5  1  0
  1 21  1  0
  1 22  1  0
  1 23  1  0
  3 24  1  0
  4 25  1  0
  6 26  1  0
  9 27  1  0
 15 28  1  0
 15 29  1  0
 20 30  1  0
M  CHG  2   9  -1  18  -1
M  END
>  <UniqueID>  (19) 
18

>  <SMILES>  (19) 
Cc1ccc2cc(C([NH-])=O)n(C(=O)OCC(=O)[O-])c2c1

>  <Energy>  (19) 
66.24179890907678

>  <Genealogy>  (19) 
Cc1ccc2cc(C([NH-])=O)n(C(=O)OCC(=O)[O-])c2c1 (protonated)
Cc1ccc2cc(C([NH-])=O)n(C(=O)OCC(=O)[O-])c2c1 (3D coordinates assigned)
Cc1ccc2cc(C([NH-])=O)n(C(=O)OCC(=O)[O-])c2c1 (optimized conformer: 66.24179890907678 kcal/mol)

>  <smiles>  (19) 
Cc1ccc2cc(C(N)=O)n(C(=O)OCC(=O)O)c2c1

>  <score_type>  (19) 
oracle

>  <origin>  (19) 
adg

>  <m_score__min__energy>  (19) 
-6.1399999999999997

>  <m_primary>  (19) 
energy

$$$$
19:0
     RDKit          3D

 30 31  0  0  0  0  0  0  0  0999 V2000
  144.1990  156.8480  134.4920 N   0  0  0  0  0  0  0  0  0  0  0  0
  145.5860  156.5230  134.4710 C   0  0  0  0  0  0  0  0  0  0  0  0
  146.0130  155.5880  135.2000 O   0  0  0  0  0  0  0  0  0  0  0  0
  146.5370  157.3040  133.6520 C   0  0  0  0  0  0  0  0  0  0  0  0
  147.8050  156.8450  133.3030 C   0  0  0  0  0  0  0  0  0  0  0  0
  148.3980  157.8870  132.6270 C   0  0  0  0  0  0  0  0  0  0  0  0
  149.6570  157.9730  132.0430 C   0  0  0  0  0  0  0  0  0  0  0  0
  149.9950  159.1630  131.3770 C   0  0  0  0  0  0  0  0  0  0  0  0
  149.0710  160.2350  131.3030 C   0  0  0  0  0  0  0  0  0  0  0  0
  149.4460  161.4930  130.5720 C   0  0  0  0  0  0  0  0  0  0  0  0
  148.4590  162.4460  130.7500 F   0  0  0  0  0  0  0  0  0  0  0  0
  149.5830  161.2250  129.2220 F   0  0  0  0  0  0  0  0  0  0  0  0
  147.8000  160.1100  131.9060 C   0  0  0  0  0  0  0  0  0  0  0  0
  147.4980  158.9200  132.5780 C   0  0  0  0  0  0  0  0  0  0  0  0
  146.3480  158.5770  133.2020 N   0  0  0  0  0  0  0  0  0  0  0  0
  145.1490  159.3620  133.2700 C   0  0  0  0  0  0  0  0  0  0  0  0
  144.1080  158.9730  132.6730 O   0  0  0  0  0  0  0  0  0  0  0  0
  145.1350  160.5470  134.0160 O   0  0  0  0  0  0  0  0  0  0  0  0
  144.1430  161.5580  133.8640 C   0  0  0  0  0  0  0  0  0  0  0  0
  144.7290  162.9070  134.1250 C   0  0  0  0  0  0  0  0  0  0  0  0
  145.7910  163.0160  134.7930 O   0  0  0  0  0  0  0  0  0  0  0  0
  144.0920  164.0490  133.6550 O   0  0  0  0  0  0  0  0  0  0  0  0
  143.8800  157.8420  134.4900 H   0  0  0  0  0  0  0  0  0  0  0  0
  148.2402  155.8587  133.5214 H   0  0  0  0  0  0  0  0  0  0  0  0
  150.3669  157.1347  132.1007 H   0  0  0  0  0  0  0  0  0  0  0  0
  150.9854  159.2635  130.9090 H   0  0  0  0  0  0  0  0  0  0  0  0
  150.3993  161.8706  130.9702 H   0  0  0  0  0  0  0  0  0  0  0  0
  147.0660  160.9273  131.8490 H   0  0  0  0  0  0  0  0  0  0  0  0
  143.7482  161.5269  132.8377 H   0  0  0  0  0  0  0  0  0  0  0  0
  143.3339  161.3750  134.5864 H   0  0  0  0  0  0  0  0  0  0  0  0
  1  2  1  0
  2  3  2  0
  2  4  1  0
  4  5  2  0
  5  6  1  0
  6  7  2  0
  7  8  1  0
  8  9  2  0
  9 10  1  0
 10 11  1  0
 10 12  1  0
  9 13  1  0
 13 14  2  0
 14 15  1  0
 15 16  1  0
 16 17  2  0
 16 18  1  0
 18 19  1  0
 19 20  1  0
 20 21  2  0
 20 22  1  0
 15  4  1  0
 14  6  1  0
  1 23  1  0
  5 24  1  0
  7 25  1  0
  8 26  1  0
 10 27  1  0
 13 28  1  0
 19 29  1  0
 19 30  1  0
M  CHG  2   1  -1  22  -1
M  END
>  <UniqueID>  (20) 
19

>  <SMILES>  (20) 
[NH-]C(=O)c1cc2ccc(C(F)F)cc2n1C(=O)OCC(=O)[O-]

>  <Energy>  (20) 
67.0577123444302

>  <Genealogy>  (20) 
[NH-]C(=O)c1cc2ccc(C(F)F)cc2n1C(=O)OCC(=O)[O-] (protonated)
[NH-]C(=O)c1cc2ccc(C(F)F)cc2n1C(=O)OCC(=O)[O-] (3D coordinates assigned)
[NH-]C(=O)c1cc2ccc(C(F)F)cc2n1C(=O)OCC(=O)[O-] (optimized conformer: 67.0577123444302 kcal/mol)

>  <smiles>  (20) 
NC(=O)c1cc2ccc(C(F)F)cc2n1C(=O)OCC(=O)O

>  <score_type>  (20) 
oracle

>  <origin>  (20) 
adg

>  <m_score__min__energy>  (20) 
-5.7599999999999998

>  <m_primary>  (20) 
energy

$$$$
20:0
     RDKit          3D

 44 46  0  0  0  0  0  0  0  0999 V2000
  149.5880  158.9810  131.1100 C   0  0  0  0  0  0  0  0  0  0  0  0
  148.6130  159.4100  132.1550 C   0  0  0  0  0  0  0  0  0  0  0  0
  148.1790  160.6390  132.3150 O   0  0  0  0  0  0  0  0  0  0  0  0
  147.3330  160.5910  133.3180 C   0  0  0  0  0  0  0  0  0  0  0  0
  146.7140  161.5960  133.7560 O   0  0  0  0  0  0  0  0  0  0  0  0
  147.1990  159.3820  133.8120 O   0  0  0  0  0  0  0  0  0  0  0  0
  147.9900  158.6140  133.1000 C   0  0  0  0  0  0  0  0  0  0  0  0
  148.1720  157.1470  133.3130 C   0  0  0  0  0  0  0  0  0  0  0  0
  147.3220  156.7090  134.3660 O   0  0  0  0  0  0  0  0  0  0  0  0
  146.4230  155.6490  134.2190 C   0  0  0  0  0  0  0  0  0  0  0  0
  146.3960  154.7070  135.0570 O   0  0  0  0  0  0  0  0  0  0  0  0
  145.5180  155.6150  133.0330 C   0  0  0  0  0  0  0  0  0  0  0  0
  144.2570  156.1700  133.3890 O   0  0  0  0  0  0  0  0  0  0  0  0
  144.0450  157.5440  133.5270 C   0  0  0  0  0  0  0  0  0  0  0  0
  144.6960  158.3610  132.8210 O   0  0  0  0  0  0  0  0  0  0  0  0
  143.0930  158.0240  134.4910 N   0  0  0  0  0  0  0  0  0  0  0  0
  142.6770  159.3080  134.6840 C   0  0  0  0  0  0  0  0  0  0  0  0
  143.0240  160.4630  133.8250 C   0  0  0  0  0  0  0  0  0  0  0  0
  144.3890  160.7840  133.5510 N   0  0  0  0  0  0  0  0  0  0  0  0
  142.1160  161.1960  133.3520 O   0  0  0  0  0  0  0  0  0  0  0  0
  141.7860  159.3780  135.7530 C   0  0  0  0  0  0  0  0  0  0  0  0
  141.6660  158.0850  136.2130 C   0  0  0  0  0  0  0  0  0  0  0  0
  140.9040  157.5760  137.2580 C   0  0  0  0  0  0  0  0  0  0  0  0
  140.9830  156.2000  137.5220 C   0  0  0  0  0  0  0  0  0  0  0  0
  141.8370  155.3620  136.7570 C   0  0  0  0  0  0  0  0  0  0  0  0
  141.9020  153.8790  137.0180 C   0  0  0  0  0  0  0  0  0  0  0  0
  140.9120  153.5100  137.9110 F   0  0  0  0  0  0  0  0  0  0  0  0
  141.7250  153.1560  135.8510 F   0  0  0  0  0  0  0  0  0  0  0  0
  143.1360  153.5670  137.5550 F   0  0  0  0  0  0  0  0  0  0  0  0
  142.5810  155.9160  135.6900 C   0  0  0  0  0  0  0  0  0  0  0  0
  142.4670  157.2880  135.4370 C   0  0  0  0  0  0  0  0  0  0  0  0
  150.4923  158.5831  131.5935 H   0  0  0  0  0  0  0  0  0  0  0  0
  149.1335  158.1998  130.4831 H   0  0  0  0  0  0  0  0  0  0  0  0
  149.8569  159.8439  130.4831 H   0  0  0  0  0  0  0  0  0  0  0  0
  147.9169  156.6084  132.3885 H   0  0  0  0  0  0  0  0  0  0  0  0
  149.2195  156.9437  133.5803 H   0  0  0  0  0  0  0  0  0  0  0  0
  145.9609  156.2030  132.2156 H   0  0  0  0  0  0  0  0  0  0  0  0
  145.3830  154.5748  132.7016 H   0  0  0  0  0  0  0  0  0  0  0  0
  145.1680  160.1710  133.8790 H   0  0  0  0  0  0  0  0  0  0  0  0
  144.6250  161.6240  132.9770 H   0  0  0  0  0  0  0  0  0  0  0  0
  141.2850  160.2749  136.1460 H   0  0  0  0  0  0  0  0  0  0  0  0
  140.2583  158.2321  137.8601 H   0  0  0  0  0  0  0  0  0  0  0  0
  140.3767  155.7657  138.3305 H   0  0  0  0  0  0  0  0  0  0  0  0
  143.2349  155.2829  135.0723 H   0  0  0  0  0  0  0  0  0  0  0  0
  1  2  1  0
  2  3  1  0
  3  4  1  0
  4  5  2  0
  4  6  1  0
  6  7  1  0
  7  8  1  0
  8  9  1  0
  9 10  1  0
 10 11  2  0
 10 12  1  0
 12 13  1  0
 13 14  1  0
 14 15  2  0
 14 16  1  0
 16 17  1  0
 17 18  1  0
 18 19  1  0
 18 20  2  0
 17 21  2  0
 21 22  1  0
 22 23  2  0
 23 24  1  0
 24 25  2  0
 25 26  1  0
 26 27  1  0
 26 28  1  0
 26 29  1  0
 25 30  1  0
 30 31  2  0
  7  2  2  0
 31 16  1  0
 31 22  1  0
  1 32  1  0
  1 33  1  0
  1 34  1  0
  8 35  1  0
  8 36  1  0
 12 37  1  0
 12 38  1  0
 19 39  1  0
 19 40  1  0
 21 41  1  0
 23 42  1  0
 24 43  1  0
 30 44  1  0
M  END
>  <UniqueID>  (21) 
20

>  <SMILES>  (21) 
Cc1oc(=O)oc1COC(=O)COC(=O)n1c(C(N)=O)cc2ccc(C(F)(F)F)cc21

>  <Energy>  (21) 
108.675519048191

>  <Genealogy>  (21) 
Cc1oc(=O)oc1COC(=O)COC(=O)n1c(C(N)=O)cc2ccc(C(F)(F)F)cc21 (3D coordinates assigned)
Cc1oc(=O)oc1COC(=O)COC(=O)n1c(C(N)=O)cc2ccc(C(F)(F)F)cc21 (optimized conformer: 108.675519048191 kcal/mol)

>  <smiles>  (21) 
Cc1oc(=O)oc1COC(=O)COC(=O)n1c(C(N)=O)cc2ccc(C(F)(F)F)cc21

>  <score_type>  (21) 
oracle

>  <origin>  (21) 
adg

>  <m_score__min__energy>  (21) 
-5.9299999999999997

>  <m_primary>  (21) 
energy

$$$$
21:0
     RDKit          3D

 31 32  0  0  0  0  0  0  0  0999 V2000
  142.6780  160.8220  133.3610 N   0  0  0  0  0  0  0  0  0  0  0  0
  144.0440  161.0220  133.7130 C   0  0  0  0  0  0  0  0  0  0  0  0
  144.4210  162.1630  134.0930 O   0  0  0  0  0  0  0  0  0  0  0  0
  145.0290  159.9260  133.5980 C   0  0  0  0  0  0  0  0  0  0  0  0
  146.3930  160.1330  133.4010 C   0  0  0  0  0  0  0  0  0  0  0  0
  146.9400  158.8750  133.2830 C   0  0  0  0  0  0  0  0  0  0  0  0
  148.2600  158.4870  133.0780 C   0  0  0  0  0  0  0  0  0  0  0  0
  148.5410  157.1110  133.0210 C   0  0  0  0  0  0  0  0  0  0  0  0
  147.5100  156.1520  133.1940 C   0  0  0  0  0  0  0  0  0  0  0  0
  147.8190  154.6790  133.0930 C   0  0  0  0  0  0  0  0  0  0  0  0
  148.8870  154.4960  132.2360 F   0  0  0  0  0  0  0  0  0  0  0  0
  146.7260  153.9830  132.6070 F   0  0  0  0  0  0  0  0  0  0  0  0
  148.1430  154.1620  134.3350 F   0  0  0  0  0  0  0  0  0  0  0  0
  146.1770  156.5870  133.3790 C   0  0  0  0  0  0  0  0  0  0  0  0
  145.9260  157.9640  133.4110 C   0  0  0  0  0  0  0  0  0  0  0  0
  144.7460  158.5930  133.6030 N   0  0  0  0  0  0  0  0  0  0  0  0
  143.4790  157.9640  133.8420 C   0  0  0  0  0  0  0  0  0  0  0  0
  143.3600  157.1400  134.7890 O   0  0  0  0  0  0  0  0  0  0  0  0
  142.3550  158.2720  133.0060 N   0  0  0  0  0  0  0  0  0  0  0  0
  141.0460  157.6510  133.1920 C   0  0  0  0  0  0  0  0  0  0  0  0
  139.9790  158.5060  132.5880 C   0  0  0  0  0  0  0  0  0  0  0  0
  138.7750  158.1440  132.6390 O   0  0  0  0  0  0  0  0  0  0  0  0
  140.3160  159.6870  131.9390 O   0  0  0  0  0  0  0  0  0  0  0  0
  142.4160  160.3830  132.4500 H   0  0  0  0  0  0  0  0  0  0  0  0
  146.9206  161.0969  133.3505 H   0  0  0  0  0  0  0  0  0  0  0  0
  149.0593  159.2341  132.9640 H   0  0  0  0  0  0  0  0  0  0  0  0
  149.5723  156.7738  132.8401 H   0  0  0  0  0  0  0  0  0  0  0  0
  145.3581  155.8617  133.4948 H   0  0  0  0  0  0  0  0  0  0  0  0
  142.4690  158.9790  132.2460 H   0  0  0  0  0  0  0  0  0  0  0  0
  141.0395  156.6642  132.7060 H   0  0  0  0  0  0  0  0  0  0  0  0
  140.8508  157.5403  134.2689 H   0  0  0  0  0  0  0  0  0  0  0  0
  1  2  1  0
  2  3  2  0
  2  4  1  0
  4  5  2  0
  5  6  1  0
  6  7  2  0
  7  8  1  0
  8  9  2  0
  9 10  1  0
 10 11  1  0
 10 12  1  0
 10 13  1  0
  9 14  1  0
 14 15  2  0
 15 16  1  0
 16 17  1  0
 17 18  2  0
 17 19  1  0
 19 20  1  0
 20 21  1  0
 21 22  2  0
 21 23  1  0
 16  4  1  0
 15  6  1  0
  1 24  1  0
  5 25  1  0
  7 26  1  0
  8 27  1  0
 14 28  1  0
 19 29  1  0
 20 30  1  0
 20 31  1  0
M  CHG  2   1  -1  23  -1
M  END
>  <UniqueID>  (22) 
21

>  <SMILES>  (22) 
[NH-]C(=O)c1cc2ccc(C(F)(F)F)cc2n1C(=O)NCC(=O)[O-]

>  <Energy>  (22) 
68.4039136591252

>  <Genealogy>  (22) 
[NH-]C(=O)c1cc2ccc(C(F)(F)F)cc2n1C(=O)NCC(=O)[O-] (protonated)
[NH-]C(=O)c1cc2ccc(C(F)(F)F)cc2n1C(=O)NCC(=O)[O-] (3D coordinates assigned)
[NH-]C(=O)c1cc2ccc(C(F)(F)F)cc2n1C(=O)NCC(=O)[O-] (optimized conformer: 68.4039136591252 kcal/mol)

>  <smiles>  (22) 
NC(=O)c1cc2ccc(C(F)(F)F)cc2n1C(=O)NCC(=O)O

>  <score_type>  (22) 
oracle

>  <origin>  (22) 
adg

>  <m_score__min__energy>  (22) 
-5.9900000000000002

>  <m_primary>  (22) 
energy

$$$$
22:0
     RDKit          3D

 55 57  0  0  0  0  0  0  0  0999 V2000
  148.1650  153.3350  132.9110 C   0  0  0  0  0  0  0  0  0  0  0  0
  147.0930  154.3600  133.3260 C   0  0  0  0  0  0  0  0  0  0  0  0
  145.7700  154.0050  132.6310 C   0  0  0  0  0  0  0  0  0  0  0  0
  146.8790  154.3370  134.8520 C   0  0  0  0  0  0  0  0  0  0  0  0
  147.4600  155.6760  132.8870 O   0  0  0  0  0  0  0  0  0  0  0  0
  147.5770  156.8200  133.6900 C   0  0  0  0  0  0  0  0  0  0  0  0
  148.4750  156.9030  134.5710 O   0  0  0  0  0  0  0  0  0  0  0  0
  146.6640  157.9120  133.5000 N   0  0  0  0  0  0  0  0  0  0  0  0
  146.9360  159.1450  132.9880 C   0  0  0  0  0  0  0  0  0  0  0  0
  148.2790  159.6710  132.6660 C   0  0  0  0  0  0  0  0  0  0  0  0
  149.4620  158.9980  133.1000 N   0  0  0  0  0  0  0  0  0  0  0  0
  148.3830  160.7610  132.0440 O   0  0  0  0  0  0  0  0  0  0  0  0
  145.7670  159.8870  132.8440 C   0  0  0  0  0  0  0  0  0  0  0  0
  144.7600  159.0690  133.3020 C   0  0  0  0  0  0  0  0  0  0  0  0
  143.3880  159.2940  133.3720 C   0  0  0  0  0  0  0  0  0  0  0  0
  142.5740  158.2530  133.8480 C   0  0  0  0  0  0  0  0  0  0  0  0
  143.1390  157.0110  134.2320 C   0  0  0  0  0  0  0  0  0  0  0  0
  142.2550  155.8870  134.7130 C   0  0  0  0  0  0  0  0  0  0  0  0
  142.9910  154.9250  135.6740 C   0  0  0  0  0  0  0  0  0  0  0  0
  142.3130  154.9460  137.0710 C   0  0  0  0  0  0  0  0  0  0  0  0
  142.3830  153.5910  137.7810 C   0  0  0  0  0  0  0  0  0  0  0  0
  141.7540  152.5600  136.9440 N   0  0  0  0  0  0  0  0  0  0  0  0
  140.9860  151.4960  137.5370 C   0  0  0  0  0  0  0  0  0  0  0  0
  140.9130  151.3760  138.7890 O   0  0  0  0  0  0  0  0  0  0  0  0
  140.3150  150.5820  136.7330 O   0  0  0  0  0  0  0  0  0  0  0  0
  141.9330  152.5920  135.4840 C   0  0  0  0  0  0  0  0  0  0  0  0
  143.1110  153.4920  135.0890 C   0  0  0  0  0  0  0  0  0  0  0  0
  144.5360  156.8210  134.1470 C   0  0  0  0  0  0  0  0  0  0  0  0
  145.3260  157.8820  133.6890 C   0  0  0  0  0  0  0  0  0  0  0  0
  148.6222  152.8979  133.8109 H   0  0  0  0  0  0  0  0  0  0  0  0
  147.6985  152.5384  132.3128 H   0  0  0  0  0  0  0  0  0  0  0  0
  148.9399  153.8367  132.3128 H   0  0  0  0  0  0  0  0  0  0  0  0
  145.0010  153.7987  133.3899 H   0  0  0  0  0  0  0  0  0  0  0  0
  145.4480  154.8485  132.0027 H   0  0  0  0  0  0  0  0  0  0  0  0
  145.9136  153.1136  132.0027 H   0  0  0  0  0  0  0  0  0  0  0  0
  147.8491  154.4412  135.3599 H   0  0  0  0  0  0  0  0  0  0  0  0
  146.2216  155.1697  135.1427 H   0  0  0  0  0  0  0  0  0  0  0  0
  146.4135  153.3837  135.1427 H   0  0  0  0  0  0  0  0  0  0  0  0
  150.4010  159.3670  132.8330 H   0  0  0  0  0  0  0  0  0  0  0  0
  149.4130  158.1940  133.7630 H   0  0  0  0  0  0  0  0  0  0  0  0
  145.6693  160.9088  132.4486 H   0  0  0  0  0  0  0  0  0  0  0  0
  142.9548  160.2571  133.0641 H   0  0  0  0  0  0  0  0  0  0  0  0
  141.4869  158.4031  133.9236 H   0  0  0  0  0  0  0  0  0  0  0  0
  141.3907  156.3184  135.2391 H   0  0  0  0  0  0  0  0  0  0  0  0
  141.9436  155.3062  133.8322 H   0  0  0  0  0  0  0  0  0  0  0  0
  144.0247  155.2806  135.7963 H   0  0  0  0  0  0  0  0  0  0  0  0
  142.8176  155.6975  137.6960 H   0  0  0  0  0  0  0  0  0  0  0  0
  141.2506  155.1889  136.9217 H   0  0  0  0  0  0  0  0  0  0  0  0
  143.4355  153.3254  137.9590 H   0  0  0  0  0  0  0  0  0  0  0  0
  141.8506  153.6552  138.7414 H   0  0  0  0  0  0  0  0  0  0  0  0
  142.1252  151.5706  135.1236 H   0  0  0  0  0  0  0  0  0  0  0  0
  141.0171  152.9977  135.0296 H   0  0  0  0  0  0  0  0  0  0  0  0
  144.0414  153.0371  135.4597 H   0  0  0  0  0  0  0  0  0  0  0  0
  143.1102  153.5791  133.9925 H   0  0  0  0  0  0  0  0  0  0  0  0
  144.9923  155.8621  134.4339 H   0  0  0  0  0  0  0  0  0  0  0  0
  1  2  1  0
  2  3  1  0
  2  4  1  0
  2  5  1  0
  5  6  1  0
  6  7  2  0
  6  8  1  0
  8  9  1  0
  9 10  1  0
 10 11  1  0
 10 12  2  0
  9 13  2  0
 13 14  1  0
 14 15  2  0
 15 16  1  0
 16 17  2  0
 17 18  1  0
 18 19  1  0
 19 20  1  0
 20 21  1  0
 21 22  1  0
 22 23  1  0
 23 24  2  0
 23 25  1  0
 22 26  1  0
 26 27  1  0
 17 28  1  0
 28 29  2  0
 29  8  1  0
 29 14  1  0
 27 19  1  0
  1 30  1  0
  1 31  1  0
  1 32  1  0
  3 33  1  0
  3 34  1  0
  3 35  1  0
  4 36  1  0
  4 37  1  0
  4 38  1  0
 11 39  1  0
 11 40  1  0
 13 41  1  0
 15 42  1  0
 16 43  1  0
 18 44  1  0
 18 45  1  0
 19 46  1  0
 20 47  1  0
 20 48  1  0
 21 49  1  0
 21 50  1  0
 26 51  1  0
 26 52  1  0
 27 53  1  0
 27 54  1  0
 28 55  1  0
M  CHG  1  25  -1
M  END
>  <UniqueID>  (23) 
22

>  <SMILES>  (23) 
CC(C)(C)OC(=O)n1c(C(N)=O)cc2ccc(CC3CCN(C(=O)[O-])CC3)cc21

>  <Energy>  (23) 
90.4098020042211

>  <Genealogy>  (23) 
CC(C)(C)OC(=O)n1c(C(N)=O)cc2ccc(CC3CCN(C(=O)[O-])CC3)cc21 (protonated)
CC(C)(C)OC(=O)n1c(C(N)=O)cc2ccc(CC3CCN(C(=O)[O-])CC3)cc21 (3D coordinates assigned)
CC(C)(C)OC(=O)n1c(C(N)=O)cc2ccc(CC3CCN(C(=O)[O-])CC3)cc21 (nonaromatic ring conformer: 90.4098020042211 kcal/mol)

>  <smiles>  (23) 
CC(C)(C)OC(=O)n1c(C(N)=O)cc2ccc(CC3CCN(C(=O)O)CC3)cc21

>  <score_type>  (23) 
oracle

>  <origin>  (23) 
adg

>  <m_score__min__energy>  (23) 
-9.5299999999999994

>  <m_primary>  (23) 
energy

$$$$
23:0
     RDKit          3D

 33 34  0  0  0  0  0  0  0  0999 V2000
  148.4900  149.3580  132.4160 C   0  0  0  0  0  0  0  0  0  0  0  0
  147.9390  150.6610  132.7780 N   0  0  0  0  0  0  0  0  0  0  0  0
  148.7230  151.8650  132.8290 C   0  0  0  0  0  0  0  0  0  0  0  0
  150.3520  151.8040  132.5920 S   0  0  0  0  0  0  0  0  0  0  0  0
  148.0810  153.0870  133.2350 N   0  0  0  0  0  0  0  0  0  0  0  0
  148.5680  154.4140  132.9680 C   0  0  0  0  0  0  0  0  0  0  0  0
  149.5850  154.5970  132.2460 O   0  0  0  0  0  0  0  0  0  0  0  0
  147.8700  155.5490  133.4980 N   0  0  0  0  0  0  0  0  0  0  0  0
  146.9260  155.5650  134.4810 C   0  0  0  0  0  0  0  0  0  0  0  0
  146.3350  154.3780  135.1330 C   0  0  0  0  0  0  0  0  0  0  0  0
  147.1410  153.4720  135.8820 N   0  0  0  0  0  0  0  0  0  0  0  0
  145.1040  154.1410  135.0030 O   0  0  0  0  0  0  0  0  0  0  0  0
  146.5390  156.8740  134.7620 C   0  0  0  0  0  0  0  0  0  0  0  0
  147.2800  157.6660  133.9140 C   0  0  0  0  0  0  0  0  0  0  0  0
  147.3070  159.0490  133.7720 C   0  0  0  0  0  0  0  0  0  0  0  0
  148.1980  159.5990  132.8330 C   0  0  0  0  0  0  0  0  0  0  0  0
  149.0530  158.7610  132.0760 C   0  0  0  0  0  0  0  0  0  0  0  0
  149.9800  159.3570  131.0590 C   0  0  0  0  0  0  0  0  0  0  0  0
  148.9890  157.3600  132.2370 C   0  0  0  0  0  0  0  0  0  0  0  0
  148.0790  156.8410  133.1640 C   0  0  0  0  0  0  0  0  0  0  0  0
  148.7285  148.7940  133.3298 H   0  0  0  0  0  0  0  0  0  0  0  0
  147.7511  148.7994  131.8227 H   0  0  0  0  0  0  0  0  0  0  0  0
  149.4055  149.4990  131.8227 H   0  0  0  0  0  0  0  0  0  0  0  0
  146.9160  150.7210  132.9850 H   0  0  0  0  0  0  0  0  0  0  0  0
  147.1690  153.0040  133.7380 H   0  0  0  0  0  0  0  0  0  0  0  0
  147.8140  152.8310  135.4070 H   0  0  0  0  0  0  0  0  0  0  0  0
  145.7979  157.2046  135.5046 H   0  0  0  0  0  0  0  0  0  0  0  0
  146.6513  159.6935  134.3759 H   0  0  0  0  0  0  0  0  0  0  0  0
  148.2311  160.6885  132.6853 H   0  0  0  0  0  0  0  0  0  0  0  0
  150.7983  159.8831  131.5725 H   0  0  0  0  0  0  0  0  0  0  0  0
  150.3966  158.5571  130.4293 H   0  0  0  0  0  0  0  0  0  0  0  0
  149.4251  160.0680  130.4293 H   0  0  0  0  0  0  0  0  0  0  0  0
  149.6376  156.6940  131.6490 H   0  0  0  0  0  0  0  0  0  0  0  0
  1  2  1  0
  2  3  1  0
  3  4  2  0
  3  5  1  0
  5  6  1  0
  6  7  2  0
  6  8  1  0
  8  9  1  0
  9 10  1  0
 10 11  1  0
 10 12  2  0
  9 13  2  0
 13 14  1  0
 14 15  2  0
 15 16  1  0
 16 17  2  0
 17 18  1  0
 17 19  1  0
 19 20  2  0
 20  8  1  0
 20 14  1  0
  1 21  1  0
  1 22  1  0
  1 23  1  0
  2 24  1  0
  5 25  1  0
 11 26  1  0
 13 27  1  0
 15 28  1  0
 16 29  1  0
 18 30  1  0
 18 31  1  0
 18 32  1  0
 19 33  1  0
M  CHG  1  11  -1
M  END
>  <UniqueID>  (24) 
23

>  <SMILES>  (24) 
CNC(=S)NC(=O)n1c(C([NH-])=O)cc2ccc(C)cc21

>  <Energy>  (24) 
72.62710191673769

>  <Genealogy>  (24) 
CNC(=S)NC(=O)n1c(C([NH-])=O)cc2ccc(C)cc21 (protonated)
CNC(=S)NC(=O)n1c(C([NH-])=O)cc2ccc(C)cc21 (3D coordinates assigned)
CNC(=S)NC(=O)n1c(C([NH-])=O)cc2ccc(C)cc21 (optimized conformer: 72.62710191673769 kcal/mol)

>  <smiles>  (24) 
CNC(=S)NC(=O)n1c(C(N)=O)cc2ccc(C)cc21

>  <score_type>  (24) 
oracle

>  <origin>  (24) 
adg

>  <m_score__min__energy>  (24) 
-7.5700000000000003

>  <m_primary>  (24) 
energy

$$$$
24:0
     RDKit          3D

 41 42  0  0  0  0  0  0  0  0999 V2000
  149.3570  161.8310  130.4500 C   0  0  0  0  0  0  0  0  0  0  0  0
  149.0050  160.5360  131.1200 C   0  0  0  0  0  0  0  0  0  0  0  0
  149.9230  159.4580  131.1080 C   0  0  0  0  0  0  0  0  0  0  0  0
  149.6150  158.2480  131.7530 C   0  0  0  0  0  0  0  0  0  0  0  0
  148.3960  158.1570  132.4200 C   0  0  0  0  0  0  0  0  0  0  0  0
  147.8380  157.1030  133.1060 C   0  0  0  0  0  0  0  0  0  0  0  0
  146.6060  157.5680  133.5630 C   0  0  0  0  0  0  0  0  0  0  0  0
  145.7090  156.7740  134.4280 C   0  0  0  0  0  0  0  0  0  0  0  0
  144.2940  156.9330  134.3590 N   0  0  0  0  0  0  0  0  0  0  0  0
  146.1990  155.9790  135.2730 O   0  0  0  0  0  0  0  0  0  0  0  0
  146.4070  158.8570  133.1670 N   0  0  0  0  0  0  0  0  0  0  0  0
  145.2420  159.6730  133.3600 C   0  0  0  0  0  0  0  0  0  0  0  0
  145.3500  160.8020  133.9120 O   0  0  0  0  0  0  0  0  0  0  0  0
  143.9910  159.1900  132.9520 O   0  0  0  0  0  0  0  0  0  0  0  0
  142.7640  159.5310  133.5360 C   0  0  0  0  0  0  0  0  0  0  0  0
  142.4570  160.7440  133.7230 O   0  0  0  0  0  0  0  0  0  0  0  0
  141.8930  158.4720  133.9940 N   0  0  2  0  0  0  0  0  0  0  0  0
  141.5640  157.5060  132.9280 C   0  0  0  0  0  0  0  0  0  0  0  0
  140.6890  159.0150  134.6660 C   0  0  0  0  0  0  0  0  0  0  0  0
  140.9540  159.5810  136.0760 C   0  0  0  0  0  0  0  0  0  0  0  0
  141.6800  158.5720  136.9090 C   0  0  0  0  0  0  0  0  0  0  0  0
  141.7000  158.6840  138.1630 O   0  0  0  0  0  0  0  0  0  0  0  0
  142.3710  157.5330  136.2990 O   0  0  0  0  0  0  0  0  0  0  0  0
  147.5110  159.2030  132.4700 C   0  0  0  0  0  0  0  0  0  0  0  0
  147.7840  160.4110  131.8160 C   0  0  0  0  0  0  0  0  0  0  0  0
  149.5645  162.5946  131.2141 H   0  0  0  0  0  0  0  0  0  0  0  0
  150.2490  161.6885  129.8223 H   0  0  0  0  0  0  0  0  0  0  0  0
  148.5156  162.1596  129.8223 H   0  0  0  0  0  0  0  0  0  0  0  0
  150.8865  159.5687  130.5889 H   0  0  0  0  0  0  0  0  0  0  0  0
  150.3148  157.3996  131.7317 H   0  0  0  0  0  0  0  0  0  0  0  0
  148.2723  156.1043  133.2611 H   0  0  0  0  0  0  0  0  0  0  0  0
  143.8380  157.8220  134.6620 H   0  0  0  0  0  0  0  0  0  0  0  0
  142.4290  157.9380  134.7190 H   0  0  0  0  0  0  0  0  0  0  0  0
  141.2407  156.5568  133.3803 H   0  0  0  0  0  0  0  0  0  0  0  0
  140.7528  157.9101  132.3045 H   0  0  0  0  0  0  0  0  0  0  0  0
  142.4532  157.3310  132.3045 H   0  0  0  0  0  0  0  0  0  0  0  0
  140.2798  159.8226  134.0412 H   0  0  0  0  0  0  0  0  0  0  0  0
  139.9892  158.1752  134.7885 H   0  0  0  0  0  0  0  0  0  0  0  0
  141.5655  160.4916  135.9931 H   0  0  0  0  0  0  0  0  0  0  0  0
  139.9923  159.8171  136.5549 H   0  0  0  0  0  0  0  0  0  0  0  0
  147.0640  161.2421  131.8442 H   0  0  0  0  0  0  0  0  0  0  0  0
  1  2  1  0
  2  3  2  0
  3  4  1  0
  4  5  2  0
  5  6  1  0
  6  7  2  0
  7  8  1  0
  8  9  1  0
  8 10  2  0
  7 11  1  0
 11 12  1  0
 12 13  2  0
 12 14  1  0
 14 15  1  0
 15 16  2  0
 15 17  1  0
 17 18  1  0
 17 19  1  0
 19 20  1  0
 20 21  1  0
 21 22  2  0
 21 23  1  0
 11 24  1  0
 24 25  2  0
 25  2  1  0
 24  5  1  0
  1 26  1  0
  1 27  1  0
  1 28  1  0
  3 29  1  0
  4 30  1  0
  6 31  1  0
  9 32  1  0
 17 33  1  1
 18 34  1  0
 18 35  1  0
 18 36  1  0
 19 37  1  0
 19 38  1  0
 20 39  1  0
 20 40  1  0
 25 41  1  0
M  CHG  3   9  -1  17   1  23  -1
M  END
>  <UniqueID>  (25) 
24

>  <SMILES>  (25) 
Cc1ccc2cc(C([NH-])=O)n(C(=O)OC(=O)[N@H+](C)CCC(=O)[O-])c2c1

>  <Energy>  (25) 
81.9289154474069

>  <Genealogy>  (25) 
Cc1ccc2cc(C([NH-])=O)n(C(=O)OC(=O)[NH+](C)CCC(=O)[O-])c2c1 (protonated)
Cc1ccc2cc(C([NH-])=O)n(C(=O)OC(=O)[N@H+](C)CCC(=O)[O-])c2c1 (chirality)
Cc1ccc2cc(C([NH-])=O)n(C(=O)OC(=O)[N@H+](C)CCC(=O)[O-])c2c1 (3D coordinates assigned)
Cc1ccc2cc(C([NH-])=O)n(C(=O)OC(=O)[N@H+](C)CCC(=O)[O-])c2c1 (optimized conformer: 81.9289154474069 kcal/mol)

>  <smiles>  (25) 
Cc1ccc2cc(C(N)=O)n(C(=O)OC(=O)N(C)CCC(=O)O)c2c1

>  <score_type>  (25) 
oracle

>  <origin>  (25) 
adg

>  <m_score__min__energy>  (25) 
-5.8099999999999996

>  <m_primary>  (25) 
energy

$$$$
25:0
     RDKit          3D

 42 45  0  0  0  0  0  0  0  0999 V2000
  143.3120  161.4330  133.7240 N   0  0  0  0  0  0  0  0  0  0  0  0
  144.7320  161.5120  133.8340 C   0  0  0  0  0  0  0  0  0  0  0  0
  145.2640  162.5990  134.1840 O   0  0  0  0  0  0  0  0  0  0  0  0
  145.5780  160.3240  133.6000 C   0  0  0  0  0  0  0  0  0  0  0  0
  146.9500  160.3960  133.3690 C   0  0  0  0  0  0  0  0  0  0  0  0
  147.3780  159.0910  133.2970 C   0  0  0  0  0  0  0  0  0  0  0  0
  148.6520  158.5770  133.0710 C   0  0  0  0  0  0  0  0  0  0  0  0
  148.7980  157.1810  133.0180 C   0  0  0  0  0  0  0  0  0  0  0  0
  147.6770  156.3340  133.1840 C   0  0  0  0  0  0  0  0  0  0  0  0
  147.8370  154.9170  133.1170 N   0  0  0  0  0  0  0  0  0  0  0  0
  147.4220  153.7360  133.8980 C   0  0  0  0  0  0  0  0  0  0  0  0
  148.0810  152.7150  133.0110 C   0  0  0  0  0  0  0  0  0  0  0  0
  149.2380  151.9320  133.6820 C   0  0  0  0  0  0  0  0  0  0  0  0
  149.5560  150.6320  132.9230 C   0  0  0  0  0  0  0  0  0  0  0  0
  149.2170  150.7550  131.4300 C   0  0  0  0  0  0  0  0  0  0  0  0
  147.7820  151.0140  131.1920 N   0  0  0  0  0  0  0  0  0  0  0  0
  147.1040  151.7930  132.2510 C   0  0  0  0  0  0  0  0  0  0  0  0
  148.4960  153.9370  132.2320 C   0  0  0  0  0  0  0  0  0  0  0  0
  146.4010  156.8880  133.4110 C   0  0  0  0  0  0  0  0  0  0  0  0
  146.2850  158.2820  133.4770 C   0  0  0  0  0  0  0  0  0  0  0  0
  145.1710  159.0240  133.6620 N   0  0  0  0  0  0  0  0  0  0  0  0
  143.8280  158.5310  133.7880 C   0  0  0  0  0  0  0  0  0  0  0  0
  143.2120  158.6330  134.8830 O   0  0  0  0  0  0  0  0  0  0  0  0
  143.2040  157.9100  132.7140 O   0  0  0  0  0  0  0  0  0  0  0  0
  142.8080  160.5400  133.9190 H   0  0  0  0  0  0  0  0  0  0  0  0
  147.5616  161.3045  133.2660 H   0  0  0  0  0  0  0  0  0  0  0  0
  149.5171  159.2433  132.9381 H   0  0  0  0  0  0  0  0  0  0  0  0
  149.7921  156.7427  132.8460 H   0  0  0  0  0  0  0  0  0  0  0  0
  147.8309  153.7377  134.9192 H   0  0  0  0  0  0  0  0  0  0  0  0
  146.3451  153.6142  134.0861 H   0  0  0  0  0  0  0  0  0  0  0  0
  150.1368  152.5659  133.6967 H   0  0  0  0  0  0  0  0  0  0  0  0
  148.9277  151.6673  134.7036 H   0  0  0  0  0  0  0  0  0  0  0  0
  150.6280  150.4092  133.0290 H   0  0  0  0  0  0  0  0  0  0  0  0
  148.9441  149.8240  133.3506 H   0  0  0  0  0  0  0  0  0  0  0  0
  149.8000  151.5846  131.0036 H   0  0  0  0  0  0  0  0  0  0  0  0
  149.4659  149.7961  130.9520 H   0  0  0  0  0  0  0  0  0  0  0  0
  147.2870  150.0950  131.0990 H   0  0  0  0  0  0  0  0  0  0  0  0
  146.3198  152.4111  131.7894 H   0  0  0  0  0  0  0  0  0  0  0  0
  146.6785  151.0817  132.9742 H   0  0  0  0  0  0  0  0  0  0  0  0
  149.5878  154.0659  132.1939 H   0  0  0  0  0  0  0  0  0  0  0  0
  148.2291  153.9660  131.1653 H   0  0  0  0  0  0  0  0  0  0  0  0
  145.5191  156.2420  133.5331 H   0  0  0  0  0  0  0  0  0  0  0  0
  1  2  1  0
  2  3  2  0
  2  4  1  0
  4  5  2  0
  5  6  1  0
  6  7  2  0
  7  8  1  0
  8  9  2  0
  9 10  1  0
 10 11  1  0
 11 12  1  0
 12 13  1  0
 13 14  1  0
 14 15  1  0
 15 16  1  0
 16 17  1  0
 12 18  1  0
  9 19  1  0
 19 20  2  0
 20 21  1  0
 21 22  1  0
 22 23  2  0
 22 24  1  0
 21  4  1  0
 20  6  1  0
 18 10  1  0
 17 12  1  0
  1 25  1  0
  5 26  1  0
  7 27  1  0
  8 28  1  0
 11 29  1  0
 11 30  1  0
 13 31  1  0
 13 32  1  0
 14 33  1  0
 14 34  1  0
 15 35  1  0
 15 36  1  0
 16 37  1  0
 17 38  1  0
 17 39  1  0
 18 40  1  0
 18 41  1  0
 19 42  1  0
M  CHG  2   1  -1  24  -1
M  END
>  <UniqueID>  (26) 
25

>  <SMILES>  (26) 
[NH-]C(=O)c1cc2ccc(N3CC4(CCCNC4)C3)cc2n1C(=O)[O-]

>  <Energy>  (26) 
136.84347219141227

>  <Genealogy>  (26) 
[NH-]C(=O)c1cc2ccc(N3CC4(CCCNC4)C3)cc2n1C(=O)[O-] (protonated)
[NH-]C(=O)c1cc2ccc(N3CC4(CCCNC4)C3)cc2n1C(=O)[O-] (3D coordinates assigned)
[NH-]C(=O)c1cc2ccc(N3CC4(CCCNC4)C3)cc2n1C(=O)[O-] (nonaromatic ring conformer: 136.84347219141227 kcal/mol)

>  <smiles>  (26) 
NC(=O)c1cc2ccc(N3CC4(CCCNC4)C3)cc2n1C(=O)O

>  <score_type>  (26) 
oracle

>  <origin>  (26) 
adg

>  <m_score__min__energy>  (26) 
-8.1400000000000006

>  <m_primary>  (26) 
energy

$$$$
26:0
     RDKit          3D

 56 58  0  0  0  0  0  0  0  0999 V2000
  141.6160  159.1410  136.2270 C   0  0  0  0  0  0  0  0  0  0  0  0
  142.6430  159.1660  135.0940 C   0  0  1  0  0  0  0  0  0  0  0  0
  142.8060  157.8580  134.5470 O   0  0  0  0  0  0  0  0  0  0  0  0
  143.4490  157.5990  133.3300 C   0  0  0  0  0  0  0  0  0  0  0  0
  142.8540  157.8470  132.2460 O   0  0  0  0  0  0  0  0  0  0  0  0
  144.7990  157.0880  133.3170 N   0  0  0  0  0  0  0  0  0  0  0  0
  145.9490  157.8170  133.2480 C   0  0  0  0  0  0  0  0  0  0  0  0
  146.0450  159.2820  133.3090 C   0  0  0  0  0  0  0  0  0  0  0  0
  144.9330  160.0950  132.9310 N   0  0  0  0  0  0  0  0  0  0  0  0
  147.0950  159.8210  133.7390 O   0  0  0  0  0  0  0  0  0  0  0  0
  147.0560  156.9940  133.0840 C   0  0  0  0  0  0  0  0  0  0  0  0
  146.5560  155.7150  133.0770 C   0  0  0  0  0  0  0  0  0  0  0  0
  147.2240  154.5010  132.9500 C   0  0  0  0  0  0  0  0  0  0  0  0
  146.4620  153.3230  132.9860 C   0  0  0  0  0  0  0  0  0  0  0  0
  145.0560  153.3790  133.1610 C   0  0  0  0  0  0  0  0  0  0  0  0
  144.2410  152.1090  133.1730 C   0  0  0  0  0  0  0  0  0  0  0  0
  142.8600  152.3340  133.8070 C   0  0  0  0  0  0  0  0  0  0  0  0
  141.7500  152.2610  132.7920 C   0  0  0  0  0  0  0  0  0  0  0  0
  141.3460  153.3220  132.2430 O   0  0  0  0  0  0  0  0  0  0  0  0
  141.1600  151.0020  132.4240 N   0  0  0  0  0  0  0  0  0  0  0  0
  139.7580  150.9820  131.9930 C   0  0  0  0  0  0  0  0  0  0  0  0
  139.1320  149.5980  132.2390 C   0  0  0  0  0  0  0  0  0  0  0  0
  139.9670  148.4930  131.7230 N   0  0  0  0  0  0  0  0  0  0  0  0
  139.9420  148.4050  130.2510 C   0  0  0  0  0  0  0  0  0  0  0  0
  141.3400  148.5470  132.2660 C   0  0  0  0  0  0  0  0  0  0  0  0
  142.0250  149.8940  132.0010 C   0  0  0  0  0  0  0  0  0  0  0  0
  144.4100  154.6300  133.2760 C   0  0  0  0  0  0  0  0  0  0  0  0
  145.1920  155.7930  133.2210 C   0  0  0  0  0  0  0  0  0  0  0  0
  142.1760  160.0900  134.0090 C   0  0  0  0  0  0  0  0  0  0  0  0
  142.8600  161.1050  133.7010 O   0  0  0  0  0  0  0  0  0  0  0  0
  140.9750  159.8430  133.3470 O   0  0  0  0  0  0  0  0  0  0  0  0
  142.1378  159.1537  137.1953 H   0  0  0  0  0  0  0  0  0  0  0  0
  140.9639  160.0235  136.1503 H   0  0  0  0  0  0  0  0  0  0  0  0
  141.0076  158.2278  136.1503 H   0  0  0  0  0  0  0  0  0  0  0  0
  143.6039  159.5164  135.4988 H   0  0  0  0  0  0  0  0  0  0  0  0
  145.0030  161.1370  132.9760 H   0  0  0  0  0  0  0  0  0  0  0  0
  144.0370  159.6590  132.6160 H   0  0  0  0  0  0  0  0  0  0  0  0
  148.1074  157.3009  132.9817 H   0  0  0  0  0  0  0  0  0  0  0  0
  148.3163  154.4657  132.8252 H   0  0  0  0  0  0  0  0  0  0  0  0
  146.9597  152.3480  132.8775 H   0  0  0  0  0  0  0  0  0  0  0  0
  144.1071  151.7601  132.1384 H   0  0  0  0  0  0  0  0  0  0  0  0
  144.7784  151.3590  133.7719 H   0  0  0  0  0  0  0  0  0  0  0  0
  142.6915  151.5622  134.5725 H   0  0  0  0  0  0  0  0  0  0  0  0
  142.8502  153.3423  134.2466 H   0  0  0  0  0  0  0  0  0  0  0  0
  139.1954  151.7385  132.5597 H   0  0  0  0  0  0  0  0  0  0  0  0
  139.7163  151.2021  130.9161 H   0  0  0  0  0  0  0  0  0  0  0  0
  138.9970  149.4606  133.3220 H   0  0  0  0  0  0  0  0  0  0  0  0
  138.1727  149.5676  131.7016 H   0  0  0  0  0  0  0  0  0  0  0  0
  139.6530  147.3874  129.9494 H   0  0  0  0  0  0  0  0  0  0  0  0
  139.2132  149.1264  129.8529 H   0  0  0  0  0  0  0  0  0  0  0  0
  140.9412  148.6356  129.8529 H   0  0  0  0  0  0  0  0  0  0  0  0
  141.2962  148.3814  133.3526 H   0  0  0  0  0  0  0  0  0  0  0  0
  141.9296  147.7676  131.7611 H   0  0  0  0  0  0  0  0  0  0  0  0
  142.9694  149.9368  132.5634 H   0  0  0  0  0  0  0  0  0  0  0  0
  142.2215  149.9874  130.9227 H   0  0  0  0  0  0  0  0  0  0  0  0
  143.3194  154.6906  133.4056 H   0  0  0  0  0  0  0  0  0  0  0  0
  1  2  1  0
  2  3  1  0
  3  4  1  0
  4  5  2  0
  4  6  1  0
  6  7  1  0
  7  8  1  0
  8  9  1  0
  8 10  2  0
  7 11  2  0
 11 12  1  0
 12 13  2  0
 13 14  1  0
 14 15  2  0
 15 16  1  0
 16 17  1  0
 17 18  1  0
 18 19  2  0
 18 20  1  0
 20 21  1  0
 21 22  1  0
 22 23  1  0
 23 24  1  0
 23 25  1  0
 25 26  1  0
 15 27  1  0
 27 28  2  0
  2 29  1  0
 29 30  2  0
 29 31  1  0
 28  6  1  0
 28 12  1  0
 26 20  1  0
  1 32  1  0
  1 33  1  0
  1 34  1  0
  2 35  1  1
  9 36  1  0
  9 37  1  0
 11 38  1  0
 13 39  1  0
 14 40  1  0
 16 41  1  0
 16 42  1  0
 17 43  1  0
 17 44  1  0
 21 45  1  0
 21 46  1  0
 22 47  1  0
 22 48  1  0
 24 49  1  0
 24 50  1  0
 24 51  1  0
 25 52  1  0
 25 53  1  0
 26 54  1  0
 26 55  1  0
 27 56  1  0
M  CHG  1  31  -1
M  END
>  <UniqueID>  (27) 
26

>  <SMILES>  (27) 
C[C@@H](OC(=O)n1c(C(N)=O)cc2ccc(CCC(=O)N3CCN(C)CC3)cc21)C(=O)[O-]

>  <Energy>  (27) 
95.50600286057232

>  <Genealogy>  (27) 
CC(OC(=O)n1c(C(N)=O)cc2ccc(CCC(=O)N3CCN(C)CC3)cc21)C(=O)[O-] (protonated)
C[C@@H](OC(=O)n1c(C(N)=O)cc2ccc(CCC(=O)N3CCN(C)CC3)cc21)C(=O)[O-] (chirality)
C[C@@H](OC(=O)n1c(C(N)=O)cc2ccc(CCC(=O)N3CCN(C)CC3)cc21)C(=O)[O-] (3D coordinates assigned)
C[C@@H](OC(=O)n1c(C(N)=O)cc2ccc(CCC(=O)N3CCN(C)CC3)cc21)C(=O)[O-] (nonaromatic ring conformer: 95.50600286057232 kcal/mol)

>  <smiles>  (27) 
CC(OC(=O)n1c(C(N)=O)cc2ccc(CCC(=O)N3CCN(C)CC3)cc21)C(=O)O

>  <score_type>  (27) 
oracle

>  <origin>  (27) 
adg

>  <m_score__min__energy>  (27) 
-9.7100000000000009

>  <m_primary>  (27) 
energy

$$$$
27:0
     RDKit          3D

 42 44  0  0  0  0  0  0  0  0999 V2000
  139.3220  157.5660  132.9840 C   0  0  0  0  0  0  0  0  0  0  0  0
  140.2930  158.3930  133.6950 N   0  0  0  0  0  0  0  0  0  0  0  0
  140.7250  159.7130  133.2690 C   0  0  0  0  0  0  0  0  0  0  0  0
  141.7240  160.2000  134.3530 C   0  0  2  0  0  0  0  0  0  0  0  0
  143.0530  160.6520  133.7350 C   0  0  0  0  0  0  0  0  0  0  0  0
  144.0760  159.7080  134.0390 O   0  0  0  0  0  0  0  0  0  0  0  0
  144.2180  158.4970  133.3510 C   0  0  0  0  0  0  0  0  0  0  0  0
  143.2680  158.0710  132.6430 O   0  0  0  0  0  0  0  0  0  0  0  0
  145.4350  157.7290  133.4900 N   0  0  0  0  0  0  0  0  0  0  0  0
  145.5570  156.4890  134.0470 C   0  0  0  0  0  0  0  0  0  0  0  0
  144.5150  155.7610  134.7930 C   0  0  0  0  0  0  0  0  0  0  0  0
  143.1490  155.8370  134.3810 N   0  0  0  0  0  0  0  0  0  0  0  0
  144.8210  155.1390  135.8510 O   0  0  0  0  0  0  0  0  0  0  0  0
  146.8410  155.9860  133.8730 C   0  0  0  0  0  0  0  0  0  0  0  0
  147.5290  156.9740  133.2100 C   0  0  0  0  0  0  0  0  0  0  0  0
  148.8540  156.9950  132.7800 C   0  0  0  0  0  0  0  0  0  0  0  0
  149.3050  158.1310  132.0920 C   0  0  0  0  0  0  0  0  0  0  0  0
  148.4390  159.2290  131.8560 C   0  0  0  0  0  0  0  0  0  0  0  0
  148.9360  160.4140  131.0660 C   0  0  0  0  0  0  0  0  0  0  0  0
  150.3190  160.4120  131.0580 F   0  0  0  0  0  0  0  0  0  0  0  0
  148.4910  161.5960  131.6400 F   0  0  0  0  0  0  0  0  0  0  0  0
  148.4740  160.3650  129.7610 F   0  0  0  0  0  0  0  0  0  0  0  0
  147.0940  159.1630  132.2890 C   0  0  0  0  0  0  0  0  0  0  0  0
  146.6650  158.0170  132.9850 C   0  0  0  0  0  0  0  0  0  0  0  0
  141.9090  159.0400  135.3600 C   0  0  0  0  0  0  0  0  0  0  0  0
  140.9550  158.0210  134.8820 C   0  0  0  0  0  0  0  0  0  0  0  0
  140.7710  156.9110  135.4530 O   0  0  0  0  0  0  0  0  0  0  0  0
  138.6938  157.0309  133.7113 H   0  0  0  0  0  0  0  0  0  0  0  0
  138.6880  158.2058  132.3525 H   0  0  0  0  0  0  0  0  0  0  0  0
  139.8528  156.8383  132.3525 H   0  0  0  0  0  0  0  0  0  0  0  0
  141.2208  159.6562  132.2887 H   0  0  0  0  0  0  0  0  0  0  0  0
  139.8749  160.4028  133.1620 H   0  0  0  0  0  0  0  0  0  0  0  0
  141.3292  161.0859  134.8720 H   0  0  0  0  0  0  0  0  0  0  0  0
  142.9402  160.7285  132.6435 H   0  0  0  0  0  0  0  0  0  0  0  0
  143.3302  161.6322  134.1502 H   0  0  0  0  0  0  0  0  0  0  0  0
  142.6700  156.7630  134.3030 H   0  0  0  0  0  0  0  0  0  0  0  0
  147.2244  155.0070  134.1966 H   0  0  0  0  0  0  0  0  0  0  0  0
  149.5262  156.1462  132.9742 H   0  0  0  0  0  0  0  0  0  0  0  0
  150.3433  158.1708  131.7310 H   0  0  0  0  0  0  0  0  0  0  0  0
  146.3977  159.9900  132.0861 H   0  0  0  0  0  0  0  0  0  0  0  0
  142.9399  158.6572  135.3352 H   0  0  0  0  0  0  0  0  0  0  0  0
  141.7302  159.3420  136.4025 H   0  0  0  0  0  0  0  0  0  0  0  0
  1  2  1  0
  2  3  1  0
  3  4  1  0
  4  5  1  0
  5  6  1  0
  6  7  1  0
  7  8  2  0
  7  9  1  0
  9 10  1  0
 10 11  1  0
 11 12  1  0
 11 13  2  0
 10 14  2  0
 14 15  1  0
 15 16  2  0
 16 17  1  0
 17 18  2  0
 18 19  1  0
 19 20  1  0
 19 21  1  0
 19 22  1  0
 18 23  1  0
 23 24  2  0
  4 25  1  0
 25 26  1  0
 26 27  2  0
 26  2  1  0
 24  9  1  0
 24 15  1  0
  1 28  1  0
  1 29  1  0
  1 30  1  0
  3 31  1  0
  3 32  1  0
  4 33  1  1
  5 34  1  0
  5 35  1  0
 12 36  1  0
 14 37  1  0
 16 38  1  0
 17 39  1  0
 23 40  1  0
 25 41  1  0
 25 42  1  0
M  CHG  1  12  -1
M  END
>  <UniqueID>  (28) 
27

>  <SMILES>  (28) 
CN1C[C@H](COC(=O)n2c(C([NH-])=O)cc3ccc(C(F)(F)F)cc32)CC1=O

>  <Energy>  (28) 
86.68723700247135

>  <Genealogy>  (28) 
CN1CC(COC(=O)n2c(C([NH-])=O)cc3ccc(C(F)(F)F)cc32)CC1=O (protonated)
CN1C[C@H](COC(=O)n2c(C([NH-])=O)cc3ccc(C(F)(F)F)cc32)CC1=O (chirality)
CN1C[C@H](COC(=O)n2c(C([NH-])=O)cc3ccc(C(F)(F)F)cc32)CC1=O (3D coordinates assigned)
CN1C[C@H](COC(=O)n2c(C([NH-])=O)cc3ccc(C(F)(F)F)cc32)CC1=O (nonaromatic ring conformer: 86.68723700247135 kcal/mol)

>  <smiles>  (28) 
CN1CC(COC(=O)n2c(C(N)=O)cc3ccc(C(F)(F)F)cc32)CC1=O

>  <score_type>  (28) 
oracle

>  <origin>  (28) 
adg

>  <m_score__min__energy>  (28) 
-7.0599999999999996

>  <m_primary>  (28) 
energy

$$$$
28:0
     RDKit          3D

 47 48  0  0  0  0  0  0  0  0999 V2000
  147.5250  152.6050  132.6310 C   0  0  0  0  0  0  0  0  0  0  0  0
  148.9630  152.5010  132.3250 N   0  0  0  0  0  0  0  0  0  0  0  0
  149.5950  151.5710  133.2790 C   0  0  0  0  0  0  0  0  0  0  0  0
  149.5940  153.8390  132.3840 C   0  0  0  0  0  0  0  0  0  0  0  0
  148.5890  154.8970  132.8700 C   0  0  0  0  0  0  0  0  0  0  0  0
  149.0700  156.3360  132.6080 C   0  0  0  0  0  0  0  0  0  0  0  0
  148.8220  157.2190  133.7600 N   0  0  0  0  0  0  0  0  0  0  0  0
  147.5500  157.8780  133.6050 C   0  0  0  0  0  0  0  0  0  0  0  0
  147.4940  159.2660  133.3160 C   0  0  0  0  0  0  0  0  0  0  0  0
  146.2590  159.9290  133.2100 C   0  0  0  0  0  0  0  0  0  0  0  0
  145.1000  159.1820  133.4000 C   0  0  0  0  0  0  0  0  0  0  0  0
  143.7810  159.5740  133.3810 C   0  0  0  0  0  0  0  0  0  0  0  0
  143.0470  158.4190  133.6450 C   0  0  0  0  0  0  0  0  0  0  0  0
  141.5700  158.3730  133.6320 C   0  0  0  0  0  0  0  0  0  0  0  0
  140.8940  157.5210  132.7090 N   0  0  0  0  0  0  0  0  0  0  0  0
  140.8950  159.0510  134.4500 O   0  0  0  0  0  0  0  0  0  0  0  0
  143.8820  157.3560  133.8280 N   0  0  0  0  0  0  0  0  0  0  0  0
  143.5320  156.0020  134.1620 C   0  0  0  0  0  0  0  0  0  0  0  0
  142.5220  155.4630  133.6320 O   0  0  0  0  0  0  0  0  0  0  0  0
  144.3030  155.2970  135.0930 O   0  0  0  0  0  0  0  0  0  0  0  0
  145.2210  154.2680  134.7340 C   0  0  0  0  0  0  0  0  0  0  0  0
  146.4190  154.2970  135.6310 C   0  0  0  0  0  0  0  0  0  0  0  0
  146.5960  153.3830  136.4780 O   0  0  0  0  0  0  0  0  0  0  0  0
  147.3430  155.3310  135.5290 O   0  0  0  0  0  0  0  0  0  0  0  0
  145.1330  157.8380  133.6700 C   0  0  0  0  0  0  0  0  0  0  0  0
  146.3480  157.1560  133.7990 C   0  0  0  0  0  0  0  0  0  0  0  0
  147.3820  152.6153  133.7216 H   0  0  0  0  0  0  0  0  0  0  0  0
  147.1247  153.5344  132.1999 H   0  0  0  0  0  0  0  0  0  0  0  0
  146.9951  151.7428  132.1999 H   0  0  0  0  0  0  0  0  0  0  0  0
  149.3750  151.8947  134.3070 H   0  0  0  0  0  0  0  0  0  0  0  0
  149.1979  150.5575  133.1208 H   0  0  0  0  0  0  0  0  0  0  0  0
  150.6836  151.5671  133.1208 H   0  0  0  0  0  0  0  0  0  0  0  0
  150.4461  153.8053  133.0788 H   0  0  0  0  0  0  0  0  0  0  0  0
  149.9332  154.1132  131.3742 H   0  0  0  0  0  0  0  0  0  0  0  0
  147.6346  154.7436  132.3450 H   0  0  0  0  0  0  0  0  0  0  0  0
  148.4781  154.7759  133.9577 H   0  0  0  0  0  0  0  0  0  0  0  0
  150.1502  156.3172  132.4010 H   0  0  0  0  0  0  0  0  0  0  0  0
  148.5071  156.7313  131.7496 H   0  0  0  0  0  0  0  0  0  0  0  0
  148.8220  156.6570  134.6430 H   0  0  0  0  0  0  0  0  0  0  0  0
  149.5760  157.9400  133.8370 H   0  0  0  0  0  0  0  0  0  0  0  0
  148.4277  159.8297  133.1732 H   0  0  0  0  0  0  0  0  0  0  0  0
  146.2101  161.0044  132.9840 H   0  0  0  0  0  0  0  0  0  0  0  0
  143.3889  160.5851  133.1965 H   0  0  0  0  0  0  0  0  0  0  0  0
  141.3850  156.7140  132.2650 H   0  0  0  0  0  0  0  0  0  0  0  0
  144.7237  153.2912  134.8259 H   0  0  0  0  0  0  0  0  0  0  0  0
  145.5494  154.4306  133.6968 H   0  0  0  0  0  0  0  0  0  0  0  0
  146.3686  156.0841  134.0453 H   0  0  0  0  0  0  0  0  0  0  0  0
  1  2  1  0
  2  3  1  0
  2  4  1  0
  4  5  1  0
  5  6  1  0
  6  7  1  0
  7  8  1  0
  8  9  2  0
  9 10  1  0
 10 11  2  0
 11 12  1  0
 12 13  2  0
 13 14  1  0
 14 15  1  0
 14 16  2  0
 13 17  1  0
 17 18  1  0
 18 19  2  0
 18 20  1  0
 20 21  1  0
 21 22  1  0
 22 23  2  0
 22 24  1  0
 17 25  1  0
 25 26  2  0
 26  8  1  0
 25 11  1  0
  1 27  1  0
  1 28  1  0
  1 29  1  0
  3 30  1  0
  3 31  1  0
  3 32  1  0
  4 33  1  0
  4 34  1  0
  5 35  1  0
  5 36  1  0
  6 37  1  0
  6 38  1  0
  7 39  1  0
  7 40  1  0
  9 41  1  0
 10 42  1  0
 12 43  1  0
 15 44  1  0
 21 45  1  0
 21 46  1  0
 26 47  1  0
M  CHG  3   7   1  15  -1  24  -1
M  END
>  <UniqueID>  (29) 
28

>  <SMILES>  (29) 
CN(C)CCC[NH2+]c1ccc2cc(C([NH-])=O)n(C(=O)OCC(=O)[O-])c2c1

>  <Energy>  (29) 
81.77099071412648

>  <Genealogy>  (29) 
CN(C)CCC[NH2+]c1ccc2cc(C([NH-])=O)n(C(=O)OCC(=O)[O-])c2c1 (protonated)
CN(C)CCC[NH2+]c1ccc2cc(C([NH-])=O)n(C(=O)OCC(=O)[O-])c2c1 (3D coordinates assigned)
CN(C)CCC[NH2+]c1ccc2cc(C([NH-])=O)n(C(=O)OCC(=O)[O-])c2c1 (optimized conformer: 81.77099071412648 kcal/mol)

>  <smiles>  (29) 
CN(C)CCCNc1ccc2cc(C(N)=O)n(C(=O)OCC(=O)O)c2c1

>  <score_type>  (29) 
oracle

>  <origin>  (29) 
adg

>  <m_score__min__energy>  (29) 
-6.5599999999999996

>  <m_primary>  (29) 
energy

$$$$
29:0
     RDKit          3D

 39 40  0  0  0  0  0  0  0  0999 V2000
  149.5500  151.5160  131.4720 C   0  0  0  0  0  0  0  0  0  0  0  0
  149.2140  152.8150  131.9010 O   0  0  0  0  0  0  0  0  0  0  0  0
  148.7810  152.7690  133.2450 C   0  0  0  0  0  0  0  0  0  0  0  0
  147.7130  153.8390  133.4670 C   0  0  0  0  0  0  0  0  0  0  0  0
  147.7960  154.8830  132.4450 N   0  0  0  0  0  0  0  0  0  0  0  0
  147.6030  156.2900  132.6920 C   0  0  0  0  0  0  0  0  0  0  0  0
  148.7240  157.1550  132.6370 C   0  0  0  0  0  0  0  0  0  0  0  0
  148.5870  158.5330  132.8760 C   0  0  0  0  0  0  0  0  0  0  0  0
  147.3140  159.0220  133.1520 C   0  0  0  0  0  0  0  0  0  0  0  0
  146.9030  160.3030  133.4390 C   0  0  0  0  0  0  0  0  0  0  0  0
  145.5260  160.2140  133.6310 C   0  0  0  0  0  0  0  0  0  0  0  0
  144.6610  161.3880  133.8740 C   0  0  0  0  0  0  0  0  0  0  0  0
  143.2470  161.3000  133.7260 N   0  0  0  0  0  0  0  0  0  0  0  0
  145.1830  162.4970  134.1680 O   0  0  0  0  0  0  0  0  0  0  0  0
  145.1050  158.9260  133.4800 N   0  0  0  0  0  0  0  0  0  0  0  0
  143.7800  158.4020  133.6660 C   0  0  0  0  0  0  0  0  0  0  0  0
  143.1840  157.8420  132.7060 O   0  0  0  0  0  0  0  0  0  0  0  0
  143.1480  158.5370  134.9080 O   0  0  0  0  0  0  0  0  0  0  0  0
  141.9960  157.7890  135.2860 C   0  0  0  0  0  0  0  0  0  0  0  0
  140.8990  158.7090  135.7160 C   0  0  0  0  0  0  0  0  0  0  0  0
  139.8630  158.2450  136.2610 O   0  0  0  0  0  0  0  0  0  0  0  0
  140.9990  160.0750  135.4800 O   0  0  0  0  0  0  0  0  0  0  0  0
  146.2130  158.2090  133.1840 C   0  0  0  0  0  0  0  0  0  0  0  0
  146.3230  156.8300  132.9720 C   0  0  0  0  0  0  0  0  0  0  0  0
  149.7166  150.8721  132.3482 H   0  0  0  0  0  0  0  0  0  0  0  0
  148.7284  151.1059  130.8664 H   0  0  0  0  0  0  0  0  0  0  0  0
  150.4674  151.5557  130.8664 H   0  0  0  0  0  0  0  0  0  0  0  0
  148.3580  151.7769  133.4613 H   0  0  0  0  0  0  0  0  0  0  0  0
  149.6341  152.9547  133.9141 H   0  0  0  0  0  0  0  0  0  0  0  0
  146.7191  153.3699  133.4221 H   0  0  0  0  0  0  0  0  0  0  0  0
  147.8778  154.2994  134.4523 H   0  0  0  0  0  0  0  0  0  0  0  0
  148.0230  154.5770  131.4710 H   0  0  0  0  0  0  0  0  0  0  0  0
  149.7163  156.7416  132.4037 H   0  0  0  0  0  0  0  0  0  0  0  0
  149.4584  159.2036  132.8459 H   0  0  0  0  0  0  0  0  0  0  0  0
  147.5285  161.2056  133.5032 H   0  0  0  0  0  0  0  0  0  0  0  0
  142.7030  160.5420  134.1980 H   0  0  0  0  0  0  0  0  0  0  0  0
  141.6535  157.1917  134.4282 H   0  0  0  0  0  0  0  0  0  0  0  0
  142.2580  157.1274  136.1248 H   0  0  0  0  0  0  0  0  0  0  0  0
  145.4366  156.1805  133.0215 H   0  0  0  0  0  0  0  0  0  0  0  0
  1  2  1  0
  2  3  1  0
  3  4  1  0
  4  5  1  0
  5  6  1  0
  6  7  2  0
  7  8  1  0
  8  9  2  0
  9 10  1  0
 10 11  2  0
 11 12  1  0
 12 13  1  0
 12 14  2  0
 11 15  1  0
 15 16  1  0
 16 17  2  0
 16 18  1  0
 18 19  1  0
 19 20  1  0
 20 21  2  0
 20 22  1  0
 15 23  1  0
 23 24  2  0
 24  6  1  0
 23  9  1  0
  1 25  1  0
  1 26  1  0
  1 27  1  0
  3 28  1  0
  3 29  1  0
  4 30  1  0
  4 31  1  0
  5 32  1  0
  7 33  1  0
  8 34  1  0
 10 35  1  0
 13 36  1  0
 19 37  1  0
 19 38  1  0
 24 39  1  0
M  CHG  2  13  -1  22  -1
M  END
>  <UniqueID>  (30) 
29

>  <SMILES>  (30) 
COCCNc1ccc2cc(C([NH-])=O)n(C(=O)OCC(=O)[O-])c2c1

>  <Energy>  (30) 
74.02452068028167

>  <Genealogy>  (30) 
COCCNc1ccc2cc(C([NH-])=O)n(C(=O)OCC(=O)[O-])c2c1 (protonated)
COCCNc1ccc2cc(C([NH-])=O)n(C(=O)OCC(=O)[O-])c2c1 (3D coordinates assigned)
COCCNc1ccc2cc(C([NH-])=O)n(C(=O)OCC(=O)[O-])c2c1 (optimized conformer: 74.02452068028167 kcal/mol)

>  <smiles>  (30) 
COCCNc1ccc2cc(C(N)=O)n(C(=O)OCC(=O)O)c2c1

>  <score_type>  (30) 
oracle

>  <origin>  (30) 
adg

>  <m_score__min__energy>  (30) 
-6.4000000000000004

>  <m_primary>  (30) 
energy

$$$$
30:0
     RDKit          3D

 41 42  0  0  0  0  0  0  0  0999 V2000
  142.2221  152.8772  138.6203 H   0  0  0  0  0  0  0  0  0  0  0  0
  141.1840  152.6890  138.3090 C   0  0  0  0  0  0  0  0  0  0  0  0
  140.8630  151.4910  137.5800 C   0  0  0  0  0  0  0  0  0  0  0  0
  140.6030  150.5270  136.9950 N   0  0  0  0  0  0  0  0  0  0  0  0
  140.2320  153.5730  138.6100 C   0  0  0  0  0  0  0  0  0  0  0  0
  139.1951  153.3517  138.3170 H   0  0  0  0  0  0  0  0  0  0  0  0
  140.5120  154.8340  139.3190 C   0  0  0  0  0  0  0  0  0  0  0  0
  140.3760  154.8600  140.5700 O   0  0  0  0  0  0  0  0  0  0  0  0
  141.0030  156.0090  138.6560 N   0  0  0  0  0  0  0  0  0  0  0  0
  140.9950  156.2380  137.2150 C   0  0  0  0  0  0  0  0  0  0  0  0
  140.7381  157.2885  137.0138 H   0  0  0  0  0  0  0  0  0  0  0  0
  140.2503  155.5775  136.7470 H   0  0  0  0  0  0  0  0  0  0  0  0
  142.3760  155.9330  136.6330 C   0  0  0  0  0  0  0  0  0  0  0  0
  142.6573  154.9033  136.8988 H   0  0  0  0  0  0  0  0  0  0  0  0
  143.0951  156.6532  137.0502 H   0  0  0  0  0  0  0  0  0  0  0  0
  142.3810  156.0680  135.1680 N   0  0  0  0  0  0  0  0  0  0  0  0
  143.2260  157.0410  134.5180 C   0  0  0  0  0  0  0  0  0  0  0  0
  142.6760  158.2610  134.0480 C   0  0  0  0  0  0  0  0  0  0  0  0
  141.5977  158.4487  134.1578 H   0  0  0  0  0  0  0  0  0  0  0  0
  143.4900  159.2310  133.4450 C   0  0  0  0  0  0  0  0  0  0  0  0
  143.0671  160.1790  133.0812 H   0  0  0  0  0  0  0  0  0  0  0  0
  144.8480  158.9580  133.3210 C   0  0  0  0  0  0  0  0  0  0  0  0
  145.8560  159.7330  132.8000 C   0  0  0  0  0  0  0  0  0  0  0  0
  145.7655  160.7320  132.3486 H   0  0  0  0  0  0  0  0  0  0  0  0
  147.0150  158.9830  132.9660 C   0  0  0  0  0  0  0  0  0  0  0  0
  148.3400  159.4570  132.5410 C   0  0  0  0  0  0  0  0  0  0  0  0
  148.4380  160.5460  131.9170 O   0  0  0  0  0  0  0  0  0  0  0  0
  149.5200  158.7460  132.9100 N   0  0  0  0  0  0  0  0  0  0  0  0
  149.4620  157.9050  133.5280 H   0  0  0  0  0  0  0  0  0  0  0  0
  150.4620  159.1100  132.6490 H   0  0  0  0  0  0  0  0  0  0  0  0
  146.7420  157.7770  133.5410 N   0  0  0  0  0  0  0  0  0  0  0  0
  147.6580  156.6820  133.7500 C   0  0  0  0  0  0  0  0  0  0  0  0
  148.3260  156.2160  132.7900 O   0  0  0  0  0  0  0  0  0  0  0  0
  147.8410  156.1370  135.0130 O   0  0  0  0  0  0  0  0  0  0  0  0
  145.4030  157.7810  133.7580 C   0  0  0  0  0  0  0  0  0  0  0  0
  144.6120  156.7990  134.3720 C   0  0  0  0  0  0  0  0  0  0  0  0
  145.0597  155.8610  134.7322 H   0  0  0  0  0  0  0  0  0  0  0  0
  141.4030  155.3080  134.3830 C   0  0  0  0  0  0  0  0  0  0  0  0
  140.7201  154.7773  135.0627 H   0  0  0  0  0  0  0  0  0  0  0  0
  140.8265  155.9975  133.7487 H   0  0  0  0  0  0  0  0  0  0  0  0
  141.9288  154.5791  133.7487 H   0  0  0  0  0  0  0  0  0  0  0  0
  1  2  1  0
  2  3  1  0
  3  4  3  0
  2  5  2  0
  5  6  1  0
  5  7  1  0
  7  8  2  0
  7  9  1  0
  9 10  1  0
 10 11  1  0
 10 12  1  0
 10 13  1  0
 13 14  1  0
 13 15  1  0
 13 16  1  0
 16 17  1  0
 17 18  2  0
 18 19  1  0
 18 20  1  0
 20 21  1  0
 20 22  2  0
 22 23  1  0
 23 24  1  0
 23 25  2  0
 25 26  1  0
 26 27  2  0
 26 28  1  0
 28 29  1  0
 28 30  1  0
 25 31  1  0
 31 32  1  0
 32 33  2  0
 32 34  1  0
 31 35  1  0
 35 36  2  0
 36 37  1  0
 16 38  1  0
 38 39  1  0
 38 40  1  0
 38 41  1  0
 36 17  1  0
 35 22  1  0
M  CHG  2   9  -1  34  -1
M  END
>  <UniqueID>  (31) 
30

>  <SMILES>  (31) 
CN(CC[N-]C(=O)/C=C/C#N)c1ccc2cc(C(N)=O)n(C(=O)[O-])c2c1

>  <Energy>  (31) 
84.61884794982517

>  <Genealogy>  (31) 
CN(CC[N-]C(=O)/C=C/C#N)c1ccc2cc(C(N)=O)n(C(=O)[O-])c2c1 (protonated)
CN(CC[N-]C(=O)/C=C/C#N)c1ccc2cc(C(N)=O)n(C(=O)[O-])c2c1 (cis-trans isomerization)
CN(CC[N-]C(=O)/C=C/C#N)c1ccc2cc(C(N)=O)n(C(=O)[O-])c2c1 (3D coordinates assigned)
CN(CC[N-]C(=O)/C=C/C#N)c1ccc2cc(C(N)=O)n(C(=O)[O-])c2c1 (optimized conformer: 84.61884794982517 kcal/mol)

>  <smiles>  (31) 
CN(CCNC(=O)/C=C/C#N)c1ccc2cc(C(N)=O)n(C(=O)O)c2c1

>  <score_type>  (31) 
oracle

>  <origin>  (31) 
adg

>  <m_score__min__energy>  (31) 
-7.6600000000000001

>  <m_primary>  (31) 
energy

$$$$
31:0
     RDKit          3D

 35 36  0  0  0  0  0  0  0  0999 V2000
  149.6429  157.1817  132.4896 H   0  0  0  0  0  0  0  0  0  0  0  0
  149.1730  158.1710  132.3870 C   0  0  0  0  0  0  0  0  0  0  0  0
  147.9820  158.4390  133.2210 C   0  0  0  0  0  0  0  0  0  0  0  0
  148.0180  159.4100  134.0220 O   0  0  0  0  0  0  0  0  0  0  0  0
  146.8120  157.6060  133.1850 N   0  0  0  0  0  0  0  0  0  0  0  0
  145.5160  157.9920  133.3530 C   0  0  0  0  0  0  0  0  0  0  0  0
  145.0320  159.3870  133.4620 C   0  0  0  0  0  0  0  0  0  0  0  0
  143.8620  159.5990  133.8770 O   0  0  0  0  0  0  0  0  0  0  0  0
  145.8400  160.4960  133.0670 N   0  0  0  0  0  0  0  0  0  0  0  0
  146.7340  160.3660  132.5480 H   0  0  0  0  0  0  0  0  0  0  0  0
  145.4920  161.4710  133.2090 H   0  0  0  0  0  0  0  0  0  0  0  0
  144.6810  156.8810  133.4370 C   0  0  0  0  0  0  0  0  0  0  0  0
  143.5888  156.8760  133.5675 H   0  0  0  0  0  0  0  0  0  0  0  0
  145.5130  155.7900  133.3220 C   0  0  0  0  0  0  0  0  0  0  0  0
  145.2170  154.4320  133.3490 C   0  0  0  0  0  0  0  0  0  0  0  0
  144.1799  154.0801  133.4518 H   0  0  0  0  0  0  0  0  0  0  0  0
  146.2820  153.5230  133.2410 C   0  0  0  0  0  0  0  0  0  0  0  0
  146.0762  152.4424  133.2361 H   0  0  0  0  0  0  0  0  0  0  0  0
  147.6220  153.9830  133.1380 C   0  0  0  0  0  0  0  0  0  0  0  0
  148.7590  153.0000  132.9770 C   0  0  0  0  0  0  0  0  0  0  0  0
  149.2260  152.5950  134.2180 F   0  0  0  0  0  0  0  0  0  0  0  0
  149.8120  153.5920  132.3010 F   0  0  0  0  0  0  0  0  0  0  0  0
  148.2910  151.7750  132.1960 C   0  0  0  0  0  0  0  0  0  0  0  0
  147.9892  150.9850  132.8994 H   0  0  0  0  0  0  0  0  0  0  0  0
  147.4343  152.0491  131.5629 H   0  0  0  0  0  0  0  0  0  0  0  0
  149.1123  151.4080  131.5629 H   0  0  0  0  0  0  0  0  0  0  0  0
  147.8780  155.3740  133.1040 C   0  0  0  0  0  0  0  0  0  0  0  0
  148.9061  155.7547  133.0143 H   0  0  0  0  0  0  0  0  0  0  0  0
  146.7940  156.2540  133.1870 C   0  0  0  0  0  0  0  0  0  0  0  0
  149.7330  159.0250  131.5160 C   0  0  0  0  0  0  0  0  0  0  0  0
  150.6000  158.6705  130.9393 H   0  0  0  0  0  0  0  0  0  0  0  0
  149.2610  160.4300  131.2720 C   0  0  0  0  0  0  0  0  0  0  0  0
  148.1769  160.4847  131.4501 H   0  0  0  0  0  0  0  0  0  0  0  0
  149.7900  161.1093  131.9567 H   0  0  0  0  0  0  0  0  0  0  0  0
  149.6060  160.9150  129.5930 Cl  0  0  0  0  0  0  0  0  0  0  0  0
  1  2  1  0
  2  3  1  0
  3  4  2  0
  3  5  1  0
  5  6  1  0
  6  7  1  0
  7  8  2  0
  7  9  1  0
  9 10  1  0
  9 11  1  0
  6 12  2  0
 12 13  1  0
 12 14  1  0
 14 15  2  0
 15 16  1  0
 15 17  1  0
 17 18  1  0
 17 19  2  0
 19 20  1  0
 20 21  1  0
 20 22  1  0
 20 23  1  0
 23 24  1  0
 23 25  1  0
 23 26  1  0
 19 27  1  0
 27 28  1  0
 27 29  2  0
  2 30  2  0
 30 31  1  0
 30 32  1  0
 32 33  1  0
 32 34  1  0
 32 35  1  0
 29  5  1  0
 29 14  1  0
M  END
>  <UniqueID>  (32) 
31

>  <SMILES>  (32) 
CC(F)(F)c1ccc2cc(C(N)=O)n(C(=O)/C=C\CCl)c2c1

>  <Energy>  (32) 
73.57890723202118

>  <Genealogy>  (32) 
CC(F)(F)c1ccc2cc(C(N)=O)n(C(=O)/C=C\CCl)c2c1 (cis-trans isomerization)
CC(F)(F)c1ccc2cc(C(N)=O)n(C(=O)/C=C\CCl)c2c1 (3D coordinates assigned)
CC(F)(F)c1ccc2cc(C(N)=O)n(C(=O)/C=C\CCl)c2c1 (optimized conformer: 73.57890723202118 kcal/mol)

>  <smiles>  (32) 
CC(F)(F)c1ccc2cc(C(N)=O)n(C(=O)C=CCCl)c2c1

>  <score_type>  (32) 
oracle

>  <origin>  (32) 
adg

>  <m_score__min__energy>  (32) 
-7.8799999999999999

>  <m_primary>  (32) 
energy

$$$$
32:0
     RDKit          3D

 40 42  0  0  0  0  0  0  0  0999 V2000
  138.7910  158.2730  131.8930 C   0  0  0  0  0  0  0  0  0  0  0  0
  139.2320  157.3880  133.0560 C   0  0  1  0  0  0  0  0  0  0  0  0
  140.1930  156.4430  132.5830 O   0  0  0  0  0  0  0  0  0  0  0  0
  140.2260  155.1050  132.9850 C   0  0  0  0  0  0  0  0  0  0  0  0
  139.1520  154.4970  133.2550 O   0  0  0  0  0  0  0  0  0  0  0  0
  141.4900  154.4260  133.0850 N   0  0  0  0  0  0  0  0  0  0  0  0
  142.6740  154.9610  133.4990 C   0  0  0  0  0  0  0  0  0  0  0  0
  142.9350  156.3940  133.7340 C   0  0  0  0  0  0  0  0  0  0  0  0
  142.5250  157.3810  132.7840 N   0  0  0  0  0  0  0  0  0  0  0  0
  143.5700  156.7490  134.7640 O   0  0  0  0  0  0  0  0  0  0  0  0
  143.6590  153.9820  133.5760 C   0  0  0  0  0  0  0  0  0  0  0  0
  143.0410  152.8170  133.1740 C   0  0  0  0  0  0  0  0  0  0  0  0
  143.5620  151.5360  133.0250 C   0  0  0  0  0  0  0  0  0  0  0  0
  142.7030  150.5230  132.5610 C   0  0  0  0  0  0  0  0  0  0  0  0
  141.3420  150.8000  132.2640 C   0  0  0  0  0  0  0  0  0  0  0  0
  140.4560  149.7340  131.7280 C   0  0  0  0  0  0  0  0  0  0  0  0
  140.9840  148.5160  131.2710 C   0  0  0  0  0  0  0  0  0  0  0  0
  140.1350  147.5370  130.7490 C   0  0  0  0  0  0  0  0  0  0  0  0
  138.7610  147.7790  130.6860 C   0  0  0  0  0  0  0  0  0  0  0  0
  138.2600  148.9580  131.1320 N   0  0  0  0  0  0  0  0  0  0  0  0
  139.0630  149.9280  131.6460 C   0  0  0  0  0  0  0  0  0  0  0  0
  140.8470  152.1120  132.4480 C   0  0  0  0  0  0  0  0  0  0  0  0
  141.7320  153.1090  132.8840 C   0  0  0  0  0  0  0  0  0  0  0  0
  139.8250  158.2350  134.1470 C   0  0  0  0  0  0  0  0  0  0  0  0
  139.4890  158.0580  135.3500 O   0  0  0  0  0  0  0  0  0  0  0  0
  140.8090  159.1720  133.8420 O   0  0  0  0  0  0  0  0  0  0  0  0
  138.3327  159.1928  132.2854 H   0  0  0  0  0  0  0  0  0  0  0  0
  139.6651  158.5325  131.2778 H   0  0  0  0  0  0  0  0  0  0  0  0
  138.0574  157.7314  131.2778 H   0  0  0  0  0  0  0  0  0  0  0  0
  138.3638  156.8508  133.4655 H   0  0  0  0  0  0  0  0  0  0  0  0
  142.1450  157.1040  131.8520 H   0  0  0  0  0  0  0  0  0  0  0  0
  142.6410  158.3940  133.0000 H   0  0  0  0  0  0  0  0  0  0  0  0
  144.7055  154.1097  133.8900 H   0  0  0  0  0  0  0  0  0  0  0  0
  144.6143  151.3213  133.2628 H   0  0  0  0  0  0  0  0  0  0  0  0
  143.0908  149.5024  132.4264 H   0  0  0  0  0  0  0  0  0  0  0  0
  142.0673  148.3324  131.3240 H   0  0  0  0  0  0  0  0  0  0  0  0
  140.5460  146.5819  130.3900 H   0  0  0  0  0  0  0  0  0  0  0  0
  138.0856  147.0142  130.2751 H   0  0  0  0  0  0  0  0  0  0  0  0
  138.6215  150.8711  132.0004 H   0  0  0  0  0  0  0  0  0  0  0  0
  139.7899  152.3457  132.2532 H   0  0  0  0  0  0  0  0  0  0  0  0
  1  2  1  0
  2  3  1  0
  3  4  1  0
  4  5  2  0
  4  6  1  0
  6  7  1  0
  7  8  1  0
  8  9  1  0
  8 10  2  0
  7 11  2  0
 11 12  1  0
 12 13  2  0
 13 14  1  0
 14 15  2  0
 15 16  1  0
 16 17  2  0
 17 18  1  0
 18 19  2  0
 19 20  1  0
 20 21  2  0
 15 22  1  0
 22 23  2  0
  2 24  1  0
 24 25  2  0
 24 26  1  0
 23  6  1  0
 23 12  1  0
 21 16  1  0
  1 27  1  0
  1 28  1  0
  1 29  1  0
  2 30  1  1
  9 31  1  0
  9 32  1  0
 11 33  1  0
 13 34  1  0
 14 35  1  0
 17 36  1  0
 18 37  1  0
 19 38  1  0
 21 39  1  0
 22 40  1  0
M  CHG  1  26  -1
M  END
>  <UniqueID>  (33) 
32

>  <SMILES>  (33) 
C[C@@H](OC(=O)n1c(C(N)=O)cc2ccc(-c3cccnc3)cc21)C(=O)[O-]

>  <Energy>  (33) 
83.61939930373875

>  <Genealogy>  (33) 
CC(OC(=O)n1c(C(N)=O)cc2ccc(-c3cccnc3)cc21)C(=O)[O-] (protonated)
C[C@@H](OC(=O)n1c(C(N)=O)cc2ccc(-c3cccnc3)cc21)C(=O)[O-] (chirality)
C[C@@H](OC(=O)n1c(C(N)=O)cc2ccc(-c3cccnc3)cc21)C(=O)[O-] (3D coordinates assigned)
C[C@@H](OC(=O)n1c(C(N)=O)cc2ccc(-c3cccnc3)cc21)C(=O)[O-] (optimized conformer: 83.61939930373875 kcal/mol)

>  <smiles>  (33) 
CC(OC(=O)n1c(C(N)=O)cc2ccc(-c3cccnc3)cc21)C(=O)O

>  <score_type>  (33) 
oracle

>  <origin>  (33) 
adg

>  <m_score__min__energy>  (33) 
-8.0800000000000001

>  <m_primary>  (33) 
energy

$$$$
33:0
     RDKit          3D

 43 45  0  0  0  0  0  0  0  0999 V2000
  140.6280  151.0430  136.3560 N   0  0  0  0  0  0  0  0  0  0  0  0
  140.7690  151.0750  137.7740 C   0  0  0  0  0  0  0  0  0  0  0  0
  140.6770  150.0020  138.4290 O   0  0  0  0  0  0  0  0  0  0  0  0
  140.9720  152.3520  138.4820 C   0  0  0  0  0  0  0  0  0  0  0  0
  140.5550  152.5830  139.7920 C   0  0  0  0  0  0  0  0  0  0  0  0
  140.8410  153.9090  140.0350 C   0  0  0  0  0  0  0  0  0  0  0  0
  140.6410  154.6760  141.1790 C   0  0  0  0  0  0  0  0  0  0  0  0
  141.0430  156.0220  141.1470 C   0  0  0  0  0  0  0  0  0  0  0  0
  141.6310  156.5760  139.9820 C   0  0  0  0  0  0  0  0  0  0  0  0
  142.0560  158.0180  139.9720 C   0  0  0  0  0  0  0  0  0  0  0  0
  143.4220  158.1030  140.1800 F   0  0  0  0  0  0  0  0  0  0  0  0
  141.7420  158.5860  138.7510 F   0  0  0  0  0  0  0  0  0  0  0  0
  141.8280  155.7630  138.8420 C   0  0  0  0  0  0  0  0  0  0  0  0
  141.4080  154.4300  138.9010 C   0  0  0  0  0  0  0  0  0  0  0  0
  141.5020  153.4850  137.9420 N   0  0  0  0  0  0  0  0  0  0  0  0
  142.1350  153.6470  136.6660 C   0  0  0  0  0  0  0  0  0  0  0  0
  142.9430  152.7670  136.2610 O   0  0  0  0  0  0  0  0  0  0  0  0
  141.7250  154.7840  135.7670 C   0  0  0  0  0  0  0  0  0  0  0  0
  141.7000  154.3830  134.3210 C   0  0  0  0  0  0  0  0  0  0  0  0
  141.8010  155.2700  133.4300 O   0  0  0  0  0  0  0  0  0  0  0  0
  141.5150  153.0080  133.9570 N   0  0  0  0  0  0  0  0  0  0  0  0
  141.3200  152.5900  132.5720 C   0  0  0  0  0  0  0  0  0  0  0  0
  140.8410  151.1730  132.5240 C   0  0  0  0  0  0  0  0  0  0  0  0
  141.2740  150.1470  133.3420 C   0  0  0  0  0  0  0  0  0  0  0  0
  140.5610  149.0320  132.9530 C   0  0  0  0  0  0  0  0  0  0  0  0
  139.7370  149.4550  131.9260 C   0  0  0  0  0  0  0  0  0  0  0  0
  138.7860  148.6240  131.1840 C   0  0  0  0  0  0  0  0  0  0  0  0
  139.1550  147.5420  130.6540 O   0  0  0  0  0  0  0  0  0  0  0  0
  139.9220  150.7330  131.6950 O   0  0  0  0  0  0  0  0  0  0  0  0
  141.4050  151.3550  135.7310 H   0  0  0  0  0  0  0  0  0  0  0  0
  140.0959  151.8613  140.4837 H   0  0  0  0  0  0  0  0  0  0  0  0
  140.1826  154.2421  142.0799 H   0  0  0  0  0  0  0  0  0  0  0  0
  140.8998  156.6533  142.0364 H   0  0  0  0  0  0  0  0  0  0  0  0
  141.5292  158.5559  140.7740 H   0  0  0  0  0  0  0  0  0  0  0  0
  142.2986  156.1676  137.9338 H   0  0  0  0  0  0  0  0  0  0  0  0
  140.7193  155.1211  136.0585 H   0  0  0  0  0  0  0  0  0  0  0  0
  142.4660  155.5889  135.8814 H   0  0  0  0  0  0  0  0  0  0  0  0
  141.4760  152.2830  134.7080 H   0  0  0  0  0  0  0  0  0  0  0  0
  140.5728  153.2427  132.0969 H   0  0  0  0  0  0  0  0  0  0  0  0
  142.2776  152.6642  132.0358 H   0  0  0  0  0  0  0  0  0  0  0  0
  142.0305  150.2069  134.1383 H   0  0  0  0  0  0  0  0  0  0  0  0
  140.6329  148.0176  133.3724 H   0  0  0  0  0  0  0  0  0  0  0  0
  137.7391  148.9478  131.0885 H   0  0  0  0  0  0  0  0  0  0  0  0
  1  2  1  0
  2  3  2  0
  2  4  1  0
  4  5  2  0
  5  6  1  0
  6  7  2  0
  7  8  1  0
  8  9  2  0
  9 10  1  0
 10 11  1  0
 10 12  1  0
  9 13  1  0
 13 14  2  0
 14 15  1  0
 15 16  1  0
 16 17  2  0
 16 18  1  0
 18 19  1  0
 19 20  2  0
 19 21  1  0
 21 22  1  0
 22 23  1  0
 23 24  2  0
 24 25  1  0
 25 26  2  0
 26 27  1  0
 27 28  2  0
 26 29  1  0
 15  4  1  0
 29 23  1  0
 14  6  1  0
  1 30  1  0
  5 31  1  0
  7 32  1  0
  8 33  1  0
 10 34  1  0
 13 35  1  0
 18 36  1  0
 18 37  1  0
 21 38  1  0
 22 39  1  0
 22 40  1  0
 24 41  1  0
 25 42  1  0
 27 43  1  0
M  CHG  1   1  -1
M  END
>  <UniqueID>  (34) 
33

>  <SMILES>  (34) 
[NH-]C(=O)c1cc2ccc(C(F)F)cc2n1C(=O)CC(=O)NCc1ccc(C=O)o1

>  <Energy>  (34) 
105.95436946065784

>  <Genealogy>  (34) 
[NH-]C(=O)c1cc2ccc(C(F)F)cc2n1C(=O)CC(=O)NCc1ccc(C=O)o1 (protonated)
[NH-]C(=O)c1cc2ccc(C(F)F)cc2n1C(=O)CC(=O)NCc1ccc(C=O)o1 (3D coordinates assigned)
[NH-]C(=O)c1cc2ccc(C(F)F)cc2n1C(=O)CC(=O)NCc1ccc(C=O)o1 (optimized conformer: 105.95436946065784 kcal/mol)

>  <smiles>  (34) 
NC(=O)c1cc2ccc(C(F)F)cc2n1C(=O)CC(=O)NCc1ccc(C=O)o1

>  <score_type>  (34) 
oracle

>  <origin>  (34) 
adg

>  <m_score__min__energy>  (34) 
-8.2899999999999991

>  <m_primary>  (34) 
energy

$$$$
34:0
     RDKit          3D

 45 46  0  0  0  0  0  0  0  0999 V2000
  137.9230  160.1280  130.7320 C   0  0  0  0  0  0  0  0  0  0  0  0
  138.7580  160.0720  131.7830 C   0  0  0  0  0  0  0  0  0  0  0  0
  140.0270  159.2710  131.7270 C   0  0  0  0  0  0  0  0  0  0  0  0
  140.0810  158.3550  132.8740 N   0  0  0  0  0  0  0  0  0  0  0  0
  138.8430  157.8840  133.4960 C   0  0  0  0  0  0  0  0  0  0  0  0
  141.3620  157.8960  133.3520 C   0  0  0  0  0  0  0  0  0  0  0  0
  141.8960  156.8760  132.8280 O   0  0  0  0  0  0  0  0  0  0  0  0
  142.0390  158.5490  134.5290 C   0  0  0  0  0  0  0  0  0  0  0  0
  143.3890  159.0850  134.1280 C   0  0  0  0  0  0  0  0  0  0  0  0
  143.6300  160.4810  134.1130 C   0  0  0  0  0  0  0  0  0  0  0  0
  144.8860  160.9930  133.7350 C   0  0  0  0  0  0  0  0  0  0  0  0
  145.8760  160.0860  133.3780 C   0  0  0  0  0  0  0  0  0  0  0  0
  147.1750  160.3010  132.9750 C   0  0  0  0  0  0  0  0  0  0  0  0
  147.7110  159.0290  132.7670 C   0  0  0  0  0  0  0  0  0  0  0  0
  149.1200  158.7870  132.3950 C   0  0  0  0  0  0  0  0  0  0  0  0
  149.6190  157.4600  132.2300 N   0  0  0  0  0  0  0  0  0  0  0  0
  149.9070  159.7640  132.2460 O   0  0  0  0  0  0  0  0  0  0  0  0
  146.7700  158.0730  133.0120 N   0  0  0  0  0  0  0  0  0  0  0  0
  146.9080  156.6460  132.9320 C   0  0  0  0  0  0  0  0  0  0  0  0
  146.9870  156.1050  131.7980 O   0  0  0  0  0  0  0  0  0  0  0  0
  146.9920  155.8040  134.1530 C   0  0  0  0  0  0  0  0  0  0  0  0
  147.6990  156.2040  135.2150 C   0  0  0  0  0  0  0  0  0  0  0  0
  146.3620  154.4420  134.1730 C   0  0  0  0  0  0  0  0  0  0  0  0
  145.6570  158.7320  133.3870 C   0  0  0  0  0  0  0  0  0  0  0  0
  144.4160  158.1960  133.7380 C   0  0  0  0  0  0  0  0  0  0  0  0
  136.9987  160.7210  130.7949 H   0  0  0  0  0  0  0  0  0  0  0  0
  138.1637  159.5808  129.8086 H   0  0  0  0  0  0  0  0  0  0  0  0
  138.5075  160.6231  132.7015 H   0  0  0  0  0  0  0  0  0  0  0  0
  140.0528  158.6905  130.7930 H   0  0  0  0  0  0  0  0  0  0  0  0
  140.8908  159.9512  131.7610 H   0  0  0  0  0  0  0  0  0  0  0  0
  138.9448  157.9227  134.5906 H   0  0  0  0  0  0  0  0  0  0  0  0
  138.0074  158.5271  133.1825 H   0  0  0  0  0  0  0  0  0  0  0  0
  138.6462  156.8482  133.1825 H   0  0  0  0  0  0  0  0  0  0  0  0
  141.4136  159.3775  134.8929 H   0  0  0  0  0  0  0  0  0  0  0  0
  142.1742  157.8001  135.3233 H   0  0  0  0  0  0  0  0  0  0  0  0
  142.8255  161.1739  134.4004 H   0  0  0  0  0  0  0  0  0  0  0  0
  145.0772  162.0762  133.7227 H   0  0  0  0  0  0  0  0  0  0  0  0
  147.6820  161.2684  132.8448 H   0  0  0  0  0  0  0  0  0  0  0  0
  149.0460  156.7290  131.7590 H   0  0  0  0  0  0  0  0  0  0  0  0
  147.7514  155.5690  136.1117 H   0  0  0  0  0  0  0  0  0  0  0  0
  148.2283  157.1680  135.1920 H   0  0  0  0  0  0  0  0  0  0  0  0
  146.2139  154.1218  135.2149 H   0  0  0  0  0  0  0  0  0  0  0  0
  145.3900  154.4800  133.6594 H   0  0  0  0  0  0  0  0  0  0  0  0
  147.0203  153.7259  133.6594 H   0  0  0  0  0  0  0  0  0  0  0  0
  144.2425  157.1101  133.7116 H   0  0  0  0  0  0  0  0  0  0  0  0
  1  2  2  0
  2  3  1  0
  3  4  1  0
  4  5  1  0
  4  6  1  0
  6  7  2  0
  6  8  1  0
  8  9  1  0
  9 10  2  0
 10 11  1  0
 11 12  2  0
 12 13  1  0
 13 14  2  0
 14 15  1  0
 15 16  1  0
 15 17  2  0
 14 18  1  0
 18 19  1  0
 19 20  2  0
 19 21  1  0
 21 22  2  0
 21 23  1  0
 18 24  1  0
 24 25  2  0
 25  9  1  0
 24 12  1  0
  1 26  1  0
  1 27  1  0
  2 28  1  0
  3 29  1  0
  3 30  1  0
  5 31  1  0
  5 32  1  0
  5 33  1  0
  8 34  1  0
  8 35  1  0
 10 36  1  0
 11 37  1  0
 13 38  1  0
 16 39  1  0
 22 40  1  0
 22 41  1  0
 23 42  1  0
 23 43  1  0
 23 44  1  0
 25 45  1  0
M  CHG  1  16  -1
M  END
>  <UniqueID>  (35) 
34

>  <SMILES>  (35) 
C=CCN(C)C(=O)Cc1ccc2cc(C([NH-])=O)n(C(=O)C(=C)C)c2c1

>  <Energy>  (35) 
77.62174326194207

>  <Genealogy>  (35) 
C=CCN(C)C(=O)Cc1ccc2cc(C([NH-])=O)n(C(=O)C(=C)C)c2c1 (protonated)
C=CCN(C)C(=O)Cc1ccc2cc(C([NH-])=O)n(C(=O)C(=C)C)c2c1 (3D coordinates assigned)
C=CCN(C)C(=O)Cc1ccc2cc(C([NH-])=O)n(C(=O)C(=C)C)c2c1 (optimized conformer: 77.62174326194207 kcal/mol)

>  <smiles>  (35) 
C=CCN(C)C(=O)Cc1ccc2cc(C(N)=O)n(C(=O)C(=C)C)c2c1

>  <score_type>  (35) 
oracle

>  <origin>  (35) 
adg

>  <m_score__min__energy>  (35) 
-7.9500000000000002

>  <m_primary>  (35) 
energy

$$$$
35:0
     RDKit          3D

 37 39  0  0  0  0  0  0  0  0999 V2000
  142.3980  160.6210  134.1140 N   0  0  0  0  0  0  0  0  0  0  0  0
  143.7310  160.9910  133.7740 C   0  0  0  0  0  0  0  0  0  0  0  0
  144.0380  162.2120  133.7160 O   0  0  0  0  0  0  0  0  0  0  0  0
  144.7710  159.9650  133.5430 C   0  0  0  0  0  0  0  0  0  0  0  0
  146.1160  160.2700  133.3520 C   0  0  0  0  0  0  0  0  0  0  0  0
  146.7580  159.0550  133.2720 C   0  0  0  0  0  0  0  0  0  0  0  0
  148.1040  158.7660  133.0780 C   0  0  0  0  0  0  0  0  0  0  0  0
  148.4850  157.4160  133.0100 C   0  0  0  0  0  0  0  0  0  0  0  0
  147.5210  156.3810  133.1260 C   0  0  0  0  0  0  0  0  0  0  0  0
  147.9310  154.9560  133.0430 C   0  0  0  0  0  0  0  0  0  0  0  0
  149.2170  154.6000  132.6030 C   0  0  0  0  0  0  0  0  0  0  0  0
  149.5890  153.2580  132.5320 C   0  0  0  0  0  0  0  0  0  0  0  0
  148.6730  152.2740  132.9040 C   0  0  0  0  0  0  0  0  0  0  0  0
  147.4300  152.6230  133.3300 N   0  0  0  0  0  0  0  0  0  0  0  0
  147.0440  153.9260  133.4070 C   0  0  0  0  0  0  0  0  0  0  0  0
  146.1600  156.7190  133.3190 C   0  0  0  0  0  0  0  0  0  0  0  0
  145.8130  158.0730  133.4050 C   0  0  0  0  0  0  0  0  0  0  0  0
  144.5850  158.6150  133.5680 N   0  0  0  0  0  0  0  0  0  0  0  0
  143.3470  157.8930  133.6700 C   0  0  0  0  0  0  0  0  0  0  0  0
  143.0760  157.2610  134.7270 O   0  0  0  0  0  0  0  0  0  0  0  0
  142.4430  157.9250  132.5990 O   0  0  0  0  0  0  0  0  0  0  0  0
  141.0690  158.1770  132.7110 C   0  0  0  0  0  0  0  0  0  0  0  0
  140.5730  159.2710  132.3250 O   0  0  0  0  0  0  0  0  0  0  0  0
  140.1710  157.1060  133.2370 C   0  0  0  0  0  0  0  0  0  0  0  0
  139.1680  156.8370  132.3230 F   0  0  0  0  0  0  0  0  0  0  0  0
  139.6040  157.5260  134.4250 F   0  0  0  0  0  0  0  0  0  0  0  0
  140.8960  155.9490  133.4620 F   0  0  0  0  0  0  0  0  0  0  0  0
  142.0270  159.6730  133.8820 H   0  0  0  0  0  0  0  0  0  0  0  0
  146.5693  161.2697  133.2803 H   0  0  0  0  0  0  0  0  0  0  0  0
  148.8480  159.5704  132.9807 H   0  0  0  0  0  0  0  0  0  0  0  0
  149.5443  157.1575  132.8649 H   0  0  0  0  0  0  0  0  0  0  0  0
  149.9332  155.3831  132.3134 H   0  0  0  0  0  0  0  0  0  0  0  0
  150.5950  152.9781  132.1860 H   0  0  0  0  0  0  0  0  0  0  0  0
  148.9572  151.2126  132.8526 H   0  0  0  0  0  0  0  0  0  0  0  0
  146.7570  151.8740  133.6080 H   0  0  0  0  0  0  0  0  0  0  0  0
  146.0313  154.1757  133.7563 H   0  0  0  0  0  0  0  0  0  0  0  0
  145.3921  155.9355  133.3996 H   0  0  0  0  0  0  0  0  0  0  0  0
  1  2  1  0
  2  3  2  0
  2  4  1  0
  4  5  2  0
  5  6  1  0
  6  7  2  0
  7  8  1  0
  8  9  2  0
  9 10  1  0
 10 11  2  0
 11 12  1  0
 12 13  2  0
 13 14  1  0
 14 15  2  0
  9 16  1  0
 16 17  2  0
 17 18  1  0
 18 19  1  0
 19 20  2  0
 19 21  1  0
 21 22  1  0
 22 23  2  0
 22 24  1  0
 24 25  1  0
 24 26  1  0
 24 27  1  0
 18  4  1  0
 17  6  1  0
 15 10  1  0
  1 28  1  0
  5 29  1  0
  7 30  1  0
  8 31  1  0
 11 32  1  0
 12 33  1  0
 13 34  1  0
 14 35  1  0
 15 36  1  0
 16 37  1  0
M  CHG  2   1  -1  14   1
M  END
>  <UniqueID>  (36) 
35

>  <SMILES>  (36) 
[NH-]C(=O)c1cc2ccc(-c3ccc[nH+]c3)cc2n1C(=O)OC(=O)C(F)(F)F

>  <Energy>  (36) 
83.62778750948462

>  <Genealogy>  (36) 
[NH-]C(=O)c1cc2ccc(-c3ccc[nH+]c3)cc2n1C(=O)OC(=O)C(F)(F)F (protonated)
[NH-]C(=O)c1cc2ccc(-c3ccc[nH+]c3)cc2n1C(=O)OC(=O)C(F)(F)F (3D coordinates assigned)
[NH-]C(=O)c1cc2ccc(-c3ccc[nH+]c3)cc2n1C(=O)OC(=O)C(F)(F)F (optimized conformer: 83.62778750948462 kcal/mol)

>  <smiles>  (36) 
NC(=O)c1cc2ccc(-c3cccnc3)cc2n1C(=O)OC(=O)C(F)(F)F

>  <score_type>  (36) 
oracle

>  <origin>  (36) 
adg

>  <m_score__min__energy>  (36) 
-7.0800000000000001

>  <m_primary>  (36) 
energy

$$$$
36:0
     RDKit          3D

 40 41  0  0  0  0  0  0  0  0999 V2000
  143.8480  155.6120  132.4650 N   0  0  0  0  0  0  0  0  0  0  0  0
  143.3630  154.7200  133.4710 C   0  0  0  0  0  0  0  0  0  0  0  0
  143.4870  155.0330  134.6840 O   0  0  0  0  0  0  0  0  0  0  0  0
  142.6690  153.4650  133.1130 C   0  0  0  0  0  0  0  0  0  0  0  0
  143.3240  152.2530  132.9060 C   0  0  0  0  0  0  0  0  0  0  0  0
  142.3280  151.3450  132.6270 C   0  0  0  0  0  0  0  0  0  0  0  0
  142.4150  149.9950  132.2980 C   0  0  0  0  0  0  0  0  0  0  0  0
  141.2250  149.3150  131.9900 C   0  0  0  0  0  0  0  0  0  0  0  0
  139.9790  149.9910  132.0120 C   0  0  0  0  0  0  0  0  0  0  0  0
  138.7180  149.2680  131.6300 C   0  0  0  0  0  0  0  0  0  0  0  0
  138.9190  148.5290  130.3460 C   0  0  0  0  0  0  0  0  0  0  0  0
  138.8550  149.1400  129.2470 O   0  0  0  0  0  0  0  0  0  0  0  0
  139.1330  147.1570  130.3590 O   0  0  0  0  0  0  0  0  0  0  0  0
  139.9330  151.3640  132.3360 C   0  0  0  0  0  0  0  0  0  0  0  0
  141.1300  152.0110  132.6630 C   0  0  0  0  0  0  0  0  0  0  0  0
  141.3230  153.3150  132.9620 N   0  0  0  0  0  0  0  0  0  0  0  0
  140.3240  154.3470  132.9580 C   0  0  0  0  0  0  0  0  0  0  0  0
  139.1030  154.0320  132.9990 O   0  0  0  0  0  0  0  0  0  0  0  0
  140.7170  155.7260  132.8870 N   0  0  0  0  0  0  0  0  0  0  0  0
  139.8370  156.8250  133.1470 C   0  0  0  0  0  0  0  0  0  0  0  0
  138.6420  156.6240  133.5010 O   0  0  0  0  0  0  0  0  0  0  0  0
  140.3250  158.1300  133.0160 O   0  0  0  0  0  0  0  0  0  0  0  0
  140.8080  158.9030  134.1150 C   0  0  0  0  0  0  0  0  0  0  0  0
  142.1120  158.3200  134.6670 C   0  0  0  0  0  0  0  0  0  0  0  0
  143.1400  158.1820  133.5880 C   0  0  0  0  0  0  0  0  0  0  0  0
  144.3590  158.3670  133.8460 O   0  0  0  0  0  0  0  0  0  0  0  0
  142.7570  157.8100  132.3070 O   0  0  0  0  0  0  0  0  0  0  0  0
  143.6140  155.4680  131.4590 H   0  0  0  0  0  0  0  0  0  0  0  0
  144.3510  156.4840  132.7380 H   0  0  0  0  0  0  0  0  0  0  0  0
  144.4063  152.0624  132.9551 H   0  0  0  0  0  0  0  0  0  0  0  0
  143.3852  149.4770  132.2798 H   0  0  0  0  0  0  0  0  0  0  0  0
  141.2603  148.2470  131.7291 H   0  0  0  0  0  0  0  0  0  0  0  0
  138.4535  148.5536  132.4235 H   0  0  0  0  0  0  0  0  0  0  0  0
  137.9077  150.0006  131.5010 H   0  0  0  0  0  0  0  0  0  0  0  0
  138.9793  151.9122  132.3316 H   0  0  0  0  0  0  0  0  0  0  0  0
  141.7110  155.9430  132.6520 H   0  0  0  0  0  0  0  0  0  0  0  0
  140.9899  159.9338  133.7770 H   0  0  0  0  0  0  0  0  0  0  0  0
  140.0517  158.8862  134.9136 H   0  0  0  0  0  0  0  0  0  0  0  0
  142.5007  158.9874  135.4502 H   0  0  0  0  0  0  0  0  0  0  0  0
  141.9017  157.3219  135.0788 H   0  0  0  0  0  0  0  0  0  0  0  0
  1  2  1  0
  2  3  2  0
  2  4  1  0
  4  5  2  0
  5  6  1  0
  6  7  2  0
  7  8  1  0
  8  9  2  0
  9 10  1  0
 10 11  1  0
 11 12  2  0
 11 13  1  0
  9 14  1  0
 14 15  2  0
 15 16  1  0
 16 17  1  0
 17 18  2  0
 17 19  1  0
 19 20  1  0
 20 21  2  0
 20 22  1  0
 22 23  1  0
 23 24  1  0
 24 25  1  0
 25 26  2  0
 25 27  1  0
 16  4  1  0
 15  6  1  0
  1 28  1  0
  1 29  1  0
  5 30  1  0
  7 31  1  0
  8 32  1  0
 10 33  1  0
 10 34  1  0
 14 35  1  0
 19 36  1  0
 23 37  1  0
 23 38  1  0
 24 39  1  0
 24 40  1  0
M  CHG  2  13  -1  27  -1
M  END
>  <UniqueID>  (37) 
36

>  <SMILES>  (37) 
NC(=O)c1cc2ccc(CC(=O)[O-])cc2n1C(=O)NC(=O)OCCC(=O)[O-]

>  <Energy>  (37) 
73.62621748347277

>  <Genealogy>  (37) 
NC(=O)c1cc2ccc(CC(=O)[O-])cc2n1C(=O)NC(=O)OCCC(=O)[O-] (protonated)
NC(=O)c1cc2ccc(CC(=O)[O-])cc2n1C(=O)NC(=O)OCCC(=O)[O-] (3D coordinates assigned)
NC(=O)c1cc2ccc(CC(=O)[O-])cc2n1C(=O)NC(=O)OCCC(=O)[O-] (optimized conformer: 73.62621748347277 kcal/mol)

>  <smiles>  (37) 
NC(=O)c1cc2ccc(CC(=O)O)cc2n1C(=O)NC(=O)OCCC(=O)O

>  <score_type>  (37) 
oracle

>  <origin>  (37) 
adg

>  <m_score__min__energy>  (37) 
-7.1399999999999997

>  <m_primary>  (37) 
energy

$$$$
37:0
     RDKit          3D

 43 45  0  0  0  0  0  0  0  0999 V2000
  148.5490  155.2970  132.8100 C   0  0  0  0  0  0  0  0  0  0  0  0
  148.1380  156.5720  132.7610 C   0  0  0  0  0  0  0  0  0  0  0  0
  146.6950  156.8810  133.1150 C   0  0  0  0  0  0  0  0  0  0  0  0
  146.3330  158.3010  132.9720 N   0  0  0  0  0  0  0  0  0  0  0  0
  145.0100  158.7140  133.3610 C   0  0  0  0  0  0  0  0  0  0  0  0
  144.7570  160.0630  133.7190 C   0  0  0  0  0  0  0  0  0  0  0  0
  143.4730  160.4720  134.1130 C   0  0  0  0  0  0  0  0  0  0  0  0
  142.4610  159.5180  134.1320 C   0  0  0  0  0  0  0  0  0  0  0  0
  141.1410  159.6360  134.5000 C   0  0  0  0  0  0  0  0  0  0  0  0
  140.5970  158.3630  134.3410 C   0  0  0  0  0  0  0  0  0  0  0  0
  139.1650  158.0610  134.5490 C   0  0  0  0  0  0  0  0  0  0  0  0
  138.3320  157.6770  133.4590 N   0  0  0  0  0  0  0  0  0  0  0  0
  138.6610  158.1920  135.6960 O   0  0  0  0  0  0  0  0  0  0  0  0
  141.5480  157.4890  133.9010 N   0  0  0  0  0  0  0  0  0  0  0  0
  141.4160  156.0730  133.6950 C   0  0  0  0  0  0  0  0  0  0  0  0
  142.3420  155.2910  134.0390 O   0  0  0  0  0  0  0  0  0  0  0  0
  140.2790  155.5550  133.0880 O   0  0  0  0  0  0  0  0  0  0  0  0
  142.6820  158.2130  133.7750 C   0  0  0  0  0  0  0  0  0  0  0  0
  143.9560  157.7730  133.3980 C   0  0  0  0  0  0  0  0  0  0  0  0
  147.1820  159.2330  132.2210 C   0  0  0  0  0  0  0  0  0  0  0  0
  148.6570  159.0730  132.6260 C   0  0  0  0  0  0  0  0  0  0  0  0
  148.8400  159.3680  134.1330 C   0  0  0  0  0  0  0  0  0  0  0  0
  149.5150  160.0720  131.8230 C   0  0  0  0  0  0  0  0  0  0  0  0
  149.1140  157.6350  132.2990 C   0  0  0  0  0  0  0  0  0  0  0  0
  149.5897  155.0445  132.5584 H   0  0  0  0  0  0  0  0  0  0  0  0
  147.8456  154.5032  133.1018 H   0  0  0  0  0  0  0  0  0  0  0  0
  146.0430  156.2899  132.4551 H   0  0  0  0  0  0  0  0  0  0  0  0
  146.5668  156.6258  134.1773 H   0  0  0  0  0  0  0  0  0  0  0  0
  145.5759  160.7968  133.6876 H   0  0  0  0  0  0  0  0  0  0  0  0
  143.2734  161.5155  134.3981 H   0  0  0  0  0  0  0  0  0  0  0  0
  140.6242  160.5431  134.8464 H   0  0  0  0  0  0  0  0  0  0  0  0
  138.3990  156.7210  133.0430 H   0  0  0  0  0  0  0  0  0  0  0  0
  144.1329  156.7193  133.1365 H   0  0  0  0  0  0  0  0  0  0  0  0
  147.0789  159.0283  131.1451 H   0  0  0  0  0  0  0  0  0  0  0  0
  146.8633  160.2614  132.4465 H   0  0  0  0  0  0  0  0  0  0  0  0
  148.3506  158.5791  134.7231 H   0  0  0  0  0  0  0  0  0  0  0  0
  149.9130  159.3939  134.3739 H   0  0  0  0  0  0  0  0  0  0  0  0
  148.3865  160.3408  134.3739 H   0  0  0  0  0  0  0  0  0  0  0  0
  150.0708  160.7191  132.5176 H   0  0  0  0  0  0  0  0  0  0  0  0
  150.2244  159.5195  131.1894 H   0  0  0  0  0  0  0  0  0  0  0  0
  148.8617  160.6899  131.1894 H   0  0  0  0  0  0  0  0  0  0  0  0
  149.2347  157.5471  131.2092 H   0  0  0  0  0  0  0  0  0  0  0  0
  150.0578  157.4645  132.8377 H   0  0  0  0  0  0  0  0  0  0  0  0
  1  2  2  0
  2  3  1  0
  3  4  1  0
  4  5  1  0
  5  6  2  0
  6  7  1  0
  7  8  2  0
  8  9  1  0
  9 10  2  0
 10 11  1  0
 11 12  1  0
 11 13  2  0
 10 14  1  0
 14 15  1  0
 15 16  2  0
 15 17  1  0
 14 18  1  0
 18 19  2  0
  4 20  1  0
 20 21  1  0
 21 22  1  0
 21 23  1  0
 21 24  1  0
 24  2  1  0
 19  5  1  0
 18  8  1  0
  1 25  1  0
  1 26  1  0
  3 27  1  0
  3 28  1  0
  6 29  1  0
  7 30  1  0
  9 31  1  0
 12 32  1  0
 19 33  1  0
 20 34  1  0
 20 35  1  0
 22 36  1  0
 22 37  1  0
 22 38  1  0
 23 39  1  0
 23 40  1  0
 23 41  1  0
 24 42  1  0
 24 43  1  0
M  CHG  2  12  -1  17  -1
M  END
>  <UniqueID>  (38) 
37

>  <SMILES>  (38) 
C=C1CN(c2ccc3cc(C([NH-])=O)n(C(=O)[O-])c3c2)CC(C)(C)C1

>  <Energy>  (38) 
85.17188948910372

>  <Genealogy>  (38) 
C=C1CN(c2ccc3cc(C([NH-])=O)n(C(=O)[O-])c3c2)CC(C)(C)C1 (protonated)
C=C1CN(c2ccc3cc(C([NH-])=O)n(C(=O)[O-])c3c2)CC(C)(C)C1 (3D coordinates assigned)
C=C1CN(c2ccc3cc(C([NH-])=O)n(C(=O)[O-])c3c2)CC(C)(C)C1 (nonaromatic ring conformer: 85.17188948910372 kcal/mol)

>  <smiles>  (38) 
C=C1CN(c2ccc3cc(C(N)=O)n(C(=O)O)c3c2)CC(C)(C)C1

>  <score_type>  (38) 
oracle

>  <origin>  (38) 
adg

>  <m_score__min__energy>  (38) 
-8.1500000000000004

>  <m_primary>  (38) 
energy

$$$$
38:0
     RDKit          3D

 37 38  0  0  0  0  0  0  0  0999 V2000
  140.4390  159.2270  132.1170 C   0  0  0  0  0  0  0  0  0  0  0  0
  141.1240  158.7650  133.3390 N   0  0  1  0  0  0  0  0  0  0  0  0
  140.2550  157.9230  134.1940 C   0  0  0  0  0  0  0  0  0  0  0  0
  140.0140  158.4980  135.5640 C   0  0  0  0  0  0  0  0  0  0  0  0
  140.6220  159.5380  135.9320 O   0  0  0  0  0  0  0  0  0  0  0  0
  139.1120  157.8910  136.4270 O   0  0  0  0  0  0  0  0  0  0  0  0
  142.3710  158.0930  133.0270 C   0  0  0  0  0  0  0  0  0  0  0  0
  142.5030  157.4790  131.9310 O   0  0  0  0  0  0  0  0  0  0  0  0
  143.4940  158.0800  133.9890 C   0  0  0  0  0  0  0  0  0  0  0  0
  143.3730  157.4990  135.1000 O   0  0  0  0  0  0  0  0  0  0  0  0
  144.7290  158.7360  133.6700 N   0  0  0  0  0  0  0  0  0  0  0  0
  144.9730  160.0750  133.6250 C   0  0  0  0  0  0  0  0  0  0  0  0
  143.9680  161.1450  133.8050 C   0  0  0  0  0  0  0  0  0  0  0  0
  142.5960  160.8340  134.0280 N   0  0  0  0  0  0  0  0  0  0  0  0
  144.3230  162.3520  133.7390 O   0  0  0  0  0  0  0  0  0  0  0  0
  146.3180  160.3140  133.3430 C   0  0  0  0  0  0  0  0  0  0  0  0
  146.8910  159.0680  133.2200 C   0  0  0  0  0  0  0  0  0  0  0  0
  148.2130  158.7080  132.9740 C   0  0  0  0  0  0  0  0  0  0  0  0
  148.5280  157.3390  132.9410 C   0  0  0  0  0  0  0  0  0  0  0  0
  147.5230  156.3570  133.1430 C   0  0  0  0  0  0  0  0  0  0  0  0
  147.8860  154.8940  133.1700 C   0  0  0  0  0  0  0  0  0  0  0  0
  149.0570  154.7020  132.4620 F   0  0  0  0  0  0  0  0  0  0  0  0
  146.8820  154.1310  132.5990 F   0  0  0  0  0  0  0  0  0  0  0  0
  148.0690  154.4600  134.4720 F   0  0  0  0  0  0  0  0  0  0  0  0
  146.1970  156.7650  133.4150 C   0  0  0  0  0  0  0  0  0  0  0  0
  145.9120  158.1330  133.4250 C   0  0  0  0  0  0  0  0  0  0  0  0
  139.5565  159.8222  132.3942 H   0  0  0  0  0  0  0  0  0  0  0  0
  141.1271  159.8463  131.5228 H   0  0  0  0  0  0  0  0  0  0  0  0
  140.1226  158.3570  131.5228 H   0  0  0  0  0  0  0  0  0  0  0  0
  141.3400  159.6310  133.8880 H   0  0  0  0  0  0  0  0  0  0  0  0
  139.2837  157.8041  133.6915 H   0  0  0  0  0  0  0  0  0  0  0  0
  140.7749  156.9639  134.3349 H   0  0  0  0  0  0  0  0  0  0  0  0
  142.3160  160.0570  134.6670 H   0  0  0  0  0  0  0  0  0  0  0  0
  146.8150  161.2900  133.2407 H   0  0  0  0  0  0  0  0  0  0  0  0
  148.9874  159.4719  132.8104 H   0  0  0  0  0  0  0  0  0  0  0  0
  149.5658  157.0245  132.7564 H   0  0  0  0  0  0  0  0  0  0  0  0
  145.4090  156.0238  133.6139 H   0  0  0  0  0  0  0  0  0  0  0  0
  1  2  1  0
  2  3  1  0
  3  4  1  0
  4  5  2  0
  4  6  1  0
  2  7  1  0
  7  8  2  0
  7  9  1  0
  9 10  2  0
  9 11  1  0
 11 12  1  0
 12 13  1  0
 13 14  1  0
 13 15  2  0
 12 16  2  0
 16 17  1  0
 17 18  2  0
 18 19  1  0
 19 20  2  0
 20 21  1  0
 21 22  1  0
 21 23  1  0
 21 24  1  0
 20 25  1  0
 25 26  2  0
 26 11  1  0
 26 17  1  0
  1 27  1  0
  1 28  1  0
  1 29  1  0
  2 30  1  1
  3 31  1  0
  3 32  1  0
 14 33  1  0
 16 34  1  0
 18 35  1  0
 19 36  1  0
 25 37  1  0
M  CHG  3   2   1   6  -1  14  -1
M  END
>  <UniqueID>  (39) 
38

>  <SMILES>  (39) 
C[N@@H+](CC(=O)[O-])C(=O)C(=O)n1c(C([NH-])=O)cc2ccc(C(F)(F)F)cc21

>  <Energy>  (39) 
81.05602843847961

>  <Genealogy>  (39) 
C[NH+](CC(=O)[O-])C(=O)C(=O)n1c(C([NH-])=O)cc2ccc(C(F)(F)F)cc21 (protonated)
C[N@@H+](CC(=O)[O-])C(=O)C(=O)n1c(C([NH-])=O)cc2ccc(C(F)(F)F)cc21 (chirality)
C[N@@H+](CC(=O)[O-])C(=O)C(=O)n1c(C([NH-])=O)cc2ccc(C(F)(F)F)cc21 (3D coordinates assigned)
C[N@@H+](CC(=O)[O-])C(=O)C(=O)n1c(C([NH-])=O)cc2ccc(C(F)(F)F)cc21 (optimized conformer: 81.05602843847961 kcal/mol)

>  <smiles>  (39) 
CN(CC(=O)O)C(=O)C(=O)n1c(C(N)=O)cc2ccc(C(F)(F)F)cc21

>  <score_type>  (39) 
oracle

>  <origin>  (39) 
adg

>  <m_score__min__energy>  (39) 
-4.8799999999999999

>  <m_primary>  (39) 
energy

$$$$
39:0
     RDKit          3D

 40 41  0  0  0  0  0  0  0  0999 V2000
  139.8700  158.2340  135.0140 C   0  0  0  0  0  0  0  0  0  0  0  0
  140.5140  158.5310  133.7290 N   0  0  0  0  0  0  0  0  0  0  0  0
  139.7900  158.2070  132.4900 C   0  0  0  0  0  0  0  0  0  0  0  0
  139.6390  159.4250  131.6300 C   0  0  0  0  0  0  0  0  0  0  0  0
  139.8490  159.3530  130.3910 O   0  0  0  0  0  0  0  0  0  0  0  0
  139.3130  160.6490  132.2010 O   0  0  0  0  0  0  0  0  0  0  0  0
  141.8460  159.1090  133.6950 C   0  0  0  0  0  0  0  0  0  0  0  0
  142.0300  160.5180  133.7540 C   0  0  0  0  0  0  0  0  0  0  0  0
  143.3160  161.0840  133.7320 C   0  0  0  0  0  0  0  0  0  0  0  0
  144.4040  160.2250  133.6380 C   0  0  0  0  0  0  0  0  0  0  0  0
  145.7510  160.5060  133.6340 C   0  0  0  0  0  0  0  0  0  0  0  0
  146.3830  159.2700  133.5400 C   0  0  0  0  0  0  0  0  0  0  0  0
  147.8480  159.1110  133.4470 C   0  0  0  0  0  0  0  0  0  0  0  0
  148.4840  157.8830  133.8030 N   0  0  0  0  0  0  0  0  0  0  0  0
  148.5450  160.0580  132.9940 O   0  0  0  0  0  0  0  0  0  0  0  0
  145.4670  158.2630  133.4990 N   0  0  0  0  0  0  0  0  0  0  0  0
  145.7260  156.8500  133.5240 C   0  0  0  0  0  0  0  0  0  0  0  0
  145.0980  156.1060  134.3250 O   0  0  0  0  0  0  0  0  0  0  0  0
  146.6760  156.3050  132.6510 O   0  0  0  0  0  0  0  0  0  0  0  0
  147.0040  154.9180  132.6130 C   0  0  0  0  0  0  0  0  0  0  0  0
  148.5040  154.7150  132.8030 C   0  0  0  0  0  0  0  0  0  0  0  0
  149.1700  155.9290  132.5950 O   0  0  0  0  0  0  0  0  0  0  0  0
  144.2570  158.8660  133.5580 C   0  0  0  0  0  0  0  0  0  0  0  0
  142.9890  158.2740  133.6010 C   0  0  0  0  0  0  0  0  0  0  0  0
  140.5336  158.5401  135.8361 H   0  0  0  0  0  0  0  0  0  0  0  0
  138.9207  158.7852  135.0845 H   0  0  0  0  0  0  0  0  0  0  0  0
  139.6730  157.1541  135.0845 H   0  0  0  0  0  0  0  0  0  0  0  0
  140.3500  157.4402  131.9347 H   0  0  0  0  0  0  0  0  0  0  0  0
  138.7892  157.8337  132.7528 H   0  0  0  0  0  0  0  0  0  0  0  0
  141.1507  161.1759  133.8179 H   0  0  0  0  0  0  0  0  0  0  0  0
  143.4569  162.1735  133.7875 H   0  0  0  0  0  0  0  0  0  0  0  0
  146.2265  161.4962  133.6926 H   0  0  0  0  0  0  0  0  0  0  0  0
  147.9240  157.0290  134.0220 H   0  0  0  0  0  0  0  0  0  0  0  0
  149.5240  157.8030  133.7720 H   0  0  0  0  0  0  0  0  0  0  0  0
  146.4640  154.3968  133.4172 H   0  0  0  0  0  0  0  0  0  0  0  0
  146.7127  154.5117  131.6332 H   0  0  0  0  0  0  0  0  0  0  0  0
  148.6992  154.3604  133.8258 H   0  0  0  0  0  0  0  0  0  0  0  0
  148.8672  153.9694  132.0804 H   0  0  0  0  0  0  0  0  0  0  0  0
  148.6810  156.3890  131.8650 H   0  0  0  0  0  0  0  0  0  0  0  0
  142.8809  157.1800  133.5625 H   0  0  0  0  0  0  0  0  0  0  0  0
  1  2  1  0
  2  3  1  0
  3  4  1  0
  4  5  2  0
  4  6  1  0
  2  7  1  0
  7  8  2  0
  8  9  1  0
  9 10  2  0
 10 11  1  0
 11 12  2  0
 12 13  1  0
 13 14  1  0
 13 15  2  0
 12 16  1  0
 16 17  1  0
 17 18  2  0
 17 19  1  0
 19 20  1  0
 20 21  1  0
 21 22  1  0
 16 23  1  0
 23 24  2  0
 24  7  1  0
 23 10  1  0
  1 25  1  0
  1 26  1  0
  1 27  1  0
  3 28  1  0
  3 29  1  0
  8 30  1  0
  9 31  1  0
 11 32  1  0
 14 33  1  0
 14 34  1  0
 20 35  1  0
 20 36  1  0
 21 37  1  0
 21 38  1  0
 22 39  1  0
 24 40  1  0
M  CHG  1   6  -1
M  END
>  <UniqueID>  (40) 
39

>  <SMILES>  (40) 
CN(CC(=O)[O-])c1ccc2cc(C(N)=O)n(C(=O)OCCO)c2c1

>  <Energy>  (40) 
76.66337562888494

>  <Genealogy>  (40) 
CN(CC(=O)[O-])c1ccc2cc(C(N)=O)n(C(=O)OCCO)c2c1 (protonated)
CN(CC(=O)[O-])c1ccc2cc(C(N)=O)n(C(=O)OCCO)c2c1 (3D coordinates assigned)
CN(CC(=O)[O-])c1ccc2cc(C(N)=O)n(C(=O)OCCO)c2c1 (optimized conformer: 76.66337562888494 kcal/mol)

>  <smiles>  (40) 
CN(CC(=O)O)c1ccc2cc(C(N)=O)n(C(=O)OCCO)c2c1

>  <score_type>  (40) 
oracle

>  <origin>  (40) 
adg

>  <m_score__min__energy>  (40) 
-6.0499999999999998

>  <m_primary>  (40) 
energy

$$$$
40:0
     RDKit          3D

 38 39  0  0  0  0  0  0  0  0999 V2000
  138.8200  158.5980  132.6700 C   0  0  0  0  0  0  0  0  0  0  0  0
  139.8260  157.8030  133.3810 N   0  0  0  0  0  0  0  0  0  0  0  0
  139.8940  156.3510  133.1780 C   0  0  0  0  0  0  0  0  0  0  0  0
  140.7300  158.4650  134.2910 C   0  0  0  0  0  0  0  0  0  0  0  0
  140.5970  159.7010  134.5140 O   0  0  0  0  0  0  0  0  0  0  0  0
  141.8000  157.7030  135.0310 C   0  0  0  0  0  0  0  0  0  0  0  0
  143.0790  158.3150  134.8690 O   0  0  0  0  0  0  0  0  0  0  0  0
  143.7580  158.3600  133.6470 C   0  0  0  0  0  0  0  0  0  0  0  0
  143.2300  157.8800  132.6050 O   0  0  0  0  0  0  0  0  0  0  0  0
  145.0510  158.9790  133.5730 N   0  0  0  0  0  0  0  0  0  0  0  0
  145.3360  160.3120  133.5610 C   0  0  0  0  0  0  0  0  0  0  0  0
  144.3740  161.4070  133.8010 C   0  0  0  0  0  0  0  0  0  0  0  0
  142.9690  161.1730  133.7530 N   0  0  0  0  0  0  0  0  0  0  0  0
  144.7970  162.5560  134.0970 O   0  0  0  0  0  0  0  0  0  0  0  0
  146.7000  160.5180  133.3700 C   0  0  0  0  0  0  0  0  0  0  0  0
  147.2490  159.2600  133.2700 C   0  0  0  0  0  0  0  0  0  0  0  0
  148.5710  158.8740  133.0730 C   0  0  0  0  0  0  0  0  0  0  0  0
  148.8490  157.4990  132.9840 C   0  0  0  0  0  0  0  0  0  0  0  0
  147.8060  156.5400  133.0670 C   0  0  0  0  0  0  0  0  0  0  0  0
  148.1220  155.0680  133.0070 C   0  0  0  0  0  0  0  0  0  0  0  0
  148.2300  154.5370  134.2800 F   0  0  0  0  0  0  0  0  0  0  0  0
  149.3200  154.8520  132.3450 F   0  0  0  0  0  0  0  0  0  0  0  0
  147.1100  154.4140  132.3290 F   0  0  0  0  0  0  0  0  0  0  0  0
  146.4780  156.9740  133.2910 C   0  0  0  0  0  0  0  0  0  0  0  0
  146.2340  158.3480  133.3950 C   0  0  0  0  0  0  0  0  0  0  0  0
  138.1738  159.1087  133.3992 H   0  0  0  0  0  0  0  0  0  0  0  0
  139.3226  159.3456  132.0387 H   0  0  0  0  0  0  0  0  0  0  0  0
  138.2088  157.9363  132.0387 H   0  0  0  0  0  0  0  0  0  0  0  0
  139.9177  155.8450  134.1544 H   0  0  0  0  0  0  0  0  0  0  0  0
  139.0105  156.0179  132.6137 H   0  0  0  0  0  0  0  0  0  0  0  0
  140.8048  156.1019  132.6137 H   0  0  0  0  0  0  0  0  0  0  0  0
  141.5474  157.6789  136.1013 H   0  0  0  0  0  0  0  0  0  0  0  0
  141.8482  156.6841  134.6192 H   0  0  0  0  0  0  0  0  0  0  0  0
  142.5800  160.2110  133.8630 H   0  0  0  0  0  0  0  0  0  0  0  0
  147.2269  161.4819  133.3115 H   0  0  0  0  0  0  0  0  0  0  0  0
  149.3737  159.6215  132.9895 H   0  0  0  0  0  0  0  0  0  0  0  0
  149.8873  157.1622  132.8484 H   0  0  0  0  0  0  0  0  0  0  0  0
  145.6564  156.2481  133.3813 H   0  0  0  0  0  0  0  0  0  0  0  0
  1  2  1  0
  2  3  1  0
  2  4  1  0
  4  5  2  0
  4  6  1  0
  6  7  1  0
  7  8  1  0
  8  9  2  0
  8 10  1  0
 10 11  1  0
 11 12  1  0
 12 13  1  0
 12 14  2  0
 11 15  2  0
 15 16  1  0
 16 17  2  0
 17 18  1  0
 18 19  2  0
 19 20  1  0
 20 21  1  0
 20 22  1  0
 20 23  1  0
 19 24  1  0
 24 25  2  0
 25 10  1  0
 25 16  1  0
  1 26  1  0
  1 27  1  0
  1 28  1  0
  3 29  1  0
  3 30  1  0
  3 31  1  0
  6 32  1  0
  6 33  1  0
 13 34  1  0
 15 35  1  0
 17 36  1  0
 18 37  1  0
 24 38  1  0
M  CHG  1  13  -1
M  END
>  <UniqueID>  (41) 
40

>  <SMILES>  (41) 
CN(C)C(=O)COC(=O)n1c(C([NH-])=O)cc2ccc(C(F)(F)F)cc21

>  <Energy>  (41) 
73.94797981793803

>  <Genealogy>  (41) 
CN(C)C(=O)COC(=O)n1c(C([NH-])=O)cc2ccc(C(F)(F)F)cc21 (protonated)
CN(C)C(=O)COC(=O)n1c(C([NH-])=O)cc2ccc(C(F)(F)F)cc21 (3D coordinates assigned)
CN(C)C(=O)COC(=O)n1c(C([NH-])=O)cc2ccc(C(F)(F)F)cc21 (optimized conformer: 73.94797981793803 kcal/mol)

>  <smiles>  (41) 
CN(C)C(=O)COC(=O)n1c(C(N)=O)cc2ccc(C(F)(F)F)cc21

>  <score_type>  (41) 
oracle

>  <origin>  (41) 
adg

>  <m_score__min__energy>  (41) 
-6.1100000000000003

>  <m_primary>  (41) 
energy

$$$$
41:0
     RDKit          3D

 45 46  0  0  0  0  0  0  0  0999 V2000
  139.7290  158.1850  134.8390 N   0  0  0  0  0  0  0  0  0  0  0  0
  140.3640  158.8840  133.7700 C   0  0  0  0  0  0  0  0  0  0  0  0
  139.6620  159.3440  132.8330 O   0  0  0  0  0  0  0  0  0  0  0  0
  141.8260  159.0960  133.7980 C   0  0  0  0  0  0  0  0  0  0  0  0
  142.4190  160.3580  133.8150 C   0  0  0  0  0  0  0  0  0  0  0  0
  143.7720  160.1250  133.7440 C   0  0  0  0  0  0  0  0  0  0  0  0
  144.8340  161.0230  133.7320 C   0  0  0  0  0  0  0  0  0  0  0  0
  146.1370  160.5040  133.6770 C   0  0  0  0  0  0  0  0  0  0  0  0
  146.3640  159.1020  133.6400 C   0  0  0  0  0  0  0  0  0  0  0  0
  147.7170  158.5840  133.6020 N   0  0  0  0  0  0  0  0  0  0  0  0
  148.0060  157.2390  134.1280 C   0  0  0  0  0  0  0  0  0  0  0  0
  148.1400  156.1980  133.0080 C   0  0  0  0  0  0  0  0  0  0  0  0
  147.4260  156.5920  131.8680 O   0  0  0  0  0  0  0  0  0  0  0  0
  148.8400  159.4420  133.1790 C   0  0  0  0  0  0  0  0  0  0  0  0
  148.9390  159.5220  131.6550 C   0  0  0  0  0  0  0  0  0  0  0  0
  149.4910  158.3390  131.1480 O   0  0  0  0  0  0  0  0  0  0  0  0
  145.2540  158.2240  133.6500 C   0  0  0  0  0  0  0  0  0  0  0  0
  143.9640  158.7710  133.6910 C   0  0  0  0  0  0  0  0  0  0  0  0
  142.7790  158.1220  133.7260 N   0  0  0  0  0  0  0  0  0  0  0  0
  142.5910  156.6990  133.7480 C   0  0  0  0  0  0  0  0  0  0  0  0
  141.8860  156.1700  134.6520 O   0  0  0  0  0  0  0  0  0  0  0  0
  143.2120  155.9020  132.7830 O   0  0  0  0  0  0  0  0  0  0  0  0
  143.2740  154.4840  132.8780 C   0  0  0  0  0  0  0  0  0  0  0  0
  144.6030  154.0160  132.3830 C   0  0  0  0  0  0  0  0  0  0  0  0
  145.5560  154.9540  131.8840 N   0  0  0  0  0  0  0  0  0  0  0  0
  144.9010  152.7930  132.4400 O   0  0  0  0  0  0  0  0  0  0  0  0
  140.1330  157.3000  135.2170 H   0  0  0  0  0  0  0  0  0  0  0  0
  141.9121  161.3325  133.8729 H   0  0  0  0  0  0  0  0  0  0  0  0
  144.6579  162.1083  133.7646 H   0  0  0  0  0  0  0  0  0  0  0  0
  146.9947  161.1926  133.6623 H   0  0  0  0  0  0  0  0  0  0  0  0
  148.9485  157.2744  134.6941 H   0  0  0  0  0  0  0  0  0  0  0  0
  147.1655  156.9387  134.7710 H   0  0  0  0  0  0  0  0  0  0  0  0
  149.2025  156.0861  132.7461 H   0  0  0  0  0  0  0  0  0  0  0  0
  147.7287  155.2428  133.3663 H   0  0  0  0  0  0  0  0  0  0  0  0
  148.0920  156.7060  131.1410 H   0  0  0  0  0  0  0  0  0  0  0  0
  148.6879  160.4545  133.5812 H   0  0  0  0  0  0  0  0  0  0  0  0
  149.7732  159.0048  133.5637 H   0  0  0  0  0  0  0  0  0  0  0  0
  147.9339  159.6656  131.2317 H   0  0  0  0  0  0  0  0  0  0  0  0
  149.5845  160.3688  131.3791 H   0  0  0  0  0  0  0  0  0  0  0  0
  148.7420  157.8480  130.7190 H   0  0  0  0  0  0  0  0  0  0  0  0
  145.4006  157.1341  133.6261 H   0  0  0  0  0  0  0  0  0  0  0  0
  143.1442  154.1796  133.9270 H   0  0  0  0  0  0  0  0  0  0  0  0
  142.4746  154.0376  132.2684 H   0  0  0  0  0  0  0  0  0  0  0  0
  146.4910  154.6300  131.5500 H   0  0  0  0  0  0  0  0  0  0  0  0
  145.3300  155.9730  131.8500 H   0  0  0  0  0  0  0  0  0  0  0  0
  1  2  1  0
  2  3  2  0
  2  4  1  0
  4  5  2  0
  5  6  1  0
  6  7  2  0
  7  8  1  0
  8  9  2  0
  9 10  1  0
 10 11  1  0
 11 12  1  0
 12 13  1  0
 10 14  1  0
 14 15  1  0
 15 16  1  0
  9 17  1  0
 17 18  2  0
 18 19  1  0
 19 20  1  0
 20 21  2  0
 20 22  1  0
 22 23  1  0
 23 24  1  0
 24 25  1  0
 24 26  2  0
 19  4  1  0
 18  6  1  0
  1 27  1  0
  5 28  1  0
  7 29  1  0
  8 30  1  0
 11 31  1  0
 11 32  1  0
 12 33  1  0
 12 34  1  0
 13 35  1  0
 14 36  1  0
 14 37  1  0
 15 38  1  0
 15 39  1  0
 16 40  1  0
 17 41  1  0
 23 42  1  0
 23 43  1  0
 25 44  1  0
 25 45  1  0
M  CHG  1   1  -1
M  END
>  <UniqueID>  (42) 
41

>  <SMILES>  (42) 
[NH-]C(=O)c1cc2ccc(N(CCO)CCO)cc2n1C(=O)OCC(N)=O

>  <Energy>  (42) 
77.3794732710499

>  <Genealogy>  (42) 
[NH-]C(=O)c1cc2ccc(N(CCO)CCO)cc2n1C(=O)OCC(N)=O (protonated)
[NH-]C(=O)c1cc2ccc(N(CCO)CCO)cc2n1C(=O)OCC(N)=O (3D coordinates assigned)
[NH-]C(=O)c1cc2ccc(N(CCO)CCO)cc2n1C(=O)OCC(N)=O (optimized conformer: 77.3794732710499 kcal/mol)

>  <smiles>  (42) 
NC(=O)COC(=O)n1c(C(N)=O)cc2ccc(N(CCO)CCO)cc21

>  <score_type>  (42) 
oracle

>  <origin>  (42) 
adg

>  <m_score__min__energy>  (42) 
-6.1399999999999997

>  <m_primary>  (42) 
energy

$$$$
42:0
     RDKit          3D

 38 40  0  0  0  0  0  0  0  0999 V2000
  140.4190  149.0940  133.2810 C   0  0  0  0  0  0  0  0  0  0  0  0
  141.1600  150.0390  133.1730 C   0  0  0  0  0  0  0  0  0  0  0  0
  142.0450  151.1670  133.0440 C   0  0  0  0  0  0  0  0  0  0  0  0
  143.4080  150.9600  132.7320 C   0  0  0  0  0  0  0  0  0  0  0  0
  144.2850  152.0530  132.6170 C   0  0  0  0  0  0  0  0  0  0  0  0
  143.7650  153.3300  132.8090 C   0  0  0  0  0  0  0  0  0  0  0  0
  144.3950  154.5540  132.7830 C   0  0  0  0  0  0  0  0  0  0  0  0
  143.3950  155.4860  133.0500 C   0  0  0  0  0  0  0  0  0  0  0  0
  143.6230  156.9450  133.0450 C   0  0  0  0  0  0  0  0  0  0  0  0
  142.6140  157.8510  132.5980 N   0  0  0  0  0  0  0  0  0  0  0  0
  144.7480  157.3960  133.3910 O   0  0  0  0  0  0  0  0  0  0  0  0
  142.1990  154.8650  133.2520 N   0  0  0  0  0  0  0  0  0  0  0  0
  140.9550  155.4700  133.6390 C   0  0  0  0  0  0  0  0  0  0  0  0
  140.6070  155.4740  134.8510 O   0  0  0  0  0  0  0  0  0  0  0  0
  140.1420  156.0670  132.6700 O   0  0  0  0  0  0  0  0  0  0  0  0
  139.1080  156.9960  132.9850 C   0  0  0  0  0  0  0  0  0  0  0  0
  139.6100  158.4010  132.8390 C   0  0  0  0  0  0  0  0  0  0  0  0
  140.6720  158.8800  133.4440 O   0  0  0  0  0  0  0  0  0  0  0  0
  140.7800  160.1270  133.0450 C   0  0  0  0  0  0  0  0  0  0  0  0
  141.6940  160.9030  133.4240 O   0  0  0  0  0  0  0  0  0  0  0  0
  139.8290  160.4740  132.2070 O   0  0  0  0  0  0  0  0  0  0  0  0
  139.0730  159.4110  132.0610 C   0  0  0  0  0  0  0  0  0  0  0  0
  137.8800  159.3350  131.1640 C   0  0  0  0  0  0  0  0  0  0  0  0
  137.3170  160.6090  131.0320 O   0  0  0  0  0  0  0  0  0  0  0  0
  142.4400  153.5440  133.0950 C   0  0  0  0  0  0  0  0  0  0  0  0
  141.5490  152.4730  133.2360 C   0  0  0  0  0  0  0  0  0  0  0  0
  139.7430  148.2319  133.3795 H   0  0  0  0  0  0  0  0  0  0  0  0
  143.7847  149.9380  132.5783 H   0  0  0  0  0  0  0  0  0  0  0  0
  145.3493  151.9036  132.3825 H   0  0  0  0  0  0  0  0  0  0  0  0
  145.4599  154.7531  132.5922 H   0  0  0  0  0  0  0  0  0  0  0  0
  141.7390  157.5060  132.1450 H   0  0  0  0  0  0  0  0  0  0  0  0
  142.7790  158.8810  132.6410 H   0  0  0  0  0  0  0  0  0  0  0  0
  138.2599  156.8407  132.3019 H   0  0  0  0  0  0  0  0  0  0  0  0
  138.7876  156.8363  134.0251 H   0  0  0  0  0  0  0  0  0  0  0  0
  138.1874  158.9652  130.1747 H   0  0  0  0  0  0  0  0  0  0  0  0
  137.1378  158.6479  131.5965 H   0  0  0  0  0  0  0  0  0  0  0  0
  137.9360  161.2330  131.4910 H   0  0  0  0  0  0  0  0  0  0  0  0
  140.4925  152.6455  133.4892 H   0  0  0  0  0  0  0  0  0  0  0  0
  1  2  3  0
  2  3  1  0
  3  4  2  0
  4  5  1  0
  5  6  2  0
  6  7  1  0
  7  8  2  0
  8  9  1  0
  9 10  1  0
  9 11  2  0
  8 12  1  0
 12 13  1  0
 13 14  2  0
 13 15  1  0
 15 16  1  0
 16 17  1  0
 17 18  1  0
 18 19  1  0
 19 20  2  0
 19 21  1  0
 21 22  1  0
 22 23  1  0
 23 24  1  0
 12 25  1  0
 25 26  2  0
 26  3  1  0
 25  6  1  0
 22 17  2  0
  1 27  1  0
  4 28  1  0
  5 29  1  0
  7 30  1  0
 10 31  1  0
 10 32  1  0
 16 33  1  0
 16 34  1  0
 23 35  1  0
 23 36  1  0
 24 37  1  0
 26 38  1  0
M  END
>  <UniqueID>  (43) 
42

>  <SMILES>  (43) 
C#Cc1ccc2cc(C(N)=O)n(C(=O)OCc3oc(=O)oc3CO)c2c1

>  <Energy>  (43) 
105.94455172539787

>  <Genealogy>  (43) 
C#Cc1ccc2cc(C(N)=O)n(C(=O)OCc3oc(=O)oc3CO)c2c1 (3D coordinates assigned)
C#Cc1ccc2cc(C(N)=O)n(C(=O)OCc3oc(=O)oc3CO)c2c1 (optimized conformer: 105.94455172539787 kcal/mol)

>  <smiles>  (43) 
C#Cc1ccc2cc(C(N)=O)n(C(=O)OCc3oc(=O)oc3CO)c2c1

>  <score_type>  (43) 
oracle

>  <origin>  (43) 
adg

>  <m_score__min__energy>  (43) 
-7.2999999999999998

>  <m_primary>  (43) 
energy

$$$$
43:0
     RDKit          3D

 32 33  0  0  0  0  0  0  0  0999 V2000
  148.8580  161.2280  131.4780 N   0  0  0  0  0  0  0  0  0  0  0  0
  149.2670  160.3580  130.4260 C   0  0  0  0  0  0  0  0  0  0  0  0
  149.8480  160.8270  129.4120 O   0  0  0  0  0  0  0  0  0  0  0  0
  149.0250  158.8860  130.5400 C   0  0  0  0  0  0  0  0  0  0  0  0
  149.4060  158.4180  131.8310 O   0  0  0  0  0  0  0  0  0  0  0  0
  148.5770  158.5000  132.9560 C   0  0  0  0  0  0  0  0  0  0  0  0
  148.8600  159.2890  133.8980 O   0  0  0  0  0  0  0  0  0  0  0  0
  147.4010  157.6780  133.0340 N   0  0  0  0  0  0  0  0  0  0  0  0
  146.1300  158.0810  133.3190 C   0  0  0  0  0  0  0  0  0  0  0  0
  145.6740  159.4800  133.4400 C   0  0  0  0  0  0  0  0  0  0  0  0
  146.5380  160.5710  133.1180 N   0  0  0  0  0  0  0  0  0  0  0  0
  144.4830  159.7150  133.7790 O   0  0  0  0  0  0  0  0  0  0  0  0
  145.2810  156.9850  133.4430 C   0  0  0  0  0  0  0  0  0  0  0  0
  146.0730  155.8840  133.2080 C   0  0  0  0  0  0  0  0  0  0  0  0
  145.7510  154.5320  133.2320 C   0  0  0  0  0  0  0  0  0  0  0  0
  146.7810  153.6040  133.0010 C   0  0  0  0  0  0  0  0  0  0  0  0
  148.1050  154.0400  132.7440 C   0  0  0  0  0  0  0  0  0  0  0  0
  149.2140  153.0340  132.5620 C   0  0  0  0  0  0  0  0  0  0  0  0
  150.3830  153.6980  132.2430 F   0  0  0  0  0  0  0  0  0  0  0  0
  149.4090  152.3080  133.7250 F   0  0  0  0  0  0  0  0  0  0  0  0
  148.9060  152.1460  131.5450 F   0  0  0  0  0  0  0  0  0  0  0  0
  148.3980  155.4250  132.7540 C   0  0  0  0  0  0  0  0  0  0  0  0
  147.3490  156.3280  132.9660 C   0  0  0  0  0  0  0  0  0  0  0  0
  148.7660  160.8790  132.4560 H   0  0  0  0  0  0  0  0  0  0  0  0
  147.9560  158.6812  130.3812 H   0  0  0  0  0  0  0  0  0  0  0  0
  149.6267  158.3658  129.7802 H   0  0  0  0  0  0  0  0  0  0  0  0
  147.4700  160.4090  132.6770 H   0  0  0  0  0  0  0  0  0  0  0  0
  146.2110  161.5540  133.2480 H   0  0  0  0  0  0  0  0  0  0  0  0
  144.2066  156.9963  133.6785 H   0  0  0  0  0  0  0  0  0  0  0  0
  144.7209  154.1984  133.4260 H   0  0  0  0  0  0  0  0  0  0  0  0
  146.5571  152.5272  133.0199 H   0  0  0  0  0  0  0  0  0  0  0  0
  149.4262  155.7836  132.5988 H   0  0  0  0  0  0  0  0  0  0  0  0
  1  2  1  0
  2  3  2  0
  2  4  1  0
  4  5  1  0
  5  6  1  0
  6  7  2  0
  6  8  1  0
  8  9  1  0
  9 10  1  0
 10 11  1  0
 10 12  2  0
  9 13  2  0
 13 14  1  0
 14 15  2  0
 15 16  1  0
 16 17  2  0
 17 18  1  0
 18 19  1  0
 18 20  1  0
 18 21  1  0
 17 22  1  0
 22 23  2  0
 23  8  1  0
 23 14  1  0
  1 24  1  0
  4 25  1  0
  4 26  1  0
 11 27  1  0
 11 28  1  0
 13 29  1  0
 15 30  1  0
 16 31  1  0
 22 32  1  0
M  CHG  1   1  -1
M  END
>  <UniqueID>  (44) 
43

>  <SMILES>  (44) 
[NH-]C(=O)COC(=O)n1c(C(N)=O)cc2ccc(C(F)(F)F)cc21

>  <Energy>  (44) 
69.2065217749532

>  <Genealogy>  (44) 
[NH-]C(=O)COC(=O)n1c(C(N)=O)cc2ccc(C(F)(F)F)cc21 (protonated)
[NH-]C(=O)COC(=O)n1c(C(N)=O)cc2ccc(C(F)(F)F)cc21 (3D coordinates assigned)
[NH-]C(=O)COC(=O)n1c(C(N)=O)cc2ccc(C(F)(F)F)cc21 (optimized conformer: 69.2065217749532 kcal/mol)

>  <smiles>  (44) 
NC(=O)COC(=O)n1c(C(N)=O)cc2ccc(C(F)(F)F)cc21

>  <score_type>  (44) 
oracle

>  <origin>  (44) 
adg

>  <m_score__min__energy>  (44) 
-5.7300000000000004

>  <m_primary>  (44) 
energy

$$$$
44:0
     RDKit          3D

 27 28  0  0  0  0  0  0  0  0999 V2000
  147.3570  155.7280  131.9260 N   0  0  0  0  0  0  0  0  0  0  0  0
  146.3040  155.8880  132.8790 C   0  0  0  0  0  0  0  0  0  0  0  0
  145.8070  154.8650  133.4190 O   0  0  0  0  0  0  0  0  0  0  0  0
  145.8150  157.2350  133.2490 C   0  0  0  0  0  0  0  0  0  0  0  0
  144.4680  157.5740  133.3770 C   0  0  0  0  0  0  0  0  0  0  0  0
  144.4530  158.9270  133.6260 C   0  0  0  0  0  0  0  0  0  0  0  0
  143.3810  159.7920  133.8230 C   0  0  0  0  0  0  0  0  0  0  0  0
  143.6630  161.1480  134.0620 C   0  0  0  0  0  0  0  0  0  0  0  0
  145.0030  161.6120  134.1210 C   0  0  0  0  0  0  0  0  0  0  0  0
  145.2910  163.0760  134.3350 C   0  0  0  0  0  0  0  0  0  0  0  0
  145.2780  163.3490  135.6900 F   0  0  0  0  0  0  0  0  0  0  0  0
  144.3370  163.8590  133.7080 F   0  0  0  0  0  0  0  0  0  0  0  0
  146.5310  163.4100  133.8190 F   0  0  0  0  0  0  0  0  0  0  0  0
  146.0640  160.7050  133.8900 C   0  0  0  0  0  0  0  0  0  0  0  0
  145.7510  159.3640  133.6450 C   0  0  0  0  0  0  0  0  0  0  0  0
  146.5980  158.3380  133.4200 N   0  0  0  0  0  0  0  0  0  0  0  0
  148.0330  158.4150  133.4010 C   0  0  0  0  0  0  0  0  0  0  0  0
  148.6530  158.7370  134.4490 O   0  0  0  0  0  0  0  0  0  0  0  0
  148.7920  158.0810  132.1870 C   0  0  0  0  0  0  0  0  0  0  0  0
  148.5400  158.6610  131.0970 O   0  0  0  0  0  0  0  0  0  0  0  0
  149.7830  157.1080  132.2310 O   0  0  0  0  0  0  0  0  0  0  0  0
  147.7170  154.7730  131.7010 H   0  0  0  0  0  0  0  0  0  0  0  0
  147.7530  156.5420  131.4080 H   0  0  0  0  0  0  0  0  0  0  0  0
  143.6011  156.9018  133.2960 H   0  0  0  0  0  0  0  0  0  0  0  0
  142.3442  159.4256  133.7926 H   0  0  0  0  0  0  0  0  0  0  0  0
  142.8352  161.8582  134.2050 H   0  0  0  0  0  0  0  0  0  0  0  0
  147.1097  161.0462  133.9028 H   0  0  0  0  0  0  0  0  0  0  0  0
  1  2  1  0
  2  3  2  0
  2  4  1  0
  4  5  2  0
  5  6  1  0
  6  7  2  0
  7  8  1  0
  8  9  2  0
  9 10  1  0
 10 11  1  0
 10 12  1  0
 10 13  1  0
  9 14  1  0
 14 15  2  0
 15 16  1  0
 16 17  1  0
 17 18  2  0
 17 19  1  0
 19 20  2  0
 19 21  1  0
 16  4  1  0
 15  6  1  0
  1 22  1  0
  1 23  1  0
  5 24  1  0
  7 25  1  0
  8 26  1  0
 14 27  1  0
M  CHG  1  21  -1
M  END
>  <UniqueID>  (45) 
44

>  <SMILES>  (45) 
NC(=O)c1cc2ccc(C(F)(F)F)cc2n1C(=O)C(=O)[O-]

>  <Energy>  (45) 
67.39186464925055

>  <Genealogy>  (45) 
NC(=O)c1cc2ccc(C(F)(F)F)cc2n1C(=O)C(=O)[O-] (protonated)
NC(=O)c1cc2ccc(C(F)(F)F)cc2n1C(=O)C(=O)[O-] (3D coordinates assigned)
NC(=O)c1cc2ccc(C(F)(F)F)cc2n1C(=O)C(=O)[O-] (optimized conformer: 67.39186464925055 kcal/mol)

>  <smiles>  (45) 
NC(=O)c1cc2ccc(C(F)(F)F)cc2n1C(=O)C(=O)O

>  <score_type>  (45) 
oracle

>  <origin>  (45) 
adg

>  <m_score__min__energy>  (45) 
-5.6900000000000004

>  <m_primary>  (45) 
energy

$$$$
45:0
     RDKit          3D

 43 44  0  0  0  0  0  0  0  0999 V2000
  139.7670  158.1990  135.1200 C   0  0  0  0  0  0  0  0  0  0  0  0
  140.4950  158.2800  133.8470 N   0  0  0  0  0  0  0  0  0  0  0  0
  139.8240  157.8000  132.6270 C   0  0  0  0  0  0  0  0  0  0  0  0
  138.4450  158.4450  132.4520 C   0  0  0  0  0  0  0  0  0  0  0  0
  138.5960  159.8140  132.1140 O   0  0  0  0  0  0  0  0  0  0  0  0
  138.2920  160.0530  130.7560 C   0  0  0  0  0  0  0  0  0  0  0  0
  138.8820  161.2270  130.3170 F   0  0  0  0  0  0  0  0  0  0  0  0
  136.9210  160.1120  130.5690 F   0  0  0  0  0  0  0  0  0  0  0  0
  138.7900  159.0070  130.0040 F   0  0  0  0  0  0  0  0  0  0  0  0
  141.8310  158.8520  133.8030 C   0  0  0  0  0  0  0  0  0  0  0  0
  142.0110  160.2640  133.7870 C   0  0  0  0  0  0  0  0  0  0  0  0
  143.2940  160.8300  133.7310 C   0  0  0  0  0  0  0  0  0  0  0  0
  144.3870  159.9730  133.6850 C   0  0  0  0  0  0  0  0  0  0  0  0
  145.7310  160.2580  133.6480 C   0  0  0  0  0  0  0  0  0  0  0  0
  146.3690  159.0220  133.6220 C   0  0  0  0  0  0  0  0  0  0  0  0
  147.8340  158.8680  133.5210 C   0  0  0  0  0  0  0  0  0  0  0  0
  148.4850  157.6710  133.9520 N   0  0  0  0  0  0  0  0  0  0  0  0
  148.5180  159.7860  132.9940 O   0  0  0  0  0  0  0  0  0  0  0  0
  145.4590  158.0090  133.6520 N   0  0  0  0  0  0  0  0  0  0  0  0
  145.7310  156.6010  133.7680 C   0  0  0  0  0  0  0  0  0  0  0  0
  146.4230  156.0170  132.8900 O   0  0  0  0  0  0  0  0  0  0  0  0
  145.2310  155.8850  134.8590 O   0  0  0  0  0  0  0  0  0  0  0  0
  145.5340  154.5130  135.0860 C   0  0  0  0  0  0  0  0  0  0  0  0
  146.8080  154.4130  135.8490 C   0  0  0  0  0  0  0  0  0  0  0  0
  147.7100  155.2800  135.6930 O   0  0  0  0  0  0  0  0  0  0  0  0
  147.0270  153.3410  136.7040 O   0  0  0  0  0  0  0  0  0  0  0  0
  144.2470  158.6110  133.6870 C   0  0  0  0  0  0  0  0  0  0  0  0
  142.9790  158.0170  133.7630 C   0  0  0  0  0  0  0  0  0  0  0  0
  140.4786  158.2782  135.9550 H   0  0  0  0  0  0  0  0  0  0  0  0
  139.0392  159.0217  135.1792 H   0  0  0  0  0  0  0  0  0  0  0  0
  139.2379  157.2364  135.1792 H   0  0  0  0  0  0  0  0  0  0  0  0
  140.4475  158.0480  131.7554 H   0  0  0  0  0  0  0  0  0  0  0  0
  139.6869  156.7121  132.7145 H   0  0  0  0  0  0  0  0  0  0  0  0
  137.8991  157.9283  131.6488 H   0  0  0  0  0  0  0  0  0  0  0  0
  137.8826  158.3626  133.3938 H   0  0  0  0  0  0  0  0  0  0  0  0
  141.1302  160.9222  133.8191 H   0  0  0  0  0  0  0  0  0  0  0  0
  143.4306  161.9215  133.7237 H   0  0  0  0  0  0  0  0  0  0  0  0
  146.2021  161.2520  133.6405 H   0  0  0  0  0  0  0  0  0  0  0  0
  147.9340  156.8320  134.2420 H   0  0  0  0  0  0  0  0  0  0  0  0
  149.5250  157.5970  133.9180 H   0  0  0  0  0  0  0  0  0  0  0  0
  144.7217  154.0475  135.6635 H   0  0  0  0  0  0  0  0  0  0  0  0
  145.6386  153.9932  134.1222 H   0  0  0  0  0  0  0  0  0  0  0  0
  142.8753  156.9223  133.7912 H   0  0  0  0  0  0  0  0  0  0  0  0
  1  2  1  0
  2  3  1  0
  3  4  1  0
  4  5  1  0
  5  6  1  0
  6  7  1  0
  6  8  1  0
  6  9  1  0
  2 10  1  0
 10 11  2  0
 11 12  1  0
 12 13  2  0
 13 14  1  0
 14 15  2  0
 15 16  1  0
 16 17  1  0
 16 18  2  0
 15 19  1  0
 19 20  1  0
 20 21  2  0
 20 22  1  0
 22 23  1  0
 23 24  1  0
 24 25  2  0
 24 26  1  0
 19 27  1  0
 27 28  2  0
 28 10  1  0
 27 13  1  0
  1 29  1  0
  1 30  1  0
  1 31  1  0
  3 32  1  0
  3 33  1  0
  4 34  1  0
  4 35  1  0
 11 36  1  0
 12 37  1  0
 14 38  1  0
 17 39  1  0
 17 40  1  0
 23 41  1  0
 23 42  1  0
 28 43  1  0
M  CHG  1  26  -1
M  END
>  <UniqueID>  (46) 
45

>  <SMILES>  (46) 
CN(CCOC(F)(F)F)c1ccc2cc(C(N)=O)n(C(=O)OCC(=O)[O-])c2c1

>  <Energy>  (46) 
83.69118188492597

>  <Genealogy>  (46) 
CN(CCOC(F)(F)F)c1ccc2cc(C(N)=O)n(C(=O)OCC(=O)[O-])c2c1 (protonated)
CN(CCOC(F)(F)F)c1ccc2cc(C(N)=O)n(C(=O)OCC(=O)[O-])c2c1 (3D coordinates assigned)
CN(CCOC(F)(F)F)c1ccc2cc(C(N)=O)n(C(=O)OCC(=O)[O-])c2c1 (optimized conformer: 83.69118188492597 kcal/mol)

>  <smiles>  (46) 
CN(CCOC(F)(F)F)c1ccc2cc(C(N)=O)n(C(=O)OCC(=O)O)c2c1

>  <score_type>  (46) 
oracle

>  <origin>  (46) 
adg

>  <m_score__min__energy>  (46) 
-6.8499999999999996

>  <m_primary>  (46) 
energy

$$$$
46:0
     RDKit          3D

 38 39  0  0  0  0  0  0  0  0999 V2000
  145.6900  153.7830  133.9040 C   0  0  0  0  0  0  0  0  0  0  0  0
  147.1340  154.2420  134.1200 C   0  0  2  0  0  0  0  0  0  0  0  0
  147.2140  155.6650  134.0800 O   0  0  0  0  0  0  0  0  0  0  0  0
  146.7840  156.4360  132.9910 C   0  0  0  0  0  0  0  0  0  0  0  0
  146.6430  155.8930  131.8590 O   0  0  0  0  0  0  0  0  0  0  0  0
  146.5290  157.8470  133.1570 N   0  0  0  0  0  0  0  0  0  0  0  0
  147.3840  158.8740  132.8820 C   0  0  0  0  0  0  0  0  0  0  0  0
  148.7970  158.7420  132.4910 C   0  0  0  0  0  0  0  0  0  0  0  0
  149.2650  157.5540  131.8500 N   0  0  0  0  0  0  0  0  0  0  0  0
  149.6140  159.6540  132.7880 O   0  0  0  0  0  0  0  0  0  0  0  0
  146.7510  160.1030  133.0100 C   0  0  0  0  0  0  0  0  0  0  0  0
  145.4700  159.8080  133.4060 C   0  0  0  0  0  0  0  0  0  0  0  0
  144.4160  160.6640  133.7130 C   0  0  0  0  0  0  0  0  0  0  0  0
  143.2010  160.0940  134.1220 C   0  0  0  0  0  0  0  0  0  0  0  0
  143.0560  158.6860  134.2080 C   0  0  0  0  0  0  0  0  0  0  0  0
  141.7680  158.0730  134.6970 C   0  0  0  0  0  0  0  0  0  0  0  0
  141.2620  158.7660  135.7840 F   0  0  0  0  0  0  0  0  0  0  0  0
  140.8190  158.0930  133.6890 F   0  0  0  0  0  0  0  0  0  0  0  0
  142.0020  156.7630  135.0710 F   0  0  0  0  0  0  0  0  0  0  0  0
  144.1570  157.8510  133.9080 C   0  0  0  0  0  0  0  0  0  0  0  0
  145.3560  158.4430  133.4890 C   0  0  0  0  0  0  0  0  0  0  0  0
  148.2050  153.5750  132.8550 S   0  0  0  0  0  0  0  0  0  0  0  0
  149.1800  152.1960  133.4240 C   0  0  0  0  0  0  0  0  0  0  0  0
  149.2130  154.7790  132.2580 O   0  0  0  0  0  0  0  0  0  0  0  0
  145.2046  153.6287  134.8790 H   0  0  0  0  0  0  0  0  0  0  0  0
  145.1417  154.5512  133.3389 H   0  0  0  0  0  0  0  0  0  0  0  0
  145.6859  152.8393  133.3389 H   0  0  0  0  0  0  0  0  0  0  0  0
  147.4576  153.8769  135.1059 H   0  0  0  0  0  0  0  0  0  0  0  0
  150.2750  157.4500  131.6030 H   0  0  0  0  0  0  0  0  0  0  0  0
  148.6130  156.7620  131.6560 H   0  0  0  0  0  0  0  0  0  0  0  0
  147.1830  161.0989  132.8323 H   0  0  0  0  0  0  0  0  0  0  0  0
  144.5323  161.7552  133.6371 H   0  0  0  0  0  0  0  0  0  0  0  0
  142.3527  160.7456  134.3784 H   0  0  0  0  0  0  0  0  0  0  0  0
  144.0739  156.7581  134.0017 H   0  0  0  0  0  0  0  0  0  0  0  0
  149.1894  152.1826  134.5239 H   0  0  0  0  0  0  0  0  0  0  0  0
  148.7428  151.2586  133.0497 H   0  0  0  0  0  0  0  0  0  0  0  0
  150.2095  152.2956  133.0497 H   0  0  0  0  0  0  0  0  0  0  0  0
  148.7210  155.6140  132.4240 H   0  0  0  0  0  0  0  0  0  0  0  0
  1  2  1  0
  2  3  1  0
  3  4  1  0
  4  5  2  0
  4  6  1  0
  6  7  1  0
  7  8  1  0
  8  9  1  0
  8 10  2  0
  7 11  2  0
 11 12  1  0
 12 13  2  0
 13 14  1  0
 14 15  2  0
 15 16  1  0
 16 17  1  0
 16 18  1  0
 16 19  1  0
 15 20  1  0
 20 21  2  0
  2 22  1  0
 22 23  1  0
 22 24  1  1
 21  6  1  0
 21 12  1  0
  1 25  1  0
  1 26  1  0
  1 27  1  0
  2 28  1  1
  9 29  1  0
  9 30  1  0
 11 31  1  0
 13 32  1  0
 14 33  1  0
 20 34  1  0
 23 35  1  0
 23 36  1  0
 23 37  1  0
 24 38  1  0
M  CHG  1  22   1
M  END
>  <UniqueID>  (47) 
46

>  <SMILES>  (47) 
C[C@H](OC(=O)n1c(C(N)=O)cc2ccc(C(F)(F)F)cc21)[S@+](C)O

>  <Energy>  (47) 
70.36298189999376

>  <Genealogy>  (47) 
CC(OC(=O)n1c(C(N)=O)cc2ccc(C(F)(F)F)cc21)[S+](C)O (protonated)
C[C@H](OC(=O)n1c(C(N)=O)cc2ccc(C(F)(F)F)cc21)[S@+](C)O (chirality)
C[C@H](OC(=O)n1c(C(N)=O)cc2ccc(C(F)(F)F)cc21)[S@+](C)O (3D coordinates assigned)
C[C@H](OC(=O)n1c(C(N)=O)cc2ccc(C(F)(F)F)cc21)[S@+](C)O (optimized conformer: 70.36298189999376 kcal/mol)

>  <smiles>  (47) 
CC(OC(=O)n1c(C(N)=O)cc2ccc(C(F)(F)F)cc21)[S+](C)[O-]

>  <score_type>  (47) 
oracle

>  <origin>  (47) 
adg

>  <m_score__min__energy>  (47) 
-6.1799999999999997

>  <m_primary>  (47) 
energy

$$$$
47:0
     RDKit          3D

 30 32  0  0  0  0  0  0  0  0999 V2000
  141.4150  160.9720  133.6880 N   0  0  0  0  0  0  0  0  0  0  0  0
  142.2440  160.1240  134.4770 C   0  0  0  0  0  0  0  0  0  0  0  0
  141.7720  159.5930  135.5180 O   0  0  0  0  0  0  0  0  0  0  0  0
  143.6270  159.8120  134.0600 C   0  0  0  0  0  0  0  0  0  0  0  0
  144.0780  158.5160  133.8140 C   0  0  0  0  0  0  0  0  0  0  0  0
  145.3700  158.6600  133.3640 C   0  0  0  0  0  0  0  0  0  0  0  0
  146.2960  157.6940  132.9820 C   0  0  0  0  0  0  0  0  0  0  0  0
  147.5720  158.1250  132.5880 C   0  0  0  0  0  0  0  0  0  0  0  0
  147.9070  159.5080  132.5880 C   0  0  0  0  0  0  0  0  0  0  0  0
  149.2830  160.0000  132.1780 C   0  0  0  0  0  0  0  0  0  0  0  0
  149.2900  161.0510  131.0790 C   0  0  0  0  0  0  0  0  0  0  0  0
  149.9770  160.1710  130.1320 N   0  0  0  0  0  0  0  0  0  0  0  0
  150.0000  159.1260  131.1590 C   0  0  0  0  0  0  0  0  0  0  0  0
  146.9360  160.4550  132.9840 C   0  0  0  0  0  0  0  0  0  0  0  0
  145.6660  159.9980  133.3540 C   0  0  0  0  0  0  0  0  0  0  0  0
  144.6050  160.7200  133.7820 N   0  0  0  0  0  0  0  0  0  0  0  0
  144.5690  162.1400  133.9950 C   0  0  0  0  0  0  0  0  0  0  0  0
  143.7230  162.8520  133.3920 O   0  0  0  0  0  0  0  0  0  0  0  0
  145.4840  162.7460  134.8460 O   0  0  0  0  0  0  0  0  0  0  0  0
  141.7680  161.8880  133.3320 H   0  0  0  0  0  0  0  0  0  0  0  0
  143.5197  157.5781  133.9506 H   0  0  0  0  0  0  0  0  0  0  0  0
  146.0357  156.6253  132.9887 H   0  0  0  0  0  0  0  0  0  0  0  0
  148.3228  157.3844  132.2752 H   0  0  0  0  0  0  0  0  0  0  0  0
  149.6716  160.1869  133.1899 H   0  0  0  0  0  0  0  0  0  0  0  0
  148.2825  161.3453  130.7498 H   0  0  0  0  0  0  0  0  0  0  0  0
  149.7247  162.0382  131.2943 H   0  0  0  0  0  0  0  0  0  0  0  0
  150.9530  160.5240  129.9960 H   0  0  0  0  0  0  0  0  0  0  0  0
  149.4332  158.2257  130.8794 H   0  0  0  0  0  0  0  0  0  0  0  0
  150.9647  158.6746  131.4338 H   0  0  0  0  0  0  0  0  0  0  0  0
  147.1733  161.5290  133.0011 H   0  0  0  0  0  0  0  0  0  0  0  0
  1  2  1  0
  2  3  2  0
  2  4  1  0
  4  5  2  0
  5  6  1  0
  6  7  2  0
  7  8  1  0
  8  9  2  0
  9 10  1  0
 10 11  1  0
 11 12  1  0
 12 13  1  0
  9 14  1  0
 14 15  2  0
 15 16  1  0
 16 17  1  0
 17 18  2  0
 17 19  1  0
 16  4  1  0
 15  6  1  0
 13 10  1  0
  1 20  1  0
  5 21  1  0
  7 22  1  0
  8 23  1  0
 10 24  1  0
 11 25  1  0
 11 26  1  0
 12 27  1  0
 13 28  1  0
 13 29  1  0
 14 30  1  0
M  CHG  2   1  -1  19  -1
M  END
>  <UniqueID>  (48) 
47

>  <SMILES>  (48) 
[NH-]C(=O)c1cc2ccc(C3CNC3)cc2n1C(=O)[O-]

>  <Energy>  (48) 
140.07814777323028

>  <Genealogy>  (48) 
[NH-]C(=O)c1cc2ccc(C3CNC3)cc2n1C(=O)[O-] (protonated)
[NH-]C(=O)c1cc2ccc(C3CNC3)cc2n1C(=O)[O-] (3D coordinates assigned)
[NH-]C(=O)c1cc2ccc(C3CNC3)cc2n1C(=O)[O-] (nonaromatic ring conformer: 140.07814777323028 kcal/mol)

>  <smiles>  (48) 
NC(=O)c1cc2ccc(C3CNC3)cc2n1C(=O)O

>  <score_type>  (48) 
oracle

>  <origin>  (48) 
adg

>  <m_score__min__energy>  (48) 
-7.1200000000000001

>  <m_primary>  (48) 
energy

$$$$
48:0
     RDKit          3D

 42 43  0  0  0  0  0  0  0  0999 V2000
  149.9200  160.4230  129.6600 N   0  0  0  0  0  0  0  0  0  0  0  0
  149.3310  160.6280  130.6350 C   0  0  0  0  0  0  0  0  0  0  0  0
  148.5860  160.8880  131.8700 C   0  0  0  0  0  0  0  0  0  0  0  0
  147.8170  159.6610  132.2720 C   0  0  0  0  0  0  0  0  0  0  0  0
  148.4210  158.3810  132.1870 C   0  0  0  0  0  0  0  0  0  0  0  0
  147.7070  157.2270  132.5500 C   0  0  0  0  0  0  0  0  0  0  0  0
  146.3880  157.3800  132.9680 C   0  0  0  0  0  0  0  0  0  0  0  0
  145.4870  156.4420  133.4190 C   0  0  0  0  0  0  0  0  0  0  0  0
  144.3330  157.1600  133.7280 C   0  0  0  0  0  0  0  0  0  0  0  0
  143.0980  156.5400  134.2500 C   0  0  0  0  0  0  0  0  0  0  0  0
  142.3340  155.6250  133.4620 N   0  0  0  0  0  0  0  0  0  0  0  0
  142.7340  156.7870  135.4310 O   0  0  0  0  0  0  0  0  0  0  0  0
  144.5130  158.4870  133.4790 N   0  0  0  0  0  0  0  0  0  0  0  0
  143.6160  159.5620  133.7960 C   0  0  0  0  0  0  0  0  0  0  0  0
  144.0820  160.7100  134.0250 O   0  0  0  0  0  0  0  0  0  0  0  0
  142.1610  159.3290  133.8720 C   0  0  0  0  0  0  0  0  0  0  0  0
  141.6150  159.1650  134.9970 O   0  0  0  0  0  0  0  0  0  0  0  0
  141.3200  159.2420  132.6310 C   0  0  0  0  0  0  0  0  0  0  0  0
  139.8300  159.3180  132.9930 C   0  0  0  0  0  0  0  0  0  0  0  0
  139.3100  158.0310  133.6710 C   0  0  1  0  0  0  0  0  0  0  0  0
  140.2800  157.0210  133.5630 O   0  0  0  0  0  0  0  0  0  0  0  0
  138.9690  158.2340  135.1580 C   0  0  0  0  0  0  0  0  0  0  0  0
  139.7720  157.4290  135.9800 O   0  0  0  0  0  0  0  0  0  0  0  0
  145.7790  158.6070  133.0220 C   0  0  0  0  0  0  0  0  0  0  0  0
  146.4740  159.7760  132.6960 C   0  0  0  0  0  0  0  0  0  0  0  0
  149.2905  161.1556  132.6713 H   0  0  0  0  0  0  0  0  0  0  0  0
  147.8827  161.7167  131.7008 H   0  0  0  0  0  0  0  0  0  0  0  0
  149.4587  158.2908  131.8334 H   0  0  0  0  0  0  0  0  0  0  0  0
  148.1758  156.2329  132.5053 H   0  0  0  0  0  0  0  0  0  0  0  0
  145.6442  155.3575  133.5150 H   0  0  0  0  0  0  0  0  0  0  0  0
  141.4350  155.2450  133.8290 H   0  0  0  0  0  0  0  0  0  0  0  0
  142.7030  155.2440  132.5640 H   0  0  0  0  0  0  0  0  0  0  0  0
  141.5740  160.0765  131.9609 H   0  0  0  0  0  0  0  0  0  0  0  0
  141.5188  158.2833  132.1295 H   0  0  0  0  0  0  0  0  0  0  0  0
  139.6785  160.1629  133.6808 H   0  0  0  0  0  0  0  0  0  0  0  0
  139.2687  159.4475  132.0559 H   0  0  0  0  0  0  0  0  0  0  0  0
  138.3822  157.7478  133.1523 H   0  0  0  0  0  0  0  0  0  0  0  0
  140.9940  157.2350  134.2200 H   0  0  0  0  0  0  0  0  0  0  0  0
  139.1311  159.2895  135.4219 H   0  0  0  0  0  0  0  0  0  0  0  0
  137.9178  157.9504  135.3148 H   0  0  0  0  0  0  0  0  0  0  0  0
  140.6980  157.4980  135.6310 H   0  0  0  0  0  0  0  0  0  0  0  0
  145.9875  160.7600  132.7678 H   0  0  0  0  0  0  0  0  0  0  0  0
  1  2  3  0
  2  3  1  0
  3  4  1  0
  4  5  2  0
  5  6  1  0
  6  7  2  0
  7  8  1  0
  8  9  2  0
  9 10  1  0
 10 11  1  0
 10 12  2  0
  9 13  1  0
 13 14  1  0
 14 15  2  0
 14 16  1  0
 16 17  2  0
 16 18  1  0
 18 19  1  0
 19 20  1  0
 20 21  1  0
 20 22  1  0
 22 23  1  0
 13 24  1  0
 24 25  2  0
 25  4  1  0
 24  7  1  0
  3 26  1  0
  3 27  1  0
  5 28  1  0
  6 29  1  0
  8 30  1  0
 11 31  1  0
 11 32  1  0
 18 33  1  0
 18 34  1  0
 19 35  1  0
 19 36  1  0
 20 37  1  6
 21 38  1  0
 22 39  1  0
 22 40  1  0
 23 41  1  0
 25 42  1  0
M  END
>  <UniqueID>  (49) 
48

>  <SMILES>  (49) 
N#CCc1ccc2cc(C(N)=O)n(C(=O)C(=O)CC[C@@H](O)CO)c2c1

>  <Energy>  (49) 
74.6570253119858

>  <Genealogy>  (49) 
N#CCc1ccc2cc(C(N)=O)n(C(=O)C(=O)CC[C@@H](O)CO)c2c1 (3D coordinates assigned)
N#CCc1ccc2cc(C(N)=O)n(C(=O)C(=O)CC[C@@H](O)CO)c2c1 (optimized conformer: 74.6570253119858 kcal/mol)

>  <smiles>  (49) 
N#CCc1ccc2cc(C(N)=O)n(C(=O)C(=O)CC[C@@H](O)CO)c2c1

>  <score_type>  (49) 
oracle

>  <origin>  (49) 
adg

>  <m_score__min__energy>  (49) 
-6.6500000000000004

>  <m_primary>  (49) 
energy

$$$$
49:0
     RDKit          3D

 44 46  0  0  0  0  0  0  0  0999 V2000
  146.3050  160.4090  132.8360 N   0  0  0  0  0  0  0  0  0  0  0  0
  146.6860  159.1490  133.3950 C   0  0  0  0  0  0  0  0  0  0  0  0
  147.7720  159.0750  134.0310 O   0  0  0  0  0  0  0  0  0  0  0  0
  145.8670  157.9220  133.2290 C   0  0  0  0  0  0  0  0  0  0  0  0
  146.4270  156.6650  133.0030 C   0  0  0  0  0  0  0  0  0  0  0  0
  145.3700  155.7850  133.0070 C   0  0  0  0  0  0  0  0  0  0  0  0
  145.3600  154.3980  132.9000 C   0  0  0  0  0  0  0  0  0  0  0  0
  144.1270  153.7340  133.0340 C   0  0  0  0  0  0  0  0  0  0  0  0
  142.9350  154.4630  133.2790 C   0  0  0  0  0  0  0  0  0  0  0  0
  141.6350  153.7330  133.5070 C   0  0  0  0  0  0  0  0  0  0  0  0
  141.3900  153.5880  134.8620 F   0  0  0  0  0  0  0  0  0  0  0  0
  141.6750  152.4720  132.9350 F   0  0  0  0  0  0  0  0  0  0  0  0
  140.6020  154.4540  132.9380 F   0  0  0  0  0  0  0  0  0  0  0  0
  142.9930  155.8700  133.4100 C   0  0  0  0  0  0  0  0  0  0  0  0
  144.2260  156.5060  133.2290 C   0  0  0  0  0  0  0  0  0  0  0  0
  144.5100  157.8230  133.3450 N   0  0  0  0  0  0  0  0  0  0  0  0
  143.5820  158.8450  133.7410 C   0  0  0  0  0  0  0  0  0  0  0  0
  143.7140  160.0140  133.2880 O   0  0  0  0  0  0  0  0  0  0  0  0
  142.5120  158.5710  134.6530 N   0  0  0  0  0  0  0  0  0  0  0  0
  141.3190  159.4010  134.8520 C   0  0  2  0  0  0  0  0  0  0  0  0
  140.3380  158.7360  135.8520 C   0  0  0  0  0  0  0  0  0  0  0  0
  139.2620  157.8510  135.1830 C   0  0  0  0  0  0  0  0  0  0  0  0
  139.7630  157.2320  133.8680 C   0  0  1  0  0  0  0  0  0  0  0  0
  138.7370  156.3490  133.3060 N   0  0  0  0  0  0  0  0  0  0  0  0
  140.1340  158.3360  132.8430 C   0  0  0  0  0  0  0  0  0  0  0  0
  140.6420  159.6420  133.4930 C   0  0  0  0  0  0  0  0  0  0  0  0
  146.9040  161.2480  132.9980 H   0  0  0  0  0  0  0  0  0  0  0  0
  145.4990  160.5070  132.1830 H   0  0  0  0  0  0  0  0  0  0  0  0
  147.4905  156.4273  132.8531 H   0  0  0  0  0  0  0  0  0  0  0  0
  146.2883  153.8373  132.7161 H   0  0  0  0  0  0  0  0  0  0  0  0
  144.0868  152.6381  132.9479 H   0  0  0  0  0  0  0  0  0  0  0  0
  142.0898  156.4508  133.6486 H   0  0  0  0  0  0  0  0  0  0  0  0
  141.6185  160.3672  135.2842 H   0  0  0  0  0  0  0  0  0  0  0  0
  140.9207  158.1091  136.5431 H   0  0  0  0  0  0  0  0  0  0  0  0
  139.8059  159.5506  136.3651 H   0  0  0  0  0  0  0  0  0  0  0  0
  138.9874  157.0412  135.8750 H   0  0  0  0  0  0  0  0  0  0  0  0
  138.3947  158.4867  134.9511 H   0  0  0  0  0  0  0  0  0  0  0  0
  140.6670  156.6440  134.0848 H   0  0  0  0  0  0  0  0  0  0  0  0
  138.7650  156.4300  132.2620 H   0  0  0  0  0  0  0  0  0  0  0  0
  137.7980  156.7010  133.6020 H   0  0  0  0  0  0  0  0  0  0  0  0
  140.9236  157.9464  132.1836 H   0  0  0  0  0  0  0  0  0  0  0  0
  139.2144  158.5869  132.2941 H   0  0  0  0  0  0  0  0  0  0  0  0
  141.3694  160.1130  132.8155 H   0  0  0  0  0  0  0  0  0  0  0  0
  139.7698  160.2898  133.6653 H   0  0  0  0  0  0  0  0  0  0  0  0
  1  2  1  0
  2  3  2  0
  2  4  1  0
  4  5  2  0
  5  6  1  0
  6  7  2  0
  7  8  1  0
  8  9  2  0
  9 10  1  0
 10 11  1  0
 10 12  1  0
 10 13  1  0
  9 14  1  0
 14 15  2  0
 15 16  1  0
 16 17  1  0
 17 18  2  0
 17 19  1  0
 19 20  1  0
 20 21  1  0
 21 22  1  0
 22 23  1  0
 23 24  1  0
 23 25  1  0
 25 26  1  0
 16  4  1  0
 26 20  1  0
 15  6  1  0
  1 27  1  0
  1 28  1  0
  5 29  1  0
  7 30  1  0
  8 31  1  0
 14 32  1  0
 20 33  1  1
 21 34  1  0
 21 35  1  0
 22 36  1  0
 22 37  1  0
 23 38  1  1
 24 39  1  0
 24 40  1  0
 25 41  1  0
 25 42  1  0
 26 43  1  0
 26 44  1  0
M  CHG  1  19  -1
M  END
>  <UniqueID>  (50) 
49

>  <SMILES>  (50) 
NC(=O)c1cc2ccc(C(F)(F)F)cc2n1C(=O)[N-]C1CCC(N)CC1

>  <Energy>  (50) 
87.4810527377721

>  <Genealogy>  (50) 
NC(=O)c1cc2ccc(C(F)(F)F)cc2n1C(=O)[N-]C1CCC(N)CC1 (protonated)
NC(=O)c1cc2ccc(C(F)(F)F)cc2n1C(=O)[N-]C1CCC(N)CC1 (3D coordinates assigned)
NC(=O)c1cc2ccc(C(F)(F)F)cc2n1C(=O)[N-]C1CCC(N)CC1 (nonaromatic ring conformer: 87.4810527377721 kcal/mol)

>  <smiles>  (50) 
NC(=O)c1cc2ccc(C(F)(F)F)cc2n1C(=O)NC1CCC(N)CC1

>  <score_type>  (50) 
oracle

>  <origin>  (50) 
adg

>  <m_score__min__energy>  (50) 
-8.4499999999999993

>  <m_primary>  (50) 
energy

$$$$
50:0
     RDKit          3D

 29 30  0  0  0  0  0  0  0  0999 V2000
  148.4820  161.4690  131.3260 N   0  0  0  0  0  0  0  0  0  0  0  0
  149.2630  160.2770  131.3220 C   0  0  0  0  0  0  0  0  0  0  0  0
  150.4110  160.2930  130.8010 O   0  0  0  0  0  0  0  0  0  0  0  0
  148.7610  159.0360  131.9490 C   0  0  0  0  0  0  0  0  0  0  0  0
  149.4060  157.8030  131.8520 C   0  0  0  0  0  0  0  0  0  0  0  0
  148.6580  156.9400  132.6220 C   0  0  0  0  0  0  0  0  0  0  0  0
  148.8370  155.5850  132.8860 C   0  0  0  0  0  0  0  0  0  0  0  0
  147.8960  154.9440  133.7100 C   0  0  0  0  0  0  0  0  0  0  0  0
  146.7850  155.6560  134.2360 C   0  0  0  0  0  0  0  0  0  0  0  0
  145.8050  154.9670  135.1510 C   0  0  0  0  0  0  0  0  0  0  0  0
  146.4280  154.6840  136.3520 F   0  0  0  0  0  0  0  0  0  0  0  0
  144.7080  155.7770  135.3920 F   0  0  0  0  0  0  0  0  0  0  0  0
  145.3560  153.7870  134.5860 F   0  0  0  0  0  0  0  0  0  0  0  0
  146.6520  157.0380  133.9630 C   0  0  0  0  0  0  0  0  0  0  0  0
  147.6110  157.6490  133.1480 C   0  0  0  0  0  0  0  0  0  0  0  0
  147.6600  158.9340  132.7440 N   0  0  0  0  0  0  0  0  0  0  0  0
  146.6870  159.9450  133.0400 C   0  0  0  0  0  0  0  0  0  0  0  0
  147.0150  160.9420  133.7370 O   0  0  0  0  0  0  0  0  0  0  0  0
  145.2570  159.7620  132.6320 C   0  0  0  0  0  0  0  0  0  0  0  0
  144.3570  160.1740  133.7510 C   0  0  0  0  0  0  0  0  0  0  0  0
  143.8000  159.3020  134.4680 O   0  0  0  0  0  0  0  0  0  0  0  0
  144.1720  161.5200  134.0360 O   0  0  0  0  0  0  0  0  0  0  0  0
  147.8610  161.7010  132.1320 H   0  0  0  0  0  0  0  0  0  0  0  0
  150.3175  157.5697  131.2822 H   0  0  0  0  0  0  0  0  0  0  0  0
  149.6890  155.0328  132.4626 H   0  0  0  0  0  0  0  0  0  0  0  0
  148.0213  153.8780  133.9505 H   0  0  0  0  0  0  0  0  0  0  0  0
  145.8156  157.6174  134.3811 H   0  0  0  0  0  0  0  0  0  0  0  0
  145.0472  160.3810  131.7473 H   0  0  0  0  0  0  0  0  0  0  0  0
  145.0793  158.7031  132.3928 H   0  0  0  0  0  0  0  0  0  0  0  0
  1  2  1  0
  2  3  2  0
  2  4  1  0
  4  5  2  0
  5  6  1  0
  6  7  2  0
  7  8  1  0
  8  9  2  0
  9 10  1  0
 10 11  1  0
 10 12  1  0
 10 13  1  0
  9 14  1  0
 14 15  2  0
 15 16  1  0
 16 17  1  0
 17 18  2  0
 17 19  1  0
 19 20  1  0
 20 21  2  0
 20 22  1  0
 16  4  1  0
 15  6  1  0
  1 23  1  0
  5 24  1  0
  7 25  1  0
  8 26  1  0
 14 27  1  0
 19 28  1  0
 19 29  1  0
M  CHG  2   1  -1  22  -1
M  END
>  <UniqueID>  (51) 
50

>  <SMILES>  (51) 
[NH-]C(=O)c1cc2ccc(C(F)(F)F)cc2n1C(=O)CC(=O)[O-]

>  <Energy>  (51) 
67.93076380882675

>  <Genealogy>  (51) 
[NH-]C(=O)c1cc2ccc(C(F)(F)F)cc2n1C(=O)CC(=O)[O-] (protonated)
[NH-]C(=O)c1cc2ccc(C(F)(F)F)cc2n1C(=O)CC(=O)[O-] (3D coordinates assigned)
[NH-]C(=O)c1cc2ccc(C(F)(F)F)cc2n1C(=O)CC(=O)[O-] (optimized conformer: 67.93076380882675 kcal/mol)

>  <smiles>  (51) 
NC(=O)c1cc2ccc(C(F)(F)F)cc2n1C(=O)CC(=O)O

>  <score_type>  (51) 
oracle

>  <origin>  (51) 
adg

>  <m_score__min__energy>  (51) 
-5.8700000000000001

>  <m_primary>  (51) 
energy

$$$$
51:0
     RDKit          3D

 36 38  0  0  0  0  0  0  0  0999 V2000
  138.4610  157.0110  133.4690 N   0  0  0  0  0  0  0  0  0  0  0  0
  139.1150  157.8550  134.4190 C   0  0  0  0  0  0  0  0  0  0  0  0
  138.4780  158.2450  135.4330 O   0  0  0  0  0  0  0  0  0  0  0  0
  140.5330  158.2380  134.2390 C   0  0  0  0  0  0  0  0  0  0  0  0
  140.9940  159.5520  134.2870 C   0  0  0  0  0  0  0  0  0  0  0  0
  142.3310  159.4820  133.9750 C   0  0  0  0  0  0  0  0  0  0  0  0
  143.2820  160.4930  133.8850 C   0  0  0  0  0  0  0  0  0  0  0  0
  144.6030  160.1320  133.5700 C   0  0  0  0  0  0  0  0  0  0  0  0
  144.9480  158.7730  133.3560 C   0  0  0  0  0  0  0  0  0  0  0  0
  146.3420  158.4110  133.0370 C   0  0  0  0  0  0  0  0  0  0  0  0
  146.8180  157.1500  133.0160 N   0  0  0  0  0  0  0  0  0  0  0  0
  148.0980  157.2340  132.6900 N   0  0  0  0  0  0  0  0  0  0  0  0
  148.3500  158.5460  132.5240 C   0  0  0  0  0  0  0  0  0  0  0  0
  149.6260  159.0860  132.1660 N   0  0  0  0  0  0  0  0  0  0  0  0
  149.8800  159.7070  130.8680 C   0  0  0  0  0  0  0  0  0  0  0  0
  149.1140  161.0220  130.7340 C   0  0  0  0  0  0  0  0  0  0  0  0
  147.7490  160.7620  130.5590 O   0  0  0  0  0  0  0  0  0  0  0  0
  147.2830  159.2760  132.7340 O   0  0  0  0  0  0  0  0  0  0  0  0
  143.9540  157.7740  133.4540 C   0  0  0  0  0  0  0  0  0  0  0  0
  142.6430  158.1650  133.7530 C   0  0  0  0  0  0  0  0  0  0  0  0
  141.5480  157.3870  133.9110 N   0  0  0  0  0  0  0  0  0  0  0  0
  141.4920  155.9530  133.8290 C   0  0  0  0  0  0  0  0  0  0  0  0
  142.2730  155.2440  134.5170 O   0  0  0  0  0  0  0  0  0  0  0  0
  140.5630  155.3330  133.0030 O   0  0  0  0  0  0  0  0  0  0  0  0
  138.9390  156.7110  132.5910 H   0  0  0  0  0  0  0  0  0  0  0  0
  137.4730  156.7130  133.6250 H   0  0  0  0  0  0  0  0  0  0  0  0
  140.4114  160.4544  134.5243 H   0  0  0  0  0  0  0  0  0  0  0  0
  143.0080  161.5446  134.0554 H   0  0  0  0  0  0  0  0  0  0  0  0
  145.3762  160.9101  133.4887 H   0  0  0  0  0  0  0  0  0  0  0  0
  150.4190  158.9800  132.8380 H   0  0  0  0  0  0  0  0  0  0  0  0
  150.9573  159.9059  130.7685 H   0  0  0  0  0  0  0  0  0  0  0  0
  149.5416  159.0208  130.0777 H   0  0  0  0  0  0  0  0  0  0  0  0
  149.2573  161.6222  131.6446 H   0  0  0  0  0  0  0  0  0  0  0  0
  149.4925  161.5747  129.8615 H   0  0  0  0  0  0  0  0  0  0  0  0
  147.3330  160.8660  131.4540 H   0  0  0  0  0  0  0  0  0  0  0  0
  144.2039  156.7140  133.2991 H   0  0  0  0  0  0  0  0  0  0  0  0
  1  2  1  0
  2  3  2  0
  2  4  1  0
  4  5  2  0
  5  6  1  0
  6  7  2  0
  7  8  1  0
  8  9  2  0
  9 10  1  0
 10 11  2  0
 11 12  1  0
 12 13  2  0
 13 14  1  0
 14 15  1  0
 15 16  1  0
 16 17  1  0
 13 18  1  0
  9 19  1  0
 19 20  2  0
 20 21  1  0
 21 22  1  0
 22 23  2  0
 22 24  1  0
 21  4  1  0
 20  6  1  0
 18 10  1  0
  1 25  1  0
  1 26  1  0
  5 27  1  0
  7 28  1  0
  8 29  1  0
 14 30  1  0
 15 31  1  0
 15 32  1  0
 16 33  1  0
 16 34  1  0
 17 35  1  0
 19 36  1  0
M  CHG  1  24  -1
M  END
>  <UniqueID>  (52) 
51

>  <SMILES>  (52) 
NC(=O)c1cc2ccc(-c3nnc(NCCO)o3)cc2n1C(=O)[O-]

>  <Energy>  (52) 
107.46946027956434

>  <Genealogy>  (52) 
NC(=O)c1cc2ccc(-c3nnc(NCCO)o3)cc2n1C(=O)[O-] (protonated)
NC(=O)c1cc2ccc(-c3nnc(NCCO)o3)cc2n1C(=O)[O-] (3D coordinates assigned)
NC(=O)c1cc2ccc(-c3nnc(NCCO)o3)cc2n1C(=O)[O-] (optimized conformer: 107.46946027956434 kcal/mol)

>  <smiles>  (52) 
NC(=O)c1cc2ccc(-c3nnc(NCCO)o3)cc2n1C(=O)O

>  <score_type>  (52) 
oracle

>  <origin>  (52) 
adg

>  <m_score__min__energy>  (52) 
-7.0199999999999996

>  <m_primary>  (52) 
energy

$$$$
52:0
     RDKit          3D

 32 33  0  0  0  0  0  0  0  0999 V2000
  146.2130  153.3650  134.0820 N   0  0  0  0  0  0  0  0  0  0  0  0
  146.7280  154.4310  134.8780 C   0  0  0  0  0  0  0  0  0  0  0  0
  146.8880  154.2570  136.1140 O   0  0  0  0  0  0  0  0  0  0  0  0
  147.1040  155.7090  134.2380 C   0  0  0  0  0  0  0  0  0  0  0  0
  146.5310  156.9340  134.5720 C   0  0  0  0  0  0  0  0  0  0  0  0
  147.0840  157.8450  133.7020 C   0  0  0  0  0  0  0  0  0  0  0  0
  146.8900  159.2190  133.6030 C   0  0  0  0  0  0  0  0  0  0  0  0
  147.6260  159.9210  132.6330 C   0  0  0  0  0  0  0  0  0  0  0  0
  148.5290  159.2410  131.7750 C   0  0  0  0  0  0  0  0  0  0  0  0
  149.3590  160.0150  130.7820 C   0  0  0  0  0  0  0  0  0  0  0  0
  148.8890  159.8170  129.4950 F   0  0  0  0  0  0  0  0  0  0  0  0
  149.3110  161.3700  131.0560 F   0  0  0  0  0  0  0  0  0  0  0  0
  150.6710  159.5870  130.8540 F   0  0  0  0  0  0  0  0  0  0  0  0
  148.7160  157.8470  131.9250 C   0  0  0  0  0  0  0  0  0  0  0  0
  147.9570  157.1710  132.8880 C   0  0  0  0  0  0  0  0  0  0  0  0
  147.9820  155.8580  133.2060 N   0  0  0  0  0  0  0  0  0  0  0  0
  148.8310  154.8570  132.6230 C   0  0  0  0  0  0  0  0  0  0  0  0
  149.9970  155.1630  132.2500 O   0  0  0  0  0  0  0  0  0  0  0  0
  148.3630  153.5450  132.4850 O   0  0  0  0  0  0  0  0  0  0  0  0
  149.2130  152.4230  132.2500 C   0  0  0  0  0  0  0  0  0  0  0  0
  149.4210  151.6210  133.5330 C   0  0  0  0  0  0  0  0  0  0  0  0
  148.8520  152.2920  134.6220 O   0  0  0  0  0  0  0  0  0  0  0  0
  146.8400  152.6070  133.7310 H   0  0  0  0  0  0  0  0  0  0  0  0
  145.7930  157.1311  135.3635 H   0  0  0  0  0  0  0  0  0  0  0  0
  146.1819  159.7403  134.2640 H   0  0  0  0  0  0  0  0  0  0  0  0
  147.5007  161.0097  132.5378 H   0  0  0  0  0  0  0  0  0  0  0  0
  149.4413  157.3062  131.2993 H   0  0  0  0  0  0  0  0  0  0  0  0
  148.7522  151.7746  131.4903 H   0  0  0  0  0  0  0  0  0  0  0  0
  150.1900  152.7883  131.9007 H   0  0  0  0  0  0  0  0  0  0  0  0
  148.9458  150.6347  133.4257 H   0  0  0  0  0  0  0  0  0  0  0  0
  150.5001  151.5016  133.7099 H   0  0  0  0  0  0  0  0  0  0  0  0
  147.9340  152.5420  134.3410 H   0  0  0  0  0  0  0  0  0  0  0  0
  1  2  1  0
  2  3  2  0
  2  4  1  0
  4  5  2  0
  5  6  1  0
  6  7  2  0
  7  8  1  0
  8  9  2  0
  9 10  1  0
 10 11  1  0
 10 12  1  0
 10 13  1  0
  9 14  1  0
 14 15  2  0
 15 16  1  0
 16 17  1  0
 17 18  2  0
 17 19  1  0
 19 20  1  0
 20 21  1  0
 21 22  1  0
 16  4  1  0
 15  6  1  0
  1 23  1  0
  5 24  1  0
  7 25  1  0
  8 26  1  0
 14 27  1  0
 20 28  1  0
 20 29  1  0
 21 30  1  0
 21 31  1  0
 22 32  1  0
M  CHG  1   1  -1
M  END
>  <UniqueID>  (53) 
52

>  <SMILES>  (53) 
[NH-]C(=O)c1cc2ccc(C(F)(F)F)cc2n1C(=O)OCCO

>  <Energy>  (53) 
68.26365506188884

>  <Genealogy>  (53) 
[NH-]C(=O)c1cc2ccc(C(F)(F)F)cc2n1C(=O)OCCO (protonated)
[NH-]C(=O)c1cc2ccc(C(F)(F)F)cc2n1C(=O)OCCO (3D coordinates assigned)
[NH-]C(=O)c1cc2ccc(C(F)(F)F)cc2n1C(=O)OCCO (optimized conformer: 68.26365506188884 kcal/mol)

>  <smiles>  (53) 
NC(=O)c1cc2ccc(C(F)(F)F)cc2n1C(=O)OCCO

>  <score_type>  (53) 
oracle

>  <origin>  (53) 
adg

>  <m_score__min__energy>  (53) 
-5.2699999999999996

>  <m_primary>  (53) 
energy

$$$$
53:0
     RDKit          3D

 52 54  0  0  0  0  0  0  0  0999 V2000
  141.6930  151.3530  132.9900 C   0  0  0  0  0  0  0  0  0  0  0  0
  142.1400  153.0330  133.3680 S   0  0  0  0  0  0  0  0  0  0  0  0
  141.2190  153.9780  132.6450 O   0  0  0  0  0  0  0  0  0  0  0  0
  141.9870  153.2510  134.8440 O   0  0  0  0  0  0  0  0  0  0  0  0
  143.7590  153.3190  132.9480 O   0  0  0  0  0  0  0  0  0  0  0  0
  144.0380  154.6880  133.1050 C   0  0  0  0  0  0  0  0  0  0  0  0
  145.5470  154.9070  132.9850 C   0  0  0  0  0  0  0  0  0  0  0  0
  145.8870  156.3720  133.0700 C   0  0  0  0  0  0  0  0  0  0  0  0
  147.2310  156.8010  132.9430 C   0  0  0  0  0  0  0  0  0  0  0  0
  147.5650  158.1590  133.0770 C   0  0  0  0  0  0  0  0  0  0  0  0
  146.5340  159.0610  133.3230 C   0  0  0  0  0  0  0  0  0  0  0  0
  146.5860  160.4170  133.5520 C   0  0  0  0  0  0  0  0  0  0  0  0
  145.2660  160.8020  133.7980 C   0  0  0  0  0  0  0  0  0  0  0  0
  144.8660  162.1870  134.1100 C   0  0  0  0  0  0  0  0  0  0  0  0
  143.8090  162.8030  133.3760 N   0  0  0  0  0  0  0  0  0  0  0  0
  145.4450  162.8400  135.0170 O   0  0  0  0  0  0  0  0  0  0  0  0
  144.4300  159.7260  133.7080 N   0  0  0  0  0  0  0  0  0  0  0  0
  143.0150  159.6920  133.9610 C   0  0  0  0  0  0  0  0  0  0  0  0
  142.2420  160.4400  133.3060 O   0  0  0  0  0  0  0  0  0  0  0  0
  142.4520  158.8260  135.0100 C   0  0  0  0  0  0  0  0  0  0  0  0
  142.1660  159.3370  136.1250 O   0  0  0  0  0  0  0  0  0  0  0  0
  142.0680  157.3890  134.7030 C   0  0  0  0  0  0  0  0  0  0  0  0
  140.8910  156.8850  135.5700 C   0  0  0  0  0  0  0  0  0  0  0  0
  139.5600  157.5760  135.2630 C   0  0  0  0  0  0  0  0  0  0  0  0
  139.1420  157.3590  133.5490 S   0  0  0  0  0  0  0  0  0  0  0  0
  138.7410  155.9330  133.2940 O   0  0  0  0  0  0  0  0  0  0  0  0
  138.0060  158.2740  133.1850 O   0  0  0  0  0  0  0  0  0  0  0  0
  140.5860  157.7660  132.5970 C   0  0  0  0  0  0  0  0  0  0  0  0
  141.8420  157.1100  133.1910 C   0  0  0  0  0  0  0  0  0  0  0  0
  145.2250  158.6670  133.4310 C   0  0  0  0  0  0  0  0  0  0  0  0
  144.8710  157.3150  133.3360 C   0  0  0  0  0  0  0  0  0  0  0  0
  141.5442  150.7938  133.9255 H   0  0  0  0  0  0  0  0  0  0  0  0
  140.7612  151.3442  132.4054 H   0  0  0  0  0  0  0  0  0  0  0  0
  142.4971  150.8823  132.4054 H   0  0  0  0  0  0  0  0  0  0  0  0
  143.5190  155.2619  132.3232 H   0  0  0  0  0  0  0  0  0  0  0  0
  143.6913  155.0265  134.0925 H   0  0  0  0  0  0  0  0  0  0  0  0
  146.0544  154.3718  133.8011 H   0  0  0  0  0  0  0  0  0  0  0  0
  145.8805  154.5253  132.0088 H   0  0  0  0  0  0  0  0  0  0  0  0
  148.0209  156.0636  132.7374 H   0  0  0  0  0  0  0  0  0  0  0  0
  148.6077  158.4984  132.9903 H   0  0  0  0  0  0  0  0  0  0  0  0
  147.4777  161.0610  133.5432 H   0  0  0  0  0  0  0  0  0  0  0  0
  143.0210  162.2360  132.9860 H   0  0  0  0  0  0  0  0  0  0  0  0
  142.9494  156.7949  134.9863 H   0  0  0  0  0  0  0  0  0  0  0  0
  140.7698  155.8055  135.3971 H   0  0  0  0  0  0  0  0  0  0  0  0
  141.1399  157.1174  136.6160 H   0  0  0  0  0  0  0  0  0  0  0  0
  138.7691  157.1372  135.8890 H   0  0  0  0  0  0  0  0  0  0  0  0
  139.6536  158.6507  135.4781 H   0  0  0  0  0  0  0  0  0  0  0  0
  140.4484  157.4102  131.5653 H   0  0  0  0  0  0  0  0  0  0  0  0
  140.7201  158.8577  132.6143 H   0  0  0  0  0  0  0  0  0  0  0  0
  141.7583  156.0220  133.0523 H   0  0  0  0  0  0  0  0  0  0  0  0
  142.7010  157.5493  132.6626 H   0  0  0  0  0  0  0  0  0  0  0  0
  143.8263  156.9959  133.4656 H   0  0  0  0  0  0  0  0  0  0  0  0
  1  2  1  0
  2  3  2  0
  2  4  2  0
  2  5  1  0
  5  6  1  0
  6  7  1  0
  7  8  1  0
  8  9  2  0
  9 10  1  0
 10 11  2  0
 11 12  1  0
 12 13  2  0
 13 14  1  0
 14 15  1  0
 14 16  2  0
 13 17  1  0
 17 18  1  0
 18 19  2  0
 18 20  1  0
 20 21  2  0
 20 22  1  0
 22 23  1  0
 23 24  1  0
 24 25  1  0
 25 26  2  0
 25 27  2  0
 25 28  1  0
 28 29  1  0
 17 30  1  0
 30 31  2  0
 31  8  1  0
 30 11  1  0
 29 22  1  0
  1 32  1  0
  1 33  1  0
  1 34  1  0
  6 35  1  0
  6 36  1  0
  7 37  1  0
  7 38  1  0
  9 39  1  0
 10 40  1  0
 12 41  1  0
 15 42  1  0
 22 43  1  0
 23 44  1  0
 23 45  1  0
 24 46  1  0
 24 47  1  0
 28 48  1  0
 28 49  1  0
 29 50  1  0
 29 51  1  0
 31 52  1  0
M  CHG  1  15  -1
M  END
>  <UniqueID>  (54) 
53

>  <SMILES>  (54) 
CS(=O)(=O)OCCc1ccc2cc(C([NH-])=O)n(C(=O)C(=O)C3CCS(=O)(=O)CC3)c2c1

>  <Energy>  (54) 
87.54980374914419

>  <Genealogy>  (54) 
CS(=O)(=O)OCCc1ccc2cc(C([NH-])=O)n(C(=O)C(=O)C3CCS(=O)(=O)CC3)c2c1 (protonated)
CS(=O)(=O)OCCc1ccc2cc(C([NH-])=O)n(C(=O)C(=O)C3CCS(=O)(=O)CC3)c2c1 (3D coordinates assigned)
CS(=O)(=O)OCCc1ccc2cc(C([NH-])=O)n(C(=O)C(=O)C3CCS(=O)(=O)CC3)c2c1 (nonaromatic ring conformer: 87.54980374914419 kcal/mol)

>  <smiles>  (54) 
CS(=O)(=O)OCCc1ccc2cc(C(N)=O)n(C(=O)C(=O)C3CCS(=O)(=O)CC3)c2c1

>  <score_type>  (54) 
oracle

>  <origin>  (54) 
adg

>  <m_score__min__energy>  (54) 
-9.5099999999999998

>  <m_primary>  (54) 
energy

$$$$
54:0
     RDKit          3D

 36 37  0  0  0  0  0  0  0  0999 V2000
  148.6940  152.0590  132.5570 C   0  0  0  0  0  0  0  0  0  0  0  0
  149.4560  153.2590  132.6030 O   0  0  0  0  0  0  0  0  0  0  0  0
  148.8640  154.5250  132.6150 C   0  0  0  0  0  0  0  0  0  0  0  0
  149.5730  155.5670  132.5740 O   0  0  0  0  0  0  0  0  0  0  0  0
  147.3730  154.6420  132.6460 C   0  0  0  0  0  0  0  0  0  0  0  0
  146.9790  156.0110  132.5840 O   0  0  0  0  0  0  0  0  0  0  0  0
  146.0990  156.5970  133.5000 C   0  0  0  0  0  0  0  0  0  0  0  0
  145.4610  155.8810  134.3200 O   0  0  0  0  0  0  0  0  0  0  0  0
  145.9340  158.0230  133.5180 N   0  0  0  0  0  0  0  0  0  0  0  0
  146.8710  158.9760  133.2500 C   0  0  0  0  0  0  0  0  0  0  0  0
  148.3150  158.7380  133.0440 C   0  0  0  0  0  0  0  0  0  0  0  0
  148.7960  158.1440  131.8420 N   0  0  0  0  0  0  0  0  0  0  0  0
  149.1310  159.0190  133.9620 O   0  0  0  0  0  0  0  0  0  0  0  0
  146.2990  160.2460  133.2820 C   0  0  0  0  0  0  0  0  0  0  0  0
  144.9730  160.0410  133.5920 C   0  0  0  0  0  0  0  0  0  0  0  0
  143.9360  160.9570  133.7390 C   0  0  0  0  0  0  0  0  0  0  0  0
  142.6550  160.4610  134.0330 C   0  0  0  0  0  0  0  0  0  0  0  0
  142.4360  159.0680  134.1760 C   0  0  0  0  0  0  0  0  0  0  0  0
  141.0530  158.5460  134.4480 C   0  0  0  0  0  0  0  0  0  0  0  0
  140.7090  158.7280  135.8920 C   0  0  0  0  0  0  0  0  0  0  0  0
  141.4860  159.3610  136.6540 O   0  0  0  0  0  0  0  0  0  0  0  0
  139.5050  158.2400  136.3860 O   0  0  0  0  0  0  0  0  0  0  0  0
  143.5120  158.1670  134.0080 C   0  0  0  0  0  0  0  0  0  0  0  0
  144.7790  158.6910  133.7320 C   0  0  0  0  0  0  0  0  0  0  0  0
  148.4796  151.7213  133.5817 H   0  0  0  0  0  0  0  0  0  0  0  0
  147.7483  152.2452  132.0269 H   0  0  0  0  0  0  0  0  0  0  0  0
  149.2647  151.2823  132.0269 H   0  0  0  0  0  0  0  0  0  0  0  0
  146.9495  154.1039  131.7851 H   0  0  0  0  0  0  0  0  0  0  0  0
  147.0010  154.2065  133.5851 H   0  0  0  0  0  0  0  0  0  0  0  0
  148.5170  157.1750  131.5700 H   0  0  0  0  0  0  0  0  0  0  0  0
  146.8000  161.2079  133.0986 H   0  0  0  0  0  0  0  0  0  0  0  0
  144.1139  162.0369  133.6283 H   0  0  0  0  0  0  0  0  0  0  0  0
  141.8143  161.1601  134.1533 H   0  0  0  0  0  0  0  0  0  0  0  0
  140.3285  159.0960  133.8294 H   0  0  0  0  0  0  0  0  0  0  0  0
  141.0182  157.4744  134.2022 H   0  0  0  0  0  0  0  0  0  0  0  0
  143.3568  157.0813  134.0922 H   0  0  0  0  0  0  0  0  0  0  0  0
  1  2  1  0
  2  3  1  0
  3  4  2  0
  3  5  1  0
  5  6  1  0
  6  7  1  0
  7  8  2  0
  7  9  1  0
  9 10  1  0
 10 11  1  0
 11 12  1  0
 11 13  2  0
 10 14  2  0
 14 15  1  0
 15 16  2  0
 16 17  1  0
 17 18  2  0
 18 19  1  0
 19 20  1  0
 20 21  2  0
 20 22  1  0
 18 23  1  0
 23 24  2  0
 24  9  1  0
 24 15  1  0
  1 25  1  0
  1 26  1  0
  1 27  1  0
  5 28  1  0
  5 29  1  0
 12 30  1  0
 14 31  1  0
 16 32  1  0
 17 33  1  0
 19 34  1  0
 19 35  1  0
 23 36  1  0
M  CHG  2  12  -1  22  -1
M  END
>  <UniqueID>  (55) 
54

>  <SMILES>  (55) 
COC(=O)COC(=O)n1c(C([NH-])=O)cc2ccc(CC(=O)[O-])cc21

>  <Energy>  (55) 
68.83583800177703

>  <Genealogy>  (55) 
COC(=O)COC(=O)n1c(C([NH-])=O)cc2ccc(CC(=O)[O-])cc21 (protonated)
COC(=O)COC(=O)n1c(C([NH-])=O)cc2ccc(CC(=O)[O-])cc21 (3D coordinates assigned)
COC(=O)COC(=O)n1c(C([NH-])=O)cc2ccc(CC(=O)[O-])cc21 (optimized conformer: 68.83583800177703 kcal/mol)

>  <smiles>  (55) 
COC(=O)COC(=O)n1c(C(N)=O)cc2ccc(CC(=O)O)cc21

>  <score_type>  (55) 
oracle

>  <origin>  (55) 
adg

>  <m_score__min__energy>  (55) 
-6.1200000000000001

>  <m_primary>  (55) 
energy

$$$$
55:0
     RDKit          3D

 32 34  0  0  0  0  0  0  0  0999 V2000
  149.6210  150.7440  133.1460 C   0  0  0  0  0  0  0  0  0  0  0  0
  149.2270  152.1590  132.8910 C   0  0  0  0  0  0  0  0  0  0  0  0
  149.9900  153.0490  132.2310 N   0  0  0  0  0  0  0  0  0  0  0  0
  149.3160  154.1880  132.2350 N   0  0  0  0  0  0  0  0  0  0  0  0
  148.1690  153.9500  132.9030 C   0  0  0  0  0  0  0  0  0  0  0  0
  147.1180  154.9570  133.1440 C   0  0  0  0  0  0  0  0  0  0  0  0
  145.8000  154.5540  133.4830 C   0  0  0  0  0  0  0  0  0  0  0  0
  144.7990  155.5090  133.7240 C   0  0  0  0  0  0  0  0  0  0  0  0
  145.1380  156.8530  133.6110 C   0  0  0  0  0  0  0  0  0  0  0  0
  144.3760  157.9810  133.8180 C   0  0  0  0  0  0  0  0  0  0  0  0
  145.2330  159.0550  133.5830 C   0  0  0  0  0  0  0  0  0  0  0  0
  144.8130  160.4700  133.6530 C   0  0  0  0  0  0  0  0  0  0  0  0
  145.7520  161.5040  133.9340 N   0  0  0  0  0  0  0  0  0  0  0  0
  143.6100  160.7760  133.4310 O   0  0  0  0  0  0  0  0  0  0  0  0
  146.4740  158.6060  133.2420 N   0  0  0  0  0  0  0  0  0  0  0  0
  147.6540  159.3880  132.9960 C   0  0  0  0  0  0  0  0  0  0  0  0
  148.1140  160.1220  133.9110 O   0  0  0  0  0  0  0  0  0  0  0  0
  148.3260  159.3460  131.6880 C   0  0  0  0  0  0  0  0  0  0  0  0
  149.3800  158.4160  131.4580 N   0  0  0  0  0  0  0  0  0  0  0  0
  147.9810  160.1400  130.7720 O   0  0  0  0  0  0  0  0  0  0  0  0
  146.4000  157.2580  133.2680 C   0  0  0  0  0  0  0  0  0  0  0  0
  147.4240  156.3320  133.0410 C   0  0  0  0  0  0  0  0  0  0  0  0
  148.1110  152.7040  133.3110 O   0  0  0  0  0  0  0  0  0  0  0  0
  149.6703  150.5669  134.2305 H   0  0  0  0  0  0  0  0  0  0  0  0
  148.8765  150.0696  132.6978 H   0  0  0  0  0  0  0  0  0  0  0  0
  150.6069  150.5515  132.6978 H   0  0  0  0  0  0  0  0  0  0  0  0
  145.5602  153.4831  133.5577 H   0  0  0  0  0  0  0  0  0  0  0  0
  143.7775  155.2032  133.9940 H   0  0  0  0  0  0  0  0  0  0  0  0
  143.3157  158.0253  134.1075 H   0  0  0  0  0  0  0  0  0  0  0  0
  146.6150  161.6170  133.3590 H   0  0  0  0  0  0  0  0  0  0  0  0
  149.1790  157.4600  131.0890 H   0  0  0  0  0  0  0  0  0  0  0  0
  148.4412  156.6662  132.7888 H   0  0  0  0  0  0  0  0  0  0  0  0
  1  2  1  0
  2  3  2  0
  3  4  1  0
  4  5  2  0
  5  6  1  0
  6  7  2  0
  7  8  1  0
  8  9  2  0
  9 10  1  0
 10 11  2  0
 11 12  1  0
 12 13  1  0
 12 14  2  0
 11 15  1  0
 15 16  1  0
 16 17  2  0
 16 18  1  0
 18 19  1  0
 18 20  2  0
 15 21  1  0
 21 22  2  0
  5 23  1  0
 23  2  1  0
 22  6  1  0
 21  9  1  0
  1 24  1  0
  1 25  1  0
  1 26  1  0
  7 27  1  0
  8 28  1  0
 10 29  1  0
 13 30  1  0
 19 31  1  0
 22 32  1  0
M  CHG  2  13  -1  19  -1
M  END
>  <UniqueID>  (56) 
55

>  <SMILES>  (56) 
Cc1nnc(-c2ccc3cc(C([NH-])=O)n(C(=O)C([NH-])=O)c3c2)o1

>  <Energy>  (56) 
106.40906117643286

>  <Genealogy>  (56) 
Cc1nnc(-c2ccc3cc(C([NH-])=O)n(C(=O)C([NH-])=O)c3c2)o1 (protonated)
Cc1nnc(-c2ccc3cc(C([NH-])=O)n(C(=O)C([NH-])=O)c3c2)o1 (3D coordinates assigned)
Cc1nnc(-c2ccc3cc(C([NH-])=O)n(C(=O)C([NH-])=O)c3c2)o1 (optimized conformer: 106.40906117643286 kcal/mol)

>  <smiles>  (56) 
Cc1nnc(-c2ccc3cc(C(N)=O)n(C(=O)C(N)=O)c3c2)o1

>  <score_type>  (56) 
oracle

>  <origin>  (56) 
adg

>  <m_score__min__energy>  (56) 
-6.71

>  <m_primary>  (56) 
energy

$$$$
56:0
     RDKit          3D

 42 44  0  0  0  0  0  0  0  0999 V2000
  138.7870  158.2630  135.5680 N   0  0  0  0  0  0  0  0  0  0  0  0
  139.1790  157.4860  134.4350 C   0  0  0  0  0  0  0  0  0  0  0  0
  138.2910  156.9670  133.7100 O   0  0  0  0  0  0  0  0  0  0  0  0
  140.6100  157.3220  134.0910 C   0  0  0  0  0  0  0  0  0  0  0  0
  141.1870  156.1030  133.7370 C   0  0  0  0  0  0  0  0  0  0  0  0
  142.5300  156.3650  133.5930 C   0  0  0  0  0  0  0  0  0  0  0  0
  143.5720  155.5140  133.2360 C   0  0  0  0  0  0  0  0  0  0  0  0
  144.8620  156.0610  133.1330 C   0  0  0  0  0  0  0  0  0  0  0  0
  145.0880  157.4380  133.3840 C   0  0  0  0  0  0  0  0  0  0  0  0
  146.4100  157.9920  133.2500 N   0  0  0  0  0  0  0  0  0  0  0  0
  147.4470  157.2320  132.5380 C   0  0  0  0  0  0  0  0  0  0  0  0
  148.7280  158.0560  132.3430 C   0  0  0  0  0  0  0  0  0  0  0  0
  148.4040  159.4300  131.9200 N   0  0  0  0  0  0  0  0  0  0  0  0
  149.2440  160.1040  130.9560 C   0  0  0  0  0  0  0  0  0  0  0  0
  150.3510  159.5970  130.6240 O   0  0  0  0  0  0  0  0  0  0  0  0
  148.8450  161.4340  130.3700 C   0  0  0  0  0  0  0  0  0  0  0  0
  149.9520  162.2880  130.2580 O   0  0  0  0  0  0  0  0  0  0  0  0
  147.3200  160.1660  132.5950 C   0  0  0  0  0  0  0  0  0  0  0  0
  146.7050  159.3470  133.7300 C   0  0  0  0  0  0  0  0  0  0  0  0
  144.0010  158.2700  133.7400 C   0  0  0  0  0  0  0  0  0  0  0  0
  142.7300  157.6960  133.8540 C   0  0  0  0  0  0  0  0  0  0  0  0
  141.5590  158.2980  134.1600 N   0  0  0  0  0  0  0  0  0  0  0  0
  141.3640  159.6960  134.4350 C   0  0  0  0  0  0  0  0  0  0  0  0
  140.9890  160.0740  135.5760 O   0  0  0  0  0  0  0  0  0  0  0  0
  141.5750  160.6440  133.4410 O   0  0  0  0  0  0  0  0  0  0  0  0
  137.7740  158.4070  135.7790 H   0  0  0  0  0  0  0  0  0  0  0  0
  139.4940  158.6640  136.2230 H   0  0  0  0  0  0  0  0  0  0  0  0
  140.6772  155.1377  133.6017 H   0  0  0  0  0  0  0  0  0  0  0  0
  143.3912  154.4467  133.0406 H   0  0  0  0  0  0  0  0  0  0  0  0
  145.7064  155.4134  132.8544 H   0  0  0  0  0  0  0  0  0  0  0  0
  147.6893  156.3301  133.1193 H   0  0  0  0  0  0  0  0  0  0  0  0
  147.0556  156.9696  131.5440 H   0  0  0  0  0  0  0  0  0  0  0  0
  149.2824  158.0917  133.2924 H   0  0  0  0  0  0  0  0  0  0  0  0
  149.3391  157.5802  131.5619 H   0  0  0  0  0  0  0  0  0  0  0  0
  148.4137  161.2718  129.3712 H   0  0  0  0  0  0  0  0  0  0  0  0
  148.1074  161.9032  131.0376 H   0  0  0  0  0  0  0  0  0  0  0  0
  150.7610  161.7180  130.3480 H   0  0  0  0  0  0  0  0  0  0  0  0
  147.7269  161.1004  133.0090 H   0  0  0  0  0  0  0  0  0  0  0  0
  146.5329  160.3738  131.8552 H   0  0  0  0  0  0  0  0  0  0  0  0
  147.4141  159.2926  134.5691 H   0  0  0  0  0  0  0  0  0  0  0  0
  145.7748  159.8276  134.0672 H   0  0  0  0  0  0  0  0  0  0  0  0
  144.1514  159.3442  133.9231 H   0  0  0  0  0  0  0  0  0  0  0  0
  1  2  1  0
  2  3  2  0
  2  4  1  0
  4  5  2  0
  5  6  1  0
  6  7  2  0
  7  8  1  0
  8  9  2  0
  9 10  1  0
 10 11  1  0
 11 12  1  0
 12 13  1  0
 13 14  1  0
 14 15  2  0
 14 16  1  0
 16 17  1  0
 13 18  1  0
 18 19  1  0
  9 20  1  0
 20 21  2  0
 21 22  1  0
 22 23  1  0
 23 24  2  0
 23 25  1  0
 22  4  1  0
 21  6  1  0
 19 10  1  0
  1 26  1  0
  1 27  1  0
  5 28  1  0
  7 29  1  0
  8 30  1  0
 11 31  1  0
 11 32  1  0
 12 33  1  0
 12 34  1  0
 16 35  1  0
 16 36  1  0
 17 37  1  0
 18 38  1  0
 18 39  1  0
 19 40  1  0
 19 41  1  0
 20 42  1  0
M  CHG  1  25  -1
M  END
>  <UniqueID>  (57) 
56

>  <SMILES>  (57) 
NC(=O)c1cc2ccc(N3CCN(C(=O)CO)CC3)cc2n1C(=O)[O-]

>  <Energy>  (57) 
86.98974785826447

>  <Genealogy>  (57) 
NC(=O)c1cc2ccc(N3CCN(C(=O)CO)CC3)cc2n1C(=O)[O-] (protonated)
NC(=O)c1cc2ccc(N3CCN(C(=O)CO)CC3)cc2n1C(=O)[O-] (3D coordinates assigned)
NC(=O)c1cc2ccc(N3CCN(C(=O)CO)CC3)cc2n1C(=O)[O-] (nonaromatic ring conformer: 86.98974785826447 kcal/mol)

>  <smiles>  (57) 
NC(=O)c1cc2ccc(N3CCN(C(=O)CO)CC3)cc2n1C(=O)O

>  <score_type>  (57) 
oracle

>  <origin>  (57) 
adg

>  <m_score__min__energy>  (57) 
-7.7800000000000002

>  <m_primary>  (57) 
energy

$$$$
57:0
     RDKit          3D

 42 43  0  0  0  0  0  0  0  0999 V2000
  143.2800  155.8760  135.1590 C   0  0  0  0  0  0  0  0  0  0  0  0
  142.8100  157.1440  134.5900 N   0  0  0  0  0  0  0  0  0  0  0  0
  141.8190  157.9310  135.2820 C   0  0  0  0  0  0  0  0  0  0  0  0
  142.0560  158.3180  136.4590 O   0  0  0  0  0  0  0  0  0  0  0  0
  140.5220  158.2770  134.6530 C   0  0  0  0  0  0  0  0  0  0  0  0
  139.5260  158.5220  135.3890 O   0  0  0  0  0  0  0  0  0  0  0  0
  140.3980  158.3940  133.2150 N   0  0  0  0  0  0  0  0  0  0  0  0
  139.9170  157.1270  132.6380 C   0  0  0  0  0  0  0  0  0  0  0  0
  139.4910  159.5000  132.8750 C   0  0  0  0  0  0  0  0  0  0  0  0
  143.4190  157.6630  133.3920 C   0  0  0  0  0  0  0  0  0  0  0  0
  142.8640  157.4830  132.2730 O   0  0  0  0  0  0  0  0  0  0  0  0
  144.6570  158.3860  133.4490 N   0  0  0  0  0  0  0  0  0  0  0  0
  144.8320  159.7350  133.5090 C   0  0  0  0  0  0  0  0  0  0  0  0
  143.7530  160.7380  133.6250 C   0  0  0  0  0  0  0  0  0  0  0  0
  142.4200  160.3920  133.2590 N   0  0  0  0  0  0  0  0  0  0  0  0
  144.0000  161.9050  134.0300 O   0  0  0  0  0  0  0  0  0  0  0  0
  146.1910  160.0490  133.4890 C   0  0  0  0  0  0  0  0  0  0  0  0
  146.8440  158.8380  133.4060 C   0  0  0  0  0  0  0  0  0  0  0  0
  148.2050  158.5520  133.3590 C   0  0  0  0  0  0  0  0  0  0  0  0
  148.5920  157.2040  133.2670 C   0  0  0  0  0  0  0  0  0  0  0  0
  147.6190  156.1720  133.1970 C   0  0  0  0  0  0  0  0  0  0  0  0
  148.0420  154.7260  133.1350 C   0  0  0  0  0  0  0  0  0  0  0  0
  147.0080  153.9720  132.6120 F   0  0  0  0  0  0  0  0  0  0  0  0
  149.1580  154.5830  132.3300 F   0  0  0  0  0  0  0  0  0  0  0  0
  148.3540  154.2490  134.3960 F   0  0  0  0  0  0  0  0  0  0  0  0
  146.2460  156.5040  133.2710 C   0  0  0  0  0  0  0  0  0  0  0  0
  145.8940  157.8530  133.3780 C   0  0  0  0  0  0  0  0  0  0  0  0
  143.2577  155.9363  136.2571 H   0  0  0  0  0  0  0  0  0  0  0  0
  142.6252  155.0584  134.8232 H   0  0  0  0  0  0  0  0  0  0  0  0
  144.3095  155.6827  134.8232 H   0  0  0  0  0  0  0  0  0  0  0  0
  141.3310  158.5960  132.7860 H   0  0  0  0  0  0  0  0  0  0  0  0
  139.6531  156.4318  133.4486 H   0  0  0  0  0  0  0  0  0  0  0  0
  139.0297  157.3203  132.0173 H   0  0  0  0  0  0  0  0  0  0  0  0
  140.7090  156.6827  132.0173 H   0  0  0  0  0  0  0  0  0  0  0  0
  139.1127  159.9613  133.7992 H   0  0  0  0  0  0  0  0  0  0  0  0
  140.0353  160.2526  132.2857 H   0  0  0  0  0  0  0  0  0  0  0  0
  138.6463  159.1136  132.2857 H   0  0  0  0  0  0  0  0  0  0  0  0
  142.2310  159.5850  132.6240 H   0  0  0  0  0  0  0  0  0  0  0  0
  146.6449  161.0501  133.5306 H   0  0  0  0  0  0  0  0  0  0  0  0
  148.9548  159.3561  133.3928 H   0  0  0  0  0  0  0  0  0  0  0  0
  149.6610  156.9453  133.2490 H   0  0  0  0  0  0  0  0  0  0  0  0
  145.4744  155.7204  133.2450 H   0  0  0  0  0  0  0  0  0  0  0  0
  1  2  1  0
  2  3  1  0
  3  4  2  0
  3  5  1  0
  5  6  2  0
  5  7  1  0
  7  8  1  0
  7  9  1  0
  2 10  1  0
 10 11  2  0
 10 12  1  0
 12 13  1  0
 13 14  1  0
 14 15  1  0
 14 16  2  0
 13 17  2  0
 17 18  1  0
 18 19  2  0
 19 20  1  0
 20 21  2  0
 21 22  1  0
 22 23  1  0
 22 24  1  0
 22 25  1  0
 21 26  1  0
 26 27  2  0
 27 12  1  0
 27 18  1  0
  1 28  1  0
  1 29  1  0
  1 30  1  0
  7 31  1  0
  8 32  1  0
  8 33  1  0
  8 34  1  0
  9 35  1  0
  9 36  1  0
  9 37  1  0
 15 38  1  0
 17 39  1  0
 19 40  1  0
 20 41  1  0
 26 42  1  0
M  CHG  2   7   1  15  -1
M  END
>  <UniqueID>  (58) 
57

>  <SMILES>  (58) 
CN(C(=O)C(=O)[NH+](C)C)C(=O)n1c(C([NH-])=O)cc2ccc(C(F)(F)F)cc21

>  <Energy>  (58) 
87.03177702475212

>  <Genealogy>  (58) 
CN(C(=O)C(=O)[NH+](C)C)C(=O)n1c(C([NH-])=O)cc2ccc(C(F)(F)F)cc21 (protonated)
CN(C(=O)C(=O)[NH+](C)C)C(=O)n1c(C([NH-])=O)cc2ccc(C(F)(F)F)cc21 (3D coordinates assigned)
CN(C(=O)C(=O)[NH+](C)C)C(=O)n1c(C([NH-])=O)cc2ccc(C(F)(F)F)cc21 (optimized conformer: 87.03177702475212 kcal/mol)

>  <smiles>  (58) 
CN(C)C(=O)C(=O)N(C)C(=O)n1c(C(N)=O)cc2ccc(C(F)(F)F)cc21

>  <score_type>  (58) 
oracle

>  <origin>  (58) 
adg

>  <m_score__min__energy>  (58) 
-5.0499999999999998

>  <m_primary>  (58) 
energy

$$$$
58:0
     RDKit          3D

 46 48  0  0  0  0  0  0  0  0999 V2000
  141.6600  158.9510  135.6930 C   0  0  0  0  0  0  0  0  0  0  0  0
  142.3330  158.3310  134.5480 N   0  0  0  0  0  0  0  0  0  0  0  0
  141.6710  157.2370  133.8200 C   0  0  0  0  0  0  0  0  0  0  0  0
  140.1420  157.3900  133.8410 C   0  0  0  0  0  0  0  0  0  0  0  0
  139.6460  158.3080  132.7640 C   0  0  0  0  0  0  0  0  0  0  0  0
  138.7440  157.9410  131.8270 N   0  0  0  0  0  0  0  0  0  0  0  0
  138.4350  158.9670  130.9890 C   0  0  0  0  0  0  0  0  0  0  0  0
  139.0920  160.1630  131.2550 C   0  0  0  0  0  0  0  0  0  0  0  0
  140.0890  159.9200  132.5890 S   0  0  0  0  0  0  0  0  0  0  0  0
  143.5370  158.9200  134.0270 C   0  0  0  0  0  0  0  0  0  0  0  0
  143.7510  160.3190  134.1200 C   0  0  0  0  0  0  0  0  0  0  0  0
  144.9770  160.8840  133.7330 C   0  0  0  0  0  0  0  0  0  0  0  0
  145.9680  160.0300  133.2550 C   0  0  0  0  0  0  0  0  0  0  0  0
  147.2710  160.2960  132.9070 C   0  0  0  0  0  0  0  0  0  0  0  0
  147.8230  159.0600  132.5760 C   0  0  0  0  0  0  0  0  0  0  0  0
  149.2090  158.8830  132.1070 C   0  0  0  0  0  0  0  0  0  0  0  0
  149.7380  157.5810  131.8650 N   0  0  0  0  0  0  0  0  0  0  0  0
  149.9230  159.8930  131.8720 O   0  0  0  0  0  0  0  0  0  0  0  0
  146.8980  158.0710  132.7120 N   0  0  0  0  0  0  0  0  0  0  0  0
  147.1120  156.6560  132.6220 C   0  0  0  0  0  0  0  0  0  0  0  0
  146.9810  156.0720  131.5120 O   0  0  0  0  0  0  0  0  0  0  0  0
  147.4230  155.9250  133.7760 O   0  0  0  0  0  0  0  0  0  0  0  0
  147.3750  154.5020  133.8420 C   0  0  0  0  0  0  0  0  0  0  0  0
  148.4350  153.8880  132.9270 C   0  0  0  0  0  0  0  0  0  0  0  0
  149.4210  154.8360  132.6170 O   0  0  0  0  0  0  0  0  0  0  0  0
  145.7670  158.6810  133.1270 C   0  0  0  0  0  0  0  0  0  0  0  0
  144.5570  158.0900  133.5090 C   0  0  0  0  0  0  0  0  0  0  0  0
  142.0875  158.5572  136.6269 H   0  0  0  0  0  0  0  0  0  0  0  0
  141.8023  160.0411  135.6557 H   0  0  0  0  0  0  0  0  0  0  0  0
  140.5852  158.7200  135.6557 H   0  0  0  0  0  0  0  0  0  0  0  0
  142.0164  157.2424  132.7756 H   0  0  0  0  0  0  0  0  0  0  0  0
  141.9295  156.2884  134.3133 H   0  0  0  0  0  0  0  0  0  0  0  0
  139.6856  156.3993  133.6990 H   0  0  0  0  0  0  0  0  0  0  0  0
  139.8613  157.8270  134.8107 H   0  0  0  0  0  0  0  0  0  0  0  0
  137.7181  158.8584  130.1618 H   0  0  0  0  0  0  0  0  0  0  0  0
  138.9800  161.1020  130.6930 H   0  0  0  0  0  0  0  0  0  0  0  0
  142.9482  160.9683  134.4993 H   0  0  0  0  0  0  0  0  0  0  0  0
  145.1494  161.9680  133.8052 H   0  0  0  0  0  0  0  0  0  0  0  0
  147.7712  161.2756  132.8928 H   0  0  0  0  0  0  0  0  0  0  0  0
  149.1050  156.7680  131.6850 H   0  0  0  0  0  0  0  0  0  0  0  0
  147.5608  154.1811  134.8776 H   0  0  0  0  0  0  0  0  0  0  0  0
  146.3814  154.1637  133.5129 H   0  0  0  0  0  0  0  0  0  0  0  0
  148.9022  153.0324  133.4365 H   0  0  0  0  0  0  0  0  0  0  0  0
  147.9535  153.5559  131.9954 H   0  0  0  0  0  0  0  0  0  0  0  0
  148.9450  155.6250  132.2450 H   0  0  0  0  0  0  0  0  0  0  0  0
  144.4036  157.0054  133.4085 H   0  0  0  0  0  0  0  0  0  0  0  0
  1  2  1  0
  2  3  1  0
  3  4  1  0
  4  5  1  0
  5  6  2  0
  6  7  1  0
  7  8  2  0
  8  9  1  0
  2 10  1  0
 10 11  2  0
 11 12  1  0
 12 13  2  0
 13 14  1  0
 14 15  2  0
 15 16  1  0
 16 17  1  0
 16 18  2  0
 15 19  1  0
 19 20  1  0
 20 21  2  0
 20 22  1  0
 22 23  1  0
 23 24  1  0
 24 25  1  0
 19 26  1  0
 26 27  2  0
  9  5  1  0
 27 10  1  0
 26 13  1  0
  1 28  1  0
  1 29  1  0
  1 30  1  0
  3 31  1  0
  3 32  1  0
  4 33  1  0
  4 34  1  0
  7 35  1  0
  8 36  1  0
 11 37  1  0
 12 38  1  0
 14 39  1  0
 17 40  1  0
 23 41  1  0
 23 42  1  0
 24 43  1  0
 24 44  1  0
 25 45  1  0
 27 46  1  0
M  CHG  1  17  -1
M  END
>  <UniqueID>  (59) 
58

>  <SMILES>  (59) 
CN(CCc1nccs1)c1ccc2cc(C([NH-])=O)n(C(=O)OCCO)c2c1

>  <Energy>  (59) 
110.09519091862919

>  <Genealogy>  (59) 
CN(CCc1nccs1)c1ccc2cc(C([NH-])=O)n(C(=O)OCCO)c2c1 (protonated)
CN(CCc1nccs1)c1ccc2cc(C([NH-])=O)n(C(=O)OCCO)c2c1 (3D coordinates assigned)
CN(CCc1nccs1)c1ccc2cc(C([NH-])=O)n(C(=O)OCCO)c2c1 (optimized conformer: 110.09519091862919 kcal/mol)

>  <smiles>  (59) 
CN(CCc1nccs1)c1ccc2cc(C(N)=O)n(C(=O)OCCO)c2c1

>  <score_type>  (59) 
oracle

>  <origin>  (59) 
adg

>  <m_score__min__energy>  (59) 
-7.21

>  <m_primary>  (59) 
energy

$$$$
59:0
     RDKit          3D

 45 46  0  0  0  0  0  0  0  0999 V2000
  140.4870  158.5120  136.1390 C   0  0  0  0  0  0  0  0  0  0  0  0
  141.6660  157.5550  136.0930 C   0  0  0  0  0  0  0  0  0  0  0  0
  141.9980  157.2750  134.7380 O   0  0  0  0  0  0  0  0  0  0  0  0
  142.4610  158.2540  133.8530 C   0  0  0  0  0  0  0  0  0  0  0  0
  143.5550  158.8440  134.0690 O   0  0  0  0  0  0  0  0  0  0  0  0
  141.6550  158.6240  132.6420 C   0  0  0  0  0  0  0  0  0  0  0  0
  140.2360  158.2730  132.8170 N   0  0  0  0  0  0  0  0  0  0  0  0
  139.2160  159.3250  132.7180 C   0  0  0  0  0  0  0  0  0  0  0  0
  139.8060  156.9120  133.0580 C   0  0  0  0  0  0  0  0  0  0  0  0
  138.5970  156.6900  133.3430 O   0  0  0  0  0  0  0  0  0  0  0  0
  140.7310  155.8080  132.9830 N   0  0  0  0  0  0  0  0  0  0  0  0
  140.3330  154.4290  133.0620 C   0  0  0  0  0  0  0  0  0  0  0  0
  139.1130  154.1110  133.0760 O   0  0  0  0  0  0  0  0  0  0  0  0
  141.3300  153.3980  133.1190 N   0  0  0  0  0  0  0  0  0  0  0  0
  142.6050  153.5000  133.5890 C   0  0  0  0  0  0  0  0  0  0  0  0
  143.2560  154.7400  134.0620 C   0  0  0  0  0  0  0  0  0  0  0  0
  143.6710  155.7280  133.1210 N   0  0  0  0  0  0  0  0  0  0  0  0
  143.4310  154.9470  135.2920 O   0  0  0  0  0  0  0  0  0  0  0  0
  143.2540  152.2680  133.5080 C   0  0  0  0  0  0  0  0  0  0  0  0
  142.3280  151.4030  132.9690 C   0  0  0  0  0  0  0  0  0  0  0  0
  142.4340  150.0460  132.6770 C   0  0  0  0  0  0  0  0  0  0  0  0
  141.3060  149.3980  132.1450 C   0  0  0  0  0  0  0  0  0  0  0  0
  140.1010  150.1110  131.9250 C   0  0  0  0  0  0  0  0  0  0  0  0
  138.8950  149.4180  131.3630 C   0  0  0  0  0  0  0  0  0  0  0  0
  140.0310  151.4860  132.2370 C   0  0  0  0  0  0  0  0  0  0  0  0
  141.1750  152.1090  132.7470 C   0  0  0  0  0  0  0  0  0  0  0  0
  140.2268  158.7232  137.1867 H   0  0  0  0  0  0  0  0  0  0  0  0
  140.7563  159.4502  135.6318 H   0  0  0  0  0  0  0  0  0  0  0  0
  139.6242  158.0555  135.6318 H   0  0  0  0  0  0  0  0  0  0  0  0
  142.5305  158.0141  136.5948 H   0  0  0  0  0  0  0  0  0  0  0  0
  141.3984  156.6192  136.6055 H   0  0  0  0  0  0  0  0  0  0  0  0
  141.7380  159.7079  132.4736 H   0  0  0  0  0  0  0  0  0  0  0  0
  142.0473  158.0653  131.7795 H   0  0  0  0  0  0  0  0  0  0  0  0
  138.9127  159.6378  133.7280 H   0  0  0  0  0  0  0  0  0  0  0  0
  139.6305  160.1877  132.1759 H   0  0  0  0  0  0  0  0  0  0  0  0
  138.3409  158.9374  132.1759 H   0  0  0  0  0  0  0  0  0  0  0  0
  141.7520  155.9970  132.9170 H   0  0  0  0  0  0  0  0  0  0  0  0
  143.7010  156.7390  133.3830 H   0  0  0  0  0  0  0  0  0  0  0  0
  144.2860  152.0366  133.8104 H   0  0  0  0  0  0  0  0  0  0  0  0
  143.3708  149.4983  132.8569 H   0  0  0  0  0  0  0  0  0  0  0  0
  141.3589  148.3276  131.8971 H   0  0  0  0  0  0  0  0  0  0  0  0
  138.2634  149.0551  132.1872 H   0  0  0  0  0  0  0  0  0  0  0  0
  138.3212  150.1241  130.7449 H   0  0  0  0  0  0  0  0  0  0  0  0
  139.2161  148.5667  130.7449 H   0  0  0  0  0  0  0  0  0  0  0  0
  139.1010  152.0529  132.0831 H   0  0  0  0  0  0  0  0  0  0  0  0
  1  2  1  0
  2  3  1  0
  3  4  1  0
  4  5  2  0
  4  6  1  0
  6  7  1  0
  7  8  1  0
  7  9  1  0
  9 10  2  0
  9 11  1  0
 11 12  1  0
 12 13  2  0
 12 14  1  0
 14 15  1  0
 15 16  1  0
 16 17  1  0
 16 18  2  0
 15 19  2  0
 19 20  1  0
 20 21  2  0
 21 22  1  0
 22 23  2  0
 23 24  1  0
 23 25  1  0
 25 26  2  0
 26 14  1  0
 26 20  1  0
  1 27  1  0
  1 28  1  0
  1 29  1  0
  2 30  1  0
  2 31  1  0
  6 32  1  0
  6 33  1  0
  8 34  1  0
  8 35  1  0
  8 36  1  0
 11 37  1  0
 17 38  1  0
 19 39  1  0
 21 40  1  0
 22 41  1  0
 24 42  1  0
 24 43  1  0
 24 44  1  0
 25 45  1  0
M  CHG  1  17  -1
M  END
>  <UniqueID>  (60) 
59

>  <SMILES>  (60) 
CCOC(=O)CN(C)C(=O)NC(=O)n1c(C([NH-])=O)cc2ccc(C)cc21

>  <Energy>  (60) 
74.51301339743124

>  <Genealogy>  (60) 
CCOC(=O)CN(C)C(=O)NC(=O)n1c(C([NH-])=O)cc2ccc(C)cc21 (protonated)
CCOC(=O)CN(C)C(=O)NC(=O)n1c(C([NH-])=O)cc2ccc(C)cc21 (3D coordinates assigned)
CCOC(=O)CN(C)C(=O)NC(=O)n1c(C([NH-])=O)cc2ccc(C)cc21 (optimized conformer: 74.51301339743124 kcal/mol)

>  <smiles>  (60) 
CCOC(=O)CN(C)C(=O)NC(=O)n1c(C(N)=O)cc2ccc(C)cc21

>  <score_type>  (60) 
oracle

>  <origin>  (60) 
adg

>  <m_score__min__energy>  (60) 
-7.0499999999999998

>  <m_primary>  (60) 
energy

$$$$
60:0
     RDKit          3D

 39 40  0  0  0  0  0  0  0  0999 V2000
  140.6380  159.8580  133.2960 C   0  0  0  0  0  0  0  0  0  0  0  0
  141.0860  158.4870  133.5580 N   0  0  0  0  0  0  0  0  0  0  0  0
  140.1190  157.4600  133.9700 C   0  0  0  0  0  0  0  0  0  0  0  0
  139.9430  156.4160  132.8730 C   0  0  0  0  0  0  0  0  0  0  0  0
  140.7870  155.3030  133.1430 O   0  0  0  0  0  0  0  0  0  0  0  0
  140.3710  153.9770  132.9880 C   0  0  0  0  0  0  0  0  0  0  0  0
  139.1410  153.7000  132.9350 O   0  0  0  0  0  0  0  0  0  0  0  0
  141.3530  152.9330  132.8860 N   0  0  0  0  0  0  0  0  0  0  0  0
  142.6390  152.9670  133.3340 C   0  0  0  0  0  0  0  0  0  0  0  0
  143.3420  154.1540  133.8650 C   0  0  0  0  0  0  0  0  0  0  0  0
  143.2510  155.4220  133.2130 N   0  0  0  0  0  0  0  0  0  0  0  0
  144.0750  154.0350  134.8830 O   0  0  0  0  0  0  0  0  0  0  0  0
  143.2460  151.7230  133.1810 C   0  0  0  0  0  0  0  0  0  0  0  0
  142.2860  150.9190  132.6090 C   0  0  0  0  0  0  0  0  0  0  0  0
  142.3490  149.5790  132.2410 C   0  0  0  0  0  0  0  0  0  0  0  0
  141.2000  148.9940  131.6850 C   0  0  0  0  0  0  0  0  0  0  0  0
  140.0050  149.7430  131.5340 C   0  0  0  0  0  0  0  0  0  0  0  0
  138.7990  149.1070  130.8930 C   0  0  0  0  0  0  0  0  0  0  0  0
  138.8180  147.7370  131.0840 F   0  0  0  0  0  0  0  0  0  0  0  0
  138.8130  149.3730  129.5380 F   0  0  0  0  0  0  0  0  0  0  0  0
  137.6270  149.6040  131.4360 F   0  0  0  0  0  0  0  0  0  0  0  0
  139.9850  151.1080  131.9110 C   0  0  0  0  0  0  0  0  0  0  0  0
  141.1520  151.6710  132.4410 C   0  0  0  0  0  0  0  0  0  0  0  0
  142.4690  158.1410  133.3560 C   0  0  0  0  0  0  0  0  0  0  0  0
  142.8620  157.7000  132.2440 O   0  0  0  0  0  0  0  0  0  0  0  0
  143.3880  158.2790  134.3890 O   0  0  0  0  0  0  0  0  0  0  0  0
  140.4684  160.3771  134.2509 H   0  0  0  0  0  0  0  0  0  0  0  0
  141.4085  160.3918  132.7203 H   0  0  0  0  0  0  0  0  0  0  0  0
  139.7010  159.8339  132.7203 H   0  0  0  0  0  0  0  0  0  0  0  0
  140.4831  156.9666  134.8832 H   0  0  0  0  0  0  0  0  0  0  0  0
  139.1487  157.9426  134.1585 H   0  0  0  0  0  0  0  0  0  0  0  0
  138.8946  156.0842  132.8464 H   0  0  0  0  0  0  0  0  0  0  0  0
  140.2115  156.8546  131.9006 H   0  0  0  0  0  0  0  0  0  0  0  0
  142.8050  155.5150  132.2740 H   0  0  0  0  0  0  0  0  0  0  0  0
  143.6950  156.2640  133.6400 H   0  0  0  0  0  0  0  0  0  0  0  0
  144.2730  151.4427  133.4580 H   0  0  0  0  0  0  0  0  0  0  0  0
  143.2708  148.9954  132.3813 H   0  0  0  0  0  0  0  0  0  0  0  0
  141.2269  147.9426  131.3628 H   0  0  0  0  0  0  0  0  0  0  0  0
  139.0735  151.7119  131.7901 H   0  0  0  0  0  0  0  0  0  0  0  0
  1  2  1  0
  2  3  1  0
  3  4  1  0
  4  5  1  0
  5  6  1  0
  6  7  2  0
  6  8  1  0
  8  9  1  0
  9 10  1  0
 10 11  1  0
 10 12  2  0
  9 13  2  0
 13 14  1  0
 14 15  2  0
 15 16  1  0
 16 17  2  0
 17 18  1  0
 18 19  1  0
 18 20  1  0
 18 21  1  0
 17 22  1  0
 22 23  2  0
  2 24  1  0
 24 25  2  0
 24 26  1  0
 23  8  1  0
 23 14  1  0
  1 27  1  0
  1 28  1  0
  1 29  1  0
  3 30  1  0
  3 31  1  0
  4 32  1  0
  4 33  1  0
 11 34  1  0
 11 35  1  0
 13 36  1  0
 15 37  1  0
 16 38  1  0
 22 39  1  0
M  CHG  1  26  -1
M  END
>  <UniqueID>  (61) 
60

>  <SMILES>  (61) 
CN(CCOC(=O)n1c(C(N)=O)cc2ccc(C(F)(F)F)cc21)C(=O)[O-]

>  <Energy>  (61) 
72.00346037017083

>  <Genealogy>  (61) 
CN(CCOC(=O)n1c(C(N)=O)cc2ccc(C(F)(F)F)cc21)C(=O)[O-] (protonated)
CN(CCOC(=O)n1c(C(N)=O)cc2ccc(C(F)(F)F)cc21)C(=O)[O-] (3D coordinates assigned)
CN(CCOC(=O)n1c(C(N)=O)cc2ccc(C(F)(F)F)cc21)C(=O)[O-] (optimized conformer: 72.00346037017083 kcal/mol)

>  <smiles>  (61) 
CN(CCOC(=O)n1c(C(N)=O)cc2ccc(C(F)(F)F)cc21)C(=O)O

>  <score_type>  (61) 
oracle

>  <origin>  (61) 
adg

>  <m_score__min__energy>  (61) 
-5.8200000000000003

>  <m_primary>  (61) 
energy

$$$$
61:0
     RDKit          3D

 38 39  0  0  0  0  0  0  0  0999 V2000
  138.9230  158.2350  132.4860 C   0  0  0  0  0  0  0  0  0  0  0  0
  139.7270  157.5970  133.5420 N   0  0  0  0  0  0  0  0  0  0  0  0
  139.1240  157.8720  134.8570 C   0  0  0  0  0  0  0  0  0  0  0  0
  139.8590  156.1400  133.3050 C   0  0  0  0  0  0  0  0  0  0  0  0
  141.2630  155.6660  133.7000 C   0  0  0  0  0  0  0  0  0  0  0  0
  141.9060  156.6060  134.6200 N   0  0  0  0  0  0  0  0  0  0  0  0
  142.9030  157.5760  134.2390 C   0  0  0  0  0  0  0  0  0  0  0  0
  142.5140  158.9290  134.0760 C   0  0  0  0  0  0  0  0  0  0  0  0
  143.4510  159.9120  133.7240 C   0  0  0  0  0  0  0  0  0  0  0  0
  144.7680  159.5170  133.5260 C   0  0  0  0  0  0  0  0  0  0  0  0
  145.8770  160.2680  133.2130 C   0  0  0  0  0  0  0  0  0  0  0  0
  146.9300  159.3600  133.1520 C   0  0  0  0  0  0  0  0  0  0  0  0
  148.3090  159.7400  132.7840 C   0  0  0  0  0  0  0  0  0  0  0  0
  149.4320  158.9810  133.2350 N   0  0  0  0  0  0  0  0  0  0  0  0
  148.4950  160.7170  132.0120 O   0  0  0  0  0  0  0  0  0  0  0  0
  146.4950  158.0980  133.4270 N   0  0  0  0  0  0  0  0  0  0  0  0
  147.2940  156.9100  133.5730 C   0  0  0  0  0  0  0  0  0  0  0  0
  148.1170  156.5850  132.6770 O   0  0  0  0  0  0  0  0  0  0  0  0
  147.1640  156.1070  134.6990 O   0  0  0  0  0  0  0  0  0  0  0  0
  145.1660  158.2110  133.6510 C   0  0  0  0  0  0  0  0  0  0  0  0
  144.2570  157.2120  134.0230 C   0  0  0  0  0  0  0  0  0  0  0  0
  138.1403  158.8561  132.9459 H   0  0  0  0  0  0  0  0  0  0  0  0
  139.5724  158.8663  131.8616 H   0  0  0  0  0  0  0  0  0  0  0  0
  138.4558  157.4592  131.8616 H   0  0  0  0  0  0  0  0  0  0  0  0
  139.8165  157.5562  135.6512 H   0  0  0  0  0  0  0  0  0  0  0  0
  138.9252  158.9498  134.9510 H   0  0  0  0  0  0  0  0  0  0  0  0
  138.1799  157.3154  134.9510 H   0  0  0  0  0  0  0  0  0  0  0  0
  139.1112  155.6042  133.9081 H   0  0  0  0  0  0  0  0  0  0  0  0
  139.6968  155.9332  132.2368 H   0  0  0  0  0  0  0  0  0  0  0  0
  141.1846  154.6838  134.1891 H   0  0  0  0  0  0  0  0  0  0  0  0
  141.8752  155.6009  132.7884 H   0  0  0  0  0  0  0  0  0  0  0  0
  141.6090  156.5690  135.6210 H   0  0  0  0  0  0  0  0  0  0  0  0
  141.4621  159.2125  134.2277 H   0  0  0  0  0  0  0  0  0  0  0  0
  143.1517  160.9642  133.6082 H   0  0  0  0  0  0  0  0  0  0  0  0
  145.9220  161.3544  133.0464 H   0  0  0  0  0  0  0  0  0  0  0  0
  150.4010  159.2910  133.0010 H   0  0  0  0  0  0  0  0  0  0  0  0
  149.3030  158.0680  133.7250 H   0  0  0  0  0  0  0  0  0  0  0  0
  144.5856  156.1693  134.1448 H   0  0  0  0  0  0  0  0  0  0  0  0
  1  2  1  0
  2  3  1  0
  2  4  1  0
  4  5  1  0
  5  6  1  0
  6  7  1  0
  7  8  2  0
  8  9  1  0
  9 10  2  0
 10 11  1  0
 11 12  2  0
 12 13  1  0
 13 14  1  0
 13 15  2  0
 12 16  1  0
 16 17  1  0
 17 18  2  0
 17 19  1  0
 16 20  1  0
 20 21  2  0
 21  7  1  0
 20 10  1  0
  1 22  1  0
  1 23  1  0
  1 24  1  0
  3 25  1  0
  3 26  1  0
  3 27  1  0
  4 28  1  0
  4 29  1  0
  5 30  1  0
  5 31  1  0
  6 32  1  0
  8 33  1  0
  9 34  1  0
 11 35  1  0
 14 36  1  0
 14 37  1  0
 21 38  1  0
M  CHG  1  19  -1
M  END
>  <UniqueID>  (62) 
61

>  <SMILES>  (62) 
CN(C)CCNc1ccc2cc(C(N)=O)n(C(=O)[O-])c2c1

>  <Energy>  (62) 
77.3027310187415

>  <Genealogy>  (62) 
CN(C)CCNc1ccc2cc(C(N)=O)n(C(=O)[O-])c2c1 (protonated)
CN(C)CCNc1ccc2cc(C(N)=O)n(C(=O)[O-])c2c1 (3D coordinates assigned)
CN(C)CCNc1ccc2cc(C(N)=O)n(C(=O)[O-])c2c1 (optimized conformer: 77.3027310187415 kcal/mol)

>  <smiles>  (62) 
CN(C)CCNc1ccc2cc(C(N)=O)n(C(=O)O)c2c1

>  <score_type>  (62) 
oracle

>  <origin>  (62) 
adg

>  <m_score__min__energy>  (62) 
-6.5899999999999999

>  <m_primary>  (62) 
energy

$$$$
62:0
     RDKit          3D

 37 38  0  0  0  0  0  0  0  0999 V2000
  140.5280  159.3850  132.3970 C   0  0  0  0  0  0  0  0  0  0  0  0
  140.0390  159.3070  133.7300 O   0  0  0  0  0  0  0  0  0  0  0  0
  140.8840  159.1760  134.8370 C   0  0  0  0  0  0  0  0  0  0  0  0
  140.9950  160.1120  135.6740 O   0  0  0  0  0  0  0  0  0  0  0  0
  141.6930  157.9260  135.0040 C   0  0  2  0  0  0  0  0  0  0  0  0
  141.4310  157.3250  136.3860 C   0  0  0  0  0  0  0  0  0  0  0  0
  143.0740  158.2510  134.8590 O   0  0  0  0  0  0  0  0  0  0  0  0
  143.7380  158.2990  133.6280 C   0  0  0  0  0  0  0  0  0  0  0  0
  143.2200  157.7770  132.6030 O   0  0  0  0  0  0  0  0  0  0  0  0
  145.0270  158.9260  133.5400 N   0  0  0  0  0  0  0  0  0  0  0  0
  145.3150  160.2580  133.5450 C   0  0  0  0  0  0  0  0  0  0  0  0
  144.3590  161.3540  133.8050 C   0  0  0  0  0  0  0  0  0  0  0  0
  142.9520  161.1350  133.7310 N   0  0  0  0  0  0  0  0  0  0  0  0
  144.7890  162.4890  134.1450 O   0  0  0  0  0  0  0  0  0  0  0  0
  146.6800  160.4630  133.3510 C   0  0  0  0  0  0  0  0  0  0  0  0
  147.2260  159.2050  133.2390 C   0  0  0  0  0  0  0  0  0  0  0  0
  148.5450  158.8180  133.0270 C   0  0  0  0  0  0  0  0  0  0  0  0
  148.8200  157.4440  132.9220 C   0  0  0  0  0  0  0  0  0  0  0  0
  147.7780  156.4890  133.0250 C   0  0  0  0  0  0  0  0  0  0  0  0
  148.0910  155.0260  132.8950 C   0  0  0  0  0  0  0  0  0  0  0  0
  147.9340  154.4040  134.1200 F   0  0  0  0  0  0  0  0  0  0  0  0
  149.3960  154.8660  132.4650 F   0  0  0  0  0  0  0  0  0  0  0  0
  146.4490  156.9200  133.2370 C   0  0  0  0  0  0  0  0  0  0  0  0
  146.2080  158.2940  133.3560 C   0  0  0  0  0  0  0  0  0  0  0  0
  141.6141  159.5582  132.4144 H   0  0  0  0  0  0  0  0  0  0  0  0
  140.3155  158.4416  131.8727 H   0  0  0  0  0  0  0  0  0  0  0  0
  140.0326  160.2155  131.8727 H   0  0  0  0  0  0  0  0  0  0  0  0
  141.4088  157.1863  134.2410 H   0  0  0  0  0  0  0  0  0  0  0  0
  141.7426  158.0399  137.1618 H   0  0  0  0  0  0  0  0  0  0  0  0
  140.3577  157.1104  136.4950 H   0  0  0  0  0  0  0  0  0  0  0  0
  142.0043  156.3926  136.4950 H   0  0  0  0  0  0  0  0  0  0  0  0
  142.5250  160.2560  134.0980 H   0  0  0  0  0  0  0  0  0  0  0  0
  147.2086  161.4262  133.2986 H   0  0  0  0  0  0  0  0  0  0  0  0
  149.3484  159.5648  132.9440 H   0  0  0  0  0  0  0  0  0  0  0  0
  149.8540  157.1064  132.7583 H   0  0  0  0  0  0  0  0  0  0  0  0
  147.4043  154.5743  132.1639 H   0  0  0  0  0  0  0  0  0  0  0  0
  145.6250  156.1946  133.3067 H   0  0  0  0  0  0  0  0  0  0  0  0
  1  2  1  0
  2  3  1  0
  3  4  2  0
  3  5  1  0
  5  6  1  0
  5  7  1  0
  7  8  1  0
  8  9  2  0
  8 10  1  0
 10 11  1  0
 11 12  1  0
 12 13  1  0
 12 14  2  0
 11 15  2  0
 15 16  1  0
 16 17  2  0
 17 18  1  0
 18 19  2  0
 19 20  1  0
 20 21  1  0
 20 22  1  0
 19 23  1  0
 23 24  2  0
 24 10  1  0
 24 16  1  0
  1 25  1  0
  1 26  1  0
  1 27  1  0
  5 28  1  6
  6 29  1  0
  6 30  1  0
  6 31  1  0
 13 32  1  0
 15 33  1  0
 17 34  1  0
 18 35  1  0
 20 36  1  0
 23 37  1  0
M  CHG  1  13  -1
M  END
>  <UniqueID>  (63) 
62

>  <SMILES>  (63) 
COC(=O)[C@H](C)OC(=O)n1c(C([NH-])=O)cc2ccc(C(F)F)cc21

>  <Energy>  (63) 
68.81421744422425

>  <Genealogy>  (63) 
COC(=O)C(C)OC(=O)n1c(C([NH-])=O)cc2ccc(C(F)F)cc21 (protonated)
COC(=O)[C@H](C)OC(=O)n1c(C([NH-])=O)cc2ccc(C(F)F)cc21 (chirality)
COC(=O)[C@H](C)OC(=O)n1c(C([NH-])=O)cc2ccc(C(F)F)cc21 (3D coordinates assigned)
COC(=O)[C@H](C)OC(=O)n1c(C([NH-])=O)cc2ccc(C(F)F)cc21 (optimized conformer: 68.81421744422425 kcal/mol)

>  <smiles>  (63) 
COC(=O)C(C)OC(=O)n1c(C(N)=O)cc2ccc(C(F)F)cc21

>  <score_type>  (63) 
oracle

>  <origin>  (63) 
adg

>  <m_score__min__energy>  (63) 
-5.6100000000000003

>  <m_primary>  (63) 
energy

$$$$
63:0
     RDKit          3D

 44 46  0  0  0  0  0  0  0  0999 V2000
  145.7640  151.2320  139.7470 C   0  0  0  0  0  0  0  0  0  0  0  0
  146.1530  152.6910  138.8050 S   0  0  0  0  0  0  0  0  0  0  0  0
  146.7890  153.7090  139.7130 O   0  0  0  0  0  0  0  0  0  0  0  0
  144.8840  153.2520  138.2160 O   0  0  0  0  0  0  0  0  0  0  0  0
  147.2500  152.2580  137.5330 N   0  0  0  0  0  0  0  0  0  0  0  0
  148.4550  152.9700  137.2310 C   0  0  0  0  0  0  0  0  0  0  0  0
  149.5320  152.3230  137.1470 O   0  0  0  0  0  0  0  0  0  0  0  0
  148.4450  154.4560  136.9550 C   0  0  0  0  0  0  0  0  0  0  0  0
  147.2750  154.8430  136.2340 O   0  0  0  0  0  0  0  0  0  0  0  0
  147.2740  155.1300  134.8620 C   0  0  0  0  0  0  0  0  0  0  0  0
  148.0320  154.4770  134.0900 O   0  0  0  0  0  0  0  0  0  0  0  0
  146.4420  156.1930  134.3440 N   0  0  0  0  0  0  0  0  0  0  0  0
  145.0850  156.3010  134.4580 C   0  0  0  0  0  0  0  0  0  0  0  0
  144.1700  155.2580  134.9520 C   0  0  0  0  0  0  0  0  0  0  0  0
  144.3760  154.6600  136.2320 N   0  0  0  0  0  0  0  0  0  0  0  0
  143.2430  154.8390  134.2060 O   0  0  0  0  0  0  0  0  0  0  0  0
  144.6350  157.5270  133.9860 C   0  0  0  0  0  0  0  0  0  0  0  0
  145.7580  158.1710  133.5320 C   0  0  0  0  0  0  0  0  0  0  0  0
  145.8760  159.4080  132.9070 C   0  0  0  0  0  0  0  0  0  0  0  0
  147.1520  159.8220  132.4910 C   0  0  0  0  0  0  0  0  0  0  0  0
  148.2850  158.9950  132.7060 C   0  0  0  0  0  0  0  0  0  0  0  0
  149.5970  159.3970  132.2670 N   0  0  0  0  0  0  0  0  0  0  0  0
  149.9120  159.7050  130.8740 C   0  0  0  0  0  0  0  0  0  0  0  0
  148.6900  159.8310  129.9780 C   0  0  0  0  0  0  0  0  0  0  0  0
  149.4250  161.0800  130.4390 C   0  0  0  0  0  0  0  0  0  0  0  0
  148.1250  157.7470  133.3510 C   0  0  0  0  0  0  0  0  0  0  0  0
  146.8380  157.3520  133.7540 C   0  0  0  0  0  0  0  0  0  0  0  0
  145.8253  151.4618  140.8210 H   0  0  0  0  0  0  0  0  0  0  0  0
  144.7453  150.8976  139.5011 H   0  0  0  0  0  0  0  0  0  0  0  0
  146.4810  150.4348  139.5011 H   0  0  0  0  0  0  0  0  0  0  0  0
  148.4717  154.9981  137.9118 H   0  0  0  0  0  0  0  0  0  0  0  0
  149.3259  154.7010  136.3435 H   0  0  0  0  0  0  0  0  0  0  0  0
  145.2060  154.9020  136.8150 H   0  0  0  0  0  0  0  0  0  0  0  0
  143.6810  153.9710  136.5950 H   0  0  0  0  0  0  0  0  0  0  0  0
  143.6006  157.9012  133.9779 H   0  0  0  0  0  0  0  0  0  0  0  0
  144.9941  160.0446  132.7430 H   0  0  0  0  0  0  0  0  0  0  0  0
  147.2742  160.7958  131.9942 H   0  0  0  0  0  0  0  0  0  0  0  0
  150.3580  159.4970  132.9780 H   0  0  0  0  0  0  0  0  0  0  0  0
  150.8627  159.1546  130.8183 H   0  0  0  0  0  0  0  0  0  0  0  0
  148.7456  159.5175  128.9251 H   0  0  0  0  0  0  0  0  0  0  0  0
  147.6493  159.4782  130.0284 H   0  0  0  0  0  0  0  0  0  0  0  0
  150.0125  161.6696  129.7198 H   0  0  0  0  0  0  0  0  0  0  0  0
  149.1367  162.0044  130.9610 H   0  0  0  0  0  0  0  0  0  0  0  0
  148.9929  157.0965  133.5342 H   0  0  0  0  0  0  0  0  0  0  0  0
  1  2  1  0
  2  3  2  0
  2  4  2  0
  2  5  1  0
  5  6  1  0
  6  7  2  0
  6  8  1  0
  8  9  1  0
  9 10  1  0
 10 11  2  0
 10 12  1  0
 12 13  1  0
 13 14  1  0
 14 15  1  0
 14 16  2  0
 13 17  2  0
 17 18  1  0
 18 19  2  0
 19 20  1  0
 20 21  2  0
 21 22  1  0
 22 23  1  0
 23 24  1  0
 24 25  1  0
 21 26  1  0
 26 27  2  0
 27 12  1  0
 27 18  1  0
 25 23  1  0
  1 28  1  0
  1 29  1  0
  1 30  1  0
  8 31  1  0
  8 32  1  0
 15 33  1  0
 15 34  1  0
 17 35  1  0
 19 36  1  0
 20 37  1  0
 22 38  1  0
 23 39  1  0
 24 40  1  0
 24 41  1  0
 25 42  1  0
 25 43  1  0
 26 44  1  0
M  CHG  1   5  -1
M  END
>  <UniqueID>  (64) 
63

>  <SMILES>  (64) 
CS(=O)(=O)[N-]C(=O)COC(=O)n1c(C(N)=O)cc2ccc(NC3CC3)cc21

>  <Energy>  (64) 
346.99006806299894

>  <Genealogy>  (64) 
CS(=O)(=O)[N-]C(=O)COC(=O)n1c(C(N)=O)cc2ccc(NC3CC3)cc21 (protonated)
CS(=O)(=O)[N-]C(=O)COC(=O)n1c(C(N)=O)cc2ccc(NC3CC3)cc21 (3D coordinates assigned)
CS(=O)(=O)[N-]C(=O)COC(=O)n1c(C(N)=O)cc2ccc(NC3CC3)cc21 (nonaromatic ring conformer: 346.99006806299894 kcal/mol)

>  <smiles>  (64) 
CS(=O)(=O)NC(=O)COC(=O)n1c(C(N)=O)cc2ccc(NC3CC3)cc21

>  <score_type>  (64) 
oracle

>  <origin>  (64) 
adg

>  <m_score__min__energy>  (64) 
-8.4600000000000009

>  <m_primary>  (64) 
energy

$$$$
64:0
     RDKit          3D

 39 40  0  0  0  0  0  0  0  0999 V2000
  138.8410  148.8980  130.6220 C   0  0  0  0  0  0  0  0  0  0  0  0
  139.0010  149.9440  131.4310 C   0  0  0  0  0  0  0  0  0  0  0  0
  140.1550  150.1060  132.3380 C   0  0  0  0  0  0  0  0  0  0  0  0
  140.4330  149.1640  133.1280 O   0  0  0  0  0  0  0  0  0  0  0  0
  140.9450  151.3060  132.3550 N   0  0  0  0  0  0  0  0  0  0  0  0
  142.2150  151.3630  133.0780 C   0  0  0  0  0  0  0  0  0  0  0  0
  142.8550  152.7510  132.9700 C   0  0  0  0  0  0  0  0  0  0  0  0
  141.9460  153.6900  132.3960 O   0  0  0  0  0  0  0  0  0  0  0  0
  140.8770  154.2580  133.0980 C   0  0  0  0  0  0  0  0  0  0  0  0
  139.7180  153.7700  133.0030 O   0  0  0  0  0  0  0  0  0  0  0  0
  141.1080  155.3860  133.9530 N   0  0  0  0  0  0  0  0  0  0  0  0
  141.6610  155.3870  135.2000 C   0  0  0  0  0  0  0  0  0  0  0  0
  142.3070  154.2360  135.8630 C   0  0  0  0  0  0  0  0  0  0  0  0
  143.5520  154.3840  136.5420 N   0  0  0  0  0  0  0  0  0  0  0  0
  141.7320  153.1150  135.8690 O   0  0  0  0  0  0  0  0  0  0  0  0
  141.6050  156.6630  135.7570 C   0  0  0  0  0  0  0  0  0  0  0  0
  140.9970  157.4500  134.8060 C   0  0  0  0  0  0  0  0  0  0  0  0
  140.6780  158.8030  134.8340 C   0  0  0  0  0  0  0  0  0  0  0  0
  140.0210  159.3490  133.7190 C   0  0  0  0  0  0  0  0  0  0  0  0
  139.6700  158.5340  132.6120 C   0  0  0  0  0  0  0  0  0  0  0  0
  138.9950  159.1370  131.4060 C   0  0  0  0  0  0  0  0  0  0  0  0
  138.0150  158.2910  130.9180 F   0  0  0  0  0  0  0  0  0  0  0  0
  139.9130  159.3640  130.3960 F   0  0  0  0  0  0  0  0  0  0  0  0
  138.4150  160.3400  131.7650 F   0  0  0  0  0  0  0  0  0  0  0  0
  140.0340  157.1670  132.6110 C   0  0  0  0  0  0  0  0  0  0  0  0
  140.7050  156.6560  133.7280 C   0  0  0  0  0  0  0  0  0  0  0  0
  137.9573  148.8373  129.9697 H   0  0  0  0  0  0  0  0  0  0  0  0
  139.5925  148.0949  130.6062 H   0  0  0  0  0  0  0  0  0  0  0  0
  138.2315  150.7300  131.4230 H   0  0  0  0  0  0  0  0  0  0  0  0
  140.5960  152.1600  131.8660 H   0  0  0  0  0  0  0  0  0  0  0  0
  142.0343  151.1332  134.1384 H   0  0  0  0  0  0  0  0  0  0  0  0
  142.9017  150.6283  132.6323 H   0  0  0  0  0  0  0  0  0  0  0  0
  143.1403  153.0948  133.9752 H   0  0  0  0  0  0  0  0  0  0  0  0
  143.7406  152.6791  132.3216 H   0  0  0  0  0  0  0  0  0  0  0  0
  143.6140  154.9130  137.4400 H   0  0  0  0  0  0  0  0  0  0  0  0
  141.9695  156.9750  136.7469 H   0  0  0  0  0  0  0  0  0  0  0  0
  140.9325  159.4271  135.7033 H   0  0  0  0  0  0  0  0  0  0  0  0
  139.7757  160.4212  133.7039 H   0  0  0  0  0  0  0  0  0  0  0  0
  139.7955  156.5212  131.7531 H   0  0  0  0  0  0  0  0  0  0  0  0
  1  2  2  0
  2  3  1  0
  3  4  2  0
  3  5  1  0
  5  6  1  0
  6  7  1  0
  7  8  1  0
  8  9  1  0
  9 10  2  0
  9 11  1  0
 11 12  1  0
 12 13  1  0
 13 14  1  0
 13 15  2  0
 12 16  2  0
 16 17  1  0
 17 18  2  0
 18 19  1  0
 19 20  2  0
 20 21  1  0
 21 22  1  0
 21 23  1  0
 21 24  1  0
 20 25  1  0
 25 26  2  0
 26 11  1  0
 26 17  1  0
  1 27  1  0
  1 28  1  0
  2 29  1  0
  5 30  1  0
  6 31  1  0
  6 32  1  0
  7 33  1  0
  7 34  1  0
 14 35  1  0
 16 36  1  0
 18 37  1  0
 19 38  1  0
 25 39  1  0
M  CHG  1  14  -1
M  END
>  <UniqueID>  (65) 
64

>  <SMILES>  (65) 
C=CC(=O)NCCOC(=O)n1c(C([NH-])=O)cc2ccc(C(F)(F)F)cc21

>  <Energy>  (65) 
72.98933923244797

>  <Genealogy>  (65) 
C=CC(=O)NCCOC(=O)n1c(C([NH-])=O)cc2ccc(C(F)(F)F)cc21 (protonated)
C=CC(=O)NCCOC(=O)n1c(C([NH-])=O)cc2ccc(C(F)(F)F)cc21 (3D coordinates assigned)
C=CC(=O)NCCOC(=O)n1c(C([NH-])=O)cc2ccc(C(F)(F)F)cc21 (optimized conformer: 72.98933923244797 kcal/mol)

>  <smiles>  (65) 
C=CC(=O)NCCOC(=O)n1c(C(N)=O)cc2ccc(C(F)(F)F)cc21

>  <score_type>  (65) 
oracle

>  <origin>  (65) 
adg

>  <m_score__min__energy>  (65) 
-6.46

>  <m_primary>  (65) 
energy

$$$$
65:0
     RDKit          3D

 51 52  0  0  0  0  0  0  0  0999 V2000
  142.0320  156.1750  139.5150 C   0  0  0  0  0  0  0  0  0  0  0  0
  141.0480  155.7550  138.3990 C   0  0  0  0  0  0  0  0  0  0  0  0
  141.8150  154.8740  137.3970 C   0  0  0  0  0  0  0  0  0  0  0  0
  139.8910  154.9080  138.9870 C   0  0  0  0  0  0  0  0  0  0  0  0
  140.5950  156.8910  137.6640 O   0  0  0  0  0  0  0  0  0  0  0  0
  141.3950  158.0500  137.8280 C   0  0  0  0  0  0  0  0  0  0  0  0
  141.3350  158.8790  136.5800 C   0  0  0  0  0  0  0  0  0  0  0  0
  140.6150  159.9140  136.5560 O   0  0  0  0  0  0  0  0  0  0  0  0
  142.0460  158.4610  135.3560 C   0  0  0  0  0  0  0  0  0  0  0  0
  142.9870  159.1670  134.9070 O   0  0  0  0  0  0  0  0  0  0  0  0
  141.6950  157.2400  134.6830 N   0  0  0  0  0  0  0  0  0  0  0  0
  140.4600  156.8290  134.2780 C   0  0  0  0  0  0  0  0  0  0  0  0
  139.2200  157.6310  134.3250 C   0  0  0  0  0  0  0  0  0  0  0  0
  138.7290  158.1710  135.5540 N   0  0  0  0  0  0  0  0  0  0  0  0
  138.6040  157.8800  133.2550 O   0  0  0  0  0  0  0  0  0  0  0  0
  140.5210  155.5380  133.7590 C   0  0  0  0  0  0  0  0  0  0  0  0
  141.8460  155.1760  133.8440 C   0  0  0  0  0  0  0  0  0  0  0  0
  142.4740  153.9900  133.4840 C   0  0  0  0  0  0  0  0  0  0  0  0
  143.8540  153.8740  133.7150 C   0  0  0  0  0  0  0  0  0  0  0  0
  144.5980  154.9430  134.3020 C   0  0  0  0  0  0  0  0  0  0  0  0
  146.1040  154.8390  134.6090 C   0  0  0  0  0  0  0  0  0  0  0  0
  146.7150  153.7460  133.7070 C   0  0  0  0  0  0  0  0  0  0  0  0
  146.8670  156.1600  134.3620 C   0  0  0  0  0  0  0  0  0  0  0  0
  146.2990  154.4640  136.0670 C   0  0  0  0  0  0  0  0  0  0  0  0
  146.6780  153.3450  136.3800 O   0  0  0  0  0  0  0  0  0  0  0  0
  143.9030  156.1290  134.6610 C   0  0  0  0  0  0  0  0  0  0  0  0
  142.5320  156.2180  134.4040 C   0  0  0  0  0  0  0  0  0  0  0  0
  141.5768  155.9807  140.4974 H   0  0  0  0  0  0  0  0  0  0  0  0
  142.9622  155.5955  139.4208 H   0  0  0  0  0  0  0  0  0  0  0  0
  142.2571  157.2476  139.4208 H   0  0  0  0  0  0  0  0  0  0  0  0
  142.4411  154.1548  137.9454 H   0  0  0  0  0  0  0  0  0  0  0  0
  141.0987  154.3290  136.7647 H   0  0  0  0  0  0  0  0  0  0  0  0
  142.4535  155.5085  136.7647 H   0  0  0  0  0  0  0  0  0  0  0  0
  139.9348  154.9400  140.0857 H   0  0  0  0  0  0  0  0  0  0  0  0
  138.9280  155.3161  138.6463 H   0  0  0  0  0  0  0  0  0  0  0  0
  139.9891  153.8667  138.6463 H   0  0  0  0  0  0  0  0  0  0  0  0
  141.0183  158.6384  138.6776 H   0  0  0  0  0  0  0  0  0  0  0  0
  142.4363  157.7527  138.0212 H   0  0  0  0  0  0  0  0  0  0  0  0
  139.3050  158.1480  136.4240 H   0  0  0  0  0  0  0  0  0  0  0  0
  137.8190  158.6830  135.5740 H   0  0  0  0  0  0  0  0  0  0  0  0
  139.6884  154.9365  133.3654 H   0  0  0  0  0  0  0  0  0  0  0  0
  141.9056  153.1646  133.0305 H   0  0  0  0  0  0  0  0  0  0  0  0
  144.3716  152.9434  133.4391 H   0  0  0  0  0  0  0  0  0  0  0  0
  147.1559  152.9572  134.3342 H   0  0  0  0  0  0  0  0  0  0  0  0
  145.9283  153.3126  133.0719 H   0  0  0  0  0  0  0  0  0  0  0  0
  147.4963  154.1891  133.0719 H   0  0  0  0  0  0  0  0  0  0  0  0
  147.1309  156.6170  135.3272 H   0  0  0  0  0  0  0  0  0  0  0  0
  147.7843  155.9525  133.7915 H   0  0  0  0  0  0  0  0  0  0  0  0
  146.2289  156.8509  133.7915 H   0  0  0  0  0  0  0  0  0  0  0  0
  146.0968  155.2084  136.8512 H   0  0  0  0  0  0  0  0  0  0  0  0
  144.4367  156.9660  135.1349 H   0  0  0  0  0  0  0  0  0  0  0  0
  1  2  1  0
  2  3  1  0
  2  4  1  0
  2  5  1  0
  5  6  1  0
  6  7  1  0
  7  8  2  0
  7  9  1  0
  9 10  2  0
  9 11  1  0
 11 12  1  0
 12 13  1  0
 13 14  1  0
 13 15  2  0
 12 16  2  0
 16 17  1  0
 17 18  2  0
 18 19  1  0
 19 20  2  0
 20 21  1  0
 21 22  1  0
 21 23  1  0
 21 24  1  0
 24 25  2  0
 20 26  1  0
 26 27  2  0
 27 11  1  0
 27 17  1  0
  1 28  1  0
  1 29  1  0
  1 30  1  0
  3 31  1  0
  3 32  1  0
  3 33  1  0
  4 34  1  0
  4 35  1  0
  4 36  1  0
  6 37  1  0
  6 38  1  0
 14 39  1  0
 14 40  1  0
 16 41  1  0
 18 42  1  0
 19 43  1  0
 22 44  1  0
 22 45  1  0
 22 46  1  0
 23 47  1  0
 23 48  1  0
 23 49  1  0
 24 50  1  0
 26 51  1  0
M  END
>  <UniqueID>  (66) 
65

>  <SMILES>  (66) 
CC(C)(C)OCC(=O)C(=O)n1c(C(N)=O)cc2ccc(C(C)(C)C=O)cc21

>  <Energy>  (66) 
95.4745508186909

>  <Genealogy>  (66) 
CC(C)(C)OCC(=O)C(=O)n1c(C(N)=O)cc2ccc(C(C)(C)C=O)cc21 (3D coordinates assigned)
CC(C)(C)OCC(=O)C(=O)n1c(C(N)=O)cc2ccc(C(C)(C)C=O)cc21 (optimized conformer: 95.4745508186909 kcal/mol)

>  <smiles>  (66) 
CC(C)(C)OCC(=O)C(=O)n1c(C(N)=O)cc2ccc(C(C)(C)C=O)cc21

>  <score_type>  (66) 
oracle

>  <origin>  (66) 
adg

>  <m_score__min__energy>  (66) 
-7.8799999999999999

>  <m_primary>  (66) 
energy

$$$$
66:0
     RDKit          3D

 44 46  0  0  0  0  0  0  0  0999 V2000
  139.5480  158.9720  132.4100 C   0  0  0  0  0  0  0  0  0  0  0  0
  139.1210  157.8700  133.3660 C   0  0  0  0  0  0  0  0  0  0  0  0
  139.4870  158.2270  134.6940 O   0  0  0  0  0  0  0  0  0  0  0  0
  140.7730  158.6560  135.0360 C   0  0  0  0  0  0  0  0  0  0  0  0
  141.0040  159.8710  135.2830 O   0  0  0  0  0  0  0  0  0  0  0  0
  141.8870  157.6630  135.0720 C   0  0  0  0  0  0  0  0  0  0  0  0
  143.1210  158.3390  134.8660 O   0  0  0  0  0  0  0  0  0  0  0  0
  143.7860  158.3490  133.6370 C   0  0  0  0  0  0  0  0  0  0  0  0
  143.2280  157.8780  132.6080 O   0  0  0  0  0  0  0  0  0  0  0  0
  145.1060  158.9100  133.5470 N   0  0  0  0  0  0  0  0  0  0  0  0
  145.4460  160.2300  133.5310 C   0  0  0  0  0  0  0  0  0  0  0  0
  144.5340  161.3660  133.7830 C   0  0  0  0  0  0  0  0  0  0  0  0
  143.1200  161.1990  133.7220 N   0  0  0  0  0  0  0  0  0  0  0  0
  145.0090  162.4870  134.1070 O   0  0  0  0  0  0  0  0  0  0  0  0
  146.8130  160.3800  133.3150 C   0  0  0  0  0  0  0  0  0  0  0  0
  147.3080  159.1010  133.2070 C   0  0  0  0  0  0  0  0  0  0  0  0
  148.6060  158.6630  132.9770 C   0  0  0  0  0  0  0  0  0  0  0  0
  148.8280  157.2790  132.8780 C   0  0  0  0  0  0  0  0  0  0  0  0
  147.7550  156.3580  133.0030 C   0  0  0  0  0  0  0  0  0  0  0  0
  148.0000  154.8980  132.8830 C   0  0  0  0  0  0  0  0  0  0  0  0
  147.0890  153.8640  133.0570 C   0  0  0  0  0  0  0  0  0  0  0  0
  147.7080  152.6820  132.8730 N   0  0  0  0  0  0  0  0  0  0  0  0
  148.9720  152.9350  132.5770 N   0  0  0  0  0  0  0  0  0  0  0  0
  149.9810  151.9050  132.3750 C   0  0  0  0  0  0  0  0  0  0  0  0
  149.1930  154.2620  132.5850 C   0  0  0  0  0  0  0  0  0  0  0  0
  146.4460  156.8480  133.2350 C   0  0  0  0  0  0  0  0  0  0  0  0
  146.2590  158.2320  133.3490 C   0  0  0  0  0  0  0  0  0  0  0  0
  139.8867  159.8460  132.9857 H   0  0  0  0  0  0  0  0  0  0  0  0
  140.3707  158.6092  131.7762 H   0  0  0  0  0  0  0  0  0  0  0  0
  138.6957  159.2582  131.7762 H   0  0  0  0  0  0  0  0  0  0  0  0
  138.0305  157.7372  133.3092 H   0  0  0  0  0  0  0  0  0  0  0  0
  139.6194  156.9296  133.0882 H   0  0  0  0  0  0  0  0  0  0  0  0
  141.9012  157.1609  136.0506 H   0  0  0  0  0  0  0  0  0  0  0  0
  141.7396  156.9125  134.2814 H   0  0  0  0  0  0  0  0  0  0  0  0
  142.6760  160.2860  133.9660 H   0  0  0  0  0  0  0  0  0  0  0  0
  147.3776  161.3215  133.2454 H   0  0  0  0  0  0  0  0  0  0  0  0
  149.4355  159.3783  132.8754 H   0  0  0  0  0  0  0  0  0  0  0  0
  149.8470  156.9042  132.7013 H   0  0  0  0  0  0  0  0  0  0  0  0
  146.0253  153.9910  133.3068 H   0  0  0  0  0  0  0  0  0  0  0  0
  150.3358  151.5428  133.3512 H   0  0  0  0  0  0  0  0  0  0  0  0
  149.5432  151.0685  131.8106 H   0  0  0  0  0  0  0  0  0  0  0  0
  150.8264  152.3255  131.8106 H   0  0  0  0  0  0  0  0  0  0  0  0
  150.1558  154.7565  132.3886 H   0  0  0  0  0  0  0  0  0  0  0  0
  145.5949  156.1569  133.3237 H   0  0  0  0  0  0  0  0  0  0  0  0
  1  2  1  0
  2  3  1  0
  3  4  1  0
  4  5  2  0
  4  6  1  0
  6  7  1  0
  7  8  1  0
  8  9  2  0
  8 10  1  0
 10 11  1  0
 11 12  1  0
 12 13  1  0
 12 14  2  0
 11 15  2  0
 15 16  1  0
 16 17  2  0
 17 18  1  0
 18 19  2  0
 19 20  1  0
 20 21  1  0
 21 22  2  0
 22 23  1  0
 23 24  1  0
 23 25  1  0
 19 26  1  0
 26 27  2  0
 27 10  1  0
 27 16  1  0
 25 20  2  0
  1 28  1  0
  1 29  1  0
  1 30  1  0
  2 31  1  0
  2 32  1  0
  6 33  1  0
  6 34  1  0
 13 35  1  0
 15 36  1  0
 17 37  1  0
 18 38  1  0
 21 39  1  0
 24 40  1  0
 24 41  1  0
 24 42  1  0
 25 43  1  0
 26 44  1  0
M  CHG  1  13  -1
M  END
>  <UniqueID>  (67) 
66

>  <SMILES>  (67) 
CCOC(=O)COC(=O)n1c(C([NH-])=O)cc2ccc(-c3cnn(C)c3)cc21

>  <Energy>  (67) 
107.41873886272211

>  <Genealogy>  (67) 
CCOC(=O)COC(=O)n1c(C([NH-])=O)cc2ccc(-c3cnn(C)c3)cc21 (protonated)
CCOC(=O)COC(=O)n1c(C([NH-])=O)cc2ccc(-c3cnn(C)c3)cc21 (3D coordinates assigned)
CCOC(=O)COC(=O)n1c(C([NH-])=O)cc2ccc(-c3cnn(C)c3)cc21 (optimized conformer: 107.41873886272211 kcal/mol)

>  <smiles>  (67) 
CCOC(=O)COC(=O)n1c(C(N)=O)cc2ccc(-c3cnn(C)c3)cc21

>  <score_type>  (67) 
oracle

>  <origin>  (67) 
adg

>  <m_score__min__energy>  (67) 
-7.2000000000000002

>  <m_primary>  (67) 
energy

$$$$
67:0
     RDKit          3D

 37 38  0  0  0  0  0  0  0  0999 V2000
  140.6140  157.1370  137.5840 C   0  0  0  0  0  0  0  0  0  0  0  0
  140.2510  158.1830  136.5860 C   0  0  0  0  0  0  0  0  0  0  0  0
  140.7700  159.3290  136.6660 O   0  0  0  0  0  0  0  0  0  0  0  0
  139.3090  157.8900  135.5930 O   0  0  0  0  0  0  0  0  0  0  0  0
  139.6280  157.1990  134.3870 C   0  0  0  0  0  0  0  0  0  0  0  0
  140.9770  156.4890  134.5140 C   0  0  0  0  0  0  0  0  0  0  0  0
  142.0420  157.4370  134.5380 O   0  0  0  0  0  0  0  0  0  0  0  0
  142.7560  157.8250  133.3990 C   0  0  0  0  0  0  0  0  0  0  0  0
  142.6250  157.1890  132.3170 O   0  0  0  0  0  0  0  0  0  0  0  0
  143.6180  158.9700  133.4550 N   0  0  0  0  0  0  0  0  0  0  0  0
  143.2710  160.2690  133.6810 C   0  0  0  0  0  0  0  0  0  0  0  0
  141.8950  160.8000  133.7600 C   0  0  0  0  0  0  0  0  0  0  0  0
  140.7720  159.9240  133.8170 N   0  0  0  0  0  0  0  0  0  0  0  0
  141.7030  162.0450  133.7290 O   0  0  0  0  0  0  0  0  0  0  0  0
  144.4070  161.0740  133.7490 C   0  0  0  0  0  0  0  0  0  0  0  0
  145.4690  160.2220  133.5450 C   0  0  0  0  0  0  0  0  0  0  0  0
  146.8360  160.4840  133.5300 C   0  0  0  0  0  0  0  0  0  0  0  0
  147.7120  159.4040  133.3320 C   0  0  0  0  0  0  0  0  0  0  0  0
  147.2110  158.0890  133.1430 C   0  0  0  0  0  0  0  0  0  0  0  0
  148.1630  156.9300  132.9940 C   0  0  0  0  0  0  0  0  0  0  0  0
  148.4700  156.3870  134.2300 F   0  0  0  0  0  0  0  0  0  0  0  0
  147.6040  155.9350  132.2120 F   0  0  0  0  0  0  0  0  0  0  0  0
  149.3280  157.3720  132.3950 F   0  0  0  0  0  0  0  0  0  0  0  0
  145.8160  157.8610  133.1900 C   0  0  0  0  0  0  0  0  0  0  0  0
  144.9670  158.9590  133.3700 C   0  0  0  0  0  0  0  0  0  0  0  0
  140.4756  157.5357  138.5998 H   0  0  0  0  0  0  0  0  0  0  0  0
  139.9686  156.2572  137.4443 H   0  0  0  0  0  0  0  0  0  0  0  0
  141.6656  156.8462  137.4443 H   0  0  0  0  0  0  0  0  0  0  0  0
  138.8456  156.4542  134.1793 H   0  0  0  0  0  0  0  0  0  0  0  0
  139.6870  157.9281  133.5655 H   0  0  0  0  0  0  0  0  0  0  0  0
  140.9919  155.9047  135.4459 H   0  0  0  0  0  0  0  0  0  0  0  0
  141.1119  155.8254  133.6471 H   0  0  0  0  0  0  0  0  0  0  0  0
  140.7280  159.1500  134.5160 H   0  0  0  0  0  0  0  0  0  0  0  0
  144.4465  162.1587  133.9276 H   0  0  0  0  0  0  0  0  0  0  0  0
  147.2187  161.5059  133.6690 H   0  0  0  0  0  0  0  0  0  0  0  0
  148.7980  159.5789  133.3233 H   0  0  0  0  0  0  0  0  0  0  0  0
  145.4079  156.8446  133.0875 H   0  0  0  0  0  0  0  0  0  0  0  0
  1  2  1  0
  2  3  2  0
  2  4  1  0
  4  5  1  0
  5  6  1  0
  6  7  1  0
  7  8  1  0
  8  9  2  0
  8 10  1  0
 10 11  1  0
 11 12  1  0
 12 13  1  0
 12 14  2  0
 11 15  2  0
 15 16  1  0
 16 17  2  0
 17 18  1  0
 18 19  2  0
 19 20  1  0
 20 21  1  0
 20 22  1  0
 20 23  1  0
 19 24  1  0
 24 25  2  0
 25 10  1  0
 25 16  1  0
  1 26  1  0
  1 27  1  0
  1 28  1  0
  5 29  1  0
  5 30  1  0
  6 31  1  0
  6 32  1  0
 13 33  1  0
 15 34  1  0
 17 35  1  0
 18 36  1  0
 24 37  1  0
M  CHG  1  13  -1
M  END
>  <UniqueID>  (68) 
67

>  <SMILES>  (68) 
CC(=O)OCCOC(=O)n1c(C([NH-])=O)cc2ccc(C(F)(F)F)cc21

>  <Energy>  (68) 
70.81870608776762

>  <Genealogy>  (68) 
CC(=O)OCCOC(=O)n1c(C([NH-])=O)cc2ccc(C(F)(F)F)cc21 (protonated)
CC(=O)OCCOC(=O)n1c(C([NH-])=O)cc2ccc(C(F)(F)F)cc21 (3D coordinates assigned)
CC(=O)OCCOC(=O)n1c(C([NH-])=O)cc2ccc(C(F)(F)F)cc21 (optimized conformer: 70.81870608776762 kcal/mol)

>  <smiles>  (68) 
CC(=O)OCCOC(=O)n1c(C(N)=O)cc2ccc(C(F)(F)F)cc21

>  <score_type>  (68) 
oracle

>  <origin>  (68) 
adg

>  <m_score__min__energy>  (68) 
-5.7300000000000004

>  <m_primary>  (68) 
energy

$$$$
68:0
     RDKit          3D

 39 41  0  0  0  0  0  0  0  0999 V2000
  141.1270  159.1350  136.2750 C   0  0  0  0  0  0  0  0  0  0  0  0
  141.9060  159.5320  135.0660 C   0  0  0  0  0  0  0  0  0  0  0  0
  143.2460  159.6310  135.0250 N   0  0  0  0  0  0  0  0  0  0  0  0
  143.4960  159.9780  133.7410 C   0  0  0  0  0  0  0  0  0  0  0  0
  144.8100  160.2580  133.2400 N   0  0  0  0  0  0  0  0  0  0  0  0
  145.8760  159.2940  133.2100 C   0  0  0  0  0  0  0  0  0  0  0  0
  147.2140  159.7480  133.1380 C   0  0  0  0  0  0  0  0  0  0  0  0
  148.2800  158.8350  133.0740 C   0  0  0  0  0  0  0  0  0  0  0  0
  147.9760  157.4770  133.0740 C   0  0  0  0  0  0  0  0  0  0  0  0
  148.8080  156.3860  132.9730 C   0  0  0  0  0  0  0  0  0  0  0  0
  147.9650  155.2790  132.9890 C   0  0  0  0  0  0  0  0  0  0  0  0
  148.4540  153.8850  132.9580 C   0  0  0  0  0  0  0  0  0  0  0  0
  147.7910  152.8530  133.6900 N   0  0  0  0  0  0  0  0  0  0  0  0
  149.5050  153.6130  132.3210 O   0  0  0  0  0  0  0  0  0  0  0  0
  146.6610  155.6660  133.0810 N   0  0  0  0  0  0  0  0  0  0  0  0
  145.4930  154.8330  133.0020 C   0  0  0  0  0  0  0  0  0  0  0  0
  144.6470  155.0280  132.0860 O   0  0  0  0  0  0  0  0  0  0  0  0
  145.3020  153.8170  133.9470 O   0  0  0  0  0  0  0  0  0  0  0  0
  145.1330  154.0160  135.3230 C   0  0  0  0  0  0  0  0  0  0  0  0
  146.0580  153.7530  136.1400 O   0  0  0  0  0  0  0  0  0  0  0  0
  143.8080  154.4870  135.8280 C   0  0  0  0  0  0  0  0  0  0  0  0
  143.6900  154.2350  137.1840 F   0  0  0  0  0  0  0  0  0  0  0  0
  143.6850  155.8460  135.6110 F   0  0  0  0  0  0  0  0  0  0  0  0
  142.8010  153.8230  135.1530 F   0  0  0  0  0  0  0  0  0  0  0  0
  146.6850  157.0170  133.1390 C   0  0  0  0  0  0  0  0  0  0  0  0
  145.6040  157.9070  133.1830 C   0  0  0  0  0  0  0  0  0  0  0  0
  142.3900  160.1070  132.9760 N   0  0  0  0  0  0  0  0  0  0  0  0
  141.3930  159.8100  133.8230 C   0  0  0  0  0  0  0  0  0  0  0  0
  140.0810  159.8010  133.4800 F   0  0  0  0  0  0  0  0  0  0  0  0
  141.6843  159.4190  137.1798 H   0  0  0  0  0  0  0  0  0  0  0  0
  140.1534  159.6469  136.2682 H   0  0  0  0  0  0  0  0  0  0  0  0
  140.9690  158.0464  136.2682 H   0  0  0  0  0  0  0  0  0  0  0  0
  145.0250  161.2440  132.9720 H   0  0  0  0  0  0  0  0  0  0  0  0
  147.4221  160.8281  133.1320 H   0  0  0  0  0  0  0  0  0  0  0  0
  149.3224  159.1828  133.0254 H   0  0  0  0  0  0  0  0  0  0  0  0
  149.9053  156.3883  132.8960 H   0  0  0  0  0  0  0  0  0  0  0  0
  148.1280  151.8670  133.6250 H   0  0  0  0  0  0  0  0  0  0  0  0
  147.0220  153.0750  134.3590 H   0  0  0  0  0  0  0  0  0  0  0  0
  144.5687  157.5356  133.1962 H   0  0  0  0  0  0  0  0  0  0  0  0
  1  2  1  0
  2  3  1  0
  3  4  1  0
  4  5  1  0
  5  6  1  0
  6  7  2  0
  7  8  1  0
  8  9  2  0
  9 10  1  0
 10 11  2  0
 11 12  1  0
 12 13  1  0
 12 14  2  0
 11 15  1  0
 15 16  1  0
 16 17  2  0
 16 18  1  0
 18 19  1  0
 19 20  2  0
 19 21  1  0
 21 22  1  0
 21 23  1  0
 21 24  1  0
 15 25  1  0
 25 26  2  0
  4 27  2  0
 27 28  1  0
 28 29  1  0
 28  2  2  0
 26  6  1  0
 25  9  1  0
  1 30  1  0
  1 31  1  0
  1 32  1  0
  5 33  1  0
  7 34  1  0
  8 35  1  0
 10 36  1  0
 13 37  1  0
 13 38  1  0
 26 39  1  0
M  CHG  1   3  -1
M  END
>  <UniqueID>  (69) 
68

>  <SMILES>  (69) 
Cc1[n-]c(Nc2ccc3cc(C(N)=O)n(C(=O)OC(=O)C(F)(F)F)c3c2)nc1F

>  <Energy>  (69) 
109.40411757967559

>  <Genealogy>  (69) 
Cc1[n-]c(Nc2ccc3cc(C(N)=O)n(C(=O)OC(=O)C(F)(F)F)c3c2)nc1F (protonated)
Cc1[n-]c(Nc2ccc3cc(C(N)=O)n(C(=O)OC(=O)C(F)(F)F)c3c2)nc1F (3D coordinates assigned)
Cc1[n-]c(Nc2ccc3cc(C(N)=O)n(C(=O)OC(=O)C(F)(F)F)c3c2)nc1F (optimized conformer: 109.40411757967559 kcal/mol)

>  <smiles>  (69) 
Cc1[nH]c(Nc2ccc3cc(C(N)=O)n(C(=O)OC(=O)C(F)(F)F)c3c2)nc1F

>  <score_type>  (69) 
oracle

>  <origin>  (69) 
adg

>  <m_score__min__energy>  (69) 
-7.7699999999999996

>  <m_primary>  (69) 
energy

$$$$
69:0
     RDKit          3D

 40 41  0  0  0  0  0  0  0  0999 V2000
  147.8520  160.4570  130.6820 C   0  0  0  0  0  0  0  0  0  0  0  0
  148.5380  159.7360  131.5790 C   0  0  0  0  0  0  0  0  0  0  0  0
  149.8720  159.1950  131.2190 C   0  0  0  0  0  0  0  0  0  0  0  0
  150.3500  158.2060  131.8360 O   0  0  0  0  0  0  0  0  0  0  0  0
  150.6230  159.7770  130.2030 O   0  0  0  0  0  0  0  0  0  0  0  0
  147.9510  159.4720  132.9200 C   0  0  0  0  0  0  0  0  0  0  0  0
  148.3800  160.0970  133.9270 O   0  0  0  0  0  0  0  0  0  0  0  0
  146.8950  158.5120  133.0930 N   0  0  0  0  0  0  0  0  0  0  0  0
  145.5740  158.7600  133.3170 C   0  0  0  0  0  0  0  0  0  0  0  0
  144.9710  160.0920  133.5340 C   0  0  0  0  0  0  0  0  0  0  0  0
  145.8010  161.2010  133.8720 N   0  0  0  0  0  0  0  0  0  0  0  0
  143.7310  160.2660  133.4050 O   0  0  0  0  0  0  0  0  0  0  0  0
  144.8570  157.5660  133.3730 C   0  0  0  0  0  0  0  0  0  0  0  0
  145.7880  156.5720  133.1710 C   0  0  0  0  0  0  0  0  0  0  0  0
  145.6300  155.1900  133.1250 C   0  0  0  0  0  0  0  0  0  0  0  0
  146.7720  154.4050  132.8860 C   0  0  0  0  0  0  0  0  0  0  0  0
  148.0360  155.0120  132.6800 C   0  0  0  0  0  0  0  0  0  0  0  0
  149.2570  154.1610  132.4570 C   0  0  0  0  0  0  0  0  0  0  0  0
  149.1550  152.8610  133.2520 C   0  0  0  0  0  0  0  0  0  0  0  0
  149.8450  151.7950  132.5370 N   0  0  0  0  0  0  0  0  0  0  0  0
  149.2440  150.9940  131.5110 C   0  0  0  0  0  0  0  0  0  0  0  0
  148.0050  150.7780  131.5540 O   0  0  0  0  0  0  0  0  0  0  0  0
  150.0590  150.3760  130.4150 C   0  0  0  0  0  0  0  0  0  0  0  0
  151.4080  150.3630  130.7890 O   0  0  0  0  0  0  0  0  0  0  0  0
  148.1580  156.4170  132.7400 C   0  0  0  0  0  0  0  0  0  0  0  0
  147.0090  157.1700  132.9990 C   0  0  0  0  0  0  0  0  0  0  0  0
  146.8625  160.8611  130.9421 H   0  0  0  0  0  0  0  0  0  0  0  0
  148.2783  160.6448  129.6855 H   0  0  0  0  0  0  0  0  0  0  0  0
  146.6800  161.3930  133.3420 H   0  0  0  0  0  0  0  0  0  0  0  0
  143.7770  157.4439  133.5425 H   0  0  0  0  0  0  0  0  0  0  0  0
  144.6432  154.7265  133.2710 H   0  0  0  0  0  0  0  0  0  0  0  0
  146.6834  153.3089  132.8587 H   0  0  0  0  0  0  0  0  0  0  0  0
  149.3430  153.9247  131.3861 H   0  0  0  0  0  0  0  0  0  0  0  0
  150.1444  154.7162  132.7951 H   0  0  0  0  0  0  0  0  0  0  0  0
  149.6186  152.9988  134.2400 H   0  0  0  0  0  0  0  0  0  0  0  0
  148.0959  152.5912  133.3765 H   0  0  0  0  0  0  0  0  0  0  0  0
  149.7169  149.3454  130.2398 H   0  0  0  0  0  0  0  0  0  0  0  0
  149.9393  150.9631  129.4925 H   0  0  0  0  0  0  0  0  0  0  0  0
  151.5240  151.1190  131.4230 H   0  0  0  0  0  0  0  0  0  0  0  0
  149.1312  156.9063  132.5871 H   0  0  0  0  0  0  0  0  0  0  0  0
  1  2  2  0
  2  3  1  0
  3  4  2  0
  3  5  1  0
  2  6  1  0
  6  7  2  0
  6  8  1  0
  8  9  1  0
  9 10  1  0
 10 11  1  0
 10 12  2  0
  9 13  2  0
 13 14  1  0
 14 15  2  0
 15 16  1  0
 16 17  2  0
 17 18  1  0
 18 19  1  0
 19 20  1  0
 20 21  1  0
 21 22  2  0
 21 23  1  0
 23 24  1  0
 17 25  1  0
 25 26  2  0
 26  8  1  0
 26 14  1  0
  1 27  1  0
  1 28  1  0
 11 29  1  0
 13 30  1  0
 15 31  1  0
 16 32  1  0
 18 33  1  0
 18 34  1  0
 19 35  1  0
 19 36  1  0
 23 37  1  0
 23 38  1  0
 24 39  1  0
 25 40  1  0
M  CHG  3   5  -1  11  -1  20  -1
M  END
>  <UniqueID>  (70) 
69

>  <SMILES>  (70) 
C=C(C(=O)[O-])C(=O)n1c(C([NH-])=O)cc2ccc(CC[N-]C(=O)CO)cc21

>  <Energy>  (70) 
73.89550755331382

>  <Genealogy>  (70) 
C=C(C(=O)[O-])C(=O)n1c(C([NH-])=O)cc2ccc(CC[N-]C(=O)CO)cc21 (protonated)
C=C(C(=O)[O-])C(=O)n1c(C([NH-])=O)cc2ccc(CC[N-]C(=O)CO)cc21 (3D coordinates assigned)
C=C(C(=O)[O-])C(=O)n1c(C([NH-])=O)cc2ccc(CC[N-]C(=O)CO)cc21 (optimized conformer: 73.89550755331382 kcal/mol)

>  <smiles>  (70) 
C=C(C(=O)O)C(=O)n1c(C(N)=O)cc2ccc(CCNC(=O)CO)cc21

>  <score_type>  (70) 
oracle

>  <origin>  (70) 
adg

>  <m_score__min__energy>  (70) 
-7.0700000000000003

>  <m_primary>  (70) 
energy

$$$$
70:0
     RDKit          3D

 34 35  0  0  0  0  0  0  0  0999 V2000
  141.1160  159.3610  136.0430 C   0  0  0  0  0  0  0  0  0  0  0  0
  141.5670  158.5380  134.8390 C   0  0  2  0  0  0  0  0  0  0  0  0
  141.6450  157.2020  135.1940 F   0  0  0  0  0  0  0  0  0  0  0  0
  142.9040  159.0190  134.3360 C   0  0  0  0  0  0  0  0  0  0  0  0
  143.1280  160.4050  134.1330 C   0  0  0  0  0  0  0  0  0  0  0  0
  144.3820  160.8730  133.7080 C   0  0  0  0  0  0  0  0  0  0  0  0
  145.3900  159.9390  133.4940 C   0  0  0  0  0  0  0  0  0  0  0  0
  146.7010  160.1250  133.1210 C   0  0  0  0  0  0  0  0  0  0  0  0
  147.2570  158.8500  133.0830 C   0  0  0  0  0  0  0  0  0  0  0  0
  148.6490  158.5850  132.6690 C   0  0  0  0  0  0  0  0  0  0  0  0
  148.9770  157.4540  131.8590 N   0  0  0  0  0  0  0  0  0  0  0  0
  149.5560  159.3980  132.9890 O   0  0  0  0  0  0  0  0  0  0  0  0
  146.3340  157.9100  133.4320 N   0  0  0  0  0  0  0  0  0  0  0  0
  146.5580  156.5040  133.6300 C   0  0  0  0  0  0  0  0  0  0  0  0
  146.2690  155.9710  134.7350 O   0  0  0  0  0  0  0  0  0  0  0  0
  147.0970  155.7390  132.5860 O   0  0  0  0  0  0  0  0  0  0  0  0
  148.1460  154.8200  132.7180 C   0  0  0  0  0  0  0  0  0  0  0  0
  149.2990  155.0770  132.2750 O   0  0  0  0  0  0  0  0  0  0  0  0
  147.8750  153.5030  133.3710 C   0  0  0  0  0  0  0  0  0  0  0  0
  146.6220  153.0340  133.0180 F   0  0  0  0  0  0  0  0  0  0  0  0
  147.9360  153.6520  134.7440 F   0  0  0  0  0  0  0  0  0  0  0  0
  148.8290  152.5860  132.9690 F   0  0  0  0  0  0  0  0  0  0  0  0
  145.1920  158.5940  133.6780 C   0  0  0  0  0  0  0  0  0  0  0  0
  143.9590  158.1020  134.1220 C   0  0  0  0  0  0  0  0  0  0  0  0
  141.4008  158.8414  136.9698 H   0  0  0  0  0  0  0  0  0  0  0  0
  141.5988  160.3490  136.0134 H   0  0  0  0  0  0  0  0  0  0  0  0
  140.0235  159.4857  136.0134 H   0  0  0  0  0  0  0  0  0  0  0  0
  140.8308  158.6592  134.0307 H   0  0  0  0  0  0  0  0  0  0  0  0
  142.3113  161.1203  134.3102 H   0  0  0  0  0  0  0  0  0  0  0  0
  144.5617  161.9465  133.5491 H   0  0  0  0  0  0  0  0  0  0  0  0
  147.2029  161.0785  132.8999 H   0  0  0  0  0  0  0  0  0  0  0  0
  148.2310  156.8500  131.4470 H   0  0  0  0  0  0  0  0  0  0  0  0
  149.9720  157.2610  131.6060 H   0  0  0  0  0  0  0  0  0  0  0  0
  143.8140  157.0263  134.3004 H   0  0  0  0  0  0  0  0  0  0  0  0
  1  2  1  0
  2  3  1  0
  2  4  1  0
  4  5  2  0
  5  6  1  0
  6  7  2  0
  7  8  1  0
  8  9  2  0
  9 10  1  0
 10 11  1  0
 10 12  2  0
  9 13  1  0
 13 14  1  0
 14 15  2  0
 14 16  1  0
 16 17  1  0
 17 18  2  0
 17 19  1  0
 19 20  1  0
 19 21  1  0
 19 22  1  0
 13 23  1  0
 23 24  2  0
 24  4  1  0
 23  7  1  0
  1 25  1  0
  1 26  1  0
  1 27  1  0
  2 28  1  6
  5 29  1  0
  6 30  1  0
  8 31  1  0
 11 32  1  0
 11 33  1  0
 24 34  1  0
M  END
>  <UniqueID>  (71) 
70

>  <SMILES>  (71) 
C[C@H](F)c1ccc2cc(C(N)=O)n(C(=O)OC(=O)C(F)(F)F)c2c1

>  <Energy>  (71) 
70.37757043456179

>  <Genealogy>  (71) 
C[C@H](F)c1ccc2cc(C(N)=O)n(C(=O)OC(=O)C(F)(F)F)c2c1 (chirality)
C[C@H](F)c1ccc2cc(C(N)=O)n(C(=O)OC(=O)C(F)(F)F)c2c1 (3D coordinates assigned)
C[C@H](F)c1ccc2cc(C(N)=O)n(C(=O)OC(=O)C(F)(F)F)c2c1 (optimized conformer: 70.37757043456179 kcal/mol)

>  <smiles>  (71) 
CC(F)c1ccc2cc(C(N)=O)n(C(=O)OC(=O)C(F)(F)F)c2c1

>  <score_type>  (71) 
oracle

>  <origin>  (71) 
adg

>  <m_score__min__energy>  (71) 
-6.3499999999999996

>  <m_primary>  (71) 
energy

$$$$
71:0
     RDKit          3D

 47 48  0  0  0  0  0  0  0  0999 V2000
    4.9499    1.6103   -2.3294 C   0  0  0  0  0  0  0  0  0  0  0  0
    3.8268    1.5975   -1.4571 O   0  0  0  0  0  0  0  0  0  0  0  0
    3.9126    1.9743   -0.1136 C   0  0  0  0  0  0  0  0  0  0  0  0
    4.9972    2.4024    0.3669 O   0  0  0  0  0  0  0  0  0  0  0  0
    2.6943    1.9031    0.7520 C   0  0  0  0  0  0  0  0  0  0  0  0
    1.9303    0.7400    0.4440 O   0  0  0  0  0  0  0  0  0  0  0  0
    2.3643   -0.5611    0.7237 C   0  0  0  0  0  0  0  0  0  0  0  0
    3.4504   -0.7548    1.3355 O   0  0  0  0  0  0  0  0  0  0  0  0
    1.5580   -1.6786    0.3240 N   0  0  0  0  0  0  0  0  0  0  0  0
    1.9659   -2.8477   -0.2462 C   0  0  0  0  0  0  0  0  0  0  0  0
    3.3371   -3.1604   -0.7005 C   0  0  0  0  0  0  0  0  0  0  0  0
    4.2884   -2.1243   -0.9309 N   0  0  0  0  0  0  0  0  0  0  0  0
    3.6591   -4.3559   -0.9342 O   0  0  0  0  0  0  0  0  0  0  0  0
    0.8791   -3.6978   -0.4450 C   0  0  0  0  0  0  0  0  0  0  0  0
   -0.2173   -3.0021    0.0120 C   0  0  0  0  0  0  0  0  0  0  0  0
   -1.5625   -3.3604    0.0349 C   0  0  0  0  0  0  0  0  0  0  0  0
   -2.4812   -2.4364    0.5614 C   0  0  0  0  0  0  0  0  0  0  0  0
   -2.0381   -1.1914    1.0729 C   0  0  0  0  0  0  0  0  0  0  0  0
   -3.0269   -0.1861    1.5821 C   0  0  0  0  0  0  0  0  0  0  0  0
   -3.4262    1.2477    0.0393 Sn  0  0  0  0  0  4  0  0  0  0  0  0
   -1.6111    2.2709   -0.4611 C   0  0  0  0  0  0  0  0  0  0  0  0
   -4.8896    2.6553    0.7185 C   0  0  0  0  0  0  0  0  0  0  0  0
   -4.1569    0.2140   -1.6933 C   0  0  0  0  0  0  0  0  0  0  0  0
   -4.4256    1.1261   -2.7186 O   0  0  0  0  0  0  0  0  0  0  0  0
   -0.6667   -0.8620    1.0301 C   0  0  0  0  0  0  0  0  0  0  0  0
    0.2208   -1.7883    0.4736 C   0  0  0  0  0  0  0  0  0  0  0  0
    5.3575    2.6403   -2.4100 H   0  0  0  0  0  0  0  0  0  0  0  0
    5.7350    0.9239   -1.9472 H   0  0  0  0  0  0  0  0  0  0  0  0
    4.6332    1.2687   -3.3361 H   0  0  0  0  0  0  0  0  0  0  0  0
    2.0703    2.8006    0.5609 H   0  0  0  0  0  0  0  0  0  0  0  0
    2.9757    1.8966    1.8278 H   0  0  0  0  0  0  0  0  0  0  0  0
    5.2512   -2.3436   -1.2699 H   0  0  0  0  0  0  0  0  0  0  0  0
    0.8855   -4.6808   -0.8983 H   0  0  0  0  0  0  0  0  0  0  0  0
   -1.8936   -4.3169   -0.3488 H   0  0  0  0  0  0  0  0  0  0  0  0
   -3.5347   -2.6865    0.5694 H   0  0  0  0  0  0  0  0  0  0  0  0
   -3.9792   -0.6760    1.8766 H   0  0  0  0  0  0  0  0  0  0  0  0
   -2.6187    0.3411    2.4704 H   0  0  0  0  0  0  0  0  0  0  0  0
   -0.8914    1.5508   -0.9019 H   0  0  0  0  0  0  0  0  0  0  0  0
   -1.1737    2.7161    0.4558 H   0  0  0  0  0  0  0  0  0  0  0  0
   -1.8303    3.0721   -1.1962 H   0  0  0  0  0  0  0  0  0  0  0  0
   -5.8251    2.1179    0.9768 H   0  0  0  0  0  0  0  0  0  0  0  0
   -4.5047    3.1829    1.6151 H   0  0  0  0  0  0  0  0  0  0  0  0
   -5.0940    3.3908   -0.0862 H   0  0  0  0  0  0  0  0  0  0  0  0
   -3.4060   -0.5360   -2.0260 H   0  0  0  0  0  0  0  0  0  0  0  0
   -5.0930   -0.3155   -1.4217 H   0  0  0  0  0  0  0  0  0  0  0  0
   -3.5470    1.4953   -2.9945 H   0  0  0  0  0  0  0  0  0  0  0  0
   -0.3192    0.0885    1.4117 H   0  0  0  0  0  0  0  0  0  0  0  0
  1  2  1  0
  2  3  1  0
  3  4  2  0
  3  5  1  0
  5  6  1  0
  6  7  1  0
  7  8  2  0
  7  9  1  0
  9 10  1  0
 10 11  1  0
 11 12  1  0
 11 13  2  0
 10 14  2  0
 14 15  1  0
 15 16  2  0
 16 17  1  0
 17 18  2  0
 18 19  1  0
 19 20  1  0
 20 21  1  0
 20 22  1  0
 20 23  1  0
 23 24  1  0
 18 25  1  0
 25 26  2  0
 26  9  1  0
 26 15  1  0
  1 27  1  0
  1 28  1  0
  1 29  1  0
  5 30  1  0
  5 31  1  0
 12 32  1  0
 14 33  1  0
 16 34  1  0
 17 35  1  0
 19 36  1  0
 19 37  1  0
 21 38  1  0
 21 39  1  0
 21 40  1  0
 22 41  1  0
 22 42  1  0
 22 43  1  0
 23 44  1  0
 23 45  1  0
 24 46  1  0
 25 47  1  0
M  CHG  1  12  -1
M  END
>  <UniqueID>  (72) 
71

>  <SMILES>  (72) 
COC(=O)COC(=O)n1c(C([NH-])=O)cc2ccc([CH2][Sn]([CH3])([CH3])[CH2]O)cc21

>  <Energy>  (72) 
62.60497238172187

>  <Genealogy>  (72) 
COC(=O)COC(=O)n1c(C([NH-])=O)cc2ccc([CH2][Sn]([CH3])([CH3])[CH2]O)cc21 (protonated)
COC(=O)COC(=O)n1c(C([NH-])=O)cc2ccc([CH2][Sn]([CH3])([CH3])[CH2]O)cc21 (3D coordinates assigned)
COC(=O)COC(=O)n1c(C([NH-])=O)cc2ccc([CH2][Sn]([CH3])([CH3])[CH2]O)cc21 (optimized conformer: 62.60497238172187 kcal/mol)

>  <smiles>  (72) 
COC(=O)COC(=O)n1c(C(N)=O)cc2ccc([CH2][Sn]([CH3])([CH3])[CH2]O)cc21

>  <m_score__min__energy>  (72) 
nan

>  <m_primary>  (72) 
energy

$$$$
72:0
     RDKit          3D

 42 44  0  0  0  0  0  0  0  0999 V2000
  139.4800  145.4020  129.3080 C   0  0  0  0  0  0  0  0  0  0  0  0
  139.6160  146.4510  129.7410 N   0  0  0  0  0  0  0  0  0  0  0  0
  139.7600  147.7340  130.2660 C   0  0  0  0  0  0  0  0  0  0  0  0
  139.0110  148.8120  129.7310 C   0  0  0  0  0  0  0  0  0  0  0  0
  138.4110  149.7120  129.2960 N   0  0  0  0  0  0  0  0  0  0  0  0
  140.6090  147.9310  131.2550 C   0  0  0  0  0  0  0  0  0  0  0  0
  140.8510  149.2130  131.8900 C   0  0  0  0  0  0  0  0  0  0  0  0
  139.8760  150.0500  132.3660 C   0  0  0  0  0  0  0  0  0  0  0  0
  140.2230  151.2680  132.9520 C   0  0  0  0  0  0  0  0  0  0  0  0
  141.5370  151.6730  133.0750 C   0  0  0  0  0  0  0  0  0  0  0  0
  141.8120  152.9570  133.7060 C   0  0  0  0  0  0  0  0  0  0  0  0
  142.8880  153.1220  134.5490 C   0  0  0  0  0  0  0  0  0  0  0  0
  143.1250  154.3440  135.1290 C   0  0  0  0  0  0  0  0  0  0  0  0
  142.2770  155.3950  134.8570 C   0  0  0  0  0  0  0  0  0  0  0  0
  142.2730  156.7050  135.2870 C   0  0  0  0  0  0  0  0  0  0  0  0
  141.1860  157.3830  134.7170 C   0  0  0  0  0  0  0  0  0  0  0  0
  140.9340  158.7760  134.9940 C   0  0  0  0  0  0  0  0  0  0  0  0
  140.5430  159.3600  136.1980 N   0  0  0  0  0  0  0  0  0  0  0  0
  141.0870  159.5910  134.0120 O   0  0  0  0  0  0  0  0  0  0  0  0
  140.5500  156.4890  133.9550 N   0  0  0  0  0  0  0  0  0  0  0  0
  139.3960  156.7050  133.1810 C   0  0  0  0  0  0  0  0  0  0  0  0
  139.1880  156.2550  132.0280 O   0  0  0  0  0  0  0  0  0  0  0  0
  138.3350  157.4880  133.6830 O   0  0  0  0  0  0  0  0  0  0  0  0
  141.1870  155.2850  134.0210 C   0  0  0  0  0  0  0  0  0  0  0  0
  140.9760  154.0430  133.4540 C   0  0  0  0  0  0  0  0  0  0  0  0
  142.5160  150.8320  132.5970 C   0  0  0  0  0  0  0  0  0  0  0  0
  143.9480  151.2040  132.6910 C   0  0  0  0  0  0  0  0  0  0  0  0
  142.1600  149.6270  132.0190 C   0  0  0  0  0  0  0  0  0  0  0  0
  141.1737  147.0625  131.6249 H   0  0  0  0  0  0  0  0  0  0  0  0
  138.8176  149.7612  132.2860 H   0  0  0  0  0  0  0  0  0  0  0  0
  139.4251  151.9255  133.3274 H   0  0  0  0  0  0  0  0  0  0  0  0
  143.5579  152.2749  134.7579 H   0  0  0  0  0  0  0  0  0  0  0  0
  143.9828  154.4821  135.8036 H   0  0  0  0  0  0  0  0  0  0  0  0
  143.0096  157.1500  135.9722 H   0  0  0  0  0  0  0  0  0  0  0  0
  139.4970  159.4470  136.3780 H   0  0  0  0  0  0  0  0  0  0  0  0
  141.2460  159.7140  136.9140 H   0  0  0  0  0  0  0  0  0  0  0  0
  137.3750  157.3300  133.3440 H   0  0  0  0  0  0  0  0  0  0  0  0
  140.1177  153.9065  132.7797 H   0  0  0  0  0  0  0  0  0  0  0  0
  144.2385  151.2795  133.7492 H   0  0  0  0  0  0  0  0  0  0  0  0
  144.5598  150.4350  132.1967 H   0  0  0  0  0  0  0  0  0  0  0  0
  144.1082  152.1736  132.1967 H   0  0  0  0  0  0  0  0  0  0  0  0
  142.9578  148.9685  131.6450 H   0  0  0  0  0  0  0  0  0  0  0  0
  1  2  3  0
  2  3  1  0
  3  4  1  0
  4  5  3  0
  3  6  2  0
  6  7  1  0
  7  8  2  0
  8  9  1  0
  9 10  2  0
 10 11  1  0
 11 12  2  0
 12 13  1  0
 13 14  2  0
 14 15  1  0
 15 16  2  0
 16 17  1  0
 17 18  1  0
 17 19  2  0
 16 20  1  0
 20 21  1  0
 21 22  2  0
 21 23  1  0
 20 24  1  0
 24 25  2  0
 10 26  1  0
 26 27  1  0
 26 28  2  0
 28  7  1  0
 25 11  1  0
 24 14  1  0
  6 29  1  0
  8 30  1  0
  9 31  1  0
 12 32  1  0
 13 33  1  0
 15 34  1  0
 18 35  1  0
 18 36  1  0
 23 37  1  0
 25 38  1  0
 27 39  1  0
 27 40  1  0
 27 41  1  0
 28 42  1  0
M  CHG  2   1  -1   2   1
M  END
>  <smiles>  (73) 
[C-]#[N+]/C(C#N)=C/c1ccc(-c2ccc3cc(C(N)=O)n(C(=O)O)c3c2)c(C)c1

>  <score_type>  (73) 
oracle

>  <origin>  (73) 
adg

>  <m_score__min__energy>  (73) 
-9.2899999999999991

>  <m_primary>  (73) 
energy

$$$$
73:0
     RDKit          3D

 39 40  0  0  0  0  0  0  0  0999 V2000
  141.8020  155.7140  136.2150 C   0  0  0  0  0  0  0  0  0  0  0  0
  142.5540  155.0200  135.1640 N   0  0  0  0  0  0  0  0  0  0  0  0
  142.2060  153.6290  134.8260 C   0  0  0  0  0  0  0  0  0  0  0  0
  141.5400  153.5530  133.4520 C   0  0  0  0  0  0  0  0  0  0  0  0
  140.9060  154.7640  133.1530 O   0  0  0  0  0  0  0  0  0  0  0  0
  143.7030  155.6380  134.5390 C   0  0  0  0  0  0  0  0  0  0  0  0
  144.8540  155.4070  135.0040 O   0  0  0  0  0  0  0  0  0  0  0  0
  143.5930  156.5380  133.3650 C   0  0  0  0  0  0  0  0  0  0  0  0
  143.5050  156.0710  132.1990 O   0  0  0  0  0  0  0  0  0  0  0  0
  143.5960  157.9620  133.5450 N   0  0  0  0  0  0  0  0  0  0  0  0
  142.5160  158.7900  133.6010 C   0  0  0  0  0  0  0  0  0  0  0  0
  141.1020  158.3450  133.5920 C   0  0  0  0  0  0  0  0  0  0  0  0
  140.6800  157.2460  132.7820 N   0  0  0  0  0  0  0  0  0  0  0  0
  140.2480  158.9450  134.2980 O   0  0  0  0  0  0  0  0  0  0  0  0
  142.9300  160.1170  133.7190 C   0  0  0  0  0  0  0  0  0  0  0  0
  144.3070  160.0710  133.7220 C   0  0  0  0  0  0  0  0  0  0  0  0
  145.2380  161.1030  133.7850 C   0  0  0  0  0  0  0  0  0  0  0  0
  146.6010  160.7650  133.7280 C   0  0  0  0  0  0  0  0  0  0  0  0
  147.0100  159.4100  133.6180 C   0  0  0  0  0  0  0  0  0  0  0  0
  148.4710  159.0620  133.4950 C   0  0  0  0  0  0  0  0  0  0  0  0
  148.6290  157.8100  132.9260 F   0  0  0  0  0  0  0  0  0  0  0  0
  149.1260  159.9850  132.6980 F   0  0  0  0  0  0  0  0  0  0  0  0
  149.0460  159.0630  134.7510 F   0  0  0  0  0  0  0  0  0  0  0  0
  146.0290  158.3940  133.5300 C   0  0  0  0  0  0  0  0  0  0  0  0
  144.6820  158.7600  133.6110 C   0  0  0  0  0  0  0  0  0  0  0  0
  142.1601  155.3835  137.2012 H   0  0  0  0  0  0  0  0  0  0  0  0
  141.9501  156.7995  136.1160 H   0  0  0  0  0  0  0  0  0  0  0  0
  140.7319  155.4794  136.1160 H   0  0  0  0  0  0  0  0  0  0  0  0
  143.1223  153.0204  134.8165 H   0  0  0  0  0  0  0  0  0  0  0  0
  141.5011  153.2493  135.5803 H   0  0  0  0  0  0  0  0  0  0  0  0
  142.3046  153.3454  132.6889 H   0  0  0  0  0  0  0  0  0  0  0  0
  140.7897  152.7486  133.4616 H   0  0  0  0  0  0  0  0  0  0  0  0
  141.5330  155.2680  132.5720 H   0  0  0  0  0  0  0  0  0  0  0  0
  141.3620  156.6770  132.2340 H   0  0  0  0  0  0  0  0  0  0  0  0
  139.6750  156.9680  132.7620 H   0  0  0  0  0  0  0  0  0  0  0  0
  142.2925  161.0103  133.7938 H   0  0  0  0  0  0  0  0  0  0  0  0
  144.9172  162.1512  133.8766 H   0  0  0  0  0  0  0  0  0  0  0  0
  147.3601  161.5600  133.7691 H   0  0  0  0  0  0  0  0  0  0  0  0
  146.3194  157.3409  133.4009 H   0  0  0  0  0  0  0  0  0  0  0  0
  1  2  1  0
  2  3  1  0
  3  4  1  0
  4  5  1  0
  2  6  1  0
  6  7  2  0
  6  8  1  0
  8  9  2  0
  8 10  1  0
 10 11  1  0
 11 12  1  0
 12 13  1  0
 12 14  2  0
 11 15  2  0
 15 16  1  0
 16 17  2  0
 17 18  1  0
 18 19  2  0
 19 20  1  0
 20 21  1  0
 20 22  1  0
 20 23  1  0
 19 24  1  0
 24 25  2  0
 25 10  1  0
 25 16  1  0
  1 26  1  0
  1 27  1  0
  1 28  1  0
  3 29  1  0
  3 30  1  0
  4 31  1  0
  4 32  1  0
  5 33  1  0
 13 34  1  0
 13 35  1  0
 15 36  1  0
 17 37  1  0
 18 38  1  0
 24 39  1  0
M  END
>  <UniqueID>  (74) 
72

>  <SMILES>  (74) 
CN(CCO)C(=O)C(=O)n1c(C(N)=O)cc2ccc(C(F)(F)F)cc21

>  <Energy>  (74) 
77.53575935952122

>  <Genealogy>  (74) 
CN(CCO)C(=O)C(=O)n1c(C(N)=O)cc2ccc(C(F)(F)F)cc21 (3D coordinates assigned)
CN(CCO)C(=O)C(=O)n1c(C(N)=O)cc2ccc(C(F)(F)F)cc21 (optimized conformer: 77.53575935952122 kcal/mol)

>  <smiles>  (74) 
CN(CCO)C(=O)C(=O)n1c(C(N)=O)cc2ccc(C(F)(F)F)cc21

>  <score_type>  (74) 
oracle

>  <origin>  (74) 
adg

>  <m_score__min__energy>  (74) 
-5.9800000000000004

>  <m_primary>  (74) 
energy

$$$$
74:0
     RDKit          3D

 55 57  0  0  0  0  0  0  0  0999 V2000
  138.0020  148.9050  130.3960 C   0  0  0  0  0  0  0  0  0  0  0  0
  139.4130  148.6400  130.0480 N   0  0  0  0  0  0  0  0  0  0  0  0
  139.7230  147.2410  130.4100 C   0  0  0  0  0  0  0  0  0  0  0  0
  140.3600  149.5790  130.7220 C   0  0  0  0  0  0  0  0  0  0  0  0
  139.5610  150.6440  131.5390 C   0  0  0  0  0  0  0  0  0  0  0  0
  140.2360  151.0770  132.8490 C   0  0  0  0  0  0  0  0  0  0  0  0
  141.6930  151.0870  132.6910 N   0  0  0  0  0  0  0  0  0  0  0  0
  142.4510  152.2990  132.8740 C   0  0  0  0  0  0  0  0  0  0  0  0
  143.8670  152.2780  132.7880 C   0  0  0  0  0  0  0  0  0  0  0  0
  144.6130  153.4580  132.9470 C   0  0  0  0  0  0  0  0  0  0  0  0
  143.9210  154.6410  133.1930 C   0  0  0  0  0  0  0  0  0  0  0  0
  144.3860  155.9260  133.3560 C   0  0  0  0  0  0  0  0  0  0  0  0
  143.2490  156.7100  133.5490 C   0  0  0  0  0  0  0  0  0  0  0  0
  143.2910  158.1630  133.8160 C   0  0  0  0  0  0  0  0  0  0  0  0
  142.8490  158.6940  135.0620 N   0  0  0  0  0  0  0  0  0  0  0  0
  143.7540  158.9450  132.9430 O   0  0  0  0  0  0  0  0  0  0  0  0
  142.1270  155.9380  133.5070 N   0  0  0  0  0  0  0  0  0  0  0  0
  140.7580  156.3660  133.5810 C   0  0  0  0  0  0  0  0  0  0  0  0
  139.9880  156.1520  132.6070 O   0  0  0  0  0  0  0  0  0  0  0  0
  140.2510  157.0430  134.7940 C   0  0  0  0  0  0  0  0  0  0  0  0
  139.1050  157.5730  134.7610 O   0  0  0  0  0  0  0  0  0  0  0  0
  141.0370  157.0970  136.0090 N   0  0  0  0  0  0  0  0  0  0  0  0
  140.2990  157.8210  137.0570 C   0  0  0  0  0  0  0  0  0  0  0  0
  141.3730  155.7350  136.4520 C   0  0  0  0  0  0  0  0  0  0  0  0
  142.5550  154.6760  133.2850 C   0  0  0  0  0  0  0  0  0  0  0  0
  141.7860  153.5230  133.1100 C   0  0  0  0  0  0  0  0  0  0  0  0
  142.3680  149.8550  132.2650 C   0  0  0  0  0  0  0  0  0  0  0  0
  141.3780  148.8530  131.6460 C   0  0  0  0  0  0  0  0  0  0  0  0
  137.8919  148.9257  131.4903 H   0  0  0  0  0  0  0  0  0  0  0  0
  137.6975  149.8760  129.9784 H   0  0  0  0  0  0  0  0  0  0  0  0
  137.3659  148.1106  129.9784 H   0  0  0  0  0  0  0  0  0  0  0  0
  139.7450  147.1419  131.5053 H   0  0  0  0  0  0  0  0  0  0  0  0
  138.9505  146.5756  129.9971 H   0  0  0  0  0  0  0  0  0  0  0  0
  140.7043  146.9642  129.9971 H   0  0  0  0  0  0  0  0  0  0  0  0
  140.9433  150.0708  129.9296 H   0  0  0  0  0  0  0  0  0  0  0  0
  139.4315  151.5355  130.9078 H   0  0  0  0  0  0  0  0  0  0  0  0
  138.6067  150.1737  131.8184 H   0  0  0  0  0  0  0  0  0  0  0  0
  139.8931  152.0872  133.1173 H   0  0  0  0  0  0  0  0  0  0  0  0
  139.9669  150.3646  133.6428 H   0  0  0  0  0  0  0  0  0  0  0  0
  144.3864  151.3278  132.5948 H   0  0  0  0  0  0  0  0  0  0  0  0
  145.7109  153.4475  132.8792 H   0  0  0  0  0  0  0  0  0  0  0  0
  145.4329  156.2632  133.3379 H   0  0  0  0  0  0  0  0  0  0  0  0
  141.8350  158.8590  135.2470 H   0  0  0  0  0  0  0  0  0  0  0  0
  141.9320  157.6120  135.8410 H   0  0  0  0  0  0  0  0  0  0  0  0
  140.6422  157.4843  138.0464 H   0  0  0  0  0  0  0  0  0  0  0  0
  140.4806  158.9010  136.9539 H   0  0  0  0  0  0  0  0  0  0  0  0
  139.2227  157.6187  136.9539 H   0  0  0  0  0  0  0  0  0  0  0  0
  141.3819  155.6987  137.5514 H   0  0  0  0  0  0  0  0  0  0  0  0
  140.6221  155.0288  136.0679 H   0  0  0  0  0  0  0  0  0  0  0  0
  142.3661  155.4590  136.0679 H   0  0  0  0  0  0  0  0  0  0  0  0
  140.6878  153.5670  133.1549 H   0  0  0  0  0  0  0  0  0  0  0  0
  143.1345  150.1078  131.5176 H   0  0  0  0  0  0  0  0  0  0  0  0
  142.8228  149.3874  133.1507 H   0  0  0  0  0  0  0  0  0  0  0  0
  141.9370  148.1127  131.0548 H   0  0  0  0  0  0  0  0  0  0  0  0
  140.8252  148.3576  132.4577 H   0  0  0  0  0  0  0  0  0  0  0  0
  1  2  1  0
  2  3  1  0
  2  4  1  0
  4  5  1  0
  5  6  1  0
  6  7  1  0
  7  8  1  0
  8  9  2  0
  9 10  1  0
 10 11  2  0
 11 12  1  0
 12 13  2  0
 13 14  1  0
 14 15  1  0
 14 16  2  0
 13 17  1  0
 17 18  1  0
 18 19  2  0
 18 20  1  0
 20 21  2  0
 20 22  1  0
 22 23  1  0
 22 24  1  0
 17 25  1  0
 25 26  2  0
  7 27  1  0
 27 28  1  0
 28  4  1  0
 26  8  1  0
 25 11  1  0
  1 29  1  0
  1 30  1  0
  1 31  1  0
  3 32  1  0
  3 33  1  0
  3 34  1  0
  4 35  1  0
  5 36  1  0
  5 37  1  0
  6 38  1  0
  6 39  1  0
  9 40  1  0
 10 41  1  0
 12 42  1  0
 15 43  1  0
 22 44  1  0
 23 45  1  0
 23 46  1  0
 23 47  1  0
 24 48  1  0
 24 49  1  0
 24 50  1  0
 26 51  1  0
 27 52  1  0
 27 53  1  0
 28 54  1  0
 28 55  1  0
M  CHG  2  15  -1  22   1
M  END
>  <UniqueID>  (75) 
73

>  <SMILES>  (75) 
CN(C)C1CCN(c2ccc3cc(C([NH-])=O)n(C(=O)C(=O)[NH+](C)C)c3c2)CC1

>  <Energy>  (75) 
107.15268371751289

>  <Genealogy>  (75) 
CN(C)C1CCN(c2ccc3cc(C([NH-])=O)n(C(=O)C(=O)[NH+](C)C)c3c2)CC1 (protonated)
CN(C)C1CCN(c2ccc3cc(C([NH-])=O)n(C(=O)C(=O)[NH+](C)C)c3c2)CC1 (3D coordinates assigned)
CN(C)C1CCN(c2ccc3cc(C([NH-])=O)n(C(=O)C(=O)[NH+](C)C)c3c2)CC1 (nonaromatic ring conformer: 107.15268371751289 kcal/mol)

>  <smiles>  (75) 
CN(C)C(=O)C(=O)n1c(C(N)=O)cc2ccc(N3CCC(N(C)C)CC3)cc21

>  <score_type>  (75) 
oracle

>  <origin>  (75) 
adg

>  <m_score__min__energy>  (75) 
-7.7999999999999998

>  <m_primary>  (75) 
energy

$$$$
75:0
     RDKit          3D

 42 45  0  0  0  0  0  0  0  0999 V2000
  138.8360  157.5410  132.9550 C   0  0  0  0  0  0  0  0  0  0  0  0
  140.2220  158.0320  132.9930 N   0  0  0  0  0  0  0  0  0  0  0  0
  141.2020  156.9920  133.4270 C   0  0  0  0  0  0  0  0  0  0  0  0
  141.7660  157.2260  134.8480 C   0  0  2  0  0  0  0  0  0  0  0  0
  140.6570  157.1500  135.8990 C   0  0  0  0  0  0  0  0  0  0  0  0
  140.1360  158.5840  136.0050 C   0  0  0  0  0  0  0  0  0  0  0  0
  140.9920  159.3720  135.0110 C   0  0  2  0  0  0  0  0  0  0  0  0
  140.3480  159.3880  133.6070 C   0  0  0  0  0  0  0  0  0  0  0  0
  142.2210  158.6040  134.9100 N   0  0  0  0  0  0  0  0  0  0  0  0
  143.4800  159.1010  134.3860 C   0  0  0  0  0  0  0  0  0  0  0  0
  143.7070  160.5000  134.2390 C   0  0  0  0  0  0  0  0  0  0  0  0
  144.9180  160.9890  133.7220 C   0  0  0  0  0  0  0  0  0  0  0  0
  145.8920  160.0680  133.3570 C   0  0  0  0  0  0  0  0  0  0  0  0
  147.1410  160.2650  132.8130 C   0  0  0  0  0  0  0  0  0  0  0  0
  147.6730  158.9890  132.6420 C   0  0  0  0  0  0  0  0  0  0  0  0
  149.0490  158.7360  132.1670 C   0  0  0  0  0  0  0  0  0  0  0  0
  149.6160  157.4300  132.2330 N   0  0  0  0  0  0  0  0  0  0  0  0
  149.7490  159.6930  131.7420 O   0  0  0  0  0  0  0  0  0  0  0  0
  146.7840  158.0420  133.0530 N   0  0  0  0  0  0  0  0  0  0  0  0
  146.9060  156.6160  132.9610 C   0  0  0  0  0  0  0  0  0  0  0  0
  147.2850  156.0830  131.8850 O   0  0  0  0  0  0  0  0  0  0  0  0
  146.6070  155.5780  134.4050 S   0  0  0  0  0  0  0  0  0  0  0  0
  145.7010  158.7200  133.4930 C   0  0  0  0  0  0  0  0  0  0  0  0
  144.5020  158.2010  133.9900 C   0  0  0  0  0  0  0  0  0  0  0  0
  138.4652  157.4097  133.9823 H   0  0  0  0  0  0  0  0  0  0  0  0
  138.2032  158.2697  132.4272 H   0  0  0  0  0  0  0  0  0  0  0  0
  138.8030  156.5765  132.4272 H   0  0  0  0  0  0  0  0  0  0  0  0
  142.0415  156.9874  132.7162 H   0  0  0  0  0  0  0  0  0  0  0  0
  140.6652  156.0321  133.4475 H   0  0  0  0  0  0  0  0  0  0  0  0
  142.5464  156.4744  135.0380 H   0  0  0  0  0  0  0  0  0  0  0  0
  141.0584  156.8091  136.8648 H   0  0  0  0  0  0  0  0  0  0  0  0
  139.8669  156.4356  135.6245 H   0  0  0  0  0  0  0  0  0  0  0  0
  140.2678  158.9720  137.0259 H   0  0  0  0  0  0  0  0  0  0  0  0
  139.0609  158.6578  135.7845 H   0  0  0  0  0  0  0  0  0  0  0  0
  141.1232  160.4127  135.3422 H   0  0  0  0  0  0  0  0  0  0  0  0
  140.9677  160.0127  132.9469 H   0  0  0  0  0  0  0  0  0  0  0  0
  139.3292  159.7862  133.7232 H   0  0  0  0  0  0  0  0  0  0  0  0
  142.9203  161.2093  134.5355 H   0  0  0  0  0  0  0  0  0  0  0  0
  145.0902  162.0696  133.6094 H   0  0  0  0  0  0  0  0  0  0  0  0
  147.6174  161.2252  132.5660 H   0  0  0  0  0  0  0  0  0  0  0  0
  149.3380  156.6890  131.5500 H   0  0  0  0  0  0  0  0  0  0  0  0
  144.3538  157.1142  134.0725 H   0  0  0  0  0  0  0  0  0  0  0  0
  1  2  1  0
  2  3  1  0
  3  4  1  0
  4  5  1  0
  5  6  1  0
  6  7  1  0
  7  8  1  0
  7  9  1  0
  9 10  1  0
 10 11  2  0
 11 12  1  0
 12 13  2  0
 13 14  1  0
 14 15  2  0
 15 16  1  0
 16 17  1  0
 16 18  2  0
 15 19  1  0
 19 20  1  0
 20 21  2  0
 20 22  1  0
 19 23  1  0
 23 24  2  0
  8  2  1  0
 24 10  1  0
  9  4  1  0
 23 13  1  0
  1 25  1  0
  1 26  1  0
  1 27  1  0
  3 28  1  0
  3 29  1  0
  4 30  1  1
  5 31  1  0
  5 32  1  0
  6 33  1  0
  6 34  1  0
  7 35  1  1
  8 36  1  0
  8 37  1  0
 11 38  1  0
 12 39  1  0
 14 40  1  0
 17 41  1  0
 24 42  1  0
M  CHG  2  17  -1  22  -1
M  END
>  <UniqueID>  (76) 
74

>  <SMILES>  (76) 
CN1C[C@H]2CC[C@@H](C1)N2c1ccc2cc(C([NH-])=O)n(C(=O)[S-])c2c1

>  <Energy>  (76) 
112.31716518492662

>  <Genealogy>  (76) 
CN1CC2CCC(C1)N2c1ccc2cc(C([NH-])=O)n(C(=O)[S-])c2c1 (protonated)
CN1C[C@H]2CC[C@@H](C1)N2c1ccc2cc(C([NH-])=O)n(C(=O)[S-])c2c1 (chirality)
CN1C[C@H]2CC[C@@H](C1)N2c1ccc2cc(C([NH-])=O)n(C(=O)[S-])c2c1 (3D coordinates assigned)
CN1C[C@H]2CC[C@@H](C1)N2c1ccc2cc(C([NH-])=O)n(C(=O)[S-])c2c1 (nonaromatic ring conformer: 112.31716518492662 kcal/mol)

>  <smiles>  (76) 
CN1CC2CCC(C1)N2c1ccc2cc(C(N)=O)n(C(=O)S)c2c1

>  <score_type>  (76) 
oracle

>  <origin>  (76) 
adg

>  <m_score__min__energy>  (76) 
-7.5099999999999998

>  <m_primary>  (76) 
energy

$$$$
76:0
     RDKit          3D

 39 40  0  0  0  0  0  0  0  0999 V2000
  139.4900  158.6170  131.8580 C   0  0  0  0  0  0  0  0  0  0  0  0
  140.0890  157.5230  132.3240 C   0  0  0  0  0  0  0  0  0  0  0  0
  139.5940  156.7890  133.5040 C   0  0  0  0  0  0  0  0  0  0  0  0
  138.3560  156.7220  133.7370 O   0  0  0  0  0  0  0  0  0  0  0  0
  140.5160  156.1080  134.3710 N   0  0  0  0  0  0  0  0  0  0  0  0
  141.1230  156.5890  135.4930 C   0  0  0  0  0  0  0  0  0  0  0  0
  140.8260  157.8890  136.1370 C   0  0  0  0  0  0  0  0  0  0  0  0
  139.5580  158.5200  135.9580 N   0  0  0  0  0  0  0  0  0  0  0  0
  141.7050  158.4660  136.8300 O   0  0  0  0  0  0  0  0  0  0  0  0
  141.9930  155.6360  136.0210 C   0  0  0  0  0  0  0  0  0  0  0  0
  141.8950  154.5480  135.1840 C   0  0  0  0  0  0  0  0  0  0  0  0
  142.5370  153.3150  135.2370 C   0  0  0  0  0  0  0  0  0  0  0  0
  142.2500  152.3780  134.2290 C   0  0  0  0  0  0  0  0  0  0  0  0
  141.3460  152.6960  133.1840 C   0  0  0  0  0  0  0  0  0  0  0  0
  141.0190  151.7400  132.1610 N   0  0  0  0  0  0  0  0  0  0  0  0
  141.1800  150.2740  132.2560 C   0  0  0  0  0  0  0  0  0  0  0  0
  140.6230  149.7990  133.6110 C   0  0  0  0  0  0  0  0  0  0  0  0
  142.6550  149.8450  132.1060 C   0  0  0  0  0  0  0  0  0  0  0  0
  140.4060  149.6300  131.1230 C   0  0  0  0  0  0  0  0  0  0  0  0
  140.3680  148.3760  130.9950 O   0  0  0  0  0  0  0  0  0  0  0  0
  139.8030  150.4240  130.1530 O   0  0  0  0  0  0  0  0  0  0  0  0
  140.6960  153.9480  133.1790 C   0  0  0  0  0  0  0  0  0  0  0  0
  140.9940  154.8580  134.2000 C   0  0  0  0  0  0  0  0  0  0  0  0
  139.8951  159.1318  130.9743 H   0  0  0  0  0  0  0  0  0  0  0  0
  138.5900  159.0060  132.3567 H   0  0  0  0  0  0  0  0  0  0  0  0
  140.9876  157.1522  131.8093 H   0  0  0  0  0  0  0  0  0  0  0  0
  139.3750  159.4560  136.3820 H   0  0  0  0  0  0  0  0  0  0  0  0
  138.7840  158.0490  135.4400 H   0  0  0  0  0  0  0  0  0  0  0  0
  142.6240  155.7332  136.9168 H   0  0  0  0  0  0  0  0  0  0  0  0
  143.2477  153.0803  136.0432 H   0  0  0  0  0  0  0  0  0  0  0  0
  142.7312  151.3891  134.2512 H   0  0  0  0  0  0  0  0  0  0  0  0
  140.7010  152.1350  131.2460 H   0  0  0  0  0  0  0  0  0  0  0  0
  141.1847  150.2780  134.4265 H   0  0  0  0  0  0  0  0  0  0  0  0
  139.5605  150.0733  133.6871 H   0  0  0  0  0  0  0  0  0  0  0  0
  140.7261  148.7065  133.6871 H   0  0  0  0  0  0  0  0  0  0  0  0
  143.1022  149.7149  133.1026 H   0  0  0  0  0  0  0  0  0  0  0  0
  142.7062  148.8947  131.5543 H   0  0  0  0  0  0  0  0  0  0  0  0
  143.2079  150.6196  131.5543 H   0  0  0  0  0  0  0  0  0  0  0  0
  139.9719  154.2032  132.3912 H   0  0  0  0  0  0  0  0  0  0  0  0
  1  2  2  0
  2  3  1  0
  3  4  2  0
  3  5  1  0
  5  6  1  0
  6  7  1  0
  7  8  1  0
  7  9  2  0
  6 10  2  0
 10 11  1  0
 11 12  2  0
 12 13  1  0
 13 14  2  0
 14 15  1  0
 15 16  1  0
 16 17  1  0
 16 18  1  0
 16 19  1  0
 19 20  2  0
 19 21  1  0
 14 22  1  0
 22 23  2  0
 23  5  1  0
 23 11  1  0
  1 24  1  0
  1 25  1  0
  2 26  1  0
  8 27  1  0
  8 28  1  0
 10 29  1  0
 12 30  1  0
 13 31  1  0
 15 32  1  0
 17 33  1  0
 17 34  1  0
 17 35  1  0
 18 36  1  0
 18 37  1  0
 18 38  1  0
 22 39  1  0
M  CHG  1  21  -1
M  END
>  <UniqueID>  (77) 
75

>  <SMILES>  (77) 
C=CC(=O)n1c(C(N)=O)cc2ccc(NC(C)(C)C(=O)[O-])cc21

>  <Energy>  (77) 
82.139355967133

>  <Genealogy>  (77) 
C=CC(=O)n1c(C(N)=O)cc2ccc(NC(C)(C)C(=O)[O-])cc21 (protonated)
C=CC(=O)n1c(C(N)=O)cc2ccc(NC(C)(C)C(=O)[O-])cc21 (3D coordinates assigned)
C=CC(=O)n1c(C(N)=O)cc2ccc(NC(C)(C)C(=O)[O-])cc21 (optimized conformer: 82.139355967133 kcal/mol)

>  <smiles>  (77) 
C=CC(=O)n1c(C(N)=O)cc2ccc(NC(C)(C)C(=O)O)cc21

>  <score_type>  (77) 
oracle

>  <origin>  (77) 
adg

>  <m_score__min__energy>  (77) 
-7.5700000000000003

>  <m_primary>  (77) 
energy

$$$$
77:0
     RDKit          3D

 39 41  0  0  0  0  0  0  0  0999 V2000
  138.4660  160.6140  130.3100 C   0  0  0  0  0  0  0  0  0  0  0  0
  138.9500  159.6150  131.3070 C   0  0  0  0  0  0  0  0  0  0  0  0
  138.7390  158.2500  131.2530 C   0  0  0  0  0  0  0  0  0  0  0  0
  139.3170  157.7690  132.4080 C   0  0  0  0  0  0  0  0  0  0  0  0
  139.8140  158.8120  133.1010 N   0  0  0  0  0  0  0  0  0  0  0  0
  140.5590  158.7310  134.3520 C   0  0  0  0  0  0  0  0  0  0  0  0
  141.9570  159.2420  134.1460 C   0  0  0  0  0  0  0  0  0  0  0  0
  142.1860  160.6240  133.9370 C   0  0  0  0  0  0  0  0  0  0  0  0
  143.4850  161.1080  133.7140 C   0  0  0  0  0  0  0  0  0  0  0  0
  144.5280  160.1860  133.6830 C   0  0  0  0  0  0  0  0  0  0  0  0
  145.8790  160.3860  133.5130 C   0  0  0  0  0  0  0  0  0  0  0  0
  146.4480  159.1160  133.5720 C   0  0  0  0  0  0  0  0  0  0  0  0
  147.8880  158.8620  133.3750 C   0  0  0  0  0  0  0  0  0  0  0  0
  148.4890  157.6360  133.7960 N   0  0  0  0  0  0  0  0  0  0  0  0
  148.5910  159.7180  132.7740 O   0  0  0  0  0  0  0  0  0  0  0  0
  145.4910  158.1690  133.7850 N   0  0  0  0  0  0  0  0  0  0  0  0
  145.6860  156.7620  134.0090 C   0  0  0  0  0  0  0  0  0  0  0  0
  146.0090  156.3540  135.1580 O   0  0  0  0  0  0  0  0  0  0  0  0
  145.5130  155.8620  132.9440 O   0  0  0  0  0  0  0  0  0  0  0  0
  146.5140  155.0980  132.3220 C   0  0  0  0  0  0  0  0  0  0  0  0
  147.7860  155.2220  132.5960 C   0  0  0  0  0  0  0  0  0  0  0  0
  148.9910  155.3370  132.8530 O   0  0  0  0  0  0  0  0  0  0  0  0
  144.3190  158.8400  133.8490 C   0  0  0  0  0  0  0  0  0  0  0  0
  143.0380  158.3340  134.0970 C   0  0  0  0  0  0  0  0  0  0  0  0
  139.6000  159.9390  132.4410 N   0  0  0  0  0  0  0  0  0  0  0  0
  138.0449  161.4831  130.8366 H   0  0  0  0  0  0  0  0  0  0  0  0
  139.3064  160.9393  129.6792 H   0  0  0  0  0  0  0  0  0  0  0  0
  137.6899  160.1561  129.6792 H   0  0  0  0  0  0  0  0  0  0  0  0
  138.2260  157.6773  130.4663 H   0  0  0  0  0  0  0  0  0  0  0  0
  139.3645  156.7130  132.7123 H   0  0  0  0  0  0  0  0  0  0  0  0
  140.0561  159.3413  135.1167 H   0  0  0  0  0  0  0  0  0  0  0  0
  140.6006  157.6827  134.6827 H   0  0  0  0  0  0  0  0  0  0  0  0
  141.3382  161.3247  133.9495 H   0  0  0  0  0  0  0  0  0  0  0  0
  143.6729  162.1820  133.5683 H   0  0  0  0  0  0  0  0  0  0  0  0
  146.3984  161.3439  133.3627 H   0  0  0  0  0  0  0  0  0  0  0  0
  149.5170  157.4900  133.6850 H   0  0  0  0  0  0  0  0  0  0  0  0
  147.9060  156.8390  134.1370 H   0  0  0  0  0  0  0  0  0  0  0  0
  146.2123  154.3580  131.5662 H   0  0  0  0  0  0  0  0  0  0  0  0
  142.8770  157.2566  134.2499 H   0  0  0  0  0  0  0  0  0  0  0  0
  1  2  1  0
  2  3  1  0
  3  4  2  0
  4  5  1  0
  5  6  1  0
  6  7  1  0
  7  8  2  0
  8  9  1  0
  9 10  2  0
 10 11  1  0
 11 12  2  0
 12 13  1  0
 13 14  1  0
 13 15  2  0
 12 16  1  0
 16 17  1  0
 17 18  2  0
 17 19  1  0
 19 20  1  0
 20 21  2  0
 21 22  2  0
 16 23  1  0
 23 24  2  0
  5 25  1  0
 25  2  2  0
 24  7  1  0
 23 10  1  0
  1 26  1  0
  1 27  1  0
  1 28  1  0
  3 29  1  0
  4 30  1  0
  6 31  1  0
  6 32  1  0
  8 33  1  0
  9 34  1  0
 11 35  1  0
 14 36  1  0
 14 37  1  0
 20 38  1  0
 24 39  1  0
M  END
>  <UniqueID>  (78) 
76

>  <SMILES>  (78) 
Cc1ccn(Cc2ccc3cc(C(N)=O)n(C(=O)OC=C=O)c3c2)n1

>  <Energy>  (78) 
108.9947771388499

>  <Genealogy>  (78) 
Cc1ccn(Cc2ccc3cc(C(N)=O)n(C(=O)OC=C=O)c3c2)n1 (3D coordinates assigned)
Cc1ccn(Cc2ccc3cc(C(N)=O)n(C(=O)OC=C=O)c3c2)n1 (optimized conformer: 108.9947771388499 kcal/mol)

>  <smiles>  (78) 
Cc1ccn(Cc2ccc3cc(C(N)=O)n(C(=O)OC=C=O)c3c2)n1

>  <score_type>  (78) 
oracle

>  <origin>  (78) 
adg

>  <m_score__min__energy>  (78) 
-8.3699999999999992

>  <m_primary>  (78) 
energy

$$$$
78:0
     RDKit          3D

 50 51  0  0  0  0  0  0  0  0999 V2000
  141.2640  158.6080  136.6280 C   0  0  0  0  0  0  0  0  0  0  0  0
  141.2080  158.1930  135.2130 N   0  0  2  0  0  0  0  0  0  0  0  0
  140.0300  157.3360  134.9320 C   0  0  0  0  0  0  0  0  0  0  0  0
  139.3050  157.7160  133.6690 C   0  0  0  0  0  0  0  0  0  0  0  0
  138.7420  156.8200  132.9840 O   0  0  0  0  0  0  0  0  0  0  0  0
  139.2950  159.0610  133.2630 O   0  0  0  0  0  0  0  0  0  0  0  0
  139.0650  159.5420  131.9300 C   0  0  0  0  0  0  0  0  0  0  0  0
  137.7120  159.0290  131.3960 C   0  0  0  0  0  0  0  0  0  0  0  0
  139.1150  161.0820  131.8930 C   0  0  0  0  0  0  0  0  0  0  0  0
  140.1900  158.9850  131.0440 C   0  0  0  0  0  0  0  0  0  0  0  0
  142.4350  157.5460  134.7870 C   0  0  0  0  0  0  0  0  0  0  0  0
  142.9270  156.5980  135.4590 O   0  0  0  0  0  0  0  0  0  0  0  0
  143.0760  157.9140  133.5120 C   0  0  0  0  0  0  0  0  0  0  0  0
  142.6850  157.3980  132.4340 O   0  0  0  0  0  0  0  0  0  0  0  0
  144.1980  158.8010  133.5000 N   0  0  0  0  0  0  0  0  0  0  0  0
  144.2000  160.1570  133.6210 C   0  0  0  0  0  0  0  0  0  0  0  0
  143.0050  161.0210  133.7250 C   0  0  0  0  0  0  0  0  0  0  0  0
  141.7220  160.4680  134.0290 N   0  0  0  0  0  0  0  0  0  0  0  0
  143.1130  162.2660  133.5290 O   0  0  0  0  0  0  0  0  0  0  0  0
  145.5120  160.6400  133.6250 C   0  0  0  0  0  0  0  0  0  0  0  0
  146.3120  159.5230  133.5070 C   0  0  0  0  0  0  0  0  0  0  0  0
  147.6990  159.4110  133.4690 C   0  0  0  0  0  0  0  0  0  0  0  0
  148.2490  158.1230  133.3560 C   0  0  0  0  0  0  0  0  0  0  0  0
  147.4130  156.9770  133.2980 C   0  0  0  0  0  0  0  0  0  0  0  0
  148.0340  155.6150  133.1400 C   0  0  0  0  0  0  0  0  0  0  0  0
  147.2640  154.8410  132.2840 F   0  0  0  0  0  0  0  0  0  0  0  0
  149.3180  155.7010  132.6180 F   0  0  0  0  0  0  0  0  0  0  0  0
  148.0890  154.9960  134.3780 F   0  0  0  0  0  0  0  0  0  0  0  0
  146.0060  157.1340  133.3230 C   0  0  0  0  0  0  0  0  0  0  0  0
  145.4900  158.4290  133.4320 C   0  0  0  0  0  0  0  0  0  0  0  0
  141.1449  157.7256  137.2739 H   0  0  0  0  0  0  0  0  0  0  0  0
  142.2345  159.0837  136.8324 H   0  0  0  0  0  0  0  0  0  0  0  0
  140.4544  159.3240  136.8324 H   0  0  0  0  0  0  0  0  0  0  0  0
  141.0960  159.0740  134.6540 H   0  0  0  0  0  0  0  0  0  0  0  0
  140.3704  156.2941  134.8392 H   0  0  0  0  0  0  0  0  0  0  0  0
  139.3243  157.4688  135.7653 H   0  0  0  0  0  0  0  0  0  0  0  0
  137.0546  158.7798  132.2420 H   0  0  0  0  0  0  0  0  0  0  0  0
  137.2398  159.8105  130.7826 H   0  0  0  0  0  0  0  0  0  0  0  0
  137.8766  158.1309  130.7826 H   0  0  0  0  0  0  0  0  0  0  0  0
  139.1277  161.4732  132.9210 H   0  0  0  0  0  0  0  0  0  0  0  0
  140.0242  161.4068  131.3658 H   0  0  0  0  0  0  0  0  0  0  0  0
  138.2288  161.4651  131.3658 H   0  0  0  0  0  0  0  0  0  0  0  0
  140.9944  158.5867  131.6799 H   0  0  0  0  0  0  0  0  0  0  0  0
  139.7920  158.1799  130.4089 H   0  0  0  0  0  0  0  0  0  0  0  0
  140.5890  159.7896  130.4089 H   0  0  0  0  0  0  0  0  0  0  0  0
  141.3640  159.6320  133.5180 H   0  0  0  0  0  0  0  0  0  0  0  0
  145.8369  161.6879  133.7052 H   0  0  0  0  0  0  0  0  0  0  0  0
  148.3429  160.3011  133.5255 H   0  0  0  0  0  0  0  0  0  0  0  0
  149.3413  158.0010  133.3119 H   0  0  0  0  0  0  0  0  0  0  0  0
  145.3381  156.2623  133.2585 H   0  0  0  0  0  0  0  0  0  0  0  0
  1  2  1  0
  2  3  1  0
  3  4  1  0
  4  5  2  0
  4  6  1  0
  6  7  1  0
  7  8  1  0
  7  9  1  0
  7 10  1  0
  2 11  1  0
 11 12  2  0
 11 13  1  0
 13 14  2  0
 13 15  1  0
 15 16  1  0
 16 17  1  0
 17 18  1  0
 17 19  2  0
 16 20  2  0
 20 21  1  0
 21 22  2  0
 22 23  1  0
 23 24  2  0
 24 25  1  0
 25 26  1  0
 25 27  1  0
 25 28  1  0
 24 29  1  0
 29 30  2  0
 30 15  1  0
 30 21  1  0
  1 31  1  0
  1 32  1  0
  1 33  1  0
  2 34  1  6
  3 35  1  0
  3 36  1  0
  8 37  1  0
  8 38  1  0
  8 39  1  0
  9 40  1  0
  9 41  1  0
  9 42  1  0
 10 43  1  0
 10 44  1  0
 10 45  1  0
 18 46  1  0
 20 47  1  0
 22 48  1  0
 23 49  1  0
 29 50  1  0
M  CHG  2   2   1  18  -1
M  END
>  <UniqueID>  (79) 
77

>  <SMILES>  (79) 
C[N@H+](CC(=O)OC(C)(C)C)C(=O)C(=O)n1c(C([NH-])=O)cc2ccc(C(F)(F)F)cc21

>  <Energy>  (79) 
85.6455806454155

>  <Genealogy>  (79) 
C[NH+](CC(=O)OC(C)(C)C)C(=O)C(=O)n1c(C([NH-])=O)cc2ccc(C(F)(F)F)cc21 (protonated)
C[N@H+](CC(=O)OC(C)(C)C)C(=O)C(=O)n1c(C([NH-])=O)cc2ccc(C(F)(F)F)cc21 (chirality)
C[N@H+](CC(=O)OC(C)(C)C)C(=O)C(=O)n1c(C([NH-])=O)cc2ccc(C(F)(F)F)cc21 (3D coordinates assigned)
C[N@H+](CC(=O)OC(C)(C)C)C(=O)C(=O)n1c(C([NH-])=O)cc2ccc(C(F)(F)F)cc21 (optimized conformer: 85.6455806454155 kcal/mol)

>  <smiles>  (79) 
CN(CC(=O)OC(C)(C)C)C(=O)C(=O)n1c(C(N)=O)cc2ccc(C(F)(F)F)cc21

>  <score_type>  (79) 
oracle

>  <origin>  (79) 
adg

>  <m_score__min__energy>  (79) 
-6.4100000000000001

>  <m_primary>  (79) 
energy

$$$$
79:0
     RDKit          3D

 43 45  0  0  0  0  0  0  0  0999 V2000
  143.6170  161.9900  133.6940 N   0  0  0  0  0  0  0  0  0  0  0  0
  144.9840  161.7940  134.0450 C   0  0  0  0  0  0  0  0  0  0  0  0
  145.5930  162.6980  134.6780 O   0  0  0  0  0  0  0  0  0  0  0  0
  145.6760  160.5280  133.7300 C   0  0  0  0  0  0  0  0  0  0  0  0
  147.0500  160.4400  133.5100 C   0  0  0  0  0  0  0  0  0  0  0  0
  147.3060  159.1000  133.3400 C   0  0  0  0  0  0  0  0  0  0  0  0
  148.5060  158.4440  133.0800 C   0  0  0  0  0  0  0  0  0  0  0  0
  148.4730  157.0490  132.9210 C   0  0  0  0  0  0  0  0  0  0  0  0
  147.2490  156.3360  133.0120 C   0  0  0  0  0  0  0  0  0  0  0  0
  147.2260  154.9040  132.8360 N   0  0  0  0  0  0  0  0  0  0  0  0
  148.4210  154.2010  132.3490 C   0  0  0  0  0  0  0  0  0  0  0  0
  148.6650  152.8920  133.1120 C   0  0  0  0  0  0  0  0  0  0  0  0
  147.9450  151.6980  132.4630 C   0  0  0  0  0  0  0  0  0  0  0  0
  146.4780  151.7270  132.6110 N   0  0  0  0  0  0  0  0  0  0  0  0
  145.8010  152.9830  132.2370 C   0  0  0  0  0  0  0  0  0  0  0  0
  146.0330  154.1390  133.2220 C   0  0  0  0  0  0  0  0  0  0  0  0
  146.0530  157.0400  133.2800 C   0  0  0  0  0  0  0  0  0  0  0  0
  146.1180  158.4270  133.4540 C   0  0  0  0  0  0  0  0  0  0  0  0
  145.1050  159.2910  133.6910 N   0  0  0  0  0  0  0  0  0  0  0  0
  143.7080  158.9670  133.7730 C   0  0  0  0  0  0  0  0  0  0  0  0
  143.1670  158.2940  132.8550 O   0  0  0  0  0  0  0  0  0  0  0  0
  142.9580  159.4250  134.8660 O   0  0  0  0  0  0  0  0  0  0  0  0
  141.5760  159.6580  134.8520 C   0  0  0  0  0  0  0  0  0  0  0  0
  141.0300  160.3040  133.9170 O   0  0  0  0  0  0  0  0  0  0  0  0
  140.7520  159.1400  135.9470 C   0  0  0  0  0  0  0  0  0  0  0  0
  141.0790  159.3590  137.1440 O   0  0  0  0  0  0  0  0  0  0  0  0
  139.6060  158.4040  135.6720 O   0  0  0  0  0  0  0  0  0  0  0  0
  142.9670  161.1790  133.5930 H   0  0  0  0  0  0  0  0  0  0  0  0
  147.7749  161.2668  133.4790 H   0  0  0  0  0  0  0  0  0  0  0  0
  149.4512  159.0012  133.0015 H   0  0  0  0  0  0  0  0  0  0  0  0
  149.4069  156.5023  132.7236 H   0  0  0  0  0  0  0  0  0  0  0  0
  148.2881  153.9711  131.2815 H   0  0  0  0  0  0  0  0  0  0  0  0
  149.2905  154.8557  132.5081 H   0  0  0  0  0  0  0  0  0  0  0  0
  149.7457  152.6877  133.1283 H   0  0  0  0  0  0  0  0  0  0  0  0
  148.2652  153.0148  134.1294 H   0  0  0  0  0  0  0  0  0  0  0  0
  148.1839  151.6926  131.3893 H   0  0  0  0  0  0  0  0  0  0  0  0
  148.2984  150.7944  132.9813 H   0  0  0  0  0  0  0  0  0  0  0  0
  146.2550  151.5180  133.6120 H   0  0  0  0  0  0  0  0  0  0  0  0
  146.1697  153.2928  131.2480 H   0  0  0  0  0  0  0  0  0  0  0  0
  144.7210  152.7744  132.2420 H   0  0  0  0  0  0  0  0  0  0  0  0
  145.1569  154.8041  133.2142 H   0  0  0  0  0  0  0  0  0  0  0  0
  146.1828  153.7261  134.2305 H   0  0  0  0  0  0  0  0  0  0  0  0
  145.0921  156.5092  133.3503 H   0  0  0  0  0  0  0  0  0  0  0  0
  1  2  1  0
  2  3  2  0
  2  4  1  0
  4  5  2  0
  5  6  1  0
  6  7  2  0
  7  8  1  0
  8  9  2  0
  9 10  1  0
 10 11  1  0
 11 12  1  0
 12 13  1  0
 13 14  1  0
 14 15  1  0
 15 16  1  0
  9 17  1  0
 17 18  2  0
 18 19  1  0
 19 20  1  0
 20 21  2  0
 20 22  1  0
 22 23  1  0
 23 24  2  0
 23 25  1  0
 25 26  2  0
 25 27  1  0
 19  4  1  0
 18  6  1  0
 16 10  1  0
  1 28  1  0
  5 29  1  0
  7 30  1  0
  8 31  1  0
 11 32  1  0
 11 33  1  0
 12 34  1  0
 12 35  1  0
 13 36  1  0
 13 37  1  0
 14 38  1  0
 15 39  1  0
 15 40  1  0
 16 41  1  0
 16 42  1  0
 17 43  1  0
M  CHG  2   1  -1  27  -1
M  END
>  <UniqueID>  (80) 
78

>  <SMILES>  (80) 
[NH-]C(=O)c1cc2ccc(N3CCCNCC3)cc2n1C(=O)OC(=O)C(=O)[O-]

>  <Energy>  (80) 
93.76043796927358

>  <Genealogy>  (80) 
[NH-]C(=O)c1cc2ccc(N3CCCNCC3)cc2n1C(=O)OC(=O)C(=O)[O-] (protonated)
[NH-]C(=O)c1cc2ccc(N3CCCNCC3)cc2n1C(=O)OC(=O)C(=O)[O-] (3D coordinates assigned)
[NH-]C(=O)c1cc2ccc(N3CCCNCC3)cc2n1C(=O)OC(=O)C(=O)[O-] (nonaromatic ring conformer: 93.76043796927358 kcal/mol)

>  <smiles>  (80) 
NC(=O)c1cc2ccc(N3CCCNCC3)cc2n1C(=O)OC(=O)C(=O)O

>  <score_type>  (80) 
oracle

>  <origin>  (80) 
adg

>  <m_score__min__energy>  (80) 
-5.9900000000000002

>  <m_primary>  (80) 
energy

$$$$
80:0
     RDKit          3D

 40 41  0  0  0  0  0  0  0  0999 V2000
  148.8060  156.5580  132.9290 C   0  0  0  0  0  0  0  0  0  0  0  0
  147.8770  157.7160  133.1480 C   0  0  0  0  0  0  0  0  0  0  0  0
  148.3910  159.0350  133.2000 C   0  0  0  0  0  0  0  0  0  0  0  0
  147.5270  160.1320  133.3540 C   0  0  0  0  0  0  0  0  0  0  0  0
  146.1620  159.8800  133.4480 C   0  0  0  0  0  0  0  0  0  0  0  0
  145.1090  160.7580  133.5610 C   0  0  0  0  0  0  0  0  0  0  0  0
  143.9680  159.9610  133.5910 C   0  0  0  0  0  0  0  0  0  0  0  0
  142.6050  160.5010  133.7630 C   0  0  0  0  0  0  0  0  0  0  0  0
  141.4980  159.6420  134.0360 N   0  0  0  0  0  0  0  0  0  0  0  0
  142.4250  161.7470  133.7240 O   0  0  0  0  0  0  0  0  0  0  0  0
  144.2980  158.6420  133.4860 N   0  0  0  0  0  0  0  0  0  0  0  0
  143.3960  157.5300  133.3550 C   0  0  0  0  0  0  0  0  0  0  0  0
  143.0490  157.1280  132.2110 O   0  0  0  0  0  0  0  0  0  0  0  0
  142.9040  156.8970  134.5010 O   0  0  0  0  0  0  0  0  0  0  0  0
  142.1010  155.7230  134.4480 C   0  0  0  0  0  0  0  0  0  0  0  0
  140.7320  156.0730  134.6170 O   0  0  0  0  0  0  0  0  0  0  0  0
  140.1780  157.2480  134.1010 C   0  0  0  0  0  0  0  0  0  0  0  0
  140.1760  157.4620  132.8560 O   0  0  0  0  0  0  0  0  0  0  0  0
  139.6290  158.1820  134.9820 O   0  0  0  0  0  0  0  0  0  0  0  0
  139.4900  157.9300  136.3770 C   0  0  0  0  0  0  0  0  0  0  0  0
  140.6590  158.5470  137.1330 C   0  0  0  0  0  0  0  0  0  0  0  0
  141.8300  158.4310  136.3720 O   0  0  0  0  0  0  0  0  0  0  0  0
  145.6480  158.6090  133.4030 C   0  0  0  0  0  0  0  0  0  0  0  0
  146.4850  157.4990  133.2290 C   0  0  0  0  0  0  0  0  0  0  0  0
  149.1277  156.1570  133.9015 H   0  0  0  0  0  0  0  0  0  0  0  0
  148.2851  155.7721  132.3625 H   0  0  0  0  0  0  0  0  0  0  0  0
  149.6862  156.8961  132.3625 H   0  0  0  0  0  0  0  0  0  0  0  0
  149.4753  159.2016  133.1191 H   0  0  0  0  0  0  0  0  0  0  0  0
  147.9179  161.1592  133.3989 H   0  0  0  0  0  0  0  0  0  0  0  0
  145.1581  161.8555  133.6159 H   0  0  0  0  0  0  0  0  0  0  0  0
  140.5340  160.0370  134.1130 H   0  0  0  0  0  0  0  0  0  0  0  0
  141.6390  158.6280  134.2370 H   0  0  0  0  0  0  0  0  0  0  0  0
  142.2355  155.2312  133.4733 H   0  0  0  0  0  0  0  0  0  0  0  0
  142.4044  155.0363  135.2519 H   0  0  0  0  0  0  0  0  0  0  0  0
  138.5490  158.3725  136.7358 H   0  0  0  0  0  0  0  0  0  0  0  0
  139.4792  156.8437  136.5499 H   0  0  0  0  0  0  0  0  0  0  0  0
  140.4507  159.6102  137.3231 H   0  0  0  0  0  0  0  0  0  0  0  0
  140.7929  158.0192  138.0888 H   0  0  0  0  0  0  0  0  0  0  0  0
  141.6380  157.7520  135.6760 H   0  0  0  0  0  0  0  0  0  0  0  0
  146.0675  156.4838  133.1573 H   0  0  0  0  0  0  0  0  0  0  0  0
  1  2  1  0
  2  3  2  0
  3  4  1  0
  4  5  2  0
  5  6  1  0
  6  7  2  0
  7  8  1  0
  8  9  1  0
  8 10  2  0
  7 11  1  0
 11 12  1  0
 12 13  2  0
 12 14  1  0
 14 15  1  0
 15 16  1  0
 16 17  1  0
 17 18  2  0
 17 19  1  0
 19 20  1  0
 20 21  1  0
 21 22  1  0
 11 23  1  0
 23 24  2  0
 24  2  1  0
 23  5  1  0
  1 25  1  0
  1 26  1  0
  1 27  1  0
  3 28  1  0
  4 29  1  0
  6 30  1  0
  9 31  1  0
  9 32  1  0
 15 33  1  0
 15 34  1  0
 20 35  1  0
 20 36  1  0
 21 37  1  0
 21 38  1  0
 22 39  1  0
 24 40  1  0
M  END
>  <UniqueID>  (81) 
79

>  <SMILES>  (81) 
Cc1ccc2cc(C(N)=O)n(C(=O)OCOC(=O)OCCO)c2c1

>  <Energy>  (81) 
70.0033551306395

>  <Genealogy>  (81) 
Cc1ccc2cc(C(N)=O)n(C(=O)OCOC(=O)OCCO)c2c1 (3D coordinates assigned)
Cc1ccc2cc(C(N)=O)n(C(=O)OCOC(=O)OCCO)c2c1 (optimized conformer: 70.0033551306395 kcal/mol)

>  <smiles>  (81) 
Cc1ccc2cc(C(N)=O)n(C(=O)OCOC(=O)OCCO)c2c1

>  <score_type>  (81) 
oracle

>  <origin>  (81) 
adg

>  <m_score__min__energy>  (81) 
-5.3300000000000001

>  <m_primary>  (81) 
energy

$$$$
81:0
     RDKit          3D

 48 50  0  0  0  0  0  0  0  0999 V2000
  139.1460  157.3190  132.5910 N   0  0  0  0  0  0  0  0  0  0  0  0
  140.1620  156.6410  133.3290 C   0  0  0  0  0  0  0  0  0  0  0  0
  139.8560  155.6640  134.0610 O   0  0  0  0  0  0  0  0  0  0  0  0
  141.5520  157.1240  133.3090 C   0  0  0  0  0  0  0  0  0  0  0  0
  142.6490  156.2730  133.3490 C   0  0  0  0  0  0  0  0  0  0  0  0
  143.7470  157.0990  133.3150 C   0  0  0  0  0  0  0  0  0  0  0  0
  145.1000  156.7820  133.3770 C   0  0  0  0  0  0  0  0  0  0  0  0
  146.0240  157.8390  133.3640 C   0  0  0  0  0  0  0  0  0  0  0  0
  145.5900  159.1830  133.2850 C   0  0  0  0  0  0  0  0  0  0  0  0
  146.5690  160.2370  133.3190 N   0  0  0  0  0  0  0  0  0  0  0  0
  147.9960  160.0290  133.5710 C   0  0  0  0  0  0  0  0  0  0  0  0
  148.6370  159.1670  132.4790 C   0  0  0  0  0  0  0  0  0  0  0  0
  148.5500  159.8240  131.1570 N   0  0  0  0  0  0  0  0  0  0  0  0
  149.5990  159.3510  130.2490 C   0  0  0  0  0  0  0  0  0  0  0  0
  149.8380  160.4640  129.2530 C   0  0  0  0  0  0  0  0  0  0  0  0
  149.5700  161.7260  130.0420 C   0  0  0  0  0  0  0  0  0  0  0  0
  148.6960  161.2910  131.2150 C   0  0  0  0  0  0  0  0  0  0  0  0
  144.2030  159.4650  133.2320 C   0  0  0  0  0  0  0  0  0  0  0  0
  143.2990  158.3930  133.2360 C   0  0  0  0  0  0  0  0  0  0  0  0
  141.9430  158.4280  133.2230 N   0  0  0  0  0  0  0  0  0  0  0  0
  141.1000  159.5830  133.0320 C   0  0  0  0  0  0  0  0  0  0  0  0
  141.1400  160.5400  133.8530 O   0  0  0  0  0  0  0  0  0  0  0  0
  140.2560  159.6630  131.9200 O   0  0  0  0  0  0  0  0  0  0  0  0
  139.1400  160.5470  131.8410 C   0  0  0  0  0  0  0  0  0  0  0  0
  138.0100  159.8950  131.1080 C   0  0  0  0  0  0  0  0  0  0  0  0
  137.6620  160.3200  129.9740 O   0  0  0  0  0  0  0  0  0  0  0  0
  137.3550  158.8040  131.6640 O   0  0  0  0  0  0  0  0  0  0  0  0
  138.1660  156.9600  132.5970 H   0  0  0  0  0  0  0  0  0  0  0  0
  139.3640  158.1930  132.0630 H   0  0  0  0  0  0  0  0  0  0  0  0
  142.6408  155.1741  133.3975 H   0  0  0  0  0  0  0  0  0  0  0  0
  145.4355  155.7360  133.4344 H   0  0  0  0  0  0  0  0  0  0  0  0
  147.1005  157.6189  133.4160 H   0  0  0  0  0  0  0  0  0  0  0  0
  146.2390  161.2270  133.2460 H   0  0  0  0  0  0  0  0  0  0  0  0
  148.5007  161.0060  133.5980 H   0  0  0  0  0  0  0  0  0  0  0  0
  148.1050  159.5065  134.5328 H   0  0  0  0  0  0  0  0  0  0  0  0
  149.6955  159.0015  132.7281 H   0  0  0  0  0  0  0  0  0  0  0  0
  148.0955  158.2108  132.4283 H   0  0  0  0  0  0  0  0  0  0  0  0
  150.5208  159.1391  130.8106 H   0  0  0  0  0  0  0  0  0  0  0  0
  149.2982  158.4218  129.7429 H   0  0  0  0  0  0  0  0  0  0  0  0
  150.8751  160.4448  128.8868 H   0  0  0  0  0  0  0  0  0  0  0  0
  149.1989  160.3786  128.3618 H   0  0  0  0  0  0  0  0  0  0  0  0
  150.5130  162.1608  130.4049 H   0  0  0  0  0  0  0  0  0  0  0  0
  149.0790  162.4960  129.4288 H   0  0  0  0  0  0  0  0  0  0  0  0
  149.1724  161.5813  132.1630 H   0  0  0  0  0  0  0  0  0  0  0  0
  147.7100  161.7752  131.1564 H   0  0  0  0  0  0  0  0  0  0  0  0
  143.8424  160.5033  133.1886 H   0  0  0  0  0  0  0  0  0  0  0  0
  138.8106  160.8069  132.8578 H   0  0  0  0  0  0  0  0  0  0  0  0
  139.4413  161.4550  131.2981 H   0  0  0  0  0  0  0  0  0  0  0  0
  1  2  1  0
  2  3  2  0
  2  4  1  0
  4  5  2  0
  5  6  1  0
  6  7  2  0
  7  8  1  0
  8  9  2  0
  9 10  1  0
 10 11  1  0
 11 12  1  0
 12 13  1  0
 13 14  1  0
 14 15  1  0
 15 16  1  0
 16 17  1  0
  9 18  1  0
 18 19  2  0
 19 20  1  0
 20 21  1  0
 21 22  2  0
 21 23  1  0
 23 24  1  0
 24 25  1  0
 25 26  2  0
 25 27  1  0
 20  4  1  0
 19  6  1  0
 17 13  1  0
  1 28  1  0
  1 29  1  0
  5 30  1  0
  7 31  1  0
  8 32  1  0
 10 33  1  0
 11 34  1  0
 11 35  1  0
 12 36  1  0
 12 37  1  0
 14 38  1  0
 14 39  1  0
 15 40  1  0
 15 41  1  0
 16 42  1  0
 16 43  1  0
 17 44  1  0
 17 45  1  0
 18 46  1  0
 24 47  1  0
 24 48  1  0
M  CHG  1  27  -1
M  END
>  <UniqueID>  (82) 
80

>  <SMILES>  (82) 
NC(=O)c1cc2ccc(NCCN3CCCC3)cc2n1C(=O)OCC(=O)[O-]

>  <Energy>  (82) 
90.6886685087639

>  <Genealogy>  (82) 
NC(=O)c1cc2ccc(NCCN3CCCC3)cc2n1C(=O)OCC(=O)[O-] (protonated)
NC(=O)c1cc2ccc(NCCN3CCCC3)cc2n1C(=O)OCC(=O)[O-] (3D coordinates assigned)
NC(=O)c1cc2ccc(NCCN3CCCC3)cc2n1C(=O)OCC(=O)[O-] (nonaromatic ring conformer: 90.6886685087639 kcal/mol)

>  <smiles>  (82) 
NC(=O)c1cc2ccc(NCCN3CCCC3)cc2n1C(=O)OCC(=O)O

>  <score_type>  (82) 
oracle

>  <origin>  (82) 
adg

>  <m_score__min__energy>  (82) 
-7.9500000000000002

>  <m_primary>  (82) 
energy

$$$$
82:0
     RDKit          3D

 45 47  0  0  0  0  0  0  0  0999 V2000
  145.1310  161.7070  134.1860 C   0  0  0  0  0  0  0  0  0  0  0  0
  144.8530  160.4450  133.8630 C   0  0  0  0  0  0  0  0  0  0  0  0
  143.4780  159.9160  133.8150 C   0  0  0  0  0  0  0  0  0  0  0  0
  142.5590  160.6440  133.3560 O   0  0  0  0  0  0  0  0  0  0  0  0
  143.1670  158.5810  134.2480 N   0  0  0  0  0  0  0  0  0  0  0  0
  142.0330  158.1360  134.8570 C   0  0  0  0  0  0  0  0  0  0  0  0
  140.8240  158.9400  135.1350 C   0  0  0  0  0  0  0  0  0  0  0  0
  140.7050  159.6970  136.3370 N   0  0  0  0  0  0  0  0  0  0  0  0
  139.8920  158.9780  134.2870 O   0  0  0  0  0  0  0  0  0  0  0  0
  142.1390  156.7740  135.1410 C   0  0  0  0  0  0  0  0  0  0  0  0
  143.3760  156.3970  134.6680 C   0  0  0  0  0  0  0  0  0  0  0  0
  144.0040  155.1560  134.6830 C   0  0  0  0  0  0  0  0  0  0  0  0
  145.2920  155.0620  134.1260 C   0  0  0  0  0  0  0  0  0  0  0  0
  145.9210  156.2020  133.5640 C   0  0  0  0  0  0  0  0  0  0  0  0
  147.3150  156.0980  133.0110 C   0  0  0  0  0  0  0  0  0  0  0  0
  148.0220  157.4110  133.1530 C   0  0  0  0  0  0  0  0  0  0  0  0
  148.0870  157.9630  134.2850 O   0  0  0  0  0  0  0  0  0  0  0  0
  148.6680  158.0060  132.0180 N   0  0  0  0  0  0  0  0  0  0  0  0
  149.3820  159.2860  132.1100 C   0  0  0  0  0  0  0  0  0  0  0  0
  148.3930  160.4460  132.1640 C   0  0  0  0  0  0  0  0  0  0  0  0
  148.1380  160.8530  130.7160 C   0  0  0  0  0  0  0  0  0  0  0  0
  149.2530  160.2310  129.8770 C   0  0  0  0  0  0  0  0  0  0  0  0
  150.2010  159.5470  130.8510 C   0  0  0  0  0  0  0  0  0  0  0  0
  145.2560  157.4480  133.5770 C   0  0  0  0  0  0  0  0  0  0  0  0
  143.9730  157.5070  134.1300 C   0  0  0  0  0  0  0  0  0  0  0  0
  146.1753  162.0521  134.2071 H   0  0  0  0  0  0  0  0  0  0  0  0
  144.3163  162.4041  134.4317 H   0  0  0  0  0  0  0  0  0  0  0  0
  145.6858  159.7681  133.6216 H   0  0  0  0  0  0  0  0  0  0  0  0
  139.8060  159.7270  136.8650 H   0  0  0  0  0  0  0  0  0  0  0  0
  141.3926  156.1366  135.6375 H   0  0  0  0  0  0  0  0  0  0  0  0
  143.5085  154.2751  135.1172 H   0  0  0  0  0  0  0  0  0  0  0  0
  145.8165  154.0951  134.1263 H   0  0  0  0  0  0  0  0  0  0  0  0
  147.8690  155.3244  133.5629 H   0  0  0  0  0  0  0  0  0  0  0  0
  147.2616  155.8302  131.9454 H   0  0  0  0  0  0  0  0  0  0  0  0
  148.6440  157.4920  131.1080 H   0  0  0  0  0  0  0  0  0  0  0  0
  150.0119  159.2226  133.0096 H   0  0  0  0  0  0  0  0  0  0  0  0
  147.4551  160.1260  132.6413 H   0  0  0  0  0  0  0  0  0  0  0  0
  148.7905  161.2856  132.7532 H   0  0  0  0  0  0  0  0  0  0  0  0
  147.1595  160.4759  130.3839 H   0  0  0  0  0  0  0  0  0  0  0  0
  148.1300  161.9479  130.6104 H   0  0  0  0  0  0  0  0  0  0  0  0
  148.8341  159.4949  129.1751 H   0  0  0  0  0  0  0  0  0  0  0  0
  149.7770  160.9956  129.2847 H   0  0  0  0  0  0  0  0  0  0  0  0
  150.5671  158.5997  130.4284 H   0  0  0  0  0  0  0  0  0  0  0  0
  151.0835  160.1686  131.0626 H   0  0  0  0  0  0  0  0  0  0  0  0
  145.7345  158.3479  133.1632 H   0  0  0  0  0  0  0  0  0  0  0  0
  1  2  2  0
  2  3  1  0
  3  4  2  0
  3  5  1  0
  5  6  1  0
  6  7  1  0
  7  8  1  0
  7  9  2  0
  6 10  2  0
 10 11  1  0
 11 12  2  0
 12 13  1  0
 13 14  2  0
 14 15  1  0
 15 16  1  0
 16 17  2  0
 16 18  1  0
 18 19  1  0
 19 20  1  0
 20 21  1  0
 21 22  1  0
 22 23  1  0
 14 24  1  0
 24 25  2  0
 25  5  1  0
 25 11  1  0
 23 19  1  0
  1 26  1  0
  1 27  1  0
  2 28  1  0
  8 29  1  0
 10 30  1  0
 12 31  1  0
 13 32  1  0
 15 33  1  0
 15 34  1  0
 18 35  1  0
 19 36  1  0
 20 37  1  0
 20 38  1  0
 21 39  1  0
 21 40  1  0
 22 41  1  0
 22 42  1  0
 23 43  1  0
 23 44  1  0
 24 45  1  0
M  CHG  1   8  -1
M  END
>  <UniqueID>  (83) 
81

>  <SMILES>  (83) 
C=CC(=O)n1c(C([NH-])=O)cc2ccc(CC(=O)NC3CCCC3)cc21

>  <Energy>  (83) 
81.00730754183827

>  <Genealogy>  (83) 
C=CC(=O)n1c(C([NH-])=O)cc2ccc(CC(=O)NC3CCCC3)cc21 (protonated)
C=CC(=O)n1c(C([NH-])=O)cc2ccc(CC(=O)NC3CCCC3)cc21 (3D coordinates assigned)
C=CC(=O)n1c(C([NH-])=O)cc2ccc(CC(=O)NC3CCCC3)cc21 (nonaromatic ring conformer: 81.00730754183827 kcal/mol)

>  <smiles>  (83) 
C=CC(=O)n1c(C(N)=O)cc2ccc(CC(=O)NC3CCCC3)cc21

>  <score_type>  (83) 
oracle

>  <origin>  (83) 
adg

>  <m_score__min__energy>  (83) 
-9.0600000000000005

>  <m_primary>  (83) 
energy

$$$$
83:0
     RDKit          3D

 32 34  0  0  0  0  0  0  0  0999 V2000
  149.6080  156.9040  132.4150 N   0  0  0  0  0  0  0  0  0  0  0  0
  148.5520  156.0990  132.9350 C   0  0  0  0  0  0  0  0  0  0  0  0
  148.7780  154.8910  133.2140 O   0  0  0  0  0  0  0  0  0  0  0  0
  147.1960  156.6550  133.1250 C   0  0  0  0  0  0  0  0  0  0  0  0
  146.0390  155.8780  133.1940 C   0  0  0  0  0  0  0  0  0  0  0  0
  145.0050  156.7770  133.3450 C   0  0  0  0  0  0  0  0  0  0  0  0
  143.6400  156.5600  133.5030 C   0  0  0  0  0  0  0  0  0  0  0  0
  142.8110  157.6800  133.6830 C   0  0  0  0  0  0  0  0  0  0  0  0
  143.3530  158.9920  133.6910 C   0  0  0  0  0  0  0  0  0  0  0  0
  142.4630  160.1790  133.9500 C   0  0  0  0  0  0  0  0  0  0  0  0
  141.3950  160.1890  133.0690 F   0  0  0  0  0  0  0  0  0  0  0  0
  143.1650  161.3630  133.7920 F   0  0  0  0  0  0  0  0  0  0  0  0
  141.9800  160.1130  135.2430 F   0  0  0  0  0  0  0  0  0  0  0  0
  144.7490  159.1690  133.5480 C   0  0  0  0  0  0  0  0  0  0  0  0
  145.5460  158.0350  133.3620 C   0  0  0  0  0  0  0  0  0  0  0  0
  146.8850  157.9750  133.2290 N   0  0  0  0  0  0  0  0  0  0  0  0
  147.7820  159.0910  133.2970 C   0  0  0  0  0  0  0  0  0  0  0  0
  148.7450  159.0690  134.1070 O   0  0  0  0  0  0  0  0  0  0  0  0
  147.6500  160.2190  132.3230 C   0  0  0  0  0  0  0  0  0  0  0  0
  148.8370  160.2370  131.4170 C   0  0  0  0  0  0  0  0  0  0  0  0
  148.8660  160.8300  130.2090 N   0  0  0  0  0  0  0  0  0  0  0  0
  150.0540  160.5200  129.7070 N   0  0  0  0  0  0  0  0  0  0  0  0
  150.7230  159.7590  130.5620 N   0  0  0  0  0  0  0  0  0  0  0  0
  149.9770  159.5650  131.6340 N   0  0  0  0  0  0  0  0  0  0  0  0
  149.9780  157.7170  132.9550 H   0  0  0  0  0  0  0  0  0  0  0  0
  145.9673  154.7817  133.1395 H   0  0  0  0  0  0  0  0  0  0  0  0
  143.2224  155.5425  133.4875 H   0  0  0  0  0  0  0  0  0  0  0  0
  141.7287  157.5385  133.8194 H   0  0  0  0  0  0  0  0  0  0  0  0
  145.1965  160.1733  133.5822 H   0  0  0  0  0  0  0  0  0  0  0  0
  146.7357  160.0832  131.7266 H   0  0  0  0  0  0  0  0  0  0  0  0
  147.5928  161.1712  132.8708 H   0  0  0  0  0  0  0  0  0  0  0  0
  150.2400  158.9840  132.4620 H   0  0  0  0  0  0  0  0  0  0  0  0
  1  2  1  0
  2  3  2  0
  2  4  1  0
  4  5  2  0
  5  6  1  0
  6  7  2  0
  7  8  1  0
  8  9  2  0
  9 10  1  0
 10 11  1  0
 10 12  1  0
 10 13  1  0
  9 14  1  0
 14 15  2  0
 15 16  1  0
 16 17  1  0
 17 18  2  0
 17 19  1  0
 19 20  1  0
 20 21  2  0
 21 22  1  0
 22 23  1  0
 23 24  2  0
 16  4  1  0
 24 20  1  0
 15  6  1  0
  1 25  1  0
  5 26  1  0
  7 27  1  0
  8 28  1  0
 14 29  1  0
 19 30  1  0
 19 31  1  0
 24 32  1  0
M  CHG  3   1  -1  22  -1  24   1
M  END
>  <UniqueID>  (84) 
82

>  <SMILES>  (84) 
[NH-]C(=O)c1cc2ccc(C(F)(F)F)cc2n1C(=O)Cc1n[n-]n[nH+]1

>  <Energy>  (84) 
111.53331263815383

>  <Genealogy>  (84) 
[NH-]C(=O)c1cc2ccc(C(F)(F)F)cc2n1C(=O)Cc1n[n-]n[nH+]1 (protonated)
[NH-]C(=O)c1cc2ccc(C(F)(F)F)cc2n1C(=O)Cc1n[n-]n[nH+]1 (3D coordinates assigned)
[NH-]C(=O)c1cc2ccc(C(F)(F)F)cc2n1C(=O)Cc1n[n-]n[nH+]1 (optimized conformer: 111.53331263815383 kcal/mol)

>  <smiles>  (84) 
NC(=O)c1cc2ccc(C(F)(F)F)cc2n1C(=O)Cc1nn[nH]n1

>  <score_type>  (84) 
oracle

>  <origin>  (84) 
adg

>  <m_score__min__energy>  (84) 
-7.3300000000000001

>  <m_primary>  (84) 
energy

$$$$
84:0
     RDKit          3D

 38 39  0  0  0  0  0  0  0  0999 V2000
  146.1010  154.0630  133.7360 C   0  0  0  0  0  0  0  0  0  0  0  0
  146.7350  154.9320  134.7320 N   0  0  0  0  0  0  0  0  0  0  0  0
  146.9270  154.4460  136.1030 C   0  0  0  0  0  0  0  0  0  0  0  0
  147.2750  156.2230  134.3690 C   0  0  0  0  0  0  0  0  0  0  0  0
  148.1140  156.7790  135.1290 O   0  0  0  0  0  0  0  0  0  0  0  0
  146.8780  156.9300  133.1320 C   0  0  0  0  0  0  0  0  0  0  0  0
  146.9980  156.3690  132.0110 O   0  0  0  0  0  0  0  0  0  0  0  0
  146.2960  158.2430  133.2020 N   0  0  0  0  0  0  0  0  0  0  0  0
  146.9320  159.4370  133.0430 C   0  0  0  0  0  0  0  0  0  0  0  0
  148.3320  159.6180  132.6070 C   0  0  0  0  0  0  0  0  0  0  0  0
  149.4090  158.9570  133.2730 N   0  0  0  0  0  0  0  0  0  0  0  0
  148.5770  160.3340  131.5990 O   0  0  0  0  0  0  0  0  0  0  0  0
  146.0750  160.4930  133.3430 C   0  0  0  0  0  0  0  0  0  0  0  0
  144.8800  159.9030  133.6920 C   0  0  0  0  0  0  0  0  0  0  0  0
  143.6890  160.4820  134.1220 C   0  0  0  0  0  0  0  0  0  0  0  0
  142.6330  159.6250  134.4800 C   0  0  0  0  0  0  0  0  0  0  0  0
  142.7880  158.2180  134.4040 C   0  0  0  0  0  0  0  0  0  0  0  0
  141.6710  157.3110  134.8390 C   0  0  0  0  0  0  0  0  0  0  0  0
  140.4660  158.1180  135.1990 C   0  0  0  0  0  0  0  0  0  0  0  0
  140.3550  158.6920  136.4990 N   0  0  0  0  0  0  0  0  0  0  0  0
  139.5290  158.2600  134.3690 O   0  0  0  0  0  0  0  0  0  0  0  0
  144.0160  157.6690  133.9760 C   0  0  0  0  0  0  0  0  0  0  0  0
  145.0420  158.5450  133.6040 C   0  0  0  0  0  0  0  0  0  0  0  0
  145.5271  153.2764  134.2479 H   0  0  0  0  0  0  0  0  0  0  0  0
  145.4245  154.6596  133.1064 H   0  0  0  0  0  0  0  0  0  0  0  0
  146.8756  153.6009  133.1064 H   0  0  0  0  0  0  0  0  0  0  0  0
  146.6189  155.2258  136.8150 H   0  0  0  0  0  0  0  0  0  0  0  0
  146.3177  153.5439  136.2609 H   0  0  0  0  0  0  0  0  0  0  0  0
  147.9883  154.2039  136.2609 H   0  0  0  0  0  0  0  0  0  0  0  0
  150.3950  159.1490  132.9900 H   0  0  0  0  0  0  0  0  0  0  0  0
  149.2310  158.2130  133.9840 H   0  0  0  0  0  0  0  0  0  0  0  0
  146.3035  161.5685  133.3086 H   0  0  0  0  0  0  0  0  0  0  0  0
  143.5776  161.5748  134.1798 H   0  0  0  0  0  0  0  0  0  0  0  0
  141.6780  160.0504  134.8221 H   0  0  0  0  0  0  0  0  0  0  0  0
  141.4177  156.6255  134.0169 H   0  0  0  0  0  0  0  0  0  0  0  0
  141.9956  156.7359  135.7187 H   0  0  0  0  0  0  0  0  0  0  0  0
  139.4340  159.0250  136.8620 H   0  0  0  0  0  0  0  0  0  0  0  0
  144.1628  156.5796  133.9359 H   0  0  0  0  0  0  0  0  0  0  0  0
  1  2  1  0
  2  3  1  0
  2  4  1  0
  4  5  2  0
  4  6  1  0
  6  7  2  0
  6  8  1  0
  8  9  1  0
  9 10  1  0
 10 11  1  0
 10 12  2  0
  9 13  2  0
 13 14  1  0
 14 15  2  0
 15 16  1  0
 16 17  2  0
 17 18  1  0
 18 19  1  0
 19 20  1  0
 19 21  2  0
 17 22  1  0
 22 23  2  0
 23  8  1  0
 23 14  1  0
  1 24  1  0
  1 25  1  0
  1 26  1  0
  3 27  1  0
  3 28  1  0
  3 29  1  0
 11 30  1  0
 11 31  1  0
 13 32  1  0
 15 33  1  0
 16 34  1  0
 18 35  1  0
 18 36  1  0
 20 37  1  0
 22 38  1  0
M  CHG  1  20  -1
M  END
>  <UniqueID>  (85) 
83

>  <SMILES>  (85) 
CN(C)C(=O)C(=O)n1c(C(N)=O)cc2ccc(CC([NH-])=O)cc21

>  <Energy>  (85) 
75.69616339866035

>  <Genealogy>  (85) 
CN(C)C(=O)C(=O)n1c(C(N)=O)cc2ccc(CC([NH-])=O)cc21 (protonated)
CN(C)C(=O)C(=O)n1c(C(N)=O)cc2ccc(CC([NH-])=O)cc21 (3D coordinates assigned)
CN(C)C(=O)C(=O)n1c(C(N)=O)cc2ccc(CC([NH-])=O)cc21 (optimized conformer: 75.69616339866035 kcal/mol)

>  <smiles>  (85) 
CN(C)C(=O)C(=O)n1c(C(N)=O)cc2ccc(CC(N)=O)cc21

>  <score_type>  (85) 
oracle

>  <origin>  (85) 
adg

>  <m_score__min__energy>  (85) 
-7.3399999999999999

>  <m_primary>  (85) 
energy

$$$$
85:0
     RDKit          3D

 42 43  0  0  0  0  0  0  0  0999 V2000
  149.4550  160.6120  130.6160 C   0  0  0  0  0  0  0  0  0  0  0  0
  149.5600  159.5270  131.1300 C   0  0  0  0  0  0  0  0  0  0  0  0
  149.6830  158.2060  131.7570 C   0  0  0  0  0  0  0  0  0  0  0  0
  148.8950  158.1550  132.9880 N   0  0  0  0  0  0  0  0  0  0  0  0
  147.7080  158.9350  133.2280 C   0  0  0  0  0  0  0  0  0  0  0  0
  147.7680  160.3300  133.4950 C   0  0  0  0  0  0  0  0  0  0  0  0
  146.5960  161.0670  133.7330 C   0  0  0  0  0  0  0  0  0  0  0  0
  145.3790  160.3950  133.6810 C   0  0  0  0  0  0  0  0  0  0  0  0
  144.0990  160.8560  133.8890 C   0  0  0  0  0  0  0  0  0  0  0  0
  143.2720  159.7470  133.7160 C   0  0  0  0  0  0  0  0  0  0  0  0
  141.7970  159.8030  133.7970 C   0  0  0  0  0  0  0  0  0  0  0  0
  140.9820  159.3420  132.7210 N   0  0  0  0  0  0  0  0  0  0  0  0
  141.2460  160.2900  134.8200 O   0  0  0  0  0  0  0  0  0  0  0  0
  144.0150  158.6470  133.4080 N   0  0  0  0  0  0  0  0  0  0  0  0
  143.5520  157.3060  133.1830 C   0  0  0  0  0  0  0  0  0  0  0  0
  142.7160  157.0910  132.2640 O   0  0  0  0  0  0  0  0  0  0  0  0
  144.0370  156.1870  134.0330 C   0  0  0  0  0  0  0  0  0  0  0  0
  143.3480  155.8180  135.1200 C   0  0  0  0  0  0  0  0  0  0  0  0
  145.2530  155.4910  133.6870 N   0  0  0  0  0  0  0  0  0  0  0  0
  145.5670  155.2090  132.2820 C   0  0  0  0  0  0  0  0  0  0  0  0
  146.2190  155.1180  134.7300 C   0  0  0  0  0  0  0  0  0  0  0  0
  147.5340  155.7860  134.4810 C   0  0  0  0  0  0  0  0  0  0  0  0
  147.9720  156.6470  135.2890 O   0  0  0  0  0  0  0  0  0  0  0  0
  148.2700  155.4700  133.3470 O   0  0  0  0  0  0  0  0  0  0  0  0
  145.3010  159.0580  133.4020 C   0  0  0  0  0  0  0  0  0  0  0  0
  146.4500  158.2920  133.1940 C   0  0  0  0  0  0  0  0  0  0  0  0
  149.3592  161.6023  130.1469 H   0  0  0  0  0  0  0  0  0  0  0  0
  149.3177  157.4376  131.0598 H   0  0  0  0  0  0  0  0  0  0  0  0
  150.7398  158.0213  131.9999 H   0  0  0  0  0  0  0  0  0  0  0  0
  149.1930  157.4640  133.7140 H   0  0  0  0  0  0  0  0  0  0  0  0
  148.7434  160.8382  133.5155 H   0  0  0  0  0  0  0  0  0  0  0  0
  146.6393  162.1437  133.9540 H   0  0  0  0  0  0  0  0  0  0  0  0
  143.7931  161.8826  134.1390 H   0  0  0  0  0  0  0  0  0  0  0  0
  141.3990  158.8260  131.9160 H   0  0  0  0  0  0  0  0  0  0  0  0
  143.7107  154.9894  135.7460 H   0  0  0  0  0  0  0  0  0  0  0  0
  142.4192  156.3434  135.3871 H   0  0  0  0  0  0  0  0  0  0  0  0
  146.3845  154.4748  132.2292 H   0  0  0  0  0  0  0  0  0  0  0  0
  144.6759  154.8021  131.7817 H   0  0  0  0  0  0  0  0  0  0  0  0
  145.8761  156.1386  131.7817 H   0  0  0  0  0  0  0  0  0  0  0  0
  145.8328  155.4310  135.7113 H   0  0  0  0  0  0  0  0  0  0  0  0
  146.3621  154.0275  134.7124 H   0  0  0  0  0  0  0  0  0  0  0  0
  146.3773  157.2104  133.0075 H   0  0  0  0  0  0  0  0  0  0  0  0
  1  2  3  0
  2  3  1  0
  3  4  1  0
  4  5  1  0
  5  6  2  0
  6  7  1  0
  7  8  2  0
  8  9  1  0
  9 10  2  0
 10 11  1  0
 11 12  1  0
 11 13  2  0
 10 14  1  0
 14 15  1  0
 15 16  2  0
 15 17  1  0
 17 18  2  0
 17 19  1  0
 19 20  1  0
 19 21  1  0
 21 22  1  0
 22 23  2  0
 22 24  1  0
 14 25  1  0
 25 26  2  0
 26  5  1  0
 25  8  1  0
  1 27  1  0
  3 28  1  0
  3 29  1  0
  4 30  1  0
  6 31  1  0
  7 32  1  0
  9 33  1  0
 12 34  1  0
 18 35  1  0
 18 36  1  0
 20 37  1  0
 20 38  1  0
 20 39  1  0
 21 40  1  0
 21 41  1  0
 26 42  1  0
M  CHG  2  12  -1  24  -1
M  END
>  <UniqueID>  (86) 
84

>  <SMILES>  (86) 
C#CCNc1ccc2cc(C([NH-])=O)n(C(=O)C(=C)N(C)CC(=O)[O-])c2c1

>  <Energy>  (86) 
78.91722216692321

>  <Genealogy>  (86) 
C#CCNc1ccc2cc(C([NH-])=O)n(C(=O)C(=C)N(C)CC(=O)[O-])c2c1 (protonated)
C#CCNc1ccc2cc(C([NH-])=O)n(C(=O)C(=C)N(C)CC(=O)[O-])c2c1 (3D coordinates assigned)
C#CCNc1ccc2cc(C([NH-])=O)n(C(=O)C(=C)N(C)CC(=O)[O-])c2c1 (optimized conformer: 78.91722216692321 kcal/mol)

>  <smiles>  (86) 
C#CCNc1ccc2cc(C(N)=O)n(C(=O)C(=C)N(C)CC(=O)O)c2c1

>  <score_type>  (86) 
oracle

>  <origin>  (86) 
adg

>  <m_score__min__energy>  (86) 
-7.0199999999999996

>  <m_primary>  (86) 
energy

$$$$
86:0
     RDKit          3D

 35 36  0  0  0  0  0  0  0  0999 V2000
  139.8950  158.5880  132.0560 C   0  0  0  0  0  0  0  0  0  0  0  0
  140.1110  158.1710  133.4490 N   0  0  0  0  0  0  0  0  0  0  0  0
  138.8330  157.8580  134.1050 C   0  0  0  0  0  0  0  0  0  0  0  0
  140.9800  157.0210  133.4920 C   0  0  0  0  0  0  0  0  0  0  0  0
  140.5870  155.9250  133.0050 O   0  0  0  0  0  0  0  0  0  0  0  0
  142.2540  157.1340  134.0700 O   0  0  0  0  0  0  0  0  0  0  0  0
  143.4480  157.3270  133.3640 C   0  0  0  0  0  0  0  0  0  0  0  0
  143.9180  156.4180  132.6270 O   0  0  0  0  0  0  0  0  0  0  0  0
  144.1570  158.5680  133.5030 N   0  0  0  0  0  0  0  0  0  0  0  0
  143.6420  159.8070  133.7510 C   0  0  0  0  0  0  0  0  0  0  0  0
  142.2350  160.1140  134.0850 C   0  0  0  0  0  0  0  0  0  0  0  0
  141.6340  159.6010  135.2710 N   0  0  0  0  0  0  0  0  0  0  0  0
  141.5700  160.8780  133.3370 O   0  0  0  0  0  0  0  0  0  0  0  0
  144.6510  160.7670  133.7330 C   0  0  0  0  0  0  0  0  0  0  0  0
  145.8120  160.0740  133.4750 C   0  0  0  0  0  0  0  0  0  0  0  0
  147.1190  160.5320  133.3390 C   0  0  0  0  0  0  0  0  0  0  0  0
  148.1200  159.5920  133.0440 C   0  0  0  0  0  0  0  0  0  0  0  0
  147.7960  158.2230  132.8830 C   0  0  0  0  0  0  0  0  0  0  0  0
  148.8210  157.2770  132.5700 N   0  0  0  0  0  0  0  0  0  0  0  0
  146.4600  157.7930  133.0250 C   0  0  0  0  0  0  0  0  0  0  0  0
  145.4850  158.7490  133.3400 C   0  0  0  0  0  0  0  0  0  0  0  0
  139.3891  159.5646  132.0399 H   0  0  0  0  0  0  0  0  0  0  0  0
  140.8646  158.6688  131.5429 H   0  0  0  0  0  0  0  0  0  0  0  0
  139.2696  157.8426  131.5429 H   0  0  0  0  0  0  0  0  0  0  0  0
  140.5610  158.9660  133.9640 H   0  0  0  0  0  0  0  0  0  0  0  0
  138.9637  157.8900  135.1967 H   0  0  0  0  0  0  0  0  0  0  0  0
  138.0759  158.5973  133.8045 H   0  0  0  0  0  0  0  0  0  0  0  0
  138.5032  156.8525  133.8045 H   0  0  0  0  0  0  0  0  0  0  0  0
  141.2660  158.6240  135.3080 H   0  0  0  0  0  0  0  0  0  0  0  0
  144.5429  161.8501  133.8915 H   0  0  0  0  0  0  0  0  0  0  0  0
  147.3609  161.5983  133.4590 H   0  0  0  0  0  0  0  0  0  0  0  0
  149.1639  159.9219  132.9372 H   0  0  0  0  0  0  0  0  0  0  0  0
  148.7960  156.7390  131.6750 H   0  0  0  0  0  0  0  0  0  0  0  0
  149.6110  157.1070  133.2320 H   0  0  0  0  0  0  0  0  0  0  0  0
  146.1906  156.7348  132.8919 H   0  0  0  0  0  0  0  0  0  0  0  0
  1  2  1  0
  2  3  1  0
  2  4  1  0
  4  5  2  0
  4  6  1  0
  6  7  1  0
  7  8  2  0
  7  9  1  0
  9 10  1  0
 10 11  1  0
 11 12  1  0
 11 13  2  0
 10 14  2  0
 14 15  1  0
 15 16  2  0
 16 17  1  0
 17 18  2  0
 18 19  1  0
 18 20  1  0
 20 21  2  0
 21  9  1  0
 21 15  1  0
  1 22  1  0
  1 23  1  0
  1 24  1  0
  2 25  1  0
  3 26  1  0
  3 27  1  0
  3 28  1  0
 12 29  1  0
 14 30  1  0
 16 31  1  0
 17 32  1  0
 19 33  1  0
 19 34  1  0
 20 35  1  0
M  CHG  2   2   1  12  -1
M  END
>  <UniqueID>  (87) 
85

>  <SMILES>  (87) 
C[NH+](C)C(=O)OC(=O)n1c(C([NH-])=O)cc2ccc(N)cc21

>  <Energy>  (87) 
73.89201063259728

>  <Genealogy>  (87) 
C[NH+](C)C(=O)OC(=O)n1c(C([NH-])=O)cc2ccc(N)cc21 (protonated)
C[NH+](C)C(=O)OC(=O)n1c(C([NH-])=O)cc2ccc(N)cc21 (3D coordinates assigned)
C[NH+](C)C(=O)OC(=O)n1c(C([NH-])=O)cc2ccc(N)cc21 (optimized conformer: 73.89201063259728 kcal/mol)

>  <smiles>  (87) 
CN(C)C(=O)OC(=O)n1c(C(N)=O)cc2ccc(N)cc21

>  <score_type>  (87) 
oracle

>  <origin>  (87) 
adg

>  <m_score__min__energy>  (87) 
-5.96

>  <m_primary>  (87) 
energy

$$$$
87:0
     RDKit          3D

 34 35  0  0  0  0  0  0  0  0999 V2000
  149.5910  151.8620  133.6680 C   0  0  0  0  0  0  0  0  0  0  0  0
  148.9490  152.2640  132.3380 C   0  0  0  0  0  0  0  0  0  0  0  0
  148.0070  151.1670  131.8470 C   0  0  0  0  0  0  0  0  0  0  0  0
  148.2080  153.4750  132.4900 O   0  0  0  0  0  0  0  0  0  0  0  0
  148.8020  154.7310  132.6610 C   0  0  0  0  0  0  0  0  0  0  0  0
  149.9680  154.9490  132.2340 O   0  0  0  0  0  0  0  0  0  0  0  0
  148.0630  155.7860  133.2970 N   0  0  0  0  0  0  0  0  0  0  0  0
  147.1170  155.6690  134.2710 C   0  0  0  0  0  0  0  0  0  0  0  0
  146.7820  154.4350  135.0110 C   0  0  0  0  0  0  0  0  0  0  0  0
  146.1000  153.3610  134.3710 N   0  0  0  0  0  0  0  0  0  0  0  0
  147.1490  154.3080  136.2100 O   0  0  0  0  0  0  0  0  0  0  0  0
  146.5450  156.9080  134.5500 C   0  0  0  0  0  0  0  0  0  0  0  0
  147.1790  157.7990  133.7150 C   0  0  0  0  0  0  0  0  0  0  0  0
  147.0010  159.1710  133.5700 C   0  0  0  0  0  0  0  0  0  0  0  0
  147.7790  159.8380  132.6100 C   0  0  0  0  0  0  0  0  0  0  0  0
  148.6970  159.1250  131.7950 C   0  0  0  0  0  0  0  0  0  0  0  0
  149.5520  159.8590  130.7930 C   0  0  0  0  0  0  0  0  0  0  0  0
  149.5120  161.2130  131.0670 F   0  0  0  0  0  0  0  0  0  0  0  0
  150.8630  159.4230  130.8580 F   0  0  0  0  0  0  0  0  0  0  0  0
  149.0880  159.6450  129.5060 F   0  0  0  0  0  0  0  0  0  0  0  0
  148.8640  157.7340  131.9900 C   0  0  0  0  0  0  0  0  0  0  0  0
  148.0890  157.0980  132.9670 C   0  0  0  0  0  0  0  0  0  0  0  0
  148.9810  152.2440  134.4999 H   0  0  0  0  0  0  0  0  0  0  0  0
  149.6500  150.7653  133.7300 H   0  0  0  0  0  0  0  0  0  0  0  0
  150.6034  152.2878  133.7300 H   0  0  0  0  0  0  0  0  0  0  0  0
  149.7540  152.4133  131.6033 H   0  0  0  0  0  0  0  0  0  0  0  0
  147.5636  150.6506  132.7111 H   0  0  0  0  0  0  0  0  0  0  0  0
  147.2080  151.6152  131.2381 H   0  0  0  0  0  0  0  0  0  0  0  0
  148.5708  150.4450  131.2381 H   0  0  0  0  0  0  0  0  0  0  0  0
  146.6170  152.6700  133.7820 H   0  0  0  0  0  0  0  0  0  0  0  0
  145.7542  157.1275  135.2825 H   0  0  0  0  0  0  0  0  0  0  0  0
  146.2731  159.7167  134.1884 H   0  0  0  0  0  0  0  0  0  0  0  0
  147.6759  160.9263  132.4880 H   0  0  0  0  0  0  0  0  0  0  0  0
  149.5869  157.1646  131.3873 H   0  0  0  0  0  0  0  0  0  0  0  0
  1  2  1  0
  2  3  1  0
  2  4  1  0
  4  5  1  0
  5  6  2  0
  5  7  1  0
  7  8  1  0
  8  9  1  0
  9 10  1  0
  9 11  2  0
  8 12  2  0
 12 13  1  0
 13 14  2  0
 14 15  1  0
 15 16  2  0
 16 17  1  0
 17 18  1  0
 17 19  1  0
 17 20  1  0
 16 21  1  0
 21 22  2  0
 22  7  1  0
 22 13  1  0
  1 23  1  0
  1 24  1  0
  1 25  1  0
  2 26  1  0
  3 27  1  0
  3 28  1  0
  3 29  1  0
 10 30  1  0
 12 31  1  0
 14 32  1  0
 15 33  1  0
 21 34  1  0
M  CHG  1  10  -1
M  END
>  <UniqueID>  (88) 
86

>  <SMILES>  (88) 
CC(C)OC(=O)n1c(C([NH-])=O)cc2ccc(C(F)(F)F)cc21

>  <Energy>  (88) 
67.73724804925301

>  <Genealogy>  (88) 
CC(C)OC(=O)n1c(C([NH-])=O)cc2ccc(C(F)(F)F)cc21 (protonated)
CC(C)OC(=O)n1c(C([NH-])=O)cc2ccc(C(F)(F)F)cc21 (3D coordinates assigned)
CC(C)OC(=O)n1c(C([NH-])=O)cc2ccc(C(F)(F)F)cc21 (optimized conformer: 67.73724804925301 kcal/mol)

>  <smiles>  (88) 
CC(C)OC(=O)n1c(C(N)=O)cc2ccc(C(F)(F)F)cc21

>  <score_type>  (88) 
oracle

>  <origin>  (88) 
adg

>  <m_score__min__energy>  (88) 
-5.96

>  <m_primary>  (88) 
energy

$$$$
88:0
     RDKit          3D

 46 48  0  0  0  0  0  0  0  0999 V2000
  143.6570  154.0270  135.4360 N   0  0  0  0  0  0  0  0  0  0  0  0
  143.0510  153.3800  134.6920 C   0  0  0  0  0  0  0  0  0  0  0  0
  142.2810  152.5600  133.7500 C   0  0  0  0  0  0  0  0  0  0  0  0
  141.0340  153.3100  133.2840 C   0  0  0  0  0  0  0  0  0  0  0  0
  141.2360  154.7190  133.3750 O   0  0  0  0  0  0  0  0  0  0  0  0
  140.2030  155.6330  133.6120 C   0  0  0  0  0  0  0  0  0  0  0  0
  139.1040  155.5250  133.0040 O   0  0  0  0  0  0  0  0  0  0  0  0
  140.4040  156.7110  134.5400 N   0  0  0  0  0  0  0  0  0  0  0  0
  140.2200  158.0440  134.3210 C   0  0  0  0  0  0  0  0  0  0  0  0
  139.9200  158.6760  133.0190 C   0  0  0  0  0  0  0  0  0  0  0  0
  138.7960  158.2370  132.2600 N   0  0  0  0  0  0  0  0  0  0  0  0
  140.6250  159.6250  132.5850 O   0  0  0  0  0  0  0  0  0  0  0  0
  140.4390  158.7660  135.4930 C   0  0  0  0  0  0  0  0  0  0  0  0
  140.7690  157.8270  136.4430 C   0  0  0  0  0  0  0  0  0  0  0  0
  141.0780  157.9880  137.7900 C   0  0  0  0  0  0  0  0  0  0  0  0
  141.3550  156.8360  138.5440 C   0  0  0  0  0  0  0  0  0  0  0  0
  141.3050  155.5490  137.9490 C   0  0  0  0  0  0  0  0  0  0  0  0
  141.5930  154.3730  138.7320 N   0  0  0  0  0  0  0  0  0  0  0  0
  140.5270  153.7450  139.5260 C   0  0  0  0  0  0  0  0  0  0  0  0
  140.8770  152.2920  139.8920 C   0  0  0  0  0  0  0  0  0  0  0  0
  141.5740  151.5600  138.7270 C   0  0  0  0  0  0  0  0  0  0  0  0
  140.6000  151.2950  137.6070 C   0  0  0  0  0  0  0  0  0  0  0  0
  139.4400  150.8660  137.8470 O   0  0  0  0  0  0  0  0  0  0  0  0
  140.9970  151.4830  136.2880 O   0  0  0  0  0  0  0  0  0  0  0  0
  142.8440  152.3080  138.2280 C   0  0  0  0  0  0  0  0  0  0  0  0
  142.9270  153.7620  138.7160 C   0  0  0  0  0  0  0  0  0  0  0  0
  140.9930  155.4290  136.5750 C   0  0  0  0  0  0  0  0  0  0  0  0
  140.7410  156.5950  135.8440 C   0  0  0  0  0  0  0  0  0  0  0  0
  142.9088  152.3243  132.8780 H   0  0  0  0  0  0  0  0  0  0  0  0
  141.9711  151.6334  134.2553 H   0  0  0  0  0  0  0  0  0  0  0  0
  140.8195  153.0417  132.2390 H   0  0  0  0  0  0  0  0  0  0  0  0
  140.1880  153.0293  133.9286 H   0  0  0  0  0  0  0  0  0  0  0  0
  138.2070  157.4390  132.5850 H   0  0  0  0  0  0  0  0  0  0  0  0
  140.3640  159.8549  135.6294 H   0  0  0  0  0  0  0  0  0  0  0  0
  141.1045  158.9868  138.2502 H   0  0  0  0  0  0  0  0  0  0  0  0
  141.6138  156.9327  139.6087 H   0  0  0  0  0  0  0  0  0  0  0  0
  140.3837  154.3220  140.4515 H   0  0  0  0  0  0  0  0  0  0  0  0
  139.6071  153.7367  138.9229 H   0  0  0  0  0  0  0  0  0  0  0  0
  141.5490  152.2962  140.7629 H   0  0  0  0  0  0  0  0  0  0  0  0
  139.9404  151.7612  140.1179 H   0  0  0  0  0  0  0  0  0  0  0  0
  141.9245  150.5903  139.1103 H   0  0  0  0  0  0  0  0  0  0  0  0
  143.7314  151.7677  138.5894 H   0  0  0  0  0  0  0  0  0  0  0  0
  142.7933  152.3366  137.1295 H   0  0  0  0  0  0  0  0  0  0  0  0
  143.3460  153.7797  139.7329 H   0  0  0  0  0  0  0  0  0  0  0  0
  143.5724  154.3319  138.0314 H   0  0  0  0  0  0  0  0  0  0  0  0
  140.9494  154.4417  136.0920 H   0  0  0  0  0  0  0  0  0  0  0  0
  1  2  3  0
  2  3  1  0
  3  4  1  0
  4  5  1  0
  5  6  1  0
  6  7  2  0
  6  8  1  0
  8  9  1  0
  9 10  1  0
 10 11  1  0
 10 12  2  0
  9 13  2  0
 13 14  1  0
 14 15  2  0
 15 16  1  0
 16 17  2  0
 17 18  1  0
 18 19  1  0
 19 20  1  0
 20 21  1  0
 21 22  1  0
 22 23  2  0
 22 24  1  0
 21 25  1  0
 25 26  1  0
 17 27  1  0
 27 28  2  0
 28  8  1  0
 28 14  1  0
 26 18  1  0
  3 29  1  0
  3 30  1  0
  4 31  1  0
  4 32  1  0
 11 33  1  0
 13 34  1  0
 15 35  1  0
 16 36  1  0
 19 37  1  0
 19 38  1  0
 20 39  1  0
 20 40  1  0
 21 41  1  0
 25 42  1  0
 25 43  1  0
 26 44  1  0
 26 45  1  0
 27 46  1  0
M  CHG  2  11  -1  24  -1
M  END
>  <UniqueID>  (89) 
87

>  <SMILES>  (89) 
N#CCCOC(=O)n1c(C([NH-])=O)cc2ccc(N3CCC(C(=O)[O-])CC3)cc21

>  <Energy>  (89) 
88.1160367060477

>  <Genealogy>  (89) 
N#CCCOC(=O)n1c(C([NH-])=O)cc2ccc(N3CCC(C(=O)[O-])CC3)cc21 (protonated)
N#CCCOC(=O)n1c(C([NH-])=O)cc2ccc(N3CCC(C(=O)[O-])CC3)cc21 (3D coordinates assigned)
N#CCCOC(=O)n1c(C([NH-])=O)cc2ccc(N3CCC(C(=O)[O-])CC3)cc21 (nonaromatic ring conformer: 88.1160367060477 kcal/mol)

>  <smiles>  (89) 
N#CCCOC(=O)n1c(C(N)=O)cc2ccc(N3CCC(C(=O)O)CC3)cc21

>  <score_type>  (89) 
oracle

>  <origin>  (89) 
adg

>  <m_score__min__energy>  (89) 
-8.0299999999999994

>  <m_primary>  (89) 
energy

$$$$
89:0
     RDKit          3D

 35 36  0  0  0  0  0  0  0  0999 V2000
  140.3230  160.1480  132.8500 C   0  0  0  0  0  0  0  0  0  0  0  0
  141.6060  160.6430  133.5100 C   0  0  0  0  0  0  0  0  0  0  0  0
  142.5870  159.5140  133.6790 C   0  0  0  0  0  0  0  0  0  0  0  0
  142.1320  158.2320  134.0770 C   0  0  0  0  0  0  0  0  0  0  0  0
  143.0300  157.1590  134.1940 C   0  0  0  0  0  0  0  0  0  0  0  0
  144.3710  157.3970  133.9090 C   0  0  0  0  0  0  0  0  0  0  0  0
  145.4400  156.5300  133.9040 C   0  0  0  0  0  0  0  0  0  0  0  0
  146.5350  157.2990  133.5220 C   0  0  0  0  0  0  0  0  0  0  0  0
  147.9120  156.7680  133.4430 C   0  0  0  0  0  0  0  0  0  0  0  0
  148.6660  156.8430  132.2340 N   0  0  0  0  0  0  0  0  0  0  0  0
  148.4490  156.2900  134.4780 O   0  0  0  0  0  0  0  0  0  0  0  0
  146.1610  158.5870  133.2840 N   0  0  0  0  0  0  0  0  0  0  0  0
  146.9780  159.6460  132.7560 C   0  0  0  0  0  0  0  0  0  0  0  0
  147.0880  160.7310  133.3900 O   0  0  0  0  0  0  0  0  0  0  0  0
  147.6430  159.4580  131.5360 O   0  0  0  0  0  0  0  0  0  0  0  0
  149.0020  159.7140  131.3120 C   0  0  0  0  0  0  0  0  0  0  0  0
  149.8880  158.8740  131.6290 O   0  0  0  0  0  0  0  0  0  0  0  0
  149.3980  160.9830  130.6310 C   0  0  0  0  0  0  0  0  0  0  0  0
  148.5040  162.0070  130.9680 O   0  0  0  0  0  0  0  0  0  0  0  0
  144.8310  158.6330  133.5290 C   0  0  0  0  0  0  0  0  0  0  0  0
  143.9530  159.7150  133.3840 C   0  0  0  0  0  0  0  0  0  0  0  0
  139.5959  159.8675  133.6263 H   0  0  0  0  0  0  0  0  0  0  0  0
  139.9006  160.9477  132.2239 H   0  0  0  0  0  0  0  0  0  0  0  0
  140.5472  159.2718  132.2239 H   0  0  0  0  0  0  0  0  0  0  0  0
  142.0583  161.4232  132.8801 H   0  0  0  0  0  0  0  0  0  0  0  0
  141.3595  161.0489  134.5022 H   0  0  0  0  0  0  0  0  0  0  0  0
  141.0654  158.0762  134.2963 H   0  0  0  0  0  0  0  0  0  0  0  0
  142.6841  156.1611  134.5015 H   0  0  0  0  0  0  0  0  0  0  0  0
  145.4307  155.4578  134.1496 H   0  0  0  0  0  0  0  0  0  0  0  0
  149.6230  156.4280  132.1860 H   0  0  0  0  0  0  0  0  0  0  0  0
  148.3120  157.3770  131.4090 H   0  0  0  0  0  0  0  0  0  0  0  0
  150.4123  161.2658  130.9490 H   0  0  0  0  0  0  0  0  0  0  0  0
  149.3774  160.8298  129.5419 H   0  0  0  0  0  0  0  0  0  0  0  0
  147.8210  161.6050  131.5640 H   0  0  0  0  0  0  0  0  0  0  0  0
  144.3188  160.6967  133.0487 H   0  0  0  0  0  0  0  0  0  0  0  0
  1  2  1  0
  2  3  1  0
  3  4  2  0
  4  5  1  0
  5  6  2  0
  6  7  1  0
  7  8  2  0
  8  9  1  0
  9 10  1  0
  9 11  2  0
  8 12  1  0
 12 13  1  0
 13 14  2  0
 13 15  1  0
 15 16  1  0
 16 17  2  0
 16 18  1  0
 18 19  1  0
 12 20  1  0
 20 21  2  0
 21  3  1  0
 20  6  1  0
  1 22  1  0
  1 23  1  0
  1 24  1  0
  2 25  1  0
  2 26  1  0
  4 27  1  0
  5 28  1  0
  7 29  1  0
 10 30  1  0
 10 31  1  0
 18 32  1  0
 18 33  1  0
 19 34  1  0
 21 35  1  0
M  END
>  <UniqueID>  (90) 
88

>  <SMILES>  (90) 
CCc1ccc2cc(C(N)=O)n(C(=O)OC(=O)CO)c2c1

>  <Energy>  (90) 
70.24377070408042

>  <Genealogy>  (90) 
CCc1ccc2cc(C(N)=O)n(C(=O)OC(=O)CO)c2c1 (3D coordinates assigned)
CCc1ccc2cc(C(N)=O)n(C(=O)OC(=O)CO)c2c1 (optimized conformer: 70.24377070408042 kcal/mol)

>  <smiles>  (90) 
CCc1ccc2cc(C(N)=O)n(C(=O)OC(=O)CO)c2c1

>  <score_type>  (90) 
oracle

>  <origin>  (90) 
adg

>  <m_score__min__energy>  (90) 
-6.7000000000000002

>  <m_primary>  (90) 
energy

$$$$
90:0
     RDKit          3D

 42 44  0  0  0  0  0  0  0  0999 V2000
  139.8190  149.5900  129.4890 C   0  0  0  0  0  0  0  0  0  0  0  0
  139.5020  148.8740  130.7280 N   0  0  0  0  0  0  0  0  0  0  0  0
  138.7380  147.6290  130.6580 C   0  0  0  0  0  0  0  0  0  0  0  0
  139.8880  149.3910  132.0160 C   0  0  0  0  0  0  0  0  0  0  0  0
  139.1040  149.2610  132.9950 O   0  0  0  0  0  0  0  0  0  0  0  0
  141.1870  150.0550  132.2320 C   0  0  0  0  0  0  0  0  0  0  0  0
  141.4250  151.4150  132.3010 C   0  0  0  0  0  0  0  0  0  0  0  0
  142.7430  151.5940  132.5010 N   0  0  0  0  0  0  0  0  0  0  0  0
  143.4210  152.8610  132.7530 C   0  0  0  0  0  0  0  0  0  0  0  0
  142.8780  153.4850  134.0090 C   0  0  0  0  0  0  0  0  0  0  0  0
  142.9660  154.8850  134.2070 C   0  0  0  0  0  0  0  0  0  0  0  0
  142.4980  155.4690  135.3960 C   0  0  0  0  0  0  0  0  0  0  0  0
  141.9700  154.6290  136.3720 C   0  0  0  0  0  0  0  0  0  0  0  0
  141.4380  154.9290  137.6050 C   0  0  0  0  0  0  0  0  0  0  0  0
  141.0720  153.7030  138.1580 C   0  0  0  0  0  0  0  0  0  0  0  0
  140.5360  153.5590  139.5280 C   0  0  0  0  0  0  0  0  0  0  0  0
  141.2610  152.8530  140.5310 N   0  0  0  0  0  0  0  0  0  0  0  0
  139.4440  154.1110  139.8300 O   0  0  0  0  0  0  0  0  0  0  0  0
  141.3570  152.6850  137.2960 N   0  0  0  0  0  0  0  0  0  0  0  0
  141.0730  151.2850  137.4560 C   0  0  0  0  0  0  0  0  0  0  0  0
  141.2210  150.7300  138.5770 O   0  0  0  0  0  0  0  0  0  0  0  0
  140.6080  150.5370  136.3820 O   0  0  0  0  0  0  0  0  0  0  0  0
  141.9070  153.2680  136.2090 C   0  0  0  0  0  0  0  0  0  0  0  0
  142.3410  152.6630  135.0240 C   0  0  0  0  0  0  0  0  0  0  0  0
  143.2860  150.3610  132.5570 C   0  0  0  0  0  0  0  0  0  0  0  0
  142.3580  149.4020  132.3790 N   0  0  0  0  0  0  0  0  0  0  0  0
  140.2532  150.5707  129.7331 H   0  0  0  0  0  0  0  0  0  0  0  0
  140.5421  149.0047  128.9020 H   0  0  0  0  0  0  0  0  0  0  0  0
  138.8996  149.7319  128.9020 H   0  0  0  0  0  0  0  0  0  0  0  0
  138.5205  147.2745  131.6764 H   0  0  0  0  0  0  0  0  0  0  0  0
  137.7939  147.8077  130.1225 H   0  0  0  0  0  0  0  0  0  0  0  0
  139.3249  146.8682  130.1225 H   0  0  0  0  0  0  0  0  0  0  0  0
  140.6703  152.2099  132.2087 H   0  0  0  0  0  0  0  0  0  0  0  0
  144.4998  152.6814  132.8707 H   0  0  0  0  0  0  0  0  0  0  0  0
  143.2502  153.5407  131.9051 H   0  0  0  0  0  0  0  0  0  0  0  0
  143.4045  155.5201  133.4232 H   0  0  0  0  0  0  0  0  0  0  0  0
  142.5474  156.5569  135.5508 H   0  0  0  0  0  0  0  0  0  0  0  0
  141.3254  155.9250  138.0581 H   0  0  0  0  0  0  0  0  0  0  0  0
  141.6510  151.9030  140.3430 H   0  0  0  0  0  0  0  0  0  0  0  0
  142.2657  151.5742  134.8866 H   0  0  0  0  0  0  0  0  0  0  0  0
  144.3546  150.1632  132.7270 H   0  0  0  0  0  0  0  0  0  0  0  0
  142.5160  148.3700  132.3820 H   0  0  0  0  0  0  0  0  0  0  0  0
  1  2  1  0
  2  3  1  0
  2  4  1  0
  4  5  2  0
  4  6  1  0
  6  7  2  0
  7  8  1  0
  8  9  1  0
  9 10  1  0
 10 11  2  0
 11 12  1  0
 12 13  2  0
 13 14  1  0
 14 15  2  0
 15 16  1  0
 16 17  1  0
 16 18  2  0
 15 19  1  0
 19 20  1  0
 20 21  2  0
 20 22  1  0
 19 23  1  0
 23 24  2  0
  8 25  1  0
 25 26  2  0
 26  6  1  0
 24 10  1  0
 23 13  1  0
  1 27  1  0
  1 28  1  0
  1 29  1  0
  3 30  1  0
  3 31  1  0
  3 32  1  0
  7 33  1  0
  9 34  1  0
  9 35  1  0
 11 36  1  0
 12 37  1  0
 14 38  1  0
 17 39  1  0
 24 40  1  0
 25 41  1  0
 26 42  1  0
M  CHG  3  17  -1  22  -1  26   1
M  END
>  <UniqueID>  (91) 
89

>  <SMILES>  (91) 
CN(C)C(=O)c1cn(Cc2ccc3cc(C([NH-])=O)n(C(=O)[O-])c3c2)c[nH+]1

>  <Energy>  (91) 
113.0642669613906

>  <Genealogy>  (91) 
CN(C)C(=O)c1cn(Cc2ccc3cc(C([NH-])=O)n(C(=O)[O-])c3c2)c[nH+]1 (protonated)
CN(C)C(=O)c1cn(Cc2ccc3cc(C([NH-])=O)n(C(=O)[O-])c3c2)c[nH+]1 (3D coordinates assigned)
CN(C)C(=O)c1cn(Cc2ccc3cc(C([NH-])=O)n(C(=O)[O-])c3c2)c[nH+]1 (optimized conformer: 113.0642669613906 kcal/mol)

>  <smiles>  (91) 
CN(C)C(=O)c1cn(Cc2ccc3cc(C(N)=O)n(C(=O)O)c3c2)cn1

>  <score_type>  (91) 
oracle

>  <origin>  (91) 
adg

>  <m_score__min__energy>  (91) 
-7.46

>  <m_primary>  (91) 
energy

$$$$
91:0
     RDKit          3D

 42 43  0  0  0  0  0  0  0  0999 V2000
  148.0960  160.4920  132.5500 C   0  0  0  0  0  0  0  0  0  0  0  0
  147.5880  159.1700  133.0430 C   0  0  0  0  0  0  0  0  0  0  0  0
  148.4820  158.2370  133.6250 C   0  0  0  0  0  0  0  0  0  0  0  0
  148.0130  157.0060  134.1150 C   0  0  0  0  0  0  0  0  0  0  0  0
  146.6480  156.7470  134.0270 C   0  0  0  0  0  0  0  0  0  0  0  0
  145.9300  155.6320  134.3990 C   0  0  0  0  0  0  0  0  0  0  0  0
  144.6040  155.9180  134.0690 C   0  0  0  0  0  0  0  0  0  0  0  0
  143.4580  155.0140  134.3240 C   0  0  0  0  0  0  0  0  0  0  0  0
  142.3890  154.8950  133.3820 N   0  0  0  0  0  0  0  0  0  0  0  0
  143.4190  154.3270  135.3780 O   0  0  0  0  0  0  0  0  0  0  0  0
  144.5120  157.1630  133.5260 N   0  0  0  0  0  0  0  0  0  0  0  0
  143.3340  157.8000  133.0050 C   0  0  0  0  0  0  0  0  0  0  0  0
  142.9100  157.4650  131.8670 O   0  0  0  0  0  0  0  0  0  0  0  0
  142.6380  158.8420  133.7920 C   0  0  0  0  0  0  0  0  0  0  0  0
  143.3200  159.7810  134.2880 O   0  0  0  0  0  0  0  0  0  0  0  0
  141.2100  158.8150  134.0110 N   0  0  0  0  0  0  0  0  0  0  0  0
  140.6590  159.3550  135.2610 C   0  0  0  0  0  0  0  0  0  0  0  0
  140.3200  158.4390  132.8930 C   0  0  2  0  0  0  0  0  0  0  0  0
  139.3560  159.5850  132.5630 C   0  0  0  0  0  0  0  0  0  0  0  0
  139.5750  157.1260  133.1990 C   0  0  0  0  0  0  0  0  0  0  0  0
  140.2860  156.0260  132.6960 O   0  0  0  0  0  0  0  0  0  0  0  0
  145.7690  157.6530  133.4970 C   0  0  0  0  0  0  0  0  0  0  0  0
  146.2080  158.8790  132.9850 C   0  0  0  0  0  0  0  0  0  0  0  0
  148.3425  161.1335  133.4089 H   0  0  0  0  0  0  0  0  0  0  0  0
  148.9974  160.3340  131.9397 H   0  0  0  0  0  0  0  0  0  0  0  0
  147.3207  160.9783  131.9397 H   0  0  0  0  0  0  0  0  0  0  0  0
  149.5529  158.4785  133.6939 H   0  0  0  0  0  0  0  0  0  0  0  0
  148.7028  156.2703  134.5542 H   0  0  0  0  0  0  0  0  0  0  0  0
  146.3189  154.7114  134.8586 H   0  0  0  0  0  0  0  0  0  0  0  0
  141.6060  154.2290  133.5620 H   0  0  0  0  0  0  0  0  0  0  0  0
  142.3430  155.4920  132.5280 H   0  0  0  0  0  0  0  0  0  0  0  0
  141.1518  158.8721  136.1177 H   0  0  0  0  0  0  0  0  0  0  0  0
  140.8349  160.4401  135.3007 H   0  0  0  0  0  0  0  0  0  0  0  0
  139.5777  159.1572  135.3007 H   0  0  0  0  0  0  0  0  0  0  0  0
  140.9357  158.2586  131.9995 H   0  0  0  0  0  0  0  0  0  0  0  0
  138.9818  160.0298  133.4969 H   0  0  0  0  0  0  0  0  0  0  0  0
  139.8846  160.3518  131.9777 H   0  0  0  0  0  0  0  0  0  0  0  0
  138.5100  159.1955  131.9777 H   0  0  0  0  0  0  0  0  0  0  0  0
  139.4652  157.0181  134.2882 H   0  0  0  0  0  0  0  0  0  0  0  0
  138.5862  157.1590  132.7183 H   0  0  0  0  0  0  0  0  0  0  0  0
  141.0800  156.3870  132.2230 H   0  0  0  0  0  0  0  0  0  0  0  0
  145.4971  159.5964  132.5492 H   0  0  0  0  0  0  0  0  0  0  0  0
  1  2  1  0
  2  3  2  0
  3  4  1  0
  4  5  2  0
  5  6  1  0
  6  7  2  0
  7  8  1  0
  8  9  1  0
  8 10  2  0
  7 11  1  0
 11 12  1  0
 12 13  2  0
 12 14  1  0
 14 15  2  0
 14 16  1  0
 16 17  1  0
 16 18  1  0
 18 19  1  0
 18 20  1  0
 20 21  1  0
 11 22  1  0
 22 23  2  0
 23  2  1  0
 22  5  1  0
  1 24  1  0
  1 25  1  0
  1 26  1  0
  3 27  1  0
  4 28  1  0
  6 29  1  0
  9 30  1  0
  9 31  1  0
 17 32  1  0
 17 33  1  0
 17 34  1  0
 18 35  1  6
 19 36  1  0
 19 37  1  0
 19 38  1  0
 20 39  1  0
 20 40  1  0
 21 41  1  0
 23 42  1  0
M  END
>  <UniqueID>  (92) 
90

>  <SMILES>  (92) 
Cc1ccc2cc(C(N)=O)n(C(=O)C(=O)N(C)[C@H](C)CO)c2c1

>  <Energy>  (92) 
80.27705146092252

>  <Genealogy>  (92) 
Cc1ccc2cc(C(N)=O)n(C(=O)C(=O)N(C)[C@H](C)CO)c2c1 (chirality)
Cc1ccc2cc(C(N)=O)n(C(=O)C(=O)N(C)[C@H](C)CO)c2c1 (3D coordinates assigned)
Cc1ccc2cc(C(N)=O)n(C(=O)C(=O)N(C)[C@H](C)CO)c2c1 (optimized conformer: 80.27705146092252 kcal/mol)

>  <smiles>  (92) 
Cc1ccc2cc(C(N)=O)n(C(=O)C(=O)N(C)C(C)CO)c2c1

>  <score_type>  (92) 
oracle

>  <origin>  (92) 
adg

>  <m_score__min__energy>  (92) 
-6.2000000000000002

>  <m_primary>  (92) 
energy

$$$$
92:0
     RDKit          3D

 48 49  0  0  0  0  0  0  0  0999 V2000
  138.1860  160.3930  130.3090 C   0  0  0  0  0  0  0  0  0  0  0  0
  137.7020  159.3060  131.2690 C   0  0  0  0  0  0  0  0  0  0  0  0
  138.8060  158.8400  132.2370 C   0  0  0  0  0  0  0  0  0  0  0  0
  140.2040  159.3400  131.8550 C   0  0  0  0  0  0  0  0  0  0  0  0
  141.0030  159.5720  133.0130 O   0  0  0  0  0  0  0  0  0  0  0  0
  142.1880  158.8780  133.2980 C   0  0  0  0  0  0  0  0  0  0  0  0
  142.5400  157.8890  132.6020 O   0  0  0  0  0  0  0  0  0  0  0  0
  143.0250  159.2830  134.4730 C   0  0  0  0  0  0  0  0  0  0  0  0
  144.3040  159.8640  134.0370 N   0  0  0  0  0  0  0  0  0  0  0  0
  144.4060  161.3240  133.9200 C   0  0  0  0  0  0  0  0  0  0  0  0
  145.4270  159.0220  133.6710 C   0  0  0  0  0  0  0  0  0  0  0  0
  146.5900  159.5810  133.0700 C   0  0  0  0  0  0  0  0  0  0  0  0
  147.6780  158.7710  132.7070 C   0  0  0  0  0  0  0  0  0  0  0  0
  147.5920  157.4080  132.9620 C   0  0  0  0  0  0  0  0  0  0  0  0
  148.4840  156.3980  132.6790 C   0  0  0  0  0  0  0  0  0  0  0  0
  147.8770  155.2340  133.1390 C   0  0  0  0  0  0  0  0  0  0  0  0
  148.5210  153.9060  133.0880 C   0  0  0  0  0  0  0  0  0  0  0  0
  147.8940  152.7560  133.6560 N   0  0  0  0  0  0  0  0  0  0  0  0
  149.6710  153.7970  132.5840 O   0  0  0  0  0  0  0  0  0  0  0  0
  146.6530  155.5070  133.6720 N   0  0  0  0  0  0  0  0  0  0  0  0
  145.6770  154.5660  134.1520 C   0  0  0  0  0  0  0  0  0  0  0  0
  145.1320  153.7660  133.3430 O   0  0  0  0  0  0  0  0  0  0  0  0
  145.3420  154.5480  135.5130 O   0  0  0  0  0  0  0  0  0  0  0  0
  145.9520  153.7400  136.4800 C   0  0  0  0  0  0  0  0  0  0  0  0
  147.1440  153.3520  136.3550 O   0  0  0  0  0  0  0  0  0  0  0  0
  145.2270  153.3620  137.6010 O   0  0  0  0  0  0  0  0  0  0  0  0
  146.4940  156.8450  133.5580 C   0  0  0  0  0  0  0  0  0  0  0  0
  145.3850  157.6240  133.9090 C   0  0  0  0  0  0  0  0  0  0  0  0
  138.5670  161.2486  130.8859 H   0  0  0  0  0  0  0  0  0  0  0  0
  138.9901  159.9909  129.6752 H   0  0  0  0  0  0  0  0  0  0  0  0
  137.3492  160.7216  129.6752 H   0  0  0  0  0  0  0  0  0  0  0  0
  136.8617  159.7034  131.8572 H   0  0  0  0  0  0  0  0  0  0  0  0
  137.3983  158.4380  130.6655 H   0  0  0  0  0  0  0  0  0  0  0  0
  138.5661  159.2120  133.2440 H   0  0  0  0  0  0  0  0  0  0  0  0
  138.8320  157.7411  132.1939 H   0  0  0  0  0  0  0  0  0  0  0  0
  140.6958  158.5839  131.2253 H   0  0  0  0  0  0  0  0  0  0  0  0
  140.0974  160.2893  131.3095 H   0  0  0  0  0  0  0  0  0  0  0  0
  142.4751  160.0288  135.0658 H   0  0  0  0  0  0  0  0  0  0  0  0
  143.2356  158.3881  135.0769 H   0  0  0  0  0  0  0  0  0  0  0  0
  144.4372  161.7711  134.9246 H   0  0  0  0  0  0  0  0  0  0  0  0
  145.3246  161.5848  133.3739 H   0  0  0  0  0  0  0  0  0  0  0  0
  143.5326  161.7100  133.3739 H   0  0  0  0  0  0  0  0  0  0  0  0
  146.6371  160.6646  132.8871 H   0  0  0  0  0  0  0  0  0  0  0  0
  148.5724  159.2031  132.2344 H   0  0  0  0  0  0  0  0  0  0  0  0
  149.4664  156.4916  132.1931 H   0  0  0  0  0  0  0  0  0  0  0  0
  147.0280  152.8420  134.2300 H   0  0  0  0  0  0  0  0  0  0  0  0
  148.3470  151.8180  133.5730 H   0  0  0  0  0  0  0  0  0  0  0  0
  144.4962  157.1601  134.3616 H   0  0  0  0  0  0  0  0  0  0  0  0
  1  2  1  0
  2  3  1  0
  3  4  1  0
  4  5  1  0
  5  6  1  0
  6  7  2  0
  6  8  1  0
  8  9  1  0
  9 10  1  0
  9 11  1  0
 11 12  2  0
 12 13  1  0
 13 14  2  0
 14 15  1  0
 15 16  2  0
 16 17  1  0
 17 18  1  0
 17 19  2  0
 16 20  1  0
 20 21  1  0
 21 22  2  0
 21 23  1  0
 23 24  1  0
 24 25  2  0
 24 26  1  0
 20 27  1  0
 27 28  2  0
 28 11  1  0
 27 14  1  0
  1 29  1  0
  1 30  1  0
  1 31  1  0
  2 32  1  0
  2 33  1  0
  3 34  1  0
  3 35  1  0
  4 36  1  0
  4 37  1  0
  8 38  1  0
  8 39  1  0
 10 40  1  0
 10 41  1  0
 10 42  1  0
 12 43  1  0
 13 44  1  0
 15 45  1  0
 18 46  1  0
 18 47  1  0
 28 48  1  0
M  CHG  1  26  -1
M  END
>  <UniqueID>  (93) 
91

>  <SMILES>  (93) 
CCCCOC(=O)CN(C)c1ccc2cc(C(N)=O)n(C(=O)OC(=O)[O-])c2c1

>  <Energy>  (93) 
84.62971640537845

>  <Genealogy>  (93) 
CCCCOC(=O)CN(C)c1ccc2cc(C(N)=O)n(C(=O)OC(=O)[O-])c2c1 (protonated)
CCCCOC(=O)CN(C)c1ccc2cc(C(N)=O)n(C(=O)OC(=O)[O-])c2c1 (3D coordinates assigned)
CCCCOC(=O)CN(C)c1ccc2cc(C(N)=O)n(C(=O)OC(=O)[O-])c2c1 (optimized conformer: 84.62971640537845 kcal/mol)

>  <smiles>  (93) 
CCCCOC(=O)CN(C)c1ccc2cc(C(N)=O)n(C(=O)OC(=O)O)c2c1

>  <score_type>  (93) 
oracle

>  <origin>  (93) 
adg

>  <m_score__min__energy>  (93) 
-7.2599999999999998

>  <m_primary>  (93) 
energy

$$$$
93:0
     RDKit          3D

 31 33  0  0  0  0  0  0  0  0999 V2000
  148.1060  152.1920  133.3360 N   0  0  0  0  0  0  0  0  0  0  0  0
  148.8820  153.2670  132.8030 C   0  0  0  0  0  0  0  0  0  0  0  0
  149.9820  153.0100  132.2470 O   0  0  0  0  0  0  0  0  0  0  0  0
  148.4200  154.6680  132.9180 C   0  0  0  0  0  0  0  0  0  0  0  0
  149.2020  155.7810  132.6050 C   0  0  0  0  0  0  0  0  0  0  0  0
  148.3680  156.8660  132.7560 C   0  0  0  0  0  0  0  0  0  0  0  0
  148.6210  158.2220  132.5770 C   0  0  0  0  0  0  0  0  0  0  0  0
  147.5720  159.1260  132.8190 C   0  0  0  0  0  0  0  0  0  0  0  0
  146.2970  158.6630  133.2370 C   0  0  0  0  0  0  0  0  0  0  0  0
  145.2040  159.6240  133.4960 C   0  0  0  0  0  0  0  0  0  0  0  0
  143.8930  159.3150  133.4030 N   0  0  0  0  0  0  0  0  0  0  0  0
  143.3140  160.4870  133.7250 C   0  0  0  0  0  0  0  0  0  0  0  0
  144.2100  161.4050  133.9840 O   0  0  0  0  0  0  0  0  0  0  0  0
  145.4010  160.9080  133.8520 N   0  0  0  0  0  0  0  0  0  0  0  0
  146.0810  157.2760  133.4050 C   0  0  0  0  0  0  0  0  0  0  0  0
  147.1410  156.4010  133.1450 C   0  0  0  0  0  0  0  0  0  0  0  0
  147.1570  155.0560  133.2530 N   0  0  0  0  0  0  0  0  0  0  0  0
  146.0660  154.2300  133.6850 C   0  0  0  0  0  0  0  0  0  0  0  0
  145.9110  153.9890  134.9130 O   0  0  0  0  0  0  0  0  0  0  0  0
  145.1480  153.5850  132.6890 C   0  0  0  0  0  0  0  0  0  0  0  0
  145.1520  152.1960  132.8630 O   0  0  0  0  0  0  0  0  0  0  0  0
  147.1610  152.3560  133.7480 H   0  0  0  0  0  0  0  0  0  0  0  0
  148.4610  151.2120  133.2800 H   0  0  0  0  0  0  0  0  0  0  0  0
  150.2595  155.7895  132.3022 H   0  0  0  0  0  0  0  0  0  0  0  0
  149.6117  158.5762  132.2559 H   0  0  0  0  0  0  0  0  0  0  0  0
  147.7412  160.2044  132.6829 H   0  0  0  0  0  0  0  0  0  0  0  0
  142.2272  160.6518  133.7653 H   0  0  0  0  0  0  0  0  0  0  0  0
  145.1028  156.8940  133.7323 H   0  0  0  0  0  0  0  0  0  0  0  0
  144.1268  153.9673  132.8341 H   0  0  0  0  0  0  0  0  0  0  0  0
  145.4945  153.8223  131.6723 H   0  0  0  0  0  0  0  0  0  0  0  0
  145.6120  152.0190  133.7260 H   0  0  0  0  0  0  0  0  0  0  0  0
  1  2  1  0
  2  3  2  0
  2  4  1  0
  4  5  2  0
  5  6  1  0
  6  7  2  0
  7  8  1  0
  8  9  2  0
  9 10  1  0
 10 11  1  0
 11 12  2  0
 12 13  1  0
 13 14  1  0
  9 15  1  0
 15 16  2  0
 16 17  1  0
 17 18  1  0
 18 19  2  0
 18 20  1  0
 20 21  1  0
 17  4  1  0
 16  6  1  0
 14 10  2  0
  1 22  1  0
  1 23  1  0
  5 24  1  0
  7 25  1  0
  8 26  1  0
 12 27  1  0
 15 28  1  0
 20 29  1  0
 20 30  1  0
 21 31  1  0
M  END
>  <UniqueID>  (94) 
92

>  <SMILES>  (94) 
NC(=O)c1cc2ccc(-c3ncon3)cc2n1C(=O)CO

>  <Energy>  (94) 
105.52825751810511

>  <Genealogy>  (94) 
NC(=O)c1cc2ccc(-c3ncon3)cc2n1C(=O)CO (3D coordinates assigned)
NC(=O)c1cc2ccc(-c3ncon3)cc2n1C(=O)CO (optimized conformer: 105.52825751810511 kcal/mol)

>  <smiles>  (94) 
NC(=O)c1cc2ccc(-c3ncon3)cc2n1C(=O)CO

>  <score_type>  (94) 
oracle

>  <origin>  (94) 
adg

>  <m_score__min__energy>  (94) 
-6.6299999999999999

>  <m_primary>  (94) 
energy

$$$$
94:0
     RDKit          3D

 40 42  0  0  0  0  0  0  0  0999 V2000
  143.0660  161.2170  133.7290 N   0  0  0  0  0  0  0  0  0  0  0  0
  144.4840  161.3540  133.8050 C   0  0  0  0  0  0  0  0  0  0  0  0
  144.9790  162.4770  134.0860 O   0  0  0  0  0  0  0  0  0  0  0  0
  145.3510  160.1940  133.5150 C   0  0  0  0  0  0  0  0  0  0  0  0
  146.6600  160.3100  133.0540 C   0  0  0  0  0  0  0  0  0  0  0  0
  147.1440  159.0230  133.0010 C   0  0  0  0  0  0  0  0  0  0  0  0
  148.3950  158.5540  132.6130 C   0  0  0  0  0  0  0  0  0  0  0  0
  148.6160  157.1670  132.6390 C   0  0  0  0  0  0  0  0  0  0  0  0
  147.5800  156.2740  133.0230 C   0  0  0  0  0  0  0  0  0  0  0  0
  147.8410  154.7910  133.0820 C   0  0  0  0  0  0  0  0  0  0  0  0
  148.9290  154.4540  132.2960 F   0  0  0  0  0  0  0  0  0  0  0  0
  148.1060  154.3920  134.3800 F   0  0  0  0  0  0  0  0  0  0  0  0
  146.7260  154.1150  132.6210 F   0  0  0  0  0  0  0  0  0  0  0  0
  146.3300  156.7940  133.4320 C   0  0  0  0  0  0  0  0  0  0  0  0
  146.1460  158.1810  133.4140 C   0  0  0  0  0  0  0  0  0  0  0  0
  145.0360  158.8850  133.7310 N   0  0  0  0  0  0  0  0  0  0  0  0
  143.7760  158.3380  134.1520 C   0  0  0  0  0  0  0  0  0  0  0  0
  143.1830  157.4920  133.4280 O   0  0  0  0  0  0  0  0  0  0  0  0
  143.2230  158.7310  135.3760 O   0  0  0  0  0  0  0  0  0  0  0  0
  141.8960  158.3940  135.7690 C   0  0  0  0  0  0  0  0  0  0  0  0
  140.9730  159.2830  135.1470 O   0  0  0  0  0  0  0  0  0  0  0  0
  140.4170  159.0870  133.8740 C   0  0  0  0  0  0  0  0  0  0  0  0
  140.2290  160.1420  132.9600 C   0  0  0  0  0  0  0  0  0  0  0  0
  139.6700  159.8920  131.7040 C   0  0  0  0  0  0  0  0  0  0  0  0
  139.2910  158.5920  131.3450 C   0  0  0  0  0  0  0  0  0  0  0  0
  138.7320  158.3350  130.0950 O   0  0  0  0  0  0  0  0  0  0  0  0
  139.4770  157.5420  132.2510 C   0  0  0  0  0  0  0  0  0  0  0  0
  139.1140  156.2790  131.9120 F   0  0  0  0  0  0  0  0  0  0  0  0
  140.0370  157.7890  133.5080 C   0  0  0  0  0  0  0  0  0  0  0  0
  142.5780  160.4210  134.1970 H   0  0  0  0  0  0  0  0  0  0  0  0
  147.1938  161.2344  132.7885 H   0  0  0  0  0  0  0  0  0  0  0  0
  149.1870  159.2482  132.2955 H   0  0  0  0  0  0  0  0  0  0  0  0
  149.6021  156.7680  132.3590 H   0  0  0  0  0  0  0  0  0  0  0  0
  145.5209  156.1234  133.7569 H   0  0  0  0  0  0  0  0  0  0  0  0
  141.6741  157.3616  135.4611 H   0  0  0  0  0  0  0  0  0  0  0  0
  141.8058  158.4798  136.8619 H   0  0  0  0  0  0  0  0  0  0  0  0
  140.5230  161.1655  133.2357 H   0  0  0  0  0  0  0  0  0  0  0  0
  139.5269  160.7198  130.9939 H   0  0  0  0  0  0  0  0  0  0  0  0
  137.7490  158.1150  129.9900 H   0  0  0  0  0  0  0  0  0  0  0  0
  140.1803  156.9583  134.2147 H   0  0  0  0  0  0  0  0  0  0  0  0
  1  2  1  0
  2  3  2  0
  2  4  1  0
  4  5  2  0
  5  6  1  0
  6  7  2  0
  7  8  1  0
  8  9  2  0
  9 10  1  0
 10 11  1  0
 10 12  1  0
 10 13  1  0
  9 14  1  0
 14 15  2  0
 15 16  1  0
 16 17  1  0
 17 18  2  0
 17 19  1  0
 19 20  1  0
 20 21  1  0
 21 22  1  0
 22 23  2  0
 23 24  1  0
 24 25  2  0
 25 26  1  0
 25 27  1  0
 27 28  1  0
 27 29  2  0
 16  4  1  0
 29 22  1  0
 15  6  1  0
  1 30  1  0
  5 31  1  0
  7 32  1  0
  8 33  1  0
 14 34  1  0
 20 35  1  0
 20 36  1  0
 23 37  1  0
 24 38  1  0
 26 39  1  0
 29 40  1  0
M  CHG  1   1  -1
M  END
>  <UniqueID>  (95) 
93

>  <SMILES>  (95) 
[NH-]C(=O)c1cc2ccc(C(F)(F)F)cc2n1C(=O)OCOc1ccc(O)c(F)c1

>  <Energy>  (95) 
80.16068549219513

>  <Genealogy>  (95) 
[NH-]C(=O)c1cc2ccc(C(F)(F)F)cc2n1C(=O)OCOc1ccc(O)c(F)c1 (protonated)
[NH-]C(=O)c1cc2ccc(C(F)(F)F)cc2n1C(=O)OCOc1ccc(O)c(F)c1 (3D coordinates assigned)
[NH-]C(=O)c1cc2ccc(C(F)(F)F)cc2n1C(=O)OCOc1ccc(O)c(F)c1 (optimized conformer: 80.16068549219513 kcal/mol)

>  <smiles>  (95) 
NC(=O)c1cc2ccc(C(F)(F)F)cc2n1C(=O)OCOc1ccc(O)c(F)c1

>  <score_type>  (95) 
oracle

>  <origin>  (95) 
adg

>  <m_score__min__energy>  (95) 
-7.1100000000000003

>  <m_primary>  (95) 
energy

$$$$
95:0
     RDKit          3D

 46 47  0  0  0  0  0  0  0  0999 V2000
  144.3990  154.6120  131.6690 C   0  0  0  0  0  0  0  0  0  0  0  0
  144.9860  153.7690  132.7170 N   0  0  0  0  0  0  0  0  0  0  0  0
  144.7370  152.3480  132.6780 C   0  0  0  0  0  0  0  0  0  0  0  0
  143.7890  151.8510  133.3510 O   0  0  0  0  0  0  0  0  0  0  0  0
  145.5160  151.5170  131.8660 O   0  0  0  0  0  0  0  0  0  0  0  0
  146.8950  151.3760  132.0390 C   0  0  0  0  0  0  0  0  0  0  0  0
  147.6590  152.3670  131.8590 O   0  0  0  0  0  0  0  0  0  0  0  0
  147.4180  150.1160  132.3480 O   0  0  0  0  0  0  0  0  0  0  0  0
  148.4610  149.8940  133.2660 C   0  0  0  0  0  0  0  0  0  0  0  0
  148.4680  148.8400  133.9650 O   0  0  0  0  0  0  0  0  0  0  0  0
  149.4680  150.9180  133.4770 N   0  0  0  0  0  0  0  0  0  0  0  0
  150.4900  150.8680  132.4120 C   0  0  0  0  0  0  0  0  0  0  0  0
  150.1240  150.7720  134.7910 C   0  0  0  0  0  0  0  0  0  0  0  0
  145.7320  154.3670  133.8010 C   0  0  0  0  0  0  0  0  0  0  0  0
  145.6330  153.8960  134.9660 O   0  0  0  0  0  0  0  0  0  0  0  0
  146.6160  155.4800  133.5720 N   0  0  0  0  0  0  0  0  0  0  0  0
  147.9480  155.4400  133.2840 C   0  0  0  0  0  0  0  0  0  0  0  0
  148.8050  154.2380  133.3450 C   0  0  0  0  0  0  0  0  0  0  0  0
  148.4770  153.1770  134.2360 N   0  0  0  0  0  0  0  0  0  0  0  0
  149.8080  154.1310  132.5940 O   0  0  0  0  0  0  0  0  0  0  0  0
  148.4310  156.7240  133.0300 C   0  0  0  0  0  0  0  0  0  0  0  0
  147.3430  157.5560  133.1670 C   0  0  0  0  0  0  0  0  0  0  0  0
  147.2450  158.9390  133.0150 C   0  0  0  0  0  0  0  0  0  0  0  0
  145.9880  159.5330  133.2000 C   0  0  0  0  0  0  0  0  0  0  0  0
  144.8530  158.7480  133.5380 C   0  0  0  0  0  0  0  0  0  0  0  0
  143.4960  159.3880  133.6990 C   0  0  0  0  0  0  0  0  0  0  0  0
  143.0830  159.3080  135.0190 F   0  0  0  0  0  0  0  0  0  0  0  0
  143.5390  160.7240  133.3340 F   0  0  0  0  0  0  0  0  0  0  0  0
  142.5780  158.7320  132.8990 F   0  0  0  0  0  0  0  0  0  0  0  0
  144.9860  157.3440  133.6460 C   0  0  0  0  0  0  0  0  0  0  0  0
  146.2580  156.7810  133.4830 C   0  0  0  0  0  0  0  0  0  0  0  0
  143.8291  155.4304  132.1331 H   0  0  0  0  0  0  0  0  0  0  0  0
  145.2010  155.0320  131.0442 H   0  0  0  0  0  0  0  0  0  0  0  0
  143.7269  154.0055  131.0442 H   0  0  0  0  0  0  0  0  0  0  0  0
  148.9940  151.8530  133.4390 H   0  0  0  0  0  0  0  0  0  0  0  0
  151.4907  150.8190  132.8661 H   0  0  0  0  0  0  0  0  0  0  0  0
  150.3264  149.9768  131.7883 H   0  0  0  0  0  0  0  0  0  0  0  0
  150.4141  151.7709  131.7883 H   0  0  0  0  0  0  0  0  0  0  0  0
  149.3857  150.9363  135.5897 H   0  0  0  0  0  0  0  0  0  0  0  0
  150.5425  149.7587  134.8813 H   0  0  0  0  0  0  0  0  0  0  0  0
  150.9327  151.5121  134.8813 H   0  0  0  0  0  0  0  0  0  0  0  0
  147.6290  152.5900  134.0680 H   0  0  0  0  0  0  0  0  0  0  0  0
  149.4619  157.0105  132.7746 H   0  0  0  0  0  0  0  0  0  0  0  0
  148.1263  159.5451  132.7580 H   0  0  0  0  0  0  0  0  0  0  0  0
  145.8794  160.6212  133.0818 H   0  0  0  0  0  0  0  0  0  0  0  0
  144.1115  156.7096  133.8530 H   0  0  0  0  0  0  0  0  0  0  0  0
  1  2  1  0
  2  3  1  0
  3  4  2  0
  3  5  1  0
  5  6  1  0
  6  7  2  0
  6  8  1  0
  8  9  1  0
  9 10  2  0
  9 11  1  0
 11 12  1  0
 11 13  1  0
  2 14  1  0
 14 15  2  0
 14 16  1  0
 16 17  1  0
 17 18  1  0
 18 19  1  0
 18 20  2  0
 17 21  2  0
 21 22  1  0
 22 23  2  0
 23 24  1  0
 24 25  2  0
 25 26  1  0
 26 27  1  0
 26 28  1  0
 26 29  1  0
 25 30  1  0
 30 31  2  0
 31 16  1  0
 31 22  1  0
  1 32  1  0
  1 33  1  0
  1 34  1  0
 11 35  1  0
 12 36  1  0
 12 37  1  0
 12 38  1  0
 13 39  1  0
 13 40  1  0
 13 41  1  0
 19 42  1  0
 21 43  1  0
 23 44  1  0
 24 45  1  0
 30 46  1  0
M  CHG  2  11   1  19  -1
M  END
>  <UniqueID>  (96) 
94

>  <SMILES>  (96) 
CN(C(=O)OC(=O)OC(=O)[NH+](C)C)C(=O)n1c(C([NH-])=O)cc2ccc(C(F)(F)F)cc21

>  <Energy>  (96) 
93.44052050854829

>  <Genealogy>  (96) 
CN(C(=O)OC(=O)OC(=O)[NH+](C)C)C(=O)n1c(C([NH-])=O)cc2ccc(C(F)(F)F)cc21 (protonated)
CN(C(=O)OC(=O)OC(=O)[NH+](C)C)C(=O)n1c(C([NH-])=O)cc2ccc(C(F)(F)F)cc21 (3D coordinates assigned)
CN(C(=O)OC(=O)OC(=O)[NH+](C)C)C(=O)n1c(C([NH-])=O)cc2ccc(C(F)(F)F)cc21 (optimized conformer: 93.44052050854829 kcal/mol)

>  <smiles>  (96) 
CN(C)C(=O)OC(=O)OC(=O)N(C)C(=O)n1c(C(N)=O)cc2ccc(C(F)(F)F)cc21

>  <score_type>  (96) 
oracle

>  <origin>  (96) 
adg

>  <m_score__min__energy>  (96) 
-5.2999999999999998

>  <m_primary>  (96) 
energy

$$$$
96:0
     RDKit          3D

 39 40  0  0  0  0  0  0  0  0999 V2000
  138.3540  157.8940  133.6190 C   0  0  0  0  0  0  0  0  0  0  0  0
  139.7570  158.3740  133.2500 C   0  0  2  0  0  0  0  0  0  0  0  0
  139.7150  159.3270  132.0470 C   0  0  0  0  0  0  0  0  0  0  0  0
  140.9750  159.3870  131.4350 O   0  0  0  0  0  0  0  0  0  0  0  0
  140.5630  157.2350  132.9440 O   0  0  0  0  0  0  0  0  0  0  0  0
  141.7660  156.9390  133.5960 C   0  0  0  0  0  0  0  0  0  0  0  0
  141.8050  156.0490  134.4890 O   0  0  0  0  0  0  0  0  0  0  0  0
  142.9490  157.6620  133.2320 N   0  0  0  0  0  0  0  0  0  0  0  0
  144.2450  157.4310  133.8060 C   0  0  0  0  0  0  0  0  0  0  0  0
  144.4380  156.4530  134.5780 O   0  0  0  0  0  0  0  0  0  0  0  0
  145.3430  158.2910  133.4670 N   0  0  0  0  0  0  0  0  0  0  0  0
  145.3400  159.6510  133.3610 C   0  0  0  0  0  0  0  0  0  0  0  0
  144.2180  160.5420  133.7170 C   0  0  0  0  0  0  0  0  0  0  0  0
  142.8940  160.2240  133.2910 N   0  0  0  0  0  0  0  0  0  0  0  0
  144.4180  161.6020  134.3680 O   0  0  0  0  0  0  0  0  0  0  0  0
  146.5890  160.1100  132.9460 C   0  0  0  0  0  0  0  0  0  0  0  0
  147.3660  158.9810  132.8080 C   0  0  0  0  0  0  0  0  0  0  0  0
  148.6960  158.8510  132.4210 C   0  0  0  0  0  0  0  0  0  0  0  0
  149.2380  157.5560  132.3520 C   0  0  0  0  0  0  0  0  0  0  0  0
  148.4390  156.4230  132.6540 C   0  0  0  0  0  0  0  0  0  0  0  0
  149.0370  155.0490  132.6040 C   0  0  0  0  0  0  0  0  0  0  0  0
  148.4760  154.2650  133.5940 F   0  0  0  0  0  0  0  0  0  0  0  0
  147.0980  156.5960  133.0580 C   0  0  0  0  0  0  0  0  0  0  0  0
  146.5900  157.8980  133.1300 C   0  0  0  0  0  0  0  0  0  0  0  0
  138.2543  157.8599  134.7139 H   0  0  0  0  0  0  0  0  0  0  0  0
  137.6081  158.5881  133.2043 H   0  0  0  0  0  0  0  0  0  0  0  0
  138.1896  156.8885  133.2043 H   0  0  0  0  0  0  0  0  0  0  0  0
  140.1855  158.9255  134.0999 H   0  0  0  0  0  0  0  0  0  0  0  0
  138.9745  158.9625  131.3199 H   0  0  0  0  0  0  0  0  0  0  0  0
  139.4354  160.3326  132.3942 H   0  0  0  0  0  0  0  0  0  0  0  0
  141.6100  158.9650  132.0700 H   0  0  0  0  0  0  0  0  0  0  0  0
  142.8590  158.4030  132.5010 H   0  0  0  0  0  0  0  0  0  0  0  0
  142.7190  159.8140  132.3470 H   0  0  0  0  0  0  0  0  0  0  0  0
  146.8903  161.1526  132.7667 H   0  0  0  0  0  0  0  0  0  0  0  0
  149.3045  159.7342  132.1766 H   0  0  0  0  0  0  0  0  0  0  0  0
  150.2902  157.4198  132.0615 H   0  0  0  0  0  0  0  0  0  0  0  0
  148.8363  154.5975  131.6212 H   0  0  0  0  0  0  0  0  0  0  0  0
  150.1235  155.1165  132.7621 H   0  0  0  0  0  0  0  0  0  0  0  0
  146.4683  155.7299  133.3098 H   0  0  0  0  0  0  0  0  0  0  0  0
  1  2  1  0
  2  3  1  0
  3  4  1  0
  2  5  1  0
  5  6  1  0
  6  7  2  0
  6  8  1  0
  8  9  1  0
  9 10  2  0
  9 11  1  0
 11 12  1  0
 12 13  1  0
 13 14  1  0
 13 15  2  0
 12 16  2  0
 16 17  1  0
 17 18  2  0
 18 19  1  0
 19 20  2  0
 20 21  1  0
 21 22  1  0
 20 23  1  0
 23 24  2  0
 24 11  1  0
 24 17  1  0
  1 25  1  0
  1 26  1  0
  1 27  1  0
  2 28  1  1
  3 29  1  0
  3 30  1  0
  4 31  1  0
  8 32  1  0
 14 33  1  0
 16 34  1  0
 18 35  1  0
 19 36  1  0
 21 37  1  0
 21 38  1  0
 23 39  1  0
M  CHG  1  14  -1
M  END
>  <UniqueID>  (97) 
95

>  <SMILES>  (97) 
C[C@H](CO)OC(=O)NC(=O)n1c(C([NH-])=O)cc2ccc(CF)cc21

>  <Energy>  (97) 
71.63981608293255

>  <Genealogy>  (97) 
CC(CO)OC(=O)NC(=O)n1c(C([NH-])=O)cc2ccc(CF)cc21 (protonated)
C[C@H](CO)OC(=O)NC(=O)n1c(C([NH-])=O)cc2ccc(CF)cc21 (chirality)
C[C@H](CO)OC(=O)NC(=O)n1c(C([NH-])=O)cc2ccc(CF)cc21 (3D coordinates assigned)
C[C@H](CO)OC(=O)NC(=O)n1c(C([NH-])=O)cc2ccc(CF)cc21 (optimized conformer: 71.63981608293255 kcal/mol)

>  <smiles>  (97) 
CC(CO)OC(=O)NC(=O)n1c(C(N)=O)cc2ccc(CF)cc21

>  <score_type>  (97) 
oracle

>  <origin>  (97) 
adg

>  <m_score__min__energy>  (97) 
-6.2000000000000002

>  <m_primary>  (97) 
energy

$$$$
97:0
     RDKit          3D

 39 40  0  0  0  0  0  0  0  0999 V2000
  138.1190  159.8500  130.7660 C   0  0  0  0  0  0  0  0  0  0  0  0
  139.3600  158.9730  130.9270 C   0  0  0  0  0  0  0  0  0  0  0  0
  139.8980  158.9770  132.3730 C   0  0  2  0  0  0  0  0  0  0  0  0
  141.3610  158.8550  132.3790 N   0  0  0  0  0  0  0  0  0  0  0  0
  139.2790  157.8670  133.1840 C   0  0  0  0  0  0  0  0  0  0  0  0
  138.0330  157.8520  133.3820 O   0  0  0  0  0  0  0  0  0  0  0  0
  140.1110  156.8810  133.7290 O   0  0  0  0  0  0  0  0  0  0  0  0
  140.1870  155.5550  133.2850 C   0  0  0  0  0  0  0  0  0  0  0  0
  139.1500  154.9330  132.9280 O   0  0  0  0  0  0  0  0  0  0  0  0
  141.4670  154.9060  133.2150 N   0  0  0  0  0  0  0  0  0  0  0  0
  142.7010  155.4680  133.3580 C   0  0  0  0  0  0  0  0  0  0  0  0
  142.9920  156.9140  133.4590 C   0  0  0  0  0  0  0  0  0  0  0  0
  142.6130  157.6590  134.6120 N   0  0  0  0  0  0  0  0  0  0  0  0
  143.5400  157.5080  132.4930 O   0  0  0  0  0  0  0  0  0  0  0  0
  143.6910  154.4900  133.3090 C   0  0  0  0  0  0  0  0  0  0  0  0
  143.0220  153.3020  133.1200 C   0  0  0  0  0  0  0  0  0  0  0  0
  143.5150  152.0080  132.9940 C   0  0  0  0  0  0  0  0  0  0  0  0
  142.5910  150.9640  132.8240 C   0  0  0  0  0  0  0  0  0  0  0  0
  141.1960  151.2250  132.8100 C   0  0  0  0  0  0  0  0  0  0  0  0
  140.2150  150.1010  132.5890 C   0  0  0  0  0  0  0  0  0  0  0  0
  138.9650  150.6000  132.2650 F   0  0  0  0  0  0  0  0  0  0  0  0
  140.6640  149.3020  131.5540 F   0  0  0  0  0  0  0  0  0  0  0  0
  140.0900  149.3300  133.7320 F   0  0  0  0  0  0  0  0  0  0  0  0
  140.7360  152.5580  132.9190 C   0  0  0  0  0  0  0  0  0  0  0  0
  141.6810  153.5790  133.0680 C   0  0  0  0  0  0  0  0  0  0  0  0
  137.7320  160.1235  131.7587 H   0  0  0  0  0  0  0  0  0  0  0  0
  138.3842  160.7624  130.2117 H   0  0  0  0  0  0  0  0  0  0  0  0
  137.3475  159.2954  130.2117 H   0  0  0  0  0  0  0  0  0  0  0  0
  139.1017  157.9406  130.6488 H   0  0  0  0  0  0  0  0  0  0  0  0
  140.1464  159.3808  130.2749 H   0  0  0  0  0  0  0  0  0  0  0  0
  139.6211  159.9364  132.8343 H   0  0  0  0  0  0  0  0  0  0  0  0
  141.6670  158.2300  131.5990 H   0  0  0  0  0  0  0  0  0  0  0  0
  141.7960  159.7960  132.2330 H   0  0  0  0  0  0  0  0  0  0  0  0
  141.6970  158.4580  133.2880 H   0  0  0  0  0  0  0  0  0  0  0  0
  141.6490  158.0510  134.7060 H   0  0  0  0  0  0  0  0  0  0  0  0
  144.7773  154.6359  133.4017 H   0  0  0  0  0  0  0  0  0  0  0  0
  144.5962  151.8080  133.0265 H   0  0  0  0  0  0  0  0  0  0  0  0
  142.9526  149.9325  132.7003 H   0  0  0  0  0  0  0  0  0  0  0  0
  139.6605  152.7867  132.8874 H   0  0  0  0  0  0  0  0  0  0  0  0
  1  2  1  0
  2  3  1  0
  3  4  1  0
  3  5  1  0
  5  6  2  0
  5  7  1  0
  7  8  1  0
  8  9  2  0
  8 10  1  0
 10 11  1  0
 11 12  1  0
 12 13  1  0
 12 14  2  0
 11 15  2  0
 15 16  1  0
 16 17  2  0
 17 18  1  0
 18 19  2  0
 19 20  1  0
 20 21  1  0
 20 22  1  0
 20 23  1  0
 19 24  1  0
 24 25  2  0
 25 10  1  0
 25 16  1  0
  1 26  1  0
  1 27  1  0
  1 28  1  0
  2 29  1  0
  2 30  1  0
  3 31  1  1
  4 32  1  0
  4 33  1  0
  4 34  1  0
 13 35  1  0
 15 36  1  0
 17 37  1  0
 18 38  1  0
 24 39  1  0
M  CHG  2   4   1  13  -1
M  END
>  <UniqueID>  (98) 
96

>  <SMILES>  (98) 
CC[C@H]([NH3+])C(=O)OC(=O)n1c(C([NH-])=O)cc2ccc(C(F)(F)F)cc21

>  <Energy>  (98) 
74.88037691761052

>  <Genealogy>  (98) 
CC[C@H]([NH3+])C(=O)OC(=O)n1c(C([NH-])=O)cc2ccc(C(F)(F)F)cc21 (protonated)
CC[C@H]([NH3+])C(=O)OC(=O)n1c(C([NH-])=O)cc2ccc(C(F)(F)F)cc21 (3D coordinates assigned)
CC[C@H]([NH3+])C(=O)OC(=O)n1c(C([NH-])=O)cc2ccc(C(F)(F)F)cc21 (optimized conformer: 74.88037691761052 kcal/mol)

>  <smiles>  (98) 
CC[C@H](N)C(=O)OC(=O)n1c(C(N)=O)cc2ccc(C(F)(F)F)cc21

>  <score_type>  (98) 
oracle

>  <origin>  (98) 
adg

>  <m_score__min__energy>  (98) 
-5.7999999999999998

>  <m_primary>  (98) 
energy

$$$$
98:0
     RDKit          3D

 40 41  0  0  0  0  0  0  0  0999 V2000
  139.5370  160.3810  132.1850 C   0  0  0  0  0  0  0  0  0  0  0  0
  139.6070  159.0070  132.6950 N   0  0  0  0  0  0  0  0  0  0  0  0
  139.0500  157.9010  131.9020 C   0  0  0  0  0  0  0  0  0  0  0  0
  140.2230  158.7590  133.9800 C   0  0  0  0  0  0  0  0  0  0  0  0
  140.5830  159.7320  134.7010 O   0  0  0  0  0  0  0  0  0  0  0  0
  140.5190  157.3610  134.4580 C   0  0  0  0  0  0  0  0  0  0  0  0
  141.7330  156.8640  133.8140 N   0  0  0  0  0  0  0  0  0  0  0  0
  142.8440  157.6340  133.3330 C   0  0  0  0  0  0  0  0  0  0  0  0
  143.2260  157.4460  132.1450 O   0  0  0  0  0  0  0  0  0  0  0  0
  143.5770  158.6120  134.1690 C   0  0  0  0  0  0  0  0  0  0  0  0
  143.1010  159.0060  135.2640 O   0  0  0  0  0  0  0  0  0  0  0  0
  144.8630  159.1060  133.7570 N   0  0  0  0  0  0  0  0  0  0  0  0
  145.2580  160.4050  133.6680 C   0  0  0  0  0  0  0  0  0  0  0  0
  144.3760  161.5840  133.8160 C   0  0  0  0  0  0  0  0  0  0  0  0
  142.9660  161.4420  133.6620 N   0  0  0  0  0  0  0  0  0  0  0  0
  144.8510  162.7140  134.1060 O   0  0  0  0  0  0  0  0  0  0  0  0
  146.6130  160.4830  133.3530 C   0  0  0  0  0  0  0  0  0  0  0  0
  147.0430  159.1800  133.2580 C   0  0  0  0  0  0  0  0  0  0  0  0
  148.3040  158.6690  132.9700 C   0  0  0  0  0  0  0  0  0  0  0  0
  148.4590  157.2730  132.9420 C   0  0  0  0  0  0  0  0  0  0  0  0
  147.3680  156.4160  133.2330 C   0  0  0  0  0  0  0  0  0  0  0  0
  147.5310  154.9210  133.1280 C   0  0  0  0  0  0  0  0  0  0  0  0
  147.7710  154.4050  134.3880 F   0  0  0  0  0  0  0  0  0  0  0  0
  146.3870  154.3410  132.6130 F   0  0  0  0  0  0  0  0  0  0  0  0
  148.5920  154.6000  132.2980 F   0  0  0  0  0  0  0  0  0  0  0  0
  146.1000  156.9760  133.5200 C   0  0  0  0  0  0  0  0  0  0  0  0
  145.9680  158.3690  133.5110 C   0  0  0  0  0  0  0  0  0  0  0  0
  139.5012  161.0844  133.0300 H   0  0  0  0  0  0  0  0  0  0  0  0
  140.4257  160.5900  131.5713 H   0  0  0  0  0  0  0  0  0  0  0  0
  138.6317  160.4987  131.5713 H   0  0  0  0  0  0  0  0  0  0  0  0
  138.6596  157.1257  132.5776 H   0  0  0  0  0  0  0  0  0  0  0  0
  138.2347  158.2790  131.2676 H   0  0  0  0  0  0  0  0  0  0  0  0
  139.8391  157.4710  131.2676 H   0  0  0  0  0  0  0  0  0  0  0  0
  140.6620  157.3706  135.5486 H   0  0  0  0  0  0  0  0  0  0  0  0
  139.6759  156.7031  134.2003 H   0  0  0  0  0  0  0  0  0  0  0  0
  142.4190  160.7960  134.2800 H   0  0  0  0  0  0  0  0  0  0  0  0
  147.2123  161.3943  133.2104 H   0  0  0  0  0  0  0  0  0  0  0  0
  149.1543  159.3377  132.7702 H   0  0  0  0  0  0  0  0  0  0  0  0
  149.4386  156.8398  132.6913 H   0  0  0  0  0  0  0  0  0  0  0  0
  145.2380  156.3307  133.7450 H   0  0  0  0  0  0  0  0  0  0  0  0
  1  2  1  0
  2  3  1  0
  2  4  1  0
  4  5  2  0
  4  6  1  0
  6  7  1  0
  7  8  1  0
  8  9  2  0
  8 10  1  0
 10 11  2  0
 10 12  1  0
 12 13  1  0
 13 14  1  0
 14 15  1  0
 14 16  2  0
 13 17  2  0
 17 18  1  0
 18 19  2  0
 19 20  1  0
 20 21  2  0
 21 22  1  0
 22 23  1  0
 22 24  1  0
 22 25  1  0
 21 26  1  0
 26 27  2  0
 27 12  1  0
 27 18  1  0
  1 28  1  0
  1 29  1  0
  1 30  1  0
  3 31  1  0
  3 32  1  0
  3 33  1  0
  6 34  1  0
  6 35  1  0
 15 36  1  0
 17 37  1  0
 19 38  1  0
 20 39  1  0
 26 40  1  0
M  CHG  2   7  -1  15  -1
M  END
>  <UniqueID>  (99) 
97

>  <SMILES>  (99) 
CN(C)C(=O)C[N-]C(=O)C(=O)n1c(C([NH-])=O)cc2ccc(C(F)(F)F)cc21

>  <Energy>  (99) 
78.83809202338622

>  <Genealogy>  (99) 
CN(C)C(=O)C[N-]C(=O)C(=O)n1c(C([NH-])=O)cc2ccc(C(F)(F)F)cc21 (protonated)
CN(C)C(=O)C[N-]C(=O)C(=O)n1c(C([NH-])=O)cc2ccc(C(F)(F)F)cc21 (3D coordinates assigned)
CN(C)C(=O)C[N-]C(=O)C(=O)n1c(C([NH-])=O)cc2ccc(C(F)(F)F)cc21 (optimized conformer: 78.83809202338622 kcal/mol)

>  <smiles>  (99) 
CN(C)C(=O)CNC(=O)C(=O)n1c(C(N)=O)cc2ccc(C(F)(F)F)cc21

>  <score_type>  (99) 
oracle

>  <origin>  (99) 
adg

>  <m_score__min__energy>  (99) 
-6.7199999999999998

>  <m_primary>  (99) 
energy

$$$$
