0:0
     RDKit          3D

 34 35  0  0  0  0  0  0  0  0999 V2000
  140.3960  148.6410  130.7400 C   0  0  0  0  0  0  0  0  0  0  0  0
  141.0930  149.2480  131.9600 C   0  0  1  0  0  0  0  0  0  0  0  0
  142.4560  149.4320  131.6780 O   0  0  0  0  0  0  0  0  0  0  0  0
  140.4510  150.6020  132.3280 C   0  0  0  0  0  0  0  0  0  0  0  0
  141.3050  151.7520  131.9820 N   0  0  0  0  0  0  0  0  0  0  0  0
  141.8870  152.3580  133.1580 C   0  0  0  0  0  0  0  0  0  0  0  0
  142.9020  153.3400  133.0240 C   0  0  0  0  0  0  0  0  0  0  0  0
  143.4710  153.9420  134.1580 C   0  0  0  0  0  0  0  0  0  0  0  0
  143.0020  153.5530  135.4080 C   0  0  0  0  0  0  0  0  0  0  0  0
  143.3890  153.9590  136.6650 C   0  0  0  0  0  0  0  0  0  0  0  0
  142.5890  153.2400  137.5490 C   0  0  0  0  0  0  0  0  0  0  0  0
  142.6150  153.4400  139.0130 C   0  0  0  0  0  0  0  0  0  0  0  0
  142.5050  154.7430  139.5780 N   0  0  0  0  0  0  0  0  0  0  0  0
  142.7890  152.4500  139.7740 O   0  0  0  0  0  0  0  0  0  0  0  0
  141.7450  152.4140  136.8680 N   0  0  0  0  0  0  0  0  0  0  0  0
  140.8310  151.4490  137.4130 C   0  0  0  0  0  0  0  0  0  0  0  0
  140.2750  151.6550  138.5240 O   0  0  0  0  0  0  0  0  0  0  0  0
  140.5290  150.2920  136.7060 O   0  0  0  0  0  0  0  0  0  0  0  0
  142.0090  152.6200  135.5580 C   0  0  0  0  0  0  0  0  0  0  0  0
  141.4380  151.9880  134.4470 C   0  0  0  0  0  0  0  0  0  0  0  0
  139.6056  147.9527  131.0740 H   0  0  0  0  0  0  0  0  0  0  0  0
  139.9509  149.4443  130.1346 H   0  0  0  0  0  0  0  0  0  0  0  0
  141.1306  148.0897  130.1346 H   0  0  0  0  0  0  0  0  0  0  0  0
  140.9815  148.5614  132.8121 H   0  0  0  0  0  0  0  0  0  0  0  0
  142.8460  148.5290  131.5440 H   0  0  0  0  0  0  0  0  0  0  0  0
  139.4975  150.6972  131.7878 H   0  0  0  0  0  0  0  0  0  0  0  0
  140.3054  150.6139  133.4183 H   0  0  0  0  0  0  0  0  0  0  0  0
  142.0500  151.4610  131.3070 H   0  0  0  0  0  0  0  0  0  0  0  0
  140.7170  152.4670  131.4930 H   0  0  0  0  0  0  0  0  0  0  0  0
  143.2469  153.6329  132.0214 H   0  0  0  0  0  0  0  0  0  0  0  0
  144.2637  154.6984  134.0604 H   0  0  0  0  0  0  0  0  0  0  0  0
  144.1659  154.6956  136.9176 H   0  0  0  0  0  0  0  0  0  0  0  0
  143.2360  155.4670  139.4050 H   0  0  0  0  0  0  0  0  0  0  0  0
  140.6588  151.2220  134.5736 H   0  0  0  0  0  0  0  0  0  0  0  0
  1  2  1  0
  2  3  1  0
  2  4  1  0
  4  5  1  0
  5  6  1  0
  6  7  2  0
  7  8  1  0
  8  9  2  0
  9 10  1  0
 10 11  2  0
 11 12  1  0
 12 13  1  0
 12 14  2  0
 11 15  1  0
 15 16  1  0
 16 17  2  0
 16 18  1  0
 15 19  1  0
 19 20  2  0
 20  6  1  0
 19  9  1  0
  1 21  1  0
  1 22  1  0
  1 23  1  0
  2 24  1  1
  3 25  1  0
  4 26  1  0
  4 27  1  0
  5 28  1  0
  5 29  1  0
  7 30  1  0
  8 31  1  0
 10 32  1  0
 13 33  1  0
 20 34  1  0
M  CHG  3   5   1  13  -1  18  -1
M  END
>  <UniqueID>  (1) 
1

>  <SMILES>  (1) 
C[C@@H](O)C[NH2+]c1ccc2cc(C([NH-])=O)n(C(=O)[O-])c2c1

>  <Energy>  (1) 
71.59490102202525

>  <Genealogy>  (1) 
CC(O)C[NH2+]c1ccc2cc(C([NH-])=O)n(C(=O)[O-])c2c1 (protonated)
C[C@@H](O)C[NH2+]c1ccc2cc(C([NH-])=O)n(C(=O)[O-])c2c1 (chirality)
C[C@@H](O)C[NH2+]c1ccc2cc(C([NH-])=O)n(C(=O)[O-])c2c1 (3D coordinates assigned)
C[C@@H](O)C[NH2+]c1ccc2cc(C([NH-])=O)n(C(=O)[O-])c2c1 (optimized conformer: 71.59490102202525 kcal/mol)

>  <smiles>  (1) 
CC(O)CNc1ccc2cc(C(N)=O)n(C(=O)O)c2c1

>  <score_type>  (1) 
oracle

>  <origin>  (1) 
adg

>  <m_score__min__energy>  (1) 
-6.5999999999999996

>  <m_primary>  (1) 
energy

$$$$
1:0
     RDKit          3D

 30 31  0  0  0  0  0  0  0  0999 V2000
  148.0780  152.5920  133.6650 N   0  0  0  0  0  0  0  0  0  0  0  0
  148.7800  153.6930  133.0850 C   0  0  0  0  0  0  0  0  0  0  0  0
  149.9230  153.4970  132.5920 O   0  0  0  0  0  0  0  0  0  0  0  0
  148.1730  155.0420  133.0400 C   0  0  0  0  0  0  0  0  0  0  0  0
  148.8400  156.1890  132.6090 C   0  0  0  0  0  0  0  0  0  0  0  0
  147.9570  157.2260  132.8240 C   0  0  0  0  0  0  0  0  0  0  0  0
  148.0950  158.5880  132.5730 C   0  0  0  0  0  0  0  0  0  0  0  0
  147.0120  159.4280  132.8830 C   0  0  0  0  0  0  0  0  0  0  0  0
  145.8220  158.8950  133.4390 C   0  0  0  0  0  0  0  0  0  0  0  0
  144.6550  159.8000  133.7290 C   0  0  0  0  0  0  0  0  0  0  0  0
  145.1280  161.2040  134.0980 C   0  0  0  0  0  0  0  0  0  0  0  0
  144.1810  162.1440  133.7290 F   0  0  0  0  0  0  0  0  0  0  0  0
  145.7160  157.5050  133.6720 C   0  0  0  0  0  0  0  0  0  0  0  0
  146.8140  156.6980  133.3630 C   0  0  0  0  0  0  0  0  0  0  0  0
  146.9280  155.3600  133.4950 N   0  0  0  0  0  0  0  0  0  0  0  0
  145.9120  154.4710  133.9890 C   0  0  0  0  0  0  0  0  0  0  0  0
  145.1910  153.8370  133.1740 O   0  0  0  0  0  0  0  0  0  0  0  0
  145.7320  154.2550  135.4320 C   0  0  0  0  0  0  0  0  0  0  0  0
  144.7890  154.8190  136.0470 O   0  0  0  0  0  0  0  0  0  0  0  0
  146.6130  153.4390  136.1290 O   0  0  0  0  0  0  0  0  0  0  0  0
  148.5030  151.6380  133.6580 H   0  0  0  0  0  0  0  0  0  0  0  0
  147.1580  152.7210  134.1410 H   0  0  0  0  0  0  0  0  0  0  0  0
  149.8541  156.2526  132.1875 H   0  0  0  0  0  0  0  0  0  0  0  0
  149.0233  158.9944  132.1451 H   0  0  0  0  0  0  0  0  0  0  0  0
  147.0883  160.5087  132.6925 H   0  0  0  0  0  0  0  0  0  0  0  0
  144.0155  159.8593  132.8360 H   0  0  0  0  0  0  0  0  0  0  0  0
  144.0935  159.3853  134.5791 H   0  0  0  0  0  0  0  0  0  0  0  0
  145.2887  161.2585  135.1848 H   0  0  0  0  0  0  0  0  0  0  0  0
  146.0674  161.4157  133.5663 H   0  0  0  0  0  0  0  0  0  0  0  0
  144.7940  157.0703  134.0854 H   0  0  0  0  0  0  0  0  0  0  0  0
  1  2  1  0
  2  3  2  0
  2  4  1  0
  4  5  2  0
  5  6  1  0
  6  7  2  0
  7  8  1  0
  8  9  2  0
  9 10  1  0
 10 11  1  0
 11 12  1  0
  9 13  1  0
 13 14  2  0
 14 15  1  0
 15 16  1  0
 16 17  2  0
 16 18  1  0
 18 19  2  0
 18 20  1  0
 15  4  1  0
 14  6  1  0
  1 21  1  0
  1 22  1  0
  5 23  1  0
  7 24  1  0
  8 25  1  0
 10 26  1  0
 10 27  1  0
 11 28  1  0
 11 29  1  0
 13 30  1  0
M  CHG  1  20  -1
M  END
>  <UniqueID>  (2) 
2

>  <SMILES>  (2) 
NC(=O)c1cc2ccc(CCF)cc2n1C(=O)C(=O)[O-]

>  <Energy>  (2) 
66.43566495793705

>  <Genealogy>  (2) 
NC(=O)c1cc2ccc(CCF)cc2n1C(=O)C(=O)[O-] (protonated)
NC(=O)c1cc2ccc(CCF)cc2n1C(=O)C(=O)[O-] (3D coordinates assigned)
NC(=O)c1cc2ccc(CCF)cc2n1C(=O)C(=O)[O-] (optimized conformer: 66.43566495793705 kcal/mol)

>  <smiles>  (2) 
NC(=O)c1cc2ccc(CCF)cc2n1C(=O)C(=O)O

>  <score_type>  (2) 
oracle

>  <origin>  (2) 
adg

>  <m_score__min__energy>  (2) 
-5.9699999999999998

>  <m_primary>  (2) 
energy

$$$$
2:0
     RDKit          3D

 30 31  0  0  0  0  0  0  0  0999 V2000
  148.8900  158.4490  131.2650 N   0  0  0  0  0  0  0  0  0  0  0  0
  148.4370  159.2590  132.3470 C   0  0  0  0  0  0  0  0  0  0  0  0
  149.2210  160.1030  132.8550 O   0  0  0  0  0  0  0  0  0  0  0  0
  147.0750  159.0700  132.8890 C   0  0  0  0  0  0  0  0  0  0  0  0
  146.1440  160.0990  133.0000 C   0  0  0  0  0  0  0  0  0  0  0  0
  144.9920  159.5020  133.4560 C   0  0  0  0  0  0  0  0  0  0  0  0
  143.7490  160.0580  133.7440 C   0  0  0  0  0  0  0  0  0  0  0  0
  142.7400  159.2050  134.2210 C   0  0  0  0  0  0  0  0  0  0  0  0
  142.9940  157.8240  134.4280 C   0  0  0  0  0  0  0  0  0  0  0  0
  141.8930  156.9130  134.9060 C   0  0  0  0  0  0  0  0  0  0  0  0
  142.2760  156.3240  136.0970 F   0  0  0  0  0  0  0  0  0  0  0  0
  140.7230  157.6230  135.1090 F   0  0  0  0  0  0  0  0  0  0  0  0
  141.6410  155.9210  133.9740 F   0  0  0  0  0  0  0  0  0  0  0  0
  144.2640  157.2940  134.1020 C   0  0  0  0  0  0  0  0  0  0  0  0
  145.2460  158.1640  133.6100 C   0  0  0  0  0  0  0  0  0  0  0  0
  146.5230  157.8820  133.2670 N   0  0  0  0  0  0  0  0  0  0  0  0
  147.1720  156.6040  133.3660 C   0  0  0  0  0  0  0  0  0  0  0  0
  147.4980  155.9800  132.3190 O   0  0  0  0  0  0  0  0  0  0  0  0
  147.4220  156.0490  134.6240 O   0  0  0  0  0  0  0  0  0  0  0  0
  147.6310  154.6560  134.8220 C   0  0  0  0  0  0  0  0  0  0  0  0
  146.6110  154.1380  135.7780 C   0  0  0  0  0  0  0  0  0  0  0  0
  145.4350  154.5860  135.7550 O   0  0  0  0  0  0  0  0  0  0  0  0
  146.9710  153.1980  136.7350 O   0  0  0  0  0  0  0  0  0  0  0  0
  148.5570  157.4650  131.1560 H   0  0  0  0  0  0  0  0  0  0  0  0
  146.2973  161.1640  132.7714 H   0  0  0  0  0  0  0  0  0  0  0  0
  143.5624  161.1328  133.6024 H   0  0  0  0  0  0  0  0  0  0  0  0
  141.7412  159.6122  134.4367 H   0  0  0  0  0  0  0  0  0  0  0  0
  144.4762  156.2225  134.2318 H   0  0  0  0  0  0  0  0  0  0  0  0
  147.5354  154.1294  133.8610 H   0  0  0  0  0  0  0  0  0  0  0  0
  148.6386  154.4879  135.2299 H   0  0  0  0  0  0  0  0  0  0  0  0
  1  2  1  0
  2  3  2  0
  2  4  1  0
  4  5  2  0
  5  6  1  0
  6  7  2  0
  7  8  1  0
  8  9  2  0
  9 10  1  0
 10 11  1  0
 10 12  1  0
 10 13  1  0
  9 14  1  0
 14 15  2  0
 15 16  1  0
 16 17  1  0
 17 18  2  0
 17 19  1  0
 19 20  1  0
 20 21  1  0
 21 22  2  0
 21 23  1  0
 16  4  1  0
 15  6  1  0
  1 24  1  0
  5 25  1  0
  7 26  1  0
  8 27  1  0
 14 28  1  0
 20 29  1  0
 20 30  1  0
M  CHG  2   1  -1  23  -1
M  END
>  <UniqueID>  (3) 
3

>  <SMILES>  (3) 
[NH-]C(=O)c1cc2ccc(C(F)(F)F)cc2n1C(=O)OCC(=O)[O-]

>  <Energy>  (3) 
66.71444415005413

>  <Genealogy>  (3) 
[NH-]C(=O)c1cc2ccc(C(F)(F)F)cc2n1C(=O)OCC(=O)[O-] (protonated)
[NH-]C(=O)c1cc2ccc(C(F)(F)F)cc2n1C(=O)OCC(=O)[O-] (3D coordinates assigned)
[NH-]C(=O)c1cc2ccc(C(F)(F)F)cc2n1C(=O)OCC(=O)[O-] (optimized conformer: 66.71444415005413 kcal/mol)

>  <smiles>  (3) 
NC(=O)c1cc2ccc(C(F)(F)F)cc2n1C(=O)OCC(=O)O

>  <score_type>  (3) 
oracle

>  <origin>  (3) 
adg

>  <m_score__min__energy>  (3) 
-5.5099999999999998

>  <m_primary>  (3) 
energy

$$$$
3:0
     RDKit          3D

 31 33  0  0  0  0  0  0  0  0999 V2000
  138.4690  157.1420  133.4770 N   0  0  0  0  0  0  0  0  0  0  0  0
  139.2230  157.8820  134.4370 C   0  0  0  0  0  0  0  0  0  0  0  0
  138.7380  158.0850  135.5810 O   0  0  0  0  0  0  0  0  0  0  0  0
  140.5890  158.3570  134.1350 C   0  0  0  0  0  0  0  0  0  0  0  0
  140.9530  159.7000  134.1590 C   0  0  0  0  0  0  0  0  0  0  0  0
  142.3030  159.7130  133.8930 C   0  0  0  0  0  0  0  0  0  0  0  0
  143.1800  160.7860  133.7840 C   0  0  0  0  0  0  0  0  0  0  0  0
  144.5200  160.5140  133.4640 C   0  0  0  0  0  0  0  0  0  0  0  0
  144.9600  159.1810  133.2490 C   0  0  0  0  0  0  0  0  0  0  0  0
  146.3770  158.9080  132.8980 C   0  0  0  0  0  0  0  0  0  0  0  0
  146.9070  157.6110  132.9950 C   0  0  0  0  0  0  0  0  0  0  0  0
  148.2400  157.3680  132.6620 C   0  0  0  0  0  0  0  0  0  0  0  0
  149.0410  158.4280  132.2320 C   0  0  0  0  0  0  0  0  0  0  0  0
  150.2450  158.2280  131.9260 O   0  0  0  0  0  0  0  0  0  0  0  0
  148.5200  159.6800  132.1410 N   0  0  0  0  0  0  0  0  0  0  0  0
  147.2240  159.9420  132.4590 C   0  0  0  0  0  0  0  0  0  0  0  0
  144.0340  158.1160  133.3680 C   0  0  0  0  0  0  0  0  0  0  0  0
  142.7090  158.4160  133.7080 C   0  0  0  0  0  0  0  0  0  0  0  0
  141.6640  157.5680  133.8520 N   0  0  0  0  0  0  0  0  0  0  0  0
  141.6640  156.1500  133.6210 C   0  0  0  0  0  0  0  0  0  0  0  0
  142.6390  155.4420  133.9880 O   0  0  0  0  0  0  0  0  0  0  0  0
  140.5900  155.5430  132.9810 O   0  0  0  0  0  0  0  0  0  0  0  0
  137.4920  156.8440  133.6950 H   0  0  0  0  0  0  0  0  0  0  0  0
  138.9020  156.8160  132.5850 H   0  0  0  0  0  0  0  0  0  0  0  0
  140.3013  160.5654  134.3497 H   0  0  0  0  0  0  0  0  0  0  0  0
  142.8344  161.8180  133.9437 H   0  0  0  0  0  0  0  0  0  0  0  0
  145.2375  161.3435  133.3789 H   0  0  0  0  0  0  0  0  0  0  0  0
  146.2681  156.7827  133.3351 H   0  0  0  0  0  0  0  0  0  0  0  0
  148.6555  156.3523  132.7374 H   0  0  0  0  0  0  0  0  0  0  0  0
  146.8360  160.9676  132.3725 H   0  0  0  0  0  0  0  0  0  0  0  0
  144.3487  157.0759  133.1971 H   0  0  0  0  0  0  0  0  0  0  0  0
  1  2  1  0
  2  3  2  0
  2  4  1  0
  4  5  2  0
  5  6  1  0
  6  7  2  0
  7  8  1  0
  8  9  2  0
  9 10  1  0
 10 11  1  0
 11 12  2  0
 12 13  1  0
 13 14  2  0
 13 15  1  0
 15 16  1  0
  9 17  1  0
 17 18  2  0
 18 19  1  0
 19 20  1  0
 20 21  2  0
 20 22  1  0
 19  4  1  0
 18  6  1  0
 16 10  2  0
  1 23  1  0
  1 24  1  0
  5 25  1  0
  7 26  1  0
  8 27  1  0
 11 28  1  0
 12 29  1  0
 16 30  1  0
 17 31  1  0
M  CHG  2  15  -1  22  -1
M  END
>  <UniqueID>  (4) 
4

>  <SMILES>  (4) 
NC(=O)c1cc2ccc(-c3ccc(=O)[n-]c3)cc2n1C(=O)[O-]

>  <Energy>  (4) 
80.25034341408346

>  <Genealogy>  (4) 
NC(=O)c1cc2ccc(-c3ccc(=O)[n-]c3)cc2n1C(=O)[O-] (protonated)
NC(=O)c1cc2ccc(-c3ccc(=O)[n-]c3)cc2n1C(=O)[O-] (3D coordinates assigned)
NC(=O)c1cc2ccc(-c3ccc(=O)[n-]c3)cc2n1C(=O)[O-] (optimized conformer: 80.25034341408346 kcal/mol)

>  <smiles>  (4) 
NC(=O)c1cc2ccc(-c3ccc(=O)[nH]c3)cc2n1C(=O)O

>  <score_type>  (4) 
oracle

>  <origin>  (4) 
adg

>  <m_score__min__energy>  (4) 
-6.9299999999999997

>  <m_primary>  (4) 
energy

$$$$
4:0
     RDKit          3D

 47 49  0  0  0  0  0  0  0  0999 V2000
  148.3580  155.8630  132.7230 C   0  0  0  0  0  0  0  0  0  0  0  0
  148.8920  157.2780  132.9270 C   0  0  1  0  0  0  0  0  0  0  0  0
  149.6680  157.6430  131.8390 F   0  0  0  0  0  0  0  0  0  0  0  0
  147.7570  158.2540  133.1060 C   0  0  0  0  0  0  0  0  0  0  0  0
  148.0310  159.6230  133.3490 C   0  0  0  0  0  0  0  0  0  0  0  0
  146.9840  160.5420  133.5360 C   0  0  0  0  0  0  0  0  0  0  0  0
  145.6800  160.0620  133.4930 C   0  0  0  0  0  0  0  0  0  0  0  0
  144.4850  160.7350  133.6130 C   0  0  0  0  0  0  0  0  0  0  0  0
  143.4990  159.7600  133.4770 C   0  0  0  0  0  0  0  0  0  0  0  0
  142.0550  160.0370  133.6130 C   0  0  0  0  0  0  0  0  0  0  0  0
  141.1230  159.3880  132.7500 N   0  0  0  0  0  0  0  0  0  0  0  0
  141.6350  160.8690  134.4600 O   0  0  0  0  0  0  0  0  0  0  0  0
  144.0600  158.5350  133.2780 N   0  0  0  0  0  0  0  0  0  0  0  0
  143.3830  157.3020  132.9850 C   0  0  0  0  0  0  0  0  0  0  0  0
  142.8670  157.1190  131.8490 O   0  0  0  0  0  0  0  0  0  0  0  0
  143.2720  156.3250  133.9770 O   0  0  0  0  0  0  0  0  0  0  0  0
  142.5810  155.0970  133.7830 C   0  0  0  0  0  0  0  0  0  0  0  0
  141.0600  155.3160  133.6370 C   0  0  0  0  0  0  0  0  0  0  0  0
  140.5830  156.7240  133.7170 N   0  0  0  0  0  0  0  0  0  0  0  0
  140.2700  157.2110  135.0750 C   0  0  0  0  0  0  0  0  0  0  0  0
  139.1090  158.1770  134.9380 C   0  0  0  0  0  0  0  0  0  0  0  0
  138.3550  157.6820  133.7240 C   0  0  0  0  0  0  0  0  0  0  0  0
  139.4150  157.0120  132.8580 C   0  0  0  0  0  0  0  0  0  0  0  0
  145.3960  158.7350  133.2900 C   0  0  0  0  0  0  0  0  0  0  0  0
  146.4180  157.8010  133.0800 C   0  0  0  0  0  0  0  0  0  0  0  0
  148.1808  155.3933  133.7018 H   0  0  0  0  0  0  0  0  0  0  0  0
  147.4139  155.9050  132.1601 H   0  0  0  0  0  0  0  0  0  0  0  0
  149.0945  155.2708  132.1601 H   0  0  0  0  0  0  0  0  0  0  0  0
  149.5092  157.2966  133.8373 H   0  0  0  0  0  0  0  0  0  0  0  0
  149.0739  159.9701  133.3917 H   0  0  0  0  0  0  0  0  0  0  0  0
  147.1901  161.6083  133.7110 H   0  0  0  0  0  0  0  0  0  0  0  0
  144.3397  161.8124  133.7805 H   0  0  0  0  0  0  0  0  0  0  0  0
  141.4500  158.7890  131.9600 H   0  0  0  0  0  0  0  0  0  0  0  0
  142.9610  154.6141  132.8706 H   0  0  0  0  0  0  0  0  0  0  0  0
  142.7535  154.4628  134.6651 H   0  0  0  0  0  0  0  0  0  0  0  0
  140.7566  154.9150  132.6587 H   0  0  0  0  0  0  0  0  0  0  0  0
  140.6072  154.8048  134.4993 H   0  0  0  0  0  0  0  0  0  0  0  0
  141.3730  157.3170  133.3620 H   0  0  0  0  0  0  0  0  0  0  0  0
  139.9871  156.3687  135.7234 H   0  0  0  0  0  0  0  0  0  0  0  0
  141.1425  157.7046  135.5278 H   0  0  0  0  0  0  0  0  0  0  0  0
  138.4698  158.1479  135.8327 H   0  0  0  0  0  0  0  0  0  0  0  0
  139.4399  159.2206  134.8316 H   0  0  0  0  0  0  0  0  0  0  0  0
  137.5795  156.9590  134.0170 H   0  0  0  0  0  0  0  0  0  0  0  0
  137.8379  158.4958  133.1945 H   0  0  0  0  0  0  0  0  0  0  0  0
  139.0187  156.0755  132.4387 H   0  0  0  0  0  0  0  0  0  0  0  0
  139.7032  157.6699  132.0249 H   0  0  0  0  0  0  0  0  0  0  0  0
  146.1848  156.7413  132.8993 H   0  0  0  0  0  0  0  0  0  0  0  0
  1  2  1  0
  2  3  1  0
  2  4  1  0
  4  5  2  0
  5  6  1  0
  6  7  2  0
  7  8  1  0
  8  9  2  0
  9 10  1  0
 10 11  1  0
 10 12  2  0
  9 13  1  0
 13 14  1  0
 14 15  2  0
 14 16  1  0
 16 17  1  0
 17 18  1  0
 18 19  1  0
 19 20  1  0
 20 21  1  0
 21 22  1  0
 22 23  1  0
 13 24  1  0
 24 25  2  0
 25  4  1  0
 24  7  1  0
 23 19  1  0
  1 26  1  0
  1 27  1  0
  1 28  1  0
  2 29  1  1
  5 30  1  0
  6 31  1  0
  8 32  1  0
 11 33  1  0
 17 34  1  0
 17 35  1  0
 18 36  1  0
 18 37  1  0
 19 38  1  0
 20 39  1  0
 20 40  1  0
 21 41  1  0
 21 42  1  0
 22 43  1  0
 22 44  1  0
 23 45  1  0
 23 46  1  0
 25 47  1  0
M  CHG  2  11  -1  19   1
M  END
>  <UniqueID>  (5) 
5

>  <SMILES>  (5) 
C[C@@H](F)c1ccc2cc(C([NH-])=O)n(C(=O)OCC[NH+]3CCCC3)c2c1

>  <Energy>  (5) 
88.03281874251377

>  <Genealogy>  (5) 
CC(F)c1ccc2cc(C([NH-])=O)n(C(=O)OCC[NH+]3CCCC3)c2c1 (protonated)
C[C@@H](F)c1ccc2cc(C([NH-])=O)n(C(=O)OCC[NH+]3CCCC3)c2c1 (chirality)
C[C@@H](F)c1ccc2cc(C([NH-])=O)n(C(=O)OCC[NH+]3CCCC3)c2c1 (3D coordinates assigned)
C[C@@H](F)c1ccc2cc(C([NH-])=O)n(C(=O)OCC[NH+]3CCCC3)c2c1 (nonaromatic ring conformer: 88.03281874251377 kcal/mol)

>  <smiles>  (5) 
CC(F)c1ccc2cc(C(N)=O)n(C(=O)OCCN3CCCC3)c2c1

>  <score_type>  (5) 
oracle

>  <origin>  (5) 
adg

>  <m_score__min__energy>  (5) 
-6.3799999999999999

>  <m_primary>  (5) 
energy

$$$$
5:0
     RDKit          3D

 46 47  0  0  0  0  0  0  0  0999 V2000
  148.9800  150.1750  132.2050 C   0  0  0  0  0  0  0  0  0  0  0  0
  148.1660  151.2650  132.5780 O   0  0  0  0  0  0  0  0  0  0  0  0
  148.9390  152.2140  133.2870 C   0  0  0  0  0  0  0  0  0  0  0  0
  148.1790  153.5650  133.3800 C   0  0  0  0  0  0  0  0  0  0  0  0
  148.1070  153.9660  134.8730 C   0  0  0  0  0  0  0  0  0  0  0  0
  148.9850  154.6410  132.6100 C   0  0  0  0  0  0  0  0  0  0  0  0
  146.8130  153.3940  132.8040 N   0  0  0  0  0  0  0  0  0  0  0  0
  145.8870  154.4580  133.1350 C   0  0  0  0  0  0  0  0  0  0  0  0
  144.5910  154.1520  133.6310 C   0  0  0  0  0  0  0  0  0  0  0  0
  143.6900  155.1750  133.9680 C   0  0  0  0  0  0  0  0  0  0  0  0
  144.1080  156.4920  133.8110 C   0  0  0  0  0  0  0  0  0  0  0  0
  143.4440  157.6710  134.0630 C   0  0  0  0  0  0  0  0  0  0  0  0
  144.3410  158.6810  133.7190 C   0  0  0  0  0  0  0  0  0  0  0  0
  144.0020  160.1210  133.7410 C   0  0  0  0  0  0  0  0  0  0  0  0
  145.0430  161.0930  133.8000 N   0  0  0  0  0  0  0  0  0  0  0  0
  142.8000  160.5000  133.7360 O   0  0  0  0  0  0  0  0  0  0  0  0
  145.5170  158.1460  133.2840 N   0  0  0  0  0  0  0  0  0  0  0  0
  146.7020  158.8350  132.8580 C   0  0  0  0  0  0  0  0  0  0  0  0
  146.6340  159.6560  131.9040 O   0  0  0  0  0  0  0  0  0  0  0  0
  148.0020  158.5690  133.4920 C   0  0  0  0  0  0  0  0  0  0  0  0
  148.0740  157.7890  134.4790 O   0  0  0  0  0  0  0  0  0  0  0  0
  149.1550  159.1790  132.9870 O   0  0  0  0  0  0  0  0  0  0  0  0
  149.5970  158.9920  131.6460 C   0  0  0  0  0  0  0  0  0  0  0  0
  145.3550  156.8070  133.3390 C   0  0  0  0  0  0  0  0  0  0  0  0
  146.2780  155.8120  133.0050 C   0  0  0  0  0  0  0  0  0  0  0  0
  149.3557  149.6720  133.1082 H   0  0  0  0  0  0  0  0  0  0  0  0
  148.3899  149.4641  131.6080 H   0  0  0  0  0  0  0  0  0  0  0  0
  149.8292  150.5389  131.6080 H   0  0  0  0  0  0  0  0  0  0  0  0
  149.1353  151.8372  134.3016 H   0  0  0  0  0  0  0  0  0  0  0  0
  149.8883  152.3728  132.7544 H   0  0  0  0  0  0  0  0  0  0  0  0
  148.2668  153.0763  135.4998 H   0  0  0  0  0  0  0  0  0  0  0  0
  148.8855  154.7121  135.0902 H   0  0  0  0  0  0  0  0  0  0  0  0
  147.1175  154.3947  135.0902 H   0  0  0  0  0  0  0  0  0  0  0  0
  149.4848  155.3082  133.3277 H   0  0  0  0  0  0  0  0  0  0  0  0
  149.7401  154.1509  131.9778 H   0  0  0  0  0  0  0  0  0  0  0  0
  148.3024  155.2279  131.9778 H   0  0  0  0  0  0  0  0  0  0  0  0
  146.8750  153.3240  131.7610 H   0  0  0  0  0  0  0  0  0  0  0  0
  146.4090  152.4850  133.1310 H   0  0  0  0  0  0  0  0  0  0  0  0
  144.2899  153.1010  133.7524 H   0  0  0  0  0  0  0  0  0  0  0  0
  142.6834  154.9415  134.3450 H   0  0  0  0  0  0  0  0  0  0  0  0
  142.4225  157.7908  134.4530 H   0  0  0  0  0  0  0  0  0  0  0  0
  145.6740  161.2540  132.9830 H   0  0  0  0  0  0  0  0  0  0  0  0
  150.6101  158.5634  131.6502 H   0  0  0  0  0  0  0  0  0  0  0  0
  148.9112  158.3069  131.1260 H   0  0  0  0  0  0  0  0  0  0  0  0
  149.6111  159.9613  131.1260 H   0  0  0  0  0  0  0  0  0  0  0  0
  147.2851  156.0752  132.6493 H   0  0  0  0  0  0  0  0  0  0  0  0
  1  2  1  0
  2  3  1  0
  3  4  1  0
  4  5  1  0
  4  6  1  0
  4  7  1  0
  7  8  1  0
  8  9  2  0
  9 10  1  0
 10 11  2  0
 11 12  1  0
 12 13  2  0
 13 14  1  0
 14 15  1  0
 14 16  2  0
 13 17  1  0
 17 18  1  0
 18 19  2  0
 18 20  1  0
 20 21  2  0
 20 22  1  0
 22 23  1  0
 17 24  1  0
 24 25  2  0
 25  8  1  0
 24 11  1  0
  1 26  1  0
  1 27  1  0
  1 28  1  0
  3 29  1  0
  3 30  1  0
  5 31  1  0
  5 32  1  0
  5 33  1  0
  6 34  1  0
  6 35  1  0
  6 36  1  0
  7 37  1  0
  7 38  1  0
  9 39  1  0
 10 40  1  0
 12 41  1  0
 15 42  1  0
 23 43  1  0
 23 44  1  0
 23 45  1  0
 25 46  1  0
M  CHG  2   7   1  15  -1
M  END
>  <UniqueID>  (6) 
6

>  <SMILES>  (6) 
COCC(C)(C)[NH2+]c1ccc2cc(C([NH-])=O)n(C(=O)C(=O)OC)c2c1

>  <Energy>  (6) 
84.80271925742856

>  <Genealogy>  (6) 
COCC(C)(C)[NH2+]c1ccc2cc(C([NH-])=O)n(C(=O)C(=O)OC)c2c1 (protonated)
COCC(C)(C)[NH2+]c1ccc2cc(C([NH-])=O)n(C(=O)C(=O)OC)c2c1 (3D coordinates assigned)
COCC(C)(C)[NH2+]c1ccc2cc(C([NH-])=O)n(C(=O)C(=O)OC)c2c1 (optimized conformer: 84.80271925742856 kcal/mol)

>  <smiles>  (6) 
COCC(C)(C)Nc1ccc2cc(C(N)=O)n(C(=O)C(=O)OC)c2c1

>  <score_type>  (6) 
oracle

>  <origin>  (6) 
adg

>  <m_score__min__energy>  (6) 
-6.0599999999999996

>  <m_primary>  (6) 
energy

$$$$
6:0
     RDKit          3D

 35 36  0  0  0  0  0  0  0  0999 V2000
  144.7380  161.8660  134.1320 C   0  0  0  0  0  0  0  0  0  0  0  0
  145.5460  161.0430  133.7810 C   0  0  0  0  0  0  0  0  0  0  0  0
  146.5100  160.0610  133.3610 C   0  0  0  0  0  0  0  0  0  0  0  0
  147.6800  160.4660  132.6770 C   0  0  0  0  0  0  0  0  0  0  0  0
  148.6260  159.5150  132.2590 C   0  0  0  0  0  0  0  0  0  0  0  0
  148.3700  158.1750  132.5390 C   0  0  0  0  0  0  0  0  0  0  0  0
  149.1060  157.0490  132.2410 C   0  0  0  0  0  0  0  0  0  0  0  0
  148.3730  155.9820  132.7590 C   0  0  0  0  0  0  0  0  0  0  0  0
  148.8450  154.5820  132.7420 C   0  0  0  0  0  0  0  0  0  0  0  0
  147.9410  153.5030  132.9630 N   0  0  0  0  0  0  0  0  0  0  0  0
  150.0680  154.3370  132.5670 O   0  0  0  0  0  0  0  0  0  0  0  0
  147.2250  156.4300  133.3390 N   0  0  0  0  0  0  0  0  0  0  0  0
  146.1590  155.6530  133.9070 C   0  0  0  0  0  0  0  0  0  0  0  0
  146.0340  155.5910  135.1590 O   0  0  0  0  0  0  0  0  0  0  0  0
  145.1550  154.9670  133.0130 C   0  0  1  0  0  0  0  0  0  0  0  0
  145.6610  154.9030  131.7030 O   0  0  0  0  0  0  0  0  0  0  0  0
  144.7640  153.5580  133.5240 C   0  0  2  0  0  0  0  0  0  0  0  0
  145.7950  153.0410  134.3280 O   0  0  0  0  0  0  0  0  0  0  0  0
  144.4040  152.5620  132.4040 C   0  0  0  0  0  0  0  0  0  0  0  0
  145.5560  152.1050  131.7540 O   0  0  0  0  0  0  0  0  0  0  0  0
  147.2430  157.7730  133.2060 C   0  0  0  0  0  0  0  0  0  0  0  0
  146.2820  158.6960  133.6300 C   0  0  0  0  0  0  0  0  0  0  0  0
  144.0008  162.6169  134.4523 H   0  0  0  0  0  0  0  0  0  0  0  0
  147.8504  161.5330  132.4709 H   0  0  0  0  0  0  0  0  0  0  0  0
  149.5398  159.8192  131.7275 H   0  0  0  0  0  0  0  0  0  0  0  0
  150.0671  157.0019  131.7080 H   0  0  0  0  0  0  0  0  0  0  0  0
  146.9750  153.5200  132.5660 H   0  0  0  0  0  0  0  0  0  0  0  0
  144.2319  155.5651  133.0245 H   0  0  0  0  0  0  0  0  0  0  0  0
  146.3130  154.1550  131.6830 H   0  0  0  0  0  0  0  0  0  0  0  0
  143.8455  153.6853  134.1158 H   0  0  0  0  0  0  0  0  0  0  0  0
  146.4060  152.5390  133.7270 H   0  0  0  0  0  0  0  0  0  0  0  0
  143.8730  151.7039  132.8419 H   0  0  0  0  0  0  0  0  0  0  0  0
  143.7654  153.0744  131.6694 H   0  0  0  0  0  0  0  0  0  0  0  0
  146.2410  152.8130  131.8740 H   0  0  0  0  0  0  0  0  0  0  0  0
  145.3748  158.3668  134.1579 H   0  0  0  0  0  0  0  0  0  0  0  0
  1  2  3  0
  2  3  1  0
  3  4  2  0
  4  5  1  0
  5  6  2  0
  6  7  1  0
  7  8  2  0
  8  9  1  0
  9 10  1  0
  9 11  2  0
  8 12  1  0
 12 13  1  0
 13 14  2  0
 13 15  1  0
 15 16  1  0
 15 17  1  0
 17 18  1  0
 17 19  1  0
 19 20  1  0
 12 21  1  0
 21 22  2  0
 22  3  1  0
 21  6  1  0
  1 23  1  0
  4 24  1  0
  5 25  1  0
  7 26  1  0
 10 27  1  0
 15 28  1  6
 16 29  1  0
 17 30  1  1
 18 31  1  0
 19 32  1  0
 19 33  1  0
 20 34  1  0
 22 35  1  0
M  CHG  1  10  -1
M  END
>  <UniqueID>  (7) 
7

>  <SMILES>  (7) 
C#Cc1ccc2cc(C([NH-])=O)n(C(=O)[C@@H](O)[C@H](O)CO)c2c1

>  <Energy>  (7) 
71.7264427592107

>  <Genealogy>  (7) 
C#Cc1ccc2cc(C([NH-])=O)n(C(=O)C(O)C(O)CO)c2c1 (protonated)
C#Cc1ccc2cc(C([NH-])=O)n(C(=O)[C@@H](O)[C@H](O)CO)c2c1 (chirality)
C#Cc1ccc2cc(C([NH-])=O)n(C(=O)[C@@H](O)[C@H](O)CO)c2c1 (3D coordinates assigned)
C#Cc1ccc2cc(C([NH-])=O)n(C(=O)[C@@H](O)[C@H](O)CO)c2c1 (optimized conformer: 71.7264427592107 kcal/mol)

>  <smiles>  (7) 
C#Cc1ccc2cc(C(N)=O)n(C(=O)C(O)C(O)CO)c2c1

>  <score_type>  (7) 
oracle

>  <origin>  (7) 
adg

>  <m_score__min__energy>  (7) 
-5.4100000000000001

>  <m_primary>  (7) 
energy

$$$$
7:0
     RDKit          3D

 55 57  0  0  0  0  0  0  0  0999 V2000
  142.5250  157.5090  140.3060 C   0  0  0  0  0  0  0  0  0  0  0  0
  141.7690  158.3410  139.4320 O   0  0  0  0  0  0  0  0  0  0  0  0
  141.3930  157.9820  138.1270 C   0  0  0  0  0  0  0  0  0  0  0  0
  141.4590  156.6550  137.6620 C   0  0  0  0  0  0  0  0  0  0  0  0
  141.0770  156.3480  136.3520 C   0  0  0  0  0  0  0  0  0  0  0  0
  140.6140  157.3560  135.4930 C   0  0  0  0  0  0  0  0  0  0  0  0
  140.2460  157.0230  134.0720 C   0  0  0  0  0  0  0  0  0  0  0  0
  141.4480  156.7650  133.2740 N   0  0  0  0  0  0  0  0  0  0  0  0
  142.6150  157.6030  133.3150 C   0  0  0  0  0  0  0  0  0  0  0  0
  142.5110  159.0210  133.3910 C   0  0  0  0  0  0  0  0  0  0  0  0
  143.6640  159.8230  133.4000 C   0  0  0  0  0  0  0  0  0  0  0  0
  144.9010  159.1910  133.3400 C   0  0  0  0  0  0  0  0  0  0  0  0
  146.1690  159.7220  133.3030 C   0  0  0  0  0  0  0  0  0  0  0  0
  147.0260  158.6270  133.2240 C   0  0  0  0  0  0  0  0  0  0  0  0
  148.4980  158.7360  133.2000 C   0  0  0  0  0  0  0  0  0  0  0  0
  149.2220  158.2850  132.0580 N   0  0  0  0  0  0  0  0  0  0  0  0
  149.1250  159.2430  134.1680 O   0  0  0  0  0  0  0  0  0  0  0  0
  146.3140  157.4650  133.2210 N   0  0  0  0  0  0  0  0  0  0  0  0
  146.8170  156.1240  133.1200 C   0  0  0  0  0  0  0  0  0  0  0  0
  147.6350  155.8400  132.2050 O   0  0  0  0  0  0  0  0  0  0  0  0
  146.4070  155.1080  134.0550 N   0  0  0  0  0  0  0  0  0  0  0  0
  147.1640  155.0290  135.6120 S   0  0  0  0  0  0  0  0  0  0  0  0
  145.2650  154.2280  133.7880 C   0  0  0  0  0  0  0  0  0  0  0  0
  144.6190  153.7790  135.1010 C   0  0  0  0  0  0  0  0  0  0  0  0
  143.1470  154.1920  135.1490 C   0  0  0  0  0  0  0  0  0  0  0  0
  142.1610  153.1260  134.1090 S   0  0  0  0  0  0  0  0  0  0  0  0
  141.3360  151.9750  135.0990 N   0  0  0  0  0  0  0  0  0  0  0  0
  141.1540  153.9540  133.3600 O   0  0  0  0  0  0  0  0  0  0  0  0
  143.0390  152.3970  133.1290 O   0  0  0  0  0  0  0  0  0  0  0  0
  145.0170  157.8280  133.2830 C   0  0  0  0  0  0  0  0  0  0  0  0
  143.8910  157.0020  133.2600 C   0  0  0  0  0  0  0  0  0  0  0  0
  140.5590  158.6810  135.9530 C   0  0  0  0  0  0  0  0  0  0  0  0
  140.9390  158.9880  137.2640 C   0  0  0  0  0  0  0  0  0  0  0  0
  142.2916  157.7659  141.3498 H   0  0  0  0  0  0  0  0  0  0  0  0
  142.2690  156.4552  140.1217 H   0  0  0  0  0  0  0  0  0  0  0  0
  143.5984  157.6632  140.1217 H   0  0  0  0  0  0  0  0  0  0  0  0
  141.8122  155.8567  138.3312 H   0  0  0  0  0  0  0  0  0  0  0  0
  141.1400  155.3101  135.9931 H   0  0  0  0  0  0  0  0  0  0  0  0
  139.6080  156.1269  134.0644 H   0  0  0  0  0  0  0  0  0  0  0  0
  139.7078  157.8775  133.6358 H   0  0  0  0  0  0  0  0  0  0  0  0
  141.4460  155.9580  132.6070 H   0  0  0  0  0  0  0  0  0  0  0  0
  141.5186  159.4927  133.4432 H   0  0  0  0  0  0  0  0  0  0  0  0
  143.5905  160.9193  133.4530 H   0  0  0  0  0  0  0  0  0  0  0  0
  146.4473  160.7859  133.3300 H   0  0  0  0  0  0  0  0  0  0  0  0
  148.8940  157.4630  131.5050 H   0  0  0  0  0  0  0  0  0  0  0  0
  144.5219  154.7711  133.1856 H   0  0  0  0  0  0  0  0  0  0  0  0
  145.6182  153.3406  133.2423 H   0  0  0  0  0  0  0  0  0  0  0  0
  144.6896  152.6843  135.1822 H   0  0  0  0  0  0  0  0  0  0  0  0
  145.1482  154.2590  135.9374 H   0  0  0  0  0  0  0  0  0  0  0  0
  142.7853  154.1212  136.1854 H   0  0  0  0  0  0  0  0  0  0  0  0
  143.0566  155.2258  134.7843 H   0  0  0  0  0  0  0  0  0  0  0  0
  141.8680  151.9110  135.9960 H   0  0  0  0  0  0  0  0  0  0  0  0
  143.9961  155.9087  133.2004 H   0  0  0  0  0  0  0  0  0  0  0  0
  140.2159  159.4809  135.2803 H   0  0  0  0  0  0  0  0  0  0  0  0
  140.8809  160.0272  137.6199 H   0  0  0  0  0  0  0  0  0  0  0  0
  1  2  1  0
  2  3  1  0
  3  4  2  0
  4  5  1  0
  5  6  2  0
  6  7  1  0
  7  8  1  0
  8  9  1  0
  9 10  2  0
 10 11  1  0
 11 12  2  0
 12 13  1  0
 13 14  2  0
 14 15  1  0
 15 16  1  0
 15 17  2  0
 14 18  1  0
 18 19  1  0
 19 20  2  0
 19 21  1  0
 21 22  1  0
 21 23  1  0
 23 24  1  0
 24 25  1  0
 25 26  1  0
 26 27  1  0
 26 28  2  0
 26 29  2  0
 18 30  1  0
 30 31  2  0
  6 32  1  0
 32 33  2  0
 33  3  1  0
 31  9  1  0
 30 12  1  0
  1 34  1  0
  1 35  1  0
  1 36  1  0
  4 37  1  0
  5 38  1  0
  7 39  1  0
  7 40  1  0
  8 41  1  0
 10 42  1  0
 11 43  1  0
 13 44  1  0
 16 45  1  0
 23 46  1  0
 23 47  1  0
 24 48  1  0
 24 49  1  0
 25 50  1  0
 25 51  1  0
 27 52  1  0
 31 53  1  0
 32 54  1  0
 33 55  1  0
M  CHG  3  16  -1  22  -1  27  -1
M  END
>  <UniqueID>  (8) 
8

>  <SMILES>  (8) 
COc1ccc(CNc2ccc3cc(C([NH-])=O)n(C(=O)N([S-])CCCS([NH-])(=O)=O)c3c2)cc1

>  <Energy>  (8) 
84.85563275336914

>  <Genealogy>  (8) 
COc1ccc(CNc2ccc3cc(C([NH-])=O)n(C(=O)N([S-])CCCS([NH-])(=O)=O)c3c2)cc1 (protonated)
COc1ccc(CNc2ccc3cc(C([NH-])=O)n(C(=O)N([S-])CCCS([NH-])(=O)=O)c3c2)cc1 (3D coordinates assigned)
COc1ccc(CNc2ccc3cc(C([NH-])=O)n(C(=O)N([S-])CCCS([NH-])(=O)=O)c3c2)cc1 (optimized conformer: 84.85563275336914 kcal/mol)

>  <smiles>  (8) 
COc1ccc(CNc2ccc3cc(C(N)=O)n(C(=O)N(S)CCCS(N)(=O)=O)c3c2)cc1

>  <score_type>  (8) 
oracle

>  <origin>  (8) 
adg

>  <m_score__min__energy>  (8) 
-8.8300000000000001

>  <m_primary>  (8) 
energy

$$$$
8:0
     RDKit          3D

 30 31  0  0  0  0  0  0  0  0999 V2000
  147.7200  157.3220  131.8820 N   0  0  0  0  0  0  0  0  0  0  0  0
  147.3820  158.2900  132.8770 C   0  0  0  0  0  0  0  0  0  0  0  0
  148.3010  158.8450  133.5360 O   0  0  0  0  0  0  0  0  0  0  0  0
  145.9740  158.6020  133.1920 C   0  0  0  0  0  0  0  0  0  0  0  0
  145.4500  159.8910  133.1560 C   0  0  0  0  0  0  0  0  0  0  0  0
  144.1450  159.7650  133.5730 C   0  0  0  0  0  0  0  0  0  0  0  0
  143.1570  160.7330  133.7200 C   0  0  0  0  0  0  0  0  0  0  0  0
  141.8840  160.3160  134.1390 C   0  0  0  0  0  0  0  0  0  0  0  0
  141.6130  158.9460  134.3810 C   0  0  0  0  0  0  0  0  0  0  0  0
  140.2420  158.5270  134.8540 C   0  0  1  0  0  0  0  0  0  0  0  0
  139.6980  157.5720  134.0080 F   0  0  0  0  0  0  0  0  0  0  0  0
  140.2730  158.0000  136.2970 C   0  0  0  0  0  0  0  0  0  0  0  0
  140.8880  158.9860  137.2460 C   0  0  0  0  0  0  0  0  0  0  0  0
  140.6070  160.2090  137.1600 O   0  0  0  0  0  0  0  0  0  0  0  0
  141.7430  158.5450  138.2490 O   0  0  0  0  0  0  0  0  0  0  0  0
  142.6460  157.9910  134.2260 C   0  0  0  0  0  0  0  0  0  0  0  0
  143.9130  158.4380  133.8320 C   0  0  0  0  0  0  0  0  0  0  0  0
  145.0280  157.7090  133.6010 N   0  0  0  0  0  0  0  0  0  0  0  0
  145.1480  156.2770  133.6620 C   0  0  0  0  0  0  0  0  0  0  0  0
  144.8790  155.6610  134.7270 O   0  0  0  0  0  0  0  0  0  0  0  0
  145.5630  155.5570  132.5490 O   0  0  0  0  0  0  0  0  0  0  0  0
  148.7220  157.1430  131.6450 H   0  0  0  0  0  0  0  0  0  0  0  0
  146.9880  156.7240  131.4410 H   0  0  0  0  0  0  0  0  0  0  0  0
  145.9688  160.8139  132.8577 H   0  0  0  0  0  0  0  0  0  0  0  0
  143.3669  161.7930  133.5142 H   0  0  0  0  0  0  0  0  0  0  0  0
  141.0874  161.0611  134.2812 H   0  0  0  0  0  0  0  0  0  0  0  0
  139.6046  159.4233  134.8352 H   0  0  0  0  0  0  0  0  0  0  0  0
  139.2425  157.7919  136.6206 H   0  0  0  0  0  0  0  0  0  0  0  0
  140.8881  157.0882  136.3110 H   0  0  0  0  0  0  0  0  0  0  0  0
  142.4579  156.9230  134.4107 H   0  0  0  0  0  0  0  0  0  0  0  0
  1  2  1  0
  2  3  2  0
  2  4  1  0
  4  5  2  0
  5  6  1  0
  6  7  2  0
  7  8  1  0
  8  9  2  0
  9 10  1  0
 10 11  1  0
 10 12  1  0
 12 13  1  0
 13 14  2  0
 13 15  1  0
  9 16  1  0
 16 17  2  0
 17 18  1  0
 18 19  1  0
 19 20  2  0
 19 21  1  0
 18  4  1  0
 17  6  1  0
  1 22  1  0
  1 23  1  0
  5 24  1  0
  7 25  1  0
  8 26  1  0
 10 27  1  1
 12 28  1  0
 12 29  1  0
 16 30  1  0
M  CHG  2  15  -1  21  -1
M  END
>  <UniqueID>  (9) 
9

>  <SMILES>  (9) 
NC(=O)c1cc2ccc([C@@H](F)CC(=O)[O-])cc2n1C(=O)[O-]

>  <Energy>  (9) 
68.11134451604782

>  <Genealogy>  (9) 
NC(=O)c1cc2ccc(C(F)CC(=O)[O-])cc2n1C(=O)[O-] (protonated)
NC(=O)c1cc2ccc([C@@H](F)CC(=O)[O-])cc2n1C(=O)[O-] (chirality)
NC(=O)c1cc2ccc([C@@H](F)CC(=O)[O-])cc2n1C(=O)[O-] (3D coordinates assigned)
NC(=O)c1cc2ccc([C@@H](F)CC(=O)[O-])cc2n1C(=O)[O-] (optimized conformer: 68.11134451604782 kcal/mol)

>  <smiles>  (9) 
NC(=O)c1cc2ccc(C(F)CC(=O)O)cc2n1C(=O)O

>  <score_type>  (9) 
oracle

>  <origin>  (9) 
adg

>  <m_score__min__energy>  (9) 
-6.2800000000000002

>  <m_primary>  (9) 
energy

$$$$
9:0
     RDKit          3D

 39 41  0  0  0  0  0  0  0  0999 V2000
  142.6850  161.2440  133.6580 N   0  0  0  0  0  0  0  0  0  0  0  0
  144.0650  161.5930  133.7350 C   0  0  0  0  0  0  0  0  0  0  0  0
  144.3900  162.8080  133.8300 O   0  0  0  0  0  0  0  0  0  0  0  0
  145.1180  160.5590  133.6480 C   0  0  0  0  0  0  0  0  0  0  0  0
  146.4800  160.8550  133.5990 C   0  0  0  0  0  0  0  0  0  0  0  0
  147.1100  159.6440  133.4270 C   0  0  0  0  0  0  0  0  0  0  0  0
  148.4650  159.3480  133.3160 C   0  0  0  0  0  0  0  0  0  0  0  0
  148.8360  158.0010  133.1650 C   0  0  0  0  0  0  0  0  0  0  0  0
  147.8550  156.9760  133.1470 C   0  0  0  0  0  0  0  0  0  0  0  0
  148.2810  155.5440  132.9480 C   0  0  0  0  0  0  0  0  0  0  0  0
  149.5960  155.5150  132.5210 F   0  0  0  0  0  0  0  0  0  0  0  0
  147.4910  154.9110  132.0050 F   0  0  0  0  0  0  0  0  0  0  0  0
  148.1780  154.8460  134.1380 F   0  0  0  0  0  0  0  0  0  0  0  0
  146.4860  157.3200  133.2450 C   0  0  0  0  0  0  0  0  0  0  0  0
  146.1470  158.6710  133.3800 C   0  0  0  0  0  0  0  0  0  0  0  0
  144.9170  159.2160  133.5190 N   0  0  0  0  0  0  0  0  0  0  0  0
  143.6780  158.4970  133.6180 C   0  0  0  0  0  0  0  0  0  0  0  0
  143.2220  157.8870  132.6130 O   0  0  0  0  0  0  0  0  0  0  0  0
  142.9840  158.4400  134.8690 N   0  0  0  0  0  0  0  0  0  0  0  0
  141.6020  157.9840  135.0080 C   0  0  2  0  0  0  0  0  0  0  0  0
  140.7320  159.0800  135.6420 C   0  0  0  0  0  0  0  0  0  0  0  0
  140.6210  158.7310  137.1210 C   0  0  0  0  0  0  0  0  0  0  0  0
  141.0470  157.3490  137.2270 N   0  0  0  0  0  0  0  0  0  0  0  0
  140.9750  156.5970  138.4460 C   0  0  0  0  0  0  0  0  0  0  0  0
  140.2520  155.5680  138.5180 O   0  0  0  0  0  0  0  0  0  0  0  0
  141.7060  156.9970  139.5580 O   0  0  0  0  0  0  0  0  0  0  0  0
  141.5440  156.8050  135.9770 C   0  0  0  0  0  0  0  0  0  0  0  0
  142.3640  160.2770  133.8880 H   0  0  0  0  0  0  0  0  0  0  0  0
  146.9505  161.8459  133.6805 H   0  0  0  0  0  0  0  0  0  0  0  0
  149.2231  160.1445  133.3455 H   0  0  0  0  0  0  0  0  0  0  0  0
  149.8989  157.7383  133.0595 H   0  0  0  0  0  0  0  0  0  0  0  0
  145.7068  156.5441  133.2158 H   0  0  0  0  0  0  0  0  0  0  0  0
  141.2422  157.7167  134.0035 H   0  0  0  0  0  0  0  0  0  0  0  0
  141.2071  160.0642  135.5169 H   0  0  0  0  0  0  0  0  0  0  0  0
  139.7414  159.1311  135.1664 H   0  0  0  0  0  0  0  0  0  0  0  0
  141.2754  159.3818  137.7195 H   0  0  0  0  0  0  0  0  0  0  0  0
  139.5971  158.8720  137.4974 H   0  0  0  0  0  0  0  0  0  0  0  0
  142.5464  156.3743  136.1176 H   0  0  0  0  0  0  0  0  0  0  0  0
  140.8972  155.9997  135.5987 H   0  0  0  0  0  0  0  0  0  0  0  0
  1  2  1  0
  2  3  2  0
  2  4  1  0
  4  5  2  0
  5  6  1  0
  6  7  2  0
  7  8  1  0
  8  9  2  0
  9 10  1  0
 10 11  1  0
 10 12  1  0
 10 13  1  0
  9 14  1  0
 14 15  2  0
 15 16  1  0
 16 17  1  0
 17 18  2  0
 17 19  1  0
 19 20  1  0
 20 21  1  0
 21 22  1  0
 22 23  1  0
 23 24  1  0
 24 25  2  0
 24 26  1  0
 23 27  1  0
 16  4  1  0
 27 20  1  0
 15  6  1  0
  1 28  1  0
  5 29  1  0
  7 30  1  0
  8 31  1  0
 14 32  1  0
 20 33  1  6
 21 34  1  0
 21 35  1  0
 22 36  1  0
 22 37  1  0
 27 38  1  0
 27 39  1  0
M  CHG  3   1  -1  19  -1  26  -1
M  END
>  <UniqueID>  (10) 
10

>  <SMILES>  (10) 
[NH-]C(=O)c1cc2ccc(C(F)(F)F)cc2n1C(=O)[N-][C@@H]1CCN(C(=O)[O-])C1

>  <Energy>  (10) 
77.75955961321276

>  <Genealogy>  (10) 
[NH-]C(=O)c1cc2ccc(C(F)(F)F)cc2n1C(=O)[N-][C@@H]1CCN(C(=O)[O-])C1 (protonated)
[NH-]C(=O)c1cc2ccc(C(F)(F)F)cc2n1C(=O)[N-][C@@H]1CCN(C(=O)[O-])C1 (3D coordinates assigned)
[NH-]C(=O)c1cc2ccc(C(F)(F)F)cc2n1C(=O)[N-][C@@H]1CCN(C(=O)[O-])C1 (nonaromatic ring conformer: 77.75955961321276 kcal/mol)

>  <smiles>  (10) 
NC(=O)c1cc2ccc(C(F)(F)F)cc2n1C(=O)N[C@@H]1CCN(C(=O)O)C1

>  <score_type>  (10) 
oracle

>  <origin>  (10) 
adg

>  <m_score__min__energy>  (10) 
-7.4400000000000004

>  <m_primary>  (10) 
energy

$$$$
10:0
     RDKit          3D

 42 44  0  0  0  0  0  0  0  0999 V2000
  142.0703  155.4388  133.0516 H   0  0  0  0  0  0  0  0  0  0  0  0
  141.0490  155.0430  133.1530 C   0  0  0  0  0  0  0  0  0  0  0  0
  139.9330  155.9940  133.3180 C   0  0  0  0  0  0  0  0  0  0  0  0
  138.7670  155.6220  133.0190 O   0  0  0  0  0  0  0  0  0  0  0  0
  140.1430  157.3340  133.7910 N   0  0  0  0  0  0  0  0  0  0  0  0
  139.9950  158.5000  133.1010 C   0  0  0  0  0  0  0  0  0  0  0  0
  139.6550  158.6030  131.6630 C   0  0  0  0  0  0  0  0  0  0  0  0
  140.3230  159.3610  130.9100 O   0  0  0  0  0  0  0  0  0  0  0  0
  138.5650  157.8630  131.1110 N   0  0  0  0  0  0  0  0  0  0  0  0
  138.0290  157.1730  131.6820 H   0  0  0  0  0  0  0  0  0  0  0  0
  138.3170  157.9710  130.1020 H   0  0  0  0  0  0  0  0  0  0  0  0
  140.2710  159.5890  133.9270 C   0  0  0  0  0  0  0  0  0  0  0  0
  140.2314  160.6554  133.6602 H   0  0  0  0  0  0  0  0  0  0  0  0
  140.6040  159.0450  135.1490 C   0  0  0  0  0  0  0  0  0  0  0  0
  140.9700  159.6660  136.3360 C   0  0  0  0  0  0  0  0  0  0  0  0
  141.0370  160.7618  136.4048 H   0  0  0  0  0  0  0  0  0  0  0  0
  141.2520  158.8530  137.4460 C   0  0  0  0  0  0  0  0  0  0  0  0
  141.5458  159.3203  138.3975 H   0  0  0  0  0  0  0  0  0  0  0  0
  141.1640  157.4320  137.3610 C   0  0  0  0  0  0  0  0  0  0  0  0
  141.4520  156.6010  138.5170 N   0  0  0  0  0  0  0  0  0  0  0  0
  142.1290  157.1660  139.6920 C   0  0  0  0  0  0  0  0  0  0  0  0
  141.6611  156.7755  140.6078 H   0  0  0  0  0  0  0  0  0  0  0  0
  143.1919  156.8832  139.6740 H   0  0  0  0  0  0  0  0  0  0  0  0
  142.0409  158.2623  139.6740 H   0  0  0  0  0  0  0  0  0  0  0  0
  141.0730  155.1830  138.5300 C   0  0  0  0  0  0  0  0  0  0  0  0
  140.9807  154.8377  139.5703 H   0  0  0  0  0  0  0  0  0  0  0  0
  140.1095  155.0563  138.0147 H   0  0  0  0  0  0  0  0  0  0  0  0
  141.8448  154.5924  138.0147 H   0  0  0  0  0  0  0  0  0  0  0  0
  140.7870  156.8470  136.1250 C   0  0  0  0  0  0  0  0  0  0  0  0
  140.7055  155.7547  136.0237 H   0  0  0  0  0  0  0  0  0  0  0  0
  140.5210  157.6850  135.0380 C   0  0  0  0  0  0  0  0  0  0  0  0
  140.8670  153.7190  133.1220 C   0  0  0  0  0  0  0  0  0  0  0  0
  139.8471  153.3191  133.2217 H   0  0  0  0  0  0  0  0  0  0  0  0
  141.9860  152.7810  132.9590 C   0  0  0  0  0  0  0  0  0  0  0  0
  143.2850  153.1470  132.8680 N   0  0  0  0  0  0  0  0  0  0  0  0
  144.1010  152.0690  132.7190 C   0  0  0  0  0  0  0  0  0  0  0  0
  145.5160  152.2110  132.6020 N   0  0  0  0  0  0  0  0  0  0  0  0
  146.1440  151.8500  133.3540 H   0  0  0  0  0  0  0  0  0  0  0  0
  145.9370  152.6740  131.7670 H   0  0  0  0  0  0  0  0  0  0  0  0
  143.4640  150.8330  132.6890 C   0  0  0  0  0  0  0  0  0  0  0  0
  143.9506  149.8528  132.5771 H   0  0  0  0  0  0  0  0  0  0  0  0
  141.8140  151.1110  132.8550 S   0  0  0  0  0  0  0  0  0  0  0  0
  1  2  1  0
  2  3  1  0
  3  4  2  0
  3  5  1  0
  5  6  1  0
  6  7  1  0
  7  8  2  0
  7  9  1  0
  9 10  1  0
  9 11  1  0
  6 12  2  0
 12 13  1  0
 12 14  1  0
 14 15  2  0
 15 16  1  0
 15 17  1  0
 17 18  1  0
 17 19  2  0
 19 20  1  0
 20 21  1  0
 21 22  1  0
 21 23  1  0
 21 24  1  0
 20 25  1  0
 25 26  1  0
 25 27  1  0
 25 28  1  0
 19 29  1  0
 29 30  1  0
 29 31  2  0
  2 32  2  0
 32 33  1  0
 32 34  1  0
 34 35  2  0
 35 36  1  0
 36 37  1  0
 37 38  1  0
 37 39  1  0
 36 40  2  0
 40 41  1  0
 40 42  1  0
 31  5  1  0
 42 34  1  0
 31 14  1  0
M  END
>  <UniqueID>  (11) 
11

>  <SMILES>  (11) 
CN(C)c1ccc2cc(C(N)=O)n(C(=O)/C=C/c3nc(N)cs3)c2c1

>  <Energy>  (11) 
111.32840311909861

>  <Genealogy>  (11) 
CN(C)c1ccc2cc(C(N)=O)n(C(=O)/C=C/c3nc(N)cs3)c2c1 (cis-trans isomerization)
CN(C)c1ccc2cc(C(N)=O)n(C(=O)/C=C/c3nc(N)cs3)c2c1 (3D coordinates assigned)
CN(C)c1ccc2cc(C(N)=O)n(C(=O)/C=C/c3nc(N)cs3)c2c1 (optimized conformer: 111.32840311909861 kcal/mol)

>  <smiles>  (11) 
CN(C)c1ccc2cc(C(N)=O)n(C(=O)C=Cc3nc(N)cs3)c2c1

>  <score_type>  (11) 
oracle

>  <origin>  (11) 
adg

>  <m_score__min__energy>  (11) 
-8.3900000000000006

>  <m_primary>  (11) 
energy

$$$$
11:0
     RDKit          3D

 41 43  0  0  0  0  0  0  0  0999 V2000
  149.6950  150.7510  131.1310 C   0  0  0  0  0  0  0  0  0  0  0  0
  149.5380  151.3490  132.4630 N   0  0  0  0  0  0  0  0  0  0  0  0
  149.9180  150.5790  133.6530 C   0  0  0  0  0  0  0  0  0  0  0  0
  149.0120  152.6870  132.6290 C   0  0  0  0  0  0  0  0  0  0  0  0
  147.6660  152.9190  132.9700 C   0  0  0  0  0  0  0  0  0  0  0  0
  147.2050  154.2280  133.1190 C   0  0  0  0  0  0  0  0  0  0  0  0
  148.0750  155.3130  132.9320 C   0  0  0  0  0  0  0  0  0  0  0  0
  147.5970  156.7100  133.0870 C   0  0  0  0  0  0  0  0  0  0  0  0
  148.5200  157.7900  133.0880 C   0  0  0  0  0  0  0  0  0  0  0  0
  148.0790  159.1150  133.2410 C   0  0  0  0  0  0  0  0  0  0  0  0
  146.7130  159.3340  133.3900 C   0  0  0  0  0  0  0  0  0  0  0  0
  146.0170  160.5100  133.5620 C   0  0  0  0  0  0  0  0  0  0  0  0
  144.6760  160.1360  133.6500 C   0  0  0  0  0  0  0  0  0  0  0  0
  143.5480  161.0910  133.7440 C   0  0  0  0  0  0  0  0  0  0  0  0
  142.2110  160.6280  133.9380 N   0  0  0  0  0  0  0  0  0  0  0  0
  143.7630  162.3290  133.6730 O   0  0  0  0  0  0  0  0  0  0  0  0
  144.5540  158.7830  133.5440 N   0  0  0  0  0  0  0  0  0  0  0  0
  143.3560  157.9940  133.6190 C   0  0  0  0  0  0  0  0  0  0  0  0
  142.7430  157.6890  132.5610 O   0  0  0  0  0  0  0  0  0  0  0  0
  142.8560  157.5000  134.9110 C   0  0  0  0  0  0  0  0  0  0  0  0
  143.2070  156.3700  135.3410 O   0  0  0  0  0  0  0  0  0  0  0  0
  141.9750  158.2730  135.6570 O   0  0  0  0  0  0  0  0  0  0  0  0
  145.8070  158.3090  133.3810 C   0  0  0  0  0  0  0  0  0  0  0  0
  146.2150  156.9790  133.2400 C   0  0  0  0  0  0  0  0  0  0  0  0
  149.4100  155.0410  132.5930 C   0  0  0  0  0  0  0  0  0  0  0  0
  149.8350  153.7590  132.4510 N   0  0  0  0  0  0  0  0  0  0  0  0
  149.9731  149.6918  131.2350 H   0  0  0  0  0  0  0  0  0  0  0  0
  148.7461  150.8285  130.5801 H   0  0  0  0  0  0  0  0  0  0  0  0
  150.4835  151.2847  130.5801 H   0  0  0  0  0  0  0  0  0  0  0  0
  149.6408  151.1408  134.5572 H   0  0  0  0  0  0  0  0  0  0  0  0
  149.3936  149.6120  133.6469 H   0  0  0  0  0  0  0  0  0  0  0  0
  151.0045  150.4070  133.6469 H   0  0  0  0  0  0  0  0  0  0  0  0
  146.9802  152.0719  133.1185 H   0  0  0  0  0  0  0  0  0  0  0  0
  146.1532  154.4102  133.3847 H   0  0  0  0  0  0  0  0  0  0  0  0
  149.5942  157.5860  132.9674 H   0  0  0  0  0  0  0  0  0  0  0  0
  148.7913  159.9532  133.2429 H   0  0  0  0  0  0  0  0  0  0  0  0
  146.4306  161.5277  133.6181 H   0  0  0  0  0  0  0  0  0  0  0  0
  141.9800  159.6100  133.9380 H   0  0  0  0  0  0  0  0  0  0  0  0
  141.4290  161.3140  134.0400 H   0  0  0  0  0  0  0  0  0  0  0  0
  145.4798  156.1608  133.2477 H   0  0  0  0  0  0  0  0  0  0  0  0
  150.1158  155.8710  132.4415 H   0  0  0  0  0  0  0  0  0  0  0  0
  1  2  1  0
  2  3  1  0
  2  4  1  0
  4  5  2  0
  5  6  1  0
  6  7  2  0
  7  8  1  0
  8  9  2  0
  9 10  1  0
 10 11  2  0
 11 12  1  0
 12 13  2  0
 13 14  1  0
 14 15  1  0
 14 16  2  0
 13 17  1  0
 17 18  1  0
 18 19  2  0
 18 20  1  0
 20 21  2  0
 20 22  1  0
 17 23  1  0
 23 24  2  0
  7 25  1  0
 25 26  2  0
 26  4  1  0
 24  8  1  0
 23 11  1  0
  1 27  1  0
  1 28  1  0
  1 29  1  0
  3 30  1  0
  3 31  1  0
  3 32  1  0
  5 33  1  0
  6 34  1  0
  9 35  1  0
 10 36  1  0
 12 37  1  0
 15 38  1  0
 15 39  1  0
 24 40  1  0
 25 41  1  0
M  CHG  1  22  -1
M  END
>  <UniqueID>  (12) 
12

>  <SMILES>  (12) 
CN(C)c1ccc(-c2ccc3cc(C(N)=O)n(C(=O)C(=O)[O-])c3c2)cn1

>  <Energy>  (12) 
87.61315665031842

>  <Genealogy>  (12) 
CN(C)c1ccc(-c2ccc3cc(C(N)=O)n(C(=O)C(=O)[O-])c3c2)cn1 (protonated)
CN(C)c1ccc(-c2ccc3cc(C(N)=O)n(C(=O)C(=O)[O-])c3c2)cn1 (3D coordinates assigned)
CN(C)c1ccc(-c2ccc3cc(C(N)=O)n(C(=O)C(=O)[O-])c3c2)cn1 (optimized conformer: 87.61315665031842 kcal/mol)

>  <smiles>  (12) 
CN(C)c1ccc(-c2ccc3cc(C(N)=O)n(C(=O)C(=O)O)c3c2)cn1

>  <score_type>  (12) 
oracle

>  <origin>  (12) 
adg

>  <m_score__min__energy>  (12) 
-7.3700000000000001

>  <m_primary>  (12) 
energy

$$$$
12:0
     RDKit          3D

 35 36  0  0  0  0  0  0  0  0999 V2000
  142.8250  160.8990  133.6720 N   0  0  0  0  0  0  0  0  0  0  0  0
  144.2050  161.2520  133.7420 C   0  0  0  0  0  0  0  0  0  0  0  0
  144.5260  162.4460  133.9800 O   0  0  0  0  0  0  0  0  0  0  0  0
  145.2380  160.2080  133.5780 C   0  0  0  0  0  0  0  0  0  0  0  0
  146.5950  160.4870  133.4330 C   0  0  0  0  0  0  0  0  0  0  0  0
  147.1980  159.2670  133.2200 C   0  0  0  0  0  0  0  0  0  0  0  0
  148.5400  158.9540  133.0240 C   0  0  0  0  0  0  0  0  0  0  0  0
  148.8830  157.6020  132.8590 C   0  0  0  0  0  0  0  0  0  0  0  0
  147.8860  156.6010  132.8990 C   0  0  0  0  0  0  0  0  0  0  0  0
  148.2520  155.2180  132.7410 C   0  0  0  0  0  0  0  0  0  0  0  0
  148.5580  154.0590  132.6080 C   0  0  0  0  0  0  0  0  0  0  0  0
  148.9300  152.6500  132.4450 C   0  0  0  0  0  0  0  0  0  0  0  0
  150.3130  152.4980  132.6090 O   0  0  0  0  0  0  0  0  0  0  0  0
  146.5350  156.9500  133.1000 C   0  0  0  0  0  0  0  0  0  0  0  0
  146.2200  158.3070  133.2450 C   0  0  0  0  0  0  0  0  0  0  0  0
  145.0100  158.8680  133.4660 N   0  0  0  0  0  0  0  0  0  0  0  0
  143.7640  158.1720  133.6300 C   0  0  0  0  0  0  0  0  0  0  0  0
  143.0330  157.9480  132.6260 O   0  0  0  0  0  0  0  0  0  0  0  0
  143.3770  157.7300  134.9000 O   0  0  0  0  0  0  0  0  0  0  0  0
  142.1640  157.0230  135.1510 C   0  0  0  0  0  0  0  0  0  0  0  0
  141.0430  157.9950  135.5200 C   0  0  0  0  0  0  0  0  0  0  0  0
  140.9810  159.0400  134.5880 O   0  0  0  0  0  0  0  0  0  0  0  0
  142.5320  159.9350  133.3970 H   0  0  0  0  0  0  0  0  0  0  0  0
  147.0817  161.4724  133.4788 H   0  0  0  0  0  0  0  0  0  0  0  0
  149.3081  159.7410  132.9991 H   0  0  0  0  0  0  0  0  0  0  0  0
  149.9340  157.3205  132.6976 H   0  0  0  0  0  0  0  0  0  0  0  0
  148.4050  152.0450  133.1989 H   0  0  0  0  0  0  0  0  0  0  0  0
  148.6469  152.3160  131.4359 H   0  0  0  0  0  0  0  0  0  0  0  0
  150.7450  153.0270  131.8880 H   0  0  0  0  0  0  0  0  0  0  0  0
  145.7513  156.1792  133.1417 H   0  0  0  0  0  0  0  0  0  0  0  0
  141.8766  156.4654  134.2474 H   0  0  0  0  0  0  0  0  0  0  0  0
  142.3238  156.3299  135.9901 H   0  0  0  0  0  0  0  0  0  0  0  0
  140.0835  157.4571  135.5269 H   0  0  0  0  0  0  0  0  0  0  0  0
  141.2459  158.4147  136.5163 H   0  0  0  0  0  0  0  0  0  0  0  0
  141.8490  159.0430  134.1060 H   0  0  0  0  0  0  0  0  0  0  0  0
  1  2  1  0
  2  3  2  0
  2  4  1  0
  4  5  2  0
  5  6  1  0
  6  7  2  0
  7  8  1  0
  8  9  2  0
  9 10  1  0
 10 11  3  0
 11 12  1  0
 12 13  1  0
  9 14  1  0
 14 15  2  0
 15 16  1  0
 16 17  1  0
 17 18  2  0
 17 19  1  0
 19 20  1  0
 20 21  1  0
 21 22  1  0
 16  4  1  0
 15  6  1  0
  1 23  1  0
  5 24  1  0
  7 25  1  0
  8 26  1  0
 12 27  1  0
 12 28  1  0
 13 29  1  0
 14 30  1  0
 20 31  1  0
 20 32  1  0
 21 33  1  0
 21 34  1  0
 22 35  1  0
M  CHG  1   1  -1
M  END
>  <UniqueID>  (13) 
13

>  <SMILES>  (13) 
[NH-]C(=O)c1cc2ccc(C#CCO)cc2n1C(=O)OCCO

>  <Energy>  (13) 
65.53819280238402

>  <Genealogy>  (13) 
[NH-]C(=O)c1cc2ccc(C#CCO)cc2n1C(=O)OCCO (protonated)
[NH-]C(=O)c1cc2ccc(C#CCO)cc2n1C(=O)OCCO (3D coordinates assigned)
[NH-]C(=O)c1cc2ccc(C#CCO)cc2n1C(=O)OCCO (optimized conformer: 65.53819280238402 kcal/mol)

>  <smiles>  (13) 
NC(=O)c1cc2ccc(C#CCO)cc2n1C(=O)OCCO

>  <score_type>  (13) 
oracle

>  <origin>  (13) 
adg

>  <m_score__min__energy>  (13) 
-6.3600000000000003

>  <m_primary>  (13) 
energy

$$$$
13:0
     RDKit          3D

 49 51  0  0  0  0  0  0  0  0999 V2000
  143.0090  160.7990  133.3990 N   0  0  0  0  0  0  0  0  0  0  0  0
  144.3780  161.0320  133.7220 C   0  0  0  0  0  0  0  0  0  0  0  0
  144.7190  162.1490  134.1930 O   0  0  0  0  0  0  0  0  0  0  0  0
  145.3700  159.9520  133.5370 C   0  0  0  0  0  0  0  0  0  0  0  0
  146.7340  160.1800  133.3620 C   0  0  0  0  0  0  0  0  0  0  0  0
  147.2840  158.9400  133.1290 C   0  0  0  0  0  0  0  0  0  0  0  0
  148.6070  158.5760  132.8970 C   0  0  0  0  0  0  0  0  0  0  0  0
  148.8920  157.2130  132.7110 C   0  0  0  0  0  0  0  0  0  0  0  0
  147.8570  156.2460  132.7530 C   0  0  0  0  0  0  0  0  0  0  0  0
  148.1790  154.7860  132.5980 C   0  0  0  0  0  0  0  0  0  0  0  0
  148.1000  154.0980  133.9230 C   0  0  0  0  0  0  0  0  0  0  0  0
  148.6170  152.9620  134.0800 O   0  0  0  0  0  0  0  0  0  0  0  0
  147.5040  154.7380  135.0030 O   0  0  0  0  0  0  0  0  0  0  0  0
  146.5270  156.6520  132.9990 C   0  0  0  0  0  0  0  0  0  0  0  0
  146.2710  158.0170  133.1690 C   0  0  0  0  0  0  0  0  0  0  0  0
  145.0920  158.6210  133.4280 N   0  0  0  0  0  0  0  0  0  0  0  0
  143.8220  157.9720  133.5760 C   0  0  0  0  0  0  0  0  0  0  0  0
  143.0010  157.9670  132.6180 O   0  0  0  0  0  0  0  0  0  0  0  0
  143.5010  157.3520  134.7880 O   0  0  0  0  0  0  0  0  0  0  0  0
  142.5370  156.3090  134.9030 C   0  0  0  0  0  0  0  0  0  0  0  0
  141.6350  156.5000  136.1340 C   0  0  0  0  0  0  0  0  0  0  0  0
  140.2620  157.1410  135.7940 C   0  0  0  0  0  0  0  0  0  0  0  0
  140.0810  158.4830  136.5340 C   0  0  0  0  0  0  0  0  0  0  0  0
  140.9930  159.5930  135.9660 C   0  0  0  0  0  0  0  0  0  0  0  0
  141.2270  159.4840  134.5080 N   0  0  0  0  0  0  0  0  0  0  0  0
  140.1390  158.7900  133.8070 C   0  0  0  0  0  0  0  0  0  0  0  0
  140.0360  157.3240  134.2660 C   0  0  0  0  0  0  0  0  0  0  0  0
  142.7420  160.1140  132.6570 H   0  0  0  0  0  0  0  0  0  0  0  0
  147.2592  161.1457  133.4017 H   0  0  0  0  0  0  0  0  0  0  0  0
  149.4050  159.3322  132.8604 H   0  0  0  0  0  0  0  0  0  0  0  0
  149.9290  156.8932  132.5309 H   0  0  0  0  0  0  0  0  0  0  0  0
  147.4582  154.3261  131.9059 H   0  0  0  0  0  0  0  0  0  0  0  0
  149.1991  154.6830  132.1996 H   0  0  0  0  0  0  0  0  0  0  0  0
  145.7132  155.9141  133.0555 H   0  0  0  0  0  0  0  0  0  0  0  0
  141.9098  156.3023  133.9993 H   0  0  0  0  0  0  0  0  0  0  0  0
  143.0750  155.3564  135.0171 H   0  0  0  0  0  0  0  0  0  0  0  0
  141.4573  155.5163  136.5930 H   0  0  0  0  0  0  0  0  0  0  0  0
  142.1559  157.1871  136.8170 H   0  0  0  0  0  0  0  0  0  0  0  0
  139.4962  156.4331  136.1438 H   0  0  0  0  0  0  0  0  0  0  0  0
  139.0328  158.8021  136.4367 H   0  0  0  0  0  0  0  0  0  0  0  0
  140.3571  158.3266  137.5872 H   0  0  0  0  0  0  0  0  0  0  0  0
  140.5234  160.5665  136.1704 H   0  0  0  0  0  0  0  0  0  0  0  0
  141.9716  159.4872  136.4571 H   0  0  0  0  0  0  0  0  0  0  0  0
  141.3230  160.4470  134.1090 H   0  0  0  0  0  0  0  0  0  0  0  0
  142.1260  158.9800  134.3300 H   0  0  0  0  0  0  0  0  0  0  0  0
  139.1890  159.3017  134.0206 H   0  0  0  0  0  0  0  0  0  0  0  0
  140.3502  158.8060  132.7276 H   0  0  0  0  0  0  0  0  0  0  0  0
  139.0332  156.9487  134.0139 H   0  0  0  0  0  0  0  0  0  0  0  0
  140.8297  156.7641  133.7497 H   0  0  0  0  0  0  0  0  0  0  0  0
  1  2  1  0
  2  3  2  0
  2  4  1  0
  4  5  2  0
  5  6  1  0
  6  7  2  0
  7  8  1  0
  8  9  2  0
  9 10  1  0
 10 11  1  0
 11 12  2  0
 11 13  1  0
  9 14  1  0
 14 15  2  0
 15 16  1  0
 16 17  1  0
 17 18  2  0
 17 19  1  0
 19 20  1  0
 20 21  1  0
 21 22  1  0
 22 23  1  0
 23 24  1  0
 24 25  1  0
 25 26  1  0
 26 27  1  0
 16  4  1  0
 27 22  1  0
 15  6  1  0
  1 28  1  0
  5 29  1  0
  7 30  1  0
  8 31  1  0
 10 32  1  0
 10 33  1  0
 14 34  1  0
 20 35  1  0
 20 36  1  0
 21 37  1  0
 21 38  1  0
 22 39  1  0
 23 40  1  0
 23 41  1  0
 24 42  1  0
 24 43  1  0
 25 44  1  0
 25 45  1  0
 26 46  1  0
 26 47  1  0
 27 48  1  0
 27 49  1  0
M  CHG  3   1  -1  13  -1  25   1
M  END
>  <UniqueID>  (14) 
14

>  <SMILES>  (14) 
[NH-]C(=O)c1cc2ccc(CC(=O)[O-])cc2n1C(=O)OCCC1CC[NH2+]CC1

>  <Energy>  (14) 
89.06181440479592

>  <Genealogy>  (14) 
[NH-]C(=O)c1cc2ccc(CC(=O)[O-])cc2n1C(=O)OCCC1CC[NH2+]CC1 (protonated)
[NH-]C(=O)c1cc2ccc(CC(=O)[O-])cc2n1C(=O)OCCC1CC[NH2+]CC1 (3D coordinates assigned)
[NH-]C(=O)c1cc2ccc(CC(=O)[O-])cc2n1C(=O)OCCC1CC[NH2+]CC1 (nonaromatic ring conformer: 89.06181440479592 kcal/mol)

>  <smiles>  (14) 
NC(=O)c1cc2ccc(CC(=O)O)cc2n1C(=O)OCCC1CCNCC1

>  <score_type>  (14) 
oracle

>  <origin>  (14) 
adg

>  <m_score__min__energy>  (14) 
-6.4900000000000002

>  <m_primary>  (14) 
energy

$$$$
14:0
     RDKit          3D

 40 41  0  0  0  0  0  0  0  0999 V2000
  147.3300  153.0440  136.3330 H   0  0  0  0  0  0  0  0  0  0  0  0
  146.3750  153.4580  136.4220 N   0  0  0  0  0  0  0  0  0  0  0  0
  145.6830  153.9560  135.2790 C   0  0  0  0  0  0  0  0  0  0  0  0
  144.6440  153.3670  134.8810 O   0  0  0  0  0  0  0  0  0  0  0  0
  146.2080  155.1320  134.5550 C   0  0  0  0  0  0  0  0  0  0  0  0
  145.5530  156.3630  134.4960 C   0  0  0  0  0  0  0  0  0  0  0  0
  144.5652  156.6137  134.9100 H   0  0  0  0  0  0  0  0  0  0  0  0
  146.4070  157.1970  133.8090 C   0  0  0  0  0  0  0  0  0  0  0  0
  146.2650  158.5370  133.4570 C   0  0  0  0  0  0  0  0  0  0  0  0
  145.3658  159.1053  133.7371 H   0  0  0  0  0  0  0  0  0  0  0  0
  147.3080  159.1400  132.7320 C   0  0  0  0  0  0  0  0  0  0  0  0
  147.2310  160.1996  132.4468 H   0  0  0  0  0  0  0  0  0  0  0  0
  148.4570  158.3970  132.3650 C   0  0  0  0  0  0  0  0  0  0  0  0
  149.5780  159.0550  131.6040 C   0  0  0  0  0  0  0  0  0  0  0  0
  150.0358  159.8287  132.2379 H   0  0  0  0  0  0  0  0  0  0  0  0
  150.3160  158.2842  131.3370 H   0  0  0  0  0  0  0  0  0  0  0  0
  149.0690  159.7030  130.3160 C   0  0  0  0  0  0  0  0  0  0  0  0
  149.8036  159.5427  129.5131 H   0  0  0  0  0  0  0  0  0  0  0  0
  148.1069  159.2471  130.0394 H   0  0  0  0  0  0  0  0  0  0  0  0
  148.8860  161.0790  130.5090 O   0  0  0  0  0  0  0  0  0  0  0  0
  148.1100  161.3350  129.9460 H   0  0  0  0  0  0  0  0  0  0  0  0
  148.5700  157.0440  132.7510 C   0  0  0  0  0  0  0  0  0  0  0  0
  149.4598  156.4540  132.4862 H   0  0  0  0  0  0  0  0  0  0  0  0
  147.5210  156.4730  133.4790 C   0  0  0  0  0  0  0  0  0  0  0  0
  147.4130  155.2040  133.9240 N   0  0  0  0  0  0  0  0  0  0  0  0
  148.3630  154.1540  133.7010 C   0  0  0  0  0  0  0  0  0  0  0  0
  148.5600  153.3010  134.6060 O   0  0  0  0  0  0  0  0  0  0  0  0
  149.1120  154.1000  132.4240 C   0  0  0  0  0  0  0  0  0  0  0  0
  149.2897  155.0528  131.9039 H   0  0  0  0  0  0  0  0  0  0  0  0
  149.5920  152.9870  131.8480 C   0  0  0  0  0  0  0  0  0  0  0  0
  150.0693  153.0900  130.8623 H   0  0  0  0  0  0  0  0  0  0  0  0
  149.5280  151.6350  132.4370 C   0  0  0  0  0  0  0  0  0  0  0  0
  149.2217  151.5465  133.4898 H   0  0  0  0  0  0  0  0  0  0  0  0
  149.8190  150.5080  131.7720 C   0  0  0  0  0  0  0  0  0  0  0  0
  149.7500  149.5534  132.3141 H   0  0  0  0  0  0  0  0  0  0  0  0
  150.2270  150.4750  130.3530 C   0  0  0  0  0  0  0  0  0  0  0  0
  149.7736  151.1819  129.6426 H   0  0  0  0  0  0  0  0  0  0  0  0
  151.1340  149.6040  129.9210 C   0  0  0  0  0  0  0  0  0  0  0  0
  151.4256  149.5941  128.8604 H   0  0  0  0  0  0  0  0  0  0  0  0
  151.5928  148.8934  130.6242 H   0  0  0  0  0  0  0  0  0  0  0  0
  1  2  1  0
  2  3  1  0
  3  4  2  0
  3  5  1  0
  5  6  2  0
  6  7  1  0
  6  8  1  0
  8  9  2  0
  9 10  1  0
  9 11  1  0
 11 12  1  0
 11 13  2  0
 13 14  1  0
 14 15  1  0
 14 16  1  0
 14 17  1  0
 17 18  1  0
 17 19  1  0
 17 20  1  0
 20 21  1  0
 13 22  1  0
 22 23  1  0
 22 24  2  0
 24 25  1  0
 25 26  1  0
 26 27  2  0
 26 28  1  0
 28 29  1  0
 28 30  2  0
 30 31  1  0
 30 32  1  0
 32 33  1  0
 32 34  2  0
 34 35  1  0
 34 36  1  0
 36 37  1  0
 36 38  2  0
 38 39  1  0
 38 40  1  0
 25  5  1  0
 24  8  1  0
M  CHG  1   2  -1
M  END
>  <UniqueID>  (15) 
15

>  <SMILES>  (15) 
C=C/C=C\C=CC(=O)n1c(C([NH-])=O)cc2ccc(CCO)cc21

>  <Energy>  (15) 
81.88533472441665

>  <Genealogy>  (15) 
C=CC=CC=CC(=O)n1c(C([NH-])=O)cc2ccc(CCO)cc21 (protonated)
C=C/C=C\C=CC(=O)n1c(C([NH-])=O)cc2ccc(CCO)cc21 (cis-trans isomerization)
C=C/C=C\C=CC(=O)n1c(C([NH-])=O)cc2ccc(CCO)cc21 (3D coordinates assigned)
C=C/C=C\C=CC(=O)n1c(C([NH-])=O)cc2ccc(CCO)cc21 (optimized conformer: 81.88533472441665 kcal/mol)

>  <smiles>  (15) 
C=CC=CC=CC(=O)n1c(C(N)=O)cc2ccc(CCO)cc21

>  <score_type>  (15) 
oracle

>  <origin>  (15) 
adg

>  <m_score__min__energy>  (15) 
-8.5099999999999998

>  <m_primary>  (15) 
energy

$$$$
15:0
     RDKit          3D

 62 63  0  0  0  0  0  0  0  0999 V2000
  146.5460  154.6400  133.0980 C   0  0  0  0  0  0  0  0  0  0  0  0
  147.1570  155.7750  133.7980 N   0  0  0  0  0  0  0  0  0  0  0  0
  147.4100  155.6920  135.2440 C   0  0  0  0  0  0  0  0  0  0  0  0
  146.5390  154.6040  135.8920 C   0  0  0  0  0  0  0  0  0  0  0  0
  147.3060  153.7940  136.8910 C   0  0  0  0  0  0  0  0  0  0  0  0
  146.9520  152.6150  137.1540 O   0  0  0  0  0  0  0  0  0  0  0  0
  148.4180  154.3370  137.5250 O   0  0  0  0  0  0  0  0  0  0  0  0
  147.4970  156.9570  133.0420 C   0  0  0  0  0  0  0  0  0  0  0  0
  148.4380  156.9190  132.2030 O   0  0  0  0  0  0  0  0  0  0  0  0
  146.7450  158.1690  133.1910 N   0  0  0  0  0  0  0  0  0  0  0  0
  147.1620  159.4340  132.9040 C   0  0  0  0  0  0  0  0  0  0  0  0
  148.5090  159.7920  132.3970 C   0  0  0  0  0  0  0  0  0  0  0  0
  149.6610  159.0150  132.7390 N   0  0  0  0  0  0  0  0  0  0  0  0
  148.6520  160.7910  131.6430 O   0  0  0  0  0  0  0  0  0  0  0  0
  146.1200  160.3390  133.1140 C   0  0  0  0  0  0  0  0  0  0  0  0
  145.0510  159.5790  133.5360 C   0  0  0  0  0  0  0  0  0  0  0  0
  143.7490  159.9560  133.8390 C   0  0  0  0  0  0  0  0  0  0  0  0
  142.8350  158.9450  134.1820 C   0  0  0  0  0  0  0  0  0  0  0  0
  143.2360  157.5870  134.2300 C   0  0  0  0  0  0  0  0  0  0  0  0
  142.2580  156.5830  134.5530 N   0  0  0  0  0  0  0  0  0  0  0  0
  142.5550  155.1480  134.5680 C   0  0  0  0  0  0  0  0  0  0  0  0
  142.0390  154.4680  135.8530 C   0  0  0  0  0  0  0  0  0  0  0  0
  141.8080  155.4590  137.0030 C   0  0  0  0  0  0  0  0  0  0  0  0
  140.6240  156.2890  136.7280 N   0  0  0  0  0  0  0  0  0  0  0  0
  140.8540  157.7080  137.0350 C   0  0  0  0  0  0  0  0  0  0  0  0
  140.1610  158.6170  136.0050 C   0  0  0  0  0  0  0  0  0  0  0  0
  139.3090  157.8780  135.1510 O   0  0  0  0  0  0  0  0  0  0  0  0
  139.4900  158.2680  133.8070 C   0  0  0  0  0  0  0  0  0  0  0  0
  139.5070  157.0200  132.9280 C   0  0  0  0  0  0  0  0  0  0  0  0
  139.6410  155.8780  133.7320 O   0  0  0  0  0  0  0  0  0  0  0  0
  144.5810  157.2490  133.9420 C   0  0  0  0  0  0  0  0  0  0  0  0
  145.4590  158.2740  133.5830 C   0  0  0  0  0  0  0  0  0  0  0  0
  146.1587  153.9205  133.8344 H   0  0  0  0  0  0  0  0  0  0  0  0
  145.7197  154.9999  132.4673 H   0  0  0  0  0  0  0  0  0  0  0  0
  147.3014  154.1484  132.4673 H   0  0  0  0  0  0  0  0  0  0  0  0
  148.4703  155.4512  135.4108 H   0  0  0  0  0  0  0  0  0  0  0  0
  147.1594  156.6609  135.7007 H   0  0  0  0  0  0  0  0  0  0  0  0
  145.6902  155.0845  136.4006 H   0  0  0  0  0  0  0  0  0  0  0  0
  146.1941  153.9262  135.0973 H   0  0  0  0  0  0  0  0  0  0  0  0
  149.6150  158.2470  133.4440 H   0  0  0  0  0  0  0  0  0  0  0  0
  150.6040  159.2970  132.3860 H   0  0  0  0  0  0  0  0  0  0  0  0
  146.1468  161.4295  132.9723 H   0  0  0  0  0  0  0  0  0  0  0  0
  143.4430  161.0122  133.8114 H   0  0  0  0  0  0  0  0  0  0  0  0
  141.7939  159.2118  134.4165 H   0  0  0  0  0  0  0  0  0  0  0  0
  141.2780  156.9000  134.7270 H   0  0  0  0  0  0  0  0  0  0  0  0
  142.0745  154.6761  133.6982 H   0  0  0  0  0  0  0  0  0  0  0  0
  143.6475  155.0252  134.5320 H   0  0  0  0  0  0  0  0  0  0  0  0
  141.0870  153.9657  135.6261 H   0  0  0  0  0  0  0  0  0  0  0  0
  142.8101  153.7556  136.1815 H   0  0  0  0  0  0  0  0  0  0  0  0
  141.6514  154.9008  137.9378 H   0  0  0  0  0  0  0  0  0  0  0  0
  142.6891  156.1106  137.0981 H   0  0  0  0  0  0  0  0  0  0  0  0
  140.4040  156.2060  135.7070 H   0  0  0  0  0  0  0  0  0  0  0  0
  140.4538  157.9285  138.0356 H   0  0  0  0  0  0  0  0  0  0  0  0
  141.9362  157.9021  137.0001 H   0  0  0  0  0  0  0  0  0  0  0  0
  139.5648  159.3719  136.5385 H   0  0  0  0  0  0  0  0  0  0  0  0
  140.9371  159.0945  135.3889 H   0  0  0  0  0  0  0  0  0  0  0  0
  138.6637  158.9255  133.4988 H   0  0  0  0  0  0  0  0  0  0  0  0
  140.4407  158.8112  133.7014 H   0  0  0  0  0  0  0  0  0  0  0  0
  138.5667  156.9595  132.3604 H   0  0  0  0  0  0  0  0  0  0  0  0
  140.3559  157.0767  132.2307 H   0  0  0  0  0  0  0  0  0  0  0  0
  139.6340  156.2110  134.6730 H   0  0  0  0  0  0  0  0  0  0  0  0
  144.9252  156.2058  133.9996 H   0  0  0  0  0  0  0  0  0  0  0  0
  1  2  1  0
  2  3  1  0
  3  4  1  0
  4  5  1  0
  5  6  2  0
  5  7  1  0
  2  8  1  0
  8  9  2  0
  8 10  1  0
 10 11  1  0
 11 12  1  0
 12 13  1  0
 12 14  2  0
 11 15  2  0
 15 16  1  0
 16 17  2  0
 17 18  1  0
 18 19  2  0
 19 20  1  0
 20 21  1  0
 21 22  1  0
 22 23  1  0
 23 24  1  0
 24 25  1  0
 25 26  1  0
 26 27  1  0
 27 28  1  0
 28 29  1  0
 29 30  1  0
 19 31  1  0
 31 32  2  0
 32 10  1  0
 32 16  1  0
  1 33  1  0
  1 34  1  0
  1 35  1  0
  3 36  1  0
  3 37  1  0
  4 38  1  0
  4 39  1  0
 13 40  1  0
 13 41  1  0
 15 42  1  0
 17 43  1  0
 18 44  1  0
 20 45  1  0
 21 46  1  0
 21 47  1  0
 22 48  1  0
 22 49  1  0
 23 50  1  0
 23 51  1  0
 24 52  1  0
 25 53  1  0
 25 54  1  0
 26 55  1  0
 26 56  1  0
 28 57  1  0
 28 58  1  0
 29 59  1  0
 29 60  1  0
 30 61  1  0
 31 62  1  0
M  CHG  1   7  -1
M  END
>  <UniqueID>  (16) 
16

>  <SMILES>  (16) 
CN(CCC(=O)[O-])C(=O)n1c(C(N)=O)cc2ccc(NCCCNCCOCCO)cc21

>  <Energy>  (16) 
88.91079222067376

>  <Genealogy>  (16) 
CN(CCC(=O)[O-])C(=O)n1c(C(N)=O)cc2ccc(NCCCNCCOCCO)cc21 (protonated)
CN(CCC(=O)[O-])C(=O)n1c(C(N)=O)cc2ccc(NCCCNCCOCCO)cc21 (3D coordinates assigned)
CN(CCC(=O)[O-])C(=O)n1c(C(N)=O)cc2ccc(NCCCNCCOCCO)cc21 (optimized conformer: 88.91079222067376 kcal/mol)

>  <smiles>  (16) 
CN(CCC(=O)O)C(=O)n1c(C(N)=O)cc2ccc(NCCCNCCOCCO)cc21

>  <score_type>  (16) 
oracle

>  <origin>  (16) 
adg

>  <m_score__min__energy>  (16) 
-6.9400000000000004

>  <m_primary>  (16) 
energy

$$$$
16:0
     RDKit          3D

 31 32  0  0  0  0  0  0  0  0999 V2000
  140.6300  153.6630  133.0050 C   0  0  0  0  0  0  0  0  0  0  0  0
  140.8740  154.9020  133.4280 C   0  0  0  0  0  0  0  0  0  0  0  0
  139.8640  155.9750  133.3610 C   0  0  0  0  0  0  0  0  0  0  0  0
  138.7310  155.7540  132.8520 O   0  0  0  0  0  0  0  0  0  0  0  0
  140.1770  157.2930  133.8410 N   0  0  0  0  0  0  0  0  0  0  0  0
  139.9890  158.4750  133.1900 C   0  0  0  0  0  0  0  0  0  0  0  0
  139.5550  158.6270  131.7850 C   0  0  0  0  0  0  0  0  0  0  0  0
  138.2980  158.1140  131.3360 N   0  0  0  0  0  0  0  0  0  0  0  0
  140.3270  159.1780  130.9570 O   0  0  0  0  0  0  0  0  0  0  0  0
  140.2770  159.5500  134.0270 C   0  0  0  0  0  0  0  0  0  0  0  0
  140.6560  158.9860  135.2240 C   0  0  0  0  0  0  0  0  0  0  0  0
  141.0180  159.5930  136.4230 C   0  0  0  0  0  0  0  0  0  0  0  0
  141.3050  158.7630  137.5210 C   0  0  0  0  0  0  0  0  0  0  0  0
  141.2210  157.3540  137.4010 C   0  0  0  0  0  0  0  0  0  0  0  0
  141.4790  156.4800  138.5970 C   0  0  0  0  0  0  0  0  0  0  0  0
  140.8410  155.1420  138.4040 C   0  0  0  0  0  0  0  0  0  0  0  0
  141.4110  154.2640  137.7040 O   0  0  0  0  0  0  0  0  0  0  0  0
  139.6420  154.8450  139.0390 O   0  0  0  0  0  0  0  0  0  0  0  0
  140.8350  156.7740  136.1730 C   0  0  0  0  0  0  0  0  0  0  0  0
  140.5820  157.6230  135.0880 C   0  0  0  0  0  0  0  0  0  0  0  0
  141.4134  152.8939  133.0742 H   0  0  0  0  0  0  0  0  0  0  0  0
  139.6450  153.4087  132.5865 H   0  0  0  0  0  0  0  0  0  0  0  0
  141.8660  155.1339  133.8429 H   0  0  0  0  0  0  0  0  0  0  0  0
  137.7210  157.4910  131.9400 H   0  0  0  0  0  0  0  0  0  0  0  0
  137.9890  158.2800  130.3530 H   0  0  0  0  0  0  0  0  0  0  0  0
  140.2149  160.6209  133.7836 H   0  0  0  0  0  0  0  0  0  0  0  0
  141.0777  160.6880  136.5089 H   0  0  0  0  0  0  0  0  0  0  0  0
  141.5974  159.2118  138.4818 H   0  0  0  0  0  0  0  0  0  0  0  0
  142.5638  156.3505  138.7255 H   0  0  0  0  0  0  0  0  0  0  0  0
  141.0501  156.9574  139.4904 H   0  0  0  0  0  0  0  0  0  0  0  0
  140.7355  155.6833  136.0709 H   0  0  0  0  0  0  0  0  0  0  0  0
  1  2  2  0
  2  3  1  0
  3  4  2  0
  3  5  1  0
  5  6  1  0
  6  7  1  0
  7  8  1  0
  7  9  2  0
  6 10  2  0
 10 11  1  0
 11 12  2  0
 12 13  1  0
 13 14  2  0
 14 15  1  0
 15 16  1  0
 16 17  2  0
 16 18  1  0
 14 19  1  0
 19 20  2  0
 20  5  1  0
 20 11  1  0
  1 21  1  0
  1 22  1  0
  2 23  1  0
  8 24  1  0
  8 25  1  0
 10 26  1  0
 12 27  1  0
 13 28  1  0
 15 29  1  0
 15 30  1  0
 19 31  1  0
M  CHG  1  18  -1
M  END
>  <UniqueID>  (17) 
17

>  <SMILES>  (17) 
C=CC(=O)n1c(C(N)=O)cc2ccc(CC(=O)[O-])cc21

>  <Energy>  (17) 
68.55410577159418

>  <Genealogy>  (17) 
C=CC(=O)n1c(C(N)=O)cc2ccc(CC(=O)[O-])cc21 (protonated)
C=CC(=O)n1c(C(N)=O)cc2ccc(CC(=O)[O-])cc21 (3D coordinates assigned)
C=CC(=O)n1c(C(N)=O)cc2ccc(CC(=O)[O-])cc21 (optimized conformer: 68.55410577159418 kcal/mol)

>  <smiles>  (17) 
C=CC(=O)n1c(C(N)=O)cc2ccc(CC(=O)O)cc21

>  <score_type>  (17) 
oracle

>  <origin>  (17) 
adg

>  <m_score__min__energy>  (17) 
-6.8899999999999997

>  <m_primary>  (17) 
energy

$$$$
17:0
     RDKit          3D

 33 35  0  0  0  0  0  0  0  0999 V2000
  143.0990  159.3370  133.7530 C   0  0  0  0  0  0  0  0  0  0  0  0
  144.4680  159.8600  133.7600 N   0  0  0  0  0  0  0  0  0  0  0  0
  145.5730  158.9830  133.4580 C   0  0  0  0  0  0  0  0  0  0  0  0
  146.7460  159.4940  132.8470 C   0  0  0  0  0  0  0  0  0  0  0  0
  147.8190  158.6440  132.5300 C   0  0  0  0  0  0  0  0  0  0  0  0
  147.6970  157.2940  132.8460 C   0  0  0  0  0  0  0  0  0  0  0  0
  148.5570  156.2460  132.6060 C   0  0  0  0  0  0  0  0  0  0  0  0
  147.9070  155.1170  133.0990 C   0  0  0  0  0  0  0  0  0  0  0  0
  148.4830  153.7570  133.0520 C   0  0  0  0  0  0  0  0  0  0  0  0
  147.7480  152.6220  133.5100 N   0  0  0  0  0  0  0  0  0  0  0  0
  149.6640  153.6000  132.6390 O   0  0  0  0  0  0  0  0  0  0  0  0
  146.6950  155.4510  133.6220 N   0  0  0  0  0  0  0  0  0  0  0  0
  145.6790  154.5560  134.1010 C   0  0  0  0  0  0  0  0  0  0  0  0
  144.8470  154.0670  133.2910 O   0  0  0  0  0  0  0  0  0  0  0  0
  145.6110  154.1760  135.5200 C   0  0  0  0  0  0  0  0  0  0  0  0
  144.6510  154.5600  136.2390 O   0  0  0  0  0  0  0  0  0  0  0  0
  146.6230  153.4090  136.0850 O   0  0  0  0  0  0  0  0  0  0  0  0
  146.5770  156.7860  133.4530 C   0  0  0  0  0  0  0  0  0  0  0  0
  145.4820  157.6040  133.7500 C   0  0  0  0  0  0  0  0  0  0  0  0
  144.6830  161.2740  133.9230 C   0  0  0  0  0  0  0  0  0  0  0  0
  143.8050  162.2240  133.5520 N   0  0  0  0  0  0  0  0  0  0  0  0
  144.3820  163.3620  133.9030 N   0  0  0  0  0  0  0  0  0  0  0  0
  145.5550  163.1160  134.4650 N   0  0  0  0  0  0  0  0  0  0  0  0
  145.7740  161.8110  134.4970 N   0  0  0  0  0  0  0  0  0  0  0  0
  142.7519  159.2044  134.7883 H   0  0  0  0  0  0  0  0  0  0  0  0
  142.4383  160.0460  133.2327 H   0  0  0  0  0  0  0  0  0  0  0  0
  143.0793  158.3680  133.2327 H   0  0  0  0  0  0  0  0  0  0  0  0
  146.8168  160.5677  132.6186 H   0  0  0  0  0  0  0  0  0  0  0  0
  148.7273  159.0334  132.0470 H   0  0  0  0  0  0  0  0  0  0  0  0
  149.5463  156.2907  132.1271 H   0  0  0  0  0  0  0  0  0  0  0  0
  148.1520  151.6640  133.4140 H   0  0  0  0  0  0  0  0  0  0  0  0
  146.8540  152.7310  134.0360 H   0  0  0  0  0  0  0  0  0  0  0  0
  144.5710  157.1831  134.2006 H   0  0  0  0  0  0  0  0  0  0  0  0
  1  2  1  0
  2  3  1  0
  3  4  2  0
  4  5  1  0
  5  6  2  0
  6  7  1  0
  7  8  2  0
  8  9  1  0
  9 10  1  0
  9 11  2  0
  8 12  1  0
 12 13  1  0
 13 14  2  0
 13 15  1  0
 15 16  2  0
 15 17  1  0
 12 18  1  0
 18 19  2  0
  2 20  1  0
 20 21  1  0
 21 22  2  0
 22 23  1  0
 23 24  1  0
 19  3  1  0
 24 20  2  0
 18  6  1  0
  1 25  1  0
  1 26  1  0
  1 27  1  0
  4 28  1  0
  5 29  1  0
  7 30  1  0
 10 31  1  0
 10 32  1  0
 19 33  1  0
M  CHG  2  17  -1  23  -1
M  END
>  <UniqueID>  (18) 
18

>  <SMILES>  (18) 
CN(c1ccc2cc(C(N)=O)n(C(=O)C(=O)[O-])c2c1)c1nn[n-]n1

>  <Energy>  (18) 
118.51203931836365

>  <Genealogy>  (18) 
CN(c1ccc2cc(C(N)=O)n(C(=O)C(=O)[O-])c2c1)c1nn[n-]n1 (protonated)
CN(c1ccc2cc(C(N)=O)n(C(=O)C(=O)[O-])c2c1)c1nn[n-]n1 (3D coordinates assigned)
CN(c1ccc2cc(C(N)=O)n(C(=O)C(=O)[O-])c2c1)c1nn[n-]n1 (optimized conformer: 118.51203931836365 kcal/mol)

>  <smiles>  (18) 
CN(c1ccc2cc(C(N)=O)n(C(=O)C(=O)O)c2c1)c1nn[nH]n1

>  <score_type>  (18) 
oracle

>  <origin>  (18) 
adg

>  <m_score__min__energy>  (18) 
-7.96

>  <m_primary>  (18) 
energy

$$$$
18:0
     RDKit          3D

 46 48  0  0  0  0  0  0  0  0999 V2000
  142.6240  153.3170  134.5400 C   0  0  0  0  0  0  0  0  0  0  0  0
  141.4910  153.4030  133.6150 N   0  0  0  0  0  0  0  0  0  0  0  0
  140.9820  152.2080  132.9380 C   0  0  0  0  0  0  0  0  0  0  0  0
  140.8690  154.6780  133.3840 C   0  0  0  0  0  0  0  0  0  0  0  0
  139.8550  154.7570  132.6360 O   0  0  0  0  0  0  0  0  0  0  0  0
  141.4020  155.8260  133.9870 O   0  0  0  0  0  0  0  0  0  0  0  0
  142.4090  156.6330  133.4410 C   0  0  0  0  0  0  0  0  0  0  0  0
  143.2630  156.1500  132.6480 O   0  0  0  0  0  0  0  0  0  0  0  0
  142.4430  158.0340  133.7590 N   0  0  0  0  0  0  0  0  0  0  0  0
  141.4320  158.8090  134.2470 C   0  0  0  0  0  0  0  0  0  0  0  0
  140.0250  158.3920  134.4280 C   0  0  0  0  0  0  0  0  0  0  0  0
  139.3510  157.7000  133.3800 N   0  0  0  0  0  0  0  0  0  0  0  0
  139.4230  158.6070  135.5130 O   0  0  0  0  0  0  0  0  0  0  0  0
  141.8800  160.1080  134.4790 C   0  0  0  0  0  0  0  0  0  0  0  0
  143.2040  160.1100  134.1060 C   0  0  0  0  0  0  0  0  0  0  0  0
  144.1370  161.1400  134.1300 C   0  0  0  0  0  0  0  0  0  0  0  0
  145.4450  160.8540  133.7020 C   0  0  0  0  0  0  0  0  0  0  0  0
  145.8010  159.5510  133.2660 C   0  0  0  0  0  0  0  0  0  0  0  0
  147.1500  159.2680  132.8320 N   0  0  0  0  0  0  0  0  0  0  0  0
  147.9370  158.2090  133.4770 C   0  0  0  0  0  0  0  0  0  0  0  0
  148.9510  157.6270  132.4830 C   0  0  0  0  0  0  0  0  0  0  0  0
  149.8290  158.6460  131.8750 N   0  0  0  0  0  0  0  0  0  0  0  0
  149.2960  160.0210  131.8930 C   0  0  0  0  0  0  0  0  0  0  0  0
  147.7700  160.0580  131.7620 C   0  0  0  0  0  0  0  0  0  0  0  0
  144.8190  158.5310  133.2630 C   0  0  0  0  0  0  0  0  0  0  0  0
  143.5200  158.8470  133.6740 C   0  0  0  0  0  0  0  0  0  0  0  0
  142.2547  153.3450  135.5758 H   0  0  0  0  0  0  0  0  0  0  0  0
  143.1660  152.3751  134.3693 H   0  0  0  0  0  0  0  0  0  0  0  0
  143.3019  154.1663  134.3693 H   0  0  0  0  0  0  0  0  0  0  0  0
  140.6667  151.4678  133.6882 H   0  0  0  0  0  0  0  0  0  0  0  0
  140.1222  152.4813  132.3087 H   0  0  0  0  0  0  0  0  0  0  0  0
  141.7748  151.7774  132.3087 H   0  0  0  0  0  0  0  0  0  0  0  0
  139.7150  156.7910  133.0170 H   0  0  0  0  0  0  0  0  0  0  0  0
  141.2982  160.9528  134.8763 H   0  0  0  0  0  0  0  0  0  0  0  0
  143.8603  162.1478  134.4733 H   0  0  0  0  0  0  0  0  0  0  0  0
  146.2032  161.6510  133.7050 H   0  0  0  0  0  0  0  0  0  0  0  0
  148.4737  158.6290  134.3405 H   0  0  0  0  0  0  0  0  0  0  0  0
  147.2596  157.4091  133.8108 H   0  0  0  0  0  0  0  0  0  0  0  0
  149.5799  156.8972  133.0139 H   0  0  0  0  0  0  0  0  0  0  0  0
  148.3763  157.1655  131.6665 H   0  0  0  0  0  0  0  0  0  0  0  0
  150.7430  158.6490  132.3850 H   0  0  0  0  0  0  0  0  0  0  0  0
  149.5806  160.4977  132.8426 H   0  0  0  0  0  0  0  0  0  0  0  0
  149.7196  160.5561  131.0303 H   0  0  0  0  0  0  0  0  0  0  0  0
  147.4244  161.0999  131.8327 H   0  0  0  0  0  0  0  0  0  0  0  0
  147.4829  159.6322  130.7892 H   0  0  0  0  0  0  0  0  0  0  0  0
  145.0729  157.5095  132.9435 H   0  0  0  0  0  0  0  0  0  0  0  0
  1  2  1  0
  2  3  1  0
  2  4  1  0
  4  5  2  0
  4  6  1  0
  6  7  1  0
  7  8  2  0
  7  9  1  0
  9 10  1  0
 10 11  1  0
 11 12  1  0
 11 13  2  0
 10 14  2  0
 14 15  1  0
 15 16  2  0
 16 17  1  0
 17 18  2  0
 18 19  1  0
 19 20  1  0
 20 21  1  0
 21 22  1  0
 22 23  1  0
 23 24  1  0
 18 25  1  0
 25 26  2  0
 26  9  1  0
 26 15  1  0
 24 19  1  0
  1 27  1  0
  1 28  1  0
  1 29  1  0
  3 30  1  0
  3 31  1  0
  3 32  1  0
 12 33  1  0
 14 34  1  0
 16 35  1  0
 17 36  1  0
 20 37  1  0
 20 38  1  0
 21 39  1  0
 21 40  1  0
 22 41  1  0
 23 42  1  0
 23 43  1  0
 24 44  1  0
 24 45  1  0
 25 46  1  0
M  CHG  1  12  -1
M  END
>  <UniqueID>  (19) 
19

>  <SMILES>  (19) 
CN(C)C(=O)OC(=O)n1c(C([NH-])=O)cc2ccc(N3CCNCC3)cc21

>  <Energy>  (19) 
89.73260583442085

>  <Genealogy>  (19) 
CN(C)C(=O)OC(=O)n1c(C([NH-])=O)cc2ccc(N3CCNCC3)cc21 (protonated)
CN(C)C(=O)OC(=O)n1c(C([NH-])=O)cc2ccc(N3CCNCC3)cc21 (3D coordinates assigned)
CN(C)C(=O)OC(=O)n1c(C([NH-])=O)cc2ccc(N3CCNCC3)cc21 (nonaromatic ring conformer: 89.73260583442085 kcal/mol)

>  <smiles>  (19) 
CN(C)C(=O)OC(=O)n1c(C(N)=O)cc2ccc(N3CCNCC3)cc21

>  <score_type>  (19) 
oracle

>  <origin>  (19) 
adg

>  <m_score__min__energy>  (19) 
-7.5800000000000001

>  <m_primary>  (19) 
energy

$$$$
19:0
     RDKit          3D

 33 35  0  0  0  0  0  0  0  0999 V2000
  143.1850  160.7890  133.3590 N   0  0  0  0  0  0  0  0  0  0  0  0
  144.5630  160.8920  133.7080 C   0  0  0  0  0  0  0  0  0  0  0  0
  144.9690  161.9140  134.3230 O   0  0  0  0  0  0  0  0  0  0  0  0
  145.5060  159.7940  133.4110 C   0  0  0  0  0  0  0  0  0  0  0  0
  146.8570  159.9990  133.1400 C   0  0  0  0  0  0  0  0  0  0  0  0
  147.3990  158.7400  133.0140 C   0  0  0  0  0  0  0  0  0  0  0  0
  148.7040  158.3530  132.7300 C   0  0  0  0  0  0  0  0  0  0  0  0
  148.9760  156.9800  132.6260 C   0  0  0  0  0  0  0  0  0  0  0  0
  147.9460  156.0210  132.8020 C   0  0  0  0  0  0  0  0  0  0  0  0
  148.2390  154.5730  132.6700 C   0  0  0  0  0  0  0  0  0  0  0  0
  149.5710  154.1340  132.5730 C   0  0  0  0  0  0  0  0  0  0  0  0
  149.8610  152.7740  132.4560 C   0  0  0  0  0  0  0  0  0  0  0  0
  148.8280  151.8360  132.4310 C   0  0  0  0  0  0  0  0  0  0  0  0
  147.4930  152.2520  132.5180 C   0  0  0  0  0  0  0  0  0  0  0  0
  146.4410  151.2830  132.4820 N   0  0  0  0  0  0  0  0  0  0  0  0
  147.1980  153.6210  132.6380 C   0  0  0  0  0  0  0  0  0  0  0  0
  145.9020  154.0260  132.6830 F   0  0  0  0  0  0  0  0  0  0  0  0
  146.6300  156.4550  133.0810 C   0  0  0  0  0  0  0  0  0  0  0  0
  146.3910  157.8290  133.1970 C   0  0  0  0  0  0  0  0  0  0  0  0
  145.2210  158.4620  133.4410 N   0  0  0  0  0  0  0  0  0  0  0  0
  143.9320  157.8440  133.5910 C   0  0  0  0  0  0  0  0  0  0  0  0
  143.0740  157.9290  132.6730 O   0  0  0  0  0  0  0  0  0  0  0  0
  143.6100  157.1710  134.7640 O   0  0  0  0  0  0  0  0  0  0  0  0
  142.8640  160.1100  132.6340 H   0  0  0  0  0  0  0  0  0  0  0  0
  147.3796  160.9624  133.0465 H   0  0  0  0  0  0  0  0  0  0  0  0
  149.4991  159.1003  132.5910 H   0  0  0  0  0  0  0  0  0  0  0  0
  149.9999  156.6438  132.4055 H   0  0  0  0  0  0  0  0  0  0  0  0
  150.3904  154.8677  132.5894 H   0  0  0  0  0  0  0  0  0  0  0  0
  150.9067  152.4404  132.3833 H   0  0  0  0  0  0  0  0  0  0  0  0
  149.0630  150.7650  132.3426 H   0  0  0  0  0  0  0  0  0  0  0  0
  146.2510  150.7340  131.6130 H   0  0  0  0  0  0  0  0  0  0  0  0
  145.8420  151.1020  133.3170 H   0  0  0  0  0  0  0  0  0  0  0  0
  145.8125  155.7294  133.2041 H   0  0  0  0  0  0  0  0  0  0  0  0
  1  2  1  0
  2  3  2  0
  2  4  1  0
  4  5  2  0
  5  6  1  0
  6  7  2  0
  7  8  1  0
  8  9  2  0
  9 10  1  0
 10 11  2  0
 11 12  1  0
 12 13  2  0
 13 14  1  0
 14 15  1  0
 14 16  2  0
 16 17  1  0
  9 18  1  0
 18 19  2  0
 19 20  1  0
 20 21  1  0
 21 22  2  0
 21 23  1  0
 20  4  1  0
 19  6  1  0
 16 10  1  0
  1 24  1  0
  5 25  1  0
  7 26  1  0
  8 27  1  0
 11 28  1  0
 12 29  1  0
 13 30  1  0
 15 31  1  0
 15 32  1  0
 18 33  1  0
M  CHG  2   1  -1  23  -1
M  END
>  <UniqueID>  (20) 
20

>  <SMILES>  (20) 
[NH-]C(=O)c1cc2ccc(-c3cccc(N)c3F)cc2n1C(=O)[O-]

>  <Energy>  (20) 
81.55056549244972

>  <Genealogy>  (20) 
[NH-]C(=O)c1cc2ccc(-c3cccc(N)c3F)cc2n1C(=O)[O-] (protonated)
[NH-]C(=O)c1cc2ccc(-c3cccc(N)c3F)cc2n1C(=O)[O-] (3D coordinates assigned)
[NH-]C(=O)c1cc2ccc(-c3cccc(N)c3F)cc2n1C(=O)[O-] (optimized conformer: 81.55056549244972 kcal/mol)

>  <smiles>  (20) 
NC(=O)c1cc2ccc(-c3cccc(N)c3F)cc2n1C(=O)O

>  <score_type>  (20) 
oracle

>  <origin>  (20) 
adg

>  <m_score__min__energy>  (20) 
-7.4500000000000002

>  <m_primary>  (20) 
energy

$$$$
20:0
     RDKit          3D

 45 46  0  0  0  0  0  0  0  0999 V2000
  143.9970  152.0700  132.8390 C   0  0  0  0  0  0  0  0  0  0  0  0
  144.8290  153.2800  132.7330 N   0  0  0  0  0  0  0  0  0  0  0  0
  144.3650  154.1490  131.6370 C   0  0  0  0  0  0  0  0  0  0  0  0
  146.2800  152.9750  132.6440 C   0  0  0  0  0  0  0  0  0  0  0  0
  147.1890  153.8360  133.5630 C   0  0  0  0  0  0  0  0  0  0  0  0
  148.1580  154.7140  132.7580 C   0  0  0  0  0  0  0  0  0  0  0  0
  147.8330  156.1720  132.9350 C   0  0  0  0  0  0  0  0  0  0  0  0
  148.8570  157.1470  132.8500 C   0  0  0  0  0  0  0  0  0  0  0  0
  148.5580  158.5110  132.9930 C   0  0  0  0  0  0  0  0  0  0  0  0
  147.2310  158.8700  133.2190 C   0  0  0  0  0  0  0  0  0  0  0  0
  146.6620  160.1150  133.3490 C   0  0  0  0  0  0  0  0  0  0  0  0
  145.2990  159.8830  133.5120 C   0  0  0  0  0  0  0  0  0  0  0  0
  144.3110  160.9640  133.7320 C   0  0  0  0  0  0  0  0  0  0  0  0
  142.9390  160.7860  133.3920 N   0  0  0  0  0  0  0  0  0  0  0  0
  144.6810  162.0460  134.2580 O   0  0  0  0  0  0  0  0  0  0  0  0
  145.0340  158.5450  133.4960 N   0  0  0  0  0  0  0  0  0  0  0  0
  143.7400  157.9110  133.5120 C   0  0  0  0  0  0  0  0  0  0  0  0
  143.2310  157.5220  132.4270 O   0  0  0  0  0  0  0  0  0  0  0  0
  143.0300  157.5960  134.7710 C   0  0  0  0  0  0  0  0  0  0  0  0
  142.7910  156.3690  135.2550 C   0  0  0  0  0  0  0  0  0  0  0  0
  143.3830  155.1170  134.7500 C   0  0  0  0  0  0  0  0  0  0  0  0
  142.6400  154.2580  134.2130 O   0  0  0  0  0  0  0  0  0  0  0  0
  144.7250  154.8240  134.9460 O   0  0  0  0  0  0  0  0  0  0  0  0
  146.2290  157.9380  133.3060 C   0  0  0  0  0  0  0  0  0  0  0  0
  146.4960  156.5740  133.1470 C   0  0  0  0  0  0  0  0  0  0  0  0
  143.8321  151.8302  133.8998 H   0  0  0  0  0  0  0  0  0  0  0  0
  143.0286  152.2468  132.3482 H   0  0  0  0  0  0  0  0  0  0  0  0
  144.5087  151.2290  132.3482 H   0  0  0  0  0  0  0  0  0  0  0  0
  144.6940  153.8210  133.6210 H   0  0  0  0  0  0  0  0  0  0  0  0
  143.8863  155.0456  132.0576 H   0  0  0  0  0  0  0  0  0  0  0  0
  145.2235  154.4480  131.0177 H   0  0  0  0  0  0  0  0  0  0  0  0
  143.6389  153.6020  131.0177 H   0  0  0  0  0  0  0  0  0  0  0  0
  146.4239  151.9186  132.9146 H   0  0  0  0  0  0  0  0  0  0  0  0
  146.5800  153.2059  131.6112 H   0  0  0  0  0  0  0  0  0  0  0  0
  146.5533  154.4855  134.1828 H   0  0  0  0  0  0  0  0  0  0  0  0
  147.7870  153.1529  134.1840 H   0  0  0  0  0  0  0  0  0  0  0  0
  149.1852  154.5290  133.1054 H   0  0  0  0  0  0  0  0  0  0  0  0
  148.0615  154.4588  131.6924 H   0  0  0  0  0  0  0  0  0  0  0  0
  149.8957  156.8325  132.6704 H   0  0  0  0  0  0  0  0  0  0  0  0
  149.3480  159.2738  132.9285 H   0  0  0  0  0  0  0  0  0  0  0  0
  147.1749  161.0879  133.3286 H   0  0  0  0  0  0  0  0  0  0  0  0
  142.6520  160.1000  132.6580 H   0  0  0  0  0  0  0  0  0  0  0  0
  142.6646  158.4469  135.3646 H   0  0  0  0  0  0  0  0  0  0  0  0
  142.0933  156.2896  136.1017 H   0  0  0  0  0  0  0  0  0  0  0  0
  145.6843  155.8327  133.1862 H   0  0  0  0  0  0  0  0  0  0  0  0
  1  2  1  0
  2  3  1  0
  2  4  1  0
  4  5  1  0
  5  6  1  0
  6  7  1  0
  7  8  2  0
  8  9  1  0
  9 10  2  0
 10 11  1  0
 11 12  2  0
 12 13  1  0
 13 14  1  0
 13 15  2  0
 12 16  1  0
 16 17  1  0
 17 18  2  0
 17 19  1  0
 19 20  2  3
 20 21  1  0
 21 22  2  0
 21 23  1  0
 16 24  1  0
 24 25  2  0
 25  7  1  0
 24 10  1  0
  1 26  1  0
  1 27  1  0
  1 28  1  0
  2 29  1  0
  3 30  1  0
  3 31  1  0
  3 32  1  0
  4 33  1  0
  4 34  1  0
  5 35  1  0
  5 36  1  0
  6 37  1  0
  6 38  1  0
  8 39  1  0
  9 40  1  0
 11 41  1  0
 14 42  1  0
 19 43  1  0
 20 44  1  0
 25 45  1  0
M  CHG  3   2   1  14  -1  23  -1
M  END
>  <UniqueID>  (21) 
21

>  <SMILES>  (21) 
C[NH+](C)CCCc1ccc2cc(C([NH-])=O)n(C(=O)C=CC(=O)[O-])c2c1

>  <Energy>  (21) 
91.14852815805017

>  <Genealogy>  (21) 
C[NH+](C)CCCc1ccc2cc(C([NH-])=O)n(C(=O)C=CC(=O)[O-])c2c1 (protonated)
C[NH+](C)CCCc1ccc2cc(C([NH-])=O)n(C(=O)C=CC(=O)[O-])c2c1 (3D coordinates assigned)
C[NH+](C)CCCc1ccc2cc(C([NH-])=O)n(C(=O)C=CC(=O)[O-])c2c1 (optimized conformer: 91.14852815805017 kcal/mol)

>  <smiles>  (21) 
CN(C)CCCc1ccc2cc(C(N)=O)n(C(=O)C=CC(=O)O)c2c1

>  <score_type>  (21) 
oracle

>  <origin>  (21) 
adg

>  <m_score__min__energy>  (21) 
-5.7000000000000002

>  <m_primary>  (21) 
energy

$$$$
21:0
     RDKit          3D

 36 38  0  0  0  0  0  0  0  0999 V2000
  148.9960  157.4170  131.8590 N   0  0  0  0  0  0  0  0  0  0  0  0
  148.6790  158.6420  132.5200 C   0  0  0  0  0  0  0  0  0  0  0  0
  149.5830  159.5050  132.6830 O   0  0  0  0  0  0  0  0  0  0  0  0
  147.3050  158.9400  132.9720 C   0  0  0  0  0  0  0  0  0  0  0  0
  146.7980  160.2320  133.0890 C   0  0  0  0  0  0  0  0  0  0  0  0
  145.4840  160.0730  133.4680 C   0  0  0  0  0  0  0  0  0  0  0  0
  144.5070  161.0260  133.7330 C   0  0  0  0  0  0  0  0  0  0  0  0
  143.2380  160.5770  134.1320 C   0  0  0  0  0  0  0  0  0  0  0  0
  142.9620  159.1880  134.2690 C   0  0  0  0  0  0  0  0  0  0  0  0
  141.6530  158.7360  134.6900 N   0  0  0  0  0  0  0  0  0  0  0  0
  141.2870  158.4860  136.0770 C   0  0  0  0  0  0  0  0  0  0  0  0
  139.7930  158.1980  136.0680 C   0  0  0  0  0  0  0  0  0  0  0  0
  139.4440  157.8610  134.6230 C   0  0  0  0  0  0  0  0  0  0  0  0
  140.5490  158.4750  133.7760 C   0  0  0  0  0  0  0  0  0  0  0  0
  143.9900  158.2540  133.9900 C   0  0  0  0  0  0  0  0  0  0  0  0
  145.2390  158.7320  133.5790 C   0  0  0  0  0  0  0  0  0  0  0  0
  146.3480  158.0210  133.2860 N   0  0  0  0  0  0  0  0  0  0  0  0
  146.4890  156.5940  133.3860 C   0  0  0  0  0  0  0  0  0  0  0  0
  146.5700  155.9020  132.3360 O   0  0  0  0  0  0  0  0  0  0  0  0
  146.5070  155.9210  134.6940 C   0  0  0  0  0  0  0  0  0  0  0  0
  145.4430  155.4780  135.1990 O   0  0  0  0  0  0  0  0  0  0  0  0
  147.7090  155.7500  135.3700 O   0  0  0  0  0  0  0  0  0  0  0  0
  149.9840  157.2040  131.5980 H   0  0  0  0  0  0  0  0  0  0  0  0
  148.2470  156.7630  131.5410 H   0  0  0  0  0  0  0  0  0  0  0  0
  147.3331  161.1773  132.9157 H   0  0  0  0  0  0  0  0  0  0  0  0
  144.7219  162.1002  133.6330 H   0  0  0  0  0  0  0  0  0  0  0  0
  142.4452  161.3101  134.3419 H   0  0  0  0  0  0  0  0  0  0  0  0
  141.8413  157.6205  136.4690 H   0  0  0  0  0  0  0  0  0  0  0  0
  141.5291  159.3451  136.7200 H   0  0  0  0  0  0  0  0  0  0  0  0
  139.5629  157.3472  136.7261 H   0  0  0  0  0  0  0  0  0  0  0  0
  139.2127  159.0574  136.4349 H   0  0  0  0  0  0  0  0  0  0  0  0
  139.4131  156.7707  134.4806 H   0  0  0  0  0  0  0  0  0  0  0  0
  138.4546  158.2522  134.3435 H   0  0  0  0  0  0  0  0  0  0  0  0
  140.8618  157.7739  132.9882 H   0  0  0  0  0  0  0  0  0  0  0  0
  140.2116  159.3951  133.2765 H   0  0  0  0  0  0  0  0  0  0  0  0
  143.8097  157.1739  134.0945 H   0  0  0  0  0  0  0  0  0  0  0  0
  1  2  1  0
  2  3  2  0
  2  4  1  0
  4  5  2  0
  5  6  1  0
  6  7  2  0
  7  8  1  0
  8  9  2  0
  9 10  1  0
 10 11  1  0
 11 12  1  0
 12 13  1  0
 13 14  1  0
  9 15  1  0
 15 16  2  0
 16 17  1  0
 17 18  1  0
 18 19  2  0
 18 20  1  0
 20 21  2  0
 20 22  1  0
 17  4  1  0
 16  6  1  0
 14 10  1  0
  1 23  1  0
  1 24  1  0
  5 25  1  0
  7 26  1  0
  8 27  1  0
 11 28  1  0
 11 29  1  0
 12 30  1  0
 12 31  1  0
 13 32  1  0
 13 33  1  0
 14 34  1  0
 14 35  1  0
 15 36  1  0
M  CHG  1  22  -1
M  END
>  <UniqueID>  (22) 
22

>  <SMILES>  (22) 
NC(=O)c1cc2ccc(N3CCCC3)cc2n1C(=O)C(=O)[O-]

>  <Energy>  (22) 
78.67828058238268

>  <Genealogy>  (22) 
NC(=O)c1cc2ccc(N3CCCC3)cc2n1C(=O)C(=O)[O-] (protonated)
NC(=O)c1cc2ccc(N3CCCC3)cc2n1C(=O)C(=O)[O-] (3D coordinates assigned)
NC(=O)c1cc2ccc(N3CCCC3)cc2n1C(=O)C(=O)[O-] (nonaromatic ring conformer: 78.67828058238268 kcal/mol)

>  <smiles>  (22) 
NC(=O)c1cc2ccc(N3CCCC3)cc2n1C(=O)C(=O)O

>  <score_type>  (22) 
oracle

>  <origin>  (22) 
adg

>  <m_score__min__energy>  (22) 
-7.0800000000000001

>  <m_primary>  (22) 
energy

$$$$
22:0
     RDKit          3D

 35 37  0  0  0  0  0  0  0  0999 V2000
  138.5270  160.0660  131.6370 C   0  0  0  0  0  0  0  0  0  0  0  0
  139.2430  158.9100  132.2470 C   0  0  0  0  0  0  0  0  0  0  0  0
  138.6870  158.0870  133.1570 N   0  0  0  0  0  0  0  0  0  0  0  0
  139.6420  157.2740  133.4930 O   0  0  0  0  0  0  0  0  0  0  0  0
  140.7330  157.5800  132.8330 C   0  0  0  0  0  0  0  0  0  0  0  0
  142.0460  156.8950  133.0230 C   0  0  0  0  0  0  0  0  0  0  0  0
  142.7660  157.5120  134.1810 C   0  0  0  0  0  0  0  0  0  0  0  0
  142.6540  157.0120  135.3330 O   0  0  0  0  0  0  0  0  0  0  0  0
  143.6550  158.6150  133.9690 N   0  0  0  0  0  0  0  0  0  0  0  0
  143.3400  159.9350  133.8840 C   0  0  0  0  0  0  0  0  0  0  0  0
  141.9980  160.5120  134.1060 C   0  0  0  0  0  0  0  0  0  0  0  0
  140.9850  159.7340  134.7390 N   0  0  0  0  0  0  0  0  0  0  0  0
  141.7330  161.6840  133.7310 O   0  0  0  0  0  0  0  0  0  0  0  0
  144.4730  160.6840  133.5660 C   0  0  0  0  0  0  0  0  0  0  0  0
  145.4960  159.7670  133.4520 C   0  0  0  0  0  0  0  0  0  0  0  0
  146.8310  159.9460  133.1070 C   0  0  0  0  0  0  0  0  0  0  0  0
  147.6490  158.8050  133.0190 C   0  0  0  0  0  0  0  0  0  0  0  0
  147.1260  157.5140  133.2940 C   0  0  0  0  0  0  0  0  0  0  0  0
  147.9890  156.2890  133.1310 C   0  0  0  0  0  0  0  0  0  0  0  0
  148.1480  155.6420  134.3440 F   0  0  0  0  0  0  0  0  0  0  0  0
  149.2430  156.6310  132.6540 F   0  0  0  0  0  0  0  0  0  0  0  0
  147.3870  155.4250  132.2360 F   0  0  0  0  0  0  0  0  0  0  0  0
  145.7600  157.3740  133.6270 C   0  0  0  0  0  0  0  0  0  0  0  0
  144.9740  158.5260  133.7030 C   0  0  0  0  0  0  0  0  0  0  0  0
  140.5440  158.6350  132.0190 N   0  0  0  0  0  0  0  0  0  0  0  0
  138.1273  160.7113  132.4332 H   0  0  0  0  0  0  0  0  0  0  0  0
  139.2261  160.6429  131.0138 H   0  0  0  0  0  0  0  0  0  0  0  0
  137.6990  159.6970  131.0138 H   0  0  0  0  0  0  0  0  0  0  0  0
  141.8769  155.8267  133.2231 H   0  0  0  0  0  0  0  0  0  0  0  0
  142.6529  157.0052  132.1122 H   0  0  0  0  0  0  0  0  0  0  0  0
  140.2800  159.2110  134.1740 H   0  0  0  0  0  0  0  0  0  0  0  0
  144.5366  161.7742  133.4342 H   0  0  0  0  0  0  0  0  0  0  0  0
  147.2353  160.9496  132.9088 H   0  0  0  0  0  0  0  0  0  0  0  0
  148.7058  158.9142  132.7339 H   0  0  0  0  0  0  0  0  0  0  0  0
  145.3262  156.3820  133.8216 H   0  0  0  0  0  0  0  0  0  0  0  0
  1  2  1  0
  2  3  2  0
  3  4  1  0
  4  5  1  0
  5  6  1  0
  6  7  1  0
  7  8  2  0
  7  9  1  0
  9 10  1  0
 10 11  1  0
 11 12  1  0
 11 13  2  0
 10 14  2  0
 14 15  1  0
 15 16  2  0
 16 17  1  0
 17 18  2  0
 18 19  1  0
 19 20  1  0
 19 21  1  0
 19 22  1  0
 18 23  1  0
 23 24  2  0
  5 25  2  0
 25  2  1  0
 24  9  1  0
 24 15  1  0
  1 26  1  0
  1 27  1  0
  1 28  1  0
  6 29  1  0
  6 30  1  0
 12 31  1  0
 14 32  1  0
 16 33  1  0
 17 34  1  0
 23 35  1  0
M  CHG  1  12  -1
M  END
>  <UniqueID>  (23) 
23

>  <SMILES>  (23) 
Cc1noc(CC(=O)n2c(C([NH-])=O)cc3ccc(C(F)(F)F)cc32)n1

>  <Energy>  (23) 
105.57599499425503

>  <Genealogy>  (23) 
Cc1noc(CC(=O)n2c(C([NH-])=O)cc3ccc(C(F)(F)F)cc32)n1 (protonated)
Cc1noc(CC(=O)n2c(C([NH-])=O)cc3ccc(C(F)(F)F)cc32)n1 (3D coordinates assigned)
Cc1noc(CC(=O)n2c(C([NH-])=O)cc3ccc(C(F)(F)F)cc32)n1 (optimized conformer: 105.57599499425503 kcal/mol)

>  <smiles>  (23) 
Cc1noc(CC(=O)n2c(C(N)=O)cc3ccc(C(F)(F)F)cc32)n1

>  <score_type>  (23) 
oracle

>  <origin>  (23) 
adg

>  <m_score__min__energy>  (23) 
-6.4400000000000004

>  <m_primary>  (23) 
energy

$$$$
23:0
     RDKit          3D

 38 39  0  0  0  0  0  0  0  0999 V2000
  149.2240  159.7440  131.1280 C   0  0  0  0  0  0  0  0  0  0  0  0
  149.2600  159.3380  132.5970 C   0  0  0  0  0  0  0  0  0  0  0  0
  147.9380  158.7600  133.0220 C   0  0  0  0  0  0  0  0  0  0  0  0
  146.7410  159.4870  132.8080 C   0  0  0  0  0  0  0  0  0  0  0  0
  145.4970  158.9370  133.1630 C   0  0  0  0  0  0  0  0  0  0  0  0
  145.4820  157.6650  133.7270 C   0  0  0  0  0  0  0  0  0  0  0  0
  144.4210  156.8850  134.1310 C   0  0  0  0  0  0  0  0  0  0  0  0
  144.9880  155.6970  134.5930 C   0  0  0  0  0  0  0  0  0  0  0  0
  144.2200  154.5720  135.1740 C   0  0  0  0  0  0  0  0  0  0  0  0
  144.5040  154.0900  136.4890 N   0  0  0  0  0  0  0  0  0  0  0  0
  143.3130  154.0130  134.5010 O   0  0  0  0  0  0  0  0  0  0  0  0
  146.3460  155.7490  134.4860 N   0  0  0  0  0  0  0  0  0  0  0  0
  147.2870  154.7070  134.7950 C   0  0  0  0  0  0  0  0  0  0  0  0
  147.8400  154.0690  133.8610 O   0  0  0  0  0  0  0  0  0  0  0  0
  147.6140  154.3770  136.1890 C   0  0  0  0  0  0  0  0  0  0  0  0
  148.4760  155.0580  136.8100 O   0  0  0  0  0  0  0  0  0  0  0  0
  146.9550  153.3160  136.8190 O   0  0  0  0  0  0  0  0  0  0  0  0
  147.4830  152.6150  137.9440 C   0  0  0  0  0  0  0  0  0  0  0  0
  146.3780  152.2830  138.9440 C   0  0  0  0  0  0  0  0  0  0  0  0
  145.2010  152.9660  138.6130 O   0  0  0  0  0  0  0  0  0  0  0  0
  146.6320  156.9540  133.9480 C   0  0  0  0  0  0  0  0  0  0  0  0
  147.8820  157.4660  133.5840 C   0  0  0  0  0  0  0  0  0  0  0  0
  149.1271  160.8371  131.0520 H   0  0  0  0  0  0  0  0  0  0  0  0
  150.1541  159.4233  130.6360 H   0  0  0  0  0  0  0  0  0  0  0  0
  148.3648  159.2646  130.6360 H   0  0  0  0  0  0  0  0  0  0  0  0
  150.0475  158.5842  132.7440 H   0  0  0  0  0  0  0  0  0  0  0  0
  149.4674  160.2307  133.2054 H   0  0  0  0  0  0  0  0  0  0  0  0
  146.7854  160.4907  132.3601 H   0  0  0  0  0  0  0  0  0  0  0  0
  144.5634  159.4954  132.9998 H   0  0  0  0  0  0  0  0  0  0  0  0
  143.3525  157.1440  134.0966 H   0  0  0  0  0  0  0  0  0  0  0  0
  143.9780  153.2720  136.8700 H   0  0  0  0  0  0  0  0  0  0  0  0
  145.1990  154.5630  137.1060 H   0  0  0  0  0  0  0  0  0  0  0  0
  147.9504  151.6806  137.5997 H   0  0  0  0  0  0  0  0  0  0  0  0
  148.2270  153.2552  138.4406 H   0  0  0  0  0  0  0  0  0  0  0  0
  146.1862  151.2000  138.9264 H   0  0  0  0  0  0  0  0  0  0  0  0
  146.7005  152.5925  139.9491 H   0  0  0  0  0  0  0  0  0  0  0  0
  145.4820  153.8640  138.3000 H   0  0  0  0  0  0  0  0  0  0  0  0
  148.7981  156.8753  133.7319 H   0  0  0  0  0  0  0  0  0  0  0  0
  1  2  1  0
  2  3  1  0
  3  4  2  0
  4  5  1  0
  5  6  2  0
  6  7  1  0
  7  8  2  0
  8  9  1  0
  9 10  1  0
  9 11  2  0
  8 12  1  0
 12 13  1  0
 13 14  2  0
 13 15  1  0
 15 16  2  0
 15 17  1  0
 17 18  1  0
 18 19  1  0
 19 20  1  0
 12 21  1  0
 21 22  2  0
 22  3  1  0
 21  6  1  0
  1 23  1  0
  1 24  1  0
  1 25  1  0
  2 26  1  0
  2 27  1  0
  4 28  1  0
  5 29  1  0
  7 30  1  0
 10 31  1  0
 10 32  1  0
 18 33  1  0
 18 34  1  0
 19 35  1  0
 19 36  1  0
 20 37  1  0
 22 38  1  0
M  END
>  <UniqueID>  (24) 
24

>  <SMILES>  (24) 
CCc1ccc2cc(C(N)=O)n(C(=O)C(=O)OCCO)c2c1

>  <Energy>  (24) 
69.47143799113925

>  <Genealogy>  (24) 
CCc1ccc2cc(C(N)=O)n(C(=O)C(=O)OCCO)c2c1 (3D coordinates assigned)
CCc1ccc2cc(C(N)=O)n(C(=O)C(=O)OCCO)c2c1 (optimized conformer: 69.47143799113925 kcal/mol)

>  <smiles>  (24) 
CCc1ccc2cc(C(N)=O)n(C(=O)C(=O)OCCO)c2c1

>  <score_type>  (24) 
oracle

>  <origin>  (24) 
adg

>  <m_score__min__energy>  (24) 
-6.4299999999999997

>  <m_primary>  (24) 
energy

$$$$
24:0
     RDKit          3D

 33 35  0  0  0  0  0  0  0  0999 V2000
  139.1240  158.2360  136.2150 N   0  0  0  0  0  0  0  0  0  0  0  0
  139.5120  157.7470  134.9340 C   0  0  0  0  0  0  0  0  0  0  0  0
  138.6250  157.4710  134.0830 O   0  0  0  0  0  0  0  0  0  0  0  0
  140.9390  157.6140  134.5710 C   0  0  0  0  0  0  0  0  0  0  0  0
  141.5530  156.3880  134.3200 C   0  0  0  0  0  0  0  0  0  0  0  0
  142.8360  156.6940  133.9320 C   0  0  0  0  0  0  0  0  0  0  0  0
  143.8880  155.8560  133.5740 C   0  0  0  0  0  0  0  0  0  0  0  0
  145.1200  156.4470  133.2480 C   0  0  0  0  0  0  0  0  0  0  0  0
  145.2760  157.8520  133.2920 C   0  0  0  0  0  0  0  0  0  0  0  0
  146.5370  158.4410  132.9710 N   0  0  0  0  0  0  0  0  0  0  0  0
  147.1810  159.7640  133.0840 C   0  0  0  0  0  0  0  0  0  0  0  0
  148.4910  159.3500  132.4730 C   0  0  0  0  0  0  0  0  0  0  0  0
  149.5510  159.3400  133.3940 O   0  0  0  0  0  0  0  0  0  0  0  0
  148.8380  159.9830  131.1460 C   0  0  0  0  0  0  0  0  0  0  0  0
  147.9320  160.3530  130.3520 O   0  0  0  0  0  0  0  0  0  0  0  0
  150.1690  160.1290  130.7750 O   0  0  0  0  0  0  0  0  0  0  0  0
  147.8170  158.0150  132.3710 C   0  0  0  0  0  0  0  0  0  0  0  0
  144.1900  158.6740  133.6600 C   0  0  0  0  0  0  0  0  0  0  0  0
  142.9690  158.0600  133.9620 C   0  0  0  0  0  0  0  0  0  0  0  0
  141.8130  158.6390  134.3560 N   0  0  0  0  0  0  0  0  0  0  0  0
  141.6000  160.0410  134.5850 C   0  0  0  0  0  0  0  0  0  0  0  0
  140.9780  160.4330  135.6070 O   0  0  0  0  0  0  0  0  0  0  0  0
  142.1020  160.9810  133.6920 O   0  0  0  0  0  0  0  0  0  0  0  0
  139.4220  159.1820  136.5410 H   0  0  0  0  0  0  0  0  0  0  0  0
  141.1056  155.3874  134.4128 H   0  0  0  0  0  0  0  0  0  0  0  0
  143.7586  154.7640  133.5472 H   0  0  0  0  0  0  0  0  0  0  0  0
  145.9697  155.8123  132.9563 H   0  0  0  0  0  0  0  0  0  0  0  0
  146.6650  160.5397  132.4992 H   0  0  0  0  0  0  0  0  0  0  0  0
  147.2147  160.2234  134.0829 H   0  0  0  0  0  0  0  0  0  0  0  0
  150.3840  159.4560  132.8660 H   0  0  0  0  0  0  0  0  0  0  0  0
  147.7060  157.6735  131.3313 H   0  0  0  0  0  0  0  0  0  0  0  0
  148.3279  157.1585  132.8352 H   0  0  0  0  0  0  0  0  0  0  0  0
  144.2999  159.7674  133.7083 H   0  0  0  0  0  0  0  0  0  0  0  0
  1  2  1  0
  2  3  2  0
  2  4  1  0
  4  5  2  0
  5  6  1  0
  6  7  2  0
  7  8  1  0
  8  9  2  0
  9 10  1  0
 10 11  1  0
 11 12  1  0
 12 13  1  0
 12 14  1  0
 14 15  2  0
 14 16  1  0
 12 17  1  0
  9 18  1  0
 18 19  2  0
 19 20  1  0
 20 21  1  0
 21 22  2  0
 21 23  1  0
 20  4  1  0
 19  6  1  0
 17 10  1  0
  1 24  1  0
  5 25  1  0
  7 26  1  0
  8 27  1  0
 11 28  1  0
 11 29  1  0
 13 30  1  0
 17 31  1  0
 17 32  1  0
 18 33  1  0
M  CHG  3   1  -1  16  -1  23  -1
M  END
>  <UniqueID>  (25) 
25

>  <SMILES>  (25) 
[NH-]C(=O)c1cc2ccc(N3CC(O)(C(=O)[O-])C3)cc2n1C(=O)[O-]

>  <Energy>  (25) 
121.76401176750808

>  <Genealogy>  (25) 
[NH-]C(=O)c1cc2ccc(N3CC(O)(C(=O)[O-])C3)cc2n1C(=O)[O-] (protonated)
[NH-]C(=O)c1cc2ccc(N3CC(O)(C(=O)[O-])C3)cc2n1C(=O)[O-] (3D coordinates assigned)
[NH-]C(=O)c1cc2ccc(N3CC(O)(C(=O)[O-])C3)cc2n1C(=O)[O-] (nonaromatic ring conformer: 121.76401176750808 kcal/mol)

>  <smiles>  (25) 
NC(=O)c1cc2ccc(N3CC(O)(C(=O)O)C3)cc2n1C(=O)O

>  <score_type>  (25) 
oracle

>  <origin>  (25) 
adg

>  <m_score__min__energy>  (25) 
-6.5599999999999996

>  <m_primary>  (25) 
energy

$$$$
25:0
     RDKit          3D

 53 55  0  0  0  0  0  0  0  0999 V2000
  140.2240  158.9830  135.7520 C   0  0  0  0  0  0  0  0  0  0  0  0
  140.4580  157.6350  135.0370 C   0  0  2  0  0  0  0  0  0  0  0  0
  141.9550  157.2570  135.0240 C   0  0  0  0  0  0  0  0  0  0  0  0
  142.6410  157.7520  133.8220 N   0  0  0  0  0  0  0  0  0  0  0  0
  144.0310  157.4240  133.6370 C   0  0  0  0  0  0  0  0  0  0  0  0
  145.0030  158.4560  133.5560 C   0  0  0  0  0  0  0  0  0  0  0  0
  146.3620  158.1500  133.3670 C   0  0  0  0  0  0  0  0  0  0  0  0
  146.7210  156.8100  133.2670 C   0  0  0  0  0  0  0  0  0  0  0  0
  147.9560  156.2330  133.0710 C   0  0  0  0  0  0  0  0  0  0  0  0
  147.7230  154.8590  133.0510 C   0  0  0  0  0  0  0  0  0  0  0  0
  148.7960  153.8470  132.9430 C   0  0  0  0  0  0  0  0  0  0  0  0
  148.7430  152.6370  133.6930 N   0  0  0  0  0  0  0  0  0  0  0  0
  149.7930  154.0720  132.2050 O   0  0  0  0  0  0  0  0  0  0  0  0
  146.3950  154.6000  133.2160 N   0  0  0  0  0  0  0  0  0  0  0  0
  145.7290  153.3290  133.2030 C   0  0  0  0  0  0  0  0  0  0  0  0
  146.2160  152.3780  132.5360 O   0  0  0  0  0  0  0  0  0  0  0  0
  144.5140  153.1050  134.0010 C   0  0  0  0  0  0  0  0  0  0  0  0
  144.5190  153.3540  135.2380 O   0  0  0  0  0  0  0  0  0  0  0  0
  143.3650  152.6090  133.3810 O   0  0  0  0  0  0  0  0  0  0  0  0
  142.4930  153.4290  132.6100 C   0  0  0  0  0  0  0  0  0  0  0  0
  141.5990  154.1960  133.5250 C   0  0  0  0  0  0  0  0  0  0  0  0
  141.7040  154.0580  134.7720 O   0  0  0  0  0  0  0  0  0  0  0  0
  140.6260  155.0400  133.0050 O   0  0  0  0  0  0  0  0  0  0  0  0
  145.7980  155.8020  133.3540 C   0  0  0  0  0  0  0  0  0  0  0  0
  144.4390  156.0740  133.5320 C   0  0  0  0  0  0  0  0  0  0  0  0
  142.0280  158.7950  132.9880 C   0  0  0  0  0  0  0  0  0  0  0  0
  140.5380  158.4980  132.6740 C   0  0  2  0  0  0  0  0  0  0  0  0
  139.7720  159.8250  132.4650 C   0  0  0  0  0  0  0  0  0  0  0  0
  139.9080  157.5590  133.6570 N   0  0  2  0  0  0  0  0  0  0  0  0
  138.4300  157.5530  133.6330 C   0  0  0  0  0  0  0  0  0  0  0  0
  140.2506  158.8299  136.8410 H   0  0  0  0  0  0  0  0  0  0  0  0
  141.0123  159.6934  135.4623 H   0  0  0  0  0  0  0  0  0  0  0  0
  139.2424  159.3862  135.4623 H   0  0  0  0  0  0  0  0  0  0  0  0
  139.8917  156.9055  135.6346 H   0  0  0  0  0  0  0  0  0  0  0  0
  142.4379  157.6911  135.9119 H   0  0  0  0  0  0  0  0  0  0  0  0
  142.0267  156.1593  135.0265 H   0  0  0  0  0  0  0  0  0  0  0  0
  144.6890  159.5067  133.6421 H   0  0  0  0  0  0  0  0  0  0  0  0
  147.1183  158.9460  133.3003 H   0  0  0  0  0  0  0  0  0  0  0  0
  148.9214  156.7473  132.9549 H   0  0  0  0  0  0  0  0  0  0  0  0
  147.8640  152.0750  133.7430 H   0  0  0  0  0  0  0  0  0  0  0  0
  143.0871  154.1294  132.0047 H   0  0  0  0  0  0  0  0  0  0  0  0
  141.8852  152.7972  131.9457 H   0  0  0  0  0  0  0  0  0  0  0  0
  143.7041  155.2575  133.5891 H   0  0  0  0  0  0  0  0  0  0  0  0
  142.0928  159.7561  133.5192 H   0  0  0  0  0  0  0  0  0  0  0  0
  142.5733  158.8260  132.0332 H   0  0  0  0  0  0  0  0  0  0  0  0
  140.4795  157.9436  131.7257 H   0  0  0  0  0  0  0  0  0  0  0  0
  139.5203  160.2610  133.4430 H   0  0  0  0  0  0  0  0  0  0  0  0
  140.4033  160.5280  131.9017 H   0  0  0  0  0  0  0  0  0  0  0  0
  138.8476  159.6299  131.9017 H   0  0  0  0  0  0  0  0  0  0  0  0
  140.1600  156.5980  133.3180 H   0  0  0  0  0  0  0  0  0  0  0  0
  138.0465  157.5514  134.6640 H   0  0  0  0  0  0  0  0  0  0  0  0
  138.0681  158.4497  133.1086 H   0  0  0  0  0  0  0  0  0  0  0  0
  138.0754  156.6534  133.1086 H   0  0  0  0  0  0  0  0  0  0  0  0
  1  2  1  0
  2  3  1  0
  3  4  1  0
  4  5  1  0
  5  6  2  0
  6  7  1  0
  7  8  2  0
  8  9  1  0
  9 10  2  0
 10 11  1  0
 11 12  1  0
 11 13  2  0
 10 14  1  0
 14 15  1  0
 15 16  2  0
 15 17  1  0
 17 18  2  0
 17 19  1  0
 19 20  1  0
 20 21  1  0
 21 22  2  0
 21 23  1  0
 14 24  1  0
 24 25  2  0
  4 26  1  0
 26 27  1  0
 27 28  1  0
 27 29  1  0
 29 30  1  0
 29  2  1  0
 25  5  1  0
 24  8  1  0
  1 31  1  0
  1 32  1  0
  1 33  1  0
  2 34  1  1
  3 35  1  0
  3 36  1  0
  6 37  1  0
  7 38  1  0
  9 39  1  0
 12 40  1  0
 20 41  1  0
 20 42  1  0
 25 43  1  0
 26 44  1  0
 26 45  1  0
 27 46  1  6
 28 47  1  0
 28 48  1  0
 28 49  1  0
 29 50  1  6
 30 51  1  0
 30 52  1  0
 30 53  1  0
M  CHG  3  12  -1  23  -1  29   1
M  END
>  <UniqueID>  (26) 
26

>  <SMILES>  (26) 
C[C@@H]1CN(c2ccc3cc(C([NH-])=O)n(C(=O)C(=O)OCC(=O)[O-])c3c2)C[C@H](C)[N@@H+]1C

>  <Energy>  (26) 
108.7234166956646

>  <Genealogy>  (26) 
C[C@@H]1CN(c2ccc3cc(C([NH-])=O)n(C(=O)C(=O)OCC(=O)[O-])c3c2)C[C@H](C)[NH+]1C (protonated)
C[C@@H]1CN(c2ccc3cc(C([NH-])=O)n(C(=O)C(=O)OCC(=O)[O-])c3c2)C[C@H](C)[N@@H+]1C (chirality)
C[C@@H]1CN(c2ccc3cc(C([NH-])=O)n(C(=O)C(=O)OCC(=O)[O-])c3c2)C[C@H](C)[N@@H+]1C (3D coordinates assigned)
C[C@@H]1CN(c2ccc3cc(C([NH-])=O)n(C(=O)C(=O)OCC(=O)[O-])c3c2)C[C@H](C)[N@@H+]1C (nonaromatic ring conformer: 108.7234166956646 kcal/mol)

>  <smiles>  (26) 
C[C@@H]1CN(c2ccc3cc(C(N)=O)n(C(=O)C(=O)OCC(=O)O)c3c2)C[C@H](C)N1C

>  <score_type>  (26) 
oracle

>  <origin>  (26) 
adg

>  <m_score__min__energy>  (26) 
-6.2000000000000002

>  <m_primary>  (26) 
energy

$$$$
26:0
     RDKit          3D

 37 38  0  0  0  0  0  0  0  0999 V2000
  139.1850  160.8840  131.8490 N   0  0  0  0  0  0  0  0  0  0  0  0
  138.7770  159.5180  131.8400 C   0  0  0  0  0  0  0  0  0  0  0  0
  137.6160  159.2110  131.4570 O   0  0  0  0  0  0  0  0  0  0  0  0
  139.7120  158.4520  132.3280 C   0  0  0  0  0  0  0  0  0  0  0  0
  140.2570  158.7740  133.7250 C   0  0  0  0  0  0  0  0  0  0  0  0
  141.6920  159.2340  133.6720 C   0  0  0  0  0  0  0  0  0  0  0  0
  141.9950  160.6170  133.7190 C   0  0  0  0  0  0  0  0  0  0  0  0
  143.3280  161.0580  133.7240 C   0  0  0  0  0  0  0  0  0  0  0  0
  144.3330  160.0960  133.6820 C   0  0  0  0  0  0  0  0  0  0  0  0
  145.7000  160.2440  133.7280 C   0  0  0  0  0  0  0  0  0  0  0  0
  146.2110  158.9490  133.6890 C   0  0  0  0  0  0  0  0  0  0  0  0
  147.6570  158.6470  133.6680 C   0  0  0  0  0  0  0  0  0  0  0  0
  148.2010  157.5780  134.4440 N   0  0  0  0  0  0  0  0  0  0  0  0
  148.4160  159.3080  132.9100 O   0  0  0  0  0  0  0  0  0  0  0  0
  145.2040  158.0350  133.6340 N   0  0  0  0  0  0  0  0  0  0  0  0
  145.3220  156.6050  133.7190 C   0  0  0  0  0  0  0  0  0  0  0  0
  145.1430  155.8940  132.6930 O   0  0  0  0  0  0  0  0  0  0  0  0
  145.6320  156.0070  134.9470 O   0  0  0  0  0  0  0  0  0  0  0  0
  145.7900  154.6000  135.1150 C   0  0  0  0  0  0  0  0  0  0  0  0
  146.9610  154.3110  135.9980 C   0  0  0  0  0  0  0  0  0  0  0  0
  147.9410  155.1000  136.0340 O   0  0  0  0  0  0  0  0  0  0  0  0
  146.9820  153.1520  136.7640 O   0  0  0  0  0  0  0  0  0  0  0  0
  144.0590  158.7530  133.6260 C   0  0  0  0  0  0  0  0  0  0  0  0
  142.7380  158.2870  133.6370 C   0  0  0  0  0  0  0  0  0  0  0  0
  138.6500  161.5990  132.3870 H   0  0  0  0  0  0  0  0  0  0  0  0
  139.1719  157.4945  132.3677 H   0  0  0  0  0  0  0  0  0  0  0  0
  140.5620  158.3956  131.6321 H   0  0  0  0  0  0  0  0  0  0  0  0
  139.6438  159.5704  134.1720 H   0  0  0  0  0  0  0  0  0  0  0  0
  140.2135  157.8562  134.3298 H   0  0  0  0  0  0  0  0  0  0  0  0
  141.1779  161.3527  133.7519 H   0  0  0  0  0  0  0  0  0  0  0  0
  143.5705  162.1303  133.7600 H   0  0  0  0  0  0  0  0  0  0  0  0
  146.2681  161.1843  133.7837 H   0  0  0  0  0  0  0  0  0  0  0  0
  149.2310  157.4060  134.4480 H   0  0  0  0  0  0  0  0  0  0  0  0
  147.5820  156.9090  134.9490 H   0  0  0  0  0  0  0  0  0  0  0  0
  144.8797  154.1847  135.5720 H   0  0  0  0  0  0  0  0  0  0  0  0
  145.9616  154.1393  134.1310 H   0  0  0  0  0  0  0  0  0  0  0  0
  142.5211  157.2088  133.6188 H   0  0  0  0  0  0  0  0  0  0  0  0
  1  2  1  0
  2  3  2  0
  2  4  1  0
  4  5  1  0
  5  6  1  0
  6  7  2  0
  7  8  1  0
  8  9  2  0
  9 10  1  0
 10 11  2  0
 11 12  1  0
 12 13  1  0
 12 14  2  0
 11 15  1  0
 15 16  1  0
 16 17  2  0
 16 18  1  0
 18 19  1  0
 19 20  1  0
 20 21  2  0
 20 22  1  0
 15 23  1  0
 23 24  2  0
 24  6  1  0
 23  9  1  0
  1 25  1  0
  4 26  1  0
  4 27  1  0
  5 28  1  0
  5 29  1  0
  7 30  1  0
  8 31  1  0
 10 32  1  0
 13 33  1  0
 13 34  1  0
 19 35  1  0
 19 36  1  0
 24 37  1  0
M  CHG  2   1  -1  22  -1
M  END
>  <UniqueID>  (27) 
27

>  <SMILES>  (27) 
[NH-]C(=O)CCc1ccc2cc(C(N)=O)n(C(=O)OCC(=O)[O-])c2c1

>  <Energy>  (27) 
69.56926038289748

>  <Genealogy>  (27) 
[NH-]C(=O)CCc1ccc2cc(C(N)=O)n(C(=O)OCC(=O)[O-])c2c1 (protonated)
[NH-]C(=O)CCc1ccc2cc(C(N)=O)n(C(=O)OCC(=O)[O-])c2c1 (3D coordinates assigned)
[NH-]C(=O)CCc1ccc2cc(C(N)=O)n(C(=O)OCC(=O)[O-])c2c1 (optimized conformer: 69.56926038289748 kcal/mol)

>  <smiles>  (27) 
NC(=O)CCc1ccc2cc(C(N)=O)n(C(=O)OCC(=O)O)c2c1

>  <score_type>  (27) 
oracle

>  <origin>  (27) 
adg

>  <m_score__min__energy>  (27) 
-7.0700000000000003

>  <m_primary>  (27) 
energy

$$$$
27:0
     RDKit          3D

 31 32  0  0  0  0  0  0  0  0999 V2000
  146.5880  160.4880  132.9640 N   0  0  0  0  0  0  0  0  0  0  0  0
  145.7670  159.4260  133.4520 C   0  0  0  0  0  0  0  0  0  0  0  0
  144.6710  159.7040  134.0060 O   0  0  0  0  0  0  0  0  0  0  0  0
  146.1770  158.0140  133.2820 C   0  0  0  0  0  0  0  0  0  0  0  0
  145.2980  156.9350  133.3660 C   0  0  0  0  0  0  0  0  0  0  0  0
  146.0860  155.8130  133.2480 C   0  0  0  0  0  0  0  0  0  0  0  0
  145.7310  154.4680  133.2430 C   0  0  0  0  0  0  0  0  0  0  0  0
  146.7500  153.5170  133.0690 C   0  0  0  0  0  0  0  0  0  0  0  0
  148.1010  153.9220  132.9160 C   0  0  0  0  0  0  0  0  0  0  0  0
  149.1770  152.8960  132.6670 C   0  0  0  0  0  0  0  0  0  0  0  0
  150.3440  153.5040  132.2400 F   0  0  0  0  0  0  0  0  0  0  0  0
  148.7780  151.9960  131.6940 F   0  0  0  0  0  0  0  0  0  0  0  0
  149.4310  152.2080  133.8400 F   0  0  0  0  0  0  0  0  0  0  0  0
  148.4190  155.3010  132.9020 C   0  0  0  0  0  0  0  0  0  0  0  0
  147.3850  156.2250  133.0970 C   0  0  0  0  0  0  0  0  0  0  0  0
  147.4570  157.5740  133.1140 N   0  0  0  0  0  0  0  0  0  0  0  0
  148.6400  158.3690  132.9310 C   0  0  0  0  0  0  0  0  0  0  0  0
  148.9510  159.2420  133.7870 O   0  0  0  0  0  0  0  0  0  0  0  0
  149.4330  158.1820  131.7930 O   0  0  0  0  0  0  0  0  0  0  0  0
  149.1880  158.8400  130.5530 C   0  0  0  0  0  0  0  0  0  0  0  0
  148.6390  160.1690  130.7910 N   0  0  0  0  0  0  0  0  0  0  0  0
  149.2770  160.9910  131.4800 O   0  0  0  0  0  0  0  0  0  0  0  0
  147.3570  160.4660  130.3940 O   0  0  0  0  0  0  0  0  0  0  0  0
  147.5280  160.3030  132.5500 H   0  0  0  0  0  0  0  0  0  0  0  0
  146.2710  161.4800  133.0540 H   0  0  0  0  0  0  0  0  0  0  0  0
  144.2067  156.9726  133.4984 H   0  0  0  0  0  0  0  0  0  0  0  0
  144.6833  154.1584  133.3715 H   0  0  0  0  0  0  0  0  0  0  0  0
  146.4977  152.4465  133.0512 H   0  0  0  0  0  0  0  0  0  0  0  0
  149.4535  155.6389  132.7418 H   0  0  0  0  0  0  0  0  0  0  0  0
  150.1325  158.9308  129.9965 H   0  0  0  0  0  0  0  0  0  0  0  0
  148.4650  158.2510  129.9696 H   0  0  0  0  0  0  0  0  0  0  0  0
  1  2  1  0
  2  3  2  0
  2  4  1  0
  4  5  2  0
  5  6  1  0
  6  7  2  0
  7  8  1  0
  8  9  2  0
  9 10  1  0
 10 11  1  0
 10 12  1  0
 10 13  1  0
  9 14  1  0
 14 15  2  0
 15 16  1  0
 16 17  1  0
 17 18  2  0
 17 19  1  0
 19 20  1  0
 20 21  1  0
 21 22  2  0
 21 23  1  0
 16  4  1  0
 15  6  1  0
  1 24  1  0
  1 25  1  0
  5 26  1  0
  7 27  1  0
  8 28  1  0
 14 29  1  0
 20 30  1  0
 20 31  1  0
M  CHG  2  21   1  23  -1
M  END
>  <UniqueID>  (28) 
28

>  <SMILES>  (28) 
NC(=O)c1cc2ccc(C(F)(F)F)cc2n1C(=O)OC[N+](=O)[O-]

>  <Energy>  (28) 
68.2287895032618

>  <Genealogy>  (28) 
NC(=O)c1cc2ccc(C(F)(F)F)cc2n1C(=O)OC[N+](=O)[O-] (3D coordinates assigned)
NC(=O)c1cc2ccc(C(F)(F)F)cc2n1C(=O)OC[N+](=O)[O-] (optimized conformer: 68.2287895032618 kcal/mol)

>  <smiles>  (28) 
NC(=O)c1cc2ccc(C(F)(F)F)cc2n1C(=O)OC[N+](=O)[O-]

>  <score_type>  (28) 
oracle

>  <origin>  (28) 
adg

>  <m_score__min__energy>  (28) 
-5.8200000000000003

>  <m_primary>  (28) 
energy

$$$$
28:0
     RDKit          3D

 44 46  0  0  0  0  0  0  0  0999 V2000
  140.2290  158.7800  136.1300 C   0  0  0  0  0  0  0  0  0  0  0  0
  140.5400  158.5430  134.9900 C   0  0  0  0  0  0  0  0  0  0  0  0
  140.9190  158.2550  133.6000 C   0  0  2  0  0  0  0  0  0  0  0  0
  142.2810  158.7230  133.3380 N   0  0  0  0  0  0  0  0  0  0  0  0
  143.4000  158.2940  134.1250 C   0  0  0  0  0  0  0  0  0  0  0  0
  143.2230  157.5510  135.1290 O   0  0  0  0  0  0  0  0  0  0  0  0
  144.7270  158.7000  133.7630 N   0  0  0  0  0  0  0  0  0  0  0  0
  145.2100  159.9670  133.6240 C   0  0  0  0  0  0  0  0  0  0  0  0
  144.4240  161.2150  133.7360 C   0  0  0  0  0  0  0  0  0  0  0  0
  145.0420  162.4440  134.1130 N   0  0  0  0  0  0  0  0  0  0  0  0
  143.1820  161.1900  133.5260 O   0  0  0  0  0  0  0  0  0  0  0  0
  146.5640  159.9370  133.2900 C   0  0  0  0  0  0  0  0  0  0  0  0
  146.8940  158.6010  133.2250 C   0  0  0  0  0  0  0  0  0  0  0  0
  148.1090  157.9900  132.9300 C   0  0  0  0  0  0  0  0  0  0  0  0
  148.1640  156.5870  132.9570 C   0  0  0  0  0  0  0  0  0  0  0  0
  147.0160  155.8210  133.2910 C   0  0  0  0  0  0  0  0  0  0  0  0
  147.0830  154.3830  133.3240 N   0  0  0  0  0  0  0  0  0  0  0  0
  148.2700  153.6870  132.8130 C   0  0  0  0  0  0  0  0  0  0  0  0
  147.9750  152.1950  132.6040 C   0  0  0  0  0  0  0  0  0  0  0  0
  146.6340  152.0130  132.0320 N   0  0  0  0  0  0  0  0  0  0  0  0
  145.5600  152.4710  132.9380 C   0  0  0  0  0  0  0  0  0  0  0  0
  145.9940  153.5900  133.9060 C   0  0  0  0  0  0  0  0  0  0  0  0
  145.7980  156.4810  133.5710 C   0  0  0  0  0  0  0  0  0  0  0  0
  145.7700  157.8780  133.5210 C   0  0  0  0  0  0  0  0  0  0  0  0
  139.9540  158.9350  132.6760 C   0  0  0  0  0  0  0  0  0  0  0  0
  140.3750  159.7330  131.7970 O   0  0  0  0  0  0  0  0  0  0  0  0
  138.5930  158.6710  132.7670 O   0  0  0  0  0  0  0  0  0  0  0  0
  139.9452  158.9963  137.1705 H   0  0  0  0  0  0  0  0  0  0  0  0
  140.8867  157.1685  133.4311 H   0  0  0  0  0  0  0  0  0  0  0  0
  142.4590  159.3950  132.5560 H   0  0  0  0  0  0  0  0  0  0  0  0
  145.9540  162.7380  133.6980 H   0  0  0  0  0  0  0  0  0  0  0  0
  147.2272  160.7971  133.1156 H   0  0  0  0  0  0  0  0  0  0  0  0
  148.9989  158.5876  132.6832 H   0  0  0  0  0  0  0  0  0  0  0  0
  149.1076  156.0754  132.7166 H   0  0  0  0  0  0  0  0  0  0  0  0
  148.5659  154.1347  131.8528 H   0  0  0  0  0  0  0  0  0  0  0  0
  149.0829  153.7877  133.5472 H   0  0  0  0  0  0  0  0  0  0  0  0
  148.7224  151.7705  131.9176 H   0  0  0  0  0  0  0  0  0  0  0  0
  148.0205  151.6828  133.5764 H   0  0  0  0  0  0  0  0  0  0  0  0
  146.5790  152.5580  131.1380 H   0  0  0  0  0  0  0  0  0  0  0  0
  144.7270  152.8466  132.3256 H   0  0  0  0  0  0  0  0  0  0  0  0
  145.2738  151.6073  133.5562 H   0  0  0  0  0  0  0  0  0  0  0  0
  145.1353  154.2475  134.1067 H   0  0  0  0  0  0  0  0  0  0  0  0
  146.3493  153.1320  134.8409 H   0  0  0  0  0  0  0  0  0  0  0  0
  144.8929  155.9088  133.8225 H   0  0  0  0  0  0  0  0  0  0  0  0
  1  2  3  0
  2  3  1  0
  3  4  1  0
  4  5  1  0
  5  6  2  0
  5  7  1  0
  7  8  1  0
  8  9  1  0
  9 10  1  0
  9 11  2  0
  8 12  2  0
 12 13  1  0
 13 14  2  0
 14 15  1  0
 15 16  2  0
 16 17  1  0
 17 18  1  0
 18 19  1  0
 19 20  1  0
 20 21  1  0
 21 22  1  0
 16 23  1  0
 23 24  2  0
  3 25  1  0
 25 26  2  0
 25 27  1  0
 24  7  1  0
 24 13  1  0
 22 17  1  0
  1 28  1  0
  3 29  1  1
  4 30  1  0
 10 31  1  0
 12 32  1  0
 14 33  1  0
 15 34  1  0
 18 35  1  0
 18 36  1  0
 19 37  1  0
 19 38  1  0
 20 39  1  0
 21 40  1  0
 21 41  1  0
 22 42  1  0
 22 43  1  0
 23 44  1  0
M  CHG  2  10  -1  27  -1
M  END
>  <UniqueID>  (29) 
29

>  <SMILES>  (29) 
C#C[C@H](NC(=O)n1c(C([NH-])=O)cc2ccc(N3CCNCC3)cc21)C(=O)[O-]

>  <Energy>  (29) 
87.9186713621309

>  <Genealogy>  (29) 
C#C[C@H](NC(=O)n1c(C([NH-])=O)cc2ccc(N3CCNCC3)cc21)C(=O)[O-] (protonated)
C#C[C@H](NC(=O)n1c(C([NH-])=O)cc2ccc(N3CCNCC3)cc21)C(=O)[O-] (3D coordinates assigned)
C#C[C@H](NC(=O)n1c(C([NH-])=O)cc2ccc(N3CCNCC3)cc21)C(=O)[O-] (nonaromatic ring conformer: 87.9186713621309 kcal/mol)

>  <smiles>  (29) 
C#C[C@H](NC(=O)n1c(C(N)=O)cc2ccc(N3CCNCC3)cc21)C(=O)O

>  <score_type>  (29) 
oracle

>  <origin>  (29) 
adg

>  <m_score__min__energy>  (29) 
-8.6799999999999997

>  <m_primary>  (29) 
energy

$$$$
29:0
     RDKit          3D

 36 37  0  0  0  0  0  0  0  0999 V2000
  141.3460  158.9690  136.8370 C   0  0  0  0  0  0  0  0  0  0  0  0
  141.6810  158.5520  135.3900 C   0  0  0  0  0  0  0  0  0  0  0  0
  141.8340  157.0270  135.3300 C   0  0  0  0  0  0  0  0  0  0  0  0
  142.9340  159.1280  134.9980 O   0  0  0  0  0  0  0  0  0  0  0  0
  143.6500  158.8070  133.8340 C   0  0  0  0  0  0  0  0  0  0  0  0
  143.1140  158.1310  132.9140 O   0  0  0  0  0  0  0  0  0  0  0  0
  145.0180  159.2210  133.7110 N   0  0  0  0  0  0  0  0  0  0  0  0
  145.5130  160.4920  133.7020 C   0  0  0  0  0  0  0  0  0  0  0  0
  144.7460  161.7240  133.9800 C   0  0  0  0  0  0  0  0  0  0  0  0
  143.3470  161.7920  133.7220 N   0  0  0  0  0  0  0  0  0  0  0  0
  145.3260  162.7160  134.4980 O   0  0  0  0  0  0  0  0  0  0  0  0
  146.8880  160.4790  133.4740 C   0  0  0  0  0  0  0  0  0  0  0  0
  147.2250  159.1500  133.3510 C   0  0  0  0  0  0  0  0  0  0  0  0
  148.4580  158.5590  133.0950 C   0  0  0  0  0  0  0  0  0  0  0  0
  148.5080  157.1590  132.9840 C   0  0  0  0  0  0  0  0  0  0  0  0
  147.3340  156.3760  133.1390 C   0  0  0  0  0  0  0  0  0  0  0  0
  147.3900  154.8810  132.9540 C   0  0  0  0  0  0  0  0  0  0  0  0
  147.4400  154.2400  134.1800 F   0  0  0  0  0  0  0  0  0  0  0  0
  148.5140  154.5200  132.2320 F   0  0  0  0  0  0  0  0  0  0  0  0
  146.2630  154.4640  132.2730 F   0  0  0  0  0  0  0  0  0  0  0  0
  146.0950  157.0170  133.3730 C   0  0  0  0  0  0  0  0  0  0  0  0
  146.0790  158.4120  133.4980 C   0  0  0  0  0  0  0  0  0  0  0  0
  140.5890  158.9600  134.4260 C   0  0  0  0  0  0  0  0  0  0  0  0
  139.5170  158.3030  134.3510 O   0  0  0  0  0  0  0  0  0  0  0  0
  140.7970  160.0210  133.5520 O   0  0  0  0  0  0  0  0  0  0  0  0
  141.8756  158.3098  137.5405 H   0  0  0  0  0  0  0  0  0  0  0  0
  141.6619  160.0098  137.0011 H   0  0  0  0  0  0  0  0  0  0  0  0
  140.2616  158.8848  137.0011 H   0  0  0  0  0  0  0  0  0  0  0  0
  141.8746  156.6221  136.3520 H   0  0  0  0  0  0  0  0  0  0  0  0
  140.9749  156.5930  134.7975 H   0  0  0  0  0  0  0  0  0  0  0  0
  142.7622  156.7723  134.7975 H   0  0  0  0  0  0  0  0  0  0  0  0
  142.7340  160.9580  133.8540 H   0  0  0  0  0  0  0  0  0  0  0  0
  147.5610  161.3465  133.4067 H   0  0  0  0  0  0  0  0  0  0  0  0
  149.3664  159.1691  132.9828 H   0  0  0  0  0  0  0  0  0  0  0  0
  149.4678  156.6641  132.7746 H   0  0  0  0  0  0  0  0  0  0  0  0
  145.1660  156.4337  133.4549 H   0  0  0  0  0  0  0  0  0  0  0  0
  1  2  1  0
  2  3  1  0
  2  4  1  0
  4  5  1  0
  5  6  2  0
  5  7  1  0
  7  8  1  0
  8  9  1  0
  9 10  1  0
  9 11  2  0
  8 12  2  0
 12 13  1  0
 13 14  2  0
 14 15  1  0
 15 16  2  0
 16 17  1  0
 17 18  1  0
 17 19  1  0
 17 20  1  0
 16 21  1  0
 21 22  2  0
  2 23  1  0
 23 24  2  0
 23 25  1  0
 22  7  1  0
 22 13  1  0
  1 26  1  0
  1 27  1  0
  1 28  1  0
  3 29  1  0
  3 30  1  0
  3 31  1  0
 10 32  1  0
 12 33  1  0
 14 34  1  0
 15 35  1  0
 21 36  1  0
M  CHG  2  10  -1  25  -1
M  END
>  <UniqueID>  (30) 
30

>  <SMILES>  (30) 
CC(C)(OC(=O)n1c(C([NH-])=O)cc2ccc(C(F)(F)F)cc21)C(=O)[O-]

>  <Energy>  (30) 
72.87419070342919

>  <Genealogy>  (30) 
CC(C)(OC(=O)n1c(C([NH-])=O)cc2ccc(C(F)(F)F)cc21)C(=O)[O-] (protonated)
CC(C)(OC(=O)n1c(C([NH-])=O)cc2ccc(C(F)(F)F)cc21)C(=O)[O-] (3D coordinates assigned)
CC(C)(OC(=O)n1c(C([NH-])=O)cc2ccc(C(F)(F)F)cc21)C(=O)[O-] (optimized conformer: 72.87419070342919 kcal/mol)

>  <smiles>  (30) 
CC(C)(OC(=O)n1c(C(N)=O)cc2ccc(C(F)(F)F)cc21)C(=O)O

>  <score_type>  (30) 
oracle

>  <origin>  (30) 
adg

>  <m_score__min__energy>  (30) 
-6.4299999999999997

>  <m_primary>  (30) 
energy

$$$$
30:0
     RDKit          3D

 41 43  0  0  0  0  0  0  0  0999 V2000
  149.3640  159.7670  129.6620 C   0  0  0  0  0  0  0  0  0  0  0  0
  148.8300  159.7060  131.0540 C   0  0  0  0  0  0  0  0  0  0  0  0
  149.4670  159.1310  132.1390 C   0  0  0  0  0  0  0  0  0  0  0  0
  148.5610  159.2760  133.1650 C   0  0  0  0  0  0  0  0  0  0  0  0
  148.7430  158.8800  134.4490 F   0  0  0  0  0  0  0  0  0  0  0  0
  147.4530  159.8820  132.6970 N   0  0  0  0  0  0  0  0  0  0  0  0
  146.2840  160.2740  133.4760 C   0  0  0  0  0  0  0  0  0  0  0  0
  145.2870  159.1490  133.5020 C   0  0  0  0  0  0  0  0  0  0  0  0
  145.7320  157.8080  133.6060 C   0  0  0  0  0  0  0  0  0  0  0  0
  144.8130  156.7460  133.5760 C   0  0  0  0  0  0  0  0  0  0  0  0
  143.4620  157.0550  133.4370 C   0  0  0  0  0  0  0  0  0  0  0  0
  142.3720  156.2220  133.3360 C   0  0  0  0  0  0  0  0  0  0  0  0
  141.2770  157.0690  133.1870 C   0  0  0  0  0  0  0  0  0  0  0  0
  139.8840  156.5860  133.1020 C   0  0  0  0  0  0  0  0  0  0  0  0
  138.7870  157.4990  133.0390 N   0  0  0  0  0  0  0  0  0  0  0  0
  139.6540  155.3480  133.1430 O   0  0  0  0  0  0  0  0  0  0  0  0
  141.6710  158.3730  133.1780 N   0  0  0  0  0  0  0  0  0  0  0  0
  140.8610  159.5320  132.9250 C   0  0  0  0  0  0  0  0  0  0  0  0
  140.8130  160.4650  133.7750 O   0  0  0  0  0  0  0  0  0  0  0  0
  140.1190  159.6200  131.7440 O   0  0  0  0  0  0  0  0  0  0  0  0
  139.1350  160.6230  131.5240 C   0  0  0  0  0  0  0  0  0  0  0  0
  137.8740  159.9790  131.0570 C   0  0  0  0  0  0  0  0  0  0  0  0
  137.3230  160.3680  129.9940 O   0  0  0  0  0  0  0  0  0  0  0  0
  137.2780  158.9810  131.8180 O   0  0  0  0  0  0  0  0  0  0  0  0
  143.0150  158.3480  133.3380 C   0  0  0  0  0  0  0  0  0  0  0  0
  143.9110  159.4240  133.3460 C   0  0  0  0  0  0  0  0  0  0  0  0
  147.6070  160.1520  131.4110 N   0  0  0  0  0  0  0  0  0  0  0  0
  150.4564  159.8918  129.6935 H   0  0  0  0  0  0  0  0  0  0  0  0
  149.1165  158.8347  129.1332 H   0  0  0  0  0  0  0  0  0  0  0  0
  148.9127  160.6194  129.1332 H   0  0  0  0  0  0  0  0  0  0  0  0
  150.4637  158.6668  132.1737 H   0  0  0  0  0  0  0  0  0  0  0  0
  146.5936  160.5111  134.5046 H   0  0  0  0  0  0  0  0  0  0  0  0
  145.8207  161.1585  133.0145 H   0  0  0  0  0  0  0  0  0  0  0  0
  146.8064  157.5966  133.7111 H   0  0  0  0  0  0  0  0  0  0  0  0
  145.1500  155.7023  133.6597 H   0  0  0  0  0  0  0  0  0  0  0  0
  142.3666  155.1224  133.3664 H   0  0  0  0  0  0  0  0  0  0  0  0
  137.8120  157.1390  132.9400 H   0  0  0  0  0  0  0  0  0  0  0  0
  138.9310  158.5240  133.1730 H   0  0  0  0  0  0  0  0  0  0  0  0
  138.9457  161.1648  132.4624 H   0  0  0  0  0  0  0  0  0  0  0  0
  139.4928  161.3306  130.7616 H   0  0  0  0  0  0  0  0  0  0  0  0
  143.5518  160.4576  133.2335 H   0  0  0  0  0  0  0  0  0  0  0  0
  1  2  1  0
  2  3  1  0
  3  4  2  0
  4  5  1  0
  4  6  1  0
  6  7  1  0
  7  8  1  0
  8  9  2  0
  9 10  1  0
 10 11  2  0
 11 12  1  0
 12 13  2  0
 13 14  1  0
 14 15  1  0
 14 16  2  0
 13 17  1  0
 17 18  1  0
 18 19  2  0
 18 20  1  0
 20 21  1  0
 21 22  1  0
 22 23  2  0
 22 24  1  0
 17 25  1  0
 25 26  2  0
  6 27  1  0
 27  2  2  0
 26  8  1  0
 25 11  1  0
  1 28  1  0
  1 29  1  0
  1 30  1  0
  3 31  1  0
  7 32  1  0
  7 33  1  0
  9 34  1  0
 10 35  1  0
 12 36  1  0
 15 37  1  0
 15 38  1  0
 21 39  1  0
 21 40  1  0
 26 41  1  0
M  CHG  1  24  -1
M  END
>  <UniqueID>  (31) 
31

>  <SMILES>  (31) 
Cc1cc(F)n(Cc2ccc3cc(C(N)=O)n(C(=O)OCC(=O)[O-])c3c2)n1

>  <Energy>  (31) 
106.51169434221919

>  <Genealogy>  (31) 
Cc1cc(F)n(Cc2ccc3cc(C(N)=O)n(C(=O)OCC(=O)[O-])c3c2)n1 (protonated)
Cc1cc(F)n(Cc2ccc3cc(C(N)=O)n(C(=O)OCC(=O)[O-])c3c2)n1 (3D coordinates assigned)
Cc1cc(F)n(Cc2ccc3cc(C(N)=O)n(C(=O)OCC(=O)[O-])c3c2)n1 (optimized conformer: 106.51169434221919 kcal/mol)

>  <smiles>  (31) 
Cc1cc(F)n(Cc2ccc3cc(C(N)=O)n(C(=O)OCC(=O)O)c3c2)n1

>  <score_type>  (31) 
oracle

>  <origin>  (31) 
adg

>  <m_score__min__energy>  (31) 
-8.3399999999999999

>  <m_primary>  (31) 
energy

$$$$
31:0
     RDKit          3D

 36 38  0  0  0  0  0  0  0  0999 V2000
  142.9830  161.2440  133.7250 N   0  0  0  0  0  0  0  0  0  0  0  0
  144.3840  161.4190  133.9170 C   0  0  0  0  0  0  0  0  0  0  0  0
  144.8230  162.5460  134.2630 O   0  0  0  0  0  0  0  0  0  0  0  0
  145.3060  160.2890  133.6680 C   0  0  0  0  0  0  0  0  0  0  0  0
  146.6490  160.4580  133.3390 C   0  0  0  0  0  0  0  0  0  0  0  0
  147.1730  159.1890  133.2760 C   0  0  0  0  0  0  0  0  0  0  0  0
  148.4690  158.7710  132.9900 C   0  0  0  0  0  0  0  0  0  0  0  0
  148.7270  157.3900  132.9730 C   0  0  0  0  0  0  0  0  0  0  0  0
  147.6880  156.4540  133.2160 C   0  0  0  0  0  0  0  0  0  0  0  0
  147.9850  154.9760  133.2330 C   0  0  0  0  0  0  0  0  0  0  0  0
  146.9570  154.2990  132.6040 F   0  0  0  0  0  0  0  0  0  0  0  0
  149.1720  154.7100  132.5710 F   0  0  0  0  0  0  0  0  0  0  0  0
  148.1020  154.5150  134.5330 F   0  0  0  0  0  0  0  0  0  0  0  0
  146.3890  156.9210  133.5270 C   0  0  0  0  0  0  0  0  0  0  0  0
  146.1650  158.3040  133.5550 C   0  0  0  0  0  0  0  0  0  0  0  0
  145.0090  158.9630  133.7970 N   0  0  0  0  0  0  0  0  0  0  0  0
  143.7340  158.3650  134.0800 C   0  0  0  0  0  0  0  0  0  0  0  0
  142.9880  158.8590  134.9700 O   0  0  0  0  0  0  0  0  0  0  0  0
  143.3100  157.2530  133.3410 O   0  0  0  0  0  0  0  0  0  0  0  0
  142.0340  156.6340  133.5010 C   0  0  0  0  0  0  0  0  0  0  0  0
  140.9360  157.4220  132.7730 C   0  0  1  0  0  0  0  0  0  0  0  0
  139.6320  157.5580  133.6110 C   0  0  0  0  0  0  0  0  0  0  0  0
  139.4160  158.9590  133.7210 O   0  0  0  0  0  0  0  0  0  0  0  0
  140.4340  159.6190  133.0760 C   0  0  0  0  0  0  0  0  0  0  0  0
  140.5160  160.8720  132.9980 O   0  0  0  0  0  0  0  0  0  0  0  0
  141.3510  158.7580  132.5210 O   0  0  0  0  0  0  0  0  0  0  0  0
  142.5940  160.3250  133.4190 H   0  0  0  0  0  0  0  0  0  0  0  0
  147.1783  161.4067  133.1662 H   0  0  0  0  0  0  0  0  0  0  0  0
  149.2670  159.4994  132.7836 H   0  0  0  0  0  0  0  0  0  0  0  0
  149.7462  157.0299  132.7690 H   0  0  0  0  0  0  0  0  0  0  0  0
  145.5737  156.2146  133.7419 H   0  0  0  0  0  0  0  0  0  0  0  0
  142.0762  155.6147  133.0895 H   0  0  0  0  0  0  0  0  0  0  0  0
  141.7915  156.6112  134.5737 H   0  0  0  0  0  0  0  0  0  0  0  0
  140.7491  156.8541  131.8497 H   0  0  0  0  0  0  0  0  0  0  0  0
  138.7884  157.0750  133.0962 H   0  0  0  0  0  0  0  0  0  0  0  0
  139.7175  157.0724  134.5943 H   0  0  0  0  0  0  0  0  0  0  0  0
  1  2  1  0
  2  3  2  0
  2  4  1  0
  4  5  2  0
  5  6  1  0
  6  7  2  0
  7  8  1  0
  8  9  2  0
  9 10  1  0
 10 11  1  0
 10 12  1  0
 10 13  1  0
  9 14  1  0
 14 15  2  0
 15 16  1  0
 16 17  1  0
 17 18  2  0
 17 19  1  0
 19 20  1  0
 20 21  1  0
 21 22  1  0
 22 23  1  0
 23 24  1  0
 24 25  2  0
 24 26  1  0
 16  4  1  0
 26 21  1  0
 15  6  1  0
  1 27  1  0
  5 28  1  0
  7 29  1  0
  8 30  1  0
 14 31  1  0
 20 32  1  0
 20 33  1  0
 21 34  1  6
 22 35  1  0
 22 36  1  0
M  CHG  1   1  -1
M  END
>  <UniqueID>  (32) 
32

>  <SMILES>  (32) 
[NH-]C(=O)c1cc2ccc(C(F)(F)F)cc2n1C(=O)OC[C@H]1COC(=O)O1

>  <Energy>  (32) 
90.46256190905144

>  <Genealogy>  (32) 
[NH-]C(=O)c1cc2ccc(C(F)(F)F)cc2n1C(=O)OC[C@H]1COC(=O)O1 (protonated)
[NH-]C(=O)c1cc2ccc(C(F)(F)F)cc2n1C(=O)OC[C@H]1COC(=O)O1 (3D coordinates assigned)
[NH-]C(=O)c1cc2ccc(C(F)(F)F)cc2n1C(=O)OC[C@H]1COC(=O)O1 (nonaromatic ring conformer: 90.46256190905144 kcal/mol)

>  <smiles>  (32) 
NC(=O)c1cc2ccc(C(F)(F)F)cc2n1C(=O)OC[C@H]1COC(=O)O1

>  <score_type>  (32) 
oracle

>  <origin>  (32) 
adg

>  <m_score__min__energy>  (32) 
-5.71

>  <m_primary>  (32) 
energy

$$$$
32:0
     RDKit          3D

 42 43  0  0  0  0  0  0  0  0999 V2000
  149.6060  161.1960  129.7770 C   0  0  0  0  0  0  0  0  0  0  0  0
  149.2040  159.7260  129.8920 C   0  0  0  0  0  0  0  0  0  0  0  0
  149.5160  159.1390  131.2770 C   0  0  0  0  0  0  0  0  0  0  0  0
  148.5710  159.6360  132.3400 C   0  0  0  0  0  0  0  0  0  0  0  0
  148.1040  160.8050  132.2550 O   0  0  0  0  0  0  0  0  0  0  0  0
  148.1830  158.7750  133.4780 C   0  0  0  0  0  0  0  0  0  0  0  0
  148.7930  158.8690  134.5780 O   0  0  0  0  0  0  0  0  0  0  0  0
  147.1100  157.8310  133.3500 N   0  0  0  0  0  0  0  0  0  0  0  0
  145.7690  158.0520  133.4600 C   0  0  0  0  0  0  0  0  0  0  0  0
  145.1120  159.3640  133.6550 C   0  0  0  0  0  0  0  0  0  0  0  0
  145.5800  160.5440  133.0020 N   0  0  0  0  0  0  0  0  0  0  0  0
  144.0850  159.4360  134.3830 O   0  0  0  0  0  0  0  0  0  0  0  0
  145.0660  156.8540  133.3280 C   0  0  0  0  0  0  0  0  0  0  0  0
  146.0260  155.8900  133.1180 C   0  0  0  0  0  0  0  0  0  0  0  0
  145.8930  154.5190  132.9140 C   0  0  0  0  0  0  0  0  0  0  0  0
  147.0650  153.7630  132.7390 C   0  0  0  0  0  0  0  0  0  0  0  0
  148.3410  154.3840  132.7860 C   0  0  0  0  0  0  0  0  0  0  0  0
  149.5890  153.5680  132.5860 C   0  0  0  0  0  0  0  0  0  0  0  0
  149.4420  152.2270  133.2350 C   0  0  0  0  0  0  0  0  0  0  0  0
  149.2150  152.1520  134.4750 O   0  0  0  0  0  0  0  0  0  0  0  0
  149.5240  151.0690  132.4540 O   0  0  0  0  0  0  0  0  0  0  0  0
  149.9190  151.0930  131.0880 C   0  0  0  0  0  0  0  0  0  0  0  0
  148.4340  155.7800  132.9810 C   0  0  0  0  0  0  0  0  0  0  0  0
  147.2500  156.5070  133.1400 C   0  0  0  0  0  0  0  0  0  0  0  0
  149.7230  161.6239  130.7836 H   0  0  0  0  0  0  0  0  0  0  0  0
  150.5585  161.2741  129.2323 H   0  0  0  0  0  0  0  0  0  0  0  0
  148.8258  161.7480  129.2323 H   0  0  0  0  0  0  0  0  0  0  0  0
  148.1230  159.6401  129.7075 H   0  0  0  0  0  0  0  0  0  0  0  0
  149.7863  159.1605  129.1496 H   0  0  0  0  0  0  0  0  0  0  0  0
  149.4394  158.0431  131.2212 H   0  0  0  0  0  0  0  0  0  0  0  0
  150.5308  159.4596  131.5552 H   0  0  0  0  0  0  0  0  0  0  0  0
  145.1640  161.4710  133.2400 H   0  0  0  0  0  0  0  0  0  0  0  0
  146.2540  160.4910  132.2090 H   0  0  0  0  0  0  0  0  0  0  0  0
  143.9767  156.7104  133.3806 H   0  0  0  0  0  0  0  0  0  0  0  0
  144.9018  154.0425  132.8905 H   0  0  0  0  0  0  0  0  0  0  0  0
  146.9929  152.6794  132.5639 H   0  0  0  0  0  0  0  0  0  0  0  0
  149.7653  153.4325  131.5087 H   0  0  0  0  0  0  0  0  0  0  0  0
  150.4389  154.0958  133.0432 H   0  0  0  0  0  0  0  0  0  0  0  0
  151.0151  151.1596  131.0244 H   0  0  0  0  0  0  0  0  0  0  0  0
  149.5782  150.1725  130.5915 H   0  0  0  0  0  0  0  0  0  0  0  0
  149.4692  151.9655  130.5915 H   0  0  0  0  0  0  0  0  0  0  0  0
  149.4123  156.2822  133.0071 H   0  0  0  0  0  0  0  0  0  0  0  0
  1  2  1  0
  2  3  1  0
  3  4  1  0
  4  5  2  0
  4  6  1  0
  6  7  2  0
  6  8  1  0
  8  9  1  0
  9 10  1  0
 10 11  1  0
 10 12  2  0
  9 13  2  0
 13 14  1  0
 14 15  2  0
 15 16  1  0
 16 17  2  0
 17 18  1  0
 18 19  1  0
 19 20  2  0
 19 21  1  0
 21 22  1  0
 17 23  1  0
 23 24  2  0
 24  8  1  0
 24 14  1  0
  1 25  1  0
  1 26  1  0
  1 27  1  0
  2 28  1  0
  2 29  1  0
  3 30  1  0
  3 31  1  0
 11 32  1  0
 11 33  1  0
 13 34  1  0
 15 35  1  0
 16 36  1  0
 18 37  1  0
 18 38  1  0
 22 39  1  0
 22 40  1  0
 22 41  1  0
 23 42  1  0
M  END
>  <UniqueID>  (33) 
33

>  <SMILES>  (33) 
CCCC(=O)C(=O)n1c(C(N)=O)cc2ccc(CC(=O)OC)cc21

>  <Energy>  (33) 
72.95250135667197

>  <Genealogy>  (33) 
CCCC(=O)C(=O)n1c(C(N)=O)cc2ccc(CC(=O)OC)cc21 (3D coordinates assigned)
CCCC(=O)C(=O)n1c(C(N)=O)cc2ccc(CC(=O)OC)cc21 (optimized conformer: 72.95250135667197 kcal/mol)

>  <smiles>  (33) 
CCCC(=O)C(=O)n1c(C(N)=O)cc2ccc(CC(=O)OC)cc21

>  <score_type>  (33) 
oracle

>  <origin>  (33) 
adg

>  <m_score__min__energy>  (33) 
-7.5700000000000003

>  <m_primary>  (33) 
energy

$$$$
33:0
     RDKit          3D

 57 59  0  0  0  0  0  0  0  0999 V2000
  143.8650  161.1410  133.7350 C   0  0  0  0  0  0  0  0  0  0  0  0
  145.2130  160.8480  133.2420 N   0  0  0  0  0  0  0  0  0  0  0  0
  145.6740  159.5410  133.7330 C   0  0  0  0  0  0  0  0  0  0  0  0
  146.8040  158.9910  132.8920 C   0  0  0  0  0  0  0  0  0  0  0  0
  147.1910  159.6380  131.8800 O   0  0  0  0  0  0  0  0  0  0  0  0
  147.4740  157.7630  133.2480 N   0  0  0  0  0  0  0  0  0  0  0  0
  147.3270  157.1200  134.5450 C   0  0  0  0  0  0  0  0  0  0  0  0
  146.3900  155.9220  134.4170 C   0  0  0  0  0  0  0  0  0  0  0  0
  146.5090  155.1700  133.1410 N   0  0  0  0  0  0  0  0  0  0  0  0
  145.7090  153.9560  132.9710 C   0  0  0  0  0  0  0  0  0  0  0  0
  146.3210  152.7120  132.6190 C   0  0  0  0  0  0  0  0  0  0  0  0
  145.5630  151.5450  132.4460 C   0  0  0  0  0  0  0  0  0  0  0  0
  144.1930  151.6200  132.6420 C   0  0  0  0  0  0  0  0  0  0  0  0
  143.2290  150.6460  132.5210 C   0  0  0  0  0  0  0  0  0  0  0  0
  142.0270  151.2760  132.8310 C   0  0  0  0  0  0  0  0  0  0  0  0
  140.7330  150.5660  132.9010 C   0  0  0  0  0  0  0  0  0  0  0  0
  139.6870  150.9130  131.9970 N   0  0  0  0  0  0  0  0  0  0  0  0
  140.5510  149.6350  133.7280 O   0  0  0  0  0  0  0  0  0  0  0  0
  142.2380  152.5910  133.1260 N   0  0  0  0  0  0  0  0  0  0  0  0
  141.2480  153.5860  133.4340 C   0  0  0  0  0  0  0  0  0  0  0  0
  140.1950  153.6650  132.7440 O   0  0  0  0  0  0  0  0  0  0  0  0
  141.4600  154.4710  134.4960 O   0  0  0  0  0  0  0  0  0  0  0  0
  141.4650  155.8850  134.3360 C   0  0  0  0  0  0  0  0  0  0  0  0
  142.7000  156.4750  135.0100 C   0  0  0  0  0  0  0  0  0  0  0  0
  143.5330  157.0900  134.0430 O   0  0  0  0  0  0  0  0  0  0  0  0
  142.9020  157.1040  132.7810 C   0  0  0  0  0  0  0  0  0  0  0  0
  143.5730  152.7840  133.0050 C   0  0  0  0  0  0  0  0  0  0  0  0
  144.2970  153.9720  133.1600 C   0  0  0  0  0  0  0  0  0  0  0  0
  147.2710  155.6870  131.9730 C   0  0  0  0  0  0  0  0  0  0  0  0
  148.1200  156.9320  132.2440 C   0  0  0  0  0  0  0  0  0  0  0  0
  143.8687  161.1402  134.8350 H   0  0  0  0  0  0  0  0  0  0  0  0
  143.5478  162.1291  133.3701 H   0  0  0  0  0  0  0  0  0  0  0  0
  143.1663  160.3738  133.3701 H   0  0  0  0  0  0  0  0  0  0  0  0
  145.1960  160.8500  132.1930 H   0  0  0  0  0  0  0  0  0  0  0  0
  145.8610  161.5980  133.5810 H   0  0  0  0  0  0  0  0  0  0  0  0
  146.0241  159.6536  134.7697 H   0  0  0  0  0  0  0  0  0  0  0  0
  144.8306  158.8372  133.6743 H   0  0  0  0  0  0  0  0  0  0  0  0
  148.3113  156.7792  134.8987 H   0  0  0  0  0  0  0  0  0  0  0  0
  146.9067  157.8383  135.2643 H   0  0  0  0  0  0  0  0  0  0  0  0
  146.6058  155.2292  135.2437 H   0  0  0  0  0  0  0  0  0  0  0  0
  145.3670  156.3254  134.4439 H   0  0  0  0  0  0  0  0  0  0  0  0
  147.4115  152.6698  132.4808 H   0  0  0  0  0  0  0  0  0  0  0  0
  146.0424  150.5964  132.1626 H   0  0  0  0  0  0  0  0  0  0  0  0
  143.3767  149.5930  132.2391 H   0  0  0  0  0  0  0  0  0  0  0  0
  139.5600  151.9000  131.6780 H   0  0  0  0  0  0  0  0  0  0  0  0
  141.4806  156.1315  133.2641 H   0  0  0  0  0  0  0  0  0  0  0  0
  140.5609  156.3070  134.7992 H   0  0  0  0  0  0  0  0  0  0  0  0
  142.3870  157.2252  135.7511 H   0  0  0  0  0  0  0  0  0  0  0  0
  143.2591  155.6691  135.5079 H   0  0  0  0  0  0  0  0  0  0  0  0
  141.8107  157.1282  132.9170 H   0  0  0  0  0  0  0  0  0  0  0  0
  143.2216  157.9953  132.2211 H   0  0  0  0  0  0  0  0  0  0  0  0
  143.1817  156.1994  132.2211 H   0  0  0  0  0  0  0  0  0  0  0  0
  143.7817  154.9071  133.4247 H   0  0  0  0  0  0  0  0  0  0  0  0
  147.9416  154.8879  131.6242 H   0  0  0  0  0  0  0  0  0  0  0  0
  146.5191  155.9880  131.2287 H   0  0  0  0  0  0  0  0  0  0  0  0
  149.1117  156.6251  132.6077 H   0  0  0  0  0  0  0  0  0  0  0  0
  148.2271  157.5070  131.3124 H   0  0  0  0  0  0  0  0  0  0  0  0
  1  2  1  0
  2  3  1  0
  3  4  1  0
  4  5  2  0
  4  6  1  0
  6  7  1  0
  7  8  1  0
  8  9  1  0
  9 10  1  0
 10 11  2  0
 11 12  1  0
 12 13  2  0
 13 14  1  0
 14 15  2  0
 15 16  1  0
 16 17  1  0
 16 18  2  0
 15 19  1  0
 19 20  1  0
 20 21  2  0
 20 22  1  0
 22 23  1  0
 23 24  1  0
 24 25  1  0
 25 26  1  0
 19 27  1  0
 27 28  2  0
  9 29  1  0
 29 30  1  0
 30  6  1  0
 28 10  1  0
 27 13  1  0
  1 31  1  0
  1 32  1  0
  1 33  1  0
  2 34  1  0
  2 35  1  0
  3 36  1  0
  3 37  1  0
  7 38  1  0
  7 39  1  0
  8 40  1  0
  8 41  1  0
 11 42  1  0
 12 43  1  0
 14 44  1  0
 17 45  1  0
 23 46  1  0
 23 47  1  0
 24 48  1  0
 24 49  1  0
 26 50  1  0
 26 51  1  0
 26 52  1  0
 28 53  1  0
 29 54  1  0
 29 55  1  0
 30 56  1  0
 30 57  1  0
M  CHG  2   2   1  17  -1
M  END
>  <UniqueID>  (34) 
34

>  <SMILES>  (34) 
C[NH2+]CC(=O)N1CCN(c2ccc3cc(C([NH-])=O)n(C(=O)OCCOC)c3c2)CC1

>  <Energy>  (34) 
103.274898312123

>  <Genealogy>  (34) 
C[NH2+]CC(=O)N1CCN(c2ccc3cc(C([NH-])=O)n(C(=O)OCCOC)c3c2)CC1 (protonated)
C[NH2+]CC(=O)N1CCN(c2ccc3cc(C([NH-])=O)n(C(=O)OCCOC)c3c2)CC1 (3D coordinates assigned)
C[NH2+]CC(=O)N1CCN(c2ccc3cc(C([NH-])=O)n(C(=O)OCCOC)c3c2)CC1 (nonaromatic ring conformer: 103.274898312123 kcal/mol)

>  <smiles>  (34) 
CNCC(=O)N1CCN(c2ccc3cc(C(N)=O)n(C(=O)OCCOC)c3c2)CC1

>  <score_type>  (34) 
oracle

>  <origin>  (34) 
adg

>  <m_score__min__energy>  (34) 
-6.9199999999999999

>  <m_primary>  (34) 
energy

$$$$
34:0
     RDKit          3D

 34 36  0  0  0  0  0  0  0  0999 V2000
  148.8140  157.4570  132.8640 N   0  0  0  0  0  0  0  0  0  0  0  0
  147.9570  157.2410  133.9870 C   0  0  0  0  0  0  0  0  0  0  0  0
  148.4670  157.1040  135.1310 O   0  0  0  0  0  0  0  0  0  0  0  0
  146.4920  157.1410  133.8110 C   0  0  0  0  0  0  0  0  0  0  0  0
  145.7320  156.0480  134.2210 C   0  0  0  0  0  0  0  0  0  0  0  0
  144.4260  156.3940  133.9630 C   0  0  0  0  0  0  0  0  0  0  0  0
  143.2530  155.6730  134.1660 C   0  0  0  0  0  0  0  0  0  0  0  0
  142.0390  156.2640  133.7800 C   0  0  0  0  0  0  0  0  0  0  0  0
  142.0150  157.5580  133.1930 C   0  0  0  0  0  0  0  0  0  0  0  0
  140.7370  158.1750  132.7740 C   0  0  0  0  0  0  0  0  0  0  0  0
  140.6450  159.4150  132.2390 N   0  0  0  0  0  0  0  0  0  0  0  0
  139.3640  159.7540  131.9380 C   0  0  0  0  0  0  0  0  0  0  0  0
  138.4110  158.7870  132.2300 C   0  0  0  0  0  0  0  0  0  0  0  0
  139.2110  157.4640  132.8870 S   0  0  0  0  0  0  0  0  0  0  0  0
  143.2310  158.2570  133.0050 C   0  0  0  0  0  0  0  0  0  0  0  0
  144.4230  157.6500  133.4180 C   0  0  0  0  0  0  0  0  0  0  0  0
  145.6850  158.1240  133.3170 N   0  0  0  0  0  0  0  0  0  0  0  0
  146.0900  159.3720  132.7320 C   0  0  0  0  0  0  0  0  0  0  0  0
  145.4420  160.4240  132.9820 O   0  0  0  0  0  0  0  0  0  0  0  0
  147.1990  159.4110  131.8770 O   0  0  0  0  0  0  0  0  0  0  0  0
  148.1480  160.4740  131.8740 C   0  0  0  0  0  0  0  0  0  0  0  0
  149.3710  160.0790  131.1100 C   0  0  0  0  0  0  0  0  0  0  0  0
  150.0110  159.0440  131.4350 O   0  0  0  0  0  0  0  0  0  0  0  0
  149.7890  160.8350  130.0230 O   0  0  0  0  0  0  0  0  0  0  0  0
  149.8490  157.4870  132.9950 H   0  0  0  0  0  0  0  0  0  0  0  0
  148.4270  157.6290  131.9110 H   0  0  0  0  0  0  0  0  0  0  0  0
  146.0985  155.1076  134.6583 H   0  0  0  0  0  0  0  0  0  0  0  0
  143.2762  154.6694  134.6157 H   0  0  0  0  0  0  0  0  0  0  0  0
  141.0959  155.7191  133.9338 H   0  0  0  0  0  0  0  0  0  0  0  0
  139.1006  160.7255  131.4945 H   0  0  0  0  0  0  0  0  0  0  0  0
  137.3273  158.8721  132.0614 H   0  0  0  0  0  0  0  0  0  0  0  0
  143.2394  159.2558  132.5443 H   0  0  0  0  0  0  0  0  0  0  0  0
  147.6976  161.3606  131.4038 H   0  0  0  0  0  0  0  0  0  0  0  0
  148.4334  160.7003  132.9119 H   0  0  0  0  0  0  0  0  0  0  0  0
  1  2  1  0
  2  3  2  0
  2  4  1  0
  4  5  2  0
  5  6  1  0
  6  7  2  0
  7  8  1  0
  8  9  2  0
  9 10  1  0
 10 11  2  0
 11 12  1  0
 12 13  2  0
 13 14  1  0
  9 15  1  0
 15 16  2  0
 16 17  1  0
 17 18  1  0
 18 19  2  0
 18 20  1  0
 20 21  1  0
 21 22  1  0
 22 23  2  0
 22 24  1  0
 17  4  1  0
 16  6  1  0
 14 10  1  0
  1 25  1  0
  1 26  1  0
  5 27  1  0
  7 28  1  0
  8 29  1  0
 12 30  1  0
 13 31  1  0
 15 32  1  0
 21 33  1  0
 21 34  1  0
M  CHG  1  24  -1
M  END
>  <UniqueID>  (35) 
35

>  <SMILES>  (35) 
NC(=O)c1cc2ccc(-c3nccs3)cc2n1C(=O)OCC(=O)[O-]

>  <Energy>  (35) 
103.54380109997811

>  <Genealogy>  (35) 
NC(=O)c1cc2ccc(-c3nccs3)cc2n1C(=O)OCC(=O)[O-] (protonated)
NC(=O)c1cc2ccc(-c3nccs3)cc2n1C(=O)OCC(=O)[O-] (3D coordinates assigned)
NC(=O)c1cc2ccc(-c3nccs3)cc2n1C(=O)OCC(=O)[O-] (optimized conformer: 103.54380109997811 kcal/mol)

>  <smiles>  (35) 
NC(=O)c1cc2ccc(-c3nccs3)cc2n1C(=O)OCC(=O)O

>  <score_type>  (35) 
oracle

>  <origin>  (35) 
adg

>  <m_score__min__energy>  (35) 
-7.6699999999999999

>  <m_primary>  (35) 
energy

$$$$
35:0
     RDKit          3D

 37 38  0  0  0  0  0  0  0  0999 V2000
  140.6890  157.4650  133.2050 C   0  0  0  0  0  0  0  0  0  0  0  0
  140.8240  158.8950  133.7280 C   0  0  0  0  0  0  0  0  0  0  0  0
  140.2480  158.9710  134.9880 F   0  0  0  0  0  0  0  0  0  0  0  0
  140.1300  159.7530  132.8890 F   0  0  0  0  0  0  0  0  0  0  0  0
  142.2820  159.2930  133.7820 C   0  0  0  0  0  0  0  0  0  0  0  0
  142.6400  160.6660  133.7990 C   0  0  0  0  0  0  0  0  0  0  0  0
  143.9890  161.0570  133.7700 C   0  0  0  0  0  0  0  0  0  0  0  0
  144.9580  160.0590  133.7200 C   0  0  0  0  0  0  0  0  0  0  0  0
  146.3290  160.1560  133.6250 C   0  0  0  0  0  0  0  0  0  0  0  0
  146.7900  158.8420  133.5550 C   0  0  0  0  0  0  0  0  0  0  0  0
  148.2160  158.4550  133.4610 C   0  0  0  0  0  0  0  0  0  0  0  0
  148.6040  157.0800  133.4390 N   0  0  0  0  0  0  0  0  0  0  0  0
  149.1070  159.3410  133.3910 O   0  0  0  0  0  0  0  0  0  0  0  0
  145.7450  157.9720  133.6180 N   0  0  0  0  0  0  0  0  0  0  0  0
  145.7980  156.5380  133.5360 C   0  0  0  0  0  0  0  0  0  0  0  0
  146.0270  155.9860  132.4260 O   0  0  0  0  0  0  0  0  0  0  0  0
  145.6170  155.7090  134.7370 C   0  0  0  0  0  0  0  0  0  0  0  0
  144.4650  155.3050  135.0540 O   0  0  0  0  0  0  0  0  0  0  0  0
  146.7240  155.4010  135.5350 O   0  0  0  0  0  0  0  0  0  0  0  0
  147.6910  154.4240  135.1680 C   0  0  0  0  0  0  0  0  0  0  0  0
  147.5980  154.1600  133.7710 O   0  0  0  0  0  0  0  0  0  0  0  0
  148.7230  153.9330  132.9760 C   0  0  0  0  0  0  0  0  0  0  0  0
  149.4040  154.8910  132.5250 O   0  0  0  0  0  0  0  0  0  0  0  0
  144.6320  158.7290  133.7080 C   0  0  0  0  0  0  0  0  0  0  0  0
  143.2980  158.3080  133.7170 C   0  0  0  0  0  0  0  0  0  0  0  0
  140.6233  156.7687  134.0541 H   0  0  0  0  0  0  0  0  0  0  0  0
  139.7791  157.3830  132.5923 H   0  0  0  0  0  0  0  0  0  0  0  0
  141.5675  157.2142  132.5923 H   0  0  0  0  0  0  0  0  0  0  0  0
  141.8523  161.4329  133.8353 H   0  0  0  0  0  0  0  0  0  0  0  0
  144.2711  162.1201  133.7863 H   0  0  0  0  0  0  0  0  0  0  0  0
  146.9323  161.0756  133.6080 H   0  0  0  0  0  0  0  0  0  0  0  0
  147.9050  156.3110  133.5480 H   0  0  0  0  0  0  0  0  0  0  0  0
  149.6150  156.8230  133.3780 H   0  0  0  0  0  0  0  0  0  0  0  0
  148.6979  154.7992  135.4033 H   0  0  0  0  0  0  0  0  0  0  0  0
  147.5033  153.4961  135.7282 H   0  0  0  0  0  0  0  0  0  0  0  0
  149.0192  152.9003  132.7398 H   0  0  0  0  0  0  0  0  0  0  0  0
  143.0442  157.2385  133.6746 H   0  0  0  0  0  0  0  0  0  0  0  0
  1  2  1  0
  2  3  1  0
  2  4  1  0
  2  5  1  0
  5  6  2  0
  6  7  1  0
  7  8  2  0
  8  9  1  0
  9 10  2  0
 10 11  1  0
 11 12  1  0
 11 13  2  0
 10 14  1  0
 14 15  1  0
 15 16  2  0
 15 17  1  0
 17 18  2  0
 17 19  1  0
 19 20  1  0
 20 21  1  0
 21 22  1  0
 22 23  2  0
 14 24  1  0
 24 25  2  0
 25  5  1  0
 24  8  1  0
  1 26  1  0
  1 27  1  0
  1 28  1  0
  6 29  1  0
  7 30  1  0
  9 31  1  0
 12 32  1  0
 12 33  1  0
 20 34  1  0
 20 35  1  0
 22 36  1  0
 25 37  1  0
M  END
>  <UniqueID>  (36) 
36

>  <SMILES>  (36) 
CC(F)(F)c1ccc2cc(C(N)=O)n(C(=O)C(=O)OCOC=O)c2c1

>  <Energy>  (36) 
70.87927825867338

>  <Genealogy>  (36) 
CC(F)(F)c1ccc2cc(C(N)=O)n(C(=O)C(=O)OCOC=O)c2c1 (3D coordinates assigned)
CC(F)(F)c1ccc2cc(C(N)=O)n(C(=O)C(=O)OCOC=O)c2c1 (optimized conformer: 70.87927825867338 kcal/mol)

>  <smiles>  (36) 
CC(F)(F)c1ccc2cc(C(N)=O)n(C(=O)C(=O)OCOC=O)c2c1

>  <score_type>  (36) 
oracle

>  <origin>  (36) 
adg

>  <m_score__min__energy>  (36) 
-4.9500000000000002

>  <m_primary>  (36) 
energy

$$$$
36:0
     RDKit          3D

 29 30  0  0  0  0  0  0  0  0999 V2000
  146.3150  160.9030  133.6610 N   0  0  0  0  0  0  0  0  0  0  0  0
  145.4370  159.8040  133.4320 C   0  0  0  0  0  0  0  0  0  0  0  0
  144.2070  160.0240  133.2660 O   0  0  0  0  0  0  0  0  0  0  0  0
  145.9510  158.4200  133.3530 C   0  0  0  0  0  0  0  0  0  0  0  0
  145.1600  157.2900  133.5610 C   0  0  0  0  0  0  0  0  0  0  0  0
  145.9940  156.2170  133.3480 C   0  0  0  0  0  0  0  0  0  0  0  0
  145.7350  154.8520  133.4230 C   0  0  0  0  0  0  0  0  0  0  0  0
  146.7960  153.9650  133.1730 C   0  0  0  0  0  0  0  0  0  0  0  0
  148.0970  154.4540  132.8810 C   0  0  0  0  0  0  0  0  0  0  0  0
  149.2180  153.4940  132.5770 C   0  0  0  0  0  0  0  0  0  0  0  0
  150.3580  154.2100  132.2670 F   0  0  0  0  0  0  0  0  0  0  0  0
  149.4770  152.6820  133.6680 F   0  0  0  0  0  0  0  0  0  0  0  0
  148.8890  152.6830  131.5030 F   0  0  0  0  0  0  0  0  0  0  0  0
  148.3120  155.8490  132.7930 C   0  0  0  0  0  0  0  0  0  0  0  0
  147.2320  156.7060  133.0290 C   0  0  0  0  0  0  0  0  0  0  0  0
  147.2220  158.0560  133.0240 N   0  0  0  0  0  0  0  0  0  0  0  0
  148.3460  158.9170  132.7900 C   0  0  0  0  0  0  0  0  0  0  0  0
  148.6750  159.7630  133.6660 O   0  0  0  0  0  0  0  0  0  0  0  0
  149.0680  158.8840  131.4740 C   0  0  0  0  0  0  0  0  0  0  0  0
  149.2080  160.2590  130.8990 C   0  0  0  0  0  0  0  0  0  0  0  0
  148.4860  161.2000  131.3190 O   0  0  0  0  0  0  0  0  0  0  0  0
  150.1190  160.4950  129.8780 O   0  0  0  0  0  0  0  0  0  0  0  0
  147.0720  161.1370  132.9800 H   0  0  0  0  0  0  0  0  0  0  0  0
  144.0955  157.2627  133.8368 H   0  0  0  0  0  0  0  0  0  0  0  0
  144.7304  154.4785  133.6704 H   0  0  0  0  0  0  0  0  0  0  0  0
  146.6169  152.8801  133.2038 H   0  0  0  0  0  0  0  0  0  0  0  0
  149.3054  156.2508  132.5447 H   0  0  0  0  0  0  0  0  0  0  0  0
  150.0694  158.4544  131.6247 H   0  0  0  0  0  0  0  0  0  0  0  0
  148.4846  158.2704  130.7718 H   0  0  0  0  0  0  0  0  0  0  0  0
  1  2  1  0
  2  3  2  0
  2  4  1  0
  4  5  2  0
  5  6  1  0
  6  7  2  0
  7  8  1  0
  8  9  2  0
  9 10  1  0
 10 11  1  0
 10 12  1  0
 10 13  1  0
  9 14  1  0
 14 15  2  0
 15 16  1  0
 16 17  1  0
 17 18  2  0
 17 19  1  0
 19 20  1  0
 20 21  2  0
 20 22  1  0
 16  4  1  0
 15  6  1  0
  1 23  1  0
  5 24  1  0
  7 25  1  0
  8 26  1  0
 14 27  1  0
 19 28  1  0
 19 29  1  0
M  CHG  2   1  -1  22  -1
M  END
>  <UniqueID>  (37) 
37

>  <SMILES>  (37) 
[NH-]C(=O)c1cc2ccc(C(F)(F)F)cc2n1C(=O)CC(=O)[O-]

>  <Energy>  (37) 
68.70746361610014

>  <Genealogy>  (37) 
[NH-]C(=O)c1cc2ccc(C(F)(F)F)cc2n1C(=O)CC(=O)[O-] (protonated)
[NH-]C(=O)c1cc2ccc(C(F)(F)F)cc2n1C(=O)CC(=O)[O-] (3D coordinates assigned)
[NH-]C(=O)c1cc2ccc(C(F)(F)F)cc2n1C(=O)CC(=O)[O-] (optimized conformer: 68.70746361610014 kcal/mol)

>  <smiles>  (37) 
NC(=O)c1cc2ccc(C(F)(F)F)cc2n1C(=O)CC(=O)O

>  <score_type>  (37) 
oracle

>  <origin>  (37) 
adg

>  <m_score__min__energy>  (37) 
-5.6100000000000003

>  <m_primary>  (37) 
energy

$$$$
37:0
     RDKit          3D

 54 56  0  0  0  0  0  0  0  0999 V2000
  141.7460  157.1240  136.4050 C   0  0  0  0  0  0  0  0  0  0  0  0
  140.9830  158.1750  135.7280 N   0  0  0  0  0  0  0  0  0  0  0  0
  139.5220  158.2300  135.8360 C   0  0  0  0  0  0  0  0  0  0  0  0
  141.6820  159.1600  134.9480 C   0  0  0  0  0  0  0  0  0  0  0  0
  141.0350  160.0640  134.3510 O   0  0  0  0  0  0  0  0  0  0  0  0
  143.0800  159.1030  134.8580 O   0  0  0  0  0  0  0  0  0  0  0  0
  143.8040  158.7620  133.7070 C   0  0  0  0  0  0  0  0  0  0  0  0
  143.2610  158.1180  132.7690 O   0  0  0  0  0  0  0  0  0  0  0  0
  145.1770  159.1710  133.5910 N   0  0  0  0  0  0  0  0  0  0  0  0
  145.6760  160.4370  133.6710 C   0  0  0  0  0  0  0  0  0  0  0  0
  144.9250  161.6430  134.0750 C   0  0  0  0  0  0  0  0  0  0  0  0
  143.5460  161.7900  133.7460 N   0  0  0  0  0  0  0  0  0  0  0  0
  145.4930  162.5310  134.7620 O   0  0  0  0  0  0  0  0  0  0  0  0
  147.0420  160.4410  133.3960 C   0  0  0  0  0  0  0  0  0  0  0  0
  147.3690  159.1280  133.1500 C   0  0  0  0  0  0  0  0  0  0  0  0
  148.5950  158.5590  132.8160 C   0  0  0  0  0  0  0  0  0  0  0  0
  148.6370  157.1740  132.5900 C   0  0  0  0  0  0  0  0  0  0  0  0
  147.4620  156.3860  132.6910 C   0  0  0  0  0  0  0  0  0  0  0  0
  147.5190  154.9600  132.4680 N   0  0  0  0  0  0  0  0  0  0  0  0
  147.4460  154.2120  133.7360 C   0  0  0  0  0  0  0  0  0  0  0  0
  148.3580  152.9730  133.7350 C   0  0  0  0  0  0  0  0  0  0  0  0
  148.5760  152.5050  132.3460 N   0  0  0  0  0  0  0  0  0  0  0  0
  147.6460  151.4140  131.9640 C   0  0  0  0  0  0  0  0  0  0  0  0
  148.2390  150.0140  132.2230 C   0  0  0  0  0  0  0  0  0  0  0  0
  149.1920  150.0620  133.2630 O   0  0  0  0  0  0  0  0  0  0  0  0
  150.3330  150.7940  132.8460 C   0  0  0  0  0  0  0  0  0  0  0  0
  149.9770  152.1070  132.1090 C   0  0  0  0  0  0  0  0  0  0  0  0
  146.2360  157.0020  133.0320 C   0  0  0  0  0  0  0  0  0  0  0  0
  146.2270  158.3800  133.2720 C   0  0  0  0  0  0  0  0  0  0  0  0
  141.6554  157.2488  137.4941 H   0  0  0  0  0  0  0  0  0  0  0  0
  141.3510  156.1393  136.1147 H   0  0  0  0  0  0  0  0  0  0  0  0
  142.8046  157.1945  136.1147 H   0  0  0  0  0  0  0  0  0  0  0  0
  139.2329  158.2409  136.8973 H   0  0  0  0  0  0  0  0  0  0  0  0
  139.1522  159.1427  135.3459 H   0  0  0  0  0  0  0  0  0  0  0  0
  139.0846  157.3477  135.3459 H   0  0  0  0  0  0  0  0  0  0  0  0
  142.8900  160.9790  133.8040 H   0  0  0  0  0  0  0  0  0  0  0  0
  147.7160  161.3102  133.3792 H   0  0  0  0  0  0  0  0  0  0  0  0
  149.5023  159.1753  132.7318 H   0  0  0  0  0  0  0  0  0  0  0  0
  149.5925  156.6943  132.3315 H   0  0  0  0  0  0  0  0  0  0  0  0
  148.3890  154.6990  131.9490 H   0  0  0  0  0  0  0  0  0  0  0  0
  146.7080  154.6810  131.8690 H   0  0  0  0  0  0  0  0  0  0  0  0
  147.7527  154.8766  134.5571 H   0  0  0  0  0  0  0  0  0  0  0  0
  146.4094  153.8673  133.8647 H   0  0  0  0  0  0  0  0  0  0  0  0
  149.3261  153.2330  134.1879 H   0  0  0  0  0  0  0  0  0  0  0  0
  147.8780  152.1710  134.3150 H   0  0  0  0  0  0  0  0  0  0  0  0
  146.7203  151.5187  132.5490 H   0  0  0  0  0  0  0  0  0  0  0  0
  147.4544  151.5011  130.8843 H   0  0  0  0  0  0  0  0  0  0  0  0
  147.4293  149.3254  132.5063 H   0  0  0  0  0  0  0  0  0  0  0  0
  148.7336  149.6634  131.3052 H   0  0  0  0  0  0  0  0  0  0  0  0
  150.9329  151.0427  133.7339 H   0  0  0  0  0  0  0  0  0  0  0  0
  150.8875  150.1608  132.1378 H   0  0  0  0  0  0  0  0  0  0  0  0
  150.6404  152.9079  132.4676 H   0  0  0  0  0  0  0  0  0  0  0  0
  150.1074  151.9398  131.0296 H   0  0  0  0  0  0  0  0  0  0  0  0
  145.3109  156.4115  133.1068 H   0  0  0  0  0  0  0  0  0  0  0  0
  1  2  1  0
  2  3  1  0
  2  4  1  0
  4  5  2  0
  4  6  1  0
  6  7  1  0
  7  8  2  0
  7  9  1  0
  9 10  1  0
 10 11  1  0
 11 12  1  0
 11 13  2  0
 10 14  2  0
 14 15  1  0
 15 16  2  0
 16 17  1  0
 17 18  2  0
 18 19  1  0
 19 20  1  0
 20 21  1  0
 21 22  1  0
 22 23  1  0
 23 24  1  0
 24 25  1  0
 25 26  1  0
 26 27  1  0
 18 28  1  0
 28 29  2  0
 29  9  1  0
 29 15  1  0
 27 22  1  0
  1 30  1  0
  1 31  1  0
  1 32  1  0
  3 33  1  0
  3 34  1  0
  3 35  1  0
 12 36  1  0
 14 37  1  0
 16 38  1  0
 17 39  1  0
 19 40  1  0
 19 41  1  0
 20 42  1  0
 20 43  1  0
 21 44  1  0
 21 45  1  0
 23 46  1  0
 23 47  1  0
 24 48  1  0
 24 49  1  0
 26 50  1  0
 26 51  1  0
 27 52  1  0
 27 53  1  0
 28 54  1  0
M  CHG  2  12  -1  19   1
M  END
>  <UniqueID>  (38) 
38

>  <SMILES>  (38) 
CN(C)C(=O)OC(=O)n1c(C([NH-])=O)cc2ccc([NH2+]CCN3CCOCC3)cc21

>  <Energy>  (38) 
102.72981958247097

>  <Genealogy>  (38) 
CN(C)C(=O)OC(=O)n1c(C([NH-])=O)cc2ccc([NH2+]CCN3CCOCC3)cc21 (protonated)
CN(C)C(=O)OC(=O)n1c(C([NH-])=O)cc2ccc([NH2+]CCN3CCOCC3)cc21 (3D coordinates assigned)
CN(C)C(=O)OC(=O)n1c(C([NH-])=O)cc2ccc([NH2+]CCN3CCOCC3)cc21 (nonaromatic ring conformer: 102.72981958247097 kcal/mol)

>  <smiles>  (38) 
CN(C)C(=O)OC(=O)n1c(C(N)=O)cc2ccc(NCCN3CCOCC3)cc21

>  <score_type>  (38) 
oracle

>  <origin>  (38) 
adg

>  <m_score__min__energy>  (38) 
-7.7199999999999998

>  <m_primary>  (38) 
energy

$$$$
38:0
     RDKit          3D

 40 41  0  0  0  0  0  0  0  0999 V2000
  140.7220  159.3790  135.8720 C   0  0  0  0  0  0  0  0  0  0  0  0
  140.9220  158.4530  134.7420 N   0  0  0  0  0  0  0  0  0  0  0  0
  139.8400  158.6450  133.7570 C   0  0  0  0  0  0  0  0  0  0  0  0
  140.9680  157.0570  135.2390 C   0  0  0  0  0  0  0  0  0  0  0  0
  142.3020  156.3460  134.9520 C   0  0  0  0  0  0  0  0  0  0  0  0
  143.3660  157.2900  134.8220 O   0  0  0  0  0  0  0  0  0  0  0  0
  143.7030  157.9290  133.6230 C   0  0  0  0  0  0  0  0  0  0  0  0
  142.9490  157.8420  132.6160 O   0  0  0  0  0  0  0  0  0  0  0  0
  144.9310  158.6690  133.5340 N   0  0  0  0  0  0  0  0  0  0  0  0
  145.0940  160.0230  133.5130 C   0  0  0  0  0  0  0  0  0  0  0  0
  144.0360  161.0320  133.7310 C   0  0  0  0  0  0  0  0  0  0  0  0
  142.6680  160.6490  133.8420 N   0  0  0  0  0  0  0  0  0  0  0  0
  144.3490  162.2440  133.8730 O   0  0  0  0  0  0  0  0  0  0  0  0
  146.4360  160.3490  133.3310 C   0  0  0  0  0  0  0  0  0  0  0  0
  147.0970  159.1450  133.2520 C   0  0  0  0  0  0  0  0  0  0  0  0
  148.4480  158.8790  133.0530 C   0  0  0  0  0  0  0  0  0  0  0  0
  148.8500  157.5360  132.9760 C   0  0  0  0  0  0  0  0  0  0  0  0
  147.9050  156.4860  133.1110 C   0  0  0  0  0  0  0  0  0  0  0  0
  148.3390  155.0500  132.9640 C   0  0  0  0  0  0  0  0  0  0  0  0
  149.5530  154.9720  132.3040 F   0  0  0  0  0  0  0  0  0  0  0  0
  148.4720  154.4840  134.2200 F   0  0  0  0  0  0  0  0  0  0  0  0
  147.4050  154.3280  132.2410 F   0  0  0  0  0  0  0  0  0  0  0  0
  146.5370  156.7990  133.2870 C   0  0  0  0  0  0  0  0  0  0  0  0
  146.1680  158.1470  133.3780 C   0  0  0  0  0  0  0  0  0  0  0  0
  140.8400  158.8324  136.8193 H   0  0  0  0  0  0  0  0  0  0  0  0
  141.4663  160.1873  135.8198 H   0  0  0  0  0  0  0  0  0  0  0  0
  139.7105  159.8081  135.8198 H   0  0  0  0  0  0  0  0  0  0  0  0
  141.8330  158.7020  134.2950 H   0  0  0  0  0  0  0  0  0  0  0  0
  138.8896  158.8137  134.2845 H   0  0  0  0  0  0  0  0  0  0  0  0
  140.0689  159.5166  133.1261 H   0  0  0  0  0  0  0  0  0  0  0  0
  139.7550  157.7479  133.1261 H   0  0  0  0  0  0  0  0  0  0  0  0
  140.8074  157.0695  136.3271 H   0  0  0  0  0  0  0  0  0  0  0  0
  140.1833  156.4987  134.7074 H   0  0  0  0  0  0  0  0  0  0  0  0
  142.5294  155.6591  135.7806 H   0  0  0  0  0  0  0  0  0  0  0  0
  142.2078  155.7909  134.0070 H   0  0  0  0  0  0  0  0  0  0  0  0
  142.3530  159.6920  133.5660 H   0  0  0  0  0  0  0  0  0  0  0  0
  146.8743  161.3557  133.2645 H   0  0  0  0  0  0  0  0  0  0  0  0
  149.1787  159.6958  132.9589 H   0  0  0  0  0  0  0  0  0  0  0  0
  149.9102  157.2948  132.8090 H   0  0  0  0  0  0  0  0  0  0  0  0
  145.7809  156.0027  133.3509 H   0  0  0  0  0  0  0  0  0  0  0  0
  1  2  1  0
  2  3  1  0
  2  4  1  0
  4  5  1  0
  5  6  1  0
  6  7  1  0
  7  8  2  0
  7  9  1  0
  9 10  1  0
 10 11  1  0
 11 12  1  0
 11 13  2  0
 10 14  2  0
 14 15  1  0
 15 16  2  0
 16 17  1  0
 17 18  2  0
 18 19  1  0
 19 20  1  0
 19 21  1  0
 19 22  1  0
 18 23  1  0
 23 24  2  0
 24  9  1  0
 24 15  1  0
  1 25  1  0
  1 26  1  0
  1 27  1  0
  2 28  1  0
  3 29  1  0
  3 30  1  0
  3 31  1  0
  4 32  1  0
  4 33  1  0
  5 34  1  0
  5 35  1  0
 12 36  1  0
 14 37  1  0
 16 38  1  0
 17 39  1  0
 23 40  1  0
M  CHG  2   2   1  12  -1
M  END
>  <UniqueID>  (39) 
39

>  <SMILES>  (39) 
C[NH+](C)CCOC(=O)n1c(C([NH-])=O)cc2ccc(C(F)(F)F)cc21

>  <Energy>  (39) 
79.03039553294388

>  <Genealogy>  (39) 
C[NH+](C)CCOC(=O)n1c(C([NH-])=O)cc2ccc(C(F)(F)F)cc21 (protonated)
C[NH+](C)CCOC(=O)n1c(C([NH-])=O)cc2ccc(C(F)(F)F)cc21 (3D coordinates assigned)
C[NH+](C)CCOC(=O)n1c(C([NH-])=O)cc2ccc(C(F)(F)F)cc21 (optimized conformer: 79.03039553294388 kcal/mol)

>  <smiles>  (39) 
CN(C)CCOC(=O)n1c(C(N)=O)cc2ccc(C(F)(F)F)cc21

>  <score_type>  (39) 
oracle

>  <origin>  (39) 
adg

>  <m_score__min__energy>  (39) 
-4.8899999999999997

>  <m_primary>  (39) 
energy

$$$$
39:0
     RDKit          3D

 28 29  0  0  0  0  0  0  0  0999 V2000
  149.1330  160.1250  130.8470 C   0  0  0  0  0  0  0  0  0  0  0  0
  148.7240  159.0550  131.5270 C   0  0  0  0  0  0  0  0  0  0  0  0
  148.0470  159.1580  132.8340 C   0  0  0  0  0  0  0  0  0  0  0  0
  148.4930  159.9300  133.7250 O   0  0  0  0  0  0  0  0  0  0  0  0
  146.9030  158.3380  133.1170 N   0  0  0  0  0  0  0  0  0  0  0  0
  145.6190  158.7360  133.3460 C   0  0  0  0  0  0  0  0  0  0  0  0
  145.1580  160.1320  133.4860 C   0  0  0  0  0  0  0  0  0  0  0  0
  146.1020  161.1710  133.7330 N   0  0  0  0  0  0  0  0  0  0  0  0
  143.9390  160.4230  133.3600 O   0  0  0  0  0  0  0  0  0  0  0  0
  144.7900  157.6280  133.5210 C   0  0  0  0  0  0  0  0  0  0  0  0
  145.6140  156.5330  133.3990 C   0  0  0  0  0  0  0  0  0  0  0  0
  145.3220  155.1760  133.4920 C   0  0  0  0  0  0  0  0  0  0  0  0
  146.3740  154.2620  133.3160 C   0  0  0  0  0  0  0  0  0  0  0  0
  147.6890  154.7130  133.0280 C   0  0  0  0  0  0  0  0  0  0  0  0
  148.8160  153.7230  132.8820 C   0  0  0  0  0  0  0  0  0  0  0  0
  148.5350  152.8070  131.8840 F   0  0  0  0  0  0  0  0  0  0  0  0
  149.9950  154.3700  132.5550 F   0  0  0  0  0  0  0  0  0  0  0  0
  148.9880  153.0500  134.0770 F   0  0  0  0  0  0  0  0  0  0  0  0
  147.9490  156.1020  132.9660 C   0  0  0  0  0  0  0  0  0  0  0  0
  146.8830  156.9880  133.1580 C   0  0  0  0  0  0  0  0  0  0  0  0
  149.6338  160.0009  129.8755 H   0  0  0  0  0  0  0  0  0  0  0  0
  148.9699  161.1326  131.2570 H   0  0  0  0  0  0  0  0  0  0  0  0
  148.8975  158.0571  131.0980 H   0  0  0  0  0  0  0  0  0  0  0  0
  146.9190  161.3160  133.1000 H   0  0  0  0  0  0  0  0  0  0  0  0
  143.7073  157.6294  133.7153 H   0  0  0  0  0  0  0  0  0  0  0  0
  144.2984  154.8293  133.6971 H   0  0  0  0  0  0  0  0  0  0  0  0
  146.1765  153.1833  133.4024 H   0  0  0  0  0  0  0  0  0  0  0  0
  148.9648  156.4767  132.7715 H   0  0  0  0  0  0  0  0  0  0  0  0
  1  2  2  0
  2  3  1  0
  3  4  2  0
  3  5  1  0
  5  6  1  0
  6  7  1  0
  7  8  1  0
  7  9  2  0
  6 10  2  0
 10 11  1  0
 11 12  2  0
 12 13  1  0
 13 14  2  0
 14 15  1  0
 15 16  1  0
 15 17  1  0
 15 18  1  0
 14 19  1  0
 19 20  2  0
 20  5  1  0
 20 11  1  0
  1 21  1  0
  1 22  1  0
  2 23  1  0
  8 24  1  0
 10 25  1  0
 12 26  1  0
 13 27  1  0
 19 28  1  0
M  CHG  1   8  -1
M  END
>  <UniqueID>  (40) 
40

>  <SMILES>  (40) 
C=CC(=O)n1c(C([NH-])=O)cc2ccc(C(F)(F)F)cc21

>  <Energy>  (40) 
67.31150951225924

>  <Genealogy>  (40) 
C=CC(=O)n1c(C([NH-])=O)cc2ccc(C(F)(F)F)cc21 (protonated)
C=CC(=O)n1c(C([NH-])=O)cc2ccc(C(F)(F)F)cc21 (3D coordinates assigned)
C=CC(=O)n1c(C([NH-])=O)cc2ccc(C(F)(F)F)cc21 (optimized conformer: 67.31150951225924 kcal/mol)

>  <smiles>  (40) 
C=CC(=O)n1c(C(N)=O)cc2ccc(C(F)(F)F)cc21

>  <score_type>  (40) 
oracle

>  <origin>  (40) 
adg

>  <m_score__min__energy>  (40) 
-5.9500000000000002

>  <m_primary>  (40) 
energy

$$$$
40:0
     RDKit          3D

 30 31  0  0  0  0  0  0  0  0999 V2000
  149.5740  160.3520  129.9660 C   0  0  0  0  0  0  0  0  0  0  0  0
  149.2680  160.2610  131.3850 N   0  0  0  0  0  0  0  0  0  0  0  0
  149.4160  159.0970  132.2100 C   0  0  0  0  0  0  0  0  0  0  0  0
  150.2370  158.2130  131.8500 O   0  0  0  0  0  0  0  0  0  0  0  0
  148.6510  158.8890  133.4620 C   0  0  0  0  0  0  0  0  0  0  0  0
  149.2170  158.9720  134.5840 O   0  0  0  0  0  0  0  0  0  0  0  0
  147.2520  158.5720  133.4080 N   0  0  0  0  0  0  0  0  0  0  0  0
  146.6820  157.3420  133.2710 C   0  0  0  0  0  0  0  0  0  0  0  0
  147.4020  156.0750  133.0210 C   0  0  0  0  0  0  0  0  0  0  0  0
  148.8190  155.9960  133.1500 N   0  0  0  0  0  0  0  0  0  0  0  0
  146.7590  155.0530  132.6600 O   0  0  0  0  0  0  0  0  0  0  0  0
  145.2930  157.4390  133.3530 C   0  0  0  0  0  0  0  0  0  0  0  0
  145.0300  158.7760  133.5460 C   0  0  0  0  0  0  0  0  0  0  0  0
  143.8190  159.4360  133.7250 C   0  0  0  0  0  0  0  0  0  0  0  0
  143.8500  160.8230  133.9470 C   0  0  0  0  0  0  0  0  0  0  0  0
  145.0830  161.5270  133.9760 C   0  0  0  0  0  0  0  0  0  0  0  0
  145.1060  163.0030  134.2760 C   0  0  0  0  0  0  0  0  0  0  0  0
  146.2290  163.5960  133.7250 F   0  0  0  0  0  0  0  0  0  0  0  0
  145.1250  163.1900  135.6450 F   0  0  0  0  0  0  0  0  0  0  0  0
  143.9870  163.6260  133.7500 F   0  0  0  0  0  0  0  0  0  0  0  0
  146.2930  160.8140  133.8150 C   0  0  0  0  0  0  0  0  0  0  0  0
  146.2300  159.4370  133.5780 C   0  0  0  0  0  0  0  0  0  0  0  0
  150.6210  160.6634  129.8359 H   0  0  0  0  0  0  0  0  0  0  0  0
  149.4223  159.3699  129.4945 H   0  0  0  0  0  0  0  0  0  0  0  0
  148.9102  161.0916  129.4945 H   0  0  0  0  0  0  0  0  0  0  0  0
  149.3880  156.8470  133.3530 H   0  0  0  0  0  0  0  0  0  0  0  0
  144.5623  156.6201  133.2790 H   0  0  0  0  0  0  0  0  0  0  0  0
  142.8654  158.8885  133.6937 H   0  0  0  0  0  0  0  0  0  0  0  0
  142.9081  161.3701  134.1002 H   0  0  0  0  0  0  0  0  0  0  0  0
  147.2623  161.3306  133.8748 H   0  0  0  0  0  0  0  0  0  0  0  0
  1  2  1  0
  2  3  1  0
  3  4  2  0
  3  5  1  0
  5  6  2  0
  5  7  1  0
  7  8  1  0
  8  9  1  0
  9 10  1  0
  9 11  2  0
  8 12  2  0
 12 13  1  0
 13 14  2  0
 14 15  1  0
 15 16  2  0
 16 17  1  0
 17 18  1  0
 17 19  1  0
 17 20  1  0
 16 21  1  0
 21 22  2  0
 22  7  1  0
 22 13  1  0
  1 23  1  0
  1 24  1  0
  1 25  1  0
 10 26  1  0
 12 27  1  0
 14 28  1  0
 15 29  1  0
 21 30  1  0
M  CHG  2   2  -1  10  -1
M  END
>  <UniqueID>  (41) 
41

>  <SMILES>  (41) 
C[N-]C(=O)C(=O)n1c(C([NH-])=O)cc2ccc(C(F)(F)F)cc21

>  <Energy>  (41) 
70.32356388276217

>  <Genealogy>  (41) 
C[N-]C(=O)C(=O)n1c(C([NH-])=O)cc2ccc(C(F)(F)F)cc21 (protonated)
C[N-]C(=O)C(=O)n1c(C([NH-])=O)cc2ccc(C(F)(F)F)cc21 (3D coordinates assigned)
C[N-]C(=O)C(=O)n1c(C([NH-])=O)cc2ccc(C(F)(F)F)cc21 (optimized conformer: 70.32356388276217 kcal/mol)

>  <smiles>  (41) 
CNC(=O)C(=O)n1c(C(N)=O)cc2ccc(C(F)(F)F)cc21

>  <score_type>  (41) 
oracle

>  <origin>  (41) 
adg

>  <m_score__min__energy>  (41) 
-5.7000000000000002

>  <m_primary>  (41) 
energy

$$$$
41:0
     RDKit          3D

 39 41  0  0  0  0  0  0  0  0999 V2000
  139.3880  159.7750  130.6000 C   0  0  0  0  0  0  0  0  0  0  0  0
  139.9530  159.0320  131.7360 N   0  0  0  0  0  0  0  0  0  0  0  0
  140.1220  159.9230  132.9070 C   0  0  0  0  0  0  0  0  0  0  0  0
  140.2320  159.1560  134.2430 C   0  0  0  0  0  0  0  0  0  0  0  0
  140.7340  157.7110  134.0650 C   0  0  0  0  0  0  0  0  0  0  0  0
  142.2320  157.6840  133.7790 C   0  0  0  0  0  0  0  0  0  0  0  0
  142.8630  156.4280  133.5780 C   0  0  0  0  0  0  0  0  0  0  0  0
  144.2480  156.3380  133.3710 C   0  0  0  0  0  0  0  0  0  0  0  0
  144.9850  157.5170  133.3710 C   0  0  0  0  0  0  0  0  0  0  0  0
  146.3400  157.7120  133.2280 C   0  0  0  0  0  0  0  0  0  0  0  0
  146.5270  159.0880  133.3310 C   0  0  0  0  0  0  0  0  0  0  0  0
  147.8370  159.7450  133.1460 C   0  0  0  0  0  0  0  0  0  0  0  0
  147.9910  160.8330  132.2380 N   0  0  0  0  0  0  0  0  0  0  0  0
  148.8460  159.3090  133.7630 O   0  0  0  0  0  0  0  0  0  0  0  0
  145.3360  159.7190  133.5380 N   0  0  0  0  0  0  0  0  0  0  0  0
  145.1160  161.1150  133.7960 C   0  0  0  0  0  0  0  0  0  0  0  0
  143.9530  161.5950  133.7470 O   0  0  0  0  0  0  0  0  0  0  0  0
  146.1800  161.9430  134.1280 O   0  0  0  0  0  0  0  0  0  0  0  0
  144.4010  158.7410  133.5580 C   0  0  0  0  0  0  0  0  0  0  0  0
  143.0260  158.8600  133.7830 C   0  0  0  0  0  0  0  0  0  0  0  0
  139.8670  156.9330  133.0380 C   0  0  0  0  0  0  0  0  0  0  0  0
  139.1260  157.8570  132.0540 C   0  0  0  0  0  0  0  0  0  0  0  0
  138.7621  160.5981  130.9751 H   0  0  0  0  0  0  0  0  0  0  0  0
  140.2045  160.1850  129.9875 H   0  0  0  0  0  0  0  0  0  0  0  0
  138.7747  159.0977  129.9875 H   0  0  0  0  0  0  0  0  0  0  0  0
  141.0386  160.5148  132.7669 H   0  0  0  0  0  0  0  0  0  0  0  0
  139.2259  160.5581  132.9670 H   0  0  0  0  0  0  0  0  0  0  0  0
  140.9330  159.6928  134.8991 H   0  0  0  0  0  0  0  0  0  0  0  0
  139.2228  159.1036  134.6776 H   0  0  0  0  0  0  0  0  0  0  0  0
  140.6074  157.1683  135.0134 H   0  0  0  0  0  0  0  0  0  0  0  0
  142.2562  155.5105  133.5847 H   0  0  0  0  0  0  0  0  0  0  0  0
  144.7356  155.3646  133.2136 H   0  0  0  0  0  0  0  0  0  0  0  0
  147.1111  156.9443  133.0667 H   0  0  0  0  0  0  0  0  0  0  0  0
  147.5560  161.7610  132.4340 H   0  0  0  0  0  0  0  0  0  0  0  0
  142.5693  159.8450  133.9595 H   0  0  0  0  0  0  0  0  0  0  0  0
  140.5222  156.2620  132.4631 H   0  0  0  0  0  0  0  0  0  0  0  0
  139.1054  156.3770  133.6045 H   0  0  0  0  0  0  0  0  0  0  0  0
  138.9108  157.3033  131.1282 H   0  0  0  0  0  0  0  0  0  0  0  0
  138.1874  158.1947  132.5177 H   0  0  0  0  0  0  0  0  0  0  0  0
  1  2  1  0
  2  3  1  0
  3  4  1  0
  4  5  1  0
  5  6  1  0
  6  7  2  0
  7  8  1  0
  8  9  2  0
  9 10  1  0
 10 11  2  0
 11 12  1  0
 12 13  1  0
 12 14  2  0
 11 15  1  0
 15 16  1  0
 16 17  2  0
 16 18  1  0
 15 19  1  0
 19 20  2  0
  5 21  1  0
 21 22  1  0
 22  2  1  0
 20  6  1  0
 19  9  1  0
  1 23  1  0
  1 24  1  0
  1 25  1  0
  3 26  1  0
  3 27  1  0
  4 28  1  0
  4 29  1  0
  5 30  1  0
  7 31  1  0
  8 32  1  0
 10 33  1  0
 13 34  1  0
 20 35  1  0
 21 36  1  0
 21 37  1  0
 22 38  1  0
 22 39  1  0
M  CHG  2  13  -1  18  -1
M  END
>  <UniqueID>  (42) 
42

>  <SMILES>  (42) 
CN1CCC(c2ccc3cc(C([NH-])=O)n(C(=O)[O-])c3c2)CC1

>  <Energy>  (42) 
88.43358703362054

>  <Genealogy>  (42) 
CN1CCC(c2ccc3cc(C([NH-])=O)n(C(=O)[O-])c3c2)CC1 (protonated)
CN1CCC(c2ccc3cc(C([NH-])=O)n(C(=O)[O-])c3c2)CC1 (3D coordinates assigned)
CN1CCC(c2ccc3cc(C([NH-])=O)n(C(=O)[O-])c3c2)CC1 (nonaromatic ring conformer: 88.43358703362054 kcal/mol)

>  <smiles>  (42) 
CN1CCC(c2ccc3cc(C(N)=O)n(C(=O)O)c3c2)CC1

>  <score_type>  (42) 
oracle

>  <origin>  (42) 
adg

>  <m_score__min__energy>  (42) 
-7.21

>  <m_primary>  (42) 
energy

$$$$
42:0
     RDKit          3D

 44 46  0  0  0  0  0  0  0  0999 V2000
  147.3760  155.5380  135.1230 C   0  0  0  0  0  0  0  0  0  0  0  0
  146.4300  155.6510  134.1930 C   0  0  0  0  0  0  0  0  0  0  0  0
  146.6080  156.4650  132.9740 C   0  0  0  0  0  0  0  0  0  0  0  0
  146.9230  155.9170  131.8830 O   0  0  0  0  0  0  0  0  0  0  0  0
  146.4000  157.8870  133.0190 N   0  0  0  0  0  0  0  0  0  0  0  0
  147.3440  158.8640  132.9060 C   0  0  0  0  0  0  0  0  0  0  0  0
  148.7660  158.6550  132.5670 C   0  0  0  0  0  0  0  0  0  0  0  0
  149.2000  157.4860  131.8710 N   0  0  0  0  0  0  0  0  0  0  0  0
  149.6070  159.5470  132.8560 O   0  0  0  0  0  0  0  0  0  0  0  0
  146.7820  160.1170  133.1380 C   0  0  0  0  0  0  0  0  0  0  0  0
  145.4510  159.8770  133.3950 C   0  0  0  0  0  0  0  0  0  0  0  0
  144.4280  160.7630  133.7200 C   0  0  0  0  0  0  0  0  0  0  0  0
  143.1550  160.2290  133.9880 C   0  0  0  0  0  0  0  0  0  0  0  0
  142.9280  158.8280  133.9430 C   0  0  0  0  0  0  0  0  0  0  0  0
  141.5490  158.2730  134.2510 C   0  0  2  0  0  0  0  0  0  0  0  0
  141.2910  156.9740  133.4760 C   0  0  0  0  0  0  0  0  0  0  0  0
  139.8440  156.5320  133.6650 C   0  0  0  0  0  0  0  0  0  0  0  0
  138.8230  157.6070  133.2340 C   0  0  0  0  0  0  0  0  0  0  0  0
  139.3850  158.9680  133.0800 N   0  0  0  0  0  0  0  0  0  0  0  0
  139.7160  159.3100  131.6860 C   0  0  0  0  0  0  0  0  0  0  0  0
  140.4270  159.3350  134.0640 C   0  0  0  0  0  0  0  0  0  0  0  0
  144.0010  157.9650  133.6210 C   0  0  0  0  0  0  0  0  0  0  0  0
  145.2480  158.5240  133.3260 C   0  0  0  0  0  0  0  0  0  0  0  0
  147.1988  154.9200  136.0156 H   0  0  0  0  0  0  0  0  0  0  0  0
  148.3348  156.0627  134.9988 H   0  0  0  0  0  0  0  0  0  0  0  0
  145.4791  155.1174  134.3383 H   0  0  0  0  0  0  0  0  0  0  0  0
  148.5150  156.8250  131.4430 H   0  0  0  0  0  0  0  0  0  0  0  0
  150.2170  157.3340  131.6870 H   0  0  0  0  0  0  0  0  0  0  0  0
  147.2929  161.0910  133.1198 H   0  0  0  0  0  0  0  0  0  0  0  0
  144.6096  161.8469  133.7658 H   0  0  0  0  0  0  0  0  0  0  0  0
  142.3239  160.9057  134.2358 H   0  0  0  0  0  0  0  0  0  0  0  0
  141.5241  158.0130  135.3196 H   0  0  0  0  0  0  0  0  0  0  0  0
  141.4832  157.1438  132.4063 H   0  0  0  0  0  0  0  0  0  0  0  0
  141.9608  156.1883  133.8555 H   0  0  0  0  0  0  0  0  0  0  0  0
  139.6732  155.6259  133.0651 H   0  0  0  0  0  0  0  0  0  0  0  0
  139.6940  156.3480  134.7391 H   0  0  0  0  0  0  0  0  0  0  0  0
  138.3924  157.3029  132.2685 H   0  0  0  0  0  0  0  0  0  0  0  0
  138.0775  157.6683  134.0405 H   0  0  0  0  0  0  0  0  0  0  0  0
  140.4810  160.1004  131.6741 H   0  0  0  0  0  0  0  0  0  0  0  0
  140.1025  158.4179  131.1715 H   0  0  0  0  0  0  0  0  0  0  0  0
  138.8117  159.6671  131.1715 H   0  0  0  0  0  0  0  0  0  0  0  0
  140.8955  160.2735  133.7327 H   0  0  0  0  0  0  0  0  0  0  0  0
  139.9188  159.4238  135.0355 H   0  0  0  0  0  0  0  0  0  0  0  0
  143.8572  156.8746  133.6030 H   0  0  0  0  0  0  0  0  0  0  0  0
  1  2  2  0
  2  3  1  0
  3  4  2  0
  3  5  1  0
  5  6  1  0
  6  7  1  0
  7  8  1  0
  7  9  2  0
  6 10  2  0
 10 11  1  0
 11 12  2  0
 12 13  1  0
 13 14  2  0
 14 15  1  0
 15 16  1  0
 16 17  1  0
 17 18  1  0
 18 19  1  0
 19 20  1  0
 19 21  1  0
 14 22  1  0
 22 23  2  0
 23  5  1  0
 23 11  1  0
 21 15  1  0
  1 24  1  0
  1 25  1  0
  2 26  1  0
  8 27  1  0
  8 28  1  0
 10 29  1  0
 12 30  1  0
 13 31  1  0
 15 32  1  1
 16 33  1  0
 16 34  1  0
 17 35  1  0
 17 36  1  0
 18 37  1  0
 18 38  1  0
 20 39  1  0
 20 40  1  0
 20 41  1  0
 21 42  1  0
 21 43  1  0
 22 44  1  0
M  END
>  <UniqueID>  (43) 
43

>  <SMILES>  (43) 
C=CC(=O)n1c(C(N)=O)cc2ccc([C@@H]3CCCN(C)C3)cc21

>  <Energy>  (43) 
96.0474879609598

>  <Genealogy>  (43) 
C=CC(=O)n1c(C(N)=O)cc2ccc([C@@H]3CCCN(C)C3)cc21 (3D coordinates assigned)
C=CC(=O)n1c(C(N)=O)cc2ccc([C@@H]3CCCN(C)C3)cc21 (nonaromatic ring conformer: 96.0474879609598 kcal/mol)

>  <smiles>  (43) 
C=CC(=O)n1c(C(N)=O)cc2ccc([C@@H]3CCCN(C)C3)cc21

>  <score_type>  (43) 
oracle

>  <origin>  (43) 
adg

>  <m_score__min__energy>  (43) 
-8.0700000000000003

>  <m_primary>  (43) 
energy

$$$$
43:0
     RDKit          3D

 38 40  0  0  0  0  0  0  0  0999 V2000
  149.6440  159.3350  131.2230 C   0  0  0  0  0  0  0  0  0  0  0  0
  148.5200  159.8070  131.7590 C   0  0  0  0  0  0  0  0  0  0  0  0
  148.0660  159.4300  133.1110 C   0  0  0  0  0  0  0  0  0  0  0  0
  148.7920  159.6660  134.1160 O   0  0  0  0  0  0  0  0  0  0  0  0
  146.7840  158.8080  133.2950 N   0  0  0  0  0  0  0  0  0  0  0  0
  145.6100  159.4150  133.6280 C   0  0  0  0  0  0  0  0  0  0  0  0
  145.4080  160.8780  133.7480 C   0  0  0  0  0  0  0  0  0  0  0  0
  146.4910  161.7410  134.0980 N   0  0  0  0  0  0  0  0  0  0  0  0
  144.2670  161.3750  133.5600 O   0  0  0  0  0  0  0  0  0  0  0  0
  144.5970  158.4670  133.7700 C   0  0  0  0  0  0  0  0  0  0  0  0
  145.1950  157.2530  133.5190 C   0  0  0  0  0  0  0  0  0  0  0  0
  144.6590  155.9700  133.5390 C   0  0  0  0  0  0  0  0  0  0  0  0
  145.5180  154.8910  133.2730 C   0  0  0  0  0  0  0  0  0  0  0  0
  146.8950  155.1070  133.0020 C   0  0  0  0  0  0  0  0  0  0  0  0
  147.7980  153.9590  132.7330 C   0  0  0  0  0  0  0  0  0  0  0  0
  149.1810  154.1420  132.5830 C   0  0  0  0  0  0  0  0  0  0  0  0
  149.9880  153.0770  132.3360 N   0  0  0  0  0  0  0  0  0  0  0  0
  149.4820  151.8210  132.2320 C   0  0  0  0  0  0  0  0  0  0  0  0
  150.3460  150.7530  131.9790 O   0  0  0  0  0  0  0  0  0  0  0  0
  150.6870  150.3340  130.6630 C   0  0  0  0  0  0  0  0  0  0  0  0
  148.1440  151.6190  132.3760 N   0  0  0  0  0  0  0  0  0  0  0  0
  147.3000  152.6530  132.6210 C   0  0  0  0  0  0  0  0  0  0  0  0
  147.4000  156.4300  132.9920 C   0  0  0  0  0  0  0  0  0  0  0  0
  146.5160  157.4850  133.2380 C   0  0  0  0  0  0  0  0  0  0  0  0
  149.9428  159.6444  130.2106 H   0  0  0  0  0  0  0  0  0  0  0  0
  150.2736  158.6357  131.7927 H   0  0  0  0  0  0  0  0  0  0  0  0
  147.9063  160.5051  131.1708 H   0  0  0  0  0  0  0  0  0  0  0  0
  147.4660  161.3810  134.2000 H   0  0  0  0  0  0  0  0  0  0  0  0
  146.3260  162.7650  134.2160 H   0  0  0  0  0  0  0  0  0  0  0  0
  143.5435  158.6506  134.0279 H   0  0  0  0  0  0  0  0  0  0  0  0
  143.5935  155.8050  133.7568 H   0  0  0  0  0  0  0  0  0  0  0  0
  145.1190  153.8659  133.2746 H   0  0  0  0  0  0  0  0  0  0  0  0
  149.6131  155.1502  132.6655 H   0  0  0  0  0  0  0  0  0  0  0  0
  151.3805  149.4819  130.7176 H   0  0  0  0  0  0  0  0  0  0  0  0
  149.7755  150.0311  130.1269 H   0  0  0  0  0  0  0  0  0  0  0  0
  151.1687  151.1650  130.1269 H   0  0  0  0  0  0  0  0  0  0  0  0
  146.2217  152.4660  132.7321 H   0  0  0  0  0  0  0  0  0  0  0  0
  148.4648  156.6235  132.7950 H   0  0  0  0  0  0  0  0  0  0  0  0
  1  2  2  0
  2  3  1  0
  3  4  2  0
  3  5  1  0
  5  6  1  0
  6  7  1  0
  7  8  1  0
  7  9  2  0
  6 10  2  0
 10 11  1  0
 11 12  2  0
 12 13  1  0
 13 14  2  0
 14 15  1  0
 15 16  2  0
 16 17  1  0
 17 18  2  0
 18 19  1  0
 19 20  1  0
 18 21  1  0
 21 22  2  0
 14 23  1  0
 23 24  2  0
 24  5  1  0
 24 11  1  0
 22 15  1  0
  1 25  1  0
  1 26  1  0
  2 27  1  0
  8 28  1  0
  8 29  1  0
 10 30  1  0
 12 31  1  0
 13 32  1  0
 16 33  1  0
 20 34  1  0
 20 35  1  0
 20 36  1  0
 22 37  1  0
 23 38  1  0
M  END
>  <UniqueID>  (44) 
44

>  <SMILES>  (44) 
C=CC(=O)n1c(C(N)=O)cc2ccc(-c3cnc(OC)nc3)cc21

>  <Energy>  (44) 
82.56215984908499

>  <Genealogy>  (44) 
C=CC(=O)n1c(C(N)=O)cc2ccc(-c3cnc(OC)nc3)cc21 (3D coordinates assigned)
C=CC(=O)n1c(C(N)=O)cc2ccc(-c3cnc(OC)nc3)cc21 (optimized conformer: 82.56215984908499 kcal/mol)

>  <smiles>  (44) 
C=CC(=O)n1c(C(N)=O)cc2ccc(-c3cnc(OC)nc3)cc21

>  <score_type>  (44) 
oracle

>  <origin>  (44) 
adg

>  <m_score__min__energy>  (44) 
-7.29

>  <m_primary>  (44) 
energy

$$$$
44:0
     RDKit          3D

 37 38  0  0  0  0  0  0  0  0999 V2000
  149.4170  157.9410  131.8860 N   0  0  0  0  0  0  0  0  0  0  0  0
  148.7070  159.0090  132.5090 C   0  0  0  0  0  0  0  0  0  0  0  0
  149.2520  160.1420  132.5980 O   0  0  0  0  0  0  0  0  0  0  0  0
  147.3250  158.8220  132.9980 C   0  0  0  0  0  0  0  0  0  0  0  0
  146.3730  159.8410  133.0130 C   0  0  0  0  0  0  0  0  0  0  0  0
  145.2090  159.2450  133.4410 C   0  0  0  0  0  0  0  0  0  0  0  0
  143.9440  159.7920  133.6400 C   0  0  0  0  0  0  0  0  0  0  0  0
  142.9260  158.9450  134.1070 C   0  0  0  0  0  0  0  0  0  0  0  0
  143.1920  157.5800  134.3790 C   0  0  0  0  0  0  0  0  0  0  0  0
  142.0850  156.6780  134.8630 C   0  0  0  0  0  0  0  0  0  0  0  0
  142.3630  156.1340  136.2720 C   0  0  0  0  0  0  0  0  0  0  0  0
  142.8140  154.6690  136.2570 C   0  0  0  0  0  0  0  0  0  0  0  0
  143.5850  154.3880  137.3930 O   0  0  0  0  0  0  0  0  0  0  0  0
  144.4870  157.0590  134.1610 C   0  0  0  0  0  0  0  0  0  0  0  0
  145.4760  157.9210  133.6740 C   0  0  0  0  0  0  0  0  0  0  0  0
  146.7720  157.6460  133.4100 N   0  0  0  0  0  0  0  0  0  0  0  0
  147.4260  156.3830  133.6020 C   0  0  0  0  0  0  0  0  0  0  0  0
  147.7550  155.6850  132.6040 O   0  0  0  0  0  0  0  0  0  0  0  0
  147.7170  155.9440  134.8990 O   0  0  0  0  0  0  0  0  0  0  0  0
  147.7590  154.5680  135.2700 C   0  0  0  0  0  0  0  0  0  0  0  0
  146.4280  154.1260  135.7890 C   0  0  0  0  0  0  0  0  0  0  0  0
  145.3770  154.4300  135.1670 O   0  0  0  0  0  0  0  0  0  0  0  0
  146.3480  153.3540  136.9390 O   0  0  0  0  0  0  0  0  0  0  0  0
  148.9110  157.1180  131.4900 H   0  0  0  0  0  0  0  0  0  0  0  0
  146.5211  160.8964  132.7407 H   0  0  0  0  0  0  0  0  0  0  0  0
  143.7481  160.8553  133.4375 H   0  0  0  0  0  0  0  0  0  0  0  0
  141.9131  159.3446  134.2630 H   0  0  0  0  0  0  0  0  0  0  0  0
  141.1444  157.2480  134.8813 H   0  0  0  0  0  0  0  0  0  0  0  0
  142.0175  155.8224  134.1749 H   0  0  0  0  0  0  0  0  0  0  0  0
  143.1541  156.7420  136.7352 H   0  0  0  0  0  0  0  0  0  0  0  0
  141.4243  156.1890  136.8428 H   0  0  0  0  0  0  0  0  0  0  0  0
  141.9286  154.0164  136.2484 H   0  0  0  0  0  0  0  0  0  0  0  0
  143.4216  154.4898  135.3577 H   0  0  0  0  0  0  0  0  0  0  0  0
  144.5330  154.5300  137.1340 H   0  0  0  0  0  0  0  0  0  0  0  0
  144.7122  156.0025  134.3688 H   0  0  0  0  0  0  0  0  0  0  0  0
  148.0236  153.9634  134.3899 H   0  0  0  0  0  0  0  0  0  0  0  0
  148.5119  154.4350  136.0609 H   0  0  0  0  0  0  0  0  0  0  0  0
  1  2  1  0
  2  3  2  0
  2  4  1  0
  4  5  2  0
  5  6  1  0
  6  7  2  0
  7  8  1  0
  8  9  2  0
  9 10  1  0
 10 11  1  0
 11 12  1  0
 12 13  1  0
  9 14  1  0
 14 15  2  0
 15 16  1  0
 16 17  1  0
 17 18  2  0
 17 19  1  0
 19 20  1  0
 20 21  1  0
 21 22  2  0
 21 23  1  0
 16  4  1  0
 15  6  1  0
  1 24  1  0
  5 25  1  0
  7 26  1  0
  8 27  1  0
 10 28  1  0
 10 29  1  0
 11 30  1  0
 11 31  1  0
 12 32  1  0
 12 33  1  0
 13 34  1  0
 14 35  1  0
 20 36  1  0
 20 37  1  0
M  CHG  2   1  -1  23  -1
M  END
>  <UniqueID>  (45) 
45

>  <SMILES>  (45) 
[NH-]C(=O)c1cc2ccc(CCCO)cc2n1C(=O)OCC(=O)[O-]

>  <Energy>  (45) 
69.17273280419295

>  <Genealogy>  (45) 
[NH-]C(=O)c1cc2ccc(CCCO)cc2n1C(=O)OCC(=O)[O-] (protonated)
[NH-]C(=O)c1cc2ccc(CCCO)cc2n1C(=O)OCC(=O)[O-] (3D coordinates assigned)
[NH-]C(=O)c1cc2ccc(CCCO)cc2n1C(=O)OCC(=O)[O-] (optimized conformer: 69.17273280419295 kcal/mol)

>  <smiles>  (45) 
NC(=O)c1cc2ccc(CCCO)cc2n1C(=O)OCC(=O)O

>  <score_type>  (45) 
oracle

>  <origin>  (45) 
adg

>  <m_score__min__energy>  (45) 
-5.5099999999999998

>  <m_primary>  (45) 
energy

$$$$
45:0
     RDKit          3D

 44 46  0  0  0  0  0  0  0  0999 V2000
  140.8840  151.4690  132.5710 C   0  0  0  0  0  0  0  0  0  0  0  0
  142.0330  152.2300  132.2690 O   0  0  0  0  0  0  0  0  0  0  0  0
  142.6100  152.7650  133.4520 C   0  0  1  0  0  0  0  0  0  0  0  0
  144.1270  152.5570  133.4410 C   0  0  0  0  0  0  0  0  0  0  0  0
  144.7870  153.2460  132.2380 C   0  0  0  0  0  0  0  0  0  0  0  0
  143.9870  154.4560  131.7090 C   0  0  0  0  0  0  0  0  0  0  0  0
  143.2000  155.1560  132.7520 N   0  0  2  0  0  0  0  0  0  0  0  0
  144.0390  155.9660  133.6180 C   0  0  0  0  0  0  0  0  0  0  0  0
  144.8680  155.4250  134.3990 O   0  0  0  0  0  0  0  0  0  0  0  0
  143.8950  157.3970  133.6370 N   0  0  0  0  0  0  0  0  0  0  0  0
  142.7520  158.1210  133.8170 C   0  0  0  0  0  0  0  0  0  0  0  0
  141.3820  157.5810  133.9800 C   0  0  0  0  0  0  0  0  0  0  0  0
  140.7960  156.7350  132.9960 N   0  0  0  0  0  0  0  0  0  0  0  0
  140.7130  157.8850  135.0030 O   0  0  0  0  0  0  0  0  0  0  0  0
  143.0370  159.4860  133.8070 C   0  0  0  0  0  0  0  0  0  0  0  0
  144.3970  159.5760  133.6250 C   0  0  0  0  0  0  0  0  0  0  0  0
  145.2210  160.6960  133.5780 C   0  0  0  0  0  0  0  0  0  0  0  0
  146.6030  160.4920  133.4320 C   0  0  0  0  0  0  0  0  0  0  0  0
  147.1360  159.1820  133.3310 C   0  0  0  0  0  0  0  0  0  0  0  0
  148.6260  158.9730  133.2420 C   0  0  0  0  0  0  0  0  0  0  0  0
  149.1980  158.9860  134.5030 F   0  0  0  0  0  0  0  0  0  0  0  0
  148.9150  157.7550  132.6490 F   0  0  0  0  0  0  0  0  0  0  0  0
  149.1830  159.9860  132.4850 F   0  0  0  0  0  0  0  0  0  0  0  0
  146.2670  158.0690  133.4110 C   0  0  0  0  0  0  0  0  0  0  0  0
  144.8920  158.3020  133.5310 C   0  0  0  0  0  0  0  0  0  0  0  0
  142.2880  154.2730  133.5370 C   0  0  0  0  0  0  0  0  0  0  0  0
  140.7705  151.3938  133.6625 H   0  0  0  0  0  0  0  0  0  0  0  0
  139.9969  151.9587  132.1430 H   0  0  0  0  0  0  0  0  0  0  0  0
  140.9888  150.4611  132.1430 H   0  0  0  0  0  0  0  0  0  0  0  0
  142.1905  152.2474  134.3273 H   0  0  0  0  0  0  0  0  0  0  0  0
  144.5505  152.9737  134.3667 H   0  0  0  0  0  0  0  0  0  0  0  0
  144.3241  151.4773  133.3678 H   0  0  0  0  0  0  0  0  0  0  0  0
  145.7859  153.5937  132.5402 H   0  0  0  0  0  0  0  0  0  0  0  0
  144.8324  152.5064  131.4250 H   0  0  0  0  0  0  0  0  0  0  0  0
  144.6947  155.1738  131.2686 H   0  0  0  0  0  0  0  0  0  0  0  0
  143.2682  154.0672  130.9727 H   0  0  0  0  0  0  0  0  0  0  0  0
  142.5790  155.8220  132.2330 H   0  0  0  0  0  0  0  0  0  0  0  0
  141.3630  156.3540  132.2060 H   0  0  0  0  0  0  0  0  0  0  0  0
  142.3241  160.3159  133.9208 H   0  0  0  0  0  0  0  0  0  0  0  0
  144.8028  161.7106  133.6529 H   0  0  0  0  0  0  0  0  0  0  0  0
  147.2796  161.3585  133.3956 H   0  0  0  0  0  0  0  0  0  0  0  0
  146.6628  157.0432  133.3796 H   0  0  0  0  0  0  0  0  0  0  0  0
  142.3450  154.5755  134.5931 H   0  0  0  0  0  0  0  0  0  0  0  0
  141.2860  154.3993  133.1011 H   0  0  0  0  0  0  0  0  0  0  0  0
  1  2  1  0
  2  3  1  0
  3  4  1  0
  4  5  1  0
  5  6  1  0
  6  7  1  0
  7  8  1  0
  8  9  2  0
  8 10  1  0
 10 11  1  0
 11 12  1  0
 12 13  1  0
 12 14  2  0
 11 15  2  0
 15 16  1  0
 16 17  2  0
 17 18  1  0
 18 19  2  0
 19 20  1  0
 20 21  1  0
 20 22  1  0
 20 23  1  0
 19 24  1  0
 24 25  2  0
  7 26  1  0
 26  3  1  0
 25 10  1  0
 25 16  1  0
  1 27  1  0
  1 28  1  0
  1 29  1  0
  3 30  1  1
  4 31  1  0
  4 32  1  0
  5 33  1  0
  5 34  1  0
  6 35  1  0
  6 36  1  0
  7 37  1  6
 13 38  1  0
 15 39  1  0
 17 40  1  0
 18 41  1  0
 24 42  1  0
 26 43  1  0
 26 44  1  0
M  CHG  2   7   1  13  -1
M  END
>  <UniqueID>  (46) 
46

>  <SMILES>  (46) 
CO[C@H]1CCC[N@H+](C(=O)n2c(C([NH-])=O)cc3ccc(C(F)(F)F)cc32)C1

>  <Energy>  (46) 
100.11764945006807

>  <Genealogy>  (46) 
CO[C@H]1CCC[NH+](C(=O)n2c(C([NH-])=O)cc3ccc(C(F)(F)F)cc32)C1 (protonated)
CO[C@H]1CCC[N@H+](C(=O)n2c(C([NH-])=O)cc3ccc(C(F)(F)F)cc32)C1 (chirality)
CO[C@H]1CCC[N@H+](C(=O)n2c(C([NH-])=O)cc3ccc(C(F)(F)F)cc32)C1 (3D coordinates assigned)
CO[C@H]1CCC[N@H+](C(=O)n2c(C([NH-])=O)cc3ccc(C(F)(F)F)cc32)C1 (nonaromatic ring conformer: 100.11764945006807 kcal/mol)

>  <smiles>  (46) 
CO[C@H]1CCCN(C(=O)n2c(C(N)=O)cc3ccc(C(F)(F)F)cc32)C1

>  <score_type>  (46) 
oracle

>  <origin>  (46) 
adg

>  <m_score__min__energy>  (46) 
-6.3200000000000003

>  <m_primary>  (46) 
energy

$$$$
46:0
     RDKit          3D

 37 38  0  0  0  0  0  0  0  0999 V2000
  141.7570  156.4730  136.6030 C   0  0  0  0  0  0  0  0  0  0  0  0
  142.3310  157.4050  135.6270 N   0  0  0  0  0  0  0  0  0  0  0  0
  141.8970  158.8080  135.6590 C   0  0  0  0  0  0  0  0  0  0  0  0
  140.6100  158.9690  134.9130 C   0  0  0  0  0  0  0  0  0  0  0  0
  139.5540  158.4470  135.3550 O   0  0  0  0  0  0  0  0  0  0  0  0
  140.5690  159.7300  133.7510 O   0  0  0  0  0  0  0  0  0  0  0  0
  143.4080  157.0130  134.7410 C   0  0  0  0  0  0  0  0  0  0  0  0
  144.1120  156.0100  135.0410 O   0  0  0  0  0  0  0  0  0  0  0  0
  143.7350  157.7360  133.4870 C   0  0  0  0  0  0  0  0  0  0  0  0
  142.9260  157.7630  132.5220 O   0  0  0  0  0  0  0  0  0  0  0  0
  144.9910  158.4190  133.3550 N   0  0  0  0  0  0  0  0  0  0  0  0
  145.2270  159.7520  133.5090 C   0  0  0  0  0  0  0  0  0  0  0  0
  144.1840  160.7800  133.7330 C   0  0  0  0  0  0  0  0  0  0  0  0
  142.8300  160.5540  133.3360 N   0  0  0  0  0  0  0  0  0  0  0  0
  144.4820  161.8680  134.2930 O   0  0  0  0  0  0  0  0  0  0  0  0
  146.5900  160.0210  133.3730 C   0  0  0  0  0  0  0  0  0  0  0  0
  147.1820  158.8000  133.1420 C   0  0  0  0  0  0  0  0  0  0  0  0
  148.5220  158.4750  132.9520 C   0  0  0  0  0  0  0  0  0  0  0  0
  148.8510  157.1210  132.7660 C   0  0  0  0  0  0  0  0  0  0  0  0
  147.8440  156.1240  132.7800 C   0  0  0  0  0  0  0  0  0  0  0  0
  148.2000  154.6780  132.5920 C   0  0  0  0  0  0  0  0  0  0  0  0
  149.5340  154.5680  132.2470 F   0  0  0  0  0  0  0  0  0  0  0  0
  147.9740  153.9850  133.7680 F   0  0  0  0  0  0  0  0  0  0  0  0
  146.4940  156.4930  132.9770 C   0  0  0  0  0  0  0  0  0  0  0  0
  146.1950  157.8500  133.1400 C   0  0  0  0  0  0  0  0  0  0  0  0
  141.9754  156.8277  137.6211 H   0  0  0  0  0  0  0  0  0  0  0  0
  140.6678  156.4171  136.4600 H   0  0  0  0  0  0  0  0  0  0  0  0
  142.1973  155.4751  136.4600 H   0  0  0  0  0  0  0  0  0  0  0  0
  141.7525  159.1197  136.7040 H   0  0  0  0  0  0  0  0  0  0  0  0
  142.6676  159.4325  135.1834 H   0  0  0  0  0  0  0  0  0  0  0  0
  142.1010  161.2770  133.5310 H   0  0  0  0  0  0  0  0  0  0  0  0
  142.5470  159.6970  132.8120 H   0  0  0  0  0  0  0  0  0  0  0  0
  147.0858  161.0009  133.4369 H   0  0  0  0  0  0  0  0  0  0  0  0
  149.2993  159.2533  132.9475 H   0  0  0  0  0  0  0  0  0  0  0  0
  149.9007  156.8325  132.6080 H   0  0  0  0  0  0  0  0  0  0  0  0
  147.5765  154.2551  131.7905 H   0  0  0  0  0  0  0  0  0  0  0  0
  145.6991  155.7331  133.0015 H   0  0  0  0  0  0  0  0  0  0  0  0
  1  2  1  0
  2  3  1  0
  3  4  1  0
  4  5  2  0
  4  6  1  0
  2  7  1  0
  7  8  2  0
  7  9  1  0
  9 10  2  0
  9 11  1  0
 11 12  1  0
 12 13  1  0
 13 14  1  0
 13 15  2  0
 12 16  2  0
 16 17  1  0
 17 18  2  0
 18 19  1  0
 19 20  2  0
 20 21  1  0
 21 22  1  0
 21 23  1  0
 20 24  1  0
 24 25  2  0
 25 11  1  0
 25 17  1  0
  1 26  1  0
  1 27  1  0
  1 28  1  0
  3 29  1  0
  3 30  1  0
 14 31  1  0
 14 32  1  0
 16 33  1  0
 18 34  1  0
 19 35  1  0
 21 36  1  0
 24 37  1  0
M  CHG  1   6  -1
M  END
>  <UniqueID>  (47) 
47

>  <SMILES>  (47) 
CN(CC(=O)[O-])C(=O)C(=O)n1c(C(N)=O)cc2ccc(C(F)F)cc21

>  <Energy>  (47) 
76.3698055098131

>  <Genealogy>  (47) 
CN(CC(=O)[O-])C(=O)C(=O)n1c(C(N)=O)cc2ccc(C(F)F)cc21 (protonated)
CN(CC(=O)[O-])C(=O)C(=O)n1c(C(N)=O)cc2ccc(C(F)F)cc21 (3D coordinates assigned)
CN(CC(=O)[O-])C(=O)C(=O)n1c(C(N)=O)cc2ccc(C(F)F)cc21 (optimized conformer: 76.3698055098131 kcal/mol)

>  <smiles>  (47) 
CN(CC(=O)O)C(=O)C(=O)n1c(C(N)=O)cc2ccc(C(F)F)cc21

>  <score_type>  (47) 
oracle

>  <origin>  (47) 
adg

>  <m_score__min__energy>  (47) 
-6.0099999999999998

>  <m_primary>  (47) 
energy

$$$$
47:0
     RDKit          3D

 32 33  0  0  0  0  0  0  0  0999 V2000
  143.2120  161.6460  133.7280 N   0  0  0  0  0  0  0  0  0  0  0  0
  144.6290  161.7120  133.8780 C   0  0  0  0  0  0  0  0  0  0  0  0
  145.1680  162.8130  134.1650 O   0  0  0  0  0  0  0  0  0  0  0  0
  145.4400  160.4850  133.7340 C   0  0  0  0  0  0  0  0  0  0  0  0
  146.8210  160.4960  133.5500 C   0  0  0  0  0  0  0  0  0  0  0  0
  147.1760  159.1790  133.3680 C   0  0  0  0  0  0  0  0  0  0  0  0
  148.4260  158.6120  133.1400 C   0  0  0  0  0  0  0  0  0  0  0  0
  148.5020  157.2160  133.0050 C   0  0  0  0  0  0  0  0  0  0  0  0
  147.3390  156.4100  133.1260 C   0  0  0  0  0  0  0  0  0  0  0  0
  147.4280  154.9170  132.9420 C   0  0  0  0  0  0  0  0  0  0  0  0
  147.4820  154.2770  134.1680 F   0  0  0  0  0  0  0  0  0  0  0  0
  146.3150  154.4770  132.2520 F   0  0  0  0  0  0  0  0  0  0  0  0
  148.5650  154.5790  132.2290 F   0  0  0  0  0  0  0  0  0  0  0  0
  146.0830  157.0270  133.3360 C   0  0  0  0  0  0  0  0  0  0  0  0
  146.0350  158.4220  133.4480 C   0  0  0  0  0  0  0  0  0  0  0  0
  144.9600  159.2090  133.6750 N   0  0  0  0  0  0  0  0  0  0  0  0
  143.6080  158.7660  133.8660 C   0  0  0  0  0  0  0  0  0  0  0  0
  143.0490  158.9170  134.9860 O   0  0  0  0  0  0  0  0  0  0  0  0
  142.9290  158.1400  132.8140 O   0  0  0  0  0  0  0  0  0  0  0  0
  141.7330  157.3840  132.9880 C   0  0  0  0  0  0  0  0  0  0  0  0
  140.3070  158.4940  133.2020 P   0  0  2  0  0  0  0  0  0  0  0  0
  139.4940  158.0430  134.3950 O   0  0  0  0  0  0  0  0  0  0  0  0
  139.3360  158.4670  131.8180 O   0  0  0  0  0  0  0  0  0  0  0  0
  140.8660  160.0690  133.4650 O   0  0  0  0  0  0  0  0  0  0  0  0
  142.6660  160.8530  134.1330 H   0  0  0  0  0  0  0  0  0  0  0  0
  147.4865  161.3718  133.5502 H   0  0  0  0  0  0  0  0  0  0  0  0
  149.3275  159.2381  133.0677 H   0  0  0  0  0  0  0  0  0  0  0  0
  149.4737  156.7415  132.8032 H   0  0  0  0  0  0  0  0  0  0  0  0
  145.1655  156.4247  133.4096 H   0  0  0  0  0  0  0  0  0  0  0  0
  141.5711  156.7525  132.1020 H   0  0  0  0  0  0  0  0  0  0  0  0
  141.8348  156.7564  133.8857 H   0  0  0  0  0  0  0  0  0  0  0  0
  141.8500  159.9810  133.5250 H   0  0  0  0  0  0  0  0  0  0  0  0
  1  2  1  0
  2  3  2  0
  2  4  1  0
  4  5  2  0
  5  6  1  0
  6  7  2  0
  7  8  1  0
  8  9  2  0
  9 10  1  0
 10 11  1  0
 10 12  1  0
 10 13  1  0
  9 14  1  0
 14 15  2  0
 15 16  1  0
 16 17  1  0
 17 18  2  0
 17 19  1  0
 19 20  1  0
 20 21  1  0
 21 22  2  0
 21 23  1  6
 21 24  1  0
 16  4  1  0
 15  6  1  0
  1 25  1  0
  5 26  1  0
  7 27  1  0
  8 28  1  0
 14 29  1  0
 20 30  1  0
 20 31  1  0
 24 32  1  0
M  CHG  2   1  -1  23  -1
M  END
>  <UniqueID>  (48) 
48

>  <SMILES>  (48) 
[NH-]C(=O)c1cc2ccc(C(F)(F)F)cc2n1C(=O)OC[P@](=O)([O-])O

>  <Energy>  (48) 
65.82773425832303

>  <Genealogy>  (48) 
[NH-]C(=O)c1cc2ccc(C(F)(F)F)cc2n1C(=O)OCP(=O)([O-])O (protonated)
[NH-]C(=O)c1cc2ccc(C(F)(F)F)cc2n1C(=O)OC[P@](=O)([O-])O (chirality)
[NH-]C(=O)c1cc2ccc(C(F)(F)F)cc2n1C(=O)OC[P@](=O)([O-])O (3D coordinates assigned)
[NH-]C(=O)c1cc2ccc(C(F)(F)F)cc2n1C(=O)OC[P@](=O)([O-])O (optimized conformer: 65.82773425832303 kcal/mol)

>  <smiles>  (48) 
NC(=O)c1cc2ccc(C(F)(F)F)cc2n1C(=O)OCP(=O)(O)O

>  <score_type>  (48) 
oracle

>  <origin>  (48) 
adg

>  <m_score__min__energy>  (48) 
-5.3499999999999996

>  <m_primary>  (48) 
energy

$$$$
48:0
     RDKit          3D

 32 33  0  0  0  0  0  0  0  0999 V2000
  142.8840  160.6590  133.3880 N   0  0  0  0  0  0  0  0  0  0  0  0
  144.2450  160.8900  133.7390 C   0  0  0  0  0  0  0  0  0  0  0  0
  144.5850  162.0200  134.1830 O   0  0  0  0  0  0  0  0  0  0  0  0
  145.2700  159.8450  133.5360 C   0  0  0  0  0  0  0  0  0  0  0  0
  146.6170  160.1250  133.3190 C   0  0  0  0  0  0  0  0  0  0  0  0
  147.2100  158.9050  133.0900 C   0  0  0  0  0  0  0  0  0  0  0  0
  148.5410  158.5920  132.8300 C   0  0  0  0  0  0  0  0  0  0  0  0
  148.8790  157.2390  132.6660 C   0  0  0  0  0  0  0  0  0  0  0  0
  147.8920  156.2290  132.7700 C   0  0  0  0  0  0  0  0  0  0  0  0
  148.2790  154.7860  132.6080 C   0  0  0  0  0  0  0  0  0  0  0  0
  149.6370  154.6930  132.3590 F   0  0  0  0  0  0  0  0  0  0  0  0
  147.9780  154.0920  133.7640 F   0  0  0  0  0  0  0  0  0  0  0  0
  146.5500  156.5850  133.0380 C   0  0  0  0  0  0  0  0  0  0  0  0
  146.2380  157.9420  133.1780 C   0  0  0  0  0  0  0  0  0  0  0  0
  145.0400  158.5040  133.4550 N   0  0  0  0  0  0  0  0  0  0  0  0
  143.8110  157.8090  133.7160 C   0  0  0  0  0  0  0  0  0  0  0  0
  143.6690  157.1590  134.7880 O   0  0  0  0  0  0  0  0  0  0  0  0
  142.7680  157.8710  132.7870 O   0  0  0  0  0  0  0  0  0  0  0  0
  141.5020  157.2590  133.0080 C   0  0  0  0  0  0  0  0  0  0  0  0
  140.3930  158.2920  132.8350 C   0  0  0  0  0  0  0  0  0  0  0  0
  140.7780  159.2800  131.9170 O   0  0  0  0  0  0  0  0  0  0  0  0
  142.6340  160.0240  132.5980 H   0  0  0  0  0  0  0  0  0  0  0  0
  147.1032  161.1117  133.3287 H   0  0  0  0  0  0  0  0  0  0  0  0
  149.3046  159.3802  132.7553 H   0  0  0  0  0  0  0  0  0  0  0  0
  149.9219  156.9606  132.4544 H   0  0  0  0  0  0  0  0  0  0  0  0
  147.7206  154.3548  131.7641 H   0  0  0  0  0  0  0  0  0  0  0  0
  145.7708  155.8146  133.1340 H   0  0  0  0  0  0  0  0  0  0  0  0
  141.3586  156.4440  132.2832 H   0  0  0  0  0  0  0  0  0  0  0  0
  141.4667  156.8552  134.0306 H   0  0  0  0  0  0  0  0  0  0  0  0
  139.4858  157.7904  132.4671 H   0  0  0  0  0  0  0  0  0  0  0  0
  140.1968  158.7680  133.8071 H   0  0  0  0  0  0  0  0  0  0  0  0
  141.7590  159.3870  132.0110 H   0  0  0  0  0  0  0  0  0  0  0  0
  1  2  1  0
  2  3  2  0
  2  4  1  0
  4  5  2  0
  5  6  1  0
  6  7  2  0
  7  8  1  0
  8  9  2  0
  9 10  1  0
 10 11  1  0
 10 12  1  0
  9 13  1  0
 13 14  2  0
 14 15  1  0
 15 16  1  0
 16 17  2  0
 16 18  1  0
 18 19  1  0
 19 20  1  0
 20 21  1  0
 15  4  1  0
 14  6  1  0
  1 22  1  0
  5 23  1  0
  7 24  1  0
  8 25  1  0
 10 26  1  0
 13 27  1  0
 19 28  1  0
 19 29  1  0
 20 30  1  0
 20 31  1  0
 21 32  1  0
M  CHG  1   1  -1
M  END
>  <UniqueID>  (49) 
49

>  <SMILES>  (49) 
[NH-]C(=O)c1cc2ccc(C(F)F)cc2n1C(=O)OCCO

>  <Energy>  (49) 
66.31069518078252

>  <Genealogy>  (49) 
[NH-]C(=O)c1cc2ccc(C(F)F)cc2n1C(=O)OCCO (protonated)
[NH-]C(=O)c1cc2ccc(C(F)F)cc2n1C(=O)OCCO (3D coordinates assigned)
[NH-]C(=O)c1cc2ccc(C(F)F)cc2n1C(=O)OCCO (optimized conformer: 66.31069518078252 kcal/mol)

>  <smiles>  (49) 
NC(=O)c1cc2ccc(C(F)F)cc2n1C(=O)OCCO

>  <score_type>  (49) 
oracle

>  <origin>  (49) 
adg

>  <m_score__min__energy>  (49) 
-5.0999999999999996

>  <m_primary>  (49) 
energy

$$$$
49:0
     RDKit          3D

 37 38  0  0  0  0  0  0  0  0999 V2000
  144.2830  157.6400  133.3620 C   0  0  0  0  0  0  0  0  0  0  0  0
  143.5660  158.8010  132.9620 O   0  0  0  0  0  0  0  0  0  0  0  0
  142.8190  159.5730  133.8580 C   0  0  0  0  0  0  0  0  0  0  0  0
  143.3730  160.1120  134.8560 O   0  0  0  0  0  0  0  0  0  0  0  0
  141.3440  159.7380  133.6450 C   0  0  2  0  0  0  0  0  0  0  0  0
  140.5660  158.8890  134.6650 C   0  0  0  0  0  0  0  0  0  0  0  0
  140.4410  157.4610  134.2020 C   0  0  0  0  0  0  0  0  0  0  0  0
  139.3770  157.0850  133.3440 C   0  0  0  0  0  0  0  0  0  0  0  0
  139.2630  155.7620  132.8850 C   0  0  0  0  0  0  0  0  0  0  0  0
  140.2330  154.8470  133.2810 C   0  0  0  0  0  0  0  0  0  0  0  0
  140.3520  153.5050  132.9980 C   0  0  0  0  0  0  0  0  0  0  0  0
  141.5070  153.0910  133.6580 C   0  0  0  0  0  0  0  0  0  0  0  0
  142.0550  151.7220  133.5470 C   0  0  0  0  0  0  0  0  0  0  0  0
  141.2590  150.5840  133.8680 N   0  0  0  0  0  0  0  0  0  0  0  0
  143.2590  151.5580  133.2120 O   0  0  0  0  0  0  0  0  0  0  0  0
  142.0760  154.1320  134.3300 N   0  0  0  0  0  0  0  0  0  0  0  0
  143.2250  154.1030  135.1930 C   0  0  0  0  0  0  0  0  0  0  0  0
  143.2080  153.4240  136.2520 O   0  0  0  0  0  0  0  0  0  0  0  0
  144.3560  154.8460  134.8780 O   0  0  0  0  0  0  0  0  0  0  0  0
  141.2850  155.2010  134.0870 C   0  0  0  0  0  0  0  0  0  0  0  0
  141.4110  156.5040  134.5790 C   0  0  0  0  0  0  0  0  0  0  0  0
  141.0020  159.3400  132.2760 N   0  0  0  0  0  0  0  0  0  0  0  0
  139.7990  159.7620  131.6260 C   0  0  0  0  0  0  0  0  0  0  0  0
  138.9430  160.4550  132.2380 O   0  0  0  0  0  0  0  0  0  0  0  0
  139.5690  159.4040  130.3030 O   0  0  0  0  0  0  0  0  0  0  0  0
  144.3146  157.5888  134.4604 H   0  0  0  0  0  0  0  0  0  0  0  0
  143.7804  156.7446  132.9675 H   0  0  0  0  0  0  0  0  0  0  0  0
  145.3087  157.6885  132.9675 H   0  0  0  0  0  0  0  0  0  0  0  0
  141.0675  160.7927  133.7904 H   0  0  0  0  0  0  0  0  0  0  0  0
  141.0973  158.9089  135.6280 H   0  0  0  0  0  0  0  0  0  0  0  0
  139.5556  159.3107  134.7709 H   0  0  0  0  0  0  0  0  0  0  0  0
  138.6344  157.8354  133.0350 H   0  0  0  0  0  0  0  0  0  0  0  0
  138.4314  155.4588  132.2319 H   0  0  0  0  0  0  0  0  0  0  0  0
  139.6788  152.8906  132.3821 H   0  0  0  0  0  0  0  0  0  0  0  0
  140.2240  150.5980  133.7310 H   0  0  0  0  0  0  0  0  0  0  0  0
  142.2443  156.7776  135.2429 H   0  0  0  0  0  0  0  0  0  0  0  0
  141.7190  158.8410  131.7000 H   0  0  0  0  0  0  0  0  0  0  0  0
  1  2  1  0
  2  3  1  0
  3  4  2  0
  3  5  1  0
  5  6  1  0
  6  7  1  0
  7  8  2  0
  8  9  1  0
  9 10  2  0
 10 11  1  0
 11 12  2  0
 12 13  1  0
 13 14  1  0
 13 15  2  0
 12 16  1  0
 16 17  1  0
 17 18  2  0
 17 19  1  0
 16 20  1  0
 20 21  2  0
  5 22  1  0
 22 23  1  0
 23 24  2  0
 23 25  1  0
 21  7  1  0
 20 10  1  0
  1 26  1  0
  1 27  1  0
  1 28  1  0
  5 29  1  6
  6 30  1  0
  6 31  1  0
  8 32  1  0
  9 33  1  0
 11 34  1  0
 14 35  1  0
 21 36  1  0
 22 37  1  0
M  CHG  3  14  -1  19  -1  25  -1
M  END
>  <UniqueID>  (50) 
50

>  <SMILES>  (50) 
COC(=O)[C@H](Cc1ccc2cc(C([NH-])=O)n(C(=O)[O-])c2c1)NC(=O)[O-]

>  <Energy>  (50) 
70.1215887243431

>  <Genealogy>  (50) 
COC(=O)[C@H](Cc1ccc2cc(C([NH-])=O)n(C(=O)[O-])c2c1)NC(=O)[O-] (protonated)
COC(=O)[C@H](Cc1ccc2cc(C([NH-])=O)n(C(=O)[O-])c2c1)NC(=O)[O-] (3D coordinates assigned)
COC(=O)[C@H](Cc1ccc2cc(C([NH-])=O)n(C(=O)[O-])c2c1)NC(=O)[O-] (optimized conformer: 70.1215887243431 kcal/mol)

>  <smiles>  (50) 
COC(=O)[C@H](Cc1ccc2cc(C(N)=O)n(C(=O)O)c2c1)NC(=O)O

>  <score_type>  (50) 
oracle

>  <origin>  (50) 
adg

>  <m_score__min__energy>  (50) 
-6.5599999999999996

>  <m_primary>  (50) 
energy

$$$$
50:0
     RDKit          3D

 37 38  0  0  0  0  0  0  0  0999 V2000
  148.4890  161.3830  131.1100 N   0  0  0  0  0  0  0  0  0  0  0  0
  149.4920  160.7120  130.3530 C   0  0  0  0  0  0  0  0  0  0  0  0
  149.8770  161.1920  129.2540 O   0  0  0  0  0  0  0  0  0  0  0  0
  150.1420  159.4880  130.9030 C   0  0  0  0  0  0  0  0  0  0  0  0
  149.1280  158.5640  131.2870 O   0  0  0  0  0  0  0  0  0  0  0  0
  148.5160  158.5870  132.5450 C   0  0  0  0  0  0  0  0  0  0  0  0
  148.8450  159.4620  133.3910 O   0  0  0  0  0  0  0  0  0  0  0  0
  147.5220  157.5990  132.8730 N   0  0  0  0  0  0  0  0  0  0  0  0
  146.2530  157.8290  133.3120 C   0  0  0  0  0  0  0  0  0  0  0  0
  145.5910  159.1460  133.3820 C   0  0  0  0  0  0  0  0  0  0  0  0
  146.2250  160.3150  132.8590 N   0  0  0  0  0  0  0  0  0  0  0  0
  144.4340  159.2360  133.8740 O   0  0  0  0  0  0  0  0  0  0  0  0
  145.6180  156.6360  133.6450 C   0  0  0  0  0  0  0  0  0  0  0  0
  146.5400  155.6500  133.3800 C   0  0  0  0  0  0  0  0  0  0  0  0
  146.4380  154.2710  133.5250 C   0  0  0  0  0  0  0  0  0  0  0  0
  147.5540  153.4850  133.1930 C   0  0  0  0  0  0  0  0  0  0  0  0
  148.7580  154.0900  132.7410 C   0  0  0  0  0  0  0  0  0  0  0  0
  149.9200  153.3100  132.3950 N   0  0  0  0  0  0  0  0  0  0  0  0
  150.0550  151.8710  132.6150 C   0  0  0  0  0  0  0  0  0  0  0  0
  149.6240  151.0910  131.3760 C   0  0  0  0  0  0  0  0  0  0  0  0
  148.2960  150.7200  131.5030 F   0  0  0  0  0  0  0  0  0  0  0  0
  148.8210  155.4960  132.6110 C   0  0  0  0  0  0  0  0  0  0  0  0
  147.6830  156.2540  132.9210 C   0  0  0  0  0  0  0  0  0  0  0  0
  148.1750  161.0220  132.0360 H   0  0  0  0  0  0  0  0  0  0  0  0
  150.7848  159.0336  130.1347 H   0  0  0  0  0  0  0  0  0  0  0  0
  150.7581  159.7514  131.7754 H   0  0  0  0  0  0  0  0  0  0  0  0
  145.7810  161.2520  132.9890 H   0  0  0  0  0  0  0  0  0  0  0  0
  147.1220  160.2480  132.3300 H   0  0  0  0  0  0  0  0  0  0  0  0
  144.5978  156.5089  134.0362 H   0  0  0  0  0  0  0  0  0  0  0  0
  145.5091  153.8082  133.8896 H   0  0  0  0  0  0  0  0  0  0  0  0
  147.4954  152.3903  133.2838 H   0  0  0  0  0  0  0  0  0  0  0  0
  150.7030  153.7880  131.8920 H   0  0  0  0  0  0  0  0  0  0  0  0
  151.1060  151.6376  132.8406 H   0  0  0  0  0  0  0  0  0  0  0  0
  149.4093  151.5807  133.4569 H   0  0  0  0  0  0  0  0  0  0  0  0
  149.7443  151.7236  130.4842 H   0  0  0  0  0  0  0  0  0  0  0  0
  150.2480  150.1909  131.2739 H   0  0  0  0  0  0  0  0  0  0  0  0
  149.7457  155.9864  132.2729 H   0  0  0  0  0  0  0  0  0  0  0  0
  1  2  1  0
  2  3  2  0
  2  4  1  0
  4  5  1  0
  5  6  1  0
  6  7  2  0
  6  8  1  0
  8  9  1  0
  9 10  1  0
 10 11  1  0
 10 12  2  0
  9 13  2  0
 13 14  1  0
 14 15  2  0
 15 16  1  0
 16 17  2  0
 17 18  1  0
 18 19  1  0
 19 20  1  0
 20 21  1  0
 17 22  1  0
 22 23  2  0
 23  8  1  0
 23 14  1  0
  1 24  1  0
  4 25  1  0
  4 26  1  0
 11 27  1  0
 11 28  1  0
 13 29  1  0
 15 30  1  0
 16 31  1  0
 18 32  1  0
 19 33  1  0
 19 34  1  0
 20 35  1  0
 20 36  1  0
 22 37  1  0
M  CHG  1   1  -1
M  END
>  <UniqueID>  (51) 
51

>  <SMILES>  (51) 
[NH-]C(=O)COC(=O)n1c(C(N)=O)cc2ccc(NCCF)cc21

>  <Energy>  (51) 
70.06183875844863

>  <Genealogy>  (51) 
[NH-]C(=O)COC(=O)n1c(C(N)=O)cc2ccc(NCCF)cc21 (protonated)
[NH-]C(=O)COC(=O)n1c(C(N)=O)cc2ccc(NCCF)cc21 (3D coordinates assigned)
[NH-]C(=O)COC(=O)n1c(C(N)=O)cc2ccc(NCCF)cc21 (optimized conformer: 70.06183875844863 kcal/mol)

>  <smiles>  (51) 
NC(=O)COC(=O)n1c(C(N)=O)cc2ccc(NCCF)cc21

>  <score_type>  (51) 
oracle

>  <origin>  (51) 
adg

>  <m_score__min__energy>  (51) 
-6.0899999999999999

>  <m_primary>  (51) 
energy

$$$$
51:0
     RDKit          3D

 38 39  0  0  0  0  0  0  0  0999 V2000
  138.8000  158.4900  132.1880 C   0  0  0  0  0  0  0  0  0  0  0  0
  138.4940  157.8510  133.3160 C   0  0  0  0  0  0  0  0  0  0  0  0
  139.4750  157.6350  134.3990 C   0  0  0  0  0  0  0  0  0  0  0  0
  139.1070  157.6610  135.6060 O   0  0  0  0  0  0  0  0  0  0  0  0
  140.8560  157.3970  134.0840 N   0  0  0  0  0  0  0  0  0  0  0  0
  141.8990  158.2700  134.1900 C   0  0  0  0  0  0  0  0  0  0  0  0
  141.8010  159.7000  134.5570 C   0  0  0  0  0  0  0  0  0  0  0  0
  140.9420  160.1000  135.6230 N   0  0  0  0  0  0  0  0  0  0  0  0
  142.4830  160.5700  133.9560 O   0  0  0  0  0  0  0  0  0  0  0  0
  143.0930  157.6490  133.8260 C   0  0  0  0  0  0  0  0  0  0  0  0
  142.7470  156.3610  133.4900 C   0  0  0  0  0  0  0  0  0  0  0  0
  143.5440  155.3050  133.0630 C   0  0  0  0  0  0  0  0  0  0  0  0
  142.9210  154.0720  132.8070 C   0  0  0  0  0  0  0  0  0  0  0  0
  141.5240  153.9120  132.9810 C   0  0  0  0  0  0  0  0  0  0  0  0
  140.9300  152.6280  132.6950 N   0  0  0  0  0  0  0  0  0  0  0  0
  141.5030  151.3400  133.0870 C   0  0  0  0  0  0  0  0  0  0  0  0
  140.7360  150.1810  132.4430 C   0  0  0  0  0  0  0  0  0  0  0  0
  139.3730  150.6020  132.0980 N   0  0  0  0  0  0  0  0  0  0  0  0
  138.7160  149.5770  131.2840 C   0  0  0  0  0  0  0  0  0  0  0  0
  140.7470  155.0130  133.4220 C   0  0  0  0  0  0  0  0  0  0  0  0
  141.3940  156.2330  133.6560 C   0  0  0  0  0  0  0  0  0  0  0  0
  138.0357  158.6271  131.4089 H   0  0  0  0  0  0  0  0  0  0  0  0
  139.8170  158.8806  132.0356 H   0  0  0  0  0  0  0  0  0  0  0  0
  137.4706  157.4692  133.4461 H   0  0  0  0  0  0  0  0  0  0  0  0
  140.0330  159.6120  135.7940 H   0  0  0  0  0  0  0  0  0  0  0  0
  144.0986  158.0947  133.8108 H   0  0  0  0  0  0  0  0  0  0  0  0
  144.6286  155.4309  132.9297 H   0  0  0  0  0  0  0  0  0  0  0  0
  143.5263  153.2189  132.4667 H   0  0  0  0  0  0  0  0  0  0  0  0
  139.9960  152.6060  132.2250 H   0  0  0  0  0  0  0  0  0  0  0  0
  142.5537  151.3001  132.7638 H   0  0  0  0  0  0  0  0  0  0  0  0
  141.4331  151.2428  134.1805 H   0  0  0  0  0  0  0  0  0  0  0  0
  141.2596  149.8624  131.5296 H   0  0  0  0  0  0  0  0  0  0  0  0
  140.6828  149.3462  133.1573 H   0  0  0  0  0  0  0  0  0  0  0  0
  138.8230  150.6930  132.9840 H   0  0  0  0  0  0  0  0  0  0  0  0
  138.2405  148.8351  131.9423 H   0  0  0  0  0  0  0  0  0  0  0  0
  137.9509  150.0477  130.6491 H   0  0  0  0  0  0  0  0  0  0  0  0
  139.4632  149.0784  130.6491 H   0  0  0  0  0  0  0  0  0  0  0  0
  139.6626  154.9115  133.5766 H   0  0  0  0  0  0  0  0  0  0  0  0
  1  2  2  0
  2  3  1  0
  3  4  2  0
  3  5  1  0
  5  6  1  0
  6  7  1  0
  7  8  1  0
  7  9  2  0
  6 10  2  0
 10 11  1  0
 11 12  2  0
 12 13  1  0
 13 14  2  0
 14 15  1  0
 15 16  1  0
 16 17  1  0
 17 18  1  0
 18 19  1  0
 14 20  1  0
 20 21  2  0
 21  5  1  0
 21 11  1  0
  1 22  1  0
  1 23  1  0
  2 24  1  0
  8 25  1  0
 10 26  1  0
 12 27  1  0
 13 28  1  0
 15 29  1  0
 16 30  1  0
 16 31  1  0
 17 32  1  0
 17 33  1  0
 18 34  1  0
 19 35  1  0
 19 36  1  0
 19 37  1  0
 20 38  1  0
M  CHG  1   8  -1
M  END
>  <UniqueID>  (52) 
52

>  <SMILES>  (52) 
C=CC(=O)n1c(C([NH-])=O)cc2ccc(NCCNC)cc21

>  <Energy>  (52) 
71.64238124407895

>  <Genealogy>  (52) 
C=CC(=O)n1c(C([NH-])=O)cc2ccc(NCCNC)cc21 (protonated)
C=CC(=O)n1c(C([NH-])=O)cc2ccc(NCCNC)cc21 (3D coordinates assigned)
C=CC(=O)n1c(C([NH-])=O)cc2ccc(NCCNC)cc21 (optimized conformer: 71.64238124407895 kcal/mol)

>  <smiles>  (52) 
C=CC(=O)n1c(C(N)=O)cc2ccc(NCCNC)cc21

>  <score_type>  (52) 
oracle

>  <origin>  (52) 
adg

>  <m_score__min__energy>  (52) 
-6.9000000000000004

>  <m_primary>  (52) 
energy

$$$$
52:0
     RDKit          3D

 40 41  0  0  0  0  0  0  0  0999 V2000
  147.9430  160.4630  132.3130 C   0  0  0  0  0  0  0  0  0  0  0  0
  147.2560  159.6580  133.3260 N   0  0  0  0  0  0  0  0  0  0  0  0
  147.9360  158.4900  133.9020 C   0  0  0  0  0  0  0  0  0  0  0  0
  147.7770  157.2890  132.9960 C   0  0  0  0  0  0  0  0  0  0  0  0
  148.5500  157.1630  132.0560 O   0  0  0  0  0  0  0  0  0  0  0  0
  146.7630  156.2740  133.2210 N   0  0  0  0  0  0  0  0  0  0  0  0
  147.1670  154.9860  132.6350 C   0  0  0  0  0  0  0  0  0  0  0  0
  146.4570  156.1330  134.6540 C   0  0  0  0  0  0  0  0  0  0  0  0
  145.8500  159.8530  133.5620 C   0  0  0  0  0  0  0  0  0  0  0  0
  145.3420  161.1560  133.7920 C   0  0  0  0  0  0  0  0  0  0  0  0
  143.9780  161.3550  134.0620 C   0  0  0  0  0  0  0  0  0  0  0  0
  143.1480  160.2390  134.0870 C   0  0  0  0  0  0  0  0  0  0  0  0
  141.8020  160.1440  134.3520 C   0  0  0  0  0  0  0  0  0  0  0  0
  141.5010  158.7870  134.2540 C   0  0  0  0  0  0  0  0  0  0  0  0
  140.1310  158.2470  134.3820 C   0  0  0  0  0  0  0  0  0  0  0  0
  139.4580  158.3130  135.6380 N   0  0  0  0  0  0  0  0  0  0  0  0
  139.5330  157.7620  133.3870 O   0  0  0  0  0  0  0  0  0  0  0  0
  142.6190  158.0690  133.9470 N   0  0  0  0  0  0  0  0  0  0  0  0
  142.7450  156.6420  133.8330 C   0  0  0  0  0  0  0  0  0  0  0  0
  141.8690  155.8840  134.3260 O   0  0  0  0  0  0  0  0  0  0  0  0
  143.8210  156.0840  133.1510 O   0  0  0  0  0  0  0  0  0  0  0  0
  143.6190  158.9730  133.8440 C   0  0  0  0  0  0  0  0  0  0  0  0
  144.9760  158.7450  133.5880 C   0  0  0  0  0  0  0  0  0  0  0  0
  148.5805  161.2100  132.8087 H   0  0  0  0  0  0  0  0  0  0  0  0
  148.5654  159.8087  131.6849 H   0  0  0  0  0  0  0  0  0  0  0  0
  147.1990  160.9748  131.6849 H   0  0  0  0  0  0  0  0  0  0  0  0
  149.0061  158.7154  134.0209 H   0  0  0  0  0  0  0  0  0  0  0  0
  147.4875  158.2617  134.8801 H   0  0  0  0  0  0  0  0  0  0  0  0
  145.8800  156.5710  132.7420 H   0  0  0  0  0  0  0  0  0  0  0  0
  147.3913  154.2710  133.4403 H   0  0  0  0  0  0  0  0  0  0  0  0
  146.3489  154.5933  132.0133 H   0  0  0  0  0  0  0  0  0  0  0  0
  148.0628  155.1309  132.0133 H   0  0  0  0  0  0  0  0  0  0  0  0
  147.2977  156.5204  135.2483 H   0  0  0  0  0  0  0  0  0  0  0  0
  145.5465  156.7023  134.8923 H   0  0  0  0  0  0  0  0  0  0  0  0
  146.2982  155.0709  134.8923 H   0  0  0  0  0  0  0  0  0  0  0  0
  146.0224  162.0197  133.7588 H   0  0  0  0  0  0  0  0  0  0  0  0
  143.5783  162.3628  134.2480 H   0  0  0  0  0  0  0  0  0  0  0  0
  141.1099  160.9650  134.5907 H   0  0  0  0  0  0  0  0  0  0  0  0
  139.1070  159.2220  136.0110 H   0  0  0  0  0  0  0  0  0  0  0  0
  145.3524  157.7266  133.4113 H   0  0  0  0  0  0  0  0  0  0  0  0
  1  2  1  0
  2  3  1  0
  3  4  1  0
  4  5  2  0
  4  6  1  0
  6  7  1  0
  6  8  1  0
  2  9  1  0
  9 10  2  0
 10 11  1  0
 11 12  2  0
 12 13  1  0
 13 14  2  0
 14 15  1  0
 15 16  1  0
 15 17  2  0
 14 18  1  0
 18 19  1  0
 19 20  2  0
 19 21  1  0
 18 22  1  0
 22 23  2  0
 23  9  1  0
 22 12  1  0
  1 24  1  0
  1 25  1  0
  1 26  1  0
  3 27  1  0
  3 28  1  0
  6 29  1  0
  7 30  1  0
  7 31  1  0
  7 32  1  0
  8 33  1  0
  8 34  1  0
  8 35  1  0
 10 36  1  0
 11 37  1  0
 13 38  1  0
 16 39  1  0
 23 40  1  0
M  CHG  3   6   1  16  -1  21  -1
M  END
>  <UniqueID>  (53) 
53

>  <SMILES>  (53) 
CN(CC(=O)[NH+](C)C)c1ccc2cc(C([NH-])=O)n(C(=O)[O-])c2c1

>  <Energy>  (53) 
81.03543638296773

>  <Genealogy>  (53) 
CN(CC(=O)[NH+](C)C)c1ccc2cc(C([NH-])=O)n(C(=O)[O-])c2c1 (protonated)
CN(CC(=O)[NH+](C)C)c1ccc2cc(C([NH-])=O)n(C(=O)[O-])c2c1 (3D coordinates assigned)
CN(CC(=O)[NH+](C)C)c1ccc2cc(C([NH-])=O)n(C(=O)[O-])c2c1 (optimized conformer: 81.03543638296773 kcal/mol)

>  <smiles>  (53) 
CN(C)C(=O)CN(C)c1ccc2cc(C(N)=O)n(C(=O)O)c2c1

>  <score_type>  (53) 
oracle

>  <origin>  (53) 
adg

>  <m_score__min__energy>  (53) 
-6.2699999999999996

>  <m_primary>  (53) 
energy

$$$$
53:0
     RDKit          3D

 47 49  0  0  0  0  0  0  0  0999 V2000
  140.9690  159.1140  137.4540 C   0  0  0  0  0  0  0  0  0  0  0  0
  140.4110  158.0870  136.5580 N   0  0  0  0  0  0  0  0  0  0  0  0
  139.8730  158.6770  135.3130 C   0  0  0  0  0  0  0  0  0  0  0  0
  140.9880  159.2630  134.4290 C   0  0  0  0  0  0  0  0  0  0  0  0
  142.1900  158.4220  134.4840 N   0  0  0  0  0  0  0  0  0  0  0  0
  143.4710  158.9650  134.1100 C   0  0  0  0  0  0  0  0  0  0  0  0
  143.6800  160.3690  134.1010 C   0  0  0  0  0  0  0  0  0  0  0  0
  144.9220  160.9090  133.7330 C   0  0  0  0  0  0  0  0  0  0  0  0
  145.9340  160.0270  133.3650 C   0  0  0  0  0  0  0  0  0  0  0  0
  147.2340  160.2740  132.9870 C   0  0  0  0  0  0  0  0  0  0  0  0
  147.7890  159.0220  132.7360 C   0  0  0  0  0  0  0  0  0  0  0  0
  149.1690  158.8250  132.2440 C   0  0  0  0  0  0  0  0  0  0  0  0
  149.6510  157.5310  131.8790 N   0  0  0  0  0  0  0  0  0  0  0  0
  149.9220  159.8250  132.1020 O   0  0  0  0  0  0  0  0  0  0  0  0
  146.8750  158.0380  132.9700 N   0  0  0  0  0  0  0  0  0  0  0  0
  147.0720  156.6150  132.9240 C   0  0  0  0  0  0  0  0  0  0  0  0
  146.9740  156.0080  131.8250 O   0  0  0  0  0  0  0  0  0  0  0  0
  147.3550  155.8480  134.1470 C   0  0  0  0  0  0  0  0  0  0  0  0
  147.7950  156.4350  135.1730 O   0  0  0  0  0  0  0  0  0  0  0  0
  147.1160  154.4680  134.1630 O   0  0  0  0  0  0  0  0  0  0  0  0
  148.1550  153.4950  134.1070 C   0  0  0  0  0  0  0  0  0  0  0  0
  148.9650  153.6690  132.8620 C   0  0  0  0  0  0  0  0  0  0  0  0
  149.0660  152.7260  132.0340 O   0  0  0  0  0  0  0  0  0  0  0  0
  149.5860  154.8830  132.6040 O   0  0  0  0  0  0  0  0  0  0  0  0
  145.7430  158.6690  133.3450 C   0  0  0  0  0  0  0  0  0  0  0  0
  144.5210  158.1030  133.7210 C   0  0  0  0  0  0  0  0  0  0  0  0
  142.0500  157.0330  134.9310 C   0  0  0  0  0  0  0  0  0  0  0  0
  141.3760  156.9820  136.3160 C   0  0  0  0  0  0  0  0  0  0  0  0
  140.8067  158.8153  138.5001 H   0  0  0  0  0  0  0  0  0  0  0  0
  142.0477  159.2181  137.2655 H   0  0  0  0  0  0  0  0  0  0  0  0
  140.4694  160.0757  137.2655 H   0  0  0  0  0  0  0  0  0  0  0  0
  139.3447  157.8950  134.7479 H   0  0  0  0  0  0  0  0  0  0  0  0
  139.1910  159.4946  135.5894 H   0  0  0  0  0  0  0  0  0  0  0  0
  140.6331  159.3180  133.3893 H   0  0  0  0  0  0  0  0  0  0  0  0
  141.2418  160.2672  134.7994 H   0  0  0  0  0  0  0  0  0  0  0  0
  142.8581  161.0422  134.3861 H   0  0  0  0  0  0  0  0  0  0  0  0
  145.0906  161.9960  133.7353 H   0  0  0  0  0  0  0  0  0  0  0  0
  147.7293  161.2525  132.9014 H   0  0  0  0  0  0  0  0  0  0  0  0
  149.0070  156.7150  131.8030 H   0  0  0  0  0  0  0  0  0  0  0  0
  150.6460  157.4080  131.5890 H   0  0  0  0  0  0  0  0  0  0  0  0
  148.8086  153.6117  134.9840 H   0  0  0  0  0  0  0  0  0  0  0  0
  147.7045  152.4915  134.1025 H   0  0  0  0  0  0  0  0  0  0  0  0
  144.3803  157.0121  133.7141 H   0  0  0  0  0  0  0  0  0  0  0  0
  141.4341  156.4792  134.2071 H   0  0  0  0  0  0  0  0  0  0  0  0
  143.0488  156.5777  135.0022 H   0  0  0  0  0  0  0  0  0  0  0  0
  140.8378  156.0267  136.4042 H   0  0  0  0  0  0  0  0  0  0  0  0
  142.1756  157.0871  137.0640 H   0  0  0  0  0  0  0  0  0  0  0  0
  1  2  1  0
  2  3  1  0
  3  4  1  0
  4  5  1  0
  5  6  1  0
  6  7  2  0
  7  8  1  0
  8  9  2  0
  9 10  1  0
 10 11  2  0
 11 12  1  0
 12 13  1  0
 12 14  2  0
 11 15  1  0
 15 16  1  0
 16 17  2  0
 16 18  1  0
 18 19  2  0
 18 20  1  0
 20 21  1  0
 21 22  1  0
 22 23  2  0
 22 24  1  0
 15 25  1  0
 25 26  2  0
  5 27  1  0
 27 28  1  0
 28  2  1  0
 26  6  1  0
 25  9  1  0
  1 29  1  0
  1 30  1  0
  1 31  1  0
  3 32  1  0
  3 33  1  0
  4 34  1  0
  4 35  1  0
  7 36  1  0
  8 37  1  0
 10 38  1  0
 13 39  1  0
 13 40  1  0
 21 41  1  0
 21 42  1  0
 26 43  1  0
 27 44  1  0
 27 45  1  0
 28 46  1  0
 28 47  1  0
M  CHG  1  24  -1
M  END
>  <UniqueID>  (54) 
54

>  <SMILES>  (54) 
CN1CCN(c2ccc3cc(C(N)=O)n(C(=O)C(=O)OCC(=O)[O-])c3c2)CC1

>  <Energy>  (54) 
96.88908748293741

>  <Genealogy>  (54) 
CN1CCN(c2ccc3cc(C(N)=O)n(C(=O)C(=O)OCC(=O)[O-])c3c2)CC1 (protonated)
CN1CCN(c2ccc3cc(C(N)=O)n(C(=O)C(=O)OCC(=O)[O-])c3c2)CC1 (3D coordinates assigned)
CN1CCN(c2ccc3cc(C(N)=O)n(C(=O)C(=O)OCC(=O)[O-])c3c2)CC1 (nonaromatic ring conformer: 96.88908748293741 kcal/mol)

>  <smiles>  (54) 
CN1CCN(c2ccc3cc(C(N)=O)n(C(=O)C(=O)OCC(=O)O)c3c2)CC1

>  <score_type>  (54) 
oracle

>  <origin>  (54) 
adg

>  <m_score__min__energy>  (54) 
-8.3499999999999996

>  <m_primary>  (54) 
energy

$$$$
54:0
     RDKit          3D

 42 43  0  0  0  0  0  0  0  0999 V2000
  149.4810  151.2850  133.2660 C   0  0  0  0  0  0  0  0  0  0  0  0
  149.6090  152.3760  132.3630 O   0  0  0  0  0  0  0  0  0  0  0  0
  149.0030  153.6160  132.5840 C   0  0  0  0  0  0  0  0  0  0  0  0
  149.6120  154.6830  132.2960 O   0  0  0  0  0  0  0  0  0  0  0  0
  147.6500  153.6860  133.1660 C   0  0  0  0  0  0  0  0  0  0  0  0
  146.7160  153.0230  132.6400 O   0  0  0  0  0  0  0  0  0  0  0  0
  147.3610  154.4990  134.3940 C   0  0  0  0  0  0  0  0  0  0  0  0
  147.3810  155.8850  134.0720 O   0  0  0  0  0  0  0  0  0  0  0  0
  146.3720  156.5260  133.3510 C   0  0  0  0  0  0  0  0  0  0  0  0
  145.5080  155.8450  132.7340 O   0  0  0  0  0  0  0  0  0  0  0  0
  146.3280  157.9660  133.3030 N   0  0  0  0  0  0  0  0  0  0  0  0
  147.3590  158.8160  133.0300 C   0  0  0  0  0  0  0  0  0  0  0  0
  148.7060  158.4260  132.5690 C   0  0  0  0  0  0  0  0  0  0  0  0
  148.9930  157.0820  132.1820 N   0  0  0  0  0  0  0  0  0  0  0  0
  149.5990  159.3080  132.4530 O   0  0  0  0  0  0  0  0  0  0  0  0
  146.9550  160.1410  133.1580 C   0  0  0  0  0  0  0  0  0  0  0  0
  145.6250  160.0830  133.4980 C   0  0  0  0  0  0  0  0  0  0  0  0
  144.7220  161.1110  133.7300 C   0  0  0  0  0  0  0  0  0  0  0  0
  143.4020  160.7700  134.0650 C   0  0  0  0  0  0  0  0  0  0  0  0
  143.0000  159.4100  134.1770 C   0  0  0  0  0  0  0  0  0  0  0  0
  141.6310  159.0660  134.5190 N   0  0  0  0  0  0  0  0  0  0  0  0
  140.6260  158.8720  133.4680 C   0  0  0  0  0  0  0  0  0  0  0  0
  141.2310  158.8920  135.9220 C   0  0  0  0  0  0  0  0  0  0  0  0
  143.9630  158.3940  133.9430 C   0  0  0  0  0  0  0  0  0  0  0  0
  145.2680  158.7620  133.5830 C   0  0  0  0  0  0  0  0  0  0  0  0
  149.5247  151.6578  134.3000 H   0  0  0  0  0  0  0  0  0  0  0  0
  148.5176  150.7813  133.0983 H   0  0  0  0  0  0  0  0  0  0  0  0
  150.3017  150.5720  133.0983 H   0  0  0  0  0  0  0  0  0  0  0  0
  146.3687  154.2295  134.7849 H   0  0  0  0  0  0  0  0  0  0  0  0
  148.1284  154.2924  135.1545 H   0  0  0  0  0  0  0  0  0  0  0  0
  149.9560  156.8170  131.8820 H   0  0  0  0  0  0  0  0  0  0  0  0
  148.2340  156.3680  132.1190 H   0  0  0  0  0  0  0  0  0  0  0  0
  147.5692  161.0426  133.0171 H   0  0  0  0  0  0  0  0  0  0  0  0
  145.0319  162.1637  133.6535 H   0  0  0  0  0  0  0  0  0  0  0  0
  142.6662  161.5679  134.2439 H   0  0  0  0  0  0  0  0  0  0  0  0
  139.6453  158.6827  133.9289 H   0  0  0  0  0  0  0  0  0  0  0  0
  140.5693  159.7758  132.8435 H   0  0  0  0  0  0  0  0  0  0  0  0
  140.9098  158.0121  132.8435 H   0  0  0  0  0  0  0  0  0  0  0  0
  142.0393  159.2436  136.5800 H   0  0  0  0  0  0  0  0  0  0  0  0
  140.3189  159.4747  136.1182 H   0  0  0  0  0  0  0  0  0  0  0  0
  141.0354  157.8275  136.1182 H   0  0  0  0  0  0  0  0  0  0  0  0
  143.6900  157.3331  134.0425 H   0  0  0  0  0  0  0  0  0  0  0  0
  1  2  1  0
  2  3  1  0
  3  4  2  0
  3  5  1  0
  5  6  2  0
  5  7  1  0
  7  8  1  0
  8  9  1  0
  9 10  2  0
  9 11  1  0
 11 12  1  0
 12 13  1  0
 13 14  1  0
 13 15  2  0
 12 16  2  0
 16 17  1  0
 17 18  2  0
 18 19  1  0
 19 20  2  0
 20 21  1  0
 21 22  1  0
 21 23  1  0
 20 24  1  0
 24 25  2  0
 25 11  1  0
 25 17  1  0
  1 26  1  0
  1 27  1  0
  1 28  1  0
  7 29  1  0
  7 30  1  0
 14 31  1  0
 14 32  1  0
 16 33  1  0
 18 34  1  0
 19 35  1  0
 22 36  1  0
 22 37  1  0
 22 38  1  0
 23 39  1  0
 23 40  1  0
 23 41  1  0
 24 42  1  0
M  END
>  <UniqueID>  (55) 
55

>  <SMILES>  (55) 
COC(=O)C(=O)COC(=O)n1c(C(N)=O)cc2ccc(N(C)C)cc21

>  <Energy>  (55) 
75.90544826144777

>  <Genealogy>  (55) 
COC(=O)C(=O)COC(=O)n1c(C(N)=O)cc2ccc(N(C)C)cc21 (3D coordinates assigned)
COC(=O)C(=O)COC(=O)n1c(C(N)=O)cc2ccc(N(C)C)cc21 (optimized conformer: 75.90544826144777 kcal/mol)

>  <smiles>  (55) 
COC(=O)C(=O)COC(=O)n1c(C(N)=O)cc2ccc(N(C)C)cc21

>  <score_type>  (55) 
oracle

>  <origin>  (55) 
adg

>  <m_score__min__energy>  (55) 
-6.3399999999999999

>  <m_primary>  (55) 
energy

$$$$
55:0
     RDKit          3D

 44 46  0  0  0  0  0  0  0  0999 V2000
  148.9140  154.1750  132.6240 C   0  0  0  0  0  0  0  0  0  0  0  0
  147.8610  154.5270  133.4930 O   0  0  0  0  0  0  0  0  0  0  0  0
  146.7230  153.7200  133.2500 C   0  0  0  0  0  0  0  0  0  0  0  0
  145.6570  154.5390  132.5240 C   0  0  0  0  0  0  0  0  0  0  0  0
  145.9370  155.9340  132.6210 O   0  0  0  0  0  0  0  0  0  0  0  0
  145.7710  156.6750  133.7960 C   0  0  0  0  0  0  0  0  0  0  0  0
  145.7880  156.1010  134.9190 O   0  0  0  0  0  0  0  0  0  0  0  0
  145.6020  158.0990  133.7220 N   0  0  0  0  0  0  0  0  0  0  0  0
  146.5750  159.0540  133.7120 C   0  0  0  0  0  0  0  0  0  0  0  0
  148.0300  158.8080  133.6170 C   0  0  0  0  0  0  0  0  0  0  0  0
  148.5110  157.4910  133.3600 N   0  0  0  0  0  0  0  0  0  0  0  0
  148.8530  159.7420  133.7980 O   0  0  0  0  0  0  0  0  0  0  0  0
  146.0100  160.3270  133.7220 C   0  0  0  0  0  0  0  0  0  0  0  0
  144.6500  160.1230  133.7310 C   0  0  0  0  0  0  0  0  0  0  0  0
  143.6070  161.0440  133.7540 C   0  0  0  0  0  0  0  0  0  0  0  0
  142.2930  160.5500  133.7850 C   0  0  0  0  0  0  0  0  0  0  0  0
  142.0460  159.1550  133.7990 C   0  0  0  0  0  0  0  0  0  0  0  0
  140.6580  158.6440  133.8440 C   0  0  0  0  0  0  0  0  0  0  0  0
  140.0020  158.1420  134.9570 C   0  0  0  0  0  0  0  0  0  0  0  0
  140.4920  158.0540  136.3060 C   0  0  0  0  0  0  0  0  0  0  0  0
  140.8850  157.9830  137.3930 N   0  0  0  0  0  0  0  0  0  0  0  0
  138.7320  157.8130  134.5260 C   0  0  0  0  0  0  0  0  0  0  0  0
  138.6450  158.0960  133.2130 N   0  0  0  0  0  0  0  0  0  0  0  0
  139.8040  158.5850  132.7960 N   0  0  0  0  0  0  0  0  0  0  0  0
  140.0580  158.9940  131.4170 C   0  0  0  0  0  0  0  0  0  0  0  0
  143.1300  158.2500  133.7880 C   0  0  0  0  0  0  0  0  0  0  0  0
  144.4290  158.7700  133.7330 C   0  0  0  0  0  0  0  0  0  0  0  0
  149.7941  153.8808  133.2147 H   0  0  0  0  0  0  0  0  0  0  0  0
  148.6000  153.3330  131.9897 H   0  0  0  0  0  0  0  0  0  0  0  0
  149.1695  155.0366  131.9897 H   0  0  0  0  0  0  0  0  0  0  0  0
  147.0107  152.8601  132.6272 H   0  0  0  0  0  0  0  0  0  0  0  0
  146.3182  153.3627  134.2084 H   0  0  0  0  0  0  0  0  0  0  0  0
  145.6386  154.2477  131.4634 H   0  0  0  0  0  0  0  0  0  0  0  0
  144.6813  154.3418  132.9921 H   0  0  0  0  0  0  0  0  0  0  0  0
  147.8600  156.6750  133.3480 H   0  0  0  0  0  0  0  0  0  0  0  0
  146.5394  161.2912  133.7226 H   0  0  0  0  0  0  0  0  0  0  0  0
  143.8059  162.1259  133.7481 H   0  0  0  0  0  0  0  0  0  0  0  0
  141.4471  161.2530  133.7986 H   0  0  0  0  0  0  0  0  0  0  0  0
  137.9291  157.3919  135.1489 H   0  0  0  0  0  0  0  0  0  0  0  0
  137.8030  157.9540  132.6100 H   0  0  0  0  0  0  0  0  0  0  0  0
  140.6383  159.9285  131.4127 H   0  0  0  0  0  0  0  0  0  0  0  0
  140.6265  158.2069  130.8999 H   0  0  0  0  0  0  0  0  0  0  0  0
  139.1005  159.1546  130.8999 H   0  0  0  0  0  0  0  0  0  0  0  0
  142.9583  157.1640  133.8218 H   0  0  0  0  0  0  0  0  0  0  0  0
  1  2  1  0
  2  3  1  0
  3  4  1  0
  4  5  1  0
  5  6  1  0
  6  7  2  0
  6  8  1  0
  8  9  1  0
  9 10  1  0
 10 11  1  0
 10 12  2  0
  9 13  2  0
 13 14  1  0
 14 15  2  0
 15 16  1  0
 16 17  2  0
 17 18  1  0
 18 19  2  0
 19 20  1  0
 20 21  3  0
 19 22  1  0
 22 23  2  0
 23 24  1  0
 24 25  1  0
 17 26  1  0
 26 27  2  0
 27  8  1  0
 27 14  1  0
 24 18  1  0
  1 28  1  0
  1 29  1  0
  1 30  1  0
  3 31  1  0
  3 32  1  0
  4 33  1  0
  4 34  1  0
 11 35  1  0
 13 36  1  0
 15 37  1  0
 16 38  1  0
 22 39  1  0
 23 40  1  0
 25 41  1  0
 25 42  1  0
 25 43  1  0
 26 44  1  0
M  CHG  2  11  -1  23   1
M  END
>  <UniqueID>  (56) 
56

>  <SMILES>  (56) 
COCCOC(=O)n1c(C([NH-])=O)cc2ccc(-c3c(C#N)c[nH+]n3C)cc21

>  <Energy>  (56) 
118.01127663137058

>  <Genealogy>  (56) 
COCCOC(=O)n1c(C([NH-])=O)cc2ccc(-c3c(C#N)c[nH+]n3C)cc21 (protonated)
COCCOC(=O)n1c(C([NH-])=O)cc2ccc(-c3c(C#N)c[nH+]n3C)cc21 (3D coordinates assigned)
COCCOC(=O)n1c(C([NH-])=O)cc2ccc(-c3c(C#N)c[nH+]n3C)cc21 (optimized conformer: 118.01127663137058 kcal/mol)

>  <smiles>  (56) 
COCCOC(=O)n1c(C(N)=O)cc2ccc(-c3c(C#N)cnn3C)cc21

>  <score_type>  (56) 
oracle

>  <origin>  (56) 
adg

>  <m_score__min__energy>  (56) 
-7.3399999999999999

>  <m_primary>  (56) 
energy

$$$$
56:0
     RDKit          3D

 37 38  0  0  0  0  0  0  0  0999 V2000
  148.8490  154.3010  132.6010 C   0  0  0  0  0  0  0  0  0  0  0  0
  147.5570  154.9430  132.8770 N   0  0  0  0  0  0  0  0  0  0  0  0
  146.3570  154.1020  132.9720 C   0  0  0  0  0  0  0  0  0  0  0  0
  147.4660  156.3840  133.0320 C   0  0  0  0  0  0  0  0  0  0  0  0
  148.6230  157.2040  132.9050 C   0  0  0  0  0  0  0  0  0  0  0  0
  148.5430  158.6000  133.0380 C   0  0  0  0  0  0  0  0  0  0  0  0
  147.3010  159.1610  133.3120 C   0  0  0  0  0  0  0  0  0  0  0  0
  146.9420  160.4790  133.4640 C   0  0  0  0  0  0  0  0  0  0  0  0
  145.5720  160.4610  133.7110 C   0  0  0  0  0  0  0  0  0  0  0  0
  144.7830  161.6710  134.0180 C   0  0  0  0  0  0  0  0  0  0  0  0
  143.3860  161.6990  133.7270 N   0  0  0  0  0  0  0  0  0  0  0  0
  145.3370  162.6960  134.4940 O   0  0  0  0  0  0  0  0  0  0  0  0
  145.1010  159.1820  133.7070 N   0  0  0  0  0  0  0  0  0  0  0  0
  143.7350  158.7540  133.8290 C   0  0  0  0  0  0  0  0  0  0  0  0
  143.1990  158.0970  132.8960 O   0  0  0  0  0  0  0  0  0  0  0  0
  143.0090  159.0870  134.9810 O   0  0  0  0  0  0  0  0  0  0  0  0
  141.6450  159.4070  135.0100 C   0  0  0  0  0  0  0  0  0  0  0  0
  141.0160  159.6920  133.9540 O   0  0  0  0  0  0  0  0  0  0  0  0
  140.9160  159.3630  136.3130 C   0  0  0  0  0  0  0  0  0  0  0  0
  140.0680  158.1350  136.3820 C   0  0  0  0  0  0  0  0  0  0  0  0
  140.2210  157.3110  137.3230 O   0  0  0  0  0  0  0  0  0  0  0  0
  139.0880  157.9110  135.4240 O   0  0  0  0  0  0  0  0  0  0  0  0
  146.1750  158.3970  133.4600 C   0  0  0  0  0  0  0  0  0  0  0  0
  146.2190  157.0040  133.3120 C   0  0  0  0  0  0  0  0  0  0  0  0
  149.3460  154.0540  133.5507 H   0  0  0  0  0  0  0  0  0  0  0  0
  148.6846  153.3798  132.0228 H   0  0  0  0  0  0  0  0  0  0  0  0
  149.4839  154.9884  132.0228 H   0  0  0  0  0  0  0  0  0  0  0  0
  146.1123  153.9305  134.0306 H   0  0  0  0  0  0  0  0  0  0  0  0
  145.5144  154.6083  132.4783 H   0  0  0  0  0  0  0  0  0  0  0  0
  146.5453  153.1373  132.4783 H   0  0  0  0  0  0  0  0  0  0  0  0
  149.5969  156.7359  132.6991 H   0  0  0  0  0  0  0  0  0  0  0  0
  149.4373  159.2311  132.9285 H   0  0  0  0  0  0  0  0  0  0  0  0
  147.5975  161.3603  133.4034 H   0  0  0  0  0  0  0  0  0  0  0  0
  142.8310  160.8150  133.6770 H   0  0  0  0  0  0  0  0  0  0  0  0
  141.6439  159.3500  137.1376 H   0  0  0  0  0  0  0  0  0  0  0  0
  140.2730  160.2515  136.3975 H   0  0  0  0  0  0  0  0  0  0  0  0
  145.3040  156.4014  133.4109 H   0  0  0  0  0  0  0  0  0  0  0  0
  1  2  1  0
  2  3  1  0
  2  4  1  0
  4  5  2  0
  5  6  1  0
  6  7  2  0
  7  8  1  0
  8  9  2  0
  9 10  1  0
 10 11  1  0
 10 12  2  0
  9 13  1  0
 13 14  1  0
 14 15  2  0
 14 16  1  0
 16 17  1  0
 17 18  2  0
 17 19  1  0
 19 20  1  0
 20 21  2  0
 20 22  1  0
 13 23  1  0
 23 24  2  0
 24  4  1  0
 23  7  1  0
  1 25  1  0
  1 26  1  0
  1 27  1  0
  3 28  1  0
  3 29  1  0
  3 30  1  0
  5 31  1  0
  6 32  1  0
  8 33  1  0
 11 34  1  0
 19 35  1  0
 19 36  1  0
 24 37  1  0
M  CHG  2  11  -1  22  -1
M  END
>  <UniqueID>  (57) 
57

>  <SMILES>  (57) 
CN(C)c1ccc2cc(C([NH-])=O)n(C(=O)OC(=O)CC(=O)[O-])c2c1

>  <Energy>  (57) 
75.7275289198247

>  <Genealogy>  (57) 
CN(C)c1ccc2cc(C([NH-])=O)n(C(=O)OC(=O)CC(=O)[O-])c2c1 (protonated)
CN(C)c1ccc2cc(C([NH-])=O)n(C(=O)OC(=O)CC(=O)[O-])c2c1 (3D coordinates assigned)
CN(C)c1ccc2cc(C([NH-])=O)n(C(=O)OC(=O)CC(=O)[O-])c2c1 (optimized conformer: 75.7275289198247 kcal/mol)

>  <smiles>  (57) 
CN(C)c1ccc2cc(C(N)=O)n(C(=O)OC(=O)CC(=O)O)c2c1

>  <score_type>  (57) 
oracle

>  <origin>  (57) 
adg

>  <m_score__min__energy>  (57) 
-6.2300000000000004

>  <m_primary>  (57) 
energy

$$$$
57:0
     RDKit          3D

 43 44  0  0  0  0  0  0  0  0999 V2000
  149.6120  150.7570  134.0300 C   0  0  0  0  0  0  0  0  0  0  0  0
  150.2280  151.8390  133.3430 O   0  0  0  0  0  0  0  0  0  0  0  0
  149.5050  152.7400  132.5560 C   0  0  0  0  0  0  0  0  0  0  0  0
  149.5940  152.7110  131.2970 O   0  0  0  0  0  0  0  0  0  0  0  0
  148.6630  153.7870  133.2180 C   0  0  0  0  0  0  0  0  0  0  0  0
  147.7990  154.4480  132.2320 N   0  0  0  0  0  0  0  0  0  0  0  0
  147.6380  155.8390  132.5730 C   0  0  0  0  0  0  0  0  0  0  0  0
  148.7660  156.7000  132.6130 C   0  0  0  0  0  0  0  0  0  0  0  0
  148.6200  158.0600  132.9320 C   0  0  0  0  0  0  0  0  0  0  0  0
  147.3370  158.5360  133.1890 C   0  0  0  0  0  0  0  0  0  0  0  0
  146.9150  159.7970  133.5460 C   0  0  0  0  0  0  0  0  0  0  0  0
  145.5310  159.6970  133.6830 C   0  0  0  0  0  0  0  0  0  0  0  0
  144.6580  160.8500  133.9840 C   0  0  0  0  0  0  0  0  0  0  0  0
  143.2570  160.7950  133.7320 N   0  0  0  0  0  0  0  0  0  0  0  0
  145.1630  161.9160  134.4290 O   0  0  0  0  0  0  0  0  0  0  0  0
  145.1160  158.4250  133.4250 N   0  0  0  0  0  0  0  0  0  0  0  0
  143.7880  157.8940  133.5500 C   0  0  0  0  0  0  0  0  0  0  0  0
  142.9570  158.0540  132.6140 O   0  0  0  0  0  0  0  0  0  0  0  0
  143.4330  157.1780  134.6980 O   0  0  0  0  0  0  0  0  0  0  0  0
  142.1780  157.3280  135.3570 C   0  0  0  0  0  0  0  0  0  0  0  0
  141.6220  158.6960  135.1160 C   0  0  0  0  0  0  0  0  0  0  0  0
  141.9320  159.6430  135.8920 O   0  0  0  0  0  0  0  0  0  0  0  0
  140.7480  158.9060  134.0470 O   0  0  0  0  0  0  0  0  0  0  0  0
  139.8570  157.9010  133.5780 C   0  0  0  0  0  0  0  0  0  0  0  0
  146.2320  157.7270  133.1230 C   0  0  0  0  0  0  0  0  0  0  0  0
  146.3500  156.3640  132.8270 C   0  0  0  0  0  0  0  0  0  0  0  0
  149.7011  150.9134  135.1152 H   0  0  0  0  0  0  0  0  0  0  0  0
  148.5487  150.7047  133.7531 H   0  0  0  0  0  0  0  0  0  0  0  0
  150.1097  149.8159  133.7531 H   0  0  0  0  0  0  0  0  0  0  0  0
  148.0371  153.3144  133.9893 H   0  0  0  0  0  0  0  0  0  0  0  0
  149.3229  154.5390  133.6751 H   0  0  0  0  0  0  0  0  0  0  0  0
  148.2210  154.3660  131.2780 H   0  0  0  0  0  0  0  0  0  0  0  0
  146.8620  153.9790  132.2110 H   0  0  0  0  0  0  0  0  0  0  0  0
  149.7655  156.2975  132.3917 H   0  0  0  0  0  0  0  0  0  0  0  0
  149.4924  158.7285  132.9774 H   0  0  0  0  0  0  0  0  0  0  0  0
  147.5370  160.6924  133.6920 H   0  0  0  0  0  0  0  0  0  0  0  0
  142.7270  159.9010  133.8290 H   0  0  0  0  0  0  0  0  0  0  0  0
  141.4734  156.5771  134.9699 H   0  0  0  0  0  0  0  0  0  0  0  0
  142.3240  157.1878  136.4382 H   0  0  0  0  0  0  0  0  0  0  0  0
  139.4005  157.3861  134.4362 H   0  0  0  0  0  0  0  0  0  0  0  0
  139.0687  158.3657  132.9676 H   0  0  0  0  0  0  0  0  0  0  0  0
  140.4128  157.1741  132.9676 H   0  0  0  0  0  0  0  0  0  0  0  0
  145.4615  155.7165  132.7928 H   0  0  0  0  0  0  0  0  0  0  0  0
  1  2  1  0
  2  3  1  0
  3  4  2  0
  3  5  1  0
  5  6  1  0
  6  7  1  0
  7  8  2  0
  8  9  1  0
  9 10  2  0
 10 11  1  0
 11 12  2  0
 12 13  1  0
 13 14  1  0
 13 15  2  0
 12 16  1  0
 16 17  1  0
 17 18  2  0
 17 19  1  0
 19 20  1  0
 20 21  1  0
 21 22  2  0
 21 23  1  0
 23 24  1  0
 16 25  1  0
 25 26  2  0
 26  7  1  0
 25 10  1  0
  1 27  1  0
  1 28  1  0
  1 29  1  0
  5 30  1  0
  5 31  1  0
  6 32  1  0
  6 33  1  0
  8 34  1  0
  9 35  1  0
 11 36  1  0
 14 37  1  0
 20 38  1  0
 20 39  1  0
 24 40  1  0
 24 41  1  0
 24 42  1  0
 26 43  1  0
M  CHG  2   6   1  14  -1
M  END
>  <UniqueID>  (58) 
58

>  <SMILES>  (58) 
COC(=O)C[NH2+]c1ccc2cc(C([NH-])=O)n(C(=O)OCC(=O)OC)c2c1

>  <Energy>  (58) 
74.42770252627308

>  <Genealogy>  (58) 
COC(=O)C[NH2+]c1ccc2cc(C([NH-])=O)n(C(=O)OCC(=O)OC)c2c1 (protonated)
COC(=O)C[NH2+]c1ccc2cc(C([NH-])=O)n(C(=O)OCC(=O)OC)c2c1 (3D coordinates assigned)
COC(=O)C[NH2+]c1ccc2cc(C([NH-])=O)n(C(=O)OCC(=O)OC)c2c1 (optimized conformer: 74.42770252627308 kcal/mol)

>  <smiles>  (58) 
COC(=O)CNc1ccc2cc(C(N)=O)n(C(=O)OCC(=O)OC)c2c1

>  <score_type>  (58) 
oracle

>  <origin>  (58) 
adg

>  <m_score__min__energy>  (58) 
-5.71

>  <m_primary>  (58) 
energy

$$$$
58:0
     RDKit          3D

 45 47  0  0  0  0  0  0  0  0999 V2000
  148.7740  150.4130  132.4100 C   0  0  0  0  0  0  0  0  0  0  0  0
  148.4530  151.7310  132.9820 N   0  0  0  0  0  0  0  0  0  0  0  0
  149.6040  152.6670  132.8640 C   0  0  0  0  0  0  0  0  0  0  0  0
  149.2630  154.0120  132.1990 C   0  0  0  0  0  0  0  0  0  0  0  0
  148.0020  154.5490  132.7270 N   0  0  0  0  0  0  0  0  0  0  0  0
  147.7980  155.9760  132.8380 C   0  0  0  0  0  0  0  0  0  0  0  0
  148.8720  156.8750  132.6050 C   0  0  0  0  0  0  0  0  0  0  0  0
  148.6910  158.2620  132.7290 C   0  0  0  0  0  0  0  0  0  0  0  0
  147.4280  158.7270  133.0790 C   0  0  0  0  0  0  0  0  0  0  0  0
  146.9810  160.0130  133.2700 C   0  0  0  0  0  0  0  0  0  0  0  0
  145.6390  159.8870  133.6150 C   0  0  0  0  0  0  0  0  0  0  0  0
  144.7580  161.0410  133.8580 C   0  0  0  0  0  0  0  0  0  0  0  0
  143.3470  160.9370  133.6710 N   0  0  0  0  0  0  0  0  0  0  0  0
  145.2490  162.1130  134.3010 O   0  0  0  0  0  0  0  0  0  0  0  0
  145.2570  158.5790  133.6120 N   0  0  0  0  0  0  0  0  0  0  0  0
  143.9210  158.0560  133.7260 C   0  0  0  0  0  0  0  0  0  0  0  0
  143.4670  157.2730  132.8510 O   0  0  0  0  0  0  0  0  0  0  0  0
  143.1120  158.4030  134.8560 N   0  0  0  0  0  0  0  0  0  0  0  0
  141.6810  158.1430  134.9360 C   0  0  0  0  0  0  0  0  0  0  0  0
  140.9490  159.4040  135.2640 C   0  0  0  0  0  0  0  0  0  0  0  0
  140.2330  159.4740  136.2970 O   0  0  0  0  0  0  0  0  0  0  0  0
  141.0380  160.4980  134.4120 O   0  0  0  0  0  0  0  0  0  0  0  0
  146.3710  157.8800  133.2910 C   0  0  0  0  0  0  0  0  0  0  0  0
  146.5300  156.4930  133.1970 C   0  0  0  0  0  0  0  0  0  0  0  0
  146.8800  153.6310  132.9630 C   0  0  0  0  0  0  0  0  0  0  0  0
  147.1910  152.2380  132.4110 C   0  0  0  0  0  0  0  0  0  0  0  0
  148.9493  149.6932  133.2232 H   0  0  0  0  0  0  0  0  0  0  0  0
  147.9336  150.0679  131.7897 H   0  0  0  0  0  0  0  0  0  0  0  0
  149.6789  150.4930  131.7897 H   0  0  0  0  0  0  0  0  0  0  0  0
  149.9874  152.8702  133.8748 H   0  0  0  0  0  0  0  0  0  0  0  0
  150.3442  152.1748  132.2160 H   0  0  0  0  0  0  0  0  0  0  0  0
  150.0726  154.7292  132.3995 H   0  0  0  0  0  0  0  0  0  0  0  0
  149.1528  153.8525  131.1162 H   0  0  0  0  0  0  0  0  0  0  0  0
  149.8592  156.4797  132.3235 H   0  0  0  0  0  0  0  0  0  0  0  0
  149.5233  158.9597  132.5545 H   0  0  0  0  0  0  0  0  0  0  0  0
  147.5604  160.9428  133.1712 H   0  0  0  0  0  0  0  0  0  0  0  0
  142.7360  161.7730  133.8060 H   0  0  0  0  0  0  0  0  0  0  0  0
  142.9040  160.0140  133.4690 H   0  0  0  0  0  0  0  0  0  0  0  0
  141.3264  157.7572  133.9688 H   0  0  0  0  0  0  0  0  0  0  0  0
  141.4929  157.4009  135.7258 H   0  0  0  0  0  0  0  0  0  0  0  0
  145.6857  155.8172  133.3983 H   0  0  0  0  0  0  0  0  0  0  0  0
  146.6961  153.5572  134.0450 H   0  0  0  0  0  0  0  0  0  0  0  0
  145.9901  154.0230  132.4488 H   0  0  0  0  0  0  0  0  0  0  0  0
  146.3722  151.5522  132.6743 H   0  0  0  0  0  0  0  0  0  0  0  0
  147.2929  152.3010  131.3175 H   0  0  0  0  0  0  0  0  0  0  0  0
  1  2  1  0
  2  3  1  0
  3  4  1  0
  4  5  1  0
  5  6  1  0
  6  7  2  0
  7  8  1  0
  8  9  2  0
  9 10  1  0
 10 11  2  0
 11 12  1  0
 12 13  1  0
 12 14  2  0
 11 15  1  0
 15 16  1  0
 16 17  2  0
 16 18  1  0
 18 19  1  0
 19 20  1  0
 20 21  2  0
 20 22  1  0
 15 23  1  0
 23 24  2  0
  5 25  1  0
 25 26  1  0
 26  2  1  0
 24  6  1  0
 23  9  1  0
  1 27  1  0
  1 28  1  0
  1 29  1  0
  3 30  1  0
  3 31  1  0
  4 32  1  0
  4 33  1  0
  7 34  1  0
  8 35  1  0
 10 36  1  0
 13 37  1  0
 13 38  1  0
 19 39  1  0
 19 40  1  0
 24 41  1  0
 25 42  1  0
 25 43  1  0
 26 44  1  0
 26 45  1  0
M  CHG  2  18  -1  22  -1
M  END
>  <UniqueID>  (59) 
59

>  <SMILES>  (59) 
CN1CCN(c2ccc3cc(C(N)=O)n(C(=O)[N-]CC(=O)[O-])c3c2)CC1

>  <Energy>  (59) 
94.98574180050431

>  <Genealogy>  (59) 
CN1CCN(c2ccc3cc(C(N)=O)n(C(=O)[N-]CC(=O)[O-])c3c2)CC1 (protonated)
CN1CCN(c2ccc3cc(C(N)=O)n(C(=O)[N-]CC(=O)[O-])c3c2)CC1 (3D coordinates assigned)
CN1CCN(c2ccc3cc(C(N)=O)n(C(=O)[N-]CC(=O)[O-])c3c2)CC1 (nonaromatic ring conformer: 94.98574180050431 kcal/mol)

>  <smiles>  (59) 
CN1CCN(c2ccc3cc(C(N)=O)n(C(=O)NCC(=O)O)c3c2)CC1

>  <score_type>  (59) 
oracle

>  <origin>  (59) 
adg

>  <m_score__min__energy>  (59) 
-7.5300000000000002

>  <m_primary>  (59) 
energy

$$$$
59:0
     RDKit          3D

 39 41  0  0  0  0  0  0  0  0999 V2000
  139.0380  160.5280  131.9160 N   0  0  0  0  0  0  0  0  0  0  0  0
  140.1290  160.0510  132.6990 C   0  0  0  0  0  0  0  0  0  0  0  0
  140.8720  160.8780  133.2910 O   0  0  0  0  0  0  0  0  0  0  0  0
  140.3490  158.5970  132.8450 C   0  0  0  0  0  0  0  0  0  0  0  0
  139.3440  157.6490  132.6630 C   0  0  0  0  0  0  0  0  0  0  0  0
  139.9210  156.4400  132.9780 C   0  0  0  0  0  0  0  0  0  0  0  0
  139.3800  155.1580  132.9640 C   0  0  0  0  0  0  0  0  0  0  0  0
  140.2160  154.0860  133.3170 C   0  0  0  0  0  0  0  0  0  0  0  0
  141.5690  154.3120  133.6720 C   0  0  0  0  0  0  0  0  0  0  0  0
  142.4530  153.1530  134.0600 C   0  0  0  0  0  0  0  0  0  0  0  0
  141.7050  151.8090  134.0430 C   0  0  0  0  0  0  0  0  0  0  0  0
  142.2070  150.8240  132.9720 C   0  0  0  0  0  0  0  0  0  0  0  0
  141.0830  150.0900  132.2830 C   0  0  0  0  0  0  0  0  0  0  0  0
  141.3210  148.8610  131.6460 C   0  0  0  0  0  0  0  0  0  0  0  0
  140.2660  148.1940  131.0190 C   0  0  0  0  0  0  0  0  0  0  0  0
  139.0200  148.7370  131.0190 N   0  0  0  0  0  0  0  0  0  0  0  0
  138.7620  149.9300  131.6170 C   0  0  0  0  0  0  0  0  0  0  0  0
  139.7890  150.6300  132.2540 C   0  0  0  0  0  0  0  0  0  0  0  0
  142.0870  155.6260  133.6620 C   0  0  0  0  0  0  0  0  0  0  0  0
  141.2260  156.6770  133.3280 C   0  0  0  0  0  0  0  0  0  0  0  0
  141.5050  157.9980  133.2490 N   0  0  0  0  0  0  0  0  0  0  0  0
  142.7830  158.6160  133.4770 C   0  0  0  0  0  0  0  0  0  0  0  0
  143.7070  158.4980  132.6300 O   0  0  0  0  0  0  0  0  0  0  0  0
  143.0010  159.3750  134.6200 O   0  0  0  0  0  0  0  0  0  0  0  0
  138.3670  161.2300  132.3000 H   0  0  0  0  0  0  0  0  0  0  0  0
  138.3090  157.8289  132.3367 H   0  0  0  0  0  0  0  0  0  0  0  0
  138.3295  154.9893  132.6849 H   0  0  0  0  0  0  0  0  0  0  0  0
  139.8165  153.0611  133.3179 H   0  0  0  0  0  0  0  0  0  0  0  0
  143.2931  153.0979  133.3521 H   0  0  0  0  0  0  0  0  0  0  0  0
  142.8011  153.3284  135.0886 H   0  0  0  0  0  0  0  0  0  0  0  0
  141.8219  151.3361  135.0292 H   0  0  0  0  0  0  0  0  0  0  0  0
  140.6556  152.0330  133.8010 H   0  0  0  0  0  0  0  0  0  0  0  0
  142.7758  151.3857  132.2163 H   0  0  0  0  0  0  0  0  0  0  0  0
  142.8327  150.0739  133.4778 H   0  0  0  0  0  0  0  0  0  0  0  0
  142.3316  148.4266  131.6409 H   0  0  0  0  0  0  0  0  0  0  0  0
  140.4439  147.2277  130.5244 H   0  0  0  0  0  0  0  0  0  0  0  0
  137.7433  150.3446  131.5992 H   0  0  0  0  0  0  0  0  0  0  0  0
  139.5840  151.6000  132.7305 H   0  0  0  0  0  0  0  0  0  0  0  0
  143.1412  155.8182  133.9106 H   0  0  0  0  0  0  0  0  0  0  0  0
  1  2  1  0
  2  3  2  0
  2  4  1  0
  4  5  2  0
  5  6  1  0
  6  7  2  0
  7  8  1  0
  8  9  2  0
  9 10  1  0
 10 11  1  0
 11 12  1  0
 12 13  1  0
 13 14  2  0
 14 15  1  0
 15 16  2  0
 16 17  1  0
 17 18  2  0
  9 19  1  0
 19 20  2  0
 20 21  1  0
 21 22  1  0
 22 23  2  0
 22 24  1  0
 21  4  1  0
 20  6  1  0
 18 13  1  0
  1 25  1  0
  5 26  1  0
  7 27  1  0
  8 28  1  0
 10 29  1  0
 10 30  1  0
 11 31  1  0
 11 32  1  0
 12 33  1  0
 12 34  1  0
 14 35  1  0
 15 36  1  0
 17 37  1  0
 18 38  1  0
 19 39  1  0
M  CHG  2   1  -1  24  -1
M  END
>  <UniqueID>  (60) 
60

>  <SMILES>  (60) 
[NH-]C(=O)c1cc2ccc(CCCc3ccncc3)cc2n1C(=O)[O-]

>  <Energy>  (60) 
76.76101427929905

>  <Genealogy>  (60) 
[NH-]C(=O)c1cc2ccc(CCCc3ccncc3)cc2n1C(=O)[O-] (protonated)
[NH-]C(=O)c1cc2ccc(CCCc3ccncc3)cc2n1C(=O)[O-] (3D coordinates assigned)
[NH-]C(=O)c1cc2ccc(CCCc3ccncc3)cc2n1C(=O)[O-] (optimized conformer: 76.76101427929905 kcal/mol)

>  <smiles>  (60) 
NC(=O)c1cc2ccc(CCCc3ccncc3)cc2n1C(=O)O

>  <score_type>  (60) 
oracle

>  <origin>  (60) 
adg

>  <m_score__min__energy>  (60) 
-7.7400000000000002

>  <m_primary>  (60) 
energy

$$$$
60:0
     RDKit          3D

 29 30  0  0  0  0  0  0  0  0999 V2000
  149.1270  151.1100  131.9540 N   0  0  0  0  0  0  0  0  0  0  0  0
  149.3840  152.2100  132.2060 C   0  0  0  0  0  0  0  0  0  0  0  0
  149.7110  153.6020  132.5270 C   0  0  0  0  0  0  0  0  0  0  0  0
  148.4500  154.3860  132.7520 C   0  0  0  0  0  0  0  0  0  0  0  0
  147.2240  153.7120  132.9840 C   0  0  0  0  0  0  0  0  0  0  0  0
  146.0440  154.4340  133.2320 C   0  0  0  0  0  0  0  0  0  0  0  0
  146.1230  155.8240  133.2510 C   0  0  0  0  0  0  0  0  0  0  0  0
  145.1450  156.7650  133.4840 C   0  0  0  0  0  0  0  0  0  0  0  0
  145.7900  157.9990  133.3920 C   0  0  0  0  0  0  0  0  0  0  0  0
  145.1070  159.3090  133.4880 C   0  0  0  0  0  0  0  0  0  0  0  0
  145.6830  160.4810  132.9070 N   0  0  0  0  0  0  0  0  0  0  0  0
  144.0120  159.4050  134.1030 O   0  0  0  0  0  0  0  0  0  0  0  0
  147.1130  157.8210  133.1150 N   0  0  0  0  0  0  0  0  0  0  0  0
  148.1310  158.8250  132.9910 C   0  0  0  0  0  0  0  0  0  0  0  0
  148.1010  159.8400  133.7360 O   0  0  0  0  0  0  0  0  0  0  0  0
  149.1680  158.7300  131.9170 C   0  0  0  0  0  0  0  0  0  0  0  0
  148.9050  160.1590  130.6390 Br  0  0  0  0  0  0  0  0  0  0  0  0
  147.2990  156.4890  133.0280 C   0  0  0  0  0  0  0  0  0  0  0  0
  148.4910  155.7980  132.7880 C   0  0  0  0  0  0  0  0  0  0  0  0
  150.3258  153.6310  133.4387 H   0  0  0  0  0  0  0  0  0  0  0  0
  150.2675  154.0453  131.6881 H   0  0  0  0  0  0  0  0  0  0  0  0
  147.1963  152.6124  132.9697 H   0  0  0  0  0  0  0  0  0  0  0  0
  145.0885  153.9174  133.4056 H   0  0  0  0  0  0  0  0  0  0  0  0
  144.0814  156.5827  133.6973 H   0  0  0  0  0  0  0  0  0  0  0  0
  146.5540  160.4350  132.3360 H   0  0  0  0  0  0  0  0  0  0  0  0
  145.2080  161.4050  133.0150 H   0  0  0  0  0  0  0  0  0  0  0  0
  150.1689  158.8180  132.3648 H   0  0  0  0  0  0  0  0  0  0  0  0
  149.0792  157.7599  131.4061 H   0  0  0  0  0  0  0  0  0  0  0  0
  149.4356  156.3395  132.6314 H   0  0  0  0  0  0  0  0  0  0  0  0
  1  2  3  0
  2  3  1  0
  3  4  1  0
  4  5  2  0
  5  6  1  0
  6  7  2  0
  7  8  1  0
  8  9  2  0
  9 10  1  0
 10 11  1  0
 10 12  2  0
  9 13  1  0
 13 14  1  0
 14 15  2  0
 14 16  1  0
 16 17  1  0
 13 18  1  0
 18 19  2  0
 19  4  1  0
 18  7  1  0
  3 20  1  0
  3 21  1  0
  5 22  1  0
  6 23  1  0
  8 24  1  0
 11 25  1  0
 11 26  1  0
 16 27  1  0
 16 28  1  0
 19 29  1  0
M  END
>  <UniqueID>  (61) 
61

>  <SMILES>  (61) 
N#CCc1ccc2cc(C(N)=O)n(C(=O)CBr)c2c1

>  <Energy>  (61) 
65.44004999321267

>  <Genealogy>  (61) 
N#CCc1ccc2cc(C(N)=O)n(C(=O)CBr)c2c1 (3D coordinates assigned)
N#CCc1ccc2cc(C(N)=O)n(C(=O)CBr)c2c1 (optimized conformer: 65.44004999321267 kcal/mol)

>  <smiles>  (61) 
N#CCc1ccc2cc(C(N)=O)n(C(=O)CBr)c2c1

>  <score_type>  (61) 
oracle

>  <origin>  (61) 
adg

>  <m_score__min__energy>  (61) 
-7.2300000000000004

>  <m_primary>  (61) 
energy

$$$$
61:0
     RDKit          3D

 42 44  0  0  0  0  0  0  0  0999 V2000
  149.1390  154.4840  132.6060 C   0  0  0  0  0  0  0  0  0  0  0  0
  147.6600  154.8590  132.6530 C   0  0  0  0  0  0  0  0  0  0  0  0
  147.4930  156.3420  132.8390 C   0  0  0  0  0  0  0  0  0  0  0  0
  148.6060  157.2070  132.6870 C   0  0  0  0  0  0  0  0  0  0  0  0
  148.4580  158.5950  132.8410 C   0  0  0  0  0  0  0  0  0  0  0  0
  147.1890  159.0890  133.1270 C   0  0  0  0  0  0  0  0  0  0  0  0
  146.7720  160.3810  133.3510 C   0  0  0  0  0  0  0  0  0  0  0  0
  145.4030  160.2890  133.6020 C   0  0  0  0  0  0  0  0  0  0  0  0
  144.5330  161.4620  133.8250 C   0  0  0  0  0  0  0  0  0  0  0  0
  143.1170  161.3240  133.7310 N   0  0  0  0  0  0  0  0  0  0  0  0
  145.0240  162.5800  134.1340 O   0  0  0  0  0  0  0  0  0  0  0  0
  144.9930  158.9910  133.5370 N   0  0  0  0  0  0  0  0  0  0  0  0
  143.6840  158.4690  133.8140 C   0  0  0  0  0  0  0  0  0  0  0  0
  143.1980  158.5780  134.9720 O   0  0  0  0  0  0  0  0  0  0  0  0
  142.9450  157.8750  132.7840 O   0  0  0  0  0  0  0  0  0  0  0  0
  141.7370  157.1370  132.9860 C   0  0  0  0  0  0  0  0  0  0  0  0
  140.4930  158.0530  133.0380 C   0  0  0  0  0  0  0  0  0  0  0  0
  139.1800  157.2930  132.8010 C   0  0  0  0  0  0  0  0  0  0  0  0
  140.4320  159.0180  134.2100 C   0  0  0  0  0  0  0  0  0  0  0  0
  140.5550  160.1450  133.3730 O   0  0  0  0  0  0  0  0  0  0  0  0
  140.6110  159.3310  132.2240 C   0  0  0  0  0  0  0  0  0  0  0  0
  146.0970  158.2690  133.2460 C   0  0  0  0  0  0  0  0  0  0  0  0
  146.2180  156.8800  133.1170 C   0  0  0  0  0  0  0  0  0  0  0  0
  149.5252  154.3861  133.6313 H   0  0  0  0  0  0  0  0  0  0  0  0
  149.2580  153.5272  132.0764 H   0  0  0  0  0  0  0  0  0  0  0  0
  149.6995  155.2684  132.0764 H   0  0  0  0  0  0  0  0  0  0  0  0
  147.1809  154.5572  131.7100 H   0  0  0  0  0  0  0  0  0  0  0  0
  147.1908  154.3411  133.5025 H   0  0  0  0  0  0  0  0  0  0  0  0
  149.5939  156.7873  132.4464 H   0  0  0  0  0  0  0  0  0  0  0  0
  149.3194  159.2714  132.7386 H   0  0  0  0  0  0  0  0  0  0  0  0
  147.3874  161.2926  133.3354 H   0  0  0  0  0  0  0  0  0  0  0  0
  142.6590  160.3940  133.8580 H   0  0  0  0  0  0  0  0  0  0  0  0
  141.6161  156.4225  132.1584 H   0  0  0  0  0  0  0  0  0  0  0  0
  141.8157  156.6202  133.9538 H   0  0  0  0  0  0  0  0  0  0  0  0
  138.7279  157.0313  133.7691 H   0  0  0  0  0  0  0  0  0  0  0  0
  138.4858  157.9289  132.2321 H   0  0  0  0  0  0  0  0  0  0  0  0
  139.3857  156.3743  132.2321 H   0  0  0  0  0  0  0  0  0  0  0  0
  139.4796  158.9814  134.7591 H   0  0  0  0  0  0  0  0  0  0  0  0
  141.1410  158.8919  135.0416 H   0  0  0  0  0  0  0  0  0  0  0  0
  139.7704  159.4898  131.5325 H   0  0  0  0  0  0  0  0  0  0  0  0
  141.4573  159.4451  131.5306 H   0  0  0  0  0  0  0  0  0  0  0  0
  145.3417  156.2247  133.2295 H   0  0  0  0  0  0  0  0  0  0  0  0
  1  2  1  0
  2  3  1  0
  3  4  2  0
  4  5  1  0
  5  6  2  0
  6  7  1  0
  7  8  2  0
  8  9  1  0
  9 10  1  0
  9 11  2  0
  8 12  1  0
 12 13  1  0
 13 14  2  0
 13 15  1  0
 15 16  1  0
 16 17  1  0
 17 18  1  0
 17 19  1  0
 19 20  1  0
 20 21  1  0
 12 22  1  0
 22 23  2  0
 23  3  1  0
 22  6  1  0
 21 17  1  0
  1 24  1  0
  1 25  1  0
  1 26  1  0
  2 27  1  0
  2 28  1  0
  4 29  1  0
  5 30  1  0
  7 31  1  0
 10 32  1  0
 16 33  1  0
 16 34  1  0
 18 35  1  0
 18 36  1  0
 18 37  1  0
 19 38  1  0
 19 39  1  0
 21 40  1  0
 21 41  1  0
 23 42  1  0
M  CHG  1  10  -1
M  END
>  <UniqueID>  (62) 
62

>  <SMILES>  (62) 
CCc1ccc2cc(C([NH-])=O)n(C(=O)OCC3(C)COC3)c2c1

>  <Energy>  (62) 
141.71842685216305

>  <Genealogy>  (62) 
CCc1ccc2cc(C([NH-])=O)n(C(=O)OCC3(C)COC3)c2c1 (protonated)
CCc1ccc2cc(C([NH-])=O)n(C(=O)OCC3(C)COC3)c2c1 (3D coordinates assigned)
CCc1ccc2cc(C([NH-])=O)n(C(=O)OCC3(C)COC3)c2c1 (nonaromatic ring conformer: 141.71842685216305 kcal/mol)

>  <smiles>  (62) 
CCc1ccc2cc(C(N)=O)n(C(=O)OCC3(C)COC3)c2c1

>  <score_type>  (62) 
oracle

>  <origin>  (62) 
adg

>  <m_score__min__energy>  (62) 
-7.5099999999999998

>  <m_primary>  (62) 
energy

$$$$
62:0
     RDKit          3D

 35 36  0  0  0  0  0  0  0  0999 V2000
  146.5820  160.4790  132.9500 N   0  0  0  0  0  0  0  0  0  0  0  0
  145.8470  159.3360  133.3880 C   0  0  0  0  0  0  0  0  0  0  0  0
  144.6740  159.4860  133.8220 O   0  0  0  0  0  0  0  0  0  0  0  0
  146.4120  157.9750  133.2830 C   0  0  0  0  0  0  0  0  0  0  0  0
  145.6520  156.8170  133.4120 C   0  0  0  0  0  0  0  0  0  0  0  0
  146.5270  155.7800  133.1850 C   0  0  0  0  0  0  0  0  0  0  0  0
  146.3110  154.4060  133.2080 C   0  0  0  0  0  0  0  0  0  0  0  0
  147.4100  153.5610  132.9800 C   0  0  0  0  0  0  0  0  0  0  0  0
  148.6970  154.1020  132.7360 C   0  0  0  0  0  0  0  0  0  0  0  0
  149.8760  153.1870  132.5390 C   0  0  0  0  0  0  0  0  0  0  0  0
  149.4260  151.7440  132.2930 C   0  0  0  0  0  0  0  0  0  0  0  0
  150.4840  150.9660  131.8020 O   0  0  0  0  0  0  0  0  0  0  0  0
  148.8810  155.5020  132.7320 C   0  0  0  0  0  0  0  0  0  0  0  0
  147.7650  156.3210  132.9410 C   0  0  0  0  0  0  0  0  0  0  0  0
  147.7110  157.6710  133.0020 N   0  0  0  0  0  0  0  0  0  0  0  0
  148.8200  158.5780  132.9060 C   0  0  0  0  0  0  0  0  0  0  0  0
  148.9520  159.5030  133.7530 O   0  0  0  0  0  0  0  0  0  0  0  0
  149.7530  158.4310  131.8720 O   0  0  0  0  0  0  0  0  0  0  0  0
  150.0050  159.4370  130.8960 C   0  0  0  0  0  0  0  0  0  0  0  0
  148.9040  160.4490  130.8990 C   0  0  0  0  0  0  0  0  0  0  0  0
  149.0580  161.5550  131.4800 O   0  0  0  0  0  0  0  0  0  0  0  0
  147.6940  160.1580  130.2820 O   0  0  0  0  0  0  0  0  0  0  0  0
  146.1830  161.4370  133.0700 H   0  0  0  0  0  0  0  0  0  0  0  0
  147.4800  160.3760  132.4290 H   0  0  0  0  0  0  0  0  0  0  0  0
  144.5795  156.7457  133.6458 H   0  0  0  0  0  0  0  0  0  0  0  0
  145.3094  153.9933  133.3990 H   0  0  0  0  0  0  0  0  0  0  0  0
  147.2703  152.4700  132.9910 H   0  0  0  0  0  0  0  0  0  0  0  0
  150.4576  153.5336  131.6720 H   0  0  0  0  0  0  0  0  0  0  0  0
  150.4884  153.2086  133.4525 H   0  0  0  0  0  0  0  0  0  0  0  0
  149.0703  151.3115  133.2398 H   0  0  0  0  0  0  0  0  0  0  0  0
  148.6187  151.7505  131.5458 H   0  0  0  0  0  0  0  0  0  0  0  0
  151.3000  151.5270  131.8620 H   0  0  0  0  0  0  0  0  0  0  0  0
  149.8773  155.9386  132.5686 H   0  0  0  0  0  0  0  0  0  0  0  0
  150.9576  159.9362  131.1268 H   0  0  0  0  0  0  0  0  0  0  0  0
  150.0572  158.9674  129.9027 H   0  0  0  0  0  0  0  0  0  0  0  0
  1  2  1  0
  2  3  2  0
  2  4  1  0
  4  5  2  0
  5  6  1  0
  6  7  2  0
  7  8  1  0
  8  9  2  0
  9 10  1  0
 10 11  1  0
 11 12  1  0
  9 13  1  0
 13 14  2  0
 14 15  1  0
 15 16  1  0
 16 17  2  0
 16 18  1  0
 18 19  1  0
 19 20  1  0
 20 21  2  0
 20 22  1  0
 15  4  1  0
 14  6  1  0
  1 23  1  0
  1 24  1  0
  5 25  1  0
  7 26  1  0
  8 27  1  0
 10 28  1  0
 10 29  1  0
 11 30  1  0
 11 31  1  0
 12 32  1  0
 13 33  1  0
 19 34  1  0
 19 35  1  0
M  CHG  1  22  -1
M  END
>  <UniqueID>  (63) 
63

>  <SMILES>  (63) 
NC(=O)c1cc2ccc(CCO)cc2n1C(=O)OCC(=O)[O-]

>  <Energy>  (63) 
69.41647886876622

>  <Genealogy>  (63) 
NC(=O)c1cc2ccc(CCO)cc2n1C(=O)OCC(=O)[O-] (protonated)
NC(=O)c1cc2ccc(CCO)cc2n1C(=O)OCC(=O)[O-] (3D coordinates assigned)
NC(=O)c1cc2ccc(CCO)cc2n1C(=O)OCC(=O)[O-] (optimized conformer: 69.41647886876622 kcal/mol)

>  <smiles>  (63) 
NC(=O)c1cc2ccc(CCO)cc2n1C(=O)OCC(=O)O

>  <score_type>  (63) 
oracle

>  <origin>  (63) 
adg

>  <m_score__min__energy>  (63) 
-6.4800000000000004

>  <m_primary>  (63) 
energy

$$$$
63:0
     RDKit          3D

 39 41  0  0  0  0  0  0  0  0999 V2000
  146.3410  152.7480  139.3710 C   0  0  0  0  0  0  0  0  0  0  0  0
  146.9970  153.9930  139.1660 O   0  0  0  0  0  0  0  0  0  0  0  0
  148.2280  154.0970  138.5110 C   0  0  0  0  0  0  0  0  0  0  0  0
  149.1650  154.7810  139.0060 O   0  0  0  0  0  0  0  0  0  0  0  0
  148.4190  153.4230  137.1880 C   0  0  0  0  0  0  0  0  0  0  0  0
  147.2880  153.6410  136.3470 O   0  0  0  0  0  0  0  0  0  0  0  0
  147.3470  154.3770  135.1580 C   0  0  0  0  0  0  0  0  0  0  0  0
  148.3060  154.2160  134.3540 O   0  0  0  0  0  0  0  0  0  0  0  0
  146.3180  155.3320  134.8630 N   0  0  0  0  0  0  0  0  0  0  0  0
  144.9730  155.1920  135.0360 C   0  0  0  0  0  0  0  0  0  0  0  0
  144.2980  154.0690  135.7200 C   0  0  0  0  0  0  0  0  0  0  0  0
  144.6490  153.7050  137.0530 N   0  0  0  0  0  0  0  0  0  0  0  0
  143.3660  153.4520  135.1370 O   0  0  0  0  0  0  0  0  0  0  0  0
  144.2990  156.3110  134.5510 C   0  0  0  0  0  0  0  0  0  0  0  0
  145.2840  157.1530  134.0840 C   0  0  0  0  0  0  0  0  0  0  0  0
  145.1810  158.4080  133.4900 C   0  0  0  0  0  0  0  0  0  0  0  0
  146.3660  159.0420  133.0810 C   0  0  0  0  0  0  0  0  0  0  0  0
  147.6260  158.4180  133.2640 C   0  0  0  0  0  0  0  0  0  0  0  0
  148.8750  159.1420  132.7940 C   0  0  0  0  0  0  0  0  0  0  0  0
  148.6360  160.2520  131.7940 C   0  0  0  0  0  0  0  0  0  0  0  0
  149.3180  159.5670  130.7690 O   0  0  0  0  0  0  0  0  0  0  0  0
  149.5970  158.4910  131.6350 C   0  0  0  0  0  0  0  0  0  0  0  0
  147.6860  157.1390  133.8720 C   0  0  0  0  0  0  0  0  0  0  0  0
  146.4920  156.5400  134.2840 C   0  0  0  0  0  0  0  0  0  0  0  0
  146.2416  152.5593  140.4501 H   0  0  0  0  0  0  0  0  0  0  0  0
  145.3424  152.7795  138.9107 H   0  0  0  0  0  0  0  0  0  0  0  0
  146.9316  151.9422  138.9107 H   0  0  0  0  0  0  0  0  0  0  0  0
  149.3165  153.8312  136.7003 H   0  0  0  0  0  0  0  0  0  0  0  0
  148.5352  152.3418  137.3537 H   0  0  0  0  0  0  0  0  0  0  0  0
  145.4990  154.1000  137.5130 H   0  0  0  0  0  0  0  0  0  0  0  0
  143.2128  156.4847  134.5428 H   0  0  0  0  0  0  0  0  0  0  0  0
  144.2020  158.8883  133.3454 H   0  0  0  0  0  0  0  0  0  0  0  0
  146.3157  160.0359  132.6124 H   0  0  0  0  0  0  0  0  0  0  0  0
  149.3223  159.2962  133.7871 H   0  0  0  0  0  0  0  0  0  0  0  0
  147.5717  160.4223  131.5744 H   0  0  0  0  0  0  0  0  0  0  0  0
  148.9487  161.2751  132.0498 H   0  0  0  0  0  0  0  0  0  0  0  0
  149.1439  157.5414  131.3141 H   0  0  0  0  0  0  0  0  0  0  0  0
  150.6415  158.1733  131.7696 H   0  0  0  0  0  0  0  0  0  0  0  0
  148.6501  156.6294  134.0163 H   0  0  0  0  0  0  0  0  0  0  0  0
  1  2  1  0
  2  3  1  0
  3  4  2  0
  3  5  1  0
  5  6  1  0
  6  7  1  0
  7  8  2  0
  7  9  1  0
  9 10  1  0
 10 11  1  0
 11 12  1  0
 11 13  2  0
 10 14  2  0
 14 15  1  0
 15 16  2  0
 16 17  1  0
 17 18  2  0
 18 19  1  0
 19 20  1  0
 20 21  1  0
 21 22  1  0
 18 23  1  0
 23 24  2  0
 24  9  1  0
 24 15  1  0
 22 19  1  0
  1 25  1  0
  1 26  1  0
  1 27  1  0
  5 28  1  0
  5 29  1  0
 12 30  1  0
 14 31  1  0
 16 32  1  0
 17 33  1  0
 19 34  1  0
 20 35  1  0
 20 36  1  0
 22 37  1  0
 22 38  1  0
 23 39  1  0
M  CHG  1  12  -1
M  END
>  <UniqueID>  (64) 
64

>  <SMILES>  (64) 
COC(=O)COC(=O)n1c(C([NH-])=O)cc2ccc(C3COC3)cc21

>  <Energy>  (64) 
139.78926922465493

>  <Genealogy>  (64) 
COC(=O)COC(=O)n1c(C([NH-])=O)cc2ccc(C3COC3)cc21 (protonated)
COC(=O)COC(=O)n1c(C([NH-])=O)cc2ccc(C3COC3)cc21 (3D coordinates assigned)
COC(=O)COC(=O)n1c(C([NH-])=O)cc2ccc(C3COC3)cc21 (nonaromatic ring conformer: 139.78926922465493 kcal/mol)

>  <smiles>  (64) 
COC(=O)COC(=O)n1c(C(N)=O)cc2ccc(C3COC3)cc21

>  <score_type>  (64) 
oracle

>  <origin>  (64) 
adg

>  <m_score__min__energy>  (64) 
-6.4000000000000004

>  <m_primary>  (64) 
energy

$$$$
64:0
     RDKit          3D

 35 36  0  0  0  0  0  0  0  0999 V2000
  140.6670  159.7580  134.3430 N   0  0  0  0  0  0  0  0  0  0  0  0
  141.8240  160.4860  133.9460 C   0  0  0  0  0  0  0  0  0  0  0  0
  141.7250  161.7240  133.7310 O   0  0  0  0  0  0  0  0  0  0  0  0
  143.1390  159.8230  133.8000 C   0  0  0  0  0  0  0  0  0  0  0  0
  144.3170  160.5090  133.5070 C   0  0  0  0  0  0  0  0  0  0  0  0
  145.3040  159.5500  133.4800 C   0  0  0  0  0  0  0  0  0  0  0  0
  146.6610  159.6700  133.2010 C   0  0  0  0  0  0  0  0  0  0  0  0
  147.4380  158.4990  133.1960 C   0  0  0  0  0  0  0  0  0  0  0  0
  146.8520  157.2380  133.4760 C   0  0  0  0  0  0  0  0  0  0  0  0
  147.6820  155.9810  133.4050 C   0  0  0  0  0  0  0  0  0  0  0  0
  147.0050  154.9850  132.7230 F   0  0  0  0  0  0  0  0  0  0  0  0
  148.8760  156.2210  132.7470 F   0  0  0  0  0  0  0  0  0  0  0  0
  147.9550  155.5440  134.6870 F   0  0  0  0  0  0  0  0  0  0  0  0
  145.4630  157.1570  133.7280 C   0  0  0  0  0  0  0  0  0  0  0  0
  144.7190  158.3420  133.7500 C   0  0  0  0  0  0  0  0  0  0  0  0
  143.3930  158.4920  133.9550 N   0  0  0  0  0  0  0  0  0  0  0  0
  142.4540  157.4400  134.2270 C   0  0  0  0  0  0  0  0  0  0  0  0
  141.6060  157.1170  133.3530 O   0  0  0  0  0  0  0  0  0  0  0  0
  142.4440  156.7490  135.5570 C   0  0  0  0  0  0  0  0  0  0  0  0
  141.2610  157.5170  136.6500 S   0  0  0  0  0  0  0  0  0  0  0  0
  141.5730  158.9810  136.7730 O   0  0  0  0  0  0  0  0  0  0  0  0
  139.8730  157.3490  136.0980 O   0  0  0  0  0  0  0  0  0  0  0  0
  141.3560  156.7700  138.2670 C   0  0  0  0  0  0  0  0  0  0  0  0
  140.9190  155.3420  138.2110 C   0  0  0  0  0  0  0  0  0  0  0  0
  141.4940  154.5330  137.4350 O   0  0  0  0  0  0  0  0  0  0  0  0
  139.8500  154.9120  138.9850 O   0  0  0  0  0  0  0  0  0  0  0  0
  140.7450  158.7890  134.7240 H   0  0  0  0  0  0  0  0  0  0  0  0
  144.4331  161.5891  133.3339 H   0  0  0  0  0  0  0  0  0  0  0  0
  147.1122  160.6509  132.9908 H   0  0  0  0  0  0  0  0  0  0  0  0
  148.5132  158.5611  132.9723 H   0  0  0  0  0  0  0  0  0  0  0  0
  144.9785  156.1850  133.9027 H   0  0  0  0  0  0  0  0  0  0  0  0
  142.1726  155.6926  135.4143 H   0  0  0  0  0  0  0  0  0  0  0  0
  143.4454  156.8254  136.0057 H   0  0  0  0  0  0  0  0  0  0  0  0
  142.3944  156.8168  138.6268 H   0  0  0  0  0  0  0  0  0  0  0  0
  140.6921  157.3184  138.9515 H   0  0  0  0  0  0  0  0  0  0  0  0
  1  2  1  0
  2  3  2  0
  2  4  1  0
  4  5  2  0
  5  6  1  0
  6  7  2  0
  7  8  1  0
  8  9  2  0
  9 10  1  0
 10 11  1  0
 10 12  1  0
 10 13  1  0
  9 14  1  0
 14 15  2  0
 15 16  1  0
 16 17  1  0
 17 18  2  0
 17 19  1  0
 19 20  1  0
 20 21  2  0
 20 22  2  0
 20 23  1  0
 23 24  1  0
 24 25  2  0
 24 26  1  0
 16  4  1  0
 15  6  1  0
  1 27  1  0
  5 28  1  0
  7 29  1  0
  8 30  1  0
 14 31  1  0
 19 32  1  0
 19 33  1  0
 23 34  1  0
 23 35  1  0
M  CHG  2   1  -1  26  -1
M  END
>  <UniqueID>  (65) 
65

>  <SMILES>  (65) 
[NH-]C(=O)c1cc2ccc(C(F)(F)F)cc2n1C(=O)CS(=O)(=O)CC(=O)[O-]

>  <Energy>  (65) 
66.16148134106497

>  <Genealogy>  (65) 
[NH-]C(=O)c1cc2ccc(C(F)(F)F)cc2n1C(=O)CS(=O)(=O)CC(=O)[O-] (protonated)
[NH-]C(=O)c1cc2ccc(C(F)(F)F)cc2n1C(=O)CS(=O)(=O)CC(=O)[O-] (3D coordinates assigned)
[NH-]C(=O)c1cc2ccc(C(F)(F)F)cc2n1C(=O)CS(=O)(=O)CC(=O)[O-] (optimized conformer: 66.16148134106497 kcal/mol)

>  <smiles>  (65) 
NC(=O)c1cc2ccc(C(F)(F)F)cc2n1C(=O)CS(=O)(=O)CC(=O)O

>  <score_type>  (65) 
oracle

>  <origin>  (65) 
adg

>  <m_score__min__energy>  (65) 
-6.4500000000000002

>  <m_primary>  (65) 
energy

$$$$
65:0
     RDKit          3D

 42 44  0  0  0  0  0  0  0  0999 V2000
  141.7690  158.6020  134.6290 C   0  0  0  0  0  0  0  0  0  0  0  0
  143.0990  159.1020  134.1520 C   0  0  0  0  0  0  0  0  0  0  0  0
  143.3610  160.4930  134.1140 C   0  0  0  0  0  0  0  0  0  0  0  0
  144.6210  160.9740  133.7170 C   0  0  0  0  0  0  0  0  0  0  0  0
  145.5930  160.0410  133.3690 C   0  0  0  0  0  0  0  0  0  0  0  0
  146.9020  160.2310  132.9860 C   0  0  0  0  0  0  0  0  0  0  0  0
  147.4140  158.9530  132.7830 C   0  0  0  0  0  0  0  0  0  0  0  0
  148.7840  158.6950  132.2960 C   0  0  0  0  0  0  0  0  0  0  0  0
  149.1850  157.3920  131.8700 N   0  0  0  0  0  0  0  0  0  0  0  0
  149.5980  159.6520  132.2030 O   0  0  0  0  0  0  0  0  0  0  0  0
  146.4670  158.0070  133.0430 N   0  0  0  0  0  0  0  0  0  0  0  0
  146.6410  156.5810  133.0660 C   0  0  0  0  0  0  0  0  0  0  0  0
  145.8080  155.8370  132.4800 O   0  0  0  0  0  0  0  0  0  0  0  0
  147.7550  156.0100  133.7650 N   0  0  0  0  0  0  0  0  0  0  0  0
  148.4880  154.8590  133.3370 C   0  0  0  0  0  0  0  0  0  0  0  0
  148.3080  153.6160  133.8240 N   0  0  0  0  0  0  0  0  0  0  0  0
  149.2150  152.9250  133.1010 C   0  0  0  0  0  0  0  0  0  0  0  0
  149.4240  151.4400  133.2250 C   0  0  0  0  0  0  0  0  0  0  0  0
  148.8040  150.6640  132.1280 N   0  0  0  0  0  0  0  0  0  0  0  0
  147.4050  151.0510  131.8890 C   0  0  0  0  0  0  0  0  0  0  0  0
  149.5880  150.7290  130.8850 C   0  0  0  0  0  0  0  0  0  0  0  0
  149.8940  153.7050  132.2340 N   0  0  0  0  0  0  0  0  0  0  0  0
  149.4130  154.8970  132.4140 O   0  0  0  0  0  0  0  0  0  0  0  0
  145.3560  158.6910  133.3970 C   0  0  0  0  0  0  0  0  0  0  0  0
  144.1170  158.1850  133.8090 C   0  0  0  0  0  0  0  0  0  0  0  0
  141.7526  158.5958  135.7289 H   0  0  0  0  0  0  0  0  0  0  0  0
  140.9731  159.2623  134.2541 H   0  0  0  0  0  0  0  0  0  0  0  0
  141.6052  157.5809  134.2541 H   0  0  0  0  0  0  0  0  0  0  0  0
  142.5711  161.2040  134.3978 H   0  0  0  0  0  0  0  0  0  0  0  0
  144.8317  162.0531  133.6826 H   0  0  0  0  0  0  0  0  0  0  0  0
  147.4301  161.1885  132.8661 H   0  0  0  0  0  0  0  0  0  0  0  0
  150.1700  157.2200  131.5680 H   0  0  0  0  0  0  0  0  0  0  0  0
  148.4930  156.6180  131.7790 H   0  0  0  0  0  0  0  0  0  0  0  0
  150.5055  151.2393  133.2257 H   0  0  0  0  0  0  0  0  0  0  0  0
  148.9406  151.1218  134.1604 H   0  0  0  0  0  0  0  0  0  0  0  0
  146.8939  151.1924  132.8528 H   0  0  0  0  0  0  0  0  0  0  0  0
  147.3769  151.9906  131.3178 H   0  0  0  0  0  0  0  0  0  0  0  0
  146.8980  150.2594  131.3178 H   0  0  0  0  0  0  0  0  0  0  0  0
  150.6567  150.8176  131.1298 H   0  0  0  0  0  0  0  0  0  0  0  0
  149.4210  149.8139  130.2979 H   0  0  0  0  0  0  0  0  0  0  0  0
  149.2725  151.6041  130.2979 H   0  0  0  0  0  0  0  0  0  0  0  0
  143.9410  157.1006  133.8641 H   0  0  0  0  0  0  0  0  0  0  0  0
  1  2  1  0
  2  3  2  0
  3  4  1  0
  4  5  2  0
  5  6  1  0
  6  7  2  0
  7  8  1  0
  8  9  1  0
  8 10  2  0
  7 11  1  0
 11 12  1  0
 12 13  2  0
 12 14  1  0
 14 15  1  0
 15 16  2  0
 16 17  1  0
 17 18  1  0
 18 19  1  0
 19 20  1  0
 19 21  1  0
 17 22  2  0
 22 23  1  0
 11 24  1  0
 24 25  2  0
 25  2  1  0
 24  5  1  0
 23 15  1  0
  1 26  1  0
  1 27  1  0
  1 28  1  0
  3 29  1  0
  4 30  1  0
  6 31  1  0
  9 32  1  0
  9 33  1  0
 18 34  1  0
 18 35  1  0
 20 36  1  0
 20 37  1  0
 20 38  1  0
 21 39  1  0
 21 40  1  0
 21 41  1  0
 25 42  1  0
M  CHG  1  14  -1
M  END
>  <UniqueID>  (66) 
66

>  <SMILES>  (66) 
Cc1ccc2cc(C(N)=O)n(C(=O)[N-]c3nc(CN(C)C)no3)c2c1

>  <Energy>  (66) 
117.48882480212434

>  <Genealogy>  (66) 
Cc1ccc2cc(C(N)=O)n(C(=O)[N-]c3nc(CN(C)C)no3)c2c1 (protonated)
Cc1ccc2cc(C(N)=O)n(C(=O)[N-]c3nc(CN(C)C)no3)c2c1 (3D coordinates assigned)
Cc1ccc2cc(C(N)=O)n(C(=O)[N-]c3nc(CN(C)C)no3)c2c1 (optimized conformer: 117.48882480212434 kcal/mol)

>  <smiles>  (66) 
Cc1ccc2cc(C(N)=O)n(C(=O)Nc3nc(CN(C)C)no3)c2c1

>  <score_type>  (66) 
oracle

>  <origin>  (66) 
adg

>  <m_score__min__energy>  (66) 
-7.9100000000000001

>  <m_primary>  (66) 
energy

$$$$
66:0
     RDKit          3D

 40 41  0  0  0  0  0  0  0  0999 V2000
  144.2222  155.7865  133.8771 H   0  0  0  0  0  0  0  0  0  0  0  0
  145.3160  155.8430  133.9790 C   0  0  0  0  0  0  0  0  0  0  0  0
  146.0420  156.6910  133.0060 C   0  0  0  0  0  0  0  0  0  0  0  0
  146.7180  156.1790  132.0740 O   0  0  0  0  0  0  0  0  0  0  0  0
  146.0210  158.1190  133.1520 N   0  0  0  0  0  0  0  0  0  0  0  0
  147.0890  158.9620  133.1600 C   0  0  0  0  0  0  0  0  0  0  0  0
  148.4970  158.5570  132.9280 C   0  0  0  0  0  0  0  0  0  0  0  0
  149.3300  159.3940  132.4930 O   0  0  0  0  0  0  0  0  0  0  0  0
  148.9360  157.2250  133.2010 N   0  0  0  0  0  0  0  0  0  0  0  0
  149.9370  156.9670  133.0570 H   0  0  0  0  0  0  0  0  0  0  0  0
  148.2720  156.4800  133.5050 H   0  0  0  0  0  0  0  0  0  0  0  0
  146.6650  160.2760  133.3660 C   0  0  0  0  0  0  0  0  0  0  0  0
  147.2918  161.1786  133.4156 H   0  0  0  0  0  0  0  0  0  0  0  0
  145.2960  160.2030  133.4940 C   0  0  0  0  0  0  0  0  0  0  0  0
  144.3640  161.2050  133.7440 C   0  0  0  0  0  0  0  0  0  0  0  0
  144.6740  162.2561  133.8395 H   0  0  0  0  0  0  0  0  0  0  0  0
  143.0140  160.8340  133.8710 C   0  0  0  0  0  0  0  0  0  0  0  0
  142.2554  161.6036  134.0765 H   0  0  0  0  0  0  0  0  0  0  0  0
  142.6190  159.4770  133.7370 C   0  0  0  0  0  0  0  0  0  0  0  0
  141.1780  159.0850  133.9430 C   0  0  0  0  0  0  0  0  0  0  0  0
  140.3780  159.8350  133.1020 F   0  0  0  0  0  0  0  0  0  0  0  0
  140.7920  159.3100  135.2540 F   0  0  0  0  0  0  0  0  0  0  0  0
  140.9950  157.7420  133.6630 F   0  0  0  0  0  0  0  0  0  0  0  0
  143.6010  158.4860  133.5070 C   0  0  0  0  0  0  0  0  0  0  0  0
  143.3237  157.4235  133.4413 H   0  0  0  0  0  0  0  0  0  0  0  0
  144.9330  158.8880  133.3650 C   0  0  0  0  0  0  0  0  0  0  0  0
  145.8780  155.1340  134.9790 C   0  0  0  0  0  0  0  0  0  0  0  0
  147.3370  154.9820  135.1500 C   0  0  0  0  0  0  0  0  0  0  0  0
  148.0310  155.9450  135.5810 O   0  0  0  0  0  0  0  0  0  0  0  0
  147.9500  153.7820  134.7700 O   0  0  0  0  0  0  0  0  0  0  0  0
  147.9300  153.2830  133.4360 C   0  0  0  0  0  0  0  0  0  0  0  0
  147.8532  152.1860  133.4608 H   0  0  0  0  0  0  0  0  0  0  0  0
  147.0650  153.7114  132.9084 H   0  0  0  0  0  0  0  0  0  0  0  0
  149.1800  153.6730  132.7130 C   0  0  0  0  0  0  0  0  0  0  0  0
  149.5000  154.8860  132.6120 O   0  0  0  0  0  0  0  0  0  0  0  0
  149.9770  152.7000  132.1240 O   0  0  0  0  0  0  0  0  0  0  0  0
  144.9810  154.4810  135.9930 C   0  0  0  0  0  0  0  0  0  0  0  0
  145.3278  154.7335  137.0059 H   0  0  0  0  0  0  0  0  0  0  0  0
  143.9508  154.8419  135.8576 H   0  0  0  0  0  0  0  0  0  0  0  0
  145.0080  153.3897  135.8576 H   0  0  0  0  0  0  0  0  0  0  0  0
  1  2  1  0
  2  3  1  0
  3  4  2  0
  3  5  1  0
  5  6  1  0
  6  7  1  0
  7  8  2  0
  7  9  1  0
  9 10  1  0
  9 11  1  0
  6 12  2  0
 12 13  1  0
 12 14  1  0
 14 15  2  0
 15 16  1  0
 15 17  1  0
 17 18  1  0
 17 19  2  0
 19 20  1  0
 20 21  1  0
 20 22  1  0
 20 23  1  0
 19 24  1  0
 24 25  1  0
 24 26  2  0
  2 27  2  0
 27 28  1  0
 28 29  2  0
 28 30  1  0
 30 31  1  0
 31 32  1  0
 31 33  1  0
 31 34  1  0
 34 35  2  0
 34 36  1  0
 27 37  1  0
 37 38  1  0
 37 39  1  0
 37 40  1  0
 26  5  1  0
 26 14  1  0
M  CHG  1  36  -1
M  END
>  <UniqueID>  (67) 
67

>  <SMILES>  (67) 
C/C(=C/C(=O)n1c(C(N)=O)cc2ccc(C(F)(F)F)cc21)C(=O)OCC(=O)[O-]

>  <Energy>  (67) 
84.04703402947347

>  <Genealogy>  (67) 
CC(=CC(=O)n1c(C(N)=O)cc2ccc(C(F)(F)F)cc21)C(=O)OCC(=O)[O-] (protonated)
C/C(=C/C(=O)n1c(C(N)=O)cc2ccc(C(F)(F)F)cc21)C(=O)OCC(=O)[O-] (cis-trans isomerization)
C/C(=C/C(=O)n1c(C(N)=O)cc2ccc(C(F)(F)F)cc21)C(=O)OCC(=O)[O-] (3D coordinates assigned)
C/C(=C/C(=O)n1c(C(N)=O)cc2ccc(C(F)(F)F)cc21)C(=O)OCC(=O)[O-] (optimized conformer: 84.04703402947347 kcal/mol)

>  <smiles>  (67) 
CC(=CC(=O)n1c(C(N)=O)cc2ccc(C(F)(F)F)cc21)C(=O)OCC(=O)O

>  <score_type>  (67) 
oracle

>  <origin>  (67) 
adg

>  <m_score__min__energy>  (67) 
-7.0999999999999996

>  <m_primary>  (67) 
energy

$$$$
67:0
     RDKit          3D

 54 56  0  0  0  0  0  0  0  0999 V2000
  138.4270  160.4240  129.9500 C   0  0  0  0  0  0  0  0  0  0  0  0
  138.6980  159.2140  130.7440 N   0  0  0  0  0  0  0  0  0  0  0  0
  137.5520  158.9440  131.6290 C   0  0  0  0  0  0  0  0  0  0  0  0
  139.9430  159.3950  131.5210 C   0  0  0  0  0  0  0  0  0  0  0  0
  139.8720  160.6160  132.4490 C   0  0  0  0  0  0  0  0  0  0  0  0
  141.0050  160.6500  133.3120 O   0  0  0  0  0  0  0  0  0  0  0  0
  141.1680  159.7460  134.3670 C   0  0  0  0  0  0  0  0  0  0  0  0
  141.0350  160.1330  135.5590 O   0  0  0  0  0  0  0  0  0  0  0  0
  141.4450  158.3640  134.0880 N   0  0  0  0  0  0  0  0  0  0  0  0
  140.6040  157.3040  134.2410 C   0  0  0  0  0  0  0  0  0  0  0  0
  139.1550  157.3860  134.5010 C   0  0  0  0  0  0  0  0  0  0  0  0
  138.6380  158.2350  135.5240 N   0  0  0  0  0  0  0  0  0  0  0  0
  138.3560  156.7540  133.7610 O   0  0  0  0  0  0  0  0  0  0  0  0
  141.2810  156.1050  134.0390 C   0  0  0  0  0  0  0  0  0  0  0  0
  142.5760  156.4640  133.7440 C   0  0  0  0  0  0  0  0  0  0  0  0
  143.6830  155.6690  133.4730 C   0  0  0  0  0  0  0  0  0  0  0  0
  144.9130  156.3080  133.2440 C   0  0  0  0  0  0  0  0  0  0  0  0
  145.0200  157.7250  133.2960 C   0  0  0  0  0  0  0  0  0  0  0  0
  146.2930  158.3700  133.0720 N   0  0  0  0  0  0  0  0  0  0  0  0
  147.5490  157.6600  133.3510 C   0  0  0  0  0  0  0  0  0  0  0  0
  148.6750  158.2220  132.4780 C   0  0  0  0  0  0  0  0  0  0  0  0
  148.8730  159.6770  132.6860 N   0  0  0  0  0  0  0  0  0  0  0  0
  149.5680  160.2650  131.5290 C   0  0  0  0  0  0  0  0  0  0  0  0
  147.6360  160.4320  133.0090 C   0  0  0  0  0  0  0  0  0  0  0  0
  146.3570  159.7340  132.5300 C   0  0  0  0  0  0  0  0  0  0  0  0
  143.8660  158.4950  133.5790 C   0  0  0  0  0  0  0  0  0  0  0  0
  142.6500  157.8320  133.7830 C   0  0  0  0  0  0  0  0  0  0  0  0
  138.2373  161.2711  130.6256 H   0  0  0  0  0  0  0  0  0  0  0  0
  139.2971  160.6487  129.3156 H   0  0  0  0  0  0  0  0  0  0  0  0
  137.5442  160.2562  129.3156 H   0  0  0  0  0  0  0  0  0  0  0  0
  137.8733  159.0197  132.6783 H   0  0  0  0  0  0  0  0  0  0  0  0
  136.7575  159.6795  131.4348 H   0  0  0  0  0  0  0  0  0  0  0  0
  137.1694  157.9311  131.4348 H   0  0  0  0  0  0  0  0  0  0  0  0
  140.1146  158.4956  132.1306 H   0  0  0  0  0  0  0  0  0  0  0  0
  140.7659  159.5577  130.8094 H   0  0  0  0  0  0  0  0  0  0  0  0
  139.8516  161.5326  131.8412 H   0  0  0  0  0  0  0  0  0  0  0  0
  138.9598  160.5475  133.0600 H   0  0  0  0  0  0  0  0  0  0  0  0
  137.6080  158.2930  135.6830 H   0  0  0  0  0  0  0  0  0  0  0  0
  139.2640  158.8680  136.0690 H   0  0  0  0  0  0  0  0  0  0  0  0
  140.8686  155.0872  134.1018 H   0  0  0  0  0  0  0  0  0  0  0  0
  143.5988  154.5728  133.4388 H   0  0  0  0  0  0  0  0  0  0  0  0
  145.8051  155.7042  133.0215 H   0  0  0  0  0  0  0  0  0  0  0  0
  147.8119  157.7883  134.4114 H   0  0  0  0  0  0  0  0  0  0  0  0
  147.4169  156.5915  133.1254 H   0  0  0  0  0  0  0  0  0  0  0  0
  149.6101  157.6984  132.7258 H   0  0  0  0  0  0  0  0  0  0  0  0
  148.3955  158.0666  131.4255 H   0  0  0  0  0  0  0  0  0  0  0  0
  150.3633  160.9379  131.8821 H   0  0  0  0  0  0  0  0  0  0  0  0
  150.0101  159.4626  130.9202 H   0  0  0  0  0  0  0  0  0  0  0  0
  148.8499  160.8339  130.9202 H   0  0  0  0  0  0  0  0  0  0  0  0
  147.5780  160.5567  134.1004 H   0  0  0  0  0  0  0  0  0  0  0  0
  147.6967  161.3969  132.4843 H   0  0  0  0  0  0  0  0  0  0  0  0
  145.4810  160.3036  132.8739 H   0  0  0  0  0  0  0  0  0  0  0  0
  146.3636  159.6848  131.4311 H   0  0  0  0  0  0  0  0  0  0  0  0
  143.9237  159.5919  133.6374 H   0  0  0  0  0  0  0  0  0  0  0  0
  1  2  1  0
  2  3  1  0
  2  4  1  0
  4  5  1  0
  5  6  1  0
  6  7  1  0
  7  8  2  0
  7  9  1  0
  9 10  1  0
 10 11  1  0
 11 12  1  0
 11 13  2  0
 10 14  2  0
 14 15  1  0
 15 16  2  0
 16 17  1  0
 17 18  2  0
 18 19  1  0
 19 20  1  0
 20 21  1  0
 21 22  1  0
 22 23  1  0
 22 24  1  0
 24 25  1  0
 18 26  1  0
 26 27  2  0
 27  9  1  0
 27 15  1  0
 25 19  1  0
  1 28  1  0
  1 29  1  0
  1 30  1  0
  3 31  1  0
  3 32  1  0
  3 33  1  0
  4 34  1  0
  4 35  1  0
  5 36  1  0
  5 37  1  0
 12 38  1  0
 12 39  1  0
 14 40  1  0
 16 41  1  0
 17 42  1  0
 20 43  1  0
 20 44  1  0
 21 45  1  0
 21 46  1  0
 23 47  1  0
 23 48  1  0
 23 49  1  0
 24 50  1  0
 24 51  1  0
 25 52  1  0
 25 53  1  0
 26 54  1  0
M  END
>  <UniqueID>  (68) 
68

>  <SMILES>  (68) 
CN(C)CCOC(=O)n1c(C(N)=O)cc2ccc(N3CCN(C)CC3)cc21

>  <Energy>  (68) 
101.72742355227584

>  <Genealogy>  (68) 
CN(C)CCOC(=O)n1c(C(N)=O)cc2ccc(N3CCN(C)CC3)cc21 (3D coordinates assigned)
CN(C)CCOC(=O)n1c(C(N)=O)cc2ccc(N3CCN(C)CC3)cc21 (nonaromatic ring conformer: 101.72742355227584 kcal/mol)

>  <smiles>  (68) 
CN(C)CCOC(=O)n1c(C(N)=O)cc2ccc(N3CCN(C)CC3)cc21

>  <score_type>  (68) 
oracle

>  <origin>  (68) 
adg

>  <m_score__min__energy>  (68) 
-8.1699999999999999

>  <m_primary>  (68) 
energy

$$$$
68:0
     RDKit          3D

 33 34  0  0  0  0  0  0  0  0999 V2000
  148.4830  154.6570  133.0600 C   0  0  0  0  0  0  0  0  0  0  0  0
  147.4400  155.6840  133.0040 N   0  0  0  0  0  0  0  0  0  0  0  0
  146.2220  155.4650  132.2170 C   0  0  0  0  0  0  0  0  0  0  0  0
  147.5770  156.8760  133.8020 C   0  0  0  0  0  0  0  0  0  0  0  0
  148.4330  156.9200  134.7280 O   0  0  0  0  0  0  0  0  0  0  0  0
  146.7390  158.0160  133.5690 N   0  0  0  0  0  0  0  0  0  0  0  0
  147.0700  159.1700  132.9260 C   0  0  0  0  0  0  0  0  0  0  0  0
  148.4230  159.5420  132.4590 C   0  0  0  0  0  0  0  0  0  0  0  0
  149.5940  158.9110  132.9810 N   0  0  0  0  0  0  0  0  0  0  0  0
  148.5500  160.4620  131.6080 O   0  0  0  0  0  0  0  0  0  0  0  0
  145.9430  159.9680  132.7450 C   0  0  0  0  0  0  0  0  0  0  0  0
  144.9000  159.2560  133.2950 C   0  0  0  0  0  0  0  0  0  0  0  0
  143.5460  159.5620  133.3720 C   0  0  0  0  0  0  0  0  0  0  0  0
  142.6870  158.6120  133.9520 C   0  0  0  0  0  0  0  0  0  0  0  0
  143.1880  157.3660  134.4130 C   0  0  0  0  0  0  0  0  0  0  0  0
  142.2640  156.3710  135.0660 C   0  0  0  0  0  0  0  0  0  0  0  0
  141.4640  157.0260  135.9840 F   0  0  0  0  0  0  0  0  0  0  0  0
  142.9870  155.3870  135.7190 F   0  0  0  0  0  0  0  0  0  0  0  0
  141.4590  155.7590  134.1210 F   0  0  0  0  0  0  0  0  0  0  0  0
  144.5750  157.1000  134.3320 C   0  0  0  0  0  0  0  0  0  0  0  0
  145.4070  158.0770  133.7740 C   0  0  0  0  0  0  0  0  0  0  0  0
  148.7158  154.4277  134.1103 H   0  0  0  0  0  0  0  0  0  0  0  0
  148.1280  153.7460  132.5558 H   0  0  0  0  0  0  0  0  0  0  0  0
  149.3884  155.0260  132.5558 H   0  0  0  0  0  0  0  0  0  0  0  0
  145.3697  155.3118  132.8954 H   0  0  0  0  0  0  0  0  0  0  0  0
  146.0324  156.3435  131.5827 H   0  0  0  0  0  0  0  0  0  0  0  0
  146.3503  154.5755  131.5827 H   0  0  0  0  0  0  0  0  0  0  0  0
  150.5320  159.1470  132.5870 H   0  0  0  0  0  0  0  0  0  0  0  0
  149.5520  158.2970  133.8230 H   0  0  0  0  0  0  0  0  0  0  0  0
  145.8958  160.9566  132.2649 H   0  0  0  0  0  0  0  0  0  0  0  0
  143.1585  160.5183  132.9907 H   0  0  0  0  0  0  0  0  0  0  0  0
  141.6146  158.8366  134.0497 H   0  0  0  0  0  0  0  0  0  0  0  0
  144.9891  156.1491  134.6984 H   0  0  0  0  0  0  0  0  0  0  0  0
  1  2  1  0
  2  3  1  0
  2  4  1  0
  4  5  2  0
  4  6  1  0
  6  7  1  0
  7  8  1  0
  8  9  1  0
  8 10  2  0
  7 11  2  0
 11 12  1  0
 12 13  2  0
 13 14  1  0
 14 15  2  0
 15 16  1  0
 16 17  1  0
 16 18  1  0
 16 19  1  0
 15 20  1  0
 20 21  2  0
 21  6  1  0
 21 12  1  0
  1 22  1  0
  1 23  1  0
  1 24  1  0
  3 25  1  0
  3 26  1  0
  3 27  1  0
  9 28  1  0
  9 29  1  0
 11 30  1  0
 13 31  1  0
 14 32  1  0
 20 33  1  0
M  END
>  <UniqueID>  (69) 
69

>  <SMILES>  (69) 
CN(C)C(=O)n1c(C(N)=O)cc2ccc(C(F)(F)F)cc21

>  <Energy>  (69) 
71.59831954014886

>  <Genealogy>  (69) 
CN(C)C(=O)n1c(C(N)=O)cc2ccc(C(F)(F)F)cc21 (3D coordinates assigned)
CN(C)C(=O)n1c(C(N)=O)cc2ccc(C(F)(F)F)cc21 (optimized conformer: 71.59831954014886 kcal/mol)

>  <smiles>  (69) 
CN(C)C(=O)n1c(C(N)=O)cc2ccc(C(F)(F)F)cc21

>  <score_type>  (69) 
oracle

>  <origin>  (69) 
adg

>  <m_score__min__energy>  (69) 
-6.0099999999999998

>  <m_primary>  (69) 
energy

$$$$
69:0
     RDKit          3D

 30 32  0  0  0  0  0  0  0  0999 V2000
  146.2220  161.0320  133.7380 N   0  0  0  0  0  0  0  0  0  0  0  0
  145.2600  159.9790  133.7180 C   0  0  0  0  0  0  0  0  0  0  0  0
  144.0400  160.2560  133.8510 O   0  0  0  0  0  0  0  0  0  0  0  0
  145.7010  158.5820  133.5230 C   0  0  0  0  0  0  0  0  0  0  0  0
  144.8350  157.4910  133.4780 C   0  0  0  0  0  0  0  0  0  0  0  0
  145.6450  156.3870  133.3230 C   0  0  0  0  0  0  0  0  0  0  0  0
  145.3160  155.0400  133.2170 C   0  0  0  0  0  0  0  0  0  0  0  0
  146.3630  154.1180  133.0490 C   0  0  0  0  0  0  0  0  0  0  0  0
  147.7100  154.5560  132.9630 C   0  0  0  0  0  0  0  0  0  0  0  0
  148.8280  153.5540  132.8240 C   0  0  0  0  0  0  0  0  0  0  0  0
  149.0610  152.9110  134.0280 F   0  0  0  0  0  0  0  0  0  0  0  0
  148.5120  152.5960  131.8760 F   0  0  0  0  0  0  0  0  0  0  0  0
  149.9810  154.2100  132.4330 F   0  0  0  0  0  0  0  0  0  0  0  0
  148.0040  155.9330  133.0950 C   0  0  0  0  0  0  0  0  0  0  0  0
  146.9420  156.8240  133.2790 C   0  0  0  0  0  0  0  0  0  0  0  0
  146.9930  158.1660  133.4080 N   0  0  0  0  0  0  0  0  0  0  0  0
  148.1740  158.9810  133.3670 C   0  0  0  0  0  0  0  0  0  0  0  0
  148.8020  159.2230  134.4330 O   0  0  0  0  0  0  0  0  0  0  0  0
  148.6620  159.5340  132.0960 C   0  0  0  0  0  0  0  0  0  0  0  0
  148.7600  160.8590  131.8500 N   0  0  0  0  0  0  0  0  0  0  0  0
  149.2570  161.1070  130.6090 C   0  0  0  0  0  0  0  0  0  0  0  0
  149.4900  162.7380  130.0180 Cl  0  0  0  0  0  0  0  0  0  0  0  0
  149.5690  159.9830  129.8550 C   0  0  0  0  0  0  0  0  0  0  0  0
  149.2050  158.6290  130.7830 S   0  0  0  0  0  0  0  0  0  0  0  0
  146.8810  161.1720  132.9410 H   0  0  0  0  0  0  0  0  0  0  0  0
  143.7375  157.5076  133.5508 H   0  0  0  0  0  0  0  0  0  0  0  0
  144.2687  154.7067  133.2632 H   0  0  0  0  0  0  0  0  0  0  0  0
  146.1357  153.0437  132.9834 H   0  0  0  0  0  0  0  0  0  0  0  0
  149.0422  156.2942  133.0540 H   0  0  0  0  0  0  0  0  0  0  0  0
  149.9801  159.9793  128.8347 H   0  0  0  0  0  0  0  0  0  0  0  0
  1  2  1  0
  2  3  2  0
  2  4  1  0
  4  5  2  0
  5  6  1  0
  6  7  2  0
  7  8  1  0
  8  9  2  0
  9 10  1  0
 10 11  1  0
 10 12  1  0
 10 13  1  0
  9 14  1  0
 14 15  2  0
 15 16  1  0
 16 17  1  0
 17 18  2  0
 17 19  1  0
 19 20  2  0
 20 21  1  0
 21 22  1  0
 21 23  2  0
 23 24  1  0
 16  4  1  0
 24 19  1  0
 15  6  1  0
  1 25  1  0
  5 26  1  0
  7 27  1  0
  8 28  1  0
 14 29  1  0
 23 30  1  0
M  CHG  1   1  -1
M  END
>  <UniqueID>  (70) 
70

>  <SMILES>  (70) 
[NH-]C(=O)c1cc2ccc(C(F)(F)F)cc2n1C(=O)c1nc(Cl)cs1

>  <Energy>  (70) 
101.29341898407566

>  <Genealogy>  (70) 
[NH-]C(=O)c1cc2ccc(C(F)(F)F)cc2n1C(=O)c1nc(Cl)cs1 (protonated)
[NH-]C(=O)c1cc2ccc(C(F)(F)F)cc2n1C(=O)c1nc(Cl)cs1 (3D coordinates assigned)
[NH-]C(=O)c1cc2ccc(C(F)(F)F)cc2n1C(=O)c1nc(Cl)cs1 (optimized conformer: 101.29341898407566 kcal/mol)

>  <smiles>  (70) 
NC(=O)c1cc2ccc(C(F)(F)F)cc2n1C(=O)c1nc(Cl)cs1

>  <score_type>  (70) 
oracle

>  <origin>  (70) 
adg

>  <m_score__min__energy>  (70) 
-7.2300000000000004

>  <m_primary>  (70) 
energy

$$$$
70:0
     RDKit          3D

 36 37  0  0  0  0  0  0  0  0999 V2000
  149.4920  150.7460  131.3040 C   0  0  0  0  0  0  0  0  0  0  0  0
  148.3260  150.3650  132.2060 C   0  0  0  0  0  0  0  0  0  0  0  0
  147.2970  151.4490  132.2240 C   0  0  0  0  0  0  0  0  0  0  0  0
  146.0730  151.1470  132.2330 O   0  0  0  0  0  0  0  0  0  0  0  0
  147.7060  152.7890  132.2560 O   0  0  0  0  0  0  0  0  0  0  0  0
  148.7130  153.2840  133.1360 C   0  0  0  0  0  0  0  0  0  0  0  0
  148.9550  154.7440  132.8850 C   0  0  0  0  0  0  0  0  0  0  0  0
  149.9740  155.1070  132.2400 O   0  0  0  0  0  0  0  0  0  0  0  0
  148.0550  155.7320  133.4040 N   0  0  0  0  0  0  0  0  0  0  0  0
  147.0940  155.5680  134.3560 C   0  0  0  0  0  0  0  0  0  0  0  0
  146.7650  154.3030  135.0500 C   0  0  0  0  0  0  0  0  0  0  0  0
  145.8760  153.3520  134.4730 N   0  0  0  0  0  0  0  0  0  0  0  0
  147.2730  154.0620  136.1780 O   0  0  0  0  0  0  0  0  0  0  0  0
  146.4150  156.7660  134.5710 C   0  0  0  0  0  0  0  0  0  0  0  0
  147.0000  157.6760  133.7180 C   0  0  0  0  0  0  0  0  0  0  0  0
  146.7350  159.0280  133.5300 C   0  0  0  0  0  0  0  0  0  0  0  0
  147.5180  159.7300  132.5980 C   0  0  0  0  0  0  0  0  0  0  0  0
  148.5410  159.0710  131.8660 C   0  0  0  0  0  0  0  0  0  0  0  0
  149.4140  159.8490  130.9160 C   0  0  0  0  0  0  0  0  0  0  0  0
  149.0320  159.6210  129.6050 F   0  0  0  0  0  0  0  0  0  0  0  0
  149.3170  161.2070  131.1640 F   0  0  0  0  0  0  0  0  0  0  0  0
  150.7280  159.4540  131.0770 F   0  0  0  0  0  0  0  0  0  0  0  0
  148.7950  157.7010  132.1070 C   0  0  0  0  0  0  0  0  0  0  0  0
  147.9890  157.0270  133.0280 C   0  0  0  0  0  0  0  0  0  0  0  0
  150.3568  151.0286  131.9223 H   0  0  0  0  0  0  0  0  0  0  0  0
  149.7598  149.8886  130.6690 H   0  0  0  0  0  0  0  0  0  0  0  0
  149.2018  151.5961  130.6690 H   0  0  0  0  0  0  0  0  0  0  0  0
  147.8675  149.4379  131.8315 H   0  0  0  0  0  0  0  0  0  0  0  0
  148.7030  150.2177  133.2288 H   0  0  0  0  0  0  0  0  0  0  0  0
  148.3854  153.1445  134.1768 H   0  0  0  0  0  0  0  0  0  0  0  0
  149.6470  152.7313  132.9566 H   0  0  0  0  0  0  0  0  0  0  0  0
  146.2300  152.5990  133.8430 H   0  0  0  0  0  0  0  0  0  0  0  0
  145.5875  156.9466  135.2729 H   0  0  0  0  0  0  0  0  0  0  0  0
  145.9366  159.5327  134.0938 H   0  0  0  0  0  0  0  0  0  0  0  0
  147.3364  160.8024  132.4335 H   0  0  0  0  0  0  0  0  0  0  0  0
  149.6079  157.1782  131.5818 H   0  0  0  0  0  0  0  0  0  0  0  0
  1  2  1  0
  2  3  1  0
  3  4  2  0
  3  5  1  0
  5  6  1  0
  6  7  1  0
  7  8  2  0
  7  9  1  0
  9 10  1  0
 10 11  1  0
 11 12  1  0
 11 13  2  0
 10 14  2  0
 14 15  1  0
 15 16  2  0
 16 17  1  0
 17 18  2  0
 18 19  1  0
 19 20  1  0
 19 21  1  0
 19 22  1  0
 18 23  1  0
 23 24  2  0
 24  9  1  0
 24 15  1  0
  1 25  1  0
  1 26  1  0
  1 27  1  0
  2 28  1  0
  2 29  1  0
  6 30  1  0
  6 31  1  0
 12 32  1  0
 14 33  1  0
 16 34  1  0
 17 35  1  0
 23 36  1  0
M  CHG  1  12  -1
M  END
>  <UniqueID>  (71) 
71

>  <SMILES>  (71) 
CCC(=O)OCC(=O)n1c(C([NH-])=O)cc2ccc(C(F)(F)F)cc21

>  <Energy>  (71) 
69.2003518379688

>  <Genealogy>  (71) 
CCC(=O)OCC(=O)n1c(C([NH-])=O)cc2ccc(C(F)(F)F)cc21 (protonated)
CCC(=O)OCC(=O)n1c(C([NH-])=O)cc2ccc(C(F)(F)F)cc21 (3D coordinates assigned)
CCC(=O)OCC(=O)n1c(C([NH-])=O)cc2ccc(C(F)(F)F)cc21 (optimized conformer: 69.2003518379688 kcal/mol)

>  <smiles>  (71) 
CCC(=O)OCC(=O)n1c(C(N)=O)cc2ccc(C(F)(F)F)cc21

>  <score_type>  (71) 
oracle

>  <origin>  (71) 
adg

>  <m_score__min__energy>  (71) 
-6.2599999999999998

>  <m_primary>  (71) 
energy

$$$$
71:0
     RDKit          3D

 35 36  0  0  0  0  0  0  0  0999 V2000
  149.5220  161.9640  130.3500 C   0  0  0  0  0  0  0  0  0  0  0  0
  149.2550  160.6620  130.4950 C   0  0  0  0  0  0  0  0  0  0  0  0
  149.9820  159.8150  131.5010 C   0  0  0  0  0  0  0  0  0  0  0  0
  149.0200  158.9210  132.2360 C   0  0  0  0  0  0  0  0  0  0  0  0
  147.9360  159.4850  132.9540 C   0  0  0  0  0  0  0  0  0  0  0  0
  147.0210  158.6630  133.6320 C   0  0  0  0  0  0  0  0  0  0  0  0
  147.2020  157.2860  133.5580 C   0  0  0  0  0  0  0  0  0  0  0  0
  146.4830  156.2670  134.1390 C   0  0  0  0  0  0  0  0  0  0  0  0
  147.1120  155.0940  133.7310 C   0  0  0  0  0  0  0  0  0  0  0  0
  146.6220  153.7450  134.0780 C   0  0  0  0  0  0  0  0  0  0  0  0
  146.4920  152.7260  133.0850 N   0  0  0  0  0  0  0  0  0  0  0  0
  146.2590  153.5040  135.2600 O   0  0  0  0  0  0  0  0  0  0  0  0
  148.1880  155.3730  132.9430 N   0  0  0  0  0  0  0  0  0  0  0  0
  149.1480  154.4460  132.4130 C   0  0  0  0  0  0  0  0  0  0  0  0
  150.3570  154.7890  132.3000 O   0  0  0  0  0  0  0  0  0  0  0  0
  148.7390  153.1650  132.0220 O   0  0  0  0  0  0  0  0  0  0  0  0
  149.5320  151.9960  132.2170 C   0  0  0  0  0  0  0  0  0  0  0  0
  148.6980  150.7670  132.0370 C   0  0  0  0  0  0  0  0  0  0  0  0
  149.2210  149.6280  132.1460 O   0  0  0  0  0  0  0  0  0  0  0  0
  147.3510  150.8800  131.7180 O   0  0  0  0  0  0  0  0  0  0  0  0
  148.2290  156.7210  132.8430 C   0  0  0  0  0  0  0  0  0  0  0  0
  149.1690  157.5170  132.1790 C   0  0  0  0  0  0  0  0  0  0  0  0
  148.9730  162.5584  129.6048 H   0  0  0  0  0  0  0  0  0  0  0  0
  150.2906  162.4409  130.9760 H   0  0  0  0  0  0  0  0  0  0  0  0
  148.4837  160.1991  129.8619 H   0  0  0  0  0  0  0  0  0  0  0  0
  150.7263  159.1944  130.9804 H   0  0  0  0  0  0  0  0  0  0  0  0
  150.4778  160.4753  132.2278 H   0  0  0  0  0  0  0  0  0  0  0  0
  147.8100  160.5774  132.9805 H   0  0  0  0  0  0  0  0  0  0  0  0
  146.1867  159.0951  134.2041 H   0  0  0  0  0  0  0  0  0  0  0  0
  145.5994  156.3594  134.7877 H   0  0  0  0  0  0  0  0  0  0  0  0
  146.6170  152.9410  132.0710 H   0  0  0  0  0  0  0  0  0  0  0  0
  146.1830  151.7660  133.3570 H   0  0  0  0  0  0  0  0  0  0  0  0
  150.3528  151.9880  131.4848 H   0  0  0  0  0  0  0  0  0  0  0  0
  149.9388  152.0059  133.2389 H   0  0  0  0  0  0  0  0  0  0  0  0
  150.0035  157.0609  131.6262 H   0  0  0  0  0  0  0  0  0  0  0  0
  1  2  2  0
  2  3  1  0
  3  4  1  0
  4  5  2  0
  5  6  1  0
  6  7  2  0
  7  8  1  0
  8  9  2  0
  9 10  1  0
 10 11  1  0
 10 12  2  0
  9 13  1  0
 13 14  1  0
 14 15  2  0
 14 16  1  0
 16 17  1  0
 17 18  1  0
 18 19  2  0
 18 20  1  0
 13 21  1  0
 21 22  2  0
 22  4  1  0
 21  7  1  0
  1 23  1  0
  1 24  1  0
  2 25  1  0
  3 26  1  0
  3 27  1  0
  5 28  1  0
  6 29  1  0
  8 30  1  0
 11 31  1  0
 11 32  1  0
 17 33  1  0
 17 34  1  0
 22 35  1  0
M  CHG  1  20  -1
M  END
>  <UniqueID>  (72) 
72

>  <SMILES>  (72) 
C=CCc1ccc2cc(C(N)=O)n(C(=O)OCC(=O)[O-])c2c1

>  <Energy>  (72) 
68.69220371468224

>  <Genealogy>  (72) 
C=CCc1ccc2cc(C(N)=O)n(C(=O)OCC(=O)[O-])c2c1 (protonated)
C=CCc1ccc2cc(C(N)=O)n(C(=O)OCC(=O)[O-])c2c1 (3D coordinates assigned)
C=CCc1ccc2cc(C(N)=O)n(C(=O)OCC(=O)[O-])c2c1 (optimized conformer: 68.69220371468224 kcal/mol)

>  <smiles>  (72) 
C=CCc1ccc2cc(C(N)=O)n(C(=O)OCC(=O)O)c2c1

>  <score_type>  (72) 
oracle

>  <origin>  (72) 
adg

>  <m_score__min__energy>  (72) 
-6.8600000000000003

>  <m_primary>  (72) 
energy

$$$$
72:0
     RDKit          3D

 31 32  0  0  0  0  0  0  0  0999 V2000
  141.0140  159.5450  132.2980 N   0  0  0  0  0  0  0  0  0  0  0  0
  140.5930  158.2440  132.6980 C   0  0  0  0  0  0  0  0  0  0  0  0
  139.3670  158.0020  132.8580 O   0  0  0  0  0  0  0  0  0  0  0  0
  141.6080  157.1870  132.9750 C   0  0  0  0  0  0  0  0  0  0  0  0
  142.9100  157.7380  132.8170 O   0  0  0  0  0  0  0  0  0  0  0  0
  143.5620  158.4430  133.8330 C   0  0  0  0  0  0  0  0  0  0  0  0
  143.0120  158.5900  134.9590 O   0  0  0  0  0  0  0  0  0  0  0  0
  144.8540  159.0190  133.5850 N   0  0  0  0  0  0  0  0  0  0  0  0
  145.1950  160.3380  133.6150 C   0  0  0  0  0  0  0  0  0  0  0  0
  144.2600  161.4750  133.7410 C   0  0  0  0  0  0  0  0  0  0  0  0
  142.8520  161.2800  133.6380 N   0  0  0  0  0  0  0  0  0  0  0  0
  144.7120  162.6420  133.8920 O   0  0  0  0  0  0  0  0  0  0  0  0
  146.5670  160.4920  133.4290 C   0  0  0  0  0  0  0  0  0  0  0  0
  147.0590  159.2170  133.2730 C   0  0  0  0  0  0  0  0  0  0  0  0
  148.3670  158.7810  133.0820 C   0  0  0  0  0  0  0  0  0  0  0  0
  148.5940  157.3980  132.9930 C   0  0  0  0  0  0  0  0  0  0  0  0
  147.5180  156.4780  133.0860 C   0  0  0  0  0  0  0  0  0  0  0  0
  147.7830  154.9940  133.0520 C   0  0  0  0  0  0  0  0  0  0  0  0
  148.8830  154.7460  132.2540 F   0  0  0  0  0  0  0  0  0  0  0  0
  148.0320  154.5140  134.3260 F   0  0  0  0  0  0  0  0  0  0  0  0
  146.6910  154.3160  132.5400 F   0  0  0  0  0  0  0  0  0  0  0  0
  146.2070  156.9620  133.3050 C   0  0  0  0  0  0  0  0  0  0  0  0
  146.0070  158.3460  133.3710 C   0  0  0  0  0  0  0  0  0  0  0  0
  142.0280  159.7850  132.2370 H   0  0  0  0  0  0  0  0  0  0  0  0
  141.4859  156.8201  134.0048 H   0  0  0  0  0  0  0  0  0  0  0  0
  141.4723  156.3505  132.2736 H   0  0  0  0  0  0  0  0  0  0  0  0
  142.4320  160.3310  133.7480 H   0  0  0  0  0  0  0  0  0  0  0  0
  147.1360  161.4332  133.4108 H   0  0  0  0  0  0  0  0  0  0  0  0
  149.1976  159.4979  133.0032 H   0  0  0  0  0  0  0  0  0  0  0  0
  149.6183  157.0235  132.8495 H   0  0  0  0  0  0  0  0  0  0  0  0
  145.3631  156.2661  133.4209 H   0  0  0  0  0  0  0  0  0  0  0  0
  1  2  1  0
  2  3  2  0
  2  4  1  0
  4  5  1  0
  5  6  1  0
  6  7  2  0
  6  8  1  0
  8  9  1  0
  9 10  1  0
 10 11  1  0
 10 12  2  0
  9 13  2  0
 13 14  1  0
 14 15  2  0
 15 16  1  0
 16 17  2  0
 17 18  1  0
 18 19  1  0
 18 20  1  0
 18 21  1  0
 17 22  1  0
 22 23  2  0
 23  8  1  0
 23 14  1  0
  1 24  1  0
  4 25  1  0
  4 26  1  0
 11 27  1  0
 13 28  1  0
 15 29  1  0
 16 30  1  0
 22 31  1  0
M  CHG  2   1  -1  11  -1
M  END
>  <UniqueID>  (73) 
73

>  <SMILES>  (73) 
[NH-]C(=O)COC(=O)n1c(C([NH-])=O)cc2ccc(C(F)(F)F)cc21

>  <Energy>  (73) 
67.21490802455835

>  <Genealogy>  (73) 
[NH-]C(=O)COC(=O)n1c(C([NH-])=O)cc2ccc(C(F)(F)F)cc21 (protonated)
[NH-]C(=O)COC(=O)n1c(C([NH-])=O)cc2ccc(C(F)(F)F)cc21 (3D coordinates assigned)
[NH-]C(=O)COC(=O)n1c(C([NH-])=O)cc2ccc(C(F)(F)F)cc21 (optimized conformer: 67.21490802455835 kcal/mol)

>  <smiles>  (73) 
NC(=O)COC(=O)n1c(C(N)=O)cc2ccc(C(F)(F)F)cc21

>  <score_type>  (73) 
oracle

>  <origin>  (73) 
adg

>  <m_score__min__energy>  (73) 
-5.3600000000000003

>  <m_primary>  (73) 
energy

$$$$
73:0
     RDKit          3D

 37 38  0  0  0  0  0  0  0  0999 V2000
  151.2020  149.9770  129.9440 C   0  0  0  0  0  0  0  0  0  0  0  0
  150.3290  149.4320  130.9730 N   0  0  0  0  0  0  0  0  0  0  0  0
  149.4970  150.2530  131.7960 C   0  0  0  0  0  0  0  0  0  0  0  0
  148.8440  149.7430  132.7470 O   0  0  0  0  0  0  0  0  0  0  0  0
  149.4210  151.7290  131.5410 C   0  0  0  0  0  0  0  0  0  0  0  0
  149.4900  152.5580  132.8370 C   0  0  0  0  0  0  0  0  0  0  0  0
  149.6130  154.0730  132.5980 C   0  0  0  0  0  0  0  0  0  0  0  0
  148.3390  154.8140  132.9120 C   0  0  0  0  0  0  0  0  0  0  0  0
  147.1420  154.0940  133.1580 C   0  0  0  0  0  0  0  0  0  0  0  0
  145.9370  154.7720  133.3990 C   0  0  0  0  0  0  0  0  0  0  0  0
  145.9590  156.1640  133.3980 C   0  0  0  0  0  0  0  0  0  0  0  0
  144.9270  157.0620  133.5360 C   0  0  0  0  0  0  0  0  0  0  0  0
  145.5130  158.3170  133.4030 C   0  0  0  0  0  0  0  0  0  0  0  0
  144.7610  159.5820  133.5310 C   0  0  0  0  0  0  0  0  0  0  0  0
  145.2930  160.8120  133.0360 N   0  0  0  0  0  0  0  0  0  0  0  0
  143.6570  159.5880  134.1370 O   0  0  0  0  0  0  0  0  0  0  0  0
  146.8530  158.2040  133.1800 N   0  0  0  0  0  0  0  0  0  0  0  0
  147.7750  159.2560  132.8460 C   0  0  0  0  0  0  0  0  0  0  0  0
  148.5730  159.6990  133.7130 O   0  0  0  0  0  0  0  0  0  0  0  0
  147.7860  159.8030  131.5690 O   0  0  0  0  0  0  0  0  0  0  0  0
  147.1120  156.8770  133.1870 C   0  0  0  0  0  0  0  0  0  0  0  0
  148.3240  156.2250  132.9310 C   0  0  0  0  0  0  0  0  0  0  0  0
  152.0440  150.5026  130.4181 H   0  0  0  0  0  0  0  0  0  0  0  0
  151.5866  149.1583  129.3181 H   0  0  0  0  0  0  0  0  0  0  0  0
  150.6353  150.6820  129.3181 H   0  0  0  0  0  0  0  0  0  0  0  0
  150.2612  152.0183  130.8926 H   0  0  0  0  0  0  0  0  0  0  0  0
  148.4512  151.9354  131.0646 H   0  0  0  0  0  0  0  0  0  0  0  0
  148.5744  152.3715  133.4174 H   0  0  0  0  0  0  0  0  0  0  0  0
  150.3982  152.2427  133.3716 H   0  0  0  0  0  0  0  0  0  0  0  0
  150.4165  154.4666  133.2379 H   0  0  0  0  0  0  0  0  0  0  0  0
  149.8330  154.2254  131.5311 H   0  0  0  0  0  0  0  0  0  0  0  0
  147.1582  152.9941  133.1599 H   0  0  0  0  0  0  0  0  0  0  0  0
  145.0034  154.2202  133.5831 H   0  0  0  0  0  0  0  0  0  0  0  0
  143.8651  156.8365  133.7136 H   0  0  0  0  0  0  0  0  0  0  0  0
  146.2680  160.8690  132.6730 H   0  0  0  0  0  0  0  0  0  0  0  0
  144.7340  161.6910  133.1090 H   0  0  0  0  0  0  0  0  0  0  0  0
  149.2441  156.7996  132.7487 H   0  0  0  0  0  0  0  0  0  0  0  0
  1  2  1  0
  2  3  1  0
  3  4  2  0
  3  5  1  0
  5  6  1  0
  6  7  1  0
  7  8  1  0
  8  9  2  0
  9 10  1  0
 10 11  2  0
 11 12  1  0
 12 13  2  0
 13 14  1  0
 14 15  1  0
 14 16  2  0
 13 17  1  0
 17 18  1  0
 18 19  2  0
 18 20  1  0
 17 21  1  0
 21 22  2  0
 22  8  1  0
 21 11  1  0
  1 23  1  0
  1 24  1  0
  1 25  1  0
  5 26  1  0
  5 27  1  0
  6 28  1  0
  6 29  1  0
  7 30  1  0
  7 31  1  0
  9 32  1  0
 10 33  1  0
 12 34  1  0
 15 35  1  0
 15 36  1  0
 22 37  1  0
M  CHG  2   2  -1  20  -1
M  END
>  <UniqueID>  (74) 
74

>  <SMILES>  (74) 
C[N-]C(=O)CCCc1ccc2cc(C(N)=O)n(C(=O)[O-])c2c1

>  <Energy>  (74) 
67.84808191281627

>  <Genealogy>  (74) 
C[N-]C(=O)CCCc1ccc2cc(C(N)=O)n(C(=O)[O-])c2c1 (protonated)
C[N-]C(=O)CCCc1ccc2cc(C(N)=O)n(C(=O)[O-])c2c1 (3D coordinates assigned)
C[N-]C(=O)CCCc1ccc2cc(C(N)=O)n(C(=O)[O-])c2c1 (optimized conformer: 67.84808191281627 kcal/mol)

>  <smiles>  (74) 
CNC(=O)CCCc1ccc2cc(C(N)=O)n(C(=O)O)c2c1

>  <score_type>  (74) 
oracle

>  <origin>  (74) 
adg

>  <m_score__min__energy>  (74) 
-6.5199999999999996

>  <m_primary>  (74) 
energy

$$$$
74:0
     RDKit          3D

 41 43  0  0  0  0  0  0  0  0999 V2000
  143.0590  156.4800  133.2760 C   0  0  0  0  0  0  0  0  0  0  0  0
  143.1730  157.7850  133.0340 C   0  0  0  0  0  0  0  0  0  0  0  0
  143.8060  158.7160  133.9890 C   0  0  0  0  0  0  0  0  0  0  0  0
  143.2260  159.0190  135.0660 O   0  0  0  0  0  0  0  0  0  0  0  0
  145.0900  159.2850  133.6910 N   0  0  0  0  0  0  0  0  0  0  0  0
  145.4450  160.6010  133.7300 C   0  0  0  0  0  0  0  0  0  0  0  0
  144.5330  161.7410  133.9650 C   0  0  0  0  0  0  0  0  0  0  0  0
  143.1340  161.6240  133.7200 N   0  0  0  0  0  0  0  0  0  0  0  0
  145.0000  162.8430  134.3570 O   0  0  0  0  0  0  0  0  0  0  0  0
  146.8040  160.7460  133.4560 C   0  0  0  0  0  0  0  0  0  0  0  0
  147.2730  159.4690  133.2460 C   0  0  0  0  0  0  0  0  0  0  0  0
  148.5570  159.0230  132.9510 C   0  0  0  0  0  0  0  0  0  0  0  0
  148.7610  157.6390  132.8180 C   0  0  0  0  0  0  0  0  0  0  0  0
  147.6860  156.7270  132.9900 C   0  0  0  0  0  0  0  0  0  0  0  0
  147.9160  155.2650  132.8600 C   0  0  0  0  0  0  0  0  0  0  0  0
  149.2050  154.7650  132.6120 C   0  0  0  0  0  0  0  0  0  0  0  0
  149.4220  153.3910  132.4870 C   0  0  0  0  0  0  0  0  0  0  0  0
  148.3560  152.4820  132.6070 C   0  0  0  0  0  0  0  0  0  0  0  0
  148.6140  151.0270  132.4700 C   0  0  0  0  0  0  0  0  0  0  0  0
  147.8920  150.3190  131.7160 O   0  0  0  0  0  0  0  0  0  0  0  0
  149.6650  150.4370  133.1820 O   0  0  0  0  0  0  0  0  0  0  0  0
  149.9390  150.7420  134.5440 C   0  0  0  0  0  0  0  0  0  0  0  0
  147.0620  152.9830  132.8560 C   0  0  0  0  0  0  0  0  0  0  0  0
  145.9990  152.1490  132.9860 F   0  0  0  0  0  0  0  0  0  0  0  0
  146.8490  154.3600  132.9790 C   0  0  0  0  0  0  0  0  0  0  0  0
  146.3960  157.2220  133.2910 C   0  0  0  0  0  0  0  0  0  0  0  0
  146.2200  158.6060  133.3980 C   0  0  0  0  0  0  0  0  0  0  0  0
  142.5796  155.8231  132.5353 H   0  0  0  0  0  0  0  0  0  0  0  0
  143.4442  156.0593  134.2166 H   0  0  0  0  0  0  0  0  0  0  0  0
  142.7807  158.1839  132.0869 H   0  0  0  0  0  0  0  0  0  0  0  0
  142.5840  160.8280  134.1130 H   0  0  0  0  0  0  0  0  0  0  0  0
  147.3797  161.6825  133.4160 H   0  0  0  0  0  0  0  0  0  0  0  0
  149.3881  159.7326  132.8255 H   0  0  0  0  0  0  0  0  0  0  0  0
  149.7645  157.2578  132.5780 H   0  0  0  0  0  0  0  0  0  0  0  0
  150.0508  155.4616  132.5154 H   0  0  0  0  0  0  0  0  0  0  0  0
  150.4377  153.0160  132.2926 H   0  0  0  0  0  0  0  0  0  0  0  0
  149.3460  150.0819  135.1941 H   0  0  0  0  0  0  0  0  0  0  0  0
  151.0096  150.5898  134.7456 H   0  0  0  0  0  0  0  0  0  0  0  0
  149.6733  151.7902  134.7456 H   0  0  0  0  0  0  0  0  0  0  0  0
  145.8341  154.7382  133.1711 H   0  0  0  0  0  0  0  0  0  0  0  0
  145.5499  156.5345  133.4377 H   0  0  0  0  0  0  0  0  0  0  0  0
  1  2  2  0
  2  3  1  0
  3  4  2  0
  3  5  1  0
  5  6  1  0
  6  7  1  0
  7  8  1  0
  7  9  2  0
  6 10  2  0
 10 11  1  0
 11 12  2  0
 12 13  1  0
 13 14  2  0
 14 15  1  0
 15 16  2  0
 16 17  1  0
 17 18  2  0
 18 19  1  0
 19 20  2  0
 19 21  1  0
 21 22  1  0
 18 23  1  0
 23 24  1  0
 23 25  2  0
 14 26  1  0
 26 27  2  0
 27  5  1  0
 27 11  1  0
 25 15  1  0
  1 28  1  0
  1 29  1  0
  2 30  1  0
  8 31  1  0
 10 32  1  0
 12 33  1  0
 13 34  1  0
 16 35  1  0
 17 36  1  0
 22 37  1  0
 22 38  1  0
 22 39  1  0
 25 40  1  0
 26 41  1  0
M  CHG  1   8  -1
M  END
>  <UniqueID>  (75) 
75

>  <SMILES>  (75) 
C=CC(=O)n1c(C([NH-])=O)cc2ccc(-c3ccc(C(=O)OC)c(F)c3)cc21

>  <Energy>  (75) 
86.71638674492121

>  <Genealogy>  (75) 
C=CC(=O)n1c(C([NH-])=O)cc2ccc(-c3ccc(C(=O)OC)c(F)c3)cc21 (protonated)
C=CC(=O)n1c(C([NH-])=O)cc2ccc(-c3ccc(C(=O)OC)c(F)c3)cc21 (3D coordinates assigned)
C=CC(=O)n1c(C([NH-])=O)cc2ccc(-c3ccc(C(=O)OC)c(F)c3)cc21 (optimized conformer: 86.71638674492121 kcal/mol)

>  <smiles>  (75) 
C=CC(=O)n1c(C(N)=O)cc2ccc(-c3ccc(C(=O)OC)c(F)c3)cc21

>  <score_type>  (75) 
oracle

>  <origin>  (75) 
adg

>  <m_score__min__energy>  (75) 
-8.0600000000000005

>  <m_primary>  (75) 
energy

$$$$
75:0
     RDKit          3D

 45 47  0  0  0  0  0  0  0  0999 V2000
  137.0710  160.1120  130.7560 C   0  0  0  0  0  0  0  0  0  0  0  0
  138.5170  160.2940  131.2160 C   0  0  0  0  0  0  0  0  0  0  0  0
  139.2520  158.9540  131.3520 C   0  0  0  0  0  0  0  0  0  0  0  0
  138.6280  158.0930  132.3600 N   0  0  0  0  0  0  0  0  0  0  0  0
  139.3370  157.5790  133.5040 C   0  0  0  0  0  0  0  0  0  0  0  0
  139.1840  158.2230  134.7570 C   0  0  0  0  0  0  0  0  0  0  0  0
  139.8640  157.7600  135.8960 C   0  0  0  0  0  0  0  0  0  0  0  0
  140.6890  156.6500  135.7550 C   0  0  0  0  0  0  0  0  0  0  0  0
  141.4700  155.9990  136.6840 C   0  0  0  0  0  0  0  0  0  0  0  0
  142.0800  154.9560  135.9890 C   0  0  0  0  0  0  0  0  0  0  0  0
  142.9530  153.9460  136.6210 C   0  0  0  0  0  0  0  0  0  0  0  0
  142.3960  152.7230  137.0960 N   0  0  0  0  0  0  0  0  0  0  0  0
  144.1930  154.1410  136.7240 O   0  0  0  0  0  0  0  0  0  0  0  0
  141.6960  154.9690  134.6810 N   0  0  0  0  0  0  0  0  0  0  0  0
  142.1180  154.0930  133.6250 C   0  0  0  0  0  0  0  0  0  0  0  0
  143.0430  154.4580  132.8510 O   0  0  0  0  0  0  0  0  0  0  0  0
  141.5140  152.7560  133.4710 C   0  0  0  0  0  0  0  0  0  0  0  0
  140.9870  152.2010  134.4730 O   0  0  0  0  0  0  0  0  0  0  0  0
  141.5390  152.0880  132.1980 N   0  0  0  0  0  0  0  0  0  0  0  0
  140.9440  150.8050  131.9600 C   0  0  0  0  0  0  0  0  0  0  0  0
  139.8390  150.6070  131.2080 N   0  0  0  0  0  0  0  0  0  0  0  0
  139.4970  149.2910  131.1570 C   0  0  0  0  0  0  0  0  0  0  0  0
  138.3360  148.8120  130.3500 C   0  0  0  0  0  0  0  0  0  0  0  0
  140.3440  148.4310  131.8520 C   0  0  0  0  0  0  0  0  0  0  0  0
  141.5470  149.3610  132.5730 S   0  0  0  0  0  0  0  0  0  0  0  0
  140.8410  156.0050  134.5560 C   0  0  0  0  0  0  0  0  0  0  0  0
  140.1860  156.4480  133.4030 C   0  0  0  0  0  0  0  0  0  0  0  0
  136.4144  160.0293  131.6346 H   0  0  0  0  0  0  0  0  0  0  0  0
  136.7668  160.9789  130.1511 H   0  0  0  0  0  0  0  0  0  0  0  0
  136.9911  159.1967  130.1511 H   0  0  0  0  0  0  0  0  0  0  0  0
  139.0476  160.9166  130.4806 H   0  0  0  0  0  0  0  0  0  0  0  0
  138.4999  160.7732  132.2060 H   0  0  0  0  0  0  0  0  0  0  0  0
  139.2335  158.4372  130.3811 H   0  0  0  0  0  0  0  0  0  0  0  0
  140.2848  159.1603  131.6694 H   0  0  0  0  0  0  0  0  0  0  0  0
  137.6230  157.8290  132.2490 H   0  0  0  0  0  0  0  0  0  0  0  0
  138.5230  159.0984  134.8391 H   0  0  0  0  0  0  0  0  0  0  0  0
  139.7472  158.2601  136.8688 H   0  0  0  0  0  0  0  0  0  0  0  0
  141.5875  156.2491  137.7487 H   0  0  0  0  0  0  0  0  0  0  0  0
  141.7520  152.1580  136.4980 H   0  0  0  0  0  0  0  0  0  0  0  0
  142.0110  152.5540  131.3920 H   0  0  0  0  0  0  0  0  0  0  0  0
  137.5326  148.4805  131.0243 H   0  0  0  0  0  0  0  0  0  0  0  0
  137.9674  149.6315  129.7155 H   0  0  0  0  0  0  0  0  0  0  0  0
  138.6525  147.9710  129.7155 H   0  0  0  0  0  0  0  0  0  0  0  0
  140.2442  147.3375  131.9179 H   0  0  0  0  0  0  0  0  0  0  0  0
  140.3258  155.9320  132.4416 H   0  0  0  0  0  0  0  0  0  0  0  0
  1  2  1  0
  2  3  1  0
  3  4  1  0
  4  5  1  0
  5  6  2  0
  6  7  1  0
  7  8  2  0
  8  9  1  0
  9 10  2  0
 10 11  1  0
 11 12  1  0
 11 13  2  0
 10 14  1  0
 14 15  1  0
 15 16  2  0
 15 17  1  0
 17 18  2  0
 17 19  1  0
 19 20  1  0
 20 21  2  0
 21 22  1  0
 22 23  1  0
 22 24  2  0
 24 25  1  0
 14 26  1  0
 26 27  2  0
 27  5  1  0
 26  8  1  0
 25 20  1  0
  1 28  1  0
  1 29  1  0
  1 30  1  0
  2 31  1  0
  2 32  1  0
  3 33  1  0
  3 34  1  0
  4 35  1  0
  6 36  1  0
  7 37  1  0
  9 38  1  0
 12 39  1  0
 19 40  1  0
 23 41  1  0
 23 42  1  0
 23 43  1  0
 24 44  1  0
 27 45  1  0
M  CHG  1  12  -1
M  END
>  <UniqueID>  (76) 
76

>  <SMILES>  (76) 
CCCNc1ccc2cc(C([NH-])=O)n(C(=O)C(=O)Nc3nc(C)cs3)c2c1

>  <Energy>  (76) 
109.55908685992054

>  <Genealogy>  (76) 
CCCNc1ccc2cc(C([NH-])=O)n(C(=O)C(=O)Nc3nc(C)cs3)c2c1 (protonated)
CCCNc1ccc2cc(C([NH-])=O)n(C(=O)C(=O)Nc3nc(C)cs3)c2c1 (3D coordinates assigned)
CCCNc1ccc2cc(C([NH-])=O)n(C(=O)C(=O)Nc3nc(C)cs3)c2c1 (optimized conformer: 109.55908685992054 kcal/mol)

>  <smiles>  (76) 
CCCNc1ccc2cc(C(N)=O)n(C(=O)C(=O)Nc3nc(C)cs3)c2c1

>  <score_type>  (76) 
oracle

>  <origin>  (76) 
adg

>  <m_score__min__energy>  (76) 
-9.1500000000000004

>  <m_primary>  (76) 
energy

$$$$
76:0
     RDKit          3D

 47 49  0  0  0  0  0  0  0  0999 V2000
  141.3420  158.6690  137.7540 C   0  0  0  0  0  0  0  0  0  0  0  0
  140.6430  157.8040  136.7870 N   0  0  0  0  0  0  0  0  0  0  0  0
  141.5360  156.7420  136.2500 C   0  0  0  0  0  0  0  0  0  0  0  0
  142.0200  157.0030  134.8120 C   0  0  0  0  0  0  0  0  0  0  0  0
  142.1470  158.4430  134.5710 N   0  0  0  0  0  0  0  0  0  0  0  0
  143.3950  159.0230  134.1480 C   0  0  0  0  0  0  0  0  0  0  0  0
  143.5480  160.4330  134.1040 C   0  0  0  0  0  0  0  0  0  0  0  0
  144.7690  161.0110  133.7170 C   0  0  0  0  0  0  0  0  0  0  0  0
  145.8160  160.1600  133.3790 C   0  0  0  0  0  0  0  0  0  0  0  0
  147.1060  160.4500  132.9970 C   0  0  0  0  0  0  0  0  0  0  0  0
  147.7190  159.2140  132.7990 C   0  0  0  0  0  0  0  0  0  0  0  0
  149.0980  159.0630  132.2880 C   0  0  0  0  0  0  0  0  0  0  0  0
  149.7200  157.7820  132.2230 N   0  0  0  0  0  0  0  0  0  0  0  0
  149.7180  160.0720  131.8570 O   0  0  0  0  0  0  0  0  0  0  0  0
  146.8460  158.2000  133.0610 N   0  0  0  0  0  0  0  0  0  0  0  0
  147.1050  156.7880  133.0520 C   0  0  0  0  0  0  0  0  0  0  0  0
  146.6060  156.0640  132.1480 O   0  0  0  0  0  0  0  0  0  0  0  0
  147.9300  156.2290  134.0320 O   0  0  0  0  0  0  0  0  0  0  0  0
  147.7940  154.8900  134.5060 C   0  0  0  0  0  0  0  0  0  0  0  0
  146.8650  154.8250  135.7210 C   0  0  0  0  0  0  0  0  0  0  0  0
  147.4770  154.0150  136.8230 C   0  0  0  0  0  0  0  0  0  0  0  0
  148.4700  154.4580  137.4570 O   0  0  0  0  0  0  0  0  0  0  0  0
  146.9790  152.7530  137.1170 O   0  0  0  0  0  0  0  0  0  0  0  0
  145.6850  158.7950  133.4080 C   0  0  0  0  0  0  0  0  0  0  0  0
  144.4870  158.1930  133.8070 C   0  0  0  0  0  0  0  0  0  0  0  0
  140.9790  159.2970  134.8110 C   0  0  0  0  0  0  0  0  0  0  0  0
  139.9690  158.5910  135.7320 C   0  0  0  0  0  0  0  0  0  0  0  0
  141.0882  158.3549  138.7772 H   0  0  0  0  0  0  0  0  0  0  0  0
  142.4283  158.5844  137.6033 H   0  0  0  0  0  0  0  0  0  0  0  0
  141.0312  159.7134  137.6033 H   0  0  0  0  0  0  0  0  0  0  0  0
  142.4173  156.6670  136.9040 H   0  0  0  0  0  0  0  0  0  0  0  0
  140.9483  155.8125  136.2256 H   0  0  0  0  0  0  0  0  0  0  0  0
  142.9989  156.5230  134.6660 H   0  0  0  0  0  0  0  0  0  0  0  0
  141.2864  156.5857  134.1065 H   0  0  0  0  0  0  0  0  0  0  0  0
  142.7015  161.0807  134.3758 H   0  0  0  0  0  0  0  0  0  0  0  0
  144.8930  162.1034  133.6824 H   0  0  0  0  0  0  0  0  0  0  0  0
  147.5573  161.4456  132.8741 H   0  0  0  0  0  0  0  0  0  0  0  0
  149.6370  157.1040  133.0120 H   0  0  0  0  0  0  0  0  0  0  0  0
  147.3777  154.2652  133.7020 H   0  0  0  0  0  0  0  0  0  0  0  0
  148.7869  154.5241  134.8065 H   0  0  0  0  0  0  0  0  0  0  0  0
  146.6784  155.8458  136.0860 H   0  0  0  0  0  0  0  0  0  0  0  0
  145.9228  154.3461  135.4161 H   0  0  0  0  0  0  0  0  0  0  0  0
  144.3968  157.0977  133.8543 H   0  0  0  0  0  0  0  0  0  0  0  0
  141.3077  160.2331  135.2860 H   0  0  0  0  0  0  0  0  0  0  0  0
  140.4916  159.5083  133.8478 H   0  0  0  0  0  0  0  0  0  0  0  0
  139.3301  159.3498  136.2074 H   0  0  0  0  0  0  0  0  0  0  0  0
  139.3728  157.8995  135.1185 H   0  0  0  0  0  0  0  0  0  0  0  0
  1  2  1  0
  2  3  1  0
  3  4  1  0
  4  5  1  0
  5  6  1  0
  6  7  2  0
  7  8  1  0
  8  9  2  0
  9 10  1  0
 10 11  2  0
 11 12  1  0
 12 13  1  0
 12 14  2  0
 11 15  1  0
 15 16  1  0
 16 17  2  0
 16 18  1  0
 18 19  1  0
 19 20  1  0
 20 21  1  0
 21 22  2  0
 21 23  1  0
 15 24  1  0
 24 25  2  0
  5 26  1  0
 26 27  1  0
 27  2  1  0
 25  6  1  0
 24  9  1  0
  1 28  1  0
  1 29  1  0
  1 30  1  0
  3 31  1  0
  3 32  1  0
  4 33  1  0
  4 34  1  0
  7 35  1  0
  8 36  1  0
 10 37  1  0
 13 38  1  0
 19 39  1  0
 19 40  1  0
 20 41  1  0
 20 42  1  0
 25 43  1  0
 26 44  1  0
 26 45  1  0
 27 46  1  0
 27 47  1  0
M  CHG  2  13  -1  23  -1
M  END
>  <UniqueID>  (77) 
77

>  <SMILES>  (77) 
CN1CCN(c2ccc3cc(C([NH-])=O)n(C(=O)OCCC(=O)[O-])c3c2)CC1

>  <Energy>  (77) 
93.65346903438314

>  <Genealogy>  (77) 
CN1CCN(c2ccc3cc(C([NH-])=O)n(C(=O)OCCC(=O)[O-])c3c2)CC1 (protonated)
CN1CCN(c2ccc3cc(C([NH-])=O)n(C(=O)OCCC(=O)[O-])c3c2)CC1 (3D coordinates assigned)
CN1CCN(c2ccc3cc(C([NH-])=O)n(C(=O)OCCC(=O)[O-])c3c2)CC1 (nonaromatic ring conformer: 93.65346903438314 kcal/mol)

>  <smiles>  (77) 
CN1CCN(c2ccc3cc(C(N)=O)n(C(=O)OCCC(=O)O)c3c2)CC1

>  <score_type>  (77) 
oracle

>  <origin>  (77) 
adg

>  <m_score__min__energy>  (77) 
-7.7699999999999996

>  <m_primary>  (77) 
energy

$$$$
77:0
     RDKit          3D

 35 36  0  0  0  0  0  0  0  0999 V2000
  148.2220  155.0470  132.6190 C   0  0  0  0  0  0  0  0  0  0  0  0
  147.8650  156.4880  132.8370 C   0  0  0  0  0  0  0  0  0  0  0  0
  148.8590  157.4910  132.7110 C   0  0  0  0  0  0  0  0  0  0  0  0
  148.5320  158.8460  132.8890 C   0  0  0  0  0  0  0  0  0  0  0  0
  147.2070  159.1660  133.1690 C   0  0  0  0  0  0  0  0  0  0  0  0
  146.6240  160.3900  133.4070 C   0  0  0  0  0  0  0  0  0  0  0  0
  145.2770  160.1190  133.6350 C   0  0  0  0  0  0  0  0  0  0  0  0
  144.2620  161.1720  133.8490 C   0  0  0  0  0  0  0  0  0  0  0  0
  142.8720  160.8850  133.7290 N   0  0  0  0  0  0  0  0  0  0  0  0
  144.6290  162.3520  134.0930 O   0  0  0  0  0  0  0  0  0  0  0  0
  145.0370  158.7800  133.5470 N   0  0  0  0  0  0  0  0  0  0  0  0
  143.8030  158.0920  133.8110 C   0  0  0  0  0  0  0  0  0  0  0  0
  143.6920  157.3840  134.8480 O   0  0  0  0  0  0  0  0  0  0  0  0
  142.7290  158.2390  132.9230 O   0  0  0  0  0  0  0  0  0  0  0  0
  141.3950  157.9250  133.2130 C   0  0  0  0  0  0  0  0  0  0  0  0
  140.8740  156.8530  132.8000 O   0  0  0  0  0  0  0  0  0  0  0  0
  140.6430  158.8320  133.9660 O   0  0  0  0  0  0  0  0  0  0  0  0
  140.1670  158.5590  135.2820 C   0  0  0  0  0  0  0  0  0  0  0  0
  141.0130  159.2790  136.3340 C   0  0  0  0  0  0  0  0  0  0  0  0
  142.3590  159.3120  135.9430 O   0  0  0  0  0  0  0  0  0  0  0  0
  146.2290  158.2110  133.2600 C   0  0  0  0  0  0  0  0  0  0  0  0
  146.5280  156.8520  133.1060 C   0  0  0  0  0  0  0  0  0  0  0  0
  148.3455  154.5486  133.5918 H   0  0  0  0  0  0  0  0  0  0  0  0
  147.4193  154.5520  132.0527 H   0  0  0  0  0  0  0  0  0  0  0  0
  149.1629  154.9840  132.0527 H   0  0  0  0  0  0  0  0  0  0  0  0
  149.8943  157.2063  132.4720 H   0  0  0  0  0  0  0  0  0  0  0  0
  149.2998  159.6296  132.8095 H   0  0  0  0  0  0  0  0  0  0  0  0
  147.1171  161.3732  133.4153 H   0  0  0  0  0  0  0  0  0  0  0  0
  142.5010  159.9280  133.9250 H   0  0  0  0  0  0  0  0  0  0  0  0
  139.1244  158.8997  135.3648 H   0  0  0  0  0  0  0  0  0  0  0  0
  140.2351  157.4757  135.4605 H   0  0  0  0  0  0  0  0  0  0  0  0
  140.6449  160.3089  136.4517 H   0  0  0  0  0  0  0  0  0  0  0  0
  140.9327  158.7364  137.2875 H   0  0  0  0  0  0  0  0  0  0  0  0
  142.3760  159.1460  134.9640 H   0  0  0  0  0  0  0  0  0  0  0  0
  145.7415  156.0878  133.1924 H   0  0  0  0  0  0  0  0  0  0  0  0
  1  2  1  0
  2  3  2  0
  3  4  1  0
  4  5  2  0
  5  6  1  0
  6  7  2  0
  7  8  1  0
  8  9  1  0
  8 10  2  0
  7 11  1  0
 11 12  1  0
 12 13  2  0
 12 14  1  0
 14 15  1  0
 15 16  2  0
 15 17  1  0
 17 18  1  0
 18 19  1  0
 19 20  1  0
 11 21  1  0
 21 22  2  0
 22  2  1  0
 21  5  1  0
  1 23  1  0
  1 24  1  0
  1 25  1  0
  3 26  1  0
  4 27  1  0
  6 28  1  0
  9 29  1  0
 18 30  1  0
 18 31  1  0
 19 32  1  0
 19 33  1  0
 20 34  1  0
 22 35  1  0
M  CHG  1   9  -1
M  END
>  <UniqueID>  (78) 
78

>  <SMILES>  (78) 
Cc1ccc2cc(C([NH-])=O)n(C(=O)OC(=O)OCCO)c2c1

>  <Energy>  (78) 
71.41368417841834

>  <Genealogy>  (78) 
Cc1ccc2cc(C([NH-])=O)n(C(=O)OC(=O)OCCO)c2c1 (protonated)
Cc1ccc2cc(C([NH-])=O)n(C(=O)OC(=O)OCCO)c2c1 (3D coordinates assigned)
Cc1ccc2cc(C([NH-])=O)n(C(=O)OC(=O)OCCO)c2c1 (optimized conformer: 71.41368417841834 kcal/mol)

>  <smiles>  (78) 
Cc1ccc2cc(C(N)=O)n(C(=O)OC(=O)OCCO)c2c1

>  <score_type>  (78) 
oracle

>  <origin>  (78) 
adg

>  <m_score__min__energy>  (78) 
-4.9800000000000004

>  <m_primary>  (78) 
energy

$$$$
78:0
     RDKit          3D

 55 57  0  0  0  0  0  0  0  0999 V2000
  147.7480  160.1410  131.0210 C   0  0  0  0  0  0  0  0  0  0  0  0
  148.8260  160.2190  132.0220 N   0  0  0  0  0  0  0  0  0  0  0  0
  148.3010  160.0960  133.4080 C   0  0  0  0  0  0  0  0  0  0  0  0
  148.5520  158.7180  134.0500 C   0  0  0  0  0  0  0  0  0  0  0  0
  148.5560  157.6710  133.0250 N   0  0  0  0  0  0  0  0  0  0  0  0
  147.6600  156.5450  133.1000 C   0  0  0  0  0  0  0  0  0  0  0  0
  148.1750  155.2260  133.1740 C   0  0  0  0  0  0  0  0  0  0  0  0
  147.3110  154.1180  133.2220 C   0  0  0  0  0  0  0  0  0  0  0  0
  145.9410  154.3590  133.1920 C   0  0  0  0  0  0  0  0  0  0  0  0
  144.8840  153.4760  133.2070 C   0  0  0  0  0  0  0  0  0  0  0  0
  143.7390  154.2700  133.1450 C   0  0  0  0  0  0  0  0  0  0  0  0
  142.3540  153.7470  133.2260 C   0  0  0  0  0  0  0  0  0  0  0  0
  141.2340  154.5970  132.9730 N   0  0  0  0  0  0  0  0  0  0  0  0
  142.1530  152.5340  133.5030 O   0  0  0  0  0  0  0  0  0  0  0  0
  144.0790  155.5890  133.0890 N   0  0  0  0  0  0  0  0  0  0  0  0
  143.2060  156.7240  132.9760 C   0  0  0  0  0  0  0  0  0  0  0  0
  142.9060  157.1670  131.8350 O   0  0  0  0  0  0  0  0  0  0  0  0
  142.6260  157.3510  134.1730 C   0  0  0  0  0  0  0  0  0  0  0  0
  143.3190  158.1490  134.8580 O   0  0  0  0  0  0  0  0  0  0  0  0
  141.2810  157.0290  134.5560 N   0  0  0  0  0  0  0  0  0  0  0  0
  140.0720  157.8460  134.3910 C   0  0  0  0  0  0  0  0  0  0  0  0
  140.4370  159.3010  134.0280 C   0  0  0  0  0  0  0  0  0  0  0  0
  139.3400  157.8520  135.7430 C   0  0  0  0  0  0  0  0  0  0  0  0
  139.1360  157.2210  133.3290 C   0  0  0  0  0  0  0  0  0  0  0  0
  139.8630  156.5420  132.3420 O   0  0  0  0  0  0  0  0  0  0  0  0
  145.4270  155.6250  133.1250 C   0  0  0  0  0  0  0  0  0  0  0  0
  146.2620  156.7460  133.0670 C   0  0  0  0  0  0  0  0  0  0  0  0
  149.4740  157.8090  131.8900 C   0  0  0  0  0  0  0  0  0  0  0  0
  149.9220  159.2720  131.7260 C   0  0  0  0  0  0  0  0  0  0  0  0
  146.7768  160.0707  131.5327 H   0  0  0  0  0  0  0  0  0  0  0  0
  147.7663  161.0428  130.3914 H   0  0  0  0  0  0  0  0  0  0  0  0
  147.8959  159.2512  130.3914 H   0  0  0  0  0  0  0  0  0  0  0  0
  148.7855  160.8620  134.0313 H   0  0  0  0  0  0  0  0  0  0  0  0
  147.2104  160.2274  133.3495 H   0  0  0  0  0  0  0  0  0  0  0  0
  149.5257  158.7283  134.5616 H   0  0  0  0  0  0  0  0  0  0  0  0
  147.7486  158.5084  134.7715 H   0  0  0  0  0  0  0  0  0  0  0  0
  149.2634  155.0678  133.1941 H   0  0  0  0  0  0  0  0  0  0  0  0
  147.7056  153.0929  133.2814 H   0  0  0  0  0  0  0  0  0  0  0  0
  144.9326  152.3782  133.2572 H   0  0  0  0  0  0  0  0  0  0  0  0
  140.2660  154.2050  132.9960 H   0  0  0  0  0  0  0  0  0  0  0  0
  141.3530  155.6200  132.8080 H   0  0  0  0  0  0  0  0  0  0  0  0
  140.5831  159.8833  134.9498 H   0  0  0  0  0  0  0  0  0  0  0  0
  141.3652  159.3098  133.4378 H   0  0  0  0  0  0  0  0  0  0  0  0
  139.6229  159.7469  133.4378 H   0  0  0  0  0  0  0  0  0  0  0  0
  140.0774  157.8459  136.5592 H   0  0  0  0  0  0  0  0  0  0  0  0
  138.7168  158.7553  135.8185 H   0  0  0  0  0  0  0  0  0  0  0  0
  138.7021  156.9591  135.8185 H   0  0  0  0  0  0  0  0  0  0  0  0
  138.4563  156.5119  133.8241 H   0  0  0  0  0  0  0  0  0  0  0  0
  138.5707  158.0317  132.8461 H   0  0  0  0  0  0  0  0  0  0  0  0
  140.8050  156.8400  132.4370 H   0  0  0  0  0  0  0  0  0  0  0  0
  145.8402  157.7595  132.9974 H   0  0  0  0  0  0  0  0  0  0  0  0
  150.3583  157.1779  132.0623 H   0  0  0  0  0  0  0  0  0  0  0  0
  148.9527  157.4945  130.9739 H   0  0  0  0  0  0  0  0  0  0  0  0
  150.7572  159.4678  132.4145 H   0  0  0  0  0  0  0  0  0  0  0  0
  150.2284  159.4202  130.6800 H   0  0  0  0  0  0  0  0  0  0  0  0
  1  2  1  0
  2  3  1  0
  3  4  1  0
  4  5  1  0
  5  6  1  0
  6  7  2  0
  7  8  1  0
  8  9  2  0
  9 10  1  0
 10 11  2  0
 11 12  1  0
 12 13  1  0
 12 14  2  0
 11 15  1  0
 15 16  1  0
 16 17  2  0
 16 18  1  0
 18 19  2  0
 18 20  1  0
 20 21  1  0
 21 22  1  0
 21 23  1  0
 21 24  1  0
 24 25  1  0
 15 26  1  0
 26 27  2  0
  5 28  1  0
 28 29  1  0
 29  2  1  0
 27  6  1  0
 26  9  1  0
  1 30  1  0
  1 31  1  0
  1 32  1  0
  3 33  1  0
  3 34  1  0
  4 35  1  0
  4 36  1  0
  7 37  1  0
  8 38  1  0
 10 39  1  0
 13 40  1  0
 13 41  1  0
 22 42  1  0
 22 43  1  0
 22 44  1  0
 23 45  1  0
 23 46  1  0
 23 47  1  0
 24 48  1  0
 24 49  1  0
 25 50  1  0
 27 51  1  0
 28 52  1  0
 28 53  1  0
 29 54  1  0
 29 55  1  0
M  CHG  1  20  -1
M  END
>  <UniqueID>  (79) 
79

>  <SMILES>  (79) 
CN1CCN(c2ccc3cc(C(N)=O)n(C(=O)C(=O)[N-]C(C)(C)CO)c3c2)CC1

>  <Energy>  (79) 
101.96049585678165

>  <Genealogy>  (79) 
CN1CCN(c2ccc3cc(C(N)=O)n(C(=O)C(=O)[N-]C(C)(C)CO)c3c2)CC1 (protonated)
CN1CCN(c2ccc3cc(C(N)=O)n(C(=O)C(=O)[N-]C(C)(C)CO)c3c2)CC1 (3D coordinates assigned)
CN1CCN(c2ccc3cc(C(N)=O)n(C(=O)C(=O)[N-]C(C)(C)CO)c3c2)CC1 (nonaromatic ring conformer: 101.96049585678165 kcal/mol)

>  <smiles>  (79) 
CN1CCN(c2ccc3cc(C(N)=O)n(C(=O)C(=O)NC(C)(C)CO)c3c2)CC1

>  <score_type>  (79) 
oracle

>  <origin>  (79) 
adg

>  <m_score__min__energy>  (79) 
-7.9199999999999999

>  <m_primary>  (79) 
energy

$$$$
79:0
     RDKit          3D

 42 43  0  0  0  0  0  0  0  0999 V2000
  149.2830  161.9140  130.3620 C   0  0  0  0  0  0  0  0  0  0  0  0
  149.1990  160.4820  130.6600 N   0  0  0  0  0  0  0  0  0  0  0  0
  149.5940  159.4980  129.6460 C   0  0  0  0  0  0  0  0  0  0  0  0
  148.6870  160.0670  131.9460 C   0  0  0  0  0  0  0  0  0  0  0  0
  148.0070  160.8770  132.6340 O   0  0  0  0  0  0  0  0  0  0  0  0
  148.9730  158.7060  132.5300 C   0  0  0  0  0  0  0  0  0  0  0  0
  147.8440  157.7140  132.2160 C   0  0  0  0  0  0  0  0  0  0  0  0
  147.0390  157.4100  133.4130 N   0  0  0  0  0  0  0  0  0  0  0  0
  147.5070  156.3910  134.3580 C   0  0  0  0  0  0  0  0  0  0  0  0
  145.7520  158.0320  133.6170 C   0  0  0  0  0  0  0  0  0  0  0  0
  145.5770  159.4200  133.3750 C   0  0  0  0  0  0  0  0  0  0  0  0
  144.3150  160.0200  133.5180 C   0  0  0  0  0  0  0  0  0  0  0  0
  143.2490  159.2170  133.9080 C   0  0  0  0  0  0  0  0  0  0  0  0
  141.9180  159.5300  134.0680 C   0  0  0  0  0  0  0  0  0  0  0  0
  141.3000  158.3350  134.4330 C   0  0  0  0  0  0  0  0  0  0  0  0
  139.8670  158.2380  134.7860 C   0  0  0  0  0  0  0  0  0  0  0  0
  139.4500  158.1870  136.1480 N   0  0  0  0  0  0  0  0  0  0  0  0
  138.9970  158.2530  133.8750 O   0  0  0  0  0  0  0  0  0  0  0  0
  142.2110  157.3220  134.4870 N   0  0  0  0  0  0  0  0  0  0  0  0
  141.9670  155.9260  134.7230 C   0  0  0  0  0  0  0  0  0  0  0  0
  142.5710  155.3220  135.6480 O   0  0  0  0  0  0  0  0  0  0  0  0
  141.0420  155.2360  133.9500 O   0  0  0  0  0  0  0  0  0  0  0  0
  143.4000  157.8810  134.1670 C   0  0  0  0  0  0  0  0  0  0  0  0
  144.6420  157.2540  134.0220 C   0  0  0  0  0  0  0  0  0  0  0  0
  149.3164  162.4830  131.3028 H   0  0  0  0  0  0  0  0  0  0  0  0
  150.1945  162.1145  129.7797 H   0  0  0  0  0  0  0  0  0  0  0  0
  148.4012  162.2197  129.7797 H   0  0  0  0  0  0  0  0  0  0  0  0
  149.9597  158.5869  130.1421 H   0  0  0  0  0  0  0  0  0  0  0  0
  148.7257  159.2501  129.0178 H   0  0  0  0  0  0  0  0  0  0  0  0
  150.3927  159.9193  129.0178 H   0  0  0  0  0  0  0  0  0  0  0  0
  149.9132  158.3245  132.1052 H   0  0  0  0  0  0  0  0  0  0  0  0
  149.0515  158.8072  133.6225 H   0  0  0  0  0  0  0  0  0  0  0  0
  147.1894  158.1502  131.4471 H   0  0  0  0  0  0  0  0  0  0  0  0
  148.2984  156.7775  131.8605 H   0  0  0  0  0  0  0  0  0  0  0  0
  147.3451  156.7436  135.3873 H   0  0  0  0  0  0  0  0  0  0  0  0
  146.9473  155.4577  134.1978 H   0  0  0  0  0  0  0  0  0  0  0  0
  148.5797  156.2074  134.1978 H   0  0  0  0  0  0  0  0  0  0  0  0
  146.4392  160.0323  133.0722 H   0  0  0  0  0  0  0  0  0  0  0  0
  144.1741  161.0941  133.3270 H   0  0  0  0  0  0  0  0  0  0  0  0
  141.4433  160.5135  133.9359 H   0  0  0  0  0  0  0  0  0  0  0  0
  139.4810  159.0390  136.7510 H   0  0  0  0  0  0  0  0  0  0  0  0
  144.7534  156.1775  134.2189 H   0  0  0  0  0  0  0  0  0  0  0  0
  1  2  1  0
  2  3  1  0
  2  4  1  0
  4  5  2  0
  4  6  1  0
  6  7  1  0
  7  8  1  0
  8  9  1  0
  8 10  1  0
 10 11  2  0
 11 12  1  0
 12 13  2  0
 13 14  1  0
 14 15  2  0
 15 16  1  0
 16 17  1  0
 16 18  2  0
 15 19  1  0
 19 20  1  0
 20 21  2  0
 20 22  1  0
 19 23  1  0
 23 24  2  0
 24 10  1  0
 23 13  1  0
  1 25  1  0
  1 26  1  0
  1 27  1  0
  3 28  1  0
  3 29  1  0
  3 30  1  0
  6 31  1  0
  6 32  1  0
  7 33  1  0
  7 34  1  0
  9 35  1  0
  9 36  1  0
  9 37  1  0
 11 38  1  0
 12 39  1  0
 14 40  1  0
 17 41  1  0
 24 42  1  0
M  CHG  2  17  -1  22  -1
M  END
>  <UniqueID>  (80) 
80

>  <SMILES>  (80) 
CN(C)C(=O)CCN(C)c1ccc2cc(C([NH-])=O)n(C(=O)[O-])c2c1

>  <Energy>  (80) 
77.48533291122207

>  <Genealogy>  (80) 
CN(C)C(=O)CCN(C)c1ccc2cc(C([NH-])=O)n(C(=O)[O-])c2c1 (protonated)
CN(C)C(=O)CCN(C)c1ccc2cc(C([NH-])=O)n(C(=O)[O-])c2c1 (3D coordinates assigned)
CN(C)C(=O)CCN(C)c1ccc2cc(C([NH-])=O)n(C(=O)[O-])c2c1 (optimized conformer: 77.48533291122207 kcal/mol)

>  <smiles>  (80) 
CN(C)C(=O)CCN(C)c1ccc2cc(C(N)=O)n(C(=O)O)c2c1

>  <score_type>  (80) 
oracle

>  <origin>  (80) 
adg

>  <m_score__min__energy>  (80) 
-6.9400000000000004

>  <m_primary>  (80) 
energy

$$$$
80:0
     RDKit          3D

 40 42  0  0  0  0  0  0  0  0999 V2000
  144.5950  155.3080  132.9270 C   0  0  0  0  0  0  0  0  0  0  0  0
  145.9130  155.4930  132.9090 C   0  0  0  0  0  0  0  0  0  0  0  0
  146.5840  156.5550  133.6840 C   0  0  0  0  0  0  0  0  0  0  0  0
  147.3740  156.2290  134.6080 O   0  0  0  0  0  0  0  0  0  0  0  0
  146.3480  157.9470  133.4140 N   0  0  0  0  0  0  0  0  0  0  0  0
  147.2010  158.8370  132.8350 C   0  0  0  0  0  0  0  0  0  0  0  0
  148.5340  158.5180  132.2830 C   0  0  0  0  0  0  0  0  0  0  0  0
  149.2250  157.3510  132.7200 N   0  0  0  0  0  0  0  0  0  0  0  0
  149.0770  159.2750  131.4350 O   0  0  0  0  0  0  0  0  0  0  0  0
  146.6230  160.1050  132.7900 C   0  0  0  0  0  0  0  0  0  0  0  0
  145.3820  159.9610  133.3680 C   0  0  0  0  0  0  0  0  0  0  0  0
  144.3790  160.9010  133.5900 C   0  0  0  0  0  0  0  0  0  0  0  0
  143.1980  160.4680  134.2190 C   0  0  0  0  0  0  0  0  0  0  0  0
  143.0490  159.1170  134.6140 C   0  0  0  0  0  0  0  0  0  0  0  0
  141.8050  158.6690  135.2680 C   0  0  0  0  0  0  0  0  0  0  0  0
  141.7570  158.6500  136.6710 C   0  0  0  0  0  0  0  0  0  0  0  0
  140.5950  158.2500  137.3330 C   0  0  0  0  0  0  0  0  0  0  0  0
  139.4730  157.8610  136.6020 C   0  0  0  0  0  0  0  0  0  0  0  0
  139.5110  157.8640  135.2050 C   0  0  0  0  0  0  0  0  0  0  0  0
  140.6740  158.2570  134.5240 C   0  0  0  0  0  0  0  0  0  0  0  0
  140.6940  158.1950  132.7530 S   0  0  0  0  0  0  0  0  0  0  0  0
  142.1710  157.4840  132.2000 N   0  0  0  0  0  0  0  0  0  0  0  0
  140.5640  159.5860  132.1990 O   0  0  0  0  0  0  0  0  0  0  0  0
  139.5460  157.3610  132.2530 O   0  0  0  0  0  0  0  0  0  0  0  0
  144.0920  158.1960  134.3900 C   0  0  0  0  0  0  0  0  0  0  0  0
  145.2450  158.6500  133.7420 C   0  0  0  0  0  0  0  0  0  0  0  0
  144.1447  154.5009  132.3304 H   0  0  0  0  0  0  0  0  0  0  0  0
  143.9561  155.9622  133.5384 H   0  0  0  0  0  0  0  0  0  0  0  0
  146.5293  154.8251  132.2893 H   0  0  0  0  0  0  0  0  0  0  0  0
  149.2150  157.0650  133.7240 H   0  0  0  0  0  0  0  0  0  0  0  0
  147.0648  161.0250  132.3797 H   0  0  0  0  0  0  0  0  0  0  0  0
  144.5064  161.9496  133.2830 H   0  0  0  0  0  0  0  0  0  0  0  0
  142.3843  161.1844  134.4053 H   0  0  0  0  0  0  0  0  0  0  0  0
  142.6407  158.9522  137.2522 H   0  0  0  0  0  0  0  0  0  0  0  0
  140.5643  158.2416  138.4325 H   0  0  0  0  0  0  0  0  0  0  0  0
  138.5566  157.5513  137.1258 H   0  0  0  0  0  0  0  0  0  0  0  0
  138.6225  157.5559  134.6344 H   0  0  0  0  0  0  0  0  0  0  0  0
  142.0090  156.4540  132.1290 H   0  0  0  0  0  0  0  0  0  0  0  0
  142.3370  157.8340  131.2290 H   0  0  0  0  0  0  0  0  0  0  0  0
  144.0016  157.1493  134.7158 H   0  0  0  0  0  0  0  0  0  0  0  0
  1  2  2  0
  2  3  1  0
  3  4  2  0
  3  5  1  0
  5  6  1  0
  6  7  1  0
  7  8  1  0
  7  9  2  0
  6 10  2  0
 10 11  1  0
 11 12  2  0
 12 13  1  0
 13 14  2  0
 14 15  1  0
 15 16  2  0
 16 17  1  0
 17 18  2  0
 18 19  1  0
 19 20  2  0
 20 21  1  0
 21 22  1  0
 21 23  2  0
 21 24  2  0
 14 25  1  0
 25 26  2  0
 26  5  1  0
 26 11  1  0
 20 15  1  0
  1 27  1  0
  1 28  1  0
  2 29  1  0
  8 30  1  0
 10 31  1  0
 12 32  1  0
 13 33  1  0
 16 34  1  0
 17 35  1  0
 18 36  1  0
 19 37  1  0
 22 38  1  0
 22 39  1  0
 25 40  1  0
M  CHG  1   8  -1
M  END
>  <UniqueID>  (81) 
81

>  <SMILES>  (81) 
C=CC(=O)n1c(C([NH-])=O)cc2ccc(-c3ccccc3S(N)(=O)=O)cc21

>  <Energy>  (81) 
86.94564129346645

>  <Genealogy>  (81) 
C=CC(=O)n1c(C([NH-])=O)cc2ccc(-c3ccccc3S(N)(=O)=O)cc21 (protonated)
C=CC(=O)n1c(C([NH-])=O)cc2ccc(-c3ccccc3S(N)(=O)=O)cc21 (3D coordinates assigned)
C=CC(=O)n1c(C([NH-])=O)cc2ccc(-c3ccccc3S(N)(=O)=O)cc21 (optimized conformer: 86.94564129346645 kcal/mol)

>  <smiles>  (81) 
C=CC(=O)n1c(C(N)=O)cc2ccc(-c3ccccc3S(N)(=O)=O)cc21

>  <score_type>  (81) 
oracle

>  <origin>  (81) 
adg

>  <m_score__min__energy>  (81) 
-8.7599999999999998

>  <m_primary>  (81) 
energy

$$$$
81:0
     RDKit          3D

 48 49  0  0  0  0  0  0  0  0999 V2000
  142.0560  153.1040  132.7470 C   0  0  0  0  0  0  0  0  0  0  0  0
  143.0800  154.0940  133.3330 C   0  0  0  0  0  0  0  0  0  0  0  0
  143.9750  153.3490  134.3350 C   0  0  0  0  0  0  0  0  0  0  0  0
  143.9650  154.6830  132.2180 C   0  0  0  0  0  0  0  0  0  0  0  0
  142.4140  155.1380  134.0580 O   0  0  0  0  0  0  0  0  0  0  0  0
  141.4290  156.0040  133.5560 C   0  0  0  0  0  0  0  0  0  0  0  0
  140.4450  155.5570  132.9080 O   0  0  0  0  0  0  0  0  0  0  0  0
  141.5490  157.4170  133.7910 N   0  0  0  0  0  0  0  0  0  0  0  0
  140.5410  158.2920  134.0690 C   0  0  0  0  0  0  0  0  0  0  0  0
  139.1380  157.9320  134.3540 C   0  0  0  0  0  0  0  0  0  0  0  0
  138.3440  157.2360  133.3930 N   0  0  0  0  0  0  0  0  0  0  0  0
  138.6490  158.1950  135.4850 O   0  0  0  0  0  0  0  0  0  0  0  0
  141.0170  159.5990  134.0960 C   0  0  0  0  0  0  0  0  0  0  0  0
  142.3650  159.5000  133.8370 C   0  0  0  0  0  0  0  0  0  0  0  0
  143.3290  160.4950  133.7280 C   0  0  0  0  0  0  0  0  0  0  0  0
  144.6410  160.1120  133.4100 C   0  0  0  0  0  0  0  0  0  0  0  0
  144.9700  158.7440  133.2040 C   0  0  0  0  0  0  0  0  0  0  0  0
  146.3040  158.3240  132.8560 N   0  0  0  0  0  0  0  0  0  0  0  0
  147.5400  158.9380  133.3490 C   0  0  0  0  0  0  0  0  0  0  0  0
  148.7910  158.2940  132.7240 C   0  0  1  0  0  0  0  0  0  0  0  0
  148.4890  156.9990  132.2730 O   0  0  0  0  0  0  0  0  0  0  0  0
  149.3400  159.1430  131.5650 C   0  0  0  0  0  0  0  0  0  0  0  0
  148.9350  158.6140  130.3310 O   0  0  0  0  0  0  0  0  0  0  0  0
  143.9570  157.7660  133.3150 C   0  0  0  0  0  0  0  0  0  0  0  0
  142.6610  158.1740  133.6540 C   0  0  0  0  0  0  0  0  0  0  0  0
  141.5285  152.5940  133.5666 H   0  0  0  0  0  0  0  0  0  0  0  0
  141.3298  153.6512  132.1279 H   0  0  0  0  0  0  0  0  0  0  0  0
  142.5783  152.3597  132.1279 H   0  0  0  0  0  0  0  0  0  0  0  0
  143.6687  153.6039  135.3603 H   0  0  0  0  0  0  0  0  0  0  0  0
  143.8740  152.2645  134.1811 H   0  0  0  0  0  0  0  0  0  0  0  0
  145.0232  153.6451  134.1811 H   0  0  0  0  0  0  0  0  0  0  0  0
  144.8005  155.2391  132.6683 H   0  0  0  0  0  0  0  0  0  0  0  0
  144.3608  153.8676  131.5948 H   0  0  0  0  0  0  0  0  0  0  0  0
  143.3656  155.3629  131.5948 H   0  0  0  0  0  0  0  0  0  0  0  0
  137.3390  157.0340  133.5900 H   0  0  0  0  0  0  0  0  0  0  0  0
  138.7680  156.8540  132.5190 H   0  0  0  0  0  0  0  0  0  0  0  0
  140.4392  160.5159  134.2842 H   0  0  0  0  0  0  0  0  0  0  0  0
  143.0710  161.5525  133.8864 H   0  0  0  0  0  0  0  0  0  0  0  0
  145.4242  160.8790  133.3190 H   0  0  0  0  0  0  0  0  0  0  0  0
  146.4110  157.4990  132.2220 H   0  0  0  0  0  0  0  0  0  0  0  0
  147.5291  160.0092  133.0990 H   0  0  0  0  0  0  0  0  0  0  0  0
  147.5858  158.7848  134.4373 H   0  0  0  0  0  0  0  0  0  0  0  0
  149.5689  158.2383  133.4997 H   0  0  0  0  0  0  0  0  0  0  0  0
  148.1670  157.0850  131.3380 H   0  0  0  0  0  0  0  0  0  0  0  0
  148.9614  160.1715  131.6593 H   0  0  0  0  0  0  0  0  0  0  0  0
  150.4390  159.1366  131.6102 H   0  0  0  0  0  0  0  0  0  0  0  0
  149.1590  157.6470  130.3500 H   0  0  0  0  0  0  0  0  0  0  0  0
  144.1819  156.7038  133.1385 H   0  0  0  0  0  0  0  0  0  0  0  0
  1  2  1  0
  2  3  1  0
  2  4  1  0
  2  5  1  0
  5  6  1  0
  6  7  2  0
  6  8  1  0
  8  9  1  0
  9 10  1  0
 10 11  1  0
 10 12  2  0
  9 13  2  0
 13 14  1  0
 14 15  2  0
 15 16  1  0
 16 17  2  0
 17 18  1  0
 18 19  1  0
 19 20  1  0
 20 21  1  0
 20 22  1  0
 22 23  1  0
 17 24  1  0
 24 25  2  0
 25  8  1  0
 25 14  1  0
  1 26  1  0
  1 27  1  0
  1 28  1  0
  3 29  1  0
  3 30  1  0
  3 31  1  0
  4 32  1  0
  4 33  1  0
  4 34  1  0
 11 35  1  0
 11 36  1  0
 13 37  1  0
 15 38  1  0
 16 39  1  0
 18 40  1  0
 19 41  1  0
 19 42  1  0
 20 43  1  1
 21 44  1  0
 22 45  1  0
 22 46  1  0
 23 47  1  0
 24 48  1  0
M  END
>  <UniqueID>  (82) 
82

>  <SMILES>  (82) 
CC(C)(C)OC(=O)n1c(C(N)=O)cc2ccc(NC[C@@H](O)CO)cc21

>  <Energy>  (82) 
79.29884597423893

>  <Genealogy>  (82) 
CC(C)(C)OC(=O)n1c(C(N)=O)cc2ccc(NC[C@@H](O)CO)cc21 (chirality)
CC(C)(C)OC(=O)n1c(C(N)=O)cc2ccc(NC[C@@H](O)CO)cc21 (3D coordinates assigned)
CC(C)(C)OC(=O)n1c(C(N)=O)cc2ccc(NC[C@@H](O)CO)cc21 (optimized conformer: 79.29884597423893 kcal/mol)

>  <smiles>  (82) 
CC(C)(C)OC(=O)n1c(C(N)=O)cc2ccc(NCC(O)CO)cc21

>  <score_type>  (82) 
oracle

>  <origin>  (82) 
adg

>  <m_score__min__energy>  (82) 
-7.8600000000000003

>  <m_primary>  (82) 
energy

$$$$
82:0
     RDKit          3D

 33 34  0  0  0  0  0  0  0  0999 V2000
  146.6030  160.5500  133.0430 N   0  0  0  0  0  0  0  0  0  0  0  0
  145.7070  159.5010  133.4120 C   0  0  0  0  0  0  0  0  0  0  0  0
  144.5530  159.7970  133.8220 O   0  0  0  0  0  0  0  0  0  0  0  0
  146.1250  158.0820  133.3380 C   0  0  0  0  0  0  0  0  0  0  0  0
  145.2480  156.9970  133.3790 C   0  0  0  0  0  0  0  0  0  0  0  0
  146.0360  155.8840  133.1950 C   0  0  0  0  0  0  0  0  0  0  0  0
  145.6940  154.5360  133.1640 C   0  0  0  0  0  0  0  0  0  0  0  0
  146.7250  153.5980  132.9810 C   0  0  0  0  0  0  0  0  0  0  0  0
  148.0700  154.0190  132.8170 C   0  0  0  0  0  0  0  0  0  0  0  0
  149.1710  152.9990  132.6780 C   0  0  0  0  0  0  0  0  0  0  0  0
  150.3620  153.6120  132.3310 F   0  0  0  0  0  0  0  0  0  0  0  0
  149.3650  152.3210  133.8690 F   0  0  0  0  0  0  0  0  0  0  0  0
  148.8290  152.0900  131.6950 F   0  0  0  0  0  0  0  0  0  0  0  0
  148.3790  155.3980  132.8770 C   0  0  0  0  0  0  0  0  0  0  0  0
  147.3300  156.3060  133.0500 C   0  0  0  0  0  0  0  0  0  0  0  0
  147.4010  157.6500  133.1380 N   0  0  0  0  0  0  0  0  0  0  0  0
  148.6010  158.4350  133.0880 C   0  0  0  0  0  0  0  0  0  0  0  0
  148.8350  159.2740  133.9990 O   0  0  0  0  0  0  0  0  0  0  0  0
  149.5160  158.3510  131.9040 C   0  0  0  0  0  0  0  0  0  0  0  0
  148.8570  158.9930  130.6820 C   0  0  0  0  0  0  0  0  0  0  0  0
  149.1610  160.4570  130.6290 C   0  0  0  0  0  0  0  0  0  0  0  0
  148.6610  161.2390  131.4790 O   0  0  0  0  0  0  0  0  0  0  0  0
  149.9600  160.9640  129.6130 O   0  0  0  0  0  0  0  0  0  0  0  0
  146.3080  161.5480  133.1410 H   0  0  0  0  0  0  0  0  0  0  0  0
  147.5410  160.3490  132.6340 H   0  0  0  0  0  0  0  0  0  0  0  0
  144.1584  157.0255  133.5270 H   0  0  0  0  0  0  0  0  0  0  0  0
  144.6486  154.2138  133.2792 H   0  0  0  0  0  0  0  0  0  0  0  0
  146.4860  152.5244  132.9648 H   0  0  0  0  0  0  0  0  0  0  0  0
  149.4184  155.7472  132.7897 H   0  0  0  0  0  0  0  0  0  0  0  0
  150.4537  158.8794  132.1310 H   0  0  0  0  0  0  0  0  0  0  0  0
  149.7250  157.2934  131.6856 H   0  0  0  0  0  0  0  0  0  0  0  0
  149.2391  158.5110  129.7700 H   0  0  0  0  0  0  0  0  0  0  0  0
  147.7676  158.8591  130.7548 H   0  0  0  0  0  0  0  0  0  0  0  0
  1  2  1  0
  2  3  2  0
  2  4  1  0
  4  5  2  0
  5  6  1  0
  6  7  2  0
  7  8  1  0
  8  9  2  0
  9 10  1  0
 10 11  1  0
 10 12  1  0
 10 13  1  0
  9 14  1  0
 14 15  2  0
 15 16  1  0
 16 17  1  0
 17 18  2  0
 17 19  1  0
 19 20  1  0
 20 21  1  0
 21 22  2  0
 21 23  1  0
 16  4  1  0
 15  6  1  0
  1 24  1  0
  1 25  1  0
  5 26  1  0
  7 27  1  0
  8 28  1  0
 14 29  1  0
 19 30  1  0
 19 31  1  0
 20 32  1  0
 20 33  1  0
M  CHG  1  23  -1
M  END
>  <UniqueID>  (83) 
83

>  <SMILES>  (83) 
NC(=O)c1cc2ccc(C(F)(F)F)cc2n1C(=O)CCC(=O)[O-]

>  <Energy>  (83) 
69.04720972787908

>  <Genealogy>  (83) 
NC(=O)c1cc2ccc(C(F)(F)F)cc2n1C(=O)CCC(=O)[O-] (protonated)
NC(=O)c1cc2ccc(C(F)(F)F)cc2n1C(=O)CCC(=O)[O-] (3D coordinates assigned)
NC(=O)c1cc2ccc(C(F)(F)F)cc2n1C(=O)CCC(=O)[O-] (optimized conformer: 69.04720972787908 kcal/mol)

>  <smiles>  (83) 
NC(=O)c1cc2ccc(C(F)(F)F)cc2n1C(=O)CCC(=O)O

>  <score_type>  (83) 
oracle

>  <origin>  (83) 
adg

>  <m_score__min__energy>  (83) 
-6.4199999999999999

>  <m_primary>  (83) 
energy

$$$$
83:0
     RDKit          3D

 27 28  0  0  0  0  0  0  0  0999 V2000
  147.7880  152.6090  133.4830 N   0  0  0  0  0  0  0  0  0  0  0  0
  148.5750  153.6990  133.0010 C   0  0  0  0  0  0  0  0  0  0  0  0
  149.7230  153.4710  132.5340 O   0  0  0  0  0  0  0  0  0  0  0  0
  148.0930  155.0940  133.0860 C   0  0  0  0  0  0  0  0  0  0  0  0
  148.8170  156.1900  132.6240 C   0  0  0  0  0  0  0  0  0  0  0  0
  148.0270  157.2860  132.8920 C   0  0  0  0  0  0  0  0  0  0  0  0
  148.2400  158.6320  132.6110 C   0  0  0  0  0  0  0  0  0  0  0  0
  147.2250  159.5430  132.9460 C   0  0  0  0  0  0  0  0  0  0  0  0
  146.0190  159.0950  133.5410 C   0  0  0  0  0  0  0  0  0  0  0  0
  144.9370  160.0830  133.8680 C   0  0  0  0  0  0  0  0  0  0  0  0
  145.4320  161.3700  133.7680 F   0  0  0  0  0  0  0  0  0  0  0  0
  143.8840  159.9280  132.9870 F   0  0  0  0  0  0  0  0  0  0  0  0
  145.8360  157.7190  133.8030 C   0  0  0  0  0  0  0  0  0  0  0  0
  146.8750  156.8380  133.4840 C   0  0  0  0  0  0  0  0  0  0  0  0
  146.9040  155.4930  133.6190 N   0  0  0  0  0  0  0  0  0  0  0  0
  145.8280  154.6550  134.0680 C   0  0  0  0  0  0  0  0  0  0  0  0
  145.0040  154.1990  133.2310 O   0  0  0  0  0  0  0  0  0  0  0  0
  145.6910  154.2920  135.4860 C   0  0  0  0  0  0  0  0  0  0  0  0
  144.7460  154.7590  136.1740 O   0  0  0  0  0  0  0  0  0  0  0  0
  146.6210  153.4490  136.0830 O   0  0  0  0  0  0  0  0  0  0  0  0
  148.1250  151.6280  133.3590 H   0  0  0  0  0  0  0  0  0  0  0  0
  146.9280  152.7700  134.0500 H   0  0  0  0  0  0  0  0  0  0  0  0
  149.8081  156.1822  132.1469 H   0  0  0  0  0  0  0  0  0  0  0  0
  149.1746  158.9721  132.1409 H   0  0  0  0  0  0  0  0  0  0  0  0
  147.3674  160.6150  132.7446 H   0  0  0  0  0  0  0  0  0  0  0  0
  144.5864  159.9051  134.8953 H   0  0  0  0  0  0  0  0  0  0  0  0
  144.8998  157.3493  134.2468 H   0  0  0  0  0  0  0  0  0  0  0  0
  1  2  1  0
  2  3  2  0
  2  4  1  0
  4  5  2  0
  5  6  1  0
  6  7  2  0
  7  8  1  0
  8  9  2  0
  9 10  1  0
 10 11  1  0
 10 12  1  0
  9 13  1  0
 13 14  2  0
 14 15  1  0
 15 16  1  0
 16 17  2  0
 16 18  1  0
 18 19  2  0
 18 20  1  0
 15  4  1  0
 14  6  1  0
  1 21  1  0
  1 22  1  0
  5 23  1  0
  7 24  1  0
  8 25  1  0
 10 26  1  0
 13 27  1  0
M  CHG  1  20  -1
M  END
>  <UniqueID>  (84) 
84

>  <SMILES>  (84) 
NC(=O)c1cc2ccc(C(F)F)cc2n1C(=O)C(=O)[O-]

>  <Energy>  (84) 
67.32613301369281

>  <Genealogy>  (84) 
NC(=O)c1cc2ccc(C(F)F)cc2n1C(=O)C(=O)[O-] (protonated)
NC(=O)c1cc2ccc(C(F)F)cc2n1C(=O)C(=O)[O-] (3D coordinates assigned)
NC(=O)c1cc2ccc(C(F)F)cc2n1C(=O)C(=O)[O-] (optimized conformer: 67.32613301369281 kcal/mol)

>  <smiles>  (84) 
NC(=O)c1cc2ccc(C(F)F)cc2n1C(=O)C(=O)O

>  <score_type>  (84) 
oracle

>  <origin>  (84) 
adg

>  <m_score__min__energy>  (84) 
-5.6100000000000003

>  <m_primary>  (84) 
energy

$$$$
84:0
     RDKit          3D

 43 44  0  0  0  0  0  0  0  0999 V2000
  147.5930  153.9800  133.4930 C   0  0  0  0  0  0  0  0  0  0  0  0
  148.4140  154.9550  132.6560 C   0  0  0  0  0  0  0  0  0  0  0  0
  147.9170  156.3630  132.8400 C   0  0  0  0  0  0  0  0  0  0  0  0
  148.8390  157.4320  132.9720 C   0  0  0  0  0  0  0  0  0  0  0  0
  148.3870  158.7450  133.1850 C   0  0  0  0  0  0  0  0  0  0  0  0
  147.0140  158.9580  133.2630 C   0  0  0  0  0  0  0  0  0  0  0  0
  146.3050  160.1160  133.4960 C   0  0  0  0  0  0  0  0  0  0  0  0
  144.9640  159.7370  133.4960 C   0  0  0  0  0  0  0  0  0  0  0  0
  143.8430  160.6870  133.6670 C   0  0  0  0  0  0  0  0  0  0  0  0
  142.5090  160.3150  133.3360 N   0  0  0  0  0  0  0  0  0  0  0  0
  144.0730  161.8540  134.0820 O   0  0  0  0  0  0  0  0  0  0  0  0
  144.8490  158.3980  133.2690 N   0  0  0  0  0  0  0  0  0  0  0  0
  143.6510  157.6060  133.2720 C   0  0  0  0  0  0  0  0  0  0  0  0
  142.9470  157.5360  132.2290 O   0  0  0  0  0  0  0  0  0  0  0  0
  143.2300  156.8870  134.4830 C   0  0  0  0  0  0  0  0  0  0  0  0
  144.0880  156.2860  135.1820 O   0  0  0  0  0  0  0  0  0  0  0  0
  141.8450  156.8810  134.8560 N   0  0  0  0  0  0  0  0  0  0  0  0
  141.1160  157.9520  135.5470 C   0  0  0  0  0  0  0  0  0  0  0  0
  140.3430  157.3160  136.7140 C   0  0  0  0  0  0  0  0  0  0  0  0
  142.1080  158.9840  136.1140 C   0  0  0  0  0  0  0  0  0  0  0  0
  140.1220  158.6390  134.5830 C   0  0  0  0  0  0  0  0  0  0  0  0
  140.5330  158.4710  133.2520 O   0  0  0  0  0  0  0  0  0  0  0  0
  146.1100  157.9350  133.1340 C   0  0  0  0  0  0  0  0  0  0  0  0
  146.5310  156.6150  132.9400 C   0  0  0  0  0  0  0  0  0  0  0  0
  147.7622  154.1810  134.5612 H   0  0  0  0  0  0  0  0  0  0  0  0
  146.5252  154.1063  133.2608 H   0  0  0  0  0  0  0  0  0  0  0  0
  147.8993  152.9493  133.2608 H   0  0  0  0  0  0  0  0  0  0  0  0
  149.4675  154.9003  132.9678 H   0  0  0  0  0  0  0  0  0  0  0  0
  148.3152  154.6808  131.5953 H   0  0  0  0  0  0  0  0  0  0  0  0
  149.9186  157.2314  132.9070 H   0  0  0  0  0  0  0  0  0  0  0  0
  149.0967  159.5792  133.2870 H   0  0  0  0  0  0  0  0  0  0  0  0
  146.7116  161.1265  133.6496 H   0  0  0  0  0  0  0  0  0  0  0  0
  142.3170  159.5770  132.6210 H   0  0  0  0  0  0  0  0  0  0  0  0
  140.7665  157.6645  137.6675 H   0  0  0  0  0  0  0  0  0  0  0  0
  139.2841  157.6078  136.6547 H   0  0  0  0  0  0  0  0  0  0  0  0
  140.4254  156.2207  136.6547 H   0  0  0  0  0  0  0  0  0  0  0  0
  142.0796  158.9544  137.2132 H   0  0  0  0  0  0  0  0  0  0  0  0
  143.1241  158.7450  135.7669 H   0  0  0  0  0  0  0  0  0  0  0  0
  141.8291  159.9898  135.7669 H   0  0  0  0  0  0  0  0  0  0  0  0
  139.1248  158.1932  134.7130 H   0  0  0  0  0  0  0  0  0  0  0  0
  140.0893  159.7143  134.8123 H   0  0  0  0  0  0  0  0  0  0  0  0
  141.5200  158.3740  133.2780 H   0  0  0  0  0  0  0  0  0  0  0  0
  145.8016  155.7949  132.8673 H   0  0  0  0  0  0  0  0  0  0  0  0
  1  2  1  0
  2  3  1  0
  3  4  2  0
  4  5  1  0
  5  6  2  0
  6  7  1  0
  7  8  2  0
  8  9  1  0
  9 10  1  0
  9 11  2  0
  8 12  1  0
 12 13  1  0
 13 14  2  0
 13 15  1  0
 15 16  2  0
 15 17  1  0
 17 18  1  0
 18 19  1  0
 18 20  1  0
 18 21  1  0
 21 22  1  0
 12 23  1  0
 23 24  2  0
 24  3  1  0
 23  6  1  0
  1 25  1  0
  1 26  1  0
  1 27  1  0
  2 28  1  0
  2 29  1  0
  4 30  1  0
  5 31  1  0
  7 32  1  0
 10 33  1  0
 19 34  1  0
 19 35  1  0
 19 36  1  0
 20 37  1  0
 20 38  1  0
 20 39  1  0
 21 40  1  0
 21 41  1  0
 22 42  1  0
 24 43  1  0
M  CHG  2  10  -1  17  -1
M  END
>  <UniqueID>  (85) 
85

>  <SMILES>  (85) 
CCc1ccc2cc(C([NH-])=O)n(C(=O)C(=O)[N-]C(C)(C)CO)c2c1

>  <Energy>  (85) 
73.21896366728255

>  <Genealogy>  (85) 
CCc1ccc2cc(C([NH-])=O)n(C(=O)C(=O)[N-]C(C)(C)CO)c2c1 (protonated)
CCc1ccc2cc(C([NH-])=O)n(C(=O)C(=O)[N-]C(C)(C)CO)c2c1 (3D coordinates assigned)
CCc1ccc2cc(C([NH-])=O)n(C(=O)C(=O)[N-]C(C)(C)CO)c2c1 (optimized conformer: 73.21896366728255 kcal/mol)

>  <smiles>  (85) 
CCc1ccc2cc(C(N)=O)n(C(=O)C(=O)NC(C)(C)CO)c2c1

>  <score_type>  (85) 
oracle

>  <origin>  (85) 
adg

>  <m_score__min__energy>  (85) 
-7.1399999999999997

>  <m_primary>  (85) 
energy

$$$$
85:0
     RDKit          3D

 36 37  0  0  0  0  0  0  0  0999 V2000
  145.9740  160.4790  132.9800 N   0  0  0  0  0  0  0  0  0  0  0  0
  144.7500  160.6090  133.7030 C   0  0  0  0  0  0  0  0  0  0  0  0
  144.5630  161.6340  134.4120 O   0  0  0  0  0  0  0  0  0  0  0  0
  143.7280  159.5410  133.6590 C   0  0  0  0  0  0  0  0  0  0  0  0
  142.3590  159.7790  133.5460 C   0  0  0  0  0  0  0  0  0  0  0  0
  141.7790  158.5350  133.4490 C   0  0  0  0  0  0  0  0  0  0  0  0
  140.4380  158.1820  133.3410 C   0  0  0  0  0  0  0  0  0  0  0  0
  140.1200  156.8140  133.2970 C   0  0  0  0  0  0  0  0  0  0  0  0
  141.1390  155.8300  133.3530 C   0  0  0  0  0  0  0  0  0  0  0  0
  140.7780  154.3650  133.3750 C   0  0  0  0  0  0  0  0  0  0  0  0
  141.0190  153.8200  134.6240 F   0  0  0  0  0  0  0  0  0  0  0  0
  141.5400  153.6950  132.4360 F   0  0  0  0  0  0  0  0  0  0  0  0
  139.4370  154.1890  133.0770 F   0  0  0  0  0  0  0  0  0  0  0  0
  142.4880  156.2300  133.4860 C   0  0  0  0  0  0  0  0  0  0  0  0
  142.7790  157.6000  133.5060 C   0  0  0  0  0  0  0  0  0  0  0  0
  143.9830  158.2020  133.6340 N   0  0  0  0  0  0  0  0  0  0  0  0
  145.2550  157.5520  133.7930 C   0  0  0  0  0  0  0  0  0  0  0  0
  145.3700  156.5780  134.5880 O   0  0  0  0  0  0  0  0  0  0  0  0
  146.3650  158.0070  133.0730 O   0  0  0  0  0  0  0  0  0  0  0  0
  147.6450  158.1970  133.6660 C   0  0  0  0  0  0  0  0  0  0  0  0
  148.1830  159.4490  133.2540 O   0  0  0  0  0  0  0  0  0  0  0  0
  148.4990  159.7340  131.9230 C   0  0  0  0  0  0  0  0  0  0  0  0
  147.8000  160.5450  131.2580 O   0  0  0  0  0  0  0  0  0  0  0  0
  149.7000  159.1030  131.2880 C   0  0  0  0  0  0  0  0  0  0  0  0
  150.1580  158.0210  132.0540 O   0  0  0  0  0  0  0  0  0  0  0  0
  146.7120  161.2130  133.0610 H   0  0  0  0  0  0  0  0  0  0  0  0
  146.1340  159.6800  132.3280 H   0  0  0  0  0  0  0  0  0  0  0  0
  141.8504  160.7543  133.5364 H   0  0  0  0  0  0  0  0  0  0  0  0
  139.6514  158.9493  133.2916 H   0  0  0  0  0  0  0  0  0  0  0  0
  139.0679  156.5029  133.2182 H   0  0  0  0  0  0  0  0  0  0  0  0
  143.2907  155.4828  133.5718 H   0  0  0  0  0  0  0  0  0  0  0  0
  147.5461  158.1841  134.7615 H   0  0  0  0  0  0  0  0  0  0  0  0
  148.3184  157.3880  133.3466 H   0  0  0  0  0  0  0  0  0  0  0  0
  149.4305  158.7451  130.2834 H   0  0  0  0  0  0  0  0  0  0  0  0
  150.5010  159.8543  131.2249 H   0  0  0  0  0  0  0  0  0  0  0  0
  149.9690  158.2450  133.0030 H   0  0  0  0  0  0  0  0  0  0  0  0
  1  2  1  0
  2  3  2  0
  2  4  1  0
  4  5  2  0
  5  6  1  0
  6  7  2  0
  7  8  1  0
  8  9  2  0
  9 10  1  0
 10 11  1  0
 10 12  1  0
 10 13  1  0
  9 14  1  0
 14 15  2  0
 15 16  1  0
 16 17  1  0
 17 18  2  0
 17 19  1  0
 19 20  1  0
 20 21  1  0
 21 22  1  0
 22 23  2  0
 22 24  1  0
 24 25  1  0
 16  4  1  0
 15  6  1  0
  1 26  1  0
  1 27  1  0
  5 28  1  0
  7 29  1  0
  8 30  1  0
 14 31  1  0
 20 32  1  0
 20 33  1  0
 24 34  1  0
 24 35  1  0
 25 36  1  0
M  END
>  <UniqueID>  (86) 
86

>  <SMILES>  (86) 
NC(=O)c1cc2ccc(C(F)(F)F)cc2n1C(=O)OCOC(=O)CO

>  <Energy>  (86) 
70.85813725133352

>  <Genealogy>  (86) 
NC(=O)c1cc2ccc(C(F)(F)F)cc2n1C(=O)OCOC(=O)CO (3D coordinates assigned)
NC(=O)c1cc2ccc(C(F)(F)F)cc2n1C(=O)OCOC(=O)CO (optimized conformer: 70.85813725133352 kcal/mol)

>  <smiles>  (86) 
NC(=O)c1cc2ccc(C(F)(F)F)cc2n1C(=O)OCOC(=O)CO

>  <score_type>  (86) 
oracle

>  <origin>  (86) 
adg

>  <m_score__min__energy>  (86) 
-5.5099999999999998

>  <m_primary>  (86) 
energy

$$$$
86:0
     RDKit          3D

 32 34  0  0  0  0  0  0  0  0999 V2000
  138.3680  157.8110  133.7270 C   0  0  0  0  0  0  0  0  0  0  0  0
  139.6370  158.2910  134.2570 N   0  0  0  0  0  0  0  0  0  0  0  0
  140.7210  158.6150  133.5290 C   0  0  0  0  0  0  0  0  0  0  0  0
  141.7390  158.9570  134.4010 C   0  0  0  0  0  0  0  0  0  0  0  0
  143.1200  159.3850  134.0620 C   0  0  0  0  0  0  0  0  0  0  0  0
  143.4650  160.7640  134.0480 C   0  0  0  0  0  0  0  0  0  0  0  0
  144.7720  161.1780  133.7370 C   0  0  0  0  0  0  0  0  0  0  0  0
  145.7140  160.1990  133.4420 C   0  0  0  0  0  0  0  0  0  0  0  0
  147.0490  160.3200  133.1250 C   0  0  0  0  0  0  0  0  0  0  0  0
  147.5020  159.0160  132.9340 C   0  0  0  0  0  0  0  0  0  0  0  0
  148.8650  158.6720  132.4710 C   0  0  0  0  0  0  0  0  0  0  0  0
  149.1320  157.4060  131.8660 N   0  0  0  0  0  0  0  0  0  0  0  0
  149.8100  159.4870  132.6340 O   0  0  0  0  0  0  0  0  0  0  0  0
  146.4870  158.1260  133.1290 N   0  0  0  0  0  0  0  0  0  0  0  0
  146.5540  156.6920  133.0940 C   0  0  0  0  0  0  0  0  0  0  0  0
  146.8110  156.0990  132.0150 O   0  0  0  0  0  0  0  0  0  0  0  0
  146.1960  155.7200  134.5710 S   0  0  0  0  0  0  0  0  0  0  0  0
  145.4010  158.8670  133.4350 C   0  0  0  0  0  0  0  0  0  0  0  0
  144.1130  158.4220  133.7540 C   0  0  0  0  0  0  0  0  0  0  0  0
  141.1860  158.7990  135.6650 C   0  0  0  0  0  0  0  0  0  0  0  0
  139.9100  158.3840  135.5480 N   0  0  0  0  0  0  0  0  0  0  0  0
  137.6956  157.5567  134.5596 H   0  0  0  0  0  0  0  0  0  0  0  0
  137.9073  158.5970  133.1106 H   0  0  0  0  0  0  0  0  0  0  0  0
  138.5428  156.9169  133.1106 H   0  0  0  0  0  0  0  0  0  0  0  0
  140.7864  158.6090  132.4310 H   0  0  0  0  0  0  0  0  0  0  0  0
  142.6989  161.5174  134.2837 H   0  0  0  0  0  0  0  0  0  0  0  0
  145.0413  162.2445  133.7274 H   0  0  0  0  0  0  0  0  0  0  0  0
  147.6331  161.2483  133.0406 H   0  0  0  0  0  0  0  0  0  0  0  0
  148.3660  156.7270  131.6650 H   0  0  0  0  0  0  0  0  0  0  0  0
  150.1050  157.1590  131.5780 H   0  0  0  0  0  0  0  0  0  0  0  0
  143.8765  157.3478  133.7654 H   0  0  0  0  0  0  0  0  0  0  0  0
  141.7091  158.9841  136.6148 H   0  0  0  0  0  0  0  0  0  0  0  0
  1  2  1  0
  2  3  1  0
  3  4  2  0
  4  5  1  0
  5  6  2  0
  6  7  1  0
  7  8  2  0
  8  9  1  0
  9 10  2  0
 10 11  1  0
 11 12  1  0
 11 13  2  0
 10 14  1  0
 14 15  1  0
 15 16  2  0
 15 17  1  0
 14 18  1  0
 18 19  2  0
  4 20  1  0
 20 21  2  0
 21  2  1  0
 19  5  1  0
 18  8  1  0
  1 22  1  0
  1 23  1  0
  1 24  1  0
  3 25  1  0
  6 26  1  0
  7 27  1  0
  9 28  1  0
 12 29  1  0
 12 30  1  0
 19 31  1  0
 20 32  1  0
M  CHG  1  17  -1
M  END
>  <UniqueID>  (87) 
87

>  <SMILES>  (87) 
Cn1cc(-c2ccc3cc(C(N)=O)n(C(=O)[S-])c3c2)cn1

>  <Energy>  (87) 
105.49943735302526

>  <Genealogy>  (87) 
Cn1cc(-c2ccc3cc(C(N)=O)n(C(=O)[S-])c3c2)cn1 (protonated)
Cn1cc(-c2ccc3cc(C(N)=O)n(C(=O)[S-])c3c2)cn1 (3D coordinates assigned)
Cn1cc(-c2ccc3cc(C(N)=O)n(C(=O)[S-])c3c2)cn1 (optimized conformer: 105.49943735302526 kcal/mol)

>  <smiles>  (87) 
Cn1cc(-c2ccc3cc(C(N)=O)n(C(=O)S)c3c2)cn1

>  <score_type>  (87) 
oracle

>  <origin>  (87) 
adg

>  <m_score__min__energy>  (87) 
-6.8899999999999997

>  <m_primary>  (87) 
energy

$$$$
87:0
     RDKit          3D

 39 40  0  0  0  0  0  0  0  0999 V2000
  142.5680  161.1150  133.6490 N   0  0  0  0  0  0  0  0  0  0  0  0
  143.9700  161.3810  133.7250 C   0  0  0  0  0  0  0  0  0  0  0  0
  144.3590  162.5680  133.8950 O   0  0  0  0  0  0  0  0  0  0  0  0
  144.9610  160.2880  133.5850 C   0  0  0  0  0  0  0  0  0  0  0  0
  146.3400  160.4810  133.5020 C   0  0  0  0  0  0  0  0  0  0  0  0
  146.8820  159.2160  133.4420 C   0  0  0  0  0  0  0  0  0  0  0  0
  148.2100  158.8130  133.3440 C   0  0  0  0  0  0  0  0  0  0  0  0
  148.4780  157.4350  133.2750 C   0  0  0  0  0  0  0  0  0  0  0  0
  147.4200  156.4890  133.2780 C   0  0  0  0  0  0  0  0  0  0  0  0
  147.7210  155.0130  133.2410 C   0  0  0  0  0  0  0  0  0  0  0  0
  146.6880  154.3530  132.6030 F   0  0  0  0  0  0  0  0  0  0  0  0
  147.8530  154.5090  134.5240 F   0  0  0  0  0  0  0  0  0  0  0  0
  148.9010  154.7710  132.5590 F   0  0  0  0  0  0  0  0  0  0  0  0
  146.0850  156.9390  133.4000 C   0  0  0  0  0  0  0  0  0  0  0  0
  145.8510  158.3160  133.4890 C   0  0  0  0  0  0  0  0  0  0  0  0
  144.6670  158.9580  133.5850 N   0  0  0  0  0  0  0  0  0  0  0  0
  143.3650  158.3490  133.5960 C   0  0  0  0  0  0  0  0  0  0  0  0
  142.9350  157.7920  132.5510 O   0  0  0  0  0  0  0  0  0  0  0  0
  142.5280  158.4050  134.8140 C   0  0  0  0  0  0  0  0  0  0  0  0
  142.6660  159.3780  135.6010 O   0  0  0  0  0  0  0  0  0  0  0  0
  141.5760  157.3880  135.1480 N   0  0  0  0  0  0  0  0  0  0  0  0
  140.5010  156.9120  134.2840 C   0  0  0  0  0  0  0  0  0  0  0  0
  139.5730  158.0720  133.9030 C   0  0  0  0  0  0  0  0  0  0  0  0
  139.6190  158.4140  132.4060 C   0  0  0  0  0  0  0  0  0  0  0  0
  139.5840  159.8910  132.1610 C   0  0  0  0  0  0  0  0  0  0  0  0
  140.2390  160.6720  132.9010 O   0  0  0  0  0  0  0  0  0  0  0  0
  138.8470  160.4040  131.1020 O   0  0  0  0  0  0  0  0  0  0  0  0
  142.2010  160.1410  133.5740 H   0  0  0  0  0  0  0  0  0  0  0  0
  141.8840  161.9010  133.7120 H   0  0  0  0  0  0  0  0  0  0  0  0
  146.8798  161.4394  133.4875 H   0  0  0  0  0  0  0  0  0  0  0  0
  149.0257  159.5506  133.3212 H   0  0  0  0  0  0  0  0  0  0  0  0
  149.5195  157.0858  133.2180 H   0  0  0  0  0  0  0  0  0  0  0  0
  145.2499  156.2235  133.4244 H   0  0  0  0  0  0  0  0  0  0  0  0
  140.9343  156.4785  133.3705 H   0  0  0  0  0  0  0  0  0  0  0  0
  139.9191  156.1497  134.8228 H   0  0  0  0  0  0  0  0  0  0  0  0
  138.5415  157.7965  134.1676 H   0  0  0  0  0  0  0  0  0  0  0  0
  139.9160  158.9607  134.4531 H   0  0  0  0  0  0  0  0  0  0  0  0
  140.5465  158.0059  131.9779 H   0  0  0  0  0  0  0  0  0  0  0  0
  138.7303  157.9722  131.9316 H   0  0  0  0  0  0  0  0  0  0  0  0
  1  2  1  0
  2  3  2  0
  2  4  1  0
  4  5  2  0
  5  6  1  0
  6  7  2  0
  7  8  1  0
  8  9  2  0
  9 10  1  0
 10 11  1  0
 10 12  1  0
 10 13  1  0
  9 14  1  0
 14 15  2  0
 15 16  1  0
 16 17  1  0
 17 18  2  0
 17 19  1  0
 19 20  2  0
 19 21  1  0
 21 22  1  0
 22 23  1  0
 23 24  1  0
 24 25  1  0
 25 26  2  0
 25 27  1  0
 16  4  1  0
 15  6  1  0
  1 28  1  0
  1 29  1  0
  5 30  1  0
  7 31  1  0
  8 32  1  0
 14 33  1  0
 22 34  1  0
 22 35  1  0
 23 36  1  0
 23 37  1  0
 24 38  1  0
 24 39  1  0
M  CHG  2  21  -1  27  -1
M  END
>  <UniqueID>  (88) 
88

>  <SMILES>  (88) 
NC(=O)c1cc2ccc(C(F)(F)F)cc2n1C(=O)C(=O)[N-]CCCC(=O)[O-]

>  <Energy>  (88) 
74.75399478090148

>  <Genealogy>  (88) 
NC(=O)c1cc2ccc(C(F)(F)F)cc2n1C(=O)C(=O)[N-]CCCC(=O)[O-] (protonated)
NC(=O)c1cc2ccc(C(F)(F)F)cc2n1C(=O)C(=O)[N-]CCCC(=O)[O-] (3D coordinates assigned)
NC(=O)c1cc2ccc(C(F)(F)F)cc2n1C(=O)C(=O)[N-]CCCC(=O)[O-] (optimized conformer: 74.75399478090148 kcal/mol)

>  <smiles>  (88) 
NC(=O)c1cc2ccc(C(F)(F)F)cc2n1C(=O)C(=O)NCCCC(=O)O

>  <score_type>  (88) 
oracle

>  <origin>  (88) 
adg

>  <m_score__min__energy>  (88) 
-6.9100000000000001

>  <m_primary>  (88) 
energy

$$$$
88:0
     RDKit          3D

 41 43  0  0  0  0  0  0  0  0999 V2000
  149.9460  151.7450  132.2390 C   0  0  0  0  0  0  0  0  0  0  0  0
  148.9740  152.7820  132.5590 N   0  0  0  0  0  0  0  0  0  0  0  0
  149.2110  154.1060  132.5650 C   0  0  0  0  0  0  0  0  0  0  0  0
  148.0210  154.7560  132.8490 C   0  0  0  0  0  0  0  0  0  0  0  0
  147.7900  156.2180  132.9650 C   0  0  0  0  0  0  0  0  0  0  0  0
  148.8660  157.1310  132.8060 C   0  0  0  0  0  0  0  0  0  0  0  0
  148.6580  158.5170  132.9010 C   0  0  0  0  0  0  0  0  0  0  0  0
  147.3680  158.9670  133.1620 C   0  0  0  0  0  0  0  0  0  0  0  0
  146.8860  160.2500  133.2790 C   0  0  0  0  0  0  0  0  0  0  0  0
  145.5230  160.1100  133.5320 C   0  0  0  0  0  0  0  0  0  0  0  0
  144.6160  161.2420  133.8210 C   0  0  0  0  0  0  0  0  0  0  0  0
  143.1990  161.0810  133.7450 N   0  0  0  0  0  0  0  0  0  0  0  0
  145.0900  162.3730  134.1070 O   0  0  0  0  0  0  0  0  0  0  0  0
  145.1770  158.7920  133.5670 N   0  0  0  0  0  0  0  0  0  0  0  0
  143.8580  158.2450  133.7230 C   0  0  0  0  0  0  0  0  0  0  0  0
  143.4640  157.8570  134.8560 O   0  0  0  0  0  0  0  0  0  0  0  0
  143.0170  158.1360  132.6100 O   0  0  0  0  0  0  0  0  0  0  0  0
  141.7560  157.4750  132.6570 C   0  0  0  0  0  0  0  0  0  0  0  0
  140.6280  158.4950  132.5220 C   0  0  0  0  0  0  0  0  0  0  0  0
  140.8410  159.6610  133.4360 C   0  0  0  0  0  0  0  0  0  0  0  0
  140.7770  160.8370  132.9890 O   0  0  0  0  0  0  0  0  0  0  0  0
  141.0660  159.4510  134.7910 O   0  0  0  0  0  0  0  0  0  0  0  0
  146.3180  158.1040  133.3380 C   0  0  0  0  0  0  0  0  0  0  0  0
  146.4920  156.7200  133.2300 C   0  0  0  0  0  0  0  0  0  0  0  0
  147.0910  153.7340  132.9910 C   0  0  0  0  0  0  0  0  0  0  0  0
  147.6950  152.5450  132.8000 N   0  0  0  0  0  0  0  0  0  0  0  0
  150.3464  151.3178  133.1702 H   0  0  0  0  0  0  0  0  0  0  0  0
  149.4574  150.9529  131.6526 H   0  0  0  0  0  0  0  0  0  0  0  0
  150.7680  152.1813  131.6526 H   0  0  0  0  0  0  0  0  0  0  0  0
  150.1813  154.5889  132.3770 H   0  0  0  0  0  0  0  0  0  0  0  0
  149.8772  156.7472  132.6055 H   0  0  0  0  0  0  0  0  0  0  0  0
  149.4901  159.2250  132.7729 H   0  0  0  0  0  0  0  0  0  0  0  0
  147.4554  161.1871  133.1915 H   0  0  0  0  0  0  0  0  0  0  0  0
  142.7690  160.1480  133.5600 H   0  0  0  0  0  0  0  0  0  0  0  0
  142.5690  161.8940  133.9180 H   0  0  0  0  0  0  0  0  0  0  0  0
  141.6931  156.7506  131.8316 H   0  0  0  0  0  0  0  0  0  0  0  0
  141.6574  156.9521  133.6197 H   0  0  0  0  0  0  0  0  0  0  0  0
  140.5922  158.8551  131.4832 H   0  0  0  0  0  0  0  0  0  0  0  0
  139.6814  158.0060  132.7956 H   0  0  0  0  0  0  0  0  0  0  0  0
  145.6388  156.0359  133.3484 H   0  0  0  0  0  0  0  0  0  0  0  0
  146.0250  153.8740  133.2237 H   0  0  0  0  0  0  0  0  0  0  0  0
  1  2  1  0
  2  3  1  0
  3  4  2  0
  4  5  1  0
  5  6  2  0
  6  7  1  0
  7  8  2  0
  8  9  1  0
  9 10  2  0
 10 11  1  0
 11 12  1  0
 11 13  2  0
 10 14  1  0
 14 15  1  0
 15 16  2  0
 15 17  1  0
 17 18  1  0
 18 19  1  0
 19 20  1  0
 20 21  2  0
 20 22  1  0
 14 23  1  0
 23 24  2  0
  4 25  1  0
 25 26  2  0
 26  2  1  0
 24  5  1  0
 23  8  1  0
  1 27  1  0
  1 28  1  0
  1 29  1  0
  3 30  1  0
  6 31  1  0
  7 32  1  0
  9 33  1  0
 12 34  1  0
 12 35  1  0
 18 36  1  0
 18 37  1  0
 19 38  1  0
 19 39  1  0
 24 40  1  0
 25 41  1  0
M  CHG  1  22  -1
M  END
>  <UniqueID>  (89) 
89

>  <SMILES>  (89) 
Cn1cc(-c2ccc3cc(C(N)=O)n(C(=O)OCCC(=O)[O-])c3c2)cn1

>  <Energy>  (89) 
107.04392579526197

>  <Genealogy>  (89) 
Cn1cc(-c2ccc3cc(C(N)=O)n(C(=O)OCCC(=O)[O-])c3c2)cn1 (protonated)
Cn1cc(-c2ccc3cc(C(N)=O)n(C(=O)OCCC(=O)[O-])c3c2)cn1 (3D coordinates assigned)
Cn1cc(-c2ccc3cc(C(N)=O)n(C(=O)OCCC(=O)[O-])c3c2)cn1 (optimized conformer: 107.04392579526197 kcal/mol)

>  <smiles>  (89) 
Cn1cc(-c2ccc3cc(C(N)=O)n(C(=O)OCCC(=O)O)c3c2)cn1

>  <score_type>  (89) 
oracle

>  <origin>  (89) 
adg

>  <m_score__min__energy>  (89) 
-7.3899999999999997

>  <m_primary>  (89) 
energy

$$$$
89:0
     RDKit          3D

 41 42  0  0  0  0  0  0  0  0999 V2000
  142.1680  159.6870  133.0090 N   0  0  0  0  0  0  0  0  0  0  0  0
  143.4330  160.0990  133.5280 C   0  0  0  0  0  0  0  0  0  0  0  0
  143.5410  161.2350  134.0610 O   0  0  0  0  0  0  0  0  0  0  0  0
  144.6290  159.2460  133.3910 C   0  0  0  0  0  0  0  0  0  0  0  0
  145.8930  159.7450  133.0860 C   0  0  0  0  0  0  0  0  0  0  0  0
  146.7010  158.6380  132.9610 C   0  0  0  0  0  0  0  0  0  0  0  0
  148.0570  158.5510  132.6600 C   0  0  0  0  0  0  0  0  0  0  0  0
  148.6410  157.2740  132.6170 C   0  0  0  0  0  0  0  0  0  0  0  0
  147.8680  156.1180  132.8880 C   0  0  0  0  0  0  0  0  0  0  0  0
  148.5000  154.7540  132.8620 C   0  0  0  0  0  0  0  0  0  0  0  0
  149.8230  154.8640  132.4760 F   0  0  0  0  0  0  0  0  0  0  0  0
  148.4370  154.1870  134.1210 F   0  0  0  0  0  0  0  0  0  0  0  0
  146.4970  156.2470  133.1990 C   0  0  0  0  0  0  0  0  0  0  0  0
  145.9320  157.5290  133.2040 C   0  0  0  0  0  0  0  0  0  0  0  0
  144.6560  157.8860  133.4710 N   0  0  0  0  0  0  0  0  0  0  0  0
  143.5750  157.0060  133.8250 C   0  0  0  0  0  0  0  0  0  0  0  0
  143.6200  156.3490  134.9010 O   0  0  0  0  0  0  0  0  0  0  0  0
  142.4740  156.8880  132.9740 O   0  0  0  0  0  0  0  0  0  0  0  0
  141.2420  156.2950  133.3700 C   0  0  0  0  0  0  0  0  0  0  0  0
  140.4380  157.2910  134.2020 C   0  0  0  0  0  0  0  0  0  0  0  0
  140.1160  158.4280  133.4190 O   0  0  0  0  0  0  0  0  0  0  0  0
  138.8460  158.2770  132.8160 C   0  0  0  0  0  0  0  0  0  0  0  0
  138.9350  158.6950  131.3520 C   0  0  0  0  0  0  0  0  0  0  0  0
  138.9760  160.1870  131.2330 C   0  0  0  0  0  0  0  0  0  0  0  0
  139.5550  160.8770  132.1120 O   0  0  0  0  0  0  0  0  0  0  0  0
  138.3280  160.8170  130.1780 O   0  0  0  0  0  0  0  0  0  0  0  0
  142.0810  158.8330  132.4150 H   0  0  0  0  0  0  0  0  0  0  0  0
  141.3240  160.2860  133.1480 H   0  0  0  0  0  0  0  0  0  0  0  0
  146.1836  160.7995  132.9698 H   0  0  0  0  0  0  0  0  0  0  0  0
  148.6530  159.4541  132.4619 H   0  0  0  0  0  0  0  0  0  0  0  0
  149.7081  157.1707  132.3707 H   0  0  0  0  0  0  0  0  0  0  0  0
  147.9584  154.1181  132.1462 H   0  0  0  0  0  0  0  0  0  0  0  0
  145.8868  155.3619  133.4319 H   0  0  0  0  0  0  0  0  0  0  0  0
  140.6658  156.0161  132.4755 H   0  0  0  0  0  0  0  0  0  0  0  0
  141.4457  155.3970  133.9717 H   0  0  0  0  0  0  0  0  0  0  0  0
  139.5100  156.8118  134.5474 H   0  0  0  0  0  0  0  0  0  0  0  0
  141.0391  157.6069  135.0674 H   0  0  0  0  0  0  0  0  0  0  0  0
  138.5307  157.2251  132.8801 H   0  0  0  0  0  0  0  0  0  0  0  0
  138.1112  158.9081  133.3373 H   0  0  0  0  0  0  0  0  0  0  0  0
  139.8489  158.2716  130.9098 H   0  0  0  0  0  0  0  0  0  0  0  0
  138.0474  158.3205  130.8210 H   0  0  0  0  0  0  0  0  0  0  0  0
  1  2  1  0
  2  3  2  0
  2  4  1  0
  4  5  2  0
  5  6  1  0
  6  7  2  0
  7  8  1  0
  8  9  2  0
  9 10  1  0
 10 11  1  0
 10 12  1  0
  9 13  1  0
 13 14  2  0
 14 15  1  0
 15 16  1  0
 16 17  2  0
 16 18  1  0
 18 19  1  0
 19 20  1  0
 20 21  1  0
 21 22  1  0
 22 23  1  0
 23 24  1  0
 24 25  2  0
 24 26  1  0
 15  4  1  0
 14  6  1  0
  1 27  1  0
  1 28  1  0
  5 29  1  0
  7 30  1  0
  8 31  1  0
 10 32  1  0
 13 33  1  0
 19 34  1  0
 19 35  1  0
 20 36  1  0
 20 37  1  0
 22 38  1  0
 22 39  1  0
 23 40  1  0
 23 41  1  0
M  CHG  1  26  -1
M  END
>  <UniqueID>  (90) 
90

>  <SMILES>  (90) 
NC(=O)c1cc2ccc(C(F)F)cc2n1C(=O)OCCOCCC(=O)[O-]

>  <Energy>  (90) 
73.18813339672339

>  <Genealogy>  (90) 
NC(=O)c1cc2ccc(C(F)F)cc2n1C(=O)OCCOCCC(=O)[O-] (protonated)
NC(=O)c1cc2ccc(C(F)F)cc2n1C(=O)OCCOCCC(=O)[O-] (3D coordinates assigned)
NC(=O)c1cc2ccc(C(F)F)cc2n1C(=O)OCCOCCC(=O)[O-] (optimized conformer: 73.18813339672339 kcal/mol)

>  <smiles>  (90) 
NC(=O)c1cc2ccc(C(F)F)cc2n1C(=O)OCCOCCC(=O)O

>  <score_type>  (90) 
oracle

>  <origin>  (90) 
adg

>  <m_score__min__energy>  (90) 
-6.3899999999999997

>  <m_primary>  (90) 
energy

$$$$
90:0
     RDKit          3D

 40 42  0  0  0  0  0  0  0  0999 V2000
  146.8720  160.8630  133.5610 N   0  0  0  0  0  0  0  0  0  0  0  0
  145.7940  159.9430  133.7140 C   0  0  0  0  0  0  0  0  0  0  0  0
  144.6760  160.3670  134.1110 O   0  0  0  0  0  0  0  0  0  0  0  0
  145.9770  158.5010  133.4460 C   0  0  0  0  0  0  0  0  0  0  0  0
  144.9280  157.5840  133.4030 C   0  0  0  0  0  0  0  0  0  0  0  0
  145.5200  156.3610  133.1750 C   0  0  0  0  0  0  0  0  0  0  0  0
  144.9470  155.1020  133.0220 C   0  0  0  0  0  0  0  0  0  0  0  0
  145.8030  154.0180  132.7610 C   0  0  0  0  0  0  0  0  0  0  0  0
  147.2030  154.2110  132.6480 C   0  0  0  0  0  0  0  0  0  0  0  0
  148.0680  153.0920  132.3780 N   0  0  0  0  0  0  0  0  0  0  0  0
  147.4370  151.8050  132.0310 C   0  0  0  0  0  0  0  0  0  0  0  0
  148.1430  150.5710  132.6080 C   0  0  0  0  0  0  0  0  0  0  0  0
  149.3670  150.1440  131.7800 C   0  0  0  0  0  0  0  0  0  0  0  0
  150.5110  151.0440  131.9720 N   0  0  0  0  0  0  0  0  0  0  0  0
  150.2550  152.0860  132.9720 C   0  0  0  0  0  0  0  0  0  0  0  0
  149.5240  153.3010  132.3800 C   0  0  0  0  0  0  0  0  0  0  0  0
  147.7450  155.5060  132.8080 C   0  0  0  0  0  0  0  0  0  0  0  0
  146.8720  156.5620  133.0860 C   0  0  0  0  0  0  0  0  0  0  0  0
  147.1700  157.8680  133.2550 N   0  0  0  0  0  0  0  0  0  0  0  0
  148.4720  158.4640  133.1550 C   0  0  0  0  0  0  0  0  0  0  0  0
  148.9520  159.0830  134.1410 O   0  0  0  0  0  0  0  0  0  0  0  0
  149.2560  158.3590  131.9160 C   0  0  0  0  0  0  0  0  0  0  0  0
  148.9190  159.0100  130.8910 O   0  0  0  0  0  0  0  0  0  0  0  0
  150.3670  157.5270  131.8630 O   0  0  0  0  0  0  0  0  0  0  0  0
  147.6930  160.8390  134.2060 H   0  0  0  0  0  0  0  0  0  0  0  0
  143.8549  157.7926  133.5252 H   0  0  0  0  0  0  0  0  0  0  0  0
  143.8592  154.9597  133.1027 H   0  0  0  0  0  0  0  0  0  0  0  0
  145.3819  153.0087  132.6431 H   0  0  0  0  0  0  0  0  0  0  0  0
  146.4038  151.8168  132.4083 H   0  0  0  0  0  0  0  0  0  0  0  0
  147.4958  151.7142  130.9363 H   0  0  0  0  0  0  0  0  0  0  0  0
  148.4739  150.8017  133.6314 H   0  0  0  0  0  0  0  0  0  0  0  0
  147.4238  149.7389  132.5899 H   0  0  0  0  0  0  0  0  0  0  0  0
  149.6615  149.1281  132.0821 H   0  0  0  0  0  0  0  0  0  0  0  0
  149.0842  150.1811  130.7176 H   0  0  0  0  0  0  0  0  0  0  0  0
  150.7910  151.4740  131.0590 H   0  0  0  0  0  0  0  0  0  0  0  0
  149.6371  151.6595  133.7760 H   0  0  0  0  0  0  0  0  0  0  0  0
  151.2278  152.4325  133.3510 H   0  0  0  0  0  0  0  0  0  0  0  0
  149.7587  154.1906  132.9829 H   0  0  0  0  0  0  0  0  0  0  0  0
  149.8592  153.4392  131.3415 H   0  0  0  0  0  0  0  0  0  0  0  0
  148.8274  155.6791  132.7161 H   0  0  0  0  0  0  0  0  0  0  0  0
  1  2  1  0
  2  3  2  0
  2  4  1  0
  4  5  2  0
  5  6  1  0
  6  7  2  0
  7  8  1  0
  8  9  2  0
  9 10  1  0
 10 11  1  0
 11 12  1  0
 12 13  1  0
 13 14  1  0
 14 15  1  0
 15 16  1  0
  9 17  1  0
 17 18  2  0
 18 19  1  0
 19 20  1  0
 20 21  2  0
 20 22  1  0
 22 23  2  0
 22 24  1  0
 19  4  1  0
 18  6  1  0
 16 10  1  0
  1 25  1  0
  5 26  1  0
  7 27  1  0
  8 28  1  0
 11 29  1  0
 11 30  1  0
 12 31  1  0
 12 32  1  0
 13 33  1  0
 13 34  1  0
 14 35  1  0
 15 36  1  0
 15 37  1  0
 16 38  1  0
 16 39  1  0
 17 40  1  0
M  CHG  2   1  -1  24  -1
M  END
>  <UniqueID>  (91) 
91

>  <SMILES>  (91) 
[NH-]C(=O)c1cc2ccc(N3CCCNCC3)cc2n1C(=O)C(=O)[O-]

>  <Energy>  (91) 
88.26389741261985

>  <Genealogy>  (91) 
[NH-]C(=O)c1cc2ccc(N3CCCNCC3)cc2n1C(=O)C(=O)[O-] (protonated)
[NH-]C(=O)c1cc2ccc(N3CCCNCC3)cc2n1C(=O)C(=O)[O-] (3D coordinates assigned)
[NH-]C(=O)c1cc2ccc(N3CCCNCC3)cc2n1C(=O)C(=O)[O-] (nonaromatic ring conformer: 88.26389741261985 kcal/mol)

>  <smiles>  (91) 
NC(=O)c1cc2ccc(N3CCCNCC3)cc2n1C(=O)C(=O)O

>  <score_type>  (91) 
oracle

>  <origin>  (91) 
adg

>  <m_score__min__energy>  (91) 
-5.1299999999999999

>  <m_primary>  (91) 
energy

$$$$
91:0
     RDKit          3D

 31 33  0  0  0  0  0  0  0  0999 V2000
  149.0330  157.4730  131.8560 N   0  0  0  0  0  0  0  0  0  0  0  0
  148.7210  158.6670  132.5740 C   0  0  0  0  0  0  0  0  0  0  0  0
  149.6300  159.5100  132.7940 O   0  0  0  0  0  0  0  0  0  0  0  0
  147.3400  158.9610  133.0030 C   0  0  0  0  0  0  0  0  0  0  0  0
  146.8340  160.2530  133.1210 C   0  0  0  0  0  0  0  0  0  0  0  0
  145.5130  160.0940  133.4730 C   0  0  0  0  0  0  0  0  0  0  0  0
  144.5390  161.0520  133.7330 C   0  0  0  0  0  0  0  0  0  0  0  0
  143.2630  160.6070  134.1120 C   0  0  0  0  0  0  0  0  0  0  0  0
  142.9850  159.2210  134.2400 C   0  0  0  0  0  0  0  0  0  0  0  0
  141.6370  158.7610  134.6480 C   0  0  0  0  0  0  0  0  0  0  0  0
  140.7420  158.2560  133.6900 C   0  0  0  0  0  0  0  0  0  0  0  0
  139.4700  157.8280  134.0730 C   0  0  0  0  0  0  0  0  0  0  0  0
  139.1000  157.9010  135.4160 C   0  0  0  0  0  0  0  0  0  0  0  0
  139.9760  158.3800  136.3380 N   0  0  0  0  0  0  0  0  0  0  0  0
  141.2200  158.8080  135.9930 C   0  0  0  0  0  0  0  0  0  0  0  0
  142.0590  159.2420  136.9660 F   0  0  0  0  0  0  0  0  0  0  0  0
  144.0040  158.2790  133.9640 C   0  0  0  0  0  0  0  0  0  0  0  0
  145.2610  158.7500  133.5670 C   0  0  0  0  0  0  0  0  0  0  0  0
  146.3770  158.0390  133.2840 N   0  0  0  0  0  0  0  0  0  0  0  0
  146.5410  156.6130  133.3870 C   0  0  0  0  0  0  0  0  0  0  0  0
  146.8200  155.9270  132.3690 O   0  0  0  0  0  0  0  0  0  0  0  0
  146.3860  155.9770  134.6130 O   0  0  0  0  0  0  0  0  0  0  0  0
  150.0210  157.2640  131.5900 H   0  0  0  0  0  0  0  0  0  0  0  0
  148.2800  156.8370  131.5130 H   0  0  0  0  0  0  0  0  0  0  0  0
  147.3745  161.1984  132.9660 H   0  0  0  0  0  0  0  0  0  0  0  0
  144.7618  162.1255  133.6443 H   0  0  0  0  0  0  0  0  0  0  0  0
  142.4688  161.3412  134.3123 H   0  0  0  0  0  0  0  0  0  0  0  0
  141.0449  158.1977  132.6341 H   0  0  0  0  0  0  0  0  0  0  0  0
  138.7663  157.4370  133.3234 H   0  0  0  0  0  0  0  0  0  0  0  0
  138.0985  157.5706  135.7290 H   0  0  0  0  0  0  0  0  0  0  0  0
  143.8126  157.2000  134.0593 H   0  0  0  0  0  0  0  0  0  0  0  0
  1  2  1  0
  2  3  2  0
  2  4  1  0
  4  5  2  0
  5  6  1  0
  6  7  2  0
  7  8  1  0
  8  9  2  0
  9 10  1  0
 10 11  2  0
 11 12  1  0
 12 13  2  0
 13 14  1  0
 14 15  2  0
 15 16  1  0
  9 17  1  0
 17 18  2  0
 18 19  1  0
 19 20  1  0
 20 21  2  0
 20 22  1  0
 19  4  1  0
 18  6  1  0
 15 10  1  0
  1 23  1  0
  1 24  1  0
  5 25  1  0
  7 26  1  0
  8 27  1  0
 11 28  1  0
 12 29  1  0
 13 30  1  0
 17 31  1  0
M  CHG  1  22  -1
M  END
>  <UniqueID>  (92) 
92

>  <SMILES>  (92) 
NC(=O)c1cc2ccc(-c3cccnc3F)cc2n1C(=O)[O-]

>  <Energy>  (92) 
80.98838514442117

>  <Genealogy>  (92) 
NC(=O)c1cc2ccc(-c3cccnc3F)cc2n1C(=O)[O-] (protonated)
NC(=O)c1cc2ccc(-c3cccnc3F)cc2n1C(=O)[O-] (3D coordinates assigned)
NC(=O)c1cc2ccc(-c3cccnc3F)cc2n1C(=O)[O-] (optimized conformer: 80.98838514442117 kcal/mol)

>  <smiles>  (92) 
NC(=O)c1cc2ccc(-c3cccnc3F)cc2n1C(=O)O

>  <score_type>  (92) 
oracle

>  <origin>  (92) 
adg

>  <m_score__min__energy>  (92) 
-7.0300000000000002

>  <m_primary>  (92) 
energy

$$$$
92:0
     RDKit          3D

 41 43  0  0  0  0  0  0  0  0999 V2000
  148.3470  160.4460  130.4950 C   0  0  0  0  0  0  0  0  0  0  0  0
  149.1010  160.2830  131.7500 N   0  0  0  0  0  0  0  0  0  0  0  0
  149.9070  159.0570  131.7180 C   0  0  0  0  0  0  0  0  0  0  0  0
  149.0730  157.9300  132.3110 C   0  0  0  0  0  0  0  0  0  0  0  0
  147.9660  158.6130  133.1090 C   0  0  2  0  0  0  0  0  0  0  0  0
  146.6390  158.1880  132.6370 N   0  0  0  0  0  0  0  0  0  0  0  0
  145.3970  158.6780  133.1800 C   0  0  0  0  0  0  0  0  0  0  0  0
  145.1720  160.0780  133.2260 C   0  0  0  0  0  0  0  0  0  0  0  0
  143.9790  160.6010  133.7520 C   0  0  0  0  0  0  0  0  0  0  0  0
  143.0240  159.7050  134.2190 C   0  0  0  0  0  0  0  0  0  0  0  0
  141.7950  159.9380  134.7930 C   0  0  0  0  0  0  0  0  0  0  0  0
  141.2730  158.6750  135.0690 C   0  0  0  0  0  0  0  0  0  0  0  0
  139.9280  158.4570  135.6390 C   0  0  0  0  0  0  0  0  0  0  0  0
  139.7300  158.3210  137.0470 N   0  0  0  0  0  0  0  0  0  0  0  0
  138.9400  158.3440  134.8660 O   0  0  0  0  0  0  0  0  0  0  0  0
  142.1520  157.7020  134.6980 N   0  0  0  0  0  0  0  0  0  0  0  0
  142.0410  156.2830  134.8950 C   0  0  0  0  0  0  0  0  0  0  0  0
  142.0260  155.5160  133.8960 O   0  0  0  0  0  0  0  0  0  0  0  0
  141.9790  155.7060  136.2460 C   0  0  0  0  0  0  0  0  0  0  0  0
  141.6810  156.4260  137.2350 O   0  0  0  0  0  0  0  0  0  0  0  0
  142.2680  154.3610  136.4410 O   0  0  0  0  0  0  0  0  0  0  0  0
  143.2150  158.3500  134.1720 C   0  0  0  0  0  0  0  0  0  0  0  0
  144.3980  157.7990  133.6700 C   0  0  0  0  0  0  0  0  0  0  0  0
  148.1910  160.1150  132.8900 C   0  0  0  0  0  0  0  0  0  0  0  0
  147.2957  160.6733  130.7257 H   0  0  0  0  0  0  0  0  0  0  0  0
  148.7809  161.2711  129.9111 H   0  0  0  0  0  0  0  0  0  0  0  0
  148.4013  159.5154  129.9111 H   0  0  0  0  0  0  0  0  0  0  0  0
  150.1771  158.8149  130.6795 H   0  0  0  0  0  0  0  0  0  0  0  0
  150.8324  159.1929  132.2969 H   0  0  0  0  0  0  0  0  0  0  0  0
  148.6426  157.3094  131.5113 H   0  0  0  0  0  0  0  0  0  0  0  0
  149.6793  157.2652  132.9438 H   0  0  0  0  0  0  0  0  0  0  0  0
  147.9984  158.3507  134.1768 H   0  0  0  0  0  0  0  0  0  0  0  0
  146.5800  157.4940  131.8570 H   0  0  0  0  0  0  0  0  0  0  0  0
  145.9427  160.7638  132.8443 H   0  0  0  0  0  0  0  0  0  0  0  0
  143.8057  161.6865  133.7931 H   0  0  0  0  0  0  0  0  0  0  0  0
  141.3250  160.9125  134.9916 H   0  0  0  0  0  0  0  0  0  0  0  0
  138.7650  158.2230  137.4320 H   0  0  0  0  0  0  0  0  0  0  0  0
  140.5380  158.2220  137.7010 H   0  0  0  0  0  0  0  0  0  0  0  0
  144.5501  156.7097  133.6555 H   0  0  0  0  0  0  0  0  0  0  0  0
  147.2311  160.6076  132.6755 H   0  0  0  0  0  0  0  0  0  0  0  0
  148.6261  160.5688  133.7926 H   0  0  0  0  0  0  0  0  0  0  0  0
  1  2  1  0
  2  3  1  0
  3  4  1  0
  4  5  1  0
  5  6  1  0
  6  7  1  0
  7  8  2  0
  8  9  1  0
  9 10  2  0
 10 11  1  0
 11 12  2  0
 12 13  1  0
 13 14  1  0
 13 15  2  0
 12 16  1  0
 16 17  1  0
 17 18  2  0
 17 19  1  0
 19 20  2  0
 19 21  1  0
 16 22  1  0
 22 23  2  0
  5 24  1  0
 24  2  1  0
 23  7  1  0
 22 10  1  0
  1 25  1  0
  1 26  1  0
  1 27  1  0
  3 28  1  0
  3 29  1  0
  4 30  1  0
  4 31  1  0
  5 32  1  1
  6 33  1  0
  8 34  1  0
  9 35  1  0
 11 36  1  0
 14 37  1  0
 14 38  1  0
 23 39  1  0
 24 40  1  0
 24 41  1  0
M  CHG  1  21  -1
M  END
>  <UniqueID>  (93) 
93

>  <SMILES>  (93) 
CN1CC[C@H](Nc2ccc3cc(C(N)=O)n(C(=O)C(=O)[O-])c3c2)C1

>  <Energy>  (93) 
85.40675494909725

>  <Genealogy>  (93) 
CN1CCC(Nc2ccc3cc(C(N)=O)n(C(=O)C(=O)[O-])c3c2)C1 (protonated)
CN1CC[C@H](Nc2ccc3cc(C(N)=O)n(C(=O)C(=O)[O-])c3c2)C1 (chirality)
CN1CC[C@H](Nc2ccc3cc(C(N)=O)n(C(=O)C(=O)[O-])c3c2)C1 (3D coordinates assigned)
CN1CC[C@H](Nc2ccc3cc(C(N)=O)n(C(=O)C(=O)[O-])c3c2)C1 (nonaromatic ring conformer: 85.40675494909725 kcal/mol)

>  <smiles>  (93) 
CN1CCC(Nc2ccc3cc(C(N)=O)n(C(=O)C(=O)O)c3c2)C1

>  <score_type>  (93) 
oracle

>  <origin>  (93) 
adg

>  <m_score__min__energy>  (93) 
-7.8200000000000003

>  <m_primary>  (93) 
energy

$$$$
93:0
     RDKit          3D

 37 38  0  0  0  0  0  0  0  0999 V2000
  146.3010  160.4620  132.9710 N   0  0  0  0  0  0  0  0  0  0  0  0
  145.6020  159.3160  133.4580 C   0  0  0  0  0  0  0  0  0  0  0  0
  144.5180  159.4740  134.0810 O   0  0  0  0  0  0  0  0  0  0  0  0
  146.1550  157.9570  133.2980 C   0  0  0  0  0  0  0  0  0  0  0  0
  145.3810  156.8010  133.3740 C   0  0  0  0  0  0  0  0  0  0  0  0
  146.2680  155.7600  133.2340 C   0  0  0  0  0  0  0  0  0  0  0  0
  146.0390  154.3880  133.2130 C   0  0  0  0  0  0  0  0  0  0  0  0
  147.1390  153.5380  133.0090 C   0  0  0  0  0  0  0  0  0  0  0  0
  148.4390  154.0720  132.8290 C   0  0  0  0  0  0  0  0  0  0  0  0
  149.6020  153.1580  132.5590 C   0  0  0  0  0  0  0  0  0  0  0  0
  149.4090  151.8480  133.2710 C   0  0  0  0  0  0  0  0  0  0  0  0
  149.4540  151.8140  134.4930 O   0  0  0  0  0  0  0  0  0  0  0  0
  149.1280  150.5940  132.4850 C   0  0  0  0  0  0  0  0  0  0  0  0
  148.5110  149.6190  133.2840 O   0  0  0  0  0  0  0  0  0  0  0  0
  148.6320  155.4710  132.8450 C   0  0  0  0  0  0  0  0  0  0  0  0
  147.5220  156.2940  133.0710 C   0  0  0  0  0  0  0  0  0  0  0  0
  147.4670  157.6470  133.1030 N   0  0  0  0  0  0  0  0  0  0  0  0
  148.5490  158.5610  132.8570 C   0  0  0  0  0  0  0  0  0  0  0  0
  148.8640  159.4190  133.7260 O   0  0  0  0  0  0  0  0  0  0  0  0
  149.2540  158.4930  131.6500 O   0  0  0  0  0  0  0  0  0  0  0  0
  149.9320  159.6130  131.0930 C   0  0  0  0  0  0  0  0  0  0  0  0
  148.9420  160.6810  130.7690 C   0  0  0  0  0  0  0  0  0  0  0  0
  147.7370  160.3840  130.5640 O   0  0  0  0  0  0  0  0  0  0  0  0
  149.3450  162.0090  130.7000 O   0  0  0  0  0  0  0  0  0  0  0  0
  147.2760  160.3840  132.6050 H   0  0  0  0  0  0  0  0  0  0  0  0
  145.8800  161.4120  133.0670 H   0  0  0  0  0  0  0  0  0  0  0  0
  144.2922  156.7352  133.5158 H   0  0  0  0  0  0  0  0  0  0  0  0
  145.0267  153.9807  133.3520 H   0  0  0  0  0  0  0  0  0  0  0  0
  146.9896  152.4484  132.9889 H   0  0  0  0  0  0  0  0  0  0  0  0
  149.6773  152.9757  131.4768 H   0  0  0  0  0  0  0  0  0  0  0  0
  150.5243  153.6329  132.9249 H   0  0  0  0  0  0  0  0  0  0  0  0
  148.4642  150.8400  131.6431 H   0  0  0  0  0  0  0  0  0  0  0  0
  150.0845  150.1905  132.1213 H   0  0  0  0  0  0  0  0  0  0  0  0
  148.2340  150.0730  134.1220 H   0  0  0  0  0  0  0  0  0  0  0  0
  149.6304  155.9037  132.6838 H   0  0  0  0  0  0  0  0  0  0  0  0
  150.6627  159.9981  131.8195 H   0  0  0  0  0  0  0  0  0  0  0  0
  150.4552  159.3065  130.1752 H   0  0  0  0  0  0  0  0  0  0  0  0
  1  2  1  0
  2  3  2  0
  2  4  1  0
  4  5  2  0
  5  6  1  0
  6  7  2  0
  7  8  1  0
  8  9  2  0
  9 10  1  0
 10 11  1  0
 11 12  2  0
 11 13  1  0
 13 14  1  0
  9 15  1  0
 15 16  2  0
 16 17  1  0
 17 18  1  0
 18 19  2  0
 18 20  1  0
 20 21  1  0
 21 22  1  0
 22 23  2  0
 22 24  1  0
 17  4  1  0
 16  6  1  0
  1 25  1  0
  1 26  1  0
  5 27  1  0
  7 28  1  0
  8 29  1  0
 10 30  1  0
 10 31  1  0
 13 32  1  0
 13 33  1  0
 14 34  1  0
 15 35  1  0
 21 36  1  0
 21 37  1  0
M  CHG  1  24  -1
M  END
>  <UniqueID>  (94) 
94

>  <SMILES>  (94) 
NC(=O)c1cc2ccc(CC(=O)CO)cc2n1C(=O)OCC(=O)[O-]

>  <Energy>  (94) 
70.50626086327614

>  <Genealogy>  (94) 
NC(=O)c1cc2ccc(CC(=O)CO)cc2n1C(=O)OCC(=O)[O-] (protonated)
NC(=O)c1cc2ccc(CC(=O)CO)cc2n1C(=O)OCC(=O)[O-] (3D coordinates assigned)
NC(=O)c1cc2ccc(CC(=O)CO)cc2n1C(=O)OCC(=O)[O-] (optimized conformer: 70.50626086327614 kcal/mol)

>  <smiles>  (94) 
NC(=O)c1cc2ccc(CC(=O)CO)cc2n1C(=O)OCC(=O)O

>  <score_type>  (94) 
oracle

>  <origin>  (94) 
adg

>  <m_score__min__energy>  (94) 
-6.71

>  <m_primary>  (94) 
energy

$$$$
94:0
     RDKit          3D

 45 46  0  0  0  0  0  0  0  0999 V2000
  139.1340  160.8430  131.8710 C   0  0  0  0  0  0  0  0  0  0  0  0
  139.6470  159.4670  131.9770 N   0  0  0  0  0  0  0  0  0  0  0  0
  140.2060  159.0480  130.6800 C   0  0  0  0  0  0  0  0  0  0  0  0
  138.5780  158.5440  132.4190 C   0  0  0  0  0  0  0  0  0  0  0  0
  139.0490  157.7370  133.6350 C   0  0  0  0  0  0  0  0  0  0  0  0
  140.5060  157.7740  133.7480 N   0  0  0  0  0  0  0  0  0  0  0  0
  141.2470  156.8310  134.5380 C   0  0  0  0  0  0  0  0  0  0  0  0
  140.6450  155.9570  135.2210 O   0  0  0  0  0  0  0  0  0  0  0  0
  142.7430  156.8890  134.5720 C   0  0  0  0  0  0  0  0  0  0  0  0
  143.2650  157.5670  133.3400 C   0  0  0  0  0  0  0  0  0  0  0  0
  142.6110  157.4970  132.2650 O   0  0  0  0  0  0  0  0  0  0  0  0
  144.4420  158.3840  133.4050 N   0  0  0  0  0  0  0  0  0  0  0  0
  144.5220  159.7440  133.3890 C   0  0  0  0  0  0  0  0  0  0  0  0
  143.3810  160.6800  133.4440 C   0  0  0  0  0  0  0  0  0  0  0  0
  142.0500  160.2300  133.2090 N   0  0  0  0  0  0  0  0  0  0  0  0
  143.5810  161.8900  133.7310 O   0  0  0  0  0  0  0  0  0  0  0  0
  145.8550  160.1520  133.3570 C   0  0  0  0  0  0  0  0  0  0  0  0
  146.5930  158.9880  133.3570 C   0  0  0  0  0  0  0  0  0  0  0  0
  147.9690  158.8000  133.2920 C   0  0  0  0  0  0  0  0  0  0  0  0
  148.4520  157.4800  133.2520 C   0  0  0  0  0  0  0  0  0  0  0  0
  147.5580  156.3770  133.2960 C   0  0  0  0  0  0  0  0  0  0  0  0
  148.0830  154.9690  133.1780 C   0  0  0  0  0  0  0  0  0  0  0  0
  148.2620  154.4050  134.4330 F   0  0  0  0  0  0  0  0  0  0  0  0
  147.1970  154.1760  132.4650 F   0  0  0  0  0  0  0  0  0  0  0  0
  149.3020  154.9950  132.5190 F   0  0  0  0  0  0  0  0  0  0  0  0
  146.1630  156.6120  133.3450 C   0  0  0  0  0  0  0  0  0  0  0  0
  145.7150  157.9360  133.3890 C   0  0  0  0  0  0  0  0  0  0  0  0
  138.9802  161.2556  132.8790 H   0  0  0  0  0  0  0  0  0  0  0  0
  139.8608  161.4644  131.3274 H   0  0  0  0  0  0  0  0  0  0  0  0
  138.1777  160.8369  131.3274 H   0  0  0  0  0  0  0  0  0  0  0  0
  141.0757  158.3961  130.8490 H   0  0  0  0  0  0  0  0  0  0  0  0
  139.4411  158.4989  130.1113 H   0  0  0  0  0  0  0  0  0  0  0  0
  140.5185  159.9362  130.1113 H   0  0  0  0  0  0  0  0  0  0  0  0
  137.6850  159.1254  132.6918 H   0  0  0  0  0  0  0  0  0  0  0  0
  138.3374  157.8520  131.5985 H   0  0  0  0  0  0  0  0  0  0  0  0
  138.6054  158.1650  134.5460 H   0  0  0  0  0  0  0  0  0  0  0  0
  138.7308  156.6915  133.5098 H   0  0  0  0  0  0  0  0  0  0  0  0
  141.0190  158.5470  133.2670 H   0  0  0  0  0  0  0  0  0  0  0  0
  143.0643  157.4526  135.4603 H   0  0  0  0  0  0  0  0  0  0  0  0
  143.1404  155.8641  134.6124 H   0  0  0  0  0  0  0  0  0  0  0  0
  141.8370  159.5560  132.4400 H   0  0  0  0  0  0  0  0  0  0  0  0
  146.2364  161.1835  133.3362 H   0  0  0  0  0  0  0  0  0  0  0  0
  148.6583  159.6570  133.2725 H   0  0  0  0  0  0  0  0  0  0  0  0
  149.5350  157.2994  133.1858 H   0  0  0  0  0  0  0  0  0  0  0  0
  145.4496  155.7747  133.3484 H   0  0  0  0  0  0  0  0  0  0  0  0
  1  2  1  0
  2  3  1  0
  2  4  1  0
  4  5  1  0
  5  6  1  0
  6  7  1  0
  7  8  2  0
  7  9  1  0
  9 10  1  0
 10 11  2  0
 10 12  1  0
 12 13  1  0
 13 14  1  0
 14 15  1  0
 14 16  2  0
 13 17  2  0
 17 18  1  0
 18 19  2  0
 19 20  1  0
 20 21  2  0
 21 22  1  0
 22 23  1  0
 22 24  1  0
 22 25  1  0
 21 26  1  0
 26 27  2  0
 27 12  1  0
 27 18  1  0
  1 28  1  0
  1 29  1  0
  1 30  1  0
  3 31  1  0
  3 32  1  0
  3 33  1  0
  4 34  1  0
  4 35  1  0
  5 36  1  0
  5 37  1  0
  6 38  1  0
  9 39  1  0
  9 40  1  0
 15 41  1  0
 17 42  1  0
 19 43  1  0
 20 44  1  0
 26 45  1  0
M  CHG  1  15  -1
M  END
>  <UniqueID>  (95) 
95

>  <SMILES>  (95) 
CN(C)CCNC(=O)CC(=O)n1c(C([NH-])=O)cc2ccc(C(F)(F)F)cc21

>  <Energy>  (95) 
77.17997529554864

>  <Genealogy>  (95) 
CN(C)CCNC(=O)CC(=O)n1c(C([NH-])=O)cc2ccc(C(F)(F)F)cc21 (protonated)
CN(C)CCNC(=O)CC(=O)n1c(C([NH-])=O)cc2ccc(C(F)(F)F)cc21 (3D coordinates assigned)
CN(C)CCNC(=O)CC(=O)n1c(C([NH-])=O)cc2ccc(C(F)(F)F)cc21 (optimized conformer: 77.17997529554864 kcal/mol)

>  <smiles>  (95) 
CN(C)CCNC(=O)CC(=O)n1c(C(N)=O)cc2ccc(C(F)(F)F)cc21

>  <score_type>  (95) 
oracle

>  <origin>  (95) 
adg

>  <m_score__min__energy>  (95) 
-7.1100000000000003

>  <m_primary>  (95) 
energy

$$$$
95:0
     RDKit          3D

 40 41  0  0  0  0  0  0  0  0999 V2000
  144.9240  154.7590  135.6030 C   0  0  0  0  0  0  0  0  0  0  0  0
  143.9870  155.3070  134.6350 N   0  0  0  0  0  0  0  0  0  0  0  0
  143.5350  156.6680  134.5750 C   0  0  0  0  0  0  0  0  0  0  0  0
  142.8470  157.1100  135.5330 O   0  0  0  0  0  0  0  0  0  0  0  0
  143.8390  157.5730  133.4420 C   0  0  0  0  0  0  0  0  0  0  0  0
  142.9670  157.8290  132.5700 O   0  0  0  0  0  0  0  0  0  0  0  0
  145.1440  158.1600  133.3180 N   0  0  0  0  0  0  0  0  0  0  0  0
  145.4960  159.4610  133.5110 C   0  0  0  0  0  0  0  0  0  0  0  0
  144.5670  160.5810  133.7780 C   0  0  0  0  0  0  0  0  0  0  0  0
  143.1890  160.4930  133.4260 N   0  0  0  0  0  0  0  0  0  0  0  0
  145.0030  161.6430  134.2970 O   0  0  0  0  0  0  0  0  0  0  0  0
  146.8740  159.6190  133.3700 C   0  0  0  0  0  0  0  0  0  0  0  0
  147.3580  158.3620  133.0820 C   0  0  0  0  0  0  0  0  0  0  0  0
  148.6610  157.9310  132.8570 C   0  0  0  0  0  0  0  0  0  0  0  0
  148.8670  156.5640  132.6070 C   0  0  0  0  0  0  0  0  0  0  0  0
  147.7820  155.6530  132.5930 C   0  0  0  0  0  0  0  0  0  0  0  0
  148.0450  154.2590  132.3360 N   0  0  0  0  0  0  0  0  0  0  0  0
  149.2890  153.5670  132.6870 C   0  0  0  0  0  0  0  0  0  0  0  0
  149.1940  152.0520  132.4230 C   0  0  2  0  0  0  0  0  0  0  0  0
  147.8390  151.6860  132.4340 O   0  0  0  0  0  0  0  0  0  0  0  0
  149.9500  151.2380  133.4860 C   0  0  0  0  0  0  0  0  0  0  0  0
  149.2380  150.0750  133.8080 O   0  0  0  0  0  0  0  0  0  0  0  0
  146.4720  156.1310  132.8410 C   0  0  0  0  0  0  0  0  0  0  0  0
  146.2940  157.5000  133.0620 C   0  0  0  0  0  0  0  0  0  0  0  0
  144.5644  154.9693  136.6211 H   0  0  0  0  0  0  0  0  0  0  0  0
  145.0047  153.6713  135.4600 H   0  0  0  0  0  0  0  0  0  0  0  0
  145.9116  155.2219  135.4600 H   0  0  0  0  0  0  0  0  0  0  0  0
  142.8810  159.9470  132.5910 H   0  0  0  0  0  0  0  0  0  0  0  0
  147.4519  160.5498  133.4679 H   0  0  0  0  0  0  0  0  0  0  0  0
  149.5035  158.6380  132.8742 H   0  0  0  0  0  0  0  0  0  0  0  0
  149.8862  156.1953  132.4192 H   0  0  0  0  0  0  0  0  0  0  0  0
  147.3050  153.6930  131.8620 H   0  0  0  0  0  0  0  0  0  0  0  0
  150.1101  153.9828  132.0846 H   0  0  0  0  0  0  0  0  0  0  0  0
  149.4725  153.7164  133.7612 H   0  0  0  0  0  0  0  0  0  0  0  0
  149.6554  151.8357  131.4482 H   0  0  0  0  0  0  0  0  0  0  0  0
  147.6160  151.4280  133.3680 H   0  0  0  0  0  0  0  0  0  0  0  0
  150.9395  150.9604  133.0939 H   0  0  0  0  0  0  0  0  0  0  0  0
  150.0611  151.8510  134.3926 H   0  0  0  0  0  0  0  0  0  0  0  0
  148.3320  150.3720  134.0820 H   0  0  0  0  0  0  0  0  0  0  0  0
  145.6151  155.4416  132.8593 H   0  0  0  0  0  0  0  0  0  0  0  0
  1  2  1  0
  2  3  1  0
  3  4  2  0
  3  5  1  0
  5  6  2  0
  5  7  1  0
  7  8  1  0
  8  9  1  0
  9 10  1  0
  9 11  2  0
  8 12  2  0
 12 13  1  0
 13 14  2  0
 14 15  1  0
 15 16  2  0
 16 17  1  0
 17 18  1  0
 18 19  1  0
 19 20  1  0
 19 21  1  0
 21 22  1  0
 16 23  1  0
 23 24  2  0
 24  7  1  0
 24 13  1  0
  1 25  1  0
  1 26  1  0
  1 27  1  0
 10 28  1  0
 12 29  1  0
 14 30  1  0
 15 31  1  0
 17 32  1  0
 18 33  1  0
 18 34  1  0
 19 35  1  6
 20 36  1  0
 21 37  1  0
 21 38  1  0
 22 39  1  0
 23 40  1  0
M  CHG  2   2  -1  10  -1
M  END
>  <UniqueID>  (96) 
96

>  <SMILES>  (96) 
C[N-]C(=O)C(=O)n1c(C([NH-])=O)cc2ccc(NC[C@H](O)CO)cc21

>  <Energy>  (96) 
75.2254625538113

>  <Genealogy>  (96) 
C[N-]C(=O)C(=O)n1c(C([NH-])=O)cc2ccc(NC[C@H](O)CO)cc21 (protonated)
C[N-]C(=O)C(=O)n1c(C([NH-])=O)cc2ccc(NC[C@H](O)CO)cc21 (3D coordinates assigned)
C[N-]C(=O)C(=O)n1c(C([NH-])=O)cc2ccc(NC[C@H](O)CO)cc21 (optimized conformer: 75.2254625538113 kcal/mol)

>  <smiles>  (96) 
CNC(=O)C(=O)n1c(C(N)=O)cc2ccc(NC[C@H](O)CO)cc21

>  <score_type>  (96) 
oracle

>  <origin>  (96) 
adg

>  <m_score__min__energy>  (96) 
-6.4400000000000004

>  <m_primary>  (96) 
energy

$$$$
96:0
     RDKit          3D

 41 43  0  0  0  0  0  0  0  0999 V2000
  149.8050  150.7290  131.0770 C   0  0  0  0  0  0  0  0  0  0  0  0
  148.6250  151.0980  131.9100 C   0  0  0  0  0  0  0  0  0  0  0  0
  147.4750  150.7140  131.5650 O   0  0  0  0  0  0  0  0  0  0  0  0
  148.8060  151.9020  133.0410 O   0  0  0  0  0  0  0  0  0  0  0  0
  149.1380  153.2880  132.9780 C   0  0  0  0  0  0  0  0  0  0  0  0
  148.1300  154.1200  133.7740 C   0  0  0  0  0  0  0  0  0  0  0  0
  146.7860  153.9820  133.2060 N   0  0  0  0  0  0  0  0  0  0  0  0
  146.1980  152.8150  133.0040 N   0  0  0  0  0  0  0  0  0  0  0  0
  144.9360  153.0260  132.5880 C   0  0  0  0  0  0  0  0  0  0  0  0
  144.7070  154.3870  132.5270 C   0  0  0  0  0  0  0  0  0  0  0  0
  145.9030  154.9650  132.9160 C   0  0  0  0  0  0  0  0  0  0  0  0
  146.1470  156.4150  133.0280 C   0  0  0  0  0  0  0  0  0  0  0  0
  147.4530  156.9250  132.8270 C   0  0  0  0  0  0  0  0  0  0  0  0
  147.7100  158.3000  132.9510 C   0  0  0  0  0  0  0  0  0  0  0  0
  146.6470  159.1350  133.2860 C   0  0  0  0  0  0  0  0  0  0  0  0
  146.6270  160.4920  133.5110 C   0  0  0  0  0  0  0  0  0  0  0  0
  145.3100  160.7900  133.8530 C   0  0  0  0  0  0  0  0  0  0  0  0
  144.8260  162.1640  134.0970 C   0  0  0  0  0  0  0  0  0  0  0  0
  143.7170  162.6890  133.3720 N   0  0  0  0  0  0  0  0  0  0  0  0
  145.4330  162.9030  134.9180 O   0  0  0  0  0  0  0  0  0  0  0  0
  144.5460  159.6600  133.8490 N   0  0  0  0  0  0  0  0  0  0  0  0
  143.1790  159.5280  134.2730 C   0  0  0  0  0  0  0  0  0  0  0  0
  142.2550  160.0960  133.6330 O   0  0  0  0  0  0  0  0  0  0  0  0
  142.8580  158.7430  135.3740 O   0  0  0  0  0  0  0  0  0  0  0  0
  145.3780  158.6570  133.4910 C   0  0  0  0  0  0  0  0  0  0  0  0
  145.0970  157.2890  133.3800 C   0  0  0  0  0  0  0  0  0  0  0  0
  150.6483  150.4653  131.7322 H   0  0  0  0  0  0  0  0  0  0  0  0
  149.5506  149.8675  130.4421 H   0  0  0  0  0  0  0  0  0  0  0  0
  150.0867  151.5819  130.4421 H   0  0  0  0  0  0  0  0  0  0  0  0
  150.1432  153.4384  133.3986 H   0  0  0  0  0  0  0  0  0  0  0  0
  149.1131  153.6112  131.9268 H   0  0  0  0  0  0  0  0  0  0  0  0
  148.1189  153.7732  134.8178 H   0  0  0  0  0  0  0  0  0  0  0  0
  148.4279  155.1779  133.7282 H   0  0  0  0  0  0  0  0  0  0  0  0
  146.6400  151.8830  133.1730 H   0  0  0  0  0  0  0  0  0  0  0  0
  144.2057  152.2426  132.3373 H   0  0  0  0  0  0  0  0  0  0  0  0
  143.7785  154.8987  132.2338 H   0  0  0  0  0  0  0  0  0  0  0  0
  148.2732  156.2380  132.5715 H   0  0  0  0  0  0  0  0  0  0  0  0
  148.7198  158.7050  132.7886 H   0  0  0  0  0  0  0  0  0  0  0  0
  147.4716  161.1928  133.4366 H   0  0  0  0  0  0  0  0  0  0  0  0
  142.9320  162.0710  133.0680 H   0  0  0  0  0  0  0  0  0  0  0  0
  144.0823  156.9057  133.5629 H   0  0  0  0  0  0  0  0  0  0  0  0
  1  2  1  0
  2  3  2  0
  2  4  1  0
  4  5  1  0
  5  6  1  0
  6  7  1  0
  7  8  1  0
  8  9  2  0
  9 10  1  0
 10 11  2  0
 11 12  1  0
 12 13  2  0
 13 14  1  0
 14 15  2  0
 15 16  1  0
 16 17  2  0
 17 18  1  0
 18 19  1  0
 18 20  2  0
 17 21  1  0
 21 22  1  0
 22 23  2  0
 22 24  1  0
 21 25  1  0
 25 26  2  0
 11  7  1  0
 26 12  1  0
 25 15  1  0
  1 27  1  0
  1 28  1  0
  1 29  1  0
  5 30  1  0
  5 31  1  0
  6 32  1  0
  6 33  1  0
  8 34  1  0
  9 35  1  0
 10 36  1  0
 13 37  1  0
 14 38  1  0
 16 39  1  0
 19 40  1  0
 26 41  1  0
M  CHG  3   8   1  19  -1  24  -1
M  END
>  <UniqueID>  (97) 
97

>  <SMILES>  (97) 
CC(=O)OCCn1[nH+]ccc1-c1ccc2cc(C([NH-])=O)n(C(=O)[O-])c2c1

>  <Energy>  (97) 
112.76774970425068

>  <Genealogy>  (97) 
CC(=O)OCCn1[nH+]ccc1-c1ccc2cc(C([NH-])=O)n(C(=O)[O-])c2c1 (protonated)
CC(=O)OCCn1[nH+]ccc1-c1ccc2cc(C([NH-])=O)n(C(=O)[O-])c2c1 (3D coordinates assigned)
CC(=O)OCCn1[nH+]ccc1-c1ccc2cc(C([NH-])=O)n(C(=O)[O-])c2c1 (optimized conformer: 112.76774970425068 kcal/mol)

>  <smiles>  (97) 
CC(=O)OCCn1nccc1-c1ccc2cc(C(N)=O)n(C(=O)O)c2c1

>  <score_type>  (97) 
oracle

>  <origin>  (97) 
adg

>  <m_score__min__energy>  (97) 
-6.9400000000000004

>  <m_primary>  (97) 
energy

$$$$
