0:0
     RDKit          3D

 39 41  0  0  0  0  0  0  0  0999 V2000
  141.1040  160.1410  135.7140 N   0  0  0  0  0  0  0  0  0  0  0  0
  141.7310  160.4430  134.4710 C   0  0  0  0  0  0  0  0  0  0  0  0
  141.1300  161.1830  133.6470 O   0  0  0  0  0  0  0  0  0  0  0  0
  143.0740  159.9170  134.1340 C   0  0  0  0  0  0  0  0  0  0  0  0
  144.1770  160.7360  133.9010 C   0  0  0  0  0  0  0  0  0  0  0  0
  145.2190  159.8810  133.6280 C   0  0  0  0  0  0  0  0  0  0  0  0
  146.5550  160.1570  133.3550 C   0  0  0  0  0  0  0  0  0  0  0  0
  147.4230  159.0720  133.1500 C   0  0  0  0  0  0  0  0  0  0  0  0
  146.9440  157.7370  133.2110 C   0  0  0  0  0  0  0  0  0  0  0  0
  147.8970  156.5810  133.0500 C   0  0  0  0  0  0  0  0  0  0  0  0
  149.1030  157.0490  132.5640 F   0  0  0  0  0  0  0  0  0  0  0  0
  148.1120  155.9550  134.2660 F   0  0  0  0  0  0  0  0  0  0  0  0
  147.3860  155.6450  132.1670 F   0  0  0  0  0  0  0  0  0  0  0  0
  145.5850  157.5010  133.5190 C   0  0  0  0  0  0  0  0  0  0  0  0
  144.7380  158.6000  133.6990 C   0  0  0  0  0  0  0  0  0  0  0  0
  143.4190  158.6050  133.9930 N   0  0  0  0  0  0  0  0  0  0  0  0
  142.5720  157.4520  134.1470 C   0  0  0  0  0  0  0  0  0  0  0  0
  142.7430  156.7090  135.1520 O   0  0  0  0  0  0  0  0  0  0  0  0
  141.5730  157.0350  133.0720 C   0  0  0  0  0  0  0  0  0  0  0  0
  140.3870  156.2530  133.6700 C   0  0  0  0  0  0  0  0  0  0  0  0
  139.4580  157.1590  134.5080 C   0  0  0  0  0  0  0  0  0  0  0  0
  139.4030  158.5560  134.0360 N   0  0  0  0  0  0  0  0  0  0  0  0
  139.6240  158.6650  132.5900 C   0  0  0  0  0  0  0  0  0  0  0  0
  141.0460  158.2170  132.2050 C   0  0  0  0  0  0  0  0  0  0  0  0
  140.2030  159.6150  135.7480 H   0  0  0  0  0  0  0  0  0  0  0  0
  144.2078  161.8352  133.9294 H   0  0  0  0  0  0  0  0  0  0  0  0
  146.9203  161.1932  133.3013 H   0  0  0  0  0  0  0  0  0  0  0  0
  148.4864  159.2589  132.9397 H   0  0  0  0  0  0  0  0  0  0  0  0
  145.2012  156.4746  133.6152 H   0  0  0  0  0  0  0  0  0  0  0  0
  142.1416  156.3763  132.3991 H   0  0  0  0  0  0  0  0  0  0  0  0
  139.8042  155.8097  132.8491 H   0  0  0  0  0  0  0  0  0  0  0  0
  140.7935  155.4767  134.3349 H   0  0  0  0  0  0  0  0  0  0  0  0
  138.4413  156.7407  134.4721 H   0  0  0  0  0  0  0  0  0  0  0  0
  139.8685  157.1819  135.5283 H   0  0  0  0  0  0  0  0  0  0  0  0
  140.1390  159.1170  134.5240 H   0  0  0  0  0  0  0  0  0  0  0  0
  138.8943  158.0291  132.0673 H   0  0  0  0  0  0  0  0  0  0  0  0
  139.5017  159.7187  132.2990 H   0  0  0  0  0  0  0  0  0  0  0  0
  141.0400  157.9020  131.1511 H   0  0  0  0  0  0  0  0  0  0  0  0
  141.7159  159.0724  132.3768 H   0  0  0  0  0  0  0  0  0  0  0  0
  1  2  1  0
  2  3  2  0
  2  4  1  0
  4  5  2  0
  5  6  1  0
  6  7  2  0
  7  8  1  0
  8  9  2  0
  9 10  1  0
 10 11  1  0
 10 12  1  0
 10 13  1  0
  9 14  1  0
 14 15  2  0
 15 16  1  0
 16 17  1  0
 17 18  2  0
 17 19  1  0
 19 20  1  0
 20 21  1  0
 21 22  1  0
 22 23  1  0
 23 24  1  0
 16  4  1  0
 24 19  1  0
 15  6  1  0
  1 25  1  0
  5 26  1  0
  7 27  1  0
  8 28  1  0
 14 29  1  0
 19 30  1  0
 20 31  1  0
 20 32  1  0
 21 33  1  0
 21 34  1  0
 22 35  1  0
 23 36  1  0
 23 37  1  0
 24 38  1  0
 24 39  1  0
M  CHG  1   1  -1
M  END
>  <UniqueID>  (1) 
1

>  <SMILES>  (1) 
[NH-]C(=O)c1cc2ccc(C(F)(F)F)cc2n1C(=O)C1CCNCC1

>  <Energy>  (1) 
88.5684486798306

>  <Genealogy>  (1) 
[NH-]C(=O)c1cc2ccc(C(F)(F)F)cc2n1C(=O)C1CCNCC1 (protonated)
[NH-]C(=O)c1cc2ccc(C(F)(F)F)cc2n1C(=O)C1CCNCC1 (3D coordinates assigned)
[NH-]C(=O)c1cc2ccc(C(F)(F)F)cc2n1C(=O)C1CCNCC1 (nonaromatic ring conformer: 88.5684486798306 kcal/mol)

>  <smiles>  (1) 
NC(=O)c1cc2ccc(C(F)(F)F)cc2n1C(=O)C1CCNCC1

>  <score_type>  (1) 
oracle

>  <origin>  (1) 
adg

>  <m_score__min__energy>  (1) 
-7.0300000000000002

>  <m_primary>  (1) 
energy

$$$$
1:0
     RDKit          3D

 40 41  0  0  0  0  0  0  0  0999 V2000
  148.2810  156.2330  132.5660 N   0  0  0  0  0  0  0  0  0  0  0  0
  147.5070  156.8080  133.6170 C   0  0  0  0  0  0  0  0  0  0  0  0
  147.5460  156.2940  134.7670 O   0  0  0  0  0  0  0  0  0  0  0  0
  146.6980  157.9720  133.3680 N   0  0  0  0  0  0  0  0  0  0  0  0
  147.1160  159.1980  132.9450 C   0  0  0  0  0  0  0  0  0  0  0  0
  148.4780  159.5370  132.4860 C   0  0  0  0  0  0  0  0  0  0  0  0
  149.6050  158.7440  132.8680 N   0  0  0  0  0  0  0  0  0  0  0  0
  148.6420  160.5040  131.6970 O   0  0  0  0  0  0  0  0  0  0  0  0
  146.0590  160.1030  132.9320 C   0  0  0  0  0  0  0  0  0  0  0  0
  144.9620  159.3850  133.3470 C   0  0  0  0  0  0  0  0  0  0  0  0
  143.6400  159.7900  133.5120 C   0  0  0  0  0  0  0  0  0  0  0  0
  142.7130  158.8390  133.9730 C   0  0  0  0  0  0  0  0  0  0  0  0
  143.1270  157.5190  134.2780 C   0  0  0  0  0  0  0  0  0  0  0  0
  142.1230  156.5000  134.7470 C   0  0  0  0  0  0  0  0  0  0  0  0
  141.2210  156.0640  133.5900 C   0  0  0  0  0  0  0  0  0  0  0  0
  140.5630  157.2190  132.9900 N   0  0  0  0  0  0  0  0  0  0  0  0
  139.3480  157.7880  133.4910 C   0  0  0  0  0  0  0  0  0  0  0  0
  139.0930  157.7640  134.7260 O   0  0  0  0  0  0  0  0  0  0  0  0
  138.3510  158.3700  132.5370 C   0  0  0  0  0  0  0  0  0  0  0  0
  139.0370  159.0440  131.3450 C   0  0  0  0  0  0  0  0  0  0  0  0
  138.1880  160.1370  130.7680 C   0  0  0  0  0  0  0  0  0  0  0  0
  138.7280  161.1410  130.2360 O   0  0  0  0  0  0  0  0  0  0  0  0
  136.8050  160.0170  130.7690 O   0  0  0  0  0  0  0  0  0  0  0  0
  144.4760  157.1430  134.0930 C   0  0  0  0  0  0  0  0  0  0  0  0
  145.3730  158.1030  133.6080 C   0  0  0  0  0  0  0  0  0  0  0  0
  148.3190  156.6760  131.6220 H   0  0  0  0  0  0  0  0  0  0  0  0
  149.4820  157.8490  133.3880 H   0  0  0  0  0  0  0  0  0  0  0  0
  150.5650  159.0190  132.5630 H   0  0  0  0  0  0  0  0  0  0  0  0
  146.0936  161.1657  132.6500 H   0  0  0  0  0  0  0  0  0  0  0  0
  143.3307  160.8217  133.2886 H   0  0  0  0  0  0  0  0  0  0  0  0
  141.6574  159.1222  134.0979 H   0  0  0  0  0  0  0  0  0  0  0  0
  142.6556  155.6221  135.1414 H   0  0  0  0  0  0  0  0  0  0  0  0
  141.4998  156.9506  135.5335 H   0  0  0  0  0  0  0  0  0  0  0  0
  141.8307  155.5582  132.8268 H   0  0  0  0  0  0  0  0  0  0  0  0
  140.4524  155.3792  133.9776 H   0  0  0  0  0  0  0  0  0  0  0  0
  137.7002  157.5646  132.1656 H   0  0  0  0  0  0  0  0  0  0  0  0
  137.7665  159.1321  133.0732 H   0  0  0  0  0  0  0  0  0  0  0  0
  139.9934  159.4728  131.6787 H   0  0  0  0  0  0  0  0  0  0  0  0
  139.1988  158.2849  130.5656 H   0  0  0  0  0  0  0  0  0  0  0  0
  144.8135  156.1219  134.3241 H   0  0  0  0  0  0  0  0  0  0  0  0
  1  2  1  0
  2  3  2  0
  2  4  1  0
  4  5  1  0
  5  6  1  0
  6  7  1  0
  6  8  2  0
  5  9  2  0
  9 10  1  0
 10 11  2  0
 11 12  1  0
 12 13  2  0
 13 14  1  0
 14 15  1  0
 15 16  1  0
 16 17  1  0
 17 18  2  0
 17 19  1  0
 19 20  1  0
 20 21  1  0
 21 22  2  0
 21 23  1  0
 13 24  1  0
 24 25  2  0
 25  4  1  0
 25 10  1  0
  1 26  1  0
  7 27  1  0
  7 28  1  0
  9 29  1  0
 11 30  1  0
 12 31  1  0
 14 32  1  0
 14 33  1  0
 15 34  1  0
 15 35  1  0
 19 36  1  0
 19 37  1  0
 20 38  1  0
 20 39  1  0
 24 40  1  0
M  CHG  3   1  -1  16  -1  23  -1
M  END
>  <UniqueID>  (2) 
2

>  <SMILES>  (2) 
[NH-]C(=O)n1c(C(N)=O)cc2ccc(CC[N-]C(=O)CCC(=O)[O-])cc21

>  <Energy>  (2) 
71.1211645277087

>  <Genealogy>  (2) 
[NH-]C(=O)n1c(C(N)=O)cc2ccc(CC[N-]C(=O)CCC(=O)[O-])cc21 (protonated)
[NH-]C(=O)n1c(C(N)=O)cc2ccc(CC[N-]C(=O)CCC(=O)[O-])cc21 (3D coordinates assigned)
[NH-]C(=O)n1c(C(N)=O)cc2ccc(CC[N-]C(=O)CCC(=O)[O-])cc21 (optimized conformer: 71.1211645277087 kcal/mol)

>  <smiles>  (2) 
NC(=O)c1cc2ccc(CCNC(=O)CCC(=O)O)cc2n1C(N)=O

>  <score_type>  (2) 
oracle

>  <origin>  (2) 
adg

>  <m_score__min__energy>  (2) 
-8.0099999999999998

>  <m_primary>  (2) 
energy

$$$$
2:0
     RDKit          3D

 27 28  0  0  0  0  0  0  0  0999 V2000
  148.1090  161.2340  131.6780 N   0  0  0  0  0  0  0  0  0  0  0  0
  148.9020  160.0570  131.5170 C   0  0  0  0  0  0  0  0  0  0  0  0
  149.9940  160.1300  130.8930 O   0  0  0  0  0  0  0  0  0  0  0  0
  148.4970  158.7740  132.1240 C   0  0  0  0  0  0  0  0  0  0  0  0
  149.2300  157.5980  131.9850 C   0  0  0  0  0  0  0  0  0  0  0  0
  148.5600  156.6630  132.7390 C   0  0  0  0  0  0  0  0  0  0  0  0
  148.8390  155.3140  132.9410 C   0  0  0  0  0  0  0  0  0  0  0  0
  147.9510  154.5700  133.7360 C   0  0  0  0  0  0  0  0  0  0  0  0
  146.8080  155.1820  134.3090 C   0  0  0  0  0  0  0  0  0  0  0  0
  145.8400  154.3650  135.1170 C   0  0  0  0  0  0  0  0  0  0  0  0
  146.3920  154.0970  136.4830 C   0  0  0  0  0  0  0  0  0  0  0  0
  146.9360  153.0330  136.7330 O   0  0  0  0  0  0  0  0  0  0  0  0
  146.5510  156.5510  134.0700 C   0  0  0  0  0  0  0  0  0  0  0  0
  147.4640  157.2740  133.2930 C   0  0  0  0  0  0  0  0  0  0  0  0
  147.4090  158.5740  132.9200 N   0  0  0  0  0  0  0  0  0  0  0  0
  146.3530  159.5060  133.2090 C   0  0  0  0  0  0  0  0  0  0  0  0
  146.6150  160.6220  133.7320 O   0  0  0  0  0  0  0  0  0  0  0  0
  145.0330  159.1900  132.9120 O   0  0  0  0  0  0  0  0  0  0  0  0
  147.2920  161.2490  132.3280 H   0  0  0  0  0  0  0  0  0  0  0  0
  148.3910  162.1240  131.2100 H   0  0  0  0  0  0  0  0  0  0  0  0
  150.1482  157.4489  131.3979 H   0  0  0  0  0  0  0  0  0  0  0  0
  149.7271  154.8452  132.4921 H   0  0  0  0  0  0  0  0  0  0  0  0
  148.1447  153.5022  133.9155 H   0  0  0  0  0  0  0  0  0  0  0  0
  144.8923  154.9154  135.2112 H   0  0  0  0  0  0  0  0  0  0  0  0
  145.6721  153.4051  134.6066 H   0  0  0  0  0  0  0  0  0  0  0  0
  146.3067  154.8642  137.2667 H   0  0  0  0  0  0  0  0  0  0  0  0
  145.6553  157.0367  134.4845 H   0  0  0  0  0  0  0  0  0  0  0  0
  1  2  1  0
  2  3  2  0
  2  4  1  0
  4  5  2  0
  5  6  1  0
  6  7  2  0
  7  8  1  0
  8  9  2  0
  9 10  1  0
 10 11  1  0
 11 12  2  0
  9 13  1  0
 13 14  2  0
 14 15  1  0
 15 16  1  0
 16 17  2  0
 16 18  1  0
 15  4  1  0
 14  6  1  0
  1 19  1  0
  1 20  1  0
  5 21  1  0
  7 22  1  0
  8 23  1  0
 10 24  1  0
 10 25  1  0
 11 26  1  0
 13 27  1  0
M  CHG  1  18  -1
M  END
>  <UniqueID>  (3) 
3

>  <SMILES>  (3) 
NC(=O)c1cc2ccc(CC=O)cc2n1C(=O)[O-]

>  <Energy>  (3) 
65.5952469488651

>  <Genealogy>  (3) 
NC(=O)c1cc2ccc(CC=O)cc2n1C(=O)[O-] (protonated)
NC(=O)c1cc2ccc(CC=O)cc2n1C(=O)[O-] (3D coordinates assigned)
NC(=O)c1cc2ccc(CC=O)cc2n1C(=O)[O-] (optimized conformer: 65.5952469488651 kcal/mol)

>  <smiles>  (3) 
NC(=O)c1cc2ccc(CC=O)cc2n1C(=O)O

>  <score_type>  (3) 
oracle

>  <origin>  (3) 
adg

>  <m_score__min__energy>  (3) 
-5.9900000000000002

>  <m_primary>  (3) 
energy

$$$$
3:0
     RDKit          3D

 51 54  0  0  0  0  0  0  0  0999 V2000
  142.6490  156.8790  132.9860 C   0  0  0  0  0  0  0  0  0  0  0  0
  143.1480  158.1830  132.7140 O   0  0  0  0  0  0  0  0  0  0  0  0
  143.5930  159.0450  133.7210 C   0  0  0  0  0  0  0  0  0  0  0  0
  142.7900  159.4670  134.5970 O   0  0  0  0  0  0  0  0  0  0  0  0
  144.9640  159.4720  133.7400 N   0  0  0  0  0  0  0  0  0  0  0  0
  145.4440  160.7470  133.8010 C   0  0  0  0  0  0  0  0  0  0  0  0
  144.6420  161.9690  134.0250 C   0  0  0  0  0  0  0  0  0  0  0  0
  143.2560  162.0080  133.6950 N   0  0  0  0  0  0  0  0  0  0  0  0
  145.1780  162.9760  134.5590 O   0  0  0  0  0  0  0  0  0  0  0  0
  146.8330  160.7510  133.7040 C   0  0  0  0  0  0  0  0  0  0  0  0
  147.1940  159.4280  133.5920 C   0  0  0  0  0  0  0  0  0  0  0  0
  148.4540  158.8540  133.4560 C   0  0  0  0  0  0  0  0  0  0  0  0
  148.5320  157.4570  133.3300 C   0  0  0  0  0  0  0  0  0  0  0  0
  147.3560  156.6580  133.3330 C   0  0  0  0  0  0  0  0  0  0  0  0
  147.4510  155.1820  133.1840 C   0  0  0  0  0  0  0  0  0  0  0  0
  146.6370  154.2190  133.7590 C   0  0  0  0  0  0  0  0  0  0  0  0
  147.0530  153.0040  133.3590 N   0  0  0  0  0  0  0  0  0  0  0  0
  148.1050  153.1470  132.5640 N   0  0  0  0  0  0  0  0  0  0  0  0
  148.8480  152.0750  131.8710 C   0  0  0  0  0  0  0  0  0  0  0  0
  148.1920  150.6830  131.9940 C   0  0  0  0  0  0  0  0  0  0  0  0
  148.4430  149.9920  133.3550 C   0  0  0  0  0  0  0  0  0  0  0  0
  149.7840  150.2480  133.9370 N   0  0  0  0  0  0  0  0  0  0  0  0
  149.7180  151.1090  135.1310 C   0  0  0  0  0  0  0  0  0  0  0  0
  150.7710  150.7340  132.9540 C   0  0  0  0  0  0  0  0  0  0  0  0
  150.3380  152.0590  132.3060 C   0  0  0  0  0  0  0  0  0  0  0  0
  148.3640  154.4650  132.4250 C   0  0  0  0  0  0  0  0  0  0  0  0
  146.0950  157.2850  133.4710 C   0  0  0  0  0  0  0  0  0  0  0  0
  146.0500  158.6760  133.6150 C   0  0  0  0  0  0  0  0  0  0  0  0
  142.5912  156.7281  134.0741 H   0  0  0  0  0  0  0  0  0  0  0  0
  141.6461  156.7712  132.5471 H   0  0  0  0  0  0  0  0  0  0  0  0
  143.3238  156.1293  132.5471 H   0  0  0  0  0  0  0  0  0  0  0  0
  142.7790  161.1770  133.2800 H   0  0  0  0  0  0  0  0  0  0  0  0
  147.4998  161.6258  133.7146 H   0  0  0  0  0  0  0  0  0  0  0  0
  149.3617  159.4753  133.4474 H   0  0  0  0  0  0  0  0  0  0  0  0
  149.5155  156.9751  133.2277 H   0  0  0  0  0  0  0  0  0  0  0  0
  145.7896  154.4159  134.4322 H   0  0  0  0  0  0  0  0  0  0  0  0
  146.5920  152.1080  133.6220 H   0  0  0  0  0  0  0  0  0  0  0  0
  148.8068  152.3159  130.7985 H   0  0  0  0  0  0  0  0  0  0  0  0
  147.1065  150.7981  131.8586 H   0  0  0  0  0  0  0  0  0  0  0  0
  148.6475  150.0451  131.2223 H   0  0  0  0  0  0  0  0  0  0  0  0
  147.6852  150.3504  134.0672 H   0  0  0  0  0  0  0  0  0  0  0  0
  148.3829  148.9090  133.1719 H   0  0  0  0  0  0  0  0  0  0  0  0
  149.7658  150.4853  136.0359 H   0  0  0  0  0  0  0  0  0  0  0  0
  150.5650  151.8108  135.1242 H   0  0  0  0  0  0  0  0  0  0  0  0
  148.7740  151.6735  135.1242 H   0  0  0  0  0  0  0  0  0  0  0  0
  151.7337  150.8865  133.4638 H   0  0  0  0  0  0  0  0  0  0  0  0
  150.8558  149.9796  132.1580 H   0  0  0  0  0  0  0  0  0  0  0  0
  150.4982  152.8704  133.0312 H   0  0  0  0  0  0  0  0  0  0  0  0
  150.9430  152.1885  131.3965 H   0  0  0  0  0  0  0  0  0  0  0  0
  149.1670  154.8986  131.8109 H   0  0  0  0  0  0  0  0  0  0  0  0
  145.1692  156.6910  133.4652 H   0  0  0  0  0  0  0  0  0  0  0  0
  1  2  1  0
  2  3  1  0
  3  4  2  0
  3  5  1  0
  5  6  1  0
  6  7  1  0
  7  8  1  0
  7  9  2  0
  6 10  2  0
 10 11  1  0
 11 12  2  0
 12 13  1  0
 13 14  2  0
 14 15  1  0
 15 16  1  0
 16 17  2  0
 17 18  1  0
 18 19  1  0
 19 20  1  0
 20 21  1  0
 21 22  1  0
 22 23  1  0
 22 24  1  0
 24 25  1  0
 18 26  1  0
 14 27  1  0
 27 28  2  0
 28  5  1  0
 28 11  1  0
 26 15  2  0
 25 19  1  0
  1 29  1  0
  1 30  1  0
  1 31  1  0
  8 32  1  0
 10 33  1  0
 12 34  1  0
 13 35  1  0
 16 36  1  0
 17 37  1  0
 19 38  1  0
 20 39  1  0
 20 40  1  0
 21 41  1  0
 21 42  1  0
 23 43  1  0
 23 44  1  0
 23 45  1  0
 24 46  1  0
 24 47  1  0
 25 48  1  0
 25 49  1  0
 26 50  1  0
 27 51  1  0
M  CHG  2   8  -1  17   1
M  END
>  <UniqueID>  (4) 
4

>  <SMILES>  (4) 
COC(=O)n1c(C([NH-])=O)cc2ccc(-c3c[nH+]n(C4CCN(C)CC4)c3)cc21

>  <Energy>  (4) 
136.5954339602449

>  <Genealogy>  (4) 
COC(=O)n1c(C([NH-])=O)cc2ccc(-c3c[nH+]n(C4CCN(C)CC4)c3)cc21 (protonated)
COC(=O)n1c(C([NH-])=O)cc2ccc(-c3c[nH+]n(C4CCN(C)CC4)c3)cc21 (3D coordinates assigned)
COC(=O)n1c(C([NH-])=O)cc2ccc(-c3c[nH+]n(C4CCN(C)CC4)c3)cc21 (nonaromatic ring conformer: 136.5954339602449 kcal/mol)

>  <smiles>  (4) 
COC(=O)n1c(C(N)=O)cc2ccc(-c3cnn(C4CCN(C)CC4)c3)cc21

>  <score_type>  (4) 
oracle

>  <origin>  (4) 
adg

>  <m_score__min__energy>  (4) 
-7.8600000000000003

>  <m_primary>  (4) 
energy

$$$$
4:0
     RDKit          3D

 37 38  0  0  0  0  0  0  0  0999 V2000
  139.0300  158.7490  131.5430 C   0  0  0  0  0  0  0  0  0  0  0  0
  139.7290  159.3600  132.7080 C   0  0  0  0  0  0  0  0  0  0  0  0
  140.1880  160.5310  132.6200 O   0  0  0  0  0  0  0  0  0  0  0  0
  139.9190  158.5950  133.9000 N   0  0  0  0  0  0  0  0  0  0  0  0
  140.6080  157.3100  133.9150 C   0  0  0  0  0  0  0  0  0  0  0  0
  141.7740  157.3460  134.9040 C   0  0  0  0  0  0  0  0  0  0  0  0
  142.8810  158.2400  134.4130 C   0  0  0  0  0  0  0  0  0  0  0  0
  142.7570  159.6480  134.5200 C   0  0  0  0  0  0  0  0  0  0  0  0
  143.8060  160.4920  134.1170 C   0  0  0  0  0  0  0  0  0  0  0  0
  144.9600  159.9020  133.6090 C   0  0  0  0  0  0  0  0  0  0  0  0
  146.1440  160.4760  133.2050 C   0  0  0  0  0  0  0  0  0  0  0  0
  146.9630  159.4100  132.8390 C   0  0  0  0  0  0  0  0  0  0  0  0
  148.3440  159.5740  132.3390 C   0  0  0  0  0  0  0  0  0  0  0  0
  149.4500  158.9510  132.9920 N   0  0  0  0  0  0  0  0  0  0  0  0
  148.5450  160.2400  131.2890 O   0  0  0  0  0  0  0  0  0  0  0  0
  146.3140  158.2250  133.0090 N   0  0  0  0  0  0  0  0  0  0  0  0
  146.8680  156.9060  132.8860 C   0  0  0  0  0  0  0  0  0  0  0  0
  146.2260  156.0180  132.2640 O   0  0  0  0  0  0  0  0  0  0  0  0
  148.1620  156.5680  133.5010 C   0  0  0  0  0  0  0  0  0  0  0  0
  148.3530  156.7410  134.9020 N   0  0  0  0  0  0  0  0  0  0  0  0
  149.1100  156.1420  132.7890 O   0  0  0  0  0  0  0  0  0  0  0  0
  145.0910  158.5420  133.4870 C   0  0  0  0  0  0  0  0  0  0  0  0
  144.0730  157.6770  133.9040 C   0  0  0  0  0  0  0  0  0  0  0  0
  138.2473  158.0648  131.9026 H   0  0  0  0  0  0  0  0  0  0  0  0
  138.5722  159.5417  130.9331 H   0  0  0  0  0  0  0  0  0  0  0  0
  139.7544  158.1893  130.9331 H   0  0  0  0  0  0  0  0  0  0  0  0
  139.9012  156.5225  134.2154 H   0  0  0  0  0  0  0  0  0  0  0  0
  140.9984  157.1009  132.9081 H   0  0  0  0  0  0  0  0  0  0  0  0
  141.4115  157.7232  135.8716 H   0  0  0  0  0  0  0  0  0  0  0  0
  142.1722  156.3259  135.0081 H   0  0  0  0  0  0  0  0  0  0  0  0
  141.8308  160.0842  134.9223 H   0  0  0  0  0  0  0  0  0  0  0  0
  143.7179  161.5853  134.2004 H   0  0  0  0  0  0  0  0  0  0  0  0
  146.3909  161.5476  133.1771 H   0  0  0  0  0  0  0  0  0  0  0  0
  149.3070  158.2390  133.7410 H   0  0  0  0  0  0  0  0  0  0  0  0
  150.4230  159.1280  132.6550 H   0  0  0  0  0  0  0  0  0  0  0  0
  149.2350  157.1590  135.2750 H   0  0  0  0  0  0  0  0  0  0  0  0
  144.1976  156.5861  133.8372 H   0  0  0  0  0  0  0  0  0  0  0  0
  1  2  1  0
  2  3  2  0
  2  4  1  0
  4  5  1  0
  5  6  1  0
  6  7  1  0
  7  8  2  0
  8  9  1  0
  9 10  2  0
 10 11  1  0
 11 12  2  0
 12 13  1  0
 13 14  1  0
 13 15  2  0
 12 16  1  0
 16 17  1  0
 17 18  2  0
 17 19  1  0
 19 20  1  0
 19 21  2  0
 16 22  1  0
 22 23  2  0
 23  7  1  0
 22 10  1  0
  1 24  1  0
  1 25  1  0
  1 26  1  0
  5 27  1  0
  5 28  1  0
  6 29  1  0
  6 30  1  0
  8 31  1  0
  9 32  1  0
 11 33  1  0
 14 34  1  0
 14 35  1  0
 20 36  1  0
 23 37  1  0
M  CHG  2   4  -1  20  -1
M  END
>  <UniqueID>  (5) 
5

>  <SMILES>  (5) 
CC(=O)[N-]CCc1ccc2cc(C(N)=O)n(C(=O)C([NH-])=O)c2c1

>  <Energy>  (5) 
69.52802485099727

>  <Genealogy>  (5) 
CC(=O)[N-]CCc1ccc2cc(C(N)=O)n(C(=O)C([NH-])=O)c2c1 (protonated)
CC(=O)[N-]CCc1ccc2cc(C(N)=O)n(C(=O)C([NH-])=O)c2c1 (3D coordinates assigned)
CC(=O)[N-]CCc1ccc2cc(C(N)=O)n(C(=O)C([NH-])=O)c2c1 (optimized conformer: 69.52802485099727 kcal/mol)

>  <smiles>  (5) 
CC(=O)NCCc1ccc2cc(C(N)=O)n(C(=O)C(N)=O)c2c1

>  <score_type>  (5) 
oracle

>  <origin>  (5) 
adg

>  <m_score__min__energy>  (5) 
-7.0999999999999996

>  <m_primary>  (5) 
energy

$$$$
5:0
     RDKit          3D

 39 41  0  0  0  0  0  0  0  0999 V2000
  149.2070  159.2130  130.9830 C   0  0  0  0  0  0  0  0  0  0  0  0
  148.9010  160.6830  131.2530 C   0  0  0  0  0  0  0  0  0  0  0  0
  148.0680  160.8280  132.4020 O   0  0  0  0  0  0  0  0  0  0  0  0
  147.8320  159.8020  133.3250 C   0  0  0  0  0  0  0  0  0  0  0  0
  148.7560  159.4070  134.0860 O   0  0  0  0  0  0  0  0  0  0  0  0
  146.5280  159.1990  133.4020 N   0  0  0  0  0  0  0  0  0  0  0  0
  145.3550  159.8130  133.7260 C   0  0  0  0  0  0  0  0  0  0  0  0
  145.1560  161.2670  133.8930 C   0  0  0  0  0  0  0  0  0  0  0  0
  146.2560  162.1340  134.1730 N   0  0  0  0  0  0  0  0  0  0  0  0
  144.0080  161.7590  133.7280 O   0  0  0  0  0  0  0  0  0  0  0  0
  144.3270  158.8820  133.8450 C   0  0  0  0  0  0  0  0  0  0  0  0
  144.9070  157.6650  133.5680 C   0  0  0  0  0  0  0  0  0  0  0  0
  144.3510  156.3910  133.5750 C   0  0  0  0  0  0  0  0  0  0  0  0
  145.1970  155.3010  133.3100 C   0  0  0  0  0  0  0  0  0  0  0  0
  146.5800  155.4980  133.0560 C   0  0  0  0  0  0  0  0  0  0  0  0
  147.4680  154.3370  132.7980 C   0  0  0  0  0  0  0  0  0  0  0  0
  148.8520  154.5190  132.6140 C   0  0  0  0  0  0  0  0  0  0  0  0
  149.6860  153.4240  132.3690 C   0  0  0  0  0  0  0  0  0  0  0  0
  149.1510  152.1350  132.3030 C   0  0  0  0  0  0  0  0  0  0  0  0
  150.2100  150.7670  131.9940 Cl  0  0  0  0  0  0  0  0  0  0  0  0
  147.7770  151.9410  132.4830 C   0  0  0  0  0  0  0  0  0  0  0  0
  147.2490  150.6930  132.4280 F   0  0  0  0  0  0  0  0  0  0  0  0
  146.9410  153.0340  132.7300 C   0  0  0  0  0  0  0  0  0  0  0  0
  147.1060  156.8110  133.0610 C   0  0  0  0  0  0  0  0  0  0  0  0
  146.2360  157.8810  133.3060 C   0  0  0  0  0  0  0  0  0  0  0  0
  149.3180  158.6800  131.9388 H   0  0  0  0  0  0  0  0  0  0  0  0
  148.3825  158.7665  130.4077 H   0  0  0  0  0  0  0  0  0  0  0  0
  150.1411  159.1326  130.4077 H   0  0  0  0  0  0  0  0  0  0  0  0
  149.8449  161.2219  131.4224 H   0  0  0  0  0  0  0  0  0  0  0  0
  148.3724  161.0972  130.3818 H   0  0  0  0  0  0  0  0  0  0  0  0
  147.2390  161.7850  134.1340 H   0  0  0  0  0  0  0  0  0  0  0  0
  146.0900  163.1490  134.3580 H   0  0  0  0  0  0  0  0  0  0  0  0
  143.2761  159.0772  134.1048 H   0  0  0  0  0  0  0  0  0  0  0  0
  143.2811  156.2408  133.7817 H   0  0  0  0  0  0  0  0  0  0  0  0
  144.7827  154.2821  133.2992 H   0  0  0  0  0  0  0  0  0  0  0  0
  149.2805  155.5309  132.6634 H   0  0  0  0  0  0  0  0  0  0  0  0
  150.7660  153.5777  132.2279 H   0  0  0  0  0  0  0  0  0  0  0  0
  145.8620  152.8741  132.8724 H   0  0  0  0  0  0  0  0  0  0  0  0
  148.1758  156.9881  132.8764 H   0  0  0  0  0  0  0  0  0  0  0  0
  1  2  1  0
  2  3  1  0
  3  4  1  0
  4  5  2  0
  4  6  1  0
  6  7  1  0
  7  8  1  0
  8  9  1  0
  8 10  2  0
  7 11  2  0
 11 12  1  0
 12 13  2  0
 13 14  1  0
 14 15  2  0
 15 16  1  0
 16 17  2  0
 17 18  1  0
 18 19  2  0
 19 20  1  0
 19 21  1  0
 21 22  1  0
 21 23  2  0
 15 24  1  0
 24 25  2  0
 25  6  1  0
 25 12  1  0
 23 16  1  0
  1 26  1  0
  1 27  1  0
  1 28  1  0
  2 29  1  0
  2 30  1  0
  9 31  1  0
  9 32  1  0
 11 33  1  0
 13 34  1  0
 14 35  1  0
 17 36  1  0
 18 37  1  0
 23 38  1  0
 24 39  1  0
M  END
>  <UniqueID>  (6) 
6

>  <SMILES>  (6) 
CCOC(=O)n1c(C(N)=O)cc2ccc(-c3ccc(Cl)c(F)c3)cc21

>  <Energy>  (6) 
82.16532230944628

>  <Genealogy>  (6) 
CCOC(=O)n1c(C(N)=O)cc2ccc(-c3ccc(Cl)c(F)c3)cc21 (3D coordinates assigned)
CCOC(=O)n1c(C(N)=O)cc2ccc(-c3ccc(Cl)c(F)c3)cc21 (optimized conformer: 82.16532230944628 kcal/mol)

>  <smiles>  (6) 
CCOC(=O)n1c(C(N)=O)cc2ccc(-c3ccc(Cl)c(F)c3)cc21

>  <score_type>  (6) 
oracle

>  <origin>  (6) 
adg

>  <m_score__min__energy>  (6) 
-7.9100000000000001

>  <m_primary>  (6) 
energy

$$$$
6:0
     RDKit          3D

 49 50  0  0  0  0  0  0  0  0999 V2000
  150.3170  151.1490  132.5510 C   0  0  0  0  0  0  0  0  0  0  0  0
  149.1650  151.9750  132.1500 N   0  0  0  0  0  0  0  0  0  0  0  0
  148.0010  151.1070  131.9080 C   0  0  0  0  0  0  0  0  0  0  0  0
  148.8460  152.9840  133.1860 C   0  0  0  0  0  0  0  0  0  0  0  0
  148.8590  154.4050  132.6060 C   0  0  0  0  0  0  0  0  0  0  0  0
  147.6210  155.1680  132.9990 C   0  0  0  0  0  0  0  0  0  0  0  0
  146.4690  154.4730  133.4440 C   0  0  0  0  0  0  0  0  0  0  0  0
  145.2980  155.1710  133.7820 C   0  0  0  0  0  0  0  0  0  0  0  0
  145.3030  156.5570  133.6460 C   0  0  0  0  0  0  0  0  0  0  0  0
  144.3160  157.4750  133.9190 C   0  0  0  0  0  0  0  0  0  0  0  0
  144.8660  158.7130  133.5970 C   0  0  0  0  0  0  0  0  0  0  0  0
  144.1130  159.9810  133.6740 C   0  0  0  0  0  0  0  0  0  0  0  0
  144.7350  161.2310  133.3730 N   0  0  0  0  0  0  0  0  0  0  0  0
  142.8850  159.9550  133.9570 O   0  0  0  0  0  0  0  0  0  0  0  0
  146.1470  158.5700  133.1560 N   0  0  0  0  0  0  0  0  0  0  0  0
  147.0790  159.6120  132.8230 C   0  0  0  0  0  0  0  0  0  0  0  0
  147.5120  160.3750  133.7280 O   0  0  0  0  0  0  0  0  0  0  0  0
  147.4980  159.7640  131.4930 O   0  0  0  0  0  0  0  0  0  0  0  0
  148.8530  159.7780  131.0230 C   0  0  0  0  0  0  0  0  0  0  0  0
  149.7760  159.0470  132.0150 C   0  0  0  0  0  0  0  0  0  0  0  0
  148.9480  159.1450  129.6210 C   0  0  0  0  0  0  0  0  0  0  0  0
  149.2860  161.2490  130.9310 C   0  0  0  0  0  0  0  0  0  0  0  0
  146.4000  157.2430  133.1890 C   0  0  0  0  0  0  0  0  0  0  0  0
  147.5880  156.5740  132.8710 C   0  0  0  0  0  0  0  0  0  0  0  0
  150.3743  151.1079  133.6487 H   0  0  0  0  0  0  0  0  0  0  0  0
  150.1951  150.1313  132.1518 H   0  0  0  0  0  0  0  0  0  0  0  0
  151.2418  151.5911  132.1518 H   0  0  0  0  0  0  0  0  0  0  0  0
  147.5744  150.7889  132.8707 H   0  0  0  0  0  0  0  0  0  0  0  0
  147.2425  151.6617  131.3362 H   0  0  0  0  0  0  0  0  0  0  0  0
  148.3163  150.2217  131.3362 H   0  0  0  0  0  0  0  0  0  0  0  0
  147.8468  152.7735  133.5951 H   0  0  0  0  0  0  0  0  0  0  0  0
  149.6108  152.9247  133.9744 H   0  0  0  0  0  0  0  0  0  0  0  0
  149.7437  154.9383  132.9841 H   0  0  0  0  0  0  0  0  0  0  0  0
  148.8881  154.3319  131.5088 H   0  0  0  0  0  0  0  0  0  0  0  0
  146.4921  153.3763  133.5255 H   0  0  0  0  0  0  0  0  0  0  0  0
  144.4050  154.6396  134.1428 H   0  0  0  0  0  0  0  0  0  0  0  0
  143.3071  157.2741  134.3087 H   0  0  0  0  0  0  0  0  0  0  0  0
  145.6970  161.2720  132.9700 H   0  0  0  0  0  0  0  0  0  0  0  0
  144.1980  162.1210  133.4740 H   0  0  0  0  0  0  0  0  0  0  0  0
  149.4720  159.2878  133.0444 H   0  0  0  0  0  0  0  0  0  0  0  0
  149.7001  157.9614  131.8547 H   0  0  0  0  0  0  0  0  0  0  0  0
  150.8154  159.3695  131.8547 H   0  0  0  0  0  0  0  0  0  0  0  0
  149.1106  158.0614  129.7182 H   0  0  0  0  0  0  0  0  0  0  0  0
  148.0124  159.3276  129.0721 H   0  0  0  0  0  0  0  0  0  0  0  0
  149.7888  159.5942  129.0721 H   0  0  0  0  0  0  0  0  0  0  0  0
  149.4069  161.6597  131.9443 H   0  0  0  0  0  0  0  0  0  0  0  0
  150.2422  161.3167  130.3914 H   0  0  0  0  0  0  0  0  0  0  0  0
  148.5190  161.8239  130.3914 H   0  0  0  0  0  0  0  0  0  0  0  0
  148.4738  157.1298  132.5299 H   0  0  0  0  0  0  0  0  0  0  0  0
  1  2  1  0
  2  3  1  0
  2  4  1  0
  4  5  1  0
  5  6  1  0
  6  7  2  0
  7  8  1  0
  8  9  2  0
  9 10  1  0
 10 11  2  0
 11 12  1  0
 12 13  1  0
 12 14  2  0
 11 15  1  0
 15 16  1  0
 16 17  2  0
 16 18  1  0
 18 19  1  0
 19 20  1  0
 19 21  1  0
 19 22  1  0
 15 23  1  0
 23 24  2  0
 24  6  1  0
 23  9  1  0
  1 25  1  0
  1 26  1  0
  1 27  1  0
  3 28  1  0
  3 29  1  0
  3 30  1  0
  4 31  1  0
  4 32  1  0
  5 33  1  0
  5 34  1  0
  7 35  1  0
  8 36  1  0
 10 37  1  0
 13 38  1  0
 13 39  1  0
 20 40  1  0
 20 41  1  0
 20 42  1  0
 21 43  1  0
 21 44  1  0
 21 45  1  0
 22 46  1  0
 22 47  1  0
 22 48  1  0
 24 49  1  0
M  END
>  <UniqueID>  (7) 
7

>  <SMILES>  (7) 
CN(C)CCc1ccc2cc(C(N)=O)n(C(=O)OC(C)(C)C)c2c1

>  <Energy>  (7) 
79.37821926049196

>  <Genealogy>  (7) 
CN(C)CCc1ccc2cc(C(N)=O)n(C(=O)OC(C)(C)C)c2c1 (3D coordinates assigned)
CN(C)CCc1ccc2cc(C(N)=O)n(C(=O)OC(C)(C)C)c2c1 (optimized conformer: 79.37821926049196 kcal/mol)

>  <smiles>  (7) 
CN(C)CCc1ccc2cc(C(N)=O)n(C(=O)OC(C)(C)C)c2c1

>  <score_type>  (7) 
oracle

>  <origin>  (7) 
adg

>  <m_score__min__energy>  (7) 
-7.8399999999999999

>  <m_primary>  (7) 
energy

$$$$
7:0
     RDKit          3D

 46 47  0  0  0  0  0  0  0  0999 V2000
  146.9140  155.8320  134.1170 C   0  0  0  0  0  0  0  0  0  0  0  0
  146.8920  156.7060  132.9030 C   0  0  0  0  0  0  0  0  0  0  0  0
  147.0250  156.1810  131.7650 O   0  0  0  0  0  0  0  0  0  0  0  0
  146.7930  158.1330  133.0230 N   0  0  0  0  0  0  0  0  0  0  0  0
  147.7300  159.0720  132.7140 C   0  0  0  0  0  0  0  0  0  0  0  0
  149.1240  158.8000  132.3060 C   0  0  0  0  0  0  0  0  0  0  0  0
  149.5890  157.4560  132.2160 N   0  0  0  0  0  0  0  0  0  0  0  0
  149.9020  159.7430  132.0060 O   0  0  0  0  0  0  0  0  0  0  0  0
  147.2220  160.3540  132.9190 C   0  0  0  0  0  0  0  0  0  0  0  0
  145.9360  160.1670  133.3750 C   0  0  0  0  0  0  0  0  0  0  0  0
  144.9690  161.1000  133.7400 C   0  0  0  0  0  0  0  0  0  0  0  0
  143.7200  160.6200  134.1650 C   0  0  0  0  0  0  0  0  0  0  0  0
  143.4570  159.2270  134.2140 C   0  0  0  0  0  0  0  0  0  0  0  0
  142.1190  158.7160  134.6840 C   0  0  0  0  0  0  0  0  0  0  0  0
  141.1380  158.5190  133.5150 C   0  0  0  0  0  0  0  0  0  0  0  0
  140.4050  157.1620  133.5520 C   0  0  0  0  0  0  0  0  0  0  0  0
  139.1320  157.1410  132.6930 C   0  0  0  0  0  0  0  0  0  0  0  0
  138.5680  158.4360  132.5740 O   0  0  0  0  0  0  0  0  0  0  0  0
  138.4180  158.8230  131.2190 C   0  0  0  0  0  0  0  0  0  0  0  0
  137.2510  159.8050  131.1200 C   0  0  0  0  0  0  0  0  0  0  0  0
  139.7000  159.4980  130.7160 C   0  0  0  0  0  0  0  0  0  0  0  0
  144.4670  158.3110  133.8410 C   0  0  0  0  0  0  0  0  0  0  0  0
  145.7040  158.8190  133.4320 C   0  0  0  0  0  0  0  0  0  0  0  0
  146.8982  156.4591  135.0206 H   0  0  0  0  0  0  0  0  0  0  0  0
  146.0321  155.1745  134.1115 H   0  0  0  0  0  0  0  0  0  0  0  0
  147.8278  155.2197  134.1115 H   0  0  0  0  0  0  0  0  0  0  0  0
  149.1010  156.7580  131.6120 H   0  0  0  0  0  0  0  0  0  0  0  0
  147.7383  161.3109  132.7521 H   0  0  0  0  0  0  0  0  0  0  0  0
  145.1771  162.1793  133.6967 H   0  0  0  0  0  0  0  0  0  0  0  0
  142.9365  161.3322  134.4633 H   0  0  0  0  0  0  0  0  0  0  0  0
  142.2651  157.7515  135.1922 H   0  0  0  0  0  0  0  0  0  0  0  0
  141.6895  159.4630  135.3677 H   0  0  0  0  0  0  0  0  0  0  0  0
  140.3870  159.3220  133.5510 H   0  0  0  0  0  0  0  0  0  0  0  0
  141.7290  158.5435  132.5876 H   0  0  0  0  0  0  0  0  0  0  0  0
  141.0895  156.3842  133.1825 H   0  0  0  0  0  0  0  0  0  0  0  0
  140.1007  156.9820  134.5936 H   0  0  0  0  0  0  0  0  0  0  0  0
  139.3832  156.7663  131.6897 H   0  0  0  0  0  0  0  0  0  0  0  0
  138.3954  156.4857  133.1809 H   0  0  0  0  0  0  0  0  0  0  0  0
  138.2224  157.9345  130.6006 H   0  0  0  0  0  0  0  0  0  0  0  0
  136.9196  160.0838  132.1312 H   0  0  0  0  0  0  0  0  0  0  0  0
  137.5750  160.7062  130.5788 H   0  0  0  0  0  0  0  0  0  0  0  0
  136.4185  159.3317  130.5788 H   0  0  0  0  0  0  0  0  0  0  0  0
  140.3075  159.8178  131.5755 H   0  0  0  0  0  0  0  0  0  0  0  0
  140.2745  158.7854  130.1059 H   0  0  0  0  0  0  0  0  0  0  0  0
  139.4376  160.3749  130.1059 H   0  0  0  0  0  0  0  0  0  0  0  0
  144.2846  157.2267  133.8717 H   0  0  0  0  0  0  0  0  0  0  0  0
  1  2  1  0
  2  3  2  0
  2  4  1  0
  4  5  1  0
  5  6  1  0
  6  7  1  0
  6  8  2  0
  5  9  2  0
  9 10  1  0
 10 11  2  0
 11 12  1  0
 12 13  2  0
 13 14  1  0
 14 15  1  0
 15 16  1  0
 16 17  1  0
 17 18  1  0
 18 19  1  0
 19 20  1  0
 19 21  1  0
 13 22  1  0
 22 23  2  0
 23  4  1  0
 23 10  1  0
  1 24  1  0
  1 25  1  0
  1 26  1  0
  7 27  1  0
  9 28  1  0
 11 29  1  0
 12 30  1  0
 14 31  1  0
 14 32  1  0
 15 33  1  0
 15 34  1  0
 16 35  1  0
 16 36  1  0
 17 37  1  0
 17 38  1  0
 19 39  1  0
 20 40  1  0
 20 41  1  0
 20 42  1  0
 21 43  1  0
 21 44  1  0
 21 45  1  0
 22 46  1  0
M  CHG  1   7  -1
M  END
>  <UniqueID>  (8) 
8

>  <SMILES>  (8) 
CC(=O)n1c(C([NH-])=O)cc2ccc(CCCCOC(C)C)cc21

>  <Energy>  (8) 
78.74056553695877

>  <Genealogy>  (8) 
CC(=O)n1c(C([NH-])=O)cc2ccc(CCCCOC(C)C)cc21 (protonated)
CC(=O)n1c(C([NH-])=O)cc2ccc(CCCCOC(C)C)cc21 (3D coordinates assigned)
CC(=O)n1c(C([NH-])=O)cc2ccc(CCCCOC(C)C)cc21 (optimized conformer: 78.74056553695877 kcal/mol)

>  <smiles>  (8) 
CC(=O)n1c(C(N)=O)cc2ccc(CCCCOC(C)C)cc21

>  <score_type>  (8) 
oracle

>  <origin>  (8) 
adg

>  <m_score__min__energy>  (8) 
-7.1799999999999997

>  <m_primary>  (8) 
energy

$$$$
8:0
     RDKit          3D

 50 52  0  0  0  0  0  0  0  0999 V2000
  139.8970  147.4060  130.7500 C   0  0  0  0  0  0  0  0  0  0  0  0
  139.8990  148.9410  130.8860 C   0  0  0  0  0  0  0  0  0  0  0  0
  139.6670  149.6080  129.5170 C   0  0  0  0  0  0  0  0  0  0  0  0
  138.7660  149.3560  131.8380 C   0  0  0  0  0  0  0  0  0  0  0  0
  141.1300  149.3960  131.4680 O   0  0  0  0  0  0  0  0  0  0  0  0
  141.2640  150.3240  132.5100 C   0  0  0  0  0  0  0  0  0  0  0  0
  141.0290  149.9960  133.7060 O   0  0  0  0  0  0  0  0  0  0  0  0
  141.6720  151.6610  132.2010 N   0  0  0  0  0  0  0  0  0  0  0  0
  141.8380  152.6850  133.2380 C   0  0  2  0  0  0  0  0  0  0  0  0
  140.5970  153.5690  133.3850 C   0  0  0  0  0  0  0  0  0  0  0  0
  141.1290  154.9410  133.7760 C   0  0  0  0  0  0  0  0  0  0  0  0
  142.5250  154.9560  133.3610 N   0  0  0  0  0  0  0  0  0  0  0  0
  143.3670  156.1320  133.4010 C   0  0  0  0  0  0  0  0  0  0  0  0
  144.7610  156.0320  133.1320 C   0  0  0  0  0  0  0  0  0  0  0  0
  145.5850  157.1690  133.1560 C   0  0  0  0  0  0  0  0  0  0  0  0
  145.0000  158.3940  133.4570 C   0  0  0  0  0  0  0  0  0  0  0  0
  145.5610  159.6480  133.5200 C   0  0  0  0  0  0  0  0  0  0  0  0
  144.5120  160.5040  133.8500 C   0  0  0  0  0  0  0  0  0  0  0  0
  144.6940  161.9480  134.1050 C   0  0  0  0  0  0  0  0  0  0  0  0
  143.9370  162.9210  133.3900 N   0  0  0  0  0  0  0  0  0  0  0  0
  145.4950  162.3280  135.0000 O   0  0  0  0  0  0  0  0  0  0  0  0
  143.3480  159.8070  133.9780 N   0  0  0  0  0  0  0  0  0  0  0  0
  142.0310  160.3260  134.2270 C   0  0  0  0  0  0  0  0  0  0  0  0
  141.4100  160.0100  135.2760 O   0  0  0  0  0  0  0  0  0  0  0  0
  141.4410  161.2020  133.3240 O   0  0  0  0  0  0  0  0  0  0  0  0
  143.6650  158.5150  133.7360 C   0  0  0  0  0  0  0  0  0  0  0  0
  142.8150  157.4030  133.7010 C   0  0  0  0  0  0  0  0  0  0  0  0
  142.9740  153.6490  132.9030 C   0  0  0  0  0  0  0  0  0  0  0  0
  139.8964  146.9492  131.7507 H   0  0  0  0  0  0  0  0  0  0  0  0
  138.9984  147.0877  130.2011 H   0  0  0  0  0  0  0  0  0  0  0  0
  140.7947  147.0854  130.2011 H   0  0  0  0  0  0  0  0  0  0  0  0
  139.3090  150.6373  129.6666 H   0  0  0  0  0  0  0  0  0  0  0  0
  140.6115  149.6266  128.9534 H   0  0  0  0  0  0  0  0  0  0  0  0
  138.9149  149.0365  128.9534 H   0  0  0  0  0  0  0  0  0  0  0  0
  139.0989  149.2341  132.8793 H   0  0  0  0  0  0  0  0  0  0  0  0
  138.5030  150.4088  131.6580 H   0  0  0  0  0  0  0  0  0  0  0  0
  137.8852  148.7221  131.6580 H   0  0  0  0  0  0  0  0  0  0  0  0
  141.8090  151.9040  131.1940 H   0  0  0  0  0  0  0  0  0  0  0  0
  142.0377  152.1183  134.1594 H   0  0  0  0  0  0  0  0  0  0  0  0
  140.0481  153.6248  132.4334 H   0  0  0  0  0  0  0  0  0  0  0  0
  139.8950  153.1715  134.1328 H   0  0  0  0  0  0  0  0  0  0  0  0
  140.5666  155.7321  133.2584 H   0  0  0  0  0  0  0  0  0  0  0  0
  141.0247  155.1240  134.8556 H   0  0  0  0  0  0  0  0  0  0  0  0
  145.1994  155.0497  132.9019 H   0  0  0  0  0  0  0  0  0  0  0  0
  146.6615  157.0927  132.9430 H   0  0  0  0  0  0  0  0  0  0  0  0
  146.6133  159.9178  133.3469 H   0  0  0  0  0  0  0  0  0  0  0  0
  142.9270  162.7650  133.1760 H   0  0  0  0  0  0  0  0  0  0  0  0
  141.7393  157.5134  133.9025 H   0  0  0  0  0  0  0  0  0  0  0  0
  143.1577  153.6642  131.8186 H   0  0  0  0  0  0  0  0  0  0  0  0
  143.9170  153.3505  133.3843 H   0  0  0  0  0  0  0  0  0  0  0  0
  1  2  1  0
  2  3  1  0
  2  4  1  0
  2  5  1  0
  5  6  1  0
  6  7  2  0
  6  8  1  0
  8  9  1  0
  9 10  1  0
 10 11  1  0
 11 12  1  0
 12 13  1  0
 13 14  2  0
 14 15  1  0
 15 16  2  0
 16 17  1  0
 17 18  2  0
 18 19  1  0
 19 20  1  0
 19 21  2  0
 18 22  1  0
 22 23  1  0
 23 24  2  0
 23 25  1  0
 22 26  1  0
 26 27  2  0
 12 28  1  0
 28  9  1  0
 27 13  1  0
 26 16  1  0
  1 29  1  0
  1 30  1  0
  1 31  1  0
  3 32  1  0
  3 33  1  0
  3 34  1  0
  4 35  1  0
  4 36  1  0
  4 37  1  0
  8 38  1  0
  9 39  1  1
 10 40  1  0
 10 41  1  0
 11 42  1  0
 11 43  1  0
 14 44  1  0
 15 45  1  0
 17 46  1  0
 20 47  1  0
 27 48  1  0
 28 49  1  0
 28 50  1  0
M  CHG  2  20  -1  25  -1
M  END
>  <UniqueID>  (9) 
9

>  <SMILES>  (9) 
CC(C)(C)OC(=O)N[C@@H]1CCN(c2ccc3cc(C([NH-])=O)n(C(=O)[O-])c3c2)C1

>  <Energy>  (9) 
86.6938935603553

>  <Genealogy>  (9) 
CC(C)(C)OC(=O)N[C@@H]1CCN(c2ccc3cc(C([NH-])=O)n(C(=O)[O-])c3c2)C1 (protonated)
CC(C)(C)OC(=O)N[C@@H]1CCN(c2ccc3cc(C([NH-])=O)n(C(=O)[O-])c3c2)C1 (3D coordinates assigned)
CC(C)(C)OC(=O)N[C@@H]1CCN(c2ccc3cc(C([NH-])=O)n(C(=O)[O-])c3c2)C1 (nonaromatic ring conformer: 86.6938935603553 kcal/mol)

>  <smiles>  (9) 
CC(C)(C)OC(=O)N[C@@H]1CCN(c2ccc3cc(C(N)=O)n(C(=O)O)c3c2)C1

>  <score_type>  (9) 
oracle

>  <origin>  (9) 
adg

>  <m_score__min__energy>  (9) 
-8.8100000000000005

>  <m_primary>  (9) 
energy

$$$$
9:0
     RDKit          3D

 49 51  0  0  0  0  0  0  0  0999 V2000
  149.2080  154.7640  132.6100 C   0  0  0  0  0  0  0  0  0  0  0  0
  148.8540  156.1580  132.8510 N   0  0  0  0  0  0  0  0  0  0  0  0
  147.6000  156.7030  132.4240 C   0  0  0  0  0  0  0  0  0  0  0  0
  146.7390  155.9600  131.8780 O   0  0  0  0  0  0  0  0  0  0  0  0
  147.3210  158.0970  132.6110 N   0  0  0  0  0  0  0  0  0  0  0  0
  148.1520  159.1540  132.3840 C   0  0  0  0  0  0  0  0  0  0  0  0
  149.4960  159.0880  131.7700 C   0  0  0  0  0  0  0  0  0  0  0  0
  149.9070  160.0430  130.7950 N   0  0  0  0  0  0  0  0  0  0  0  0
  150.3060  158.1960  132.1370 O   0  0  0  0  0  0  0  0  0  0  0  0
  147.5310  160.3480  132.7470 C   0  0  0  0  0  0  0  0  0  0  0  0
  146.2840  159.9870  133.2040 C   0  0  0  0  0  0  0  0  0  0  0  0
  145.2460  160.7750  133.6950 C   0  0  0  0  0  0  0  0  0  0  0  0
  144.0740  160.1280  134.1210 C   0  0  0  0  0  0  0  0  0  0  0  0
  143.9700  158.7160  134.0690 C   0  0  0  0  0  0  0  0  0  0  0  0
  142.7020  158.0350  134.5120 C   0  0  0  0  0  0  0  0  0  0  0  0
  141.8350  157.6700  133.3010 C   0  0  0  0  0  0  0  0  0  0  0  0
  140.4670  158.2030  133.4720 N   0  0  0  0  0  0  0  0  0  0  0  0
  140.4410  159.6900  133.5130 C   0  0  0  0  0  0  0  0  0  0  0  0
  139.9020  160.3030  132.2140 C   0  0  0  0  0  0  0  0  0  0  0  0
  138.5180  159.8550  131.9460 N   0  0  0  0  0  0  0  0  0  0  0  0
  138.1680  160.0890  130.5360 C   0  0  0  0  0  0  0  0  0  0  0  0
  138.2590  158.4480  132.3450 C   0  0  0  0  0  0  0  0  0  0  0  0
  139.5510  157.6250  132.4620 C   0  0  0  0  0  0  0  0  0  0  0  0
  145.0400  157.9510  133.5550 C   0  0  0  0  0  0  0  0  0  0  0  0
  146.1840  158.6230  133.1160 C   0  0  0  0  0  0  0  0  0  0  0  0
  149.3392  154.2474  133.5722 H   0  0  0  0  0  0  0  0  0  0  0  0
  148.4054  154.2755  132.0380 H   0  0  0  0  0  0  0  0  0  0  0  0
  150.1464  154.7176  132.0380 H   0  0  0  0  0  0  0  0  0  0  0  0
  149.5350  156.7700  133.3540 H   0  0  0  0  0  0  0  0  0  0  0  0
  150.7830  160.5980  130.9230 H   0  0  0  0  0  0  0  0  0  0  0  0
  147.9490  161.3634  132.6820 H   0  0  0  0  0  0  0  0  0  0  0  0
  145.3408  161.8696  133.7476 H   0  0  0  0  0  0  0  0  0  0  0  0
  143.2294  160.7231  134.4984 H   0  0  0  0  0  0  0  0  0  0  0  0
  142.9575  157.1181  135.0634 H   0  0  0  0  0  0  0  0  0  0  0  0
  142.1371  158.7225  135.1587 H   0  0  0  0  0  0  0  0  0  0  0  0
  142.2813  158.0999  132.3921 H   0  0  0  0  0  0  0  0  0  0  0  0
  141.7846  156.5747  133.2134 H   0  0  0  0  0  0  0  0  0  0  0  0
  139.7985  160.0089  134.3470 H   0  0  0  0  0  0  0  0  0  0  0  0
  141.4758  160.0394  133.6439 H   0  0  0  0  0  0  0  0  0  0  0  0
  139.9136  161.3994  132.3026 H   0  0  0  0  0  0  0  0  0  0  0  0
  140.5420  159.9748  131.3818 H   0  0  0  0  0  0  0  0  0  0  0  0
  137.2547  160.6996  130.4814 H   0  0  0  0  0  0  0  0  0  0  0  0
  138.9930  160.6178  130.0363 H   0  0  0  0  0  0  0  0  0  0  0  0
  137.9946  159.1245  130.0363 H   0  0  0  0  0  0  0  0  0  0  0  0
  137.7490  158.4454  133.3196 H   0  0  0  0  0  0  0  0  0  0  0  0
  137.6373  157.9868  131.5635 H   0  0  0  0  0  0  0  0  0  0  0  0
  139.2954  156.5966  132.7569 H   0  0  0  0  0  0  0  0  0  0  0  0
  140.0588  157.6350  131.4863 H   0  0  0  0  0  0  0  0  0  0  0  0
  144.9746  156.8542  133.5015 H   0  0  0  0  0  0  0  0  0  0  0  0
  1  2  1  0
  2  3  1  0
  3  4  2  0
  3  5  1  0
  5  6  1  0
  6  7  1  0
  7  8  1  0
  7  9  2  0
  6 10  2  0
 10 11  1  0
 11 12  2  0
 12 13  1  0
 13 14  2  0
 14 15  1  0
 15 16  1  0
 16 17  1  0
 17 18  1  0
 18 19  1  0
 19 20  1  0
 20 21  1  0
 20 22  1  0
 22 23  1  0
 14 24  1  0
 24 25  2  0
 25  5  1  0
 25 11  1  0
 23 17  1  0
  1 26  1  0
  1 27  1  0
  1 28  1  0
  2 29  1  0
  8 30  1  0
 10 31  1  0
 12 32  1  0
 13 33  1  0
 15 34  1  0
 15 35  1  0
 16 36  1  0
 16 37  1  0
 18 38  1  0
 18 39  1  0
 19 40  1  0
 19 41  1  0
 21 42  1  0
 21 43  1  0
 21 44  1  0
 22 45  1  0
 22 46  1  0
 23 47  1  0
 23 48  1  0
 24 49  1  0
M  CHG  1   8  -1
M  END
>  <UniqueID>  (10) 
10

>  <SMILES>  (10) 
CNC(=O)n1c(C([NH-])=O)cc2ccc(CCN3CCN(C)CC3)cc21

>  <Energy>  (10) 
96.37268578122597

>  <Genealogy>  (10) 
CNC(=O)n1c(C([NH-])=O)cc2ccc(CCN3CCN(C)CC3)cc21 (protonated)
CNC(=O)n1c(C([NH-])=O)cc2ccc(CCN3CCN(C)CC3)cc21 (3D coordinates assigned)
CNC(=O)n1c(C([NH-])=O)cc2ccc(CCN3CCN(C)CC3)cc21 (nonaromatic ring conformer: 96.37268578122597 kcal/mol)

>  <smiles>  (10) 
CNC(=O)n1c(C(N)=O)cc2ccc(CCN3CCN(C)CC3)cc21

>  <score_type>  (10) 
oracle

>  <origin>  (10) 
adg

>  <m_score__min__energy>  (10) 
-8.5099999999999998

>  <m_primary>  (10) 
energy

$$$$
10:0
     RDKit          3D

 31 32  0  0  0  0  0  0  0  0999 V2000
  146.6480  154.9890  135.1920 C   0  0  0  0  0  0  0  0  0  0  0  0
  145.7390  155.7800  134.4390 O   0  0  0  0  0  0  0  0  0  0  0  0
  146.1400  156.5620  133.3520 C   0  0  0  0  0  0  0  0  0  0  0  0
  146.6170  156.0180  132.3190 O   0  0  0  0  0  0  0  0  0  0  0  0
  145.9850  157.9900  133.4050 N   0  0  0  0  0  0  0  0  0  0  0  0
  146.9270  158.9460  133.1620 C   0  0  0  0  0  0  0  0  0  0  0  0
  148.3650  158.7070  132.9220 C   0  0  0  0  0  0  0  0  0  0  0  0
  148.7810  157.9840  131.7660 N   0  0  0  0  0  0  0  0  0  0  0  0
  149.2350  159.1640  133.7090 O   0  0  0  0  0  0  0  0  0  0  0  0
  146.3650  160.2180  133.2480 C   0  0  0  0  0  0  0  0  0  0  0  0
  145.0410  160.0120  133.5630 C   0  0  0  0  0  0  0  0  0  0  0  0
  144.0130  160.9310  133.7530 C   0  0  0  0  0  0  0  0  0  0  0  0
  142.7300  160.4340  134.0370 C   0  0  0  0  0  0  0  0  0  0  0  0
  142.5000  159.0400  134.1270 C   0  0  0  0  0  0  0  0  0  0  0  0
  141.1130  158.5190  134.3850 C   0  0  0  0  0  0  0  0  0  0  0  0
  140.7640  158.6810  135.8300 C   0  0  0  0  0  0  0  0  0  0  0  0
  139.5580  158.1210  136.3390 N   0  0  0  0  0  0  0  0  0  0  0  0
  141.5560  159.2790  136.6070 O   0  0  0  0  0  0  0  0  0  0  0  0
  143.5650  158.1360  133.9170 C   0  0  0  0  0  0  0  0  0  0  0  0
  144.8370  158.6590  133.6530 C   0  0  0  0  0  0  0  0  0  0  0  0
  146.4680  155.1457  136.2658 H   0  0  0  0  0  0  0  0  0  0  0  0
  146.5003  153.9270  134.9466 H   0  0  0  0  0  0  0  0  0  0  0  0
  147.6795  155.2820  134.9466 H   0  0  0  0  0  0  0  0  0  0  0  0
  148.3020  157.1000  131.4840 H   0  0  0  0  0  0  0  0  0  0  0  0
  146.8719  161.1824  133.0963 H   0  0  0  0  0  0  0  0  0  0  0  0
  144.1994  162.0128  133.6830 H   0  0  0  0  0  0  0  0  0  0  0  0
  141.8961  161.1347  134.1909 H   0  0  0  0  0  0  0  0  0  0  0  0
  140.3933  159.0809  133.7716 H   0  0  0  0  0  0  0  0  0  0  0  0
  141.0748  157.4514  134.1228 H   0  0  0  0  0  0  0  0  0  0  0  0
  138.9940  158.6250  137.0600 H   0  0  0  0  0  0  0  0  0  0  0  0
  143.3995  157.0494  133.9598 H   0  0  0  0  0  0  0  0  0  0  0  0
  1  2  1  0
  2  3  1  0
  3  4  2  0
  3  5  1  0
  5  6  1  0
  6  7  1  0
  7  8  1  0
  7  9  2  0
  6 10  2  0
 10 11  1  0
 11 12  2  0
 12 13  1  0
 13 14  2  0
 14 15  1  0
 15 16  1  0
 16 17  1  0
 16 18  2  0
 14 19  1  0
 19 20  2  0
 20  5  1  0
 20 11  1  0
  1 21  1  0
  1 22  1  0
  1 23  1  0
  8 24  1  0
 10 25  1  0
 12 26  1  0
 13 27  1  0
 15 28  1  0
 15 29  1  0
 17 30  1  0
 19 31  1  0
M  CHG  2   8  -1  17  -1
M  END
>  <UniqueID>  (11) 
11

>  <SMILES>  (11) 
COC(=O)n1c(C([NH-])=O)cc2ccc(CC([NH-])=O)cc21

>  <Energy>  (11) 
65.59162840580785

>  <Genealogy>  (11) 
COC(=O)n1c(C([NH-])=O)cc2ccc(CC([NH-])=O)cc21 (protonated)
COC(=O)n1c(C([NH-])=O)cc2ccc(CC([NH-])=O)cc21 (3D coordinates assigned)
COC(=O)n1c(C([NH-])=O)cc2ccc(CC([NH-])=O)cc21 (optimized conformer: 65.59162840580785 kcal/mol)

>  <smiles>  (11) 
COC(=O)n1c(C(N)=O)cc2ccc(CC(N)=O)cc21

>  <score_type>  (11) 
oracle

>  <origin>  (11) 
adg

>  <m_score__min__energy>  (11) 
-6.0499999999999998

>  <m_primary>  (11) 
energy

$$$$
11:0
     RDKit          3D

 36 38  0  0  0  0  0  0  0  0999 V2000
  142.9010  160.3530  133.3910 N   0  0  0  0  0  0  0  0  0  0  0  0
  144.2740  160.5160  133.7340 C   0  0  0  0  0  0  0  0  0  0  0  0
  144.6500  161.5850  134.2850 O   0  0  0  0  0  0  0  0  0  0  0  0
  145.2540  159.4370  133.4840 C   0  0  0  0  0  0  0  0  0  0  0  0
  146.6310  159.6450  133.4110 C   0  0  0  0  0  0  0  0  0  0  0  0
  147.1800  158.3930  133.2360 C   0  0  0  0  0  0  0  0  0  0  0  0
  148.5090  158.0060  133.1000 C   0  0  0  0  0  0  0  0  0  0  0  0
  148.7810  156.6380  132.9200 C   0  0  0  0  0  0  0  0  0  0  0  0
  147.7280  155.6890  132.8780 C   0  0  0  0  0  0  0  0  0  0  0  0
  148.0260  154.2500  132.6840 C   0  0  0  0  0  0  0  0  0  0  0  0
  149.3370  153.8270  132.3960 C   0  0  0  0  0  0  0  0  0  0  0  0
  150.3430  154.7290  132.2620 F   0  0  0  0  0  0  0  0  0  0  0  0
  149.6170  152.4690  132.2140 C   0  0  0  0  0  0  0  0  0  0  0  0
  148.5980  151.5080  132.3160 C   0  0  0  0  0  0  0  0  0  0  0  0
  148.9010  150.0740  132.1220 C   0  0  0  0  0  0  0  0  0  0  0  0
  148.1460  149.1880  132.6040 O   0  0  0  0  0  0  0  0  0  0  0  0
  150.0240  149.6820  131.4030 O   0  0  0  0  0  0  0  0  0  0  0  0
  147.2900  151.9320  132.6040 C   0  0  0  0  0  0  0  0  0  0  0  0
  147.0040  153.2900  132.7860 C   0  0  0  0  0  0  0  0  0  0  0  0
  145.7350  153.6590  133.0930 F   0  0  0  0  0  0  0  0  0  0  0  0
  146.3890  156.1230  133.0220 C   0  0  0  0  0  0  0  0  0  0  0  0
  146.1530  157.4880  133.2060 C   0  0  0  0  0  0  0  0  0  0  0  0
  144.9660  158.1130  133.3500 N   0  0  0  0  0  0  0  0  0  0  0  0
  143.6780  157.4820  133.3200 C   0  0  0  0  0  0  0  0  0  0  0  0
  142.9470  157.6120  132.3020 O   0  0  0  0  0  0  0  0  0  0  0  0
  143.1450  156.7600  134.5200 C   0  0  0  0  0  0  0  0  0  0  0  0
  142.6550  157.6540  135.4570 F   0  0  0  0  0  0  0  0  0  0  0  0
  144.1450  156.0010  135.0960 F   0  0  0  0  0  0  0  0  0  0  0  0
  142.6150  159.7310  132.6020 H   0  0  0  0  0  0  0  0  0  0  0  0
  147.1653  160.6042  133.4787 H   0  0  0  0  0  0  0  0  0  0  0  0
  149.3217  158.7466  133.1322 H   0  0  0  0  0  0  0  0  0  0  0  0
  149.8222  156.3003  132.8105 H   0  0  0  0  0  0  0  0  0  0  0  0
  150.6455  152.1504  131.9888 H   0  0  0  0  0  0  0  0  0  0  0  0
  146.4827  151.1895  132.6873 H   0  0  0  0  0  0  0  0  0  0  0  0
  145.5561  155.4052  132.9900 H   0  0  0  0  0  0  0  0  0  0  0  0
  142.3244  156.1065  134.1889 H   0  0  0  0  0  0  0  0  0  0  0  0
  1  2  1  0
  2  3  2  0
  2  4  1  0
  4  5  2  0
  5  6  1  0
  6  7  2  0
  7  8  1  0
  8  9  2  0
  9 10  1  0
 10 11  2  0
 11 12  1  0
 11 13  1  0
 13 14  2  0
 14 15  1  0
 15 16  2  0
 15 17  1  0
 14 18  1  0
 18 19  2  0
 19 20  1  0
  9 21  1  0
 21 22  2  0
 22 23  1  0
 23 24  1  0
 24 25  2  0
 24 26  1  0
 26 27  1  0
 26 28  1  0
 23  4  1  0
 22  6  1  0
 19 10  1  0
  1 29  1  0
  5 30  1  0
  7 31  1  0
  8 32  1  0
 13 33  1  0
 18 34  1  0
 21 35  1  0
 26 36  1  0
M  CHG  2   1  -1  17  -1
M  END
>  <UniqueID>  (12) 
12

>  <SMILES>  (12) 
[NH-]C(=O)c1cc2ccc(-c3c(F)cc(C(=O)[O-])cc3F)cc2n1C(=O)C(F)F

>  <Energy>  (12) 
86.63408127622183

>  <Genealogy>  (12) 
[NH-]C(=O)c1cc2ccc(-c3c(F)cc(C(=O)[O-])cc3F)cc2n1C(=O)C(F)F (protonated)
[NH-]C(=O)c1cc2ccc(-c3c(F)cc(C(=O)[O-])cc3F)cc2n1C(=O)C(F)F (3D coordinates assigned)
[NH-]C(=O)c1cc2ccc(-c3c(F)cc(C(=O)[O-])cc3F)cc2n1C(=O)C(F)F (optimized conformer: 86.63408127622183 kcal/mol)

>  <smiles>  (12) 
NC(=O)c1cc2ccc(-c3c(F)cc(C(=O)O)cc3F)cc2n1C(=O)C(F)F

>  <score_type>  (12) 
oracle

>  <origin>  (12) 
adg

>  <m_score__min__energy>  (12) 
-7.21

>  <m_primary>  (12) 
energy

$$$$
12:0
     RDKit          3D

 34 36  0  0  0  0  0  0  0  0999 V2000
  145.6580  160.4770  132.8690 N   0  0  0  0  0  0  0  0  0  0  0  0
  145.1180  159.3120  133.4960 C   0  0  0  0  0  0  0  0  0  0  0  0
  144.0220  159.3950  134.1100 O   0  0  0  0  0  0  0  0  0  0  0  0
  145.7890  158.0030  133.3800 C   0  0  0  0  0  0  0  0  0  0  0  0
  145.1170  156.7880  133.4880 C   0  0  0  0  0  0  0  0  0  0  0  0
  146.0710  155.8250  133.2550 C   0  0  0  0  0  0  0  0  0  0  0  0
  145.9540  154.4380  133.2450 C   0  0  0  0  0  0  0  0  0  0  0  0
  147.1140  153.6820  133.0080 C   0  0  0  0  0  0  0  0  0  0  0  0
  148.3650  154.3170  132.8120 C   0  0  0  0  0  0  0  0  0  0  0  0
  149.6080  153.4900  132.5580 C   0  0  0  0  0  0  0  0  0  0  0  0
  149.4970  151.9750  132.8870 C   0  0  0  0  0  0  0  0  0  0  0  0
  149.2280  151.7440  134.2460 O   0  0  0  0  0  0  0  0  0  0  0  0
  150.6160  151.0800  132.3920 C   0  0  0  0  0  0  0  0  0  0  0  0
  149.7460  150.3370  131.5690 O   0  0  0  0  0  0  0  0  0  0  0  0
  148.6430  151.1110  131.9770 C   0  0  0  0  0  0  0  0  0  0  0  0
  148.4390  155.7280  132.8080 C   0  0  0  0  0  0  0  0  0  0  0  0
  147.2640  156.4600  133.0270 C   0  0  0  0  0  0  0  0  0  0  0  0
  147.1080  157.8020  133.1030 N   0  0  0  0  0  0  0  0  0  0  0  0
  148.1450  158.7970  133.0420 C   0  0  0  0  0  0  0  0  0  0  0  0
  148.8480  159.0500  134.0550 O   0  0  0  0  0  0  0  0  0  0  0  0
  148.3800  159.4930  131.8630 O   0  0  0  0  0  0  0  0  0  0  0  0
  146.4720  160.4110  132.2180 H   0  0  0  0  0  0  0  0  0  0  0  0
  145.1900  161.4020  132.9920 H   0  0  0  0  0  0  0  0  0  0  0  0
  144.0514  156.6319  133.7118 H   0  0  0  0  0  0  0  0  0  0  0  0
  144.9837  153.9493  133.4173 H   0  0  0  0  0  0  0  0  0  0  0  0
  147.0502  152.5844  132.9742 H   0  0  0  0  0  0  0  0  0  0  0  0
  149.8637  153.5852  131.4924 H   0  0  0  0  0  0  0  0  0  0  0  0
  150.3731  153.8868  133.2415 H   0  0  0  0  0  0  0  0  0  0  0  0
  148.5390  151.0320  134.2820 H   0  0  0  0  0  0  0  0  0  0  0  0
  151.3945  151.6197  131.8328 H   0  0  0  0  0  0  0  0  0  0  0  0
  151.2379  150.5483  133.1272 H   0  0  0  0  0  0  0  0  0  0  0  0
  148.1722  151.6709  131.1556 H   0  0  0  0  0  0  0  0  0  0  0  0
  147.7618  150.6037  132.3965 H   0  0  0  0  0  0  0  0  0  0  0  0
  149.3972  156.2404  132.6369 H   0  0  0  0  0  0  0  0  0  0  0  0
  1  2  1  0
  2  3  2  0
  2  4  1  0
  4  5  2  0
  5  6  1  0
  6  7  2  0
  7  8  1  0
  8  9  2  0
  9 10  1  0
 10 11  1  0
 11 12  1  0
 11 13  1  0
 13 14  1  0
 14 15  1  0
  9 16  1  0
 16 17  2  0
 17 18  1  0
 18 19  1  0
 19 20  2  0
 19 21  1  0
 18  4  1  0
 17  6  1  0
 15 11  1  0
  1 22  1  0
  1 23  1  0
  5 24  1  0
  7 25  1  0
  8 26  1  0
 10 27  1  0
 10 28  1  0
 12 29  1  0
 13 30  1  0
 13 31  1  0
 15 32  1  0
 15 33  1  0
 16 34  1  0
M  CHG  1  21  -1
M  END
>  <UniqueID>  (13) 
13

>  <SMILES>  (13) 
NC(=O)c1cc2ccc(CC3(O)COC3)cc2n1C(=O)[O-]

>  <Energy>  (13) 
142.3375429684332

>  <Genealogy>  (13) 
NC(=O)c1cc2ccc(CC3(O)COC3)cc2n1C(=O)[O-] (protonated)
NC(=O)c1cc2ccc(CC3(O)COC3)cc2n1C(=O)[O-] (3D coordinates assigned)
NC(=O)c1cc2ccc(CC3(O)COC3)cc2n1C(=O)[O-] (nonaromatic ring conformer: 142.3375429684332 kcal/mol)

>  <smiles>  (13) 
NC(=O)c1cc2ccc(CC3(O)COC3)cc2n1C(=O)O

>  <score_type>  (13) 
oracle

>  <origin>  (13) 
adg

>  <m_score__min__energy>  (13) 
-7.0700000000000003

>  <m_primary>  (13) 
energy

$$$$
13:0
     RDKit          3D

 43 45  0  0  0  0  0  0  0  0999 V2000
  141.6710  158.7100  134.9370 C   0  0  0  0  0  0  0  0  0  0  0  0
  143.0730  158.4790  134.8720 O   0  0  0  0  0  0  0  0  0  0  0  0
  143.7630  158.3680  133.6620 C   0  0  0  0  0  0  0  0  0  0  0  0
  143.2130  157.8300  132.6630 O   0  0  0  0  0  0  0  0  0  0  0  0
  145.1140  158.8460  133.5650 N   0  0  0  0  0  0  0  0  0  0  0  0
  145.5480  160.1380  133.5570 C   0  0  0  0  0  0  0  0  0  0  0  0
  144.7200  161.3350  133.8120 C   0  0  0  0  0  0  0  0  0  0  0  0
  143.2980  161.2760  133.7250 N   0  0  0  0  0  0  0  0  0  0  0  0
  145.2710  162.4130  134.1590 O   0  0  0  0  0  0  0  0  0  0  0  0
  146.9250  160.1900  133.3530 C   0  0  0  0  0  0  0  0  0  0  0  0
  147.3270  158.8780  133.2460 C   0  0  0  0  0  0  0  0  0  0  0  0
  148.5940  158.3460  133.0260 C   0  0  0  0  0  0  0  0  0  0  0  0
  148.7140  156.9500  132.9280 C   0  0  0  0  0  0  0  0  0  0  0  0
  147.5750  156.1100  133.0430 C   0  0  0  0  0  0  0  0  0  0  0  0
  147.7080  154.6760  132.9270 N   0  0  0  0  0  0  0  0  0  0  0  0
  146.6140  153.7910  133.3480 C   0  0  0  0  0  0  0  0  0  0  0  0
  146.7040  152.4530  132.6050 C   0  0  0  0  0  0  0  0  0  0  0  0
  148.0040  151.7720  132.8340 N   0  0  0  0  0  0  0  0  0  0  0  0
  148.2430  150.7790  131.7720 C   0  0  0  0  0  0  0  0  0  0  0  0
  149.1680  152.6970  132.9670 C   0  0  0  0  0  0  0  0  0  0  0  0
  148.9180  154.0790  132.3480 C   0  0  0  0  0  0  0  0  0  0  0  0
  146.3040  156.6950  133.2630 C   0  0  0  0  0  0  0  0  0  0  0  0
  146.2170  158.0870  133.3750 C   0  0  0  0  0  0  0  0  0  0  0  0
  141.3564  158.7618  135.9898 H   0  0  0  0  0  0  0  0  0  0  0  0
  141.4322  159.6596  134.4357 H   0  0  0  0  0  0  0  0  0  0  0  0
  141.1402  157.8872  134.4357 H   0  0  0  0  0  0  0  0  0  0  0  0
  142.7950  160.3620  133.7760 H   0  0  0  0  0  0  0  0  0  0  0  0
  147.5567  161.0884  133.2907 H   0  0  0  0  0  0  0  0  0  0  0  0
  149.4744  158.9987  132.9318 H   0  0  0  0  0  0  0  0  0  0  0  0
  149.7041  156.5012  132.7598 H   0  0  0  0  0  0  0  0  0  0  0  0
  146.6872  153.6116  134.4308 H   0  0  0  0  0  0  0  0  0  0  0  0
  145.6522  154.2700  133.1124 H   0  0  0  0  0  0  0  0  0  0  0  0
  145.8936  151.7973  132.9561 H   0  0  0  0  0  0  0  0  0  0  0  0
  146.6143  152.6574  131.5279 H   0  0  0  0  0  0  0  0  0  0  0  0
  147.9240  151.2380  133.7320 H   0  0  0  0  0  0  0  0  0  0  0  0
  148.4774  149.8052  132.2266 H   0  0  0  0  0  0  0  0  0  0  0  0
  147.3418  150.6851  131.1483 H   0  0  0  0  0  0  0  0  0  0  0  0
  149.0882  151.1054  131.1483 H   0  0  0  0  0  0  0  0  0  0  0  0
  149.3895  152.8282  134.0364 H   0  0  0  0  0  0  0  0  0  0  0  0
  150.0092  152.2431  132.4225 H   0  0  0  0  0  0  0  0  0  0  0  0
  149.7799  154.7312  132.5524 H   0  0  0  0  0  0  0  0  0  0  0  0
  148.7829  153.9696  131.2618 H   0  0  0  0  0  0  0  0  0  0  0  0
  145.4039  156.0680  133.3441 H   0  0  0  0  0  0  0  0  0  0  0  0
  1  2  1  0
  2  3  1  0
  3  4  2  0
  3  5  1  0
  5  6  1  0
  6  7  1  0
  7  8  1  0
  7  9  2  0
  6 10  2  0
 10 11  1  0
 11 12  2  0
 12 13  1  0
 13 14  2  0
 14 15  1  0
 15 16  1  0
 16 17  1  0
 17 18  1  0
 18 19  1  0
 18 20  1  0
 20 21  1  0
 14 22  1  0
 22 23  2  0
 23  5  1  0
 23 11  1  0
 21 15  1  0
  1 24  1  0
  1 25  1  0
  1 26  1  0
  8 27  1  0
 10 28  1  0
 12 29  1  0
 13 30  1  0
 16 31  1  0
 16 32  1  0
 17 33  1  0
 17 34  1  0
 18 35  1  0
 19 36  1  0
 19 37  1  0
 19 38  1  0
 20 39  1  0
 20 40  1  0
 21 41  1  0
 21 42  1  0
 22 43  1  0
M  CHG  2   8  -1  18   1
M  END
>  <UniqueID>  (14) 
14

>  <SMILES>  (14) 
COC(=O)n1c(C([NH-])=O)cc2ccc(N3CC[NH+](C)CC3)cc21

>  <Energy>  (14) 
91.06157701453323

>  <Genealogy>  (14) 
COC(=O)n1c(C([NH-])=O)cc2ccc(N3CC[NH+](C)CC3)cc21 (protonated)
COC(=O)n1c(C([NH-])=O)cc2ccc(N3CC[NH+](C)CC3)cc21 (3D coordinates assigned)
COC(=O)n1c(C([NH-])=O)cc2ccc(N3CC[NH+](C)CC3)cc21 (nonaromatic ring conformer: 91.06157701453323 kcal/mol)

>  <smiles>  (14) 
COC(=O)n1c(C(N)=O)cc2ccc(N3CCN(C)CC3)cc21

>  <score_type>  (14) 
oracle

>  <origin>  (14) 
adg

>  <m_score__min__energy>  (14) 
-6.5499999999999998

>  <m_primary>  (14) 
energy

$$$$
14:0
     RDKit          3D

 47 49  0  0  0  0  0  0  0  0999 V2000
  138.6990  157.8690  134.4240 C   0  0  0  0  0  0  0  0  0  0  0  0
  139.5100  157.3380  133.2230 C   0  0  0  0  0  0  0  0  0  0  0  0
  139.1130  155.8610  132.9670 C   0  0  0  0  0  0  0  0  0  0  0  0
  139.1490  158.1500  131.9570 C   0  0  0  0  0  0  0  0  0  0  0  0
  140.9630  157.4480  133.5230 N   0  0  0  0  0  0  0  0  0  0  0  0
  141.8140  158.5640  133.1210 C   0  0  0  0  0  0  0  0  0  0  0  0
  143.2810  158.1420  133.3960 C   0  0  1  0  0  0  0  0  0  0  0  0
  144.0630  159.2300  134.1210 C   0  0  0  0  0  0  0  0  0  0  0  0
  143.4550  159.8630  135.0250 O   0  0  0  0  0  0  0  0  0  0  0  0
  145.4290  159.6020  133.8090 N   0  0  0  0  0  0  0  0  0  0  0  0
  145.9500  160.8700  133.7940 C   0  0  0  0  0  0  0  0  0  0  0  0
  145.2350  162.1130  134.1100 C   0  0  0  0  0  0  0  0  0  0  0  0
  143.8980  162.3110  133.6640 N   0  0  0  0  0  0  0  0  0  0  0  0
  145.7490  162.9500  134.8980 O   0  0  0  0  0  0  0  0  0  0  0  0
  147.2910  160.8520  133.4160 C   0  0  0  0  0  0  0  0  0  0  0  0
  147.5960  159.5240  133.2300 C   0  0  0  0  0  0  0  0  0  0  0  0
  148.7890  158.9420  132.8230 C   0  0  0  0  0  0  0  0  0  0  0  0
  148.8290  157.5470  132.6860 C   0  0  0  0  0  0  0  0  0  0  0  0
  147.6880  156.7580  132.9890 C   0  0  0  0  0  0  0  0  0  0  0  0
  147.7070  155.2640  132.7770 C   0  0  0  0  0  0  0  0  0  0  0  0
  148.9080  154.8400  132.2230 F   0  0  0  0  0  0  0  0  0  0  0  0
  147.5320  154.6190  133.9840 F   0  0  0  0  0  0  0  0  0  0  0  0
  146.6850  154.9170  131.9190 F   0  0  0  0  0  0  0  0  0  0  0  0
  146.4950  157.3880  133.4080 C   0  0  0  0  0  0  0  0  0  0  0  0
  146.4640  158.7890  133.4880 C   0  0  0  0  0  0  0  0  0  0  0  0
  143.2470  156.7540  134.0460 C   0  0  0  0  0  0  0  0  0  0  0  0
  141.8000  156.4130  134.0360 C   0  0  0  0  0  0  0  0  0  0  0  0
  141.3700  155.3100  134.4550 O   0  0  0  0  0  0  0  0  0  0  0  0
  139.1815  157.5531  135.3607 H   0  0  0  0  0  0  0  0  0  0  0  0
  138.6607  158.9676  134.3836 H   0  0  0  0  0  0  0  0  0  0  0  0
  137.6768  157.4648  134.3836 H   0  0  0  0  0  0  0  0  0  0  0  0
  138.9747  155.3464  133.9293 H   0  0  0  0  0  0  0  0  0  0  0  0
  138.1740  155.8276  132.3950 H   0  0  0  0  0  0  0  0  0  0  0  0
  139.9087  155.3613  132.3950 H   0  0  0  0  0  0  0  0  0  0  0  0
  138.7186  159.1181  132.2527 H   0  0  0  0  0  0  0  0  0  0  0  0
  140.0565  158.3195  131.3590 H   0  0  0  0  0  0  0  0  0  0  0  0
  138.4151  157.5898  131.3590 H   0  0  0  0  0  0  0  0  0  0  0  0
  141.6769  158.7763  132.0504 H   0  0  0  0  0  0  0  0  0  0  0  0
  141.5569  159.4741  133.6827 H   0  0  0  0  0  0  0  0  0  0  0  0
  143.8642  158.0383  132.4691 H   0  0  0  0  0  0  0  0  0  0  0  0
  143.1060  161.7630  134.0680 H   0  0  0  0  0  0  0  0  0  0  0  0
  147.9619  161.7150  133.2928 H   0  0  0  0  0  0  0  0  0  0  0  0
  149.6767  159.5571  132.6141 H   0  0  0  0  0  0  0  0  0  0  0  0
  149.7526  157.0595  132.3407 H   0  0  0  0  0  0  0  0  0  0  0  0
  145.6073  156.7920  133.6666 H   0  0  0  0  0  0  0  0  0  0  0  0
  143.8279  156.0282  133.4580 H   0  0  0  0  0  0  0  0  0  0  0  0
  143.6885  156.7371  135.0534 H   0  0  0  0  0  0  0  0  0  0  0  0
  1  2  1  0
  2  3  1  0
  2  4  1  0
  2  5  1  0
  5  6  1  0
  6  7  1  0
  7  8  1  0
  8  9  2  0
  8 10  1  0
 10 11  1  0
 11 12  1  0
 12 13  1  0
 12 14  2  0
 11 15  2  0
 15 16  1  0
 16 17  2  0
 17 18  1  0
 18 19  2  0
 19 20  1  0
 20 21  1  0
 20 22  1  0
 20 23  1  0
 19 24  1  0
 24 25  2  0
  7 26  1  0
 26 27  1  0
 27 28  2  0
 27  5  1  0
 25 10  1  0
 25 16  1  0
  1 29  1  0
  1 30  1  0
  1 31  1  0
  3 32  1  0
  3 33  1  0
  3 34  1  0
  4 35  1  0
  4 36  1  0
  4 37  1  0
  6 38  1  0
  6 39  1  0
  7 40  1  6
 13 41  1  0
 15 42  1  0
 17 43  1  0
 18 44  1  0
 24 45  1  0
 26 46  1  0
 26 47  1  0
M  CHG  1  13  -1
M  END
>  <UniqueID>  (15) 
15

>  <SMILES>  (15) 
CC(C)(C)N1C[C@@H](C(=O)n2c(C([NH-])=O)cc3ccc(C(F)(F)F)cc32)CC1=O

>  <Energy>  (15) 
101.44986536485864

>  <Genealogy>  (15) 
CC(C)(C)N1CC(C(=O)n2c(C([NH-])=O)cc3ccc(C(F)(F)F)cc32)CC1=O (protonated)
CC(C)(C)N1C[C@@H](C(=O)n2c(C([NH-])=O)cc3ccc(C(F)(F)F)cc32)CC1=O (chirality)
CC(C)(C)N1C[C@@H](C(=O)n2c(C([NH-])=O)cc3ccc(C(F)(F)F)cc32)CC1=O (3D coordinates assigned)
CC(C)(C)N1C[C@@H](C(=O)n2c(C([NH-])=O)cc3ccc(C(F)(F)F)cc32)CC1=O (nonaromatic ring conformer: 101.44986536485864 kcal/mol)

>  <smiles>  (15) 
CC(C)(C)N1CC(C(=O)n2c(C(N)=O)cc3ccc(C(F)(F)F)cc32)CC1=O

>  <score_type>  (15) 
oracle

>  <origin>  (15) 
adg

>  <m_score__min__energy>  (15) 
-8.0099999999999998

>  <m_primary>  (15) 
energy

$$$$
15:0
     RDKit          3D

 42 43  0  0  0  0  0  0  0  0999 V2000
  146.2130  153.5500  135.3090 N   0  0  0  0  0  0  0  0  0  0  0  0
  145.4670  154.7020  134.9230 C   0  0  0  0  0  0  0  0  0  0  0  0
  144.2230  154.7270  135.1210 O   0  0  0  0  0  0  0  0  0  0  0  0
  146.1500  155.8360  134.2660 C   0  0  0  0  0  0  0  0  0  0  0  0
  145.7820  157.1690  134.4440 C   0  0  0  0  0  0  0  0  0  0  0  0
  146.6910  157.9000  133.7110 C   0  0  0  0  0  0  0  0  0  0  0  0
  146.7730  159.2720  133.4960 C   0  0  0  0  0  0  0  0  0  0  0  0
  147.7840  159.7450  132.6420 C   0  0  0  0  0  0  0  0  0  0  0  0
  148.6880  158.8460  132.0260 C   0  0  0  0  0  0  0  0  0  0  0  0
  149.7310  159.3570  131.0690 C   0  0  0  0  0  0  0  0  0  0  0  0
  149.2350  160.5810  130.3610 C   0  0  0  0  0  0  0  0  0  0  0  0
  149.6500  160.8620  129.2470 O   0  0  0  0  0  0  0  0  0  0  0  0
  148.5690  157.4580  132.2620 C   0  0  0  0  0  0  0  0  0  0  0  0
  147.5620  157.0180  133.1270 C   0  0  0  0  0  0  0  0  0  0  0  0
  147.2440  155.7480  133.4590 N   0  0  0  0  0  0  0  0  0  0  0  0
  147.8690  154.5620  132.9510 C   0  0  0  0  0  0  0  0  0  0  0  0
  147.1600  153.5780  132.6050 O   0  0  0  0  0  0  0  0  0  0  0  0
  149.2660  154.4870  132.8910 O   0  0  0  0  0  0  0  0  0  0  0  0
  149.9730  153.4230  132.2540 C   0  0  0  0  0  0  0  0  0  0  0  0
  149.6200  152.0710  132.8860 C   0  0  0  0  0  0  0  0  0  0  0  0
  150.4480  150.9150  132.3070 C   0  0  0  0  0  0  0  0  0  0  0  0
  150.0510  150.6160  130.8630 C   0  0  0  0  0  0  0  0  0  0  0  0
  150.7050  149.4290  130.4310 O   0  0  0  0  0  0  0  0  0  0  0  0
  151.3170  149.3370  129.1960 N   0  0  0  0  0  0  0  0  0  0  0  0
  150.6700  149.0040  128.1810 O   0  0  0  0  0  0  0  0  0  0  0  0
  152.6560  149.6230  129.0820 O   0  0  0  0  0  0  0  0  0  0  0  0
  146.7290  152.9820  134.6000 H   0  0  0  0  0  0  0  0  0  0  0  0
  144.9438  157.5551  135.0426 H   0  0  0  0  0  0  0  0  0  0  0  0
  146.0686  159.9650  133.9793 H   0  0  0  0  0  0  0  0  0  0  0  0
  147.8739  160.8244  132.4502 H   0  0  0  0  0  0  0  0  0  0  0  0
  150.6447  159.6069  131.6282 H   0  0  0  0  0  0  0  0  0  0  0  0
  149.9454  158.5762  130.3244 H   0  0  0  0  0  0  0  0  0  0  0  0
  148.4925  161.2306  130.8475 H   0  0  0  0  0  0  0  0  0  0  0  0
  149.2503  156.7425  131.7782 H   0  0  0  0  0  0  0  0  0  0  0  0
  149.7058  153.4019  131.1872 H   0  0  0  0  0  0  0  0  0  0  0  0
  151.0522  153.5962  132.3783 H   0  0  0  0  0  0  0  0  0  0  0  0
  149.8049  152.1291  133.9688 H   0  0  0  0  0  0  0  0  0  0  0  0
  148.5619  151.8662  132.6658 H   0  0  0  0  0  0  0  0  0  0  0  0
  151.5133  151.1875  132.3365 H   0  0  0  0  0  0  0  0  0  0  0  0
  150.2590  150.0159  132.9120 H   0  0  0  0  0  0  0  0  0  0  0  0
  148.9614  150.4777  130.8028 H   0  0  0  0  0  0  0  0  0  0  0  0
  150.3485  151.4559  130.2180 H   0  0  0  0  0  0  0  0  0  0  0  0
  1  2  1  0
  2  3  2  0
  2  4  1  0
  4  5  2  0
  5  6  1  0
  6  7  2  0
  7  8  1  0
  8  9  2  0
  9 10  1  0
 10 11  1  0
 11 12  2  0
  9 13  1  0
 13 14  2  0
 14 15  1  0
 15 16  1  0
 16 17  2  0
 16 18  1  0
 18 19  1  0
 19 20  1  0
 20 21  1  0
 21 22  1  0
 22 23  1  0
 23 24  1  0
 24 25  2  0
 24 26  1  0
 15  4  1  0
 14  6  1  0
  1 27  1  0
  5 28  1  0
  7 29  1  0
  8 30  1  0
 10 31  1  0
 10 32  1  0
 11 33  1  0
 13 34  1  0
 19 35  1  0
 19 36  1  0
 20 37  1  0
 20 38  1  0
 21 39  1  0
 21 40  1  0
 22 41  1  0
 22 42  1  0
M  CHG  3   1  -1  24   1  26  -1
M  END
>  <UniqueID>  (16) 
16

>  <SMILES>  (16) 
[NH-]C(=O)c1cc2ccc(CC=O)cc2n1C(=O)OCCCCO[N+](=O)[O-]

>  <Energy>  (16) 
69.49607970457586

>  <Genealogy>  (16) 
[NH-]C(=O)c1cc2ccc(CC=O)cc2n1C(=O)OCCCCO[N+](=O)[O-] (protonated)
[NH-]C(=O)c1cc2ccc(CC=O)cc2n1C(=O)OCCCCO[N+](=O)[O-] (3D coordinates assigned)
[NH-]C(=O)c1cc2ccc(CC=O)cc2n1C(=O)OCCCCO[N+](=O)[O-] (optimized conformer: 69.49607970457586 kcal/mol)

>  <smiles>  (16) 
NC(=O)c1cc2ccc(CC=O)cc2n1C(=O)OCCCCO[N+](=O)[O-]

>  <score_type>  (16) 
oracle

>  <origin>  (16) 
adg

>  <m_score__min__energy>  (16) 
-7.1399999999999997

>  <m_primary>  (16) 
energy

$$$$
16:0
     RDKit          3D

 56 58  0  0  0  0  0  0  0  0999 V2000
  139.2720  157.8590  136.2490 C   0  0  0  0  0  0  0  0  0  0  0  0
  140.6720  158.2830  135.7730 C   0  0  0  0  0  0  0  0  0  0  0  0
  140.9670  159.7140  136.2560 C   0  0  0  0  0  0  0  0  0  0  0  0
  141.7180  157.3220  136.3610 C   0  0  0  0  0  0  0  0  0  0  0  0
  140.7310  158.2240  133.8690 Si  0  0  0  0  0  4  0  0  0  0  0  0
  139.0690  158.6830  133.1230 C   0  0  0  0  0  0  0  0  0  0  0  0
  141.0870  156.4760  133.3020 C   0  0  0  0  0  0  0  0  0  0  0  0
  142.0380  159.2150  133.2870 O   0  0  0  0  0  0  0  0  0  0  0  0
  143.2340  159.0250  134.0180 C   0  0  2  0  0  0  0  0  0  0  0  0
  144.2600  160.1110  133.6820 C   0  0  0  0  0  0  0  0  0  0  0  0
  145.6090  159.4100  133.6450 C   0  0  0  0  0  0  0  0  0  0  0  0
  145.3170  157.9910  133.4990 N   0  0  0  0  0  0  0  0  0  0  0  0
  146.3250  156.9770  133.2800 C   0  0  0  0  0  0  0  0  0  0  0  0
  147.6970  157.3340  133.1660 C   0  0  0  0  0  0  0  0  0  0  0  0
  148.6840  156.3560  132.9640 C   0  0  0  0  0  0  0  0  0  0  0  0
  148.2800  155.0300  132.8700 C   0  0  0  0  0  0  0  0  0  0  0  0
  149.0280  153.8870  132.7020 C   0  0  0  0  0  0  0  0  0  0  0  0
  148.1060  152.8420  132.6880 C   0  0  0  0  0  0  0  0  0  0  0  0
  148.4780  151.4330  132.4390 C   0  0  0  0  0  0  0  0  0  0  0  0
  148.0150  150.7490  131.2770 N   0  0  0  0  0  0  0  0  0  0  0  0
  149.2550  150.8430  133.2350 O   0  0  0  0  0  0  0  0  0  0  0  0
  146.8400  153.3200  132.8530 N   0  0  0  0  0  0  0  0  0  0  0  0
  145.6250  152.5650  132.9880 C   0  0  0  0  0  0  0  0  0  0  0  0
  145.3270  151.5130  132.0740 N   0  0  0  0  0  0  0  0  0  0  0  0
  144.8290  152.8120  133.9330 O   0  0  0  0  0  0  0  0  0  0  0  0
  146.9640  154.6610  132.9600 C   0  0  0  0  0  0  0  0  0  0  0  0
  145.9600  155.6110  133.1790 C   0  0  0  0  0  0  0  0  0  0  0  0
  143.8910  157.7150  133.5940 C   0  0  0  0  0  0  0  0  0  0  0  0
  139.2454  157.8509  137.3486 H   0  0  0  0  0  0  0  0  0  0  0  0
  138.5244  158.5710  135.8694 H   0  0  0  0  0  0  0  0  0  0  0  0
  139.0451  156.8518  135.8694 H   0  0  0  0  0  0  0  0  0  0  0  0
  140.9716  159.7362  137.3558 H   0  0  0  0  0  0  0  0  0  0  0  0
  141.9498  160.0330  135.8787 H   0  0  0  0  0  0  0  0  0  0  0  0
  140.1905  160.3957  135.8787 H   0  0  0  0  0  0  0  0  0  0  0  0
  141.6754  157.3612  137.4595 H   0  0  0  0  0  0  0  0  0  0  0  0
  141.5059  156.2972  136.0221 H   0  0  0  0  0  0  0  0  0  0  0  0
  142.7212  157.6200  136.0221 H   0  0  0  0  0  0  0  0  0  0  0  0
  138.3477  158.8822  133.9292 H   0  0  0  0  0  0  0  0  0  0  0  0
  139.1822  159.5835  132.5015 H   0  0  0  0  0  0  0  0  0  0  0  0
  138.7040  157.8520  132.5015 H   0  0  0  0  0  0  0  0  0  0  0  0
  141.2194  155.8258  134.1793 H   0  0  0  0  0  0  0  0  0  0  0  0
  140.2453  156.1083  132.6967 H   0  0  0  0  0  0  0  0  0  0  0  0
  142.0055  156.4667  132.6967 H   0  0  0  0  0  0  0  0  0  0  0  0
  142.9656  159.0409  135.0846 H   0  0  0  0  0  0  0  0  0  0  0  0
  144.0351  160.5607  132.7036 H   0  0  0  0  0  0  0  0  0  0  0  0
  144.2465  160.9237  134.4232 H   0  0  0  0  0  0  0  0  0  0  0  0
  146.2032  159.7683  132.7914 H   0  0  0  0  0  0  0  0  0  0  0  0
  146.1937  159.6107  134.5549 H   0  0  0  0  0  0  0  0  0  0  0  0
  147.9892  158.3921  133.2371 H   0  0  0  0  0  0  0  0  0  0  0  0
  149.7458  156.6315  132.8826 H   0  0  0  0  0  0  0  0  0  0  0  0
  150.1209  153.8138  132.6004 H   0  0  0  0  0  0  0  0  0  0  0  0
  147.0100  150.4850  131.1750 H   0  0  0  0  0  0  0  0  0  0  0  0
  145.9310  151.3400  131.2400 H   0  0  0  0  0  0  0  0  0  0  0  0
  144.9078  155.3036  133.2710 H   0  0  0  0  0  0  0  0  0  0  0  0
  143.4993  157.3895  132.6190 H   0  0  0  0  0  0  0  0  0  0  0  0
  143.6846  156.9101  134.3148 H   0  0  0  0  0  0  0  0  0  0  0  0
  1  2  1  0
  2  3  1  0
  2  4  1  0
  2  5  1  0
  5  6  1  0
  5  7  1  0
  5  8  1  0
  8  9  1  0
  9 10  1  0
 10 11  1  0
 11 12  1  0
 12 13  1  0
 13 14  2  0
 14 15  1  0
 15 16  2  0
 16 17  1  0
 17 18  2  0
 18 19  1  0
 19 20  1  0
 19 21  2  0
 18 22  1  0
 22 23  1  0
 23 24  1  0
 23 25  2  0
 22 26  1  0
 26 27  2  0
 12 28  1  0
 28  9  1  0
 27 13  1  0
 26 16  1  0
  1 29  1  0
  1 30  1  0
  1 31  1  0
  3 32  1  0
  3 33  1  0
  3 34  1  0
  4 35  1  0
  4 36  1  0
  4 37  1  0
  6 38  1  0
  6 39  1  0
  6 40  1  0
  7 41  1  0
  7 42  1  0
  7 43  1  0
  9 44  1  1
 10 45  1  0
 10 46  1  0
 11 47  1  0
 11 48  1  0
 14 49  1  0
 15 50  1  0
 17 51  1  0
 20 52  1  0
 24 53  1  0
 27 54  1  0
 28 55  1  0
 28 56  1  0
M  CHG  2  20  -1  24  -1
M  END
>  <UniqueID>  (17) 
17

>  <SMILES>  (17) 
CC(C)(C)[Si](C)(C)O[C@@H]1CCN(c2ccc3cc(C([NH-])=O)n(C([NH-])=O)c3c2)C1

>  <Energy>  (17) 
82.68020466312984

>  <Genealogy>  (17) 
CC(C)(C)[Si](C)(C)OC1CCN(c2ccc3cc(C([NH-])=O)n(C([NH-])=O)c3c2)C1 (protonated)
CC(C)(C)[Si](C)(C)O[C@@H]1CCN(c2ccc3cc(C([NH-])=O)n(C([NH-])=O)c3c2)C1 (chirality)
CC(C)(C)[Si](C)(C)O[C@@H]1CCN(c2ccc3cc(C([NH-])=O)n(C([NH-])=O)c3c2)C1 (3D coordinates assigned)
CC(C)(C)[Si](C)(C)O[C@@H]1CCN(c2ccc3cc(C([NH-])=O)n(C([NH-])=O)c3c2)C1 (nonaromatic ring conformer: 82.68020466312984 kcal/mol)

>  <smiles>  (17) 
CC(C)(C)[Si](C)(C)OC1CCN(c2ccc3cc(C(N)=O)n(C(N)=O)c3c2)C1

>  <score_type>  (17) 
oracle

>  <origin>  (17) 
adg

>  <m_score__min__energy>  (17) 
-8.8499999999999996

>  <m_primary>  (17) 
energy

$$$$
17:0
     RDKit          3D

 45 46  0  0  0  0  0  0  0  0999 V2000
  149.9230  151.1090  131.5390 C   0  0  0  0  0  0  0  0  0  0  0  0
  149.4200  151.8470  133.1260 S   0  0  0  0  0  0  0  0  0  0  0  0
  149.1500  153.5190  132.4400 C   0  0  0  0  0  0  0  0  0  0  0  0
  147.8860  154.1720  133.0180 C   0  0  0  0  0  0  0  0  0  0  0  0
  147.8050  155.6910  132.7420 C   0  0  2  0  0  0  0  0  0  0  0  0
  149.1460  156.2660  132.6290 N   0  0  0  0  0  0  0  0  0  0  0  0
  147.0290  156.4060  133.8250 C   0  0  0  0  0  0  0  0  0  0  0  0
  147.0250  155.9600  135.0050 O   0  0  0  0  0  0  0  0  0  0  0  0
  146.4130  157.6710  133.5490 N   0  0  0  0  0  0  0  0  0  0  0  0
  146.9970  158.8100  133.0890 C   0  0  0  0  0  0  0  0  0  0  0  0
  148.4220  158.9640  132.7350 C   0  0  0  0  0  0  0  0  0  0  0  0
  148.8620  158.6730  131.4070 N   0  0  0  0  0  0  0  0  0  0  0  0
  149.2600  159.3330  133.5960 O   0  0  0  0  0  0  0  0  0  0  0  0
  146.0460  159.8190  132.9470 C   0  0  0  0  0  0  0  0  0  0  0  0
  144.8500  159.2530  133.3390 C   0  0  0  0  0  0  0  0  0  0  0  0
  143.5750  159.8010  133.4090 C   0  0  0  0  0  0  0  0  0  0  0  0
  142.5290  158.9770  133.8570 C   0  0  0  0  0  0  0  0  0  0  0  0
  142.7780  157.6290  134.2240 C   0  0  0  0  0  0  0  0  0  0  0  0
  141.6510  156.7640  134.7150 C   0  0  0  0  0  0  0  0  0  0  0  0
  140.4800  157.6030  135.1180 C   0  0  0  0  0  0  0  0  0  0  0  0
  140.4240  158.0760  136.2850 O   0  0  0  0  0  0  0  0  0  0  0  0
  139.4570  157.8500  134.1960 O   0  0  0  0  0  0  0  0  0  0  0  0
  139.3000  157.0950  133.0030 C   0  0  0  0  0  0  0  0  0  0  0  0
  139.1420  157.9460  131.9220 F   0  0  0  0  0  0  0  0  0  0  0  0
  144.0900  157.1120  134.1530 C   0  0  0  0  0  0  0  0  0  0  0  0
  145.1050  157.9530  133.6920 C   0  0  0  0  0  0  0  0  0  0  0  0
  150.5333  150.2136  131.7281 H   0  0  0  0  0  0  0  0  0  0  0  0
  149.0276  150.8280  130.9651 H   0  0  0  0  0  0  0  0  0  0  0  0
  150.5119  151.8396  130.9651 H   0  0  0  0  0  0  0  0  0  0  0  0
  150.0191  154.1484  132.6820 H   0  0  0  0  0  0  0  0  0  0  0  0
  149.0215  153.4267  131.3514 H   0  0  0  0  0  0  0  0  0  0  0  0
  147.0060  153.6877  132.5696 H   0  0  0  0  0  0  0  0  0  0  0  0
  147.9192  154.0393  134.1095 H   0  0  0  0  0  0  0  0  0  0  0  0
  147.2737  155.8272  131.7885 H   0  0  0  0  0  0  0  0  0  0  0  0
  149.2120  157.1170  133.2340 H   0  0  0  0  0  0  0  0  0  0  0  0
  149.2980  156.5710  131.6390 H   0  0  0  0  0  0  0  0  0  0  0  0
  148.8280  157.6990  131.0360 H   0  0  0  0  0  0  0  0  0  0  0  0
  146.2133  160.8482  132.5967 H   0  0  0  0  0  0  0  0  0  0  0  0
  143.3905  160.8469  133.1227 H   0  0  0  0  0  0  0  0  0  0  0  0
  141.5078  159.3804  133.9239 H   0  0  0  0  0  0  0  0  0  0  0  0
  141.3449  156.0784  133.9111 H   0  0  0  0  0  0  0  0  0  0  0  0
  141.9968  156.1942  135.5901 H   0  0  0  0  0  0  0  0  0  0  0  0
  140.1916  156.4699  132.8474 H   0  0  0  0  0  0  0  0  0  0  0  0
  138.4086  156.4569  133.0939 H   0  0  0  0  0  0  0  0  0  0  0  0
  144.3065  156.0759  134.4524 H   0  0  0  0  0  0  0  0  0  0  0  0
  1  2  1  0
  2  3  1  0
  3  4  1  0
  4  5  1  0
  5  6  1  0
  5  7  1  0
  7  8  2  0
  7  9  1  0
  9 10  1  0
 10 11  1  0
 11 12  1  0
 11 13  2  0
 10 14  2  0
 14 15  1  0
 15 16  2  0
 16 17  1  0
 17 18  2  0
 18 19  1  0
 19 20  1  0
 20 21  2  0
 20 22  1  0
 22 23  1  0
 23 24  1  0
 18 25  1  0
 25 26  2  0
 26  9  1  0
 26 15  1  0
  1 27  1  0
  1 28  1  0
  1 29  1  0
  3 30  1  0
  3 31  1  0
  4 32  1  0
  4 33  1  0
  5 34  1  6
  6 35  1  0
  6 36  1  0
 12 37  1  0
 14 38  1  0
 16 39  1  0
 17 40  1  0
 19 41  1  0
 19 42  1  0
 23 43  1  0
 23 44  1  0
 25 45  1  0
M  CHG  1  12  -1
M  END
>  <UniqueID>  (18) 
18

>  <SMILES>  (18) 
CSCC[C@H](N)C(=O)n1c(C([NH-])=O)cc2ccc(CC(=O)OCF)cc21

>  <Energy>  (18) 
74.24799405643398

>  <Genealogy>  (18) 
CSCC[C@H](N)C(=O)n1c(C([NH-])=O)cc2ccc(CC(=O)OCF)cc21 (protonated)
CSCC[C@H](N)C(=O)n1c(C([NH-])=O)cc2ccc(CC(=O)OCF)cc21 (3D coordinates assigned)
CSCC[C@H](N)C(=O)n1c(C([NH-])=O)cc2ccc(CC(=O)OCF)cc21 (optimized conformer: 74.24799405643398 kcal/mol)

>  <smiles>  (18) 
CSCC[C@H](N)C(=O)n1c(C(N)=O)cc2ccc(CC(=O)OCF)cc21

>  <score_type>  (18) 
oracle

>  <origin>  (18) 
adg

>  <m_score__min__energy>  (18) 
-6.6600000000000001

>  <m_primary>  (18) 
energy

$$$$
18:0
     RDKit          3D

 29 31  0  0  0  0  0  0  0  0999 V2000
  141.4820  159.5550  135.8190 N   0  0  0  0  0  0  0  0  0  0  0  0
  142.0100  160.0940  134.6090 C   0  0  0  0  0  0  0  0  0  0  0  0
  141.3020  160.8800  133.9250 O   0  0  0  0  0  0  0  0  0  0  0  0
  143.3560  159.6920  134.1520 C   0  0  0  0  0  0  0  0  0  0  0  0
  143.7380  158.3660  133.9640 C   0  0  0  0  0  0  0  0  0  0  0  0
  145.0160  158.4220  133.4580 C   0  0  0  0  0  0  0  0  0  0  0  0
  145.8800  157.3950  133.0970 C   0  0  0  0  0  0  0  0  0  0  0  0
  147.1560  157.7400  132.6280 C   0  0  0  0  0  0  0  0  0  0  0  0
  147.5560  159.1030  132.5320 C   0  0  0  0  0  0  0  0  0  0  0  0
  148.9440  159.4860  132.0360 C   0  0  0  0  0  0  0  0  0  0  0  0
  149.9690  159.2240  132.9320 F   0  0  0  0  0  0  0  0  0  0  0  0
  149.2870  159.0290  130.6350 C   0  0  0  0  0  0  0  0  0  0  0  0
  149.3690  160.3510  130.1530 O   0  0  0  0  0  0  0  0  0  0  0  0
  149.0640  160.8670  131.4290 C   0  0  0  0  0  0  0  0  0  0  0  0
  146.6430  160.1160  132.9110 C   0  0  0  0  0  0  0  0  0  0  0  0
  145.3700  159.7420  133.3580 C   0  0  0  0  0  0  0  0  0  0  0  0
  144.3630  160.5360  133.7830 N   0  0  0  0  0  0  0  0  0  0  0  0
  144.3920  161.9700  133.8790 C   0  0  0  0  0  0  0  0  0  0  0  0
  143.4790  162.6620  133.3570 O   0  0  0  0  0  0  0  0  0  0  0  0
  145.4160  162.6060  134.5700 O   0  0  0  0  0  0  0  0  0  0  0  0
  140.5100  159.7780  136.1270 H   0  0  0  0  0  0  0  0  0  0  0  0
  143.1437  157.4648  134.1754 H   0  0  0  0  0  0  0  0  0  0  0  0
  145.5720  156.3420  133.1768 H   0  0  0  0  0  0  0  0  0  0  0  0
  147.8573  156.9466  132.3303 H   0  0  0  0  0  0  0  0  0  0  0  0
  150.2382  158.4800  130.5734 H   0  0  0  0  0  0  0  0  0  0  0  0
  148.6185  158.3176  130.1280 H   0  0  0  0  0  0  0  0  0  0  0  0
  149.8756  161.4684  131.8644 H   0  0  0  0  0  0  0  0  0  0  0  0
  148.2240  161.5696  131.5329 H   0  0  0  0  0  0  0  0  0  0  0  0
  146.9282  161.1769  132.8554 H   0  0  0  0  0  0  0  0  0  0  0  0
  1  2  1  0
  2  3  2  0
  2  4  1  0
  4  5  2  0
  5  6  1  0
  6  7  2  0
  7  8  1  0
  8  9  2  0
  9 10  1  0
 10 11  1  0
 10 12  1  0
 12 13  1  0
 13 14  1  0
  9 15  1  0
 15 16  2  0
 16 17  1  0
 17 18  1  0
 18 19  2  0
 18 20  1  0
 17  4  1  0
 16  6  1  0
 14 10  1  0
  1 21  1  0
  5 22  1  0
  7 23  1  0
  8 24  1  0
 12 25  1  0
 12 26  1  0
 14 27  1  0
 14 28  1  0
 15 29  1  0
M  CHG  2   1  -1  20  -1
M  END
>  <UniqueID>  (19) 
19

>  <SMILES>  (19) 
[NH-]C(=O)c1cc2ccc(C3(F)COC3)cc2n1C(=O)[O-]

>  <Energy>  (19) 
137.32712271045955

>  <Genealogy>  (19) 
[NH-]C(=O)c1cc2ccc(C3(F)COC3)cc2n1C(=O)[O-] (protonated)
[NH-]C(=O)c1cc2ccc(C3(F)COC3)cc2n1C(=O)[O-] (3D coordinates assigned)
[NH-]C(=O)c1cc2ccc(C3(F)COC3)cc2n1C(=O)[O-] (nonaromatic ring conformer: 137.32712271045955 kcal/mol)

>  <smiles>  (19) 
NC(=O)c1cc2ccc(C3(F)COC3)cc2n1C(=O)O

>  <score_type>  (19) 
oracle

>  <origin>  (19) 
adg

>  <m_score__min__energy>  (19) 
-6.2699999999999996

>  <m_primary>  (19) 
energy

$$$$
19:0
     RDKit          3D

 33 34  0  0  0  0  0  0  0  0999 V2000
  148.9630  161.3250  130.7700 C   0  0  0  0  0  0  0  0  0  0  0  0
  149.0410  160.0050  130.5900 C   0  0  0  0  0  0  0  0  0  0  0  0
  149.6140  159.0910  131.6370 C   0  0  0  0  0  0  0  0  0  0  0  0
  148.6350  158.1420  132.0490 O   0  0  0  0  0  0  0  0  0  0  0  0
  147.9610  158.2140  133.2730 C   0  0  0  0  0  0  0  0  0  0  0  0
  148.6070  158.3550  134.3470 O   0  0  0  0  0  0  0  0  0  0  0  0
  146.5270  158.1270  133.3060 N   0  0  0  0  0  0  0  0  0  0  0  0
  145.7630  157.0030  133.2100 C   0  0  0  0  0  0  0  0  0  0  0  0
  146.2540  155.6470  132.8890 C   0  0  0  0  0  0  0  0  0  0  0  0
  147.3690  155.4510  132.0170 N   0  0  0  0  0  0  0  0  0  0  0  0
  145.6480  154.6440  133.3510 O   0  0  0  0  0  0  0  0  0  0  0  0
  144.4180  157.3030  133.4050 C   0  0  0  0  0  0  0  0  0  0  0  0
  144.3770  158.6630  133.6110 C   0  0  0  0  0  0  0  0  0  0  0  0
  143.2910  159.4970  133.8620 C   0  0  0  0  0  0  0  0  0  0  0  0
  143.5440  160.8630  134.0700 C   0  0  0  0  0  0  0  0  0  0  0  0
  144.8690  161.3630  134.0440 C   0  0  0  0  0  0  0  0  0  0  0  0
  145.1220  162.8280  134.2440 C   0  0  0  0  0  0  0  0  0  0  0  0
  145.9450  160.4910  133.7740 C   0  0  0  0  0  0  0  0  0  0  0  0
  145.6630  159.1380  133.5490 C   0  0  0  0  0  0  0  0  0  0  0  0
  148.5375  161.9634  129.9817 H   0  0  0  0  0  0  0  0  0  0  0  0
  149.3242  161.7746  131.7067 H   0  0  0  0  0  0  0  0  0  0  0  0
  148.6750  159.5727  129.6471 H   0  0  0  0  0  0  0  0  0  0  0  0
  150.4824  158.5599  131.2201 H   0  0  0  0  0  0  0  0  0  0  0  0
  149.9227  159.6896  132.5067 H   0  0  0  0  0  0  0  0  0  0  0  0
  147.7830  156.2450  131.4810 H   0  0  0  0  0  0  0  0  0  0  0  0
  147.7290  154.4870  131.8370 H   0  0  0  0  0  0  0  0  0  0  0  0
  143.5695  156.6030  133.3963 H   0  0  0  0  0  0  0  0  0  0  0  0
  142.2663  159.0986  133.8964 H   0  0  0  0  0  0  0  0  0  0  0  0
  142.7055  161.5506  134.2548 H   0  0  0  0  0  0  0  0  0  0  0  0
  145.1603  163.0498  135.3207 H   0  0  0  0  0  0  0  0  0  0  0  0
  146.0806  163.1014  133.7790 H   0  0  0  0  0  0  0  0  0  0  0  0
  144.3106  163.4071  133.7790 H   0  0  0  0  0  0  0  0  0  0  0  0
  146.9791  160.8646  133.7411 H   0  0  0  0  0  0  0  0  0  0  0  0
  1  2  2  0
  2  3  1  0
  3  4  1  0
  4  5  1  0
  5  6  2  0
  5  7  1  0
  7  8  1  0
  8  9  1  0
  9 10  1  0
  9 11  2  0
  8 12  2  0
 12 13  1  0
 13 14  2  0
 14 15  1  0
 15 16  2  0
 16 17  1  0
 16 18  1  0
 18 19  2  0
 19  7  1  0
 19 13  1  0
  1 20  1  0
  1 21  1  0
  2 22  1  0
  3 23  1  0
  3 24  1  0
 10 25  1  0
 10 26  1  0
 12 27  1  0
 14 28  1  0
 15 29  1  0
 17 30  1  0
 17 31  1  0
 17 32  1  0
 18 33  1  0
M  END
>  <UniqueID>  (20) 
20

>  <SMILES>  (20) 
C=CCOC(=O)n1c(C(N)=O)cc2ccc(C)cc21

>  <Energy>  (20) 
68.28832490454941

>  <Genealogy>  (20) 
C=CCOC(=O)n1c(C(N)=O)cc2ccc(C)cc21 (3D coordinates assigned)
C=CCOC(=O)n1c(C(N)=O)cc2ccc(C)cc21 (optimized conformer: 68.28832490454941 kcal/mol)

>  <smiles>  (20) 
C=CCOC(=O)n1c(C(N)=O)cc2ccc(C)cc21

>  <score_type>  (20) 
oracle

>  <origin>  (20) 
adg

>  <m_score__min__energy>  (20) 
-6.5599999999999996

>  <m_primary>  (20) 
energy

$$$$
20:0
     RDKit          3D

 70 74  0  0  0  0  0  0  0  0999 V2000
  144.2250  151.1930  132.5830 C   0  0  0  0  0  0  0  0  0  0  0  0
  145.4500  151.9060  132.6980 O   0  0  0  0  0  0  0  0  0  0  0  0
  146.6720  151.3750  132.2740 C   0  0  0  0  0  0  0  0  0  0  0  0
  146.7540  150.1620  131.9400 O   0  0  0  0  0  0  0  0  0  0  0  0
  147.8390  152.2150  132.2360 N   0  0  0  0  0  0  0  0  0  0  0  0
  149.1360  151.8220  132.1040 C   0  0  0  0  0  0  0  0  0  0  0  0
  149.6000  150.4530  131.8000 C   0  0  0  0  0  0  0  0  0  0  0  0
  150.6960  150.2240  130.9160 N   0  0  0  0  0  0  0  0  0  0  0  0
  149.0600  149.4720  132.3780 O   0  0  0  0  0  0  0  0  0  0  0  0
  149.9970  152.9080  132.2270 C   0  0  0  0  0  0  0  0  0  0  0  0
  149.1800  153.9960  132.4270 C   0  0  0  0  0  0  0  0  0  0  0  0
  149.5080  155.3350  132.6210 C   0  0  0  0  0  0  0  0  0  0  0  0
  148.4610  156.2440  132.8440 C   0  0  0  0  0  0  0  0  0  0  0  0
  147.1120  155.8030  132.8800 C   0  0  0  0  0  0  0  0  0  0  0  0
  146.0140  156.7670  133.1380 C   0  0  0  0  0  0  0  0  0  0  0  0
  144.6840  156.3310  133.2140 C   0  0  0  0  0  0  0  0  0  0  0  0
  143.6510  157.2320  133.4760 C   0  0  0  0  0  0  0  0  0  0  0  0
  143.9230  158.6010  133.6830 C   0  0  0  0  0  0  0  0  0  0  0  0
  142.8980  159.5340  133.9780 C   0  0  0  0  0  0  0  0  0  0  0  0
  141.4980  159.1230  134.2440 C   0  0  0  0  0  0  0  0  0  0  0  0
  140.7140  158.5340  133.3230 N   0  0  0  0  0  0  0  0  0  0  0  0
  139.5800  158.2460  133.9960 C   0  0  0  0  0  0  0  0  0  0  0  0
  138.4360  157.5790  133.3720 C   0  0  0  0  0  0  0  0  0  0  0  0
  137.5080  158.2640  132.8620 O   0  0  0  0  0  0  0  0  0  0  0  0
  138.3840  156.1500  133.3400 N   0  0  0  0  0  0  0  0  0  0  0  0
  139.5120  155.3180  132.9360 C   0  0  0  0  0  0  0  0  0  0  0  0
  140.6640  155.4630  133.9350 C   0  0  0  0  0  0  0  0  0  0  0  0
  141.6820  154.3040  133.8620 C   0  0  0  0  0  0  0  0  0  0  0  0
  142.2920  154.0290  135.1810 N   0  0  0  0  0  0  0  0  0  0  0  0
  143.7290  153.7480  135.0180 C   0  0  0  0  0  0  0  0  0  0  0  0
  142.1190  155.1730  136.0940 C   0  0  0  0  0  0  0  0  0  0  0  0
  139.6050  158.6140  135.2940 N   0  0  0  0  0  0  0  0  0  0  0  0
  140.8170  159.1770  135.4460 C   0  0  0  0  0  0  0  0  0  0  0  0
  141.3070  159.7350  136.7430 C   0  0  0  0  0  0  0  0  0  0  0  0
  143.2400  160.8890  134.1110 C   0  0  0  0  0  0  0  0  0  0  0  0
  144.5270  161.2940  133.9780 N   0  0  0  0  0  0  0  0  0  0  0  0
  145.5360  160.4270  133.7180 C   0  0  0  0  0  0  0  0  0  0  0  0
  146.7120  160.8690  133.6170 O   0  0  0  0  0  0  0  0  0  0  0  0
  145.2630  159.0540  133.5680 C   0  0  0  0  0  0  0  0  0  0  0  0
  146.2940  158.1320  133.3080 C   0  0  0  0  0  0  0  0  0  0  0  0
  146.8220  154.4330  132.6760 C   0  0  0  0  0  0  0  0  0  0  0  0
  147.8820  153.5540  132.4330 C   0  0  0  0  0  0  0  0  0  0  0  0
  143.8367  150.9670  133.5870 H   0  0  0  0  0  0  0  0  0  0  0  0
  143.4936  151.8065  132.0365 H   0  0  0  0  0  0  0  0  0  0  0  0
  144.3972  150.2540  132.0365 H   0  0  0  0  0  0  0  0  0  0  0  0
  151.2740  151.0150  130.5520 H   0  0  0  0  0  0  0  0  0  0  0  0
  150.9850  149.2450  130.6870 H   0  0  0  0  0  0  0  0  0  0  0  0
  151.0957  152.8984  132.1753 H   0  0  0  0  0  0  0  0  0  0  0  0
  150.5553  155.6708  132.6003 H   0  0  0  0  0  0  0  0  0  0  0  0
  148.6887  157.3099  132.9925 H   0  0  0  0  0  0  0  0  0  0  0  0
  144.4518  155.2661  133.0654 H   0  0  0  0  0  0  0  0  0  0  0  0
  142.6130  156.8709  133.5217 H   0  0  0  0  0  0  0  0  0  0  0  0
  139.1926  154.2660  132.9006 H   0  0  0  0  0  0  0  0  0  0  0  0
  139.8570  155.6407  131.9426 H   0  0  0  0  0  0  0  0  0  0  0  0
  141.1915  156.4054  133.7260 H   0  0  0  0  0  0  0  0  0  0  0  0
  140.2255  155.4499  134.9437 H   0  0  0  0  0  0  0  0  0  0  0  0
  141.1662  153.3978  133.5117 H   0  0  0  0  0  0  0  0  0  0  0  0
  142.4836  154.5944  133.1669 H   0  0  0  0  0  0  0  0  0  0  0  0
  144.1992  153.6560  136.0082 H   0  0  0  0  0  0  0  0  0  0  0  0
  143.8580  152.8076  134.4621 H   0  0  0  0  0  0  0  0  0  0  0  0
  144.2027  154.5705  134.4621 H   0  0  0  0  0  0  0  0  0  0  0  0
  142.1720  154.8224  137.1353 H   0  0  0  0  0  0  0  0  0  0  0  0
  142.9160  155.9095  135.9141 H   0  0  0  0  0  0  0  0  0  0  0  0
  141.1399  155.6409  135.9141 H   0  0  0  0  0  0  0  0  0  0  0  0
  140.8334  159.1956  137.5765 H   0  0  0  0  0  0  0  0  0  0  0  0
  142.3990  159.6174  136.8035 H   0  0  0  0  0  0  0  0  0  0  0  0
  141.0493  160.8027  136.8035 H   0  0  0  0  0  0  0  0  0  0  0  0
  142.4556  161.6298  134.3253 H   0  0  0  0  0  0  0  0  0  0  0  0
  147.3332  158.4857  133.2370 H   0  0  0  0  0  0  0  0  0  0  0  0
  145.7850  154.0674  132.7079 H   0  0  0  0  0  0  0  0  0  0  0  0
  1  2  1  0
  2  3  1  0
  3  4  2  0
  3  5  1  0
  5  6  1  0
  6  7  1  0
  7  8  1  0
  7  9  2  0
  6 10  2  0
 10 11  1  0
 11 12  2  0
 12 13  1  0
 13 14  2  0
 14 15  1  0
 15 16  2  0
 16 17  1  0
 17 18  2  0
 18 19  1  0
 19 20  1  0
 20 21  1  0
 21 22  2  0
 22 23  1  0
 23 24  2  0
 23 25  1  0
 25 26  1  0
 26 27  1  0
 27 28  1  0
 28 29  1  0
 29 30  1  0
 29 31  1  0
 22 32  1  0
 32 33  1  0
 33 34  1  0
 19 35  2  0
 35 36  1  0
 36 37  1  0
 37 38  2  0
 37 39  1  0
 39 40  2  0
 14 41  1  0
 41 42  2  0
 42  5  1  0
 42 11  1  0
 40 15  1  0
 39 18  1  0
 33 20  2  0
  1 43  1  0
  1 44  1  0
  1 45  1  0
  8 46  1  0
  8 47  1  0
 10 48  1  0
 12 49  1  0
 13 50  1  0
 16 51  1  0
 17 52  1  0
 26 53  1  0
 26 54  1  0
 27 55  1  0
 27 56  1  0
 28 57  1  0
 28 58  1  0
 30 59  1  0
 30 60  1  0
 30 61  1  0
 31 62  1  0
 31 63  1  0
 31 64  1  0
 34 65  1  0
 34 66  1  0
 34 67  1  0
 35 68  1  0
 40 69  1  0
 41 70  1  0
M  CHG  3  25  -1  32  -1  36  -1
M  END
>  <UniqueID>  (21) 
21

>  <SMILES>  (21) 
COC(=O)n1c(C(N)=O)cc2ccc(-c3ccc4c(-c5nc(C(=O)[N-]CCCN(C)C)[n-]c5C)c[n-]c(=O)c4c3)cc21

>  <Energy>  (21) 
154.58843144954653

>  <Genealogy>  (21) 
COC(=O)n1c(C(N)=O)cc2ccc(-c3ccc4c(-c5nc(C(=O)[N-]CCCN(C)C)[n-]c5C)c[n-]c(=O)c4c3)cc21 (protonated)
COC(=O)n1c(C(N)=O)cc2ccc(-c3ccc4c(-c5nc(C(=O)[N-]CCCN(C)C)[n-]c5C)c[n-]c(=O)c4c3)cc21 (3D coordinates assigned)
COC(=O)n1c(C(N)=O)cc2ccc(-c3ccc4c(-c5nc(C(=O)[N-]CCCN(C)C)[n-]c5C)c[n-]c(=O)c4c3)cc21 (optimized conformer: 154.58843144954653 kcal/mol)

>  <smiles>  (21) 
COC(=O)n1c(C(N)=O)cc2ccc(-c3ccc4c(-c5nc(C(=O)NCCCN(C)C)[nH]c5C)c[nH]c(=O)c4c3)cc21

>  <score_type>  (21) 
oracle

>  <origin>  (21) 
adg

>  <m_score__min__energy>  (21) 
-10.31

>  <m_primary>  (21) 
energy

$$$$
21:0
     RDKit          3D

 38 40  0  0  0  0  0  0  0  0999 V2000
  147.7210  156.0580  135.2110 C   0  0  0  0  0  0  0  0  0  0  0  0
  146.8830  155.8780  134.1910 C   0  0  0  0  0  0  0  0  0  0  0  0
  146.9220  156.7150  132.9770 C   0  0  0  0  0  0  0  0  0  0  0  0
  147.1450  156.1940  131.8500 O   0  0  0  0  0  0  0  0  0  0  0  0
  146.6530  158.1230  133.0640 N   0  0  0  0  0  0  0  0  0  0  0  0
  147.5190  159.1580  132.8730 C   0  0  0  0  0  0  0  0  0  0  0  0
  148.9130  159.0440  132.3970 C   0  0  0  0  0  0  0  0  0  0  0  0
  149.4860  157.7580  132.1760 N   0  0  0  0  0  0  0  0  0  0  0  0
  149.6160  160.0730  132.2120 O   0  0  0  0  0  0  0  0  0  0  0  0
  146.8820  160.3750  133.1110 C   0  0  0  0  0  0  0  0  0  0  0  0
  145.5870  160.0500  133.4450 C   0  0  0  0  0  0  0  0  0  0  0  0
  144.5150  160.8710  133.7810 C   0  0  0  0  0  0  0  0  0  0  0  0
  143.2900  160.2570  134.0970 C   0  0  0  0  0  0  0  0  0  0  0  0
  143.1610  158.8450  134.0810 C   0  0  0  0  0  0  0  0  0  0  0  0
  141.8990  158.2320  134.4040 N   0  0  0  0  0  0  0  0  0  0  0  0
  141.4940  158.0630  135.8070 C   0  0  0  0  0  0  0  0  0  0  0  0
  139.9650  158.2250  135.9760 C   0  0  0  0  0  0  0  0  0  0  0  0
  139.2620  158.3290  134.7500 O   0  0  0  0  0  0  0  0  0  0  0  0
  139.6800  157.3130  133.8640 C   0  0  0  0  0  0  0  0  0  0  0  0
  141.0790  157.6420  133.3400 C   0  0  0  0  0  0  0  0  0  0  0  0
  144.2730  158.0470  133.7270 C   0  0  0  0  0  0  0  0  0  0  0  0
  145.4740  158.6850  133.4060 C   0  0  0  0  0  0  0  0  0  0  0  0
  147.6559  155.4097  136.0973 H   0  0  0  0  0  0  0  0  0  0  0  0
  148.4780  156.8549  135.1668 H   0  0  0  0  0  0  0  0  0  0  0  0
  146.1339  155.0751  134.2566 H   0  0  0  0  0  0  0  0  0  0  0  0
  149.0780  157.1010  131.4730 H   0  0  0  0  0  0  0  0  0  0  0  0
  147.3212  161.3814  133.0457 H   0  0  0  0  0  0  0  0  0  0  0  0
  144.6224  161.9656  133.7989 H   0  0  0  0  0  0  0  0  0  0  0  0
  142.4218  160.8793  134.3596 H   0  0  0  0  0  0  0  0  0  0  0  0
  141.7871  157.0583  136.1457 H   0  0  0  0  0  0  0  0  0  0  0  0
  141.9929  158.8381  136.4073 H   0  0  0  0  0  0  0  0  0  0  0  0
  139.5819  157.3506  136.5224 H   0  0  0  0  0  0  0  0  0  0  0  0
  139.8008  159.1667  136.5204 H   0  0  0  0  0  0  0  0  0  0  0  0
  139.7037  156.3498  134.3947 H   0  0  0  0  0  0  0  0  0  0  0  0
  138.9769  157.2479  133.0206 H   0  0  0  0  0  0  0  0  0  0  0  0
  141.5585  156.7187  132.9829 H   0  0  0  0  0  0  0  0  0  0  0  0
  140.9900  158.3653  132.5160 H   0  0  0  0  0  0  0  0  0  0  0  0
  144.1946  156.9500  133.7048 H   0  0  0  0  0  0  0  0  0  0  0  0
  1  2  2  0
  2  3  1  0
  3  4  2  0
  3  5  1  0
  5  6  1  0
  6  7  1  0
  7  8  1  0
  7  9  2  0
  6 10  2  0
 10 11  1  0
 11 12  2  0
 12 13  1  0
 13 14  2  0
 14 15  1  0
 15 16  1  0
 16 17  1  0
 17 18  1  0
 18 19  1  0
 19 20  1  0
 14 21  1  0
 21 22  2  0
 22  5  1  0
 22 11  1  0
 20 15  1  0
  1 23  1  0
  1 24  1  0
  2 25  1  0
  8 26  1  0
 10 27  1  0
 12 28  1  0
 13 29  1  0
 16 30  1  0
 16 31  1  0
 17 32  1  0
 17 33  1  0
 19 34  1  0
 19 35  1  0
 20 36  1  0
 20 37  1  0
 21 38  1  0
M  CHG  1   8  -1
M  END
>  <UniqueID>  (22) 
22

>  <SMILES>  (22) 
C=CC(=O)n1c(C([NH-])=O)cc2ccc(N3CCOCC3)cc21

>  <Energy>  (22) 
88.29482251550681

>  <Genealogy>  (22) 
C=CC(=O)n1c(C([NH-])=O)cc2ccc(N3CCOCC3)cc21 (protonated)
C=CC(=O)n1c(C([NH-])=O)cc2ccc(N3CCOCC3)cc21 (3D coordinates assigned)
C=CC(=O)n1c(C([NH-])=O)cc2ccc(N3CCOCC3)cc21 (nonaromatic ring conformer: 88.29482251550681 kcal/mol)

>  <smiles>  (22) 
C=CC(=O)n1c(C(N)=O)cc2ccc(N3CCOCC3)cc21

>  <score_type>  (22) 
oracle

>  <origin>  (22) 
adg

>  <m_score__min__energy>  (22) 
-6.9500000000000002

>  <m_primary>  (22) 
energy

$$$$
22:0
     RDKit          3D

 29 30  0  0  0  0  0  0  0  0999 V2000
  149.4350  159.7340  131.1890 C   0  0  0  0  0  0  0  0  0  0  0  0
  148.1770  159.2920  131.6830 O   0  0  0  0  0  0  0  0  0  0  0  0
  148.0260  158.7000  132.9410 C   0  0  0  0  0  0  0  0  0  0  0  0
  148.8100  159.0020  133.8820 O   0  0  0  0  0  0  0  0  0  0  0  0
  146.9760  157.7440  133.1580 N   0  0  0  0  0  0  0  0  0  0  0  0
  145.6500  158.0030  133.3370 C   0  0  0  0  0  0  0  0  0  0  0  0
  145.0460  159.3400  133.5150 C   0  0  0  0  0  0  0  0  0  0  0  0
  145.5800  160.4860  132.8520 N   0  0  0  0  0  0  0  0  0  0  0  0
  144.0780  159.4800  134.3090 O   0  0  0  0  0  0  0  0  0  0  0  0
  144.9170  156.8210  133.3810 C   0  0  0  0  0  0  0  0  0  0  0  0
  145.8450  155.8140  133.2370 C   0  0  0  0  0  0  0  0  0  0  0  0
  145.6640  154.4370  133.1820 C   0  0  0  0  0  0  0  0  0  0  0  0
  146.7960  153.6310  132.9790 C   0  0  0  0  0  0  0  0  0  0  0  0
  148.0840  154.2110  132.8420 C   0  0  0  0  0  0  0  0  0  0  0  0
  149.2810  153.3380  132.5590 C   0  0  0  0  0  0  0  0  0  0  0  0
  149.5690  152.5830  133.6800 F   0  0  0  0  0  0  0  0  0  0  0  0
  150.3840  154.1090  132.2390 F   0  0  0  0  0  0  0  0  0  0  0  0
  149.0240  152.4890  131.4950 F   0  0  0  0  0  0  0  0  0  0  0  0
  148.2210  155.6170  132.8770 C   0  0  0  0  0  0  0  0  0  0  0  0
  147.0790  156.3950  133.1030 C   0  0  0  0  0  0  0  0  0  0  0  0
  150.0993  159.9674  132.0341 H   0  0  0  0  0  0  0  0  0  0  0  0
  149.8871  158.9409  130.5754 H   0  0  0  0  0  0  0  0  0  0  0  0
  149.2917  160.6356  130.5754 H   0  0  0  0  0  0  0  0  0  0  0  0
  146.4760  160.4340  132.3210 H   0  0  0  0  0  0  0  0  0  0  0  0
  145.1160  161.4160  132.9580 H   0  0  0  0  0  0  0  0  0  0  0  0
  143.8292  156.7140  133.5044 H   0  0  0  0  0  0  0  0  0  0  0  0
  144.6643  153.9920  133.2941 H   0  0  0  0  0  0  0  0  0  0  0  0
  146.6831  152.5381  132.9256 H   0  0  0  0  0  0  0  0  0  0  0  0
  149.2032  156.0899  132.7299 H   0  0  0  0  0  0  0  0  0  0  0  0
  1  2  1  0
  2  3  1  0
  3  4  2  0
  3  5  1  0
  5  6  1  0
  6  7  1  0
  7  8  1  0
  7  9  2  0
  6 10  2  0
 10 11  1  0
 11 12  2  0
 12 13  1  0
 13 14  2  0
 14 15  1  0
 15 16  1  0
 15 17  1  0
 15 18  1  0
 14 19  1  0
 19 20  2  0
 20  5  1  0
 20 11  1  0
  1 21  1  0
  1 22  1  0
  1 23  1  0
  8 24  1  0
  8 25  1  0
 10 26  1  0
 12 27  1  0
 13 28  1  0
 19 29  1  0
M  END
>  <UniqueID>  (23) 
23

>  <SMILES>  (23) 
COC(=O)n1c(C(N)=O)cc2ccc(C(F)(F)F)cc21

>  <Energy>  (23) 
67.25906852469156

>  <Genealogy>  (23) 
COC(=O)n1c(C(N)=O)cc2ccc(C(F)(F)F)cc21 (3D coordinates assigned)
COC(=O)n1c(C(N)=O)cc2ccc(C(F)(F)F)cc21 (optimized conformer: 67.25906852469156 kcal/mol)

>  <smiles>  (23) 
COC(=O)n1c(C(N)=O)cc2ccc(C(F)(F)F)cc21

>  <score_type>  (23) 
oracle

>  <origin>  (23) 
adg

>  <m_score__min__energy>  (23) 
-5.5700000000000003

>  <m_primary>  (23) 
energy

$$$$
23:0
     RDKit          3D

 28 29  0  0  0  0  0  0  0  0999 V2000
  143.5980  155.6210  134.8820 C   0  0  0  0  0  0  0  0  0  0  0  0
  143.4280  157.0640  134.8020 N   0  0  0  0  0  0  0  0  0  0  0  0
  143.7310  157.8150  133.6230 C   0  0  0  0  0  0  0  0  0  0  0  0
  142.9010  157.8650  132.6760 O   0  0  0  0  0  0  0  0  0  0  0  0
  144.9890  158.5000  133.5120 N   0  0  0  0  0  0  0  0  0  0  0  0
  145.2060  159.8470  133.4960 C   0  0  0  0  0  0  0  0  0  0  0  0
  144.1880  160.8940  133.7210 C   0  0  0  0  0  0  0  0  0  0  0  0
  142.8240  160.6370  133.3970 N   0  0  0  0  0  0  0  0  0  0  0  0
  144.5140  162.0250  134.1680 O   0  0  0  0  0  0  0  0  0  0  0  0
  146.5610  160.1190  133.3130 C   0  0  0  0  0  0  0  0  0  0  0  0
  147.1720  158.8890  133.2200 C   0  0  0  0  0  0  0  0  0  0  0  0
  148.5120  158.5690  133.0350 C   0  0  0  0  0  0  0  0  0  0  0  0
  148.8600  157.2100  132.9560 C   0  0  0  0  0  0  0  0  0  0  0  0
  147.8650  156.2010  133.0360 C   0  0  0  0  0  0  0  0  0  0  0  0
  148.2550  154.7440  132.9870 C   0  0  0  0  0  0  0  0  0  0  0  0
  149.4180  154.5750  132.2550 F   0  0  0  0  0  0  0  0  0  0  0  0
  148.4620  154.2850  134.2740 F   0  0  0  0  0  0  0  0  0  0  0  0
  147.2570  153.9920  132.3940 F   0  0  0  0  0  0  0  0  0  0  0  0
  146.5160  156.5690  133.2480 C   0  0  0  0  0  0  0  0  0  0  0  0
  146.2020  157.9290  133.3430 C   0  0  0  0  0  0  0  0  0  0  0  0
  143.6342  155.3140  135.9377 H   0  0  0  0  0  0  0  0  0  0  0  0
  142.7522  155.1240  134.3844 H   0  0  0  0  0  0  0  0  0  0  0  0
  144.5362  155.3342  134.3844 H   0  0  0  0  0  0  0  0  0  0  0  0
  142.5710  160.0130  132.5980 H   0  0  0  0  0  0  0  0  0  0  0  0
  147.0404  161.1073  133.2552 H   0  0  0  0  0  0  0  0  0  0  0  0
  149.2765  159.3556  132.9530 H   0  0  0  0  0  0  0  0  0  0  0  0
  149.9150  156.9250  132.8308 H   0  0  0  0  0  0  0  0  0  0  0  0
  145.7313  155.8031  133.3362 H   0  0  0  0  0  0  0  0  0  0  0  0
  1  2  1  0
  2  3  1  0
  3  4  2  0
  3  5  1  0
  5  6  1  0
  6  7  1  0
  7  8  1  0
  7  9  2  0
  6 10  2  0
 10 11  1  0
 11 12  2  0
 12 13  1  0
 13 14  2  0
 14 15  1  0
 15 16  1  0
 15 17  1  0
 15 18  1  0
 14 19  1  0
 19 20  2  0
 20  5  1  0
 20 11  1  0
  1 21  1  0
  1 22  1  0
  1 23  1  0
  8 24  1  0
 10 25  1  0
 12 26  1  0
 13 27  1  0
 19 28  1  0
M  CHG  2   2  -1   8  -1
M  END
>  <UniqueID>  (24) 
24

>  <SMILES>  (24) 
C[N-]C(=O)n1c(C([NH-])=O)cc2ccc(C(F)(F)F)cc21

>  <Energy>  (24) 
65.66911755647386

>  <Genealogy>  (24) 
C[N-]C(=O)n1c(C([NH-])=O)cc2ccc(C(F)(F)F)cc21 (protonated)
C[N-]C(=O)n1c(C([NH-])=O)cc2ccc(C(F)(F)F)cc21 (3D coordinates assigned)
C[N-]C(=O)n1c(C([NH-])=O)cc2ccc(C(F)(F)F)cc21 (optimized conformer: 65.66911755647386 kcal/mol)

>  <smiles>  (24) 
CNC(=O)n1c(C(N)=O)cc2ccc(C(F)(F)F)cc21

>  <score_type>  (24) 
oracle

>  <origin>  (24) 
adg

>  <m_score__min__energy>  (24) 
-5.5

>  <m_primary>  (24) 
energy

$$$$
24:0
     RDKit          3D

 38 39  0  0  0  0  0  0  0  0999 V2000
  141.6670  155.8580  136.0040 C   0  0  0  0  0  0  0  0  0  0  0  0
  140.7320  156.9550  135.7370 N   0  0  0  0  0  0  0  0  0  0  0  0
  140.2530  157.7740  136.8640 C   0  0  0  0  0  0  0  0  0  0  0  0
  141.2020  158.9430  137.1380 C   0  0  0  0  0  0  0  0  0  0  0  0
  141.5480  158.9900  138.4750 F   0  0  0  0  0  0  0  0  0  0  0  0
  140.6050  160.1380  136.7790 F   0  0  0  0  0  0  0  0  0  0  0  0
  140.3360  157.2140  134.3680 C   0  0  0  0  0  0  0  0  0  0  0  0
  139.8790  156.2650  133.6710 O   0  0  0  0  0  0  0  0  0  0  0  0
  140.3870  158.6030  133.7730 C   0  0  0  0  0  0  0  0  0  0  0  0
  141.7830  159.1720  133.7680 C   0  0  0  0  0  0  0  0  0  0  0  0
  141.9820  160.5730  133.7570 C   0  0  0  0  0  0  0  0  0  0  0  0
  143.2800  161.1110  133.7340 C   0  0  0  0  0  0  0  0  0  0  0  0
  144.3530  160.2260  133.7020 C   0  0  0  0  0  0  0  0  0  0  0  0
  145.7050  160.4770  133.7060 C   0  0  0  0  0  0  0  0  0  0  0  0
  146.3110  159.2250  133.6730 C   0  0  0  0  0  0  0  0  0  0  0  0
  147.7740  159.0340  133.6050 C   0  0  0  0  0  0  0  0  0  0  0  0
  148.4160  157.9800  134.3240 N   0  0  0  0  0  0  0  0  0  0  0  0
  148.4610  159.7780  132.8550 O   0  0  0  0  0  0  0  0  0  0  0  0
  145.3740  158.2350  133.6660 N   0  0  0  0  0  0  0  0  0  0  0  0
  145.6010  156.8170  133.7480 C   0  0  0  0  0  0  0  0  0  0  0  0
  145.1040  156.0430  132.8880 O   0  0  0  0  0  0  0  0  0  0  0  0
  146.3720  156.2850  134.7750 O   0  0  0  0  0  0  0  0  0  0  0  0
  144.1780  158.8650  133.6810 C   0  0  0  0  0  0  0  0  0  0  0  0
  142.8960  158.3020  133.7260 C   0  0  0  0  0  0  0  0  0  0  0  0
  141.7783  155.7274  137.0905 H   0  0  0  0  0  0  0  0  0  0  0  0
  141.2786  154.9291  135.5609 H   0  0  0  0  0  0  0  0  0  0  0  0
  142.6457  156.0943  135.5609 H   0  0  0  0  0  0  0  0  0  0  0  0
  139.2557  158.1700  136.6220 H   0  0  0  0  0  0  0  0  0  0  0  0
  140.2100  157.1409  137.7625 H   0  0  0  0  0  0  0  0  0  0  0  0
  142.1112  158.7908  136.5378 H   0  0  0  0  0  0  0  0  0  0  0  0
  140.0196  158.5579  132.7371 H   0  0  0  0  0  0  0  0  0  0  0  0
  139.7585  159.2585  134.3938 H   0  0  0  0  0  0  0  0  0  0  0  0
  141.1127  161.2470  133.7666 H   0  0  0  0  0  0  0  0  0  0  0  0
  143.4427  162.1989  133.7411 H   0  0  0  0  0  0  0  0  0  0  0  0
  146.2015  161.4583  133.7301 H   0  0  0  0  0  0  0  0  0  0  0  0
  149.4550  157.8820  134.2930 H   0  0  0  0  0  0  0  0  0  0  0  0
  147.8600  157.2460  134.8150 H   0  0  0  0  0  0  0  0  0  0  0  0
  142.7591  157.2106  133.7286 H   0  0  0  0  0  0  0  0  0  0  0  0
  1  2  1  0
  2  3  1  0
  3  4  1  0
  4  5  1  0
  4  6  1  0
  2  7  1  0
  7  8  2  0
  7  9  1  0
  9 10  1  0
 10 11  2  0
 11 12  1  0
 12 13  2  0
 13 14  1  0
 14 15  2  0
 15 16  1  0
 16 17  1  0
 16 18  2  0
 15 19  1  0
 19 20  1  0
 20 21  2  0
 20 22  1  0
 19 23  1  0
 23 24  2  0
 24 10  1  0
 23 13  1  0
  1 25  1  0
  1 26  1  0
  1 27  1  0
  3 28  1  0
  3 29  1  0
  4 30  1  0
  9 31  1  0
  9 32  1  0
 11 33  1  0
 12 34  1  0
 14 35  1  0
 17 36  1  0
 17 37  1  0
 24 38  1  0
M  CHG  1  22  -1
M  END
>  <UniqueID>  (25) 
25

>  <SMILES>  (25) 
CN(CC(F)F)C(=O)Cc1ccc2cc(C(N)=O)n(C(=O)[O-])c2c1

>  <Energy>  (25) 
75.20061857625744

>  <Genealogy>  (25) 
CN(CC(F)F)C(=O)Cc1ccc2cc(C(N)=O)n(C(=O)[O-])c2c1 (protonated)
CN(CC(F)F)C(=O)Cc1ccc2cc(C(N)=O)n(C(=O)[O-])c2c1 (3D coordinates assigned)
CN(CC(F)F)C(=O)Cc1ccc2cc(C(N)=O)n(C(=O)[O-])c2c1 (optimized conformer: 75.20061857625744 kcal/mol)

>  <smiles>  (25) 
CN(CC(F)F)C(=O)Cc1ccc2cc(C(N)=O)n(C(=O)O)c2c1

>  <score_type>  (25) 
oracle

>  <origin>  (25) 
adg

>  <m_score__min__energy>  (25) 
-6.4800000000000004

>  <m_primary>  (25) 
energy

$$$$
25:0
     RDKit          3D

 29 30  0  0  0  0  0  0  0  0999 V2000
  146.2800  152.9090  133.3460 N   0  0  0  0  0  0  0  0  0  0  0  0
  146.5690  153.9680  134.2590 C   0  0  0  0  0  0  0  0  0  0  0  0
  146.4870  153.7540  135.4980 O   0  0  0  0  0  0  0  0  0  0  0  0
  147.0270  155.2860  133.7800 C   0  0  0  0  0  0  0  0  0  0  0  0
  146.3470  156.4730  134.0410 C   0  0  0  0  0  0  0  0  0  0  0  0
  147.1230  157.4640  133.4880 C   0  0  0  0  0  0  0  0  0  0  0  0
  146.9120  158.8400  133.4370 C   0  0  0  0  0  0  0  0  0  0  0  0
  147.8600  159.6270  132.7640 C   0  0  0  0  0  0  0  0  0  0  0  0
  148.9920  159.0310  132.1560 C   0  0  0  0  0  0  0  0  0  0  0  0
  149.9780  159.8810  131.3970 C   0  0  0  0  0  0  0  0  0  0  0  0
  149.2950  160.6370  130.2530 C   0  0  0  0  0  0  0  0  0  0  0  0
  148.9400  161.9330  130.6500 O   0  0  0  0  0  0  0  0  0  0  0  0
  149.1680  157.6310  132.2180 C   0  0  0  0  0  0  0  0  0  0  0  0
  148.2190  156.8710  132.9140 C   0  0  0  0  0  0  0  0  0  0  0  0
  148.1710  155.5300  133.0810 N   0  0  0  0  0  0  0  0  0  0  0  0
  149.0730  154.5580  132.5230 C   0  0  0  0  0  0  0  0  0  0  0  0
  150.2650  154.8680  132.2620 O   0  0  0  0  0  0  0  0  0  0  0  0
  148.6350  153.2660  132.2580 O   0  0  0  0  0  0  0  0  0  0  0  0
  146.4940  153.0000  132.3290 H   0  0  0  0  0  0  0  0  0  0  0  0
  145.9220  151.9940  133.7010 H   0  0  0  0  0  0  0  0  0  0  0  0
  145.3929  156.5922  134.5754 H   0  0  0  0  0  0  0  0  0  0  0  0
  146.0296  159.2960  133.9096 H   0  0  0  0  0  0  0  0  0  0  0  0
  147.7223  160.7169  132.7083 H   0  0  0  0  0  0  0  0  0  0  0  0
  150.4305  160.6081  132.0874 H   0  0  0  0  0  0  0  0  0  0  0  0
  150.7470  159.2219  130.9678 H   0  0  0  0  0  0  0  0  0  0  0  0
  149.9860  160.6987  129.3993 H   0  0  0  0  0  0  0  0  0  0  0  0
  148.3811  160.0941  129.9701 H   0  0  0  0  0  0  0  0  0  0  0  0
  148.2830  162.2650  129.9840 H   0  0  0  0  0  0  0  0  0  0  0  0
  150.0291  157.1492  131.7317 H   0  0  0  0  0  0  0  0  0  0  0  0
  1  2  1  0
  2  3  2  0
  2  4  1  0
  4  5  2  0
  5  6  1  0
  6  7  2  0
  7  8  1  0
  8  9  2  0
  9 10  1  0
 10 11  1  0
 11 12  1  0
  9 13  1  0
 13 14  2  0
 14 15  1  0
 15 16  1  0
 16 17  2  0
 16 18  1  0
 15  4  1  0
 14  6  1  0
  1 19  1  0
  1 20  1  0
  5 21  1  0
  7 22  1  0
  8 23  1  0
 10 24  1  0
 10 25  1  0
 11 26  1  0
 11 27  1  0
 12 28  1  0
 13 29  1  0
M  CHG  1  18  -1
M  END
>  <UniqueID>  (26) 
26

>  <SMILES>  (26) 
NC(=O)c1cc2ccc(CCO)cc2n1C(=O)[O-]

>  <Energy>  (26) 
66.60154099876586

>  <Genealogy>  (26) 
NC(=O)c1cc2ccc(CCO)cc2n1C(=O)[O-] (protonated)
NC(=O)c1cc2ccc(CCO)cc2n1C(=O)[O-] (3D coordinates assigned)
NC(=O)c1cc2ccc(CCO)cc2n1C(=O)[O-] (optimized conformer: 66.60154099876586 kcal/mol)

>  <smiles>  (26) 
NC(=O)c1cc2ccc(CCO)cc2n1C(=O)O

>  <score_type>  (26) 
oracle

>  <origin>  (26) 
adg

>  <m_score__min__energy>  (26) 
-6.0099999999999998

>  <m_primary>  (26) 
energy

$$$$
26:0
     RDKit          3D

 34 36  0  0  0  0  0  0  0  0999 V2000
  138.7270  156.9920  133.3380 N   0  0  0  0  0  0  0  0  0  0  0  0
  139.3380  157.8440  134.3070 C   0  0  0  0  0  0  0  0  0  0  0  0
  138.6670  158.2290  135.3020 O   0  0  0  0  0  0  0  0  0  0  0  0
  140.7180  158.3360  134.1300 C   0  0  0  0  0  0  0  0  0  0  0  0
  141.0780  159.6730  134.2730 C   0  0  0  0  0  0  0  0  0  0  0  0
  142.4170  159.7240  133.9630 C   0  0  0  0  0  0  0  0  0  0  0  0
  143.2890  160.8070  133.9500 C   0  0  0  0  0  0  0  0  0  0  0  0
  144.6340  160.5680  133.6240 C   0  0  0  0  0  0  0  0  0  0  0  0
  145.0900  159.2530  133.3340 C   0  0  0  0  0  0  0  0  0  0  0  0
  146.5110  158.9900  132.9920 C   0  0  0  0  0  0  0  0  0  0  0  0
  147.2520  157.9790  133.6320 C   0  0  0  0  0  0  0  0  0  0  0  0
  148.5830  157.7690  133.2700 C   0  0  0  0  0  0  0  0  0  0  0  0
  149.1690  158.5520  132.2760 C   0  0  0  0  0  0  0  0  0  0  0  0
  148.4070  159.5430  131.6460 C   0  0  0  0  0  0  0  0  0  0  0  0
  149.0110  160.3950  130.5680 C   0  0  0  0  0  0  0  0  0  0  0  0
  148.4120  160.1040  129.3560 F   0  0  0  0  0  0  0  0  0  0  0  0
  150.3670  160.1390  130.4790 F   0  0  0  0  0  0  0  0  0  0  0  0
  148.8250  161.7370  130.8480 F   0  0  0  0  0  0  0  0  0  0  0  0
  147.1110  159.7310  132.0180 N   0  0  0  0  0  0  0  0  0  0  0  0
  144.1660  158.1820  133.3500 C   0  0  0  0  0  0  0  0  0  0  0  0
  142.8270  158.4520  133.6580 C   0  0  0  0  0  0  0  0  0  0  0  0
  141.7930  157.5840  133.7590 N   0  0  0  0  0  0  0  0  0  0  0  0
  141.8500  156.1530  133.6300 C   0  0  0  0  0  0  0  0  0  0  0  0
  142.8320  155.5100  134.0850 O   0  0  0  0  0  0  0  0  0  0  0  0
  140.8170  155.4630  133.0060 O   0  0  0  0  0  0  0  0  0  0  0  0
  139.1940  156.7900  132.4270 H   0  0  0  0  0  0  0  0  0  0  0  0
  137.7630  156.6240  133.4980 H   0  0  0  0  0  0  0  0  0  0  0  0
  140.4297  160.5104  134.5705 H   0  0  0  0  0  0  0  0  0  0  0  0
  142.9358  161.8212  134.1881 H   0  0  0  0  0  0  0  0  0  0  0  0
  145.3431  161.4083  133.5927 H   0  0  0  0  0  0  0  0  0  0  0  0
  146.7853  157.3591  134.4117 H   0  0  0  0  0  0  0  0  0  0  0  0
  149.1709  156.9847  133.7694 H   0  0  0  0  0  0  0  0  0  0  0  0
  150.2191  158.3926  131.9899 H   0  0  0  0  0  0  0  0  0  0  0  0
  144.4933  157.1563  133.1247 H   0  0  0  0  0  0  0  0  0  0  0  0
  1  2  1  0
  2  3  2  0
  2  4  1  0
  4  5  2  0
  5  6  1  0
  6  7  2  0
  7  8  1  0
  8  9  2  0
  9 10  1  0
 10 11  2  0
 11 12  1  0
 12 13  2  0
 13 14  1  0
 14 15  1  0
 15 16  1  0
 15 17  1  0
 15 18  1  0
 14 19  2  0
  9 20  1  0
 20 21  2  0
 21 22  1  0
 22 23  1  0
 23 24  2  0
 23 25  1  0
 22  4  1  0
 21  6  1  0
 19 10  1  0
  1 26  1  0
  1 27  1  0
  5 28  1  0
  7 29  1  0
  8 30  1  0
 11 31  1  0
 12 32  1  0
 13 33  1  0
 20 34  1  0
M  CHG  1  25  -1
M  END
>  <UniqueID>  (27) 
27

>  <SMILES>  (27) 
NC(=O)c1cc2ccc(-c3cccc(C(F)(F)F)n3)cc2n1C(=O)[O-]

>  <Energy>  (27) 
80.78318042677454

>  <Genealogy>  (27) 
NC(=O)c1cc2ccc(-c3cccc(C(F)(F)F)n3)cc2n1C(=O)[O-] (protonated)
NC(=O)c1cc2ccc(-c3cccc(C(F)(F)F)n3)cc2n1C(=O)[O-] (3D coordinates assigned)
NC(=O)c1cc2ccc(-c3cccc(C(F)(F)F)n3)cc2n1C(=O)[O-] (optimized conformer: 80.78318042677454 kcal/mol)

>  <smiles>  (27) 
NC(=O)c1cc2ccc(-c3cccc(C(F)(F)F)n3)cc2n1C(=O)O

>  <score_type>  (27) 
oracle

>  <origin>  (27) 
adg

>  <m_score__min__energy>  (27) 
-7.5700000000000003

>  <m_primary>  (27) 
energy

$$$$
27:0
     RDKit          3D

 47 50  0  0  0  0  0  0  0  0999 V2000
  145.8400  157.5990  133.7440 C   0  0  0  0  0  0  0  0  0  0  0  0
  145.2510  158.8520  133.1780 C   0  0  0  0  0  0  0  0  0  0  0  0
  145.9020  159.5010  132.3160 O   0  0  0  0  0  0  0  0  0  0  0  0
  143.9320  159.2830  133.5510 N   0  0  0  0  0  0  0  0  0  0  0  0
  143.5310  160.5240  133.9470 C   0  0  0  0  0  0  0  0  0  0  0  0
  144.3510  161.7510  133.9090 C   0  0  0  0  0  0  0  0  0  0  0  0
  145.7600  161.6940  134.1110 N   0  0  0  0  0  0  0  0  0  0  0  0
  143.8080  162.8590  133.6510 O   0  0  0  0  0  0  0  0  0  0  0  0
  142.1890  160.5060  134.3250 C   0  0  0  0  0  0  0  0  0  0  0  0
  141.7740  159.2090  134.1330 C   0  0  0  0  0  0  0  0  0  0  0  0
  140.5320  158.6230  134.3540 C   0  0  0  0  0  0  0  0  0  0  0  0
  140.3930  157.2500  134.0880 C   0  0  0  0  0  0  0  0  0  0  0  0
  141.4920  156.4870  133.6110 C   0  0  0  0  0  0  0  0  0  0  0  0
  141.3340  155.0360  133.3350 C   0  0  0  0  0  0  0  0  0  0  0  0
  142.4440  154.1790  133.3310 C   0  0  0  0  0  0  0  0  0  0  0  0
  142.2830  152.8170  133.0680 C   0  0  0  0  0  0  0  0  0  0  0  0
  141.0000  152.3020  132.8080 C   0  0  0  0  0  0  0  0  0  0  0  0
  140.7860  150.8960  132.5260 N   0  0  0  0  0  0  0  0  0  0  0  0
  139.5060  150.4400  131.9610 C   0  0  0  0  0  0  0  0  0  0  0  0
  139.7110  149.2840  130.9590 C   0  0  0  0  0  0  0  0  0  0  0  0
  140.8140  148.3590  131.2980 N   0  0  0  0  0  0  0  0  0  0  0  0
  141.2560  148.4660  132.6920 C   0  0  0  0  0  0  0  0  0  0  0  0
  141.7530  149.8850  132.9840 C   0  0  0  0  0  0  0  0  0  0  0  0
  139.9390  153.1580  132.8200 N   0  0  0  0  0  0  0  0  0  0  0  0
  140.0700  154.4870  133.0690 C   0  0  0  0  0  0  0  0  0  0  0  0
  142.7390  157.1210  133.4020 C   0  0  0  0  0  0  0  0  0  0  0  0
  142.8430  158.4920  133.6640 C   0  0  0  0  0  0  0  0  0  0  0  0
  145.8174  157.6470  134.8427 H   0  0  0  0  0  0  0  0  0  0  0  0
  145.2550  156.7322  133.4028 H   0  0  0  0  0  0  0  0  0  0  0  0
  146.8807  157.4963  133.4028 H   0  0  0  0  0  0  0  0  0  0  0  0
  146.3970  161.3460  133.3610 H   0  0  0  0  0  0  0  0  0  0  0  0
  141.5897  161.3498  134.6976 H   0  0  0  0  0  0  0  0  0  0  0  0
  139.6838  159.2165  134.7259 H   0  0  0  0  0  0  0  0  0  0  0  0
  139.4216  156.7604  134.2511 H   0  0  0  0  0  0  0  0  0  0  0  0
  143.4469  154.5818  133.5361 H   0  0  0  0  0  0  0  0  0  0  0  0
  143.1568  152.1489  133.0641 H   0  0  0  0  0  0  0  0  0  0  0  0
  138.8572  150.0935  132.7789 H   0  0  0  0  0  0  0  0  0  0  0  0
  139.0444  151.2831  131.4262 H   0  0  0  0  0  0  0  0  0  0  0  0
  138.7786  148.7023  130.9119 H   0  0  0  0  0  0  0  0  0  0  0  0
  139.9805  149.7494  129.9994 H   0  0  0  0  0  0  0  0  0  0  0  0
  141.6330  148.5680  130.6770 H   0  0  0  0  0  0  0  0  0  0  0  0
  140.4131  148.2322  133.3590 H   0  0  0  0  0  0  0  0  0  0  0  0
  142.0790  147.7563  132.8622 H   0  0  0  0  0  0  0  0  0  0  0  0
  141.9014  149.9965  134.0682 H   0  0  0  0  0  0  0  0  0  0  0  0
  142.6985  150.0395  132.4435 H   0  0  0  0  0  0  0  0  0  0  0  0
  139.1816  155.1356  133.0621 H   0  0  0  0  0  0  0  0  0  0  0  0
  143.6072  156.5497  133.0418 H   0  0  0  0  0  0  0  0  0  0  0  0
  1  2  1  0
  2  3  2  0
  2  4  1  0
  4  5  1  0
  5  6  1  0
  6  7  1  0
  6  8  2  0
  5  9  2  0
  9 10  1  0
 10 11  2  0
 11 12  1  0
 12 13  2  0
 13 14  1  0
 14 15  2  0
 15 16  1  0
 16 17  2  0
 17 18  1  0
 18 19  1  0
 19 20  1  0
 20 21  1  0
 21 22  1  0
 22 23  1  0
 17 24  1  0
 24 25  2  0
 13 26  1  0
 26 27  2  0
 27  4  1  0
 27 10  1  0
 25 14  1  0
 23 18  1  0
  1 28  1  0
  1 29  1  0
  1 30  1  0
  7 31  1  0
  9 32  1  0
 11 33  1  0
 12 34  1  0
 15 35  1  0
 16 36  1  0
 19 37  1  0
 19 38  1  0
 20 39  1  0
 20 40  1  0
 21 41  1  0
 22 42  1  0
 22 43  1  0
 23 44  1  0
 23 45  1  0
 25 46  1  0
 26 47  1  0
M  CHG  1   7  -1
M  END
>  <UniqueID>  (28) 
28

>  <SMILES>  (28) 
CC(=O)n1c(C([NH-])=O)cc2ccc(-c3ccc(N4CCNCC4)nc3)cc21

>  <Energy>  (28) 
101.94940283843073

>  <Genealogy>  (28) 
CC(=O)n1c(C([NH-])=O)cc2ccc(-c3ccc(N4CCNCC4)nc3)cc21 (protonated)
CC(=O)n1c(C([NH-])=O)cc2ccc(-c3ccc(N4CCNCC4)nc3)cc21 (3D coordinates assigned)
CC(=O)n1c(C([NH-])=O)cc2ccc(-c3ccc(N4CCNCC4)nc3)cc21 (nonaromatic ring conformer: 101.94940283843073 kcal/mol)

>  <smiles>  (28) 
CC(=O)n1c(C(N)=O)cc2ccc(-c3ccc(N4CCNCC4)nc3)cc21

>  <score_type>  (28) 
oracle

>  <origin>  (28) 
adg

>  <m_score__min__energy>  (28) 
-8.6500000000000004

>  <m_primary>  (28) 
energy

$$$$
28:0
     RDKit          3D

 55 57  0  0  0  0  0  0  0  0999 V2000
  148.8660  161.5500  130.7480 C   0  0  0  0  0  0  0  0  0  0  0  0
  149.5440  160.2480  130.8410 N   0  0  0  0  0  0  0  0  0  0  0  0
  149.2320  159.4160  129.6610 C   0  0  0  0  0  0  0  0  0  0  0  0
  149.3000  159.5990  132.1580 C   0  0  2  0  0  0  0  0  0  0  0  0
  149.0950  158.0800  132.0230 C   0  0  0  0  0  0  0  0  0  0  0  0
  147.6820  157.7870  132.5040 C   0  0  0  0  0  0  0  0  0  0  0  0
  147.3320  158.9290  133.4550 C   0  0  2  0  0  0  0  0  0  0  0  0
  145.8370  159.1560  133.5840 C   0  0  0  0  0  0  0  0  0  0  0  0
  145.2990  160.4700  133.6660 C   0  0  0  0  0  0  0  0  0  0  0  0
  143.9130  160.6730  133.7720 C   0  0  0  0  0  0  0  0  0  0  0  0
  143.0890  159.5530  133.8010 C   0  0  0  0  0  0  0  0  0  0  0  0
  141.7170  159.4670  133.8720 C   0  0  0  0  0  0  0  0  0  0  0  0
  141.4330  158.1030  133.8550 C   0  0  0  0  0  0  0  0  0  0  0  0
  140.0680  157.5540  133.9950 C   0  0  0  0  0  0  0  0  0  0  0  0
  139.4740  156.8440  132.9100 N   0  0  0  0  0  0  0  0  0  0  0  0
  139.4040  157.7370  135.0490 O   0  0  0  0  0  0  0  0  0  0  0  0
  142.5830  157.3750  133.7720 N   0  0  0  0  0  0  0  0  0  0  0  0
  142.7120  155.9510  133.6530 C   0  0  0  0  0  0  0  0  0  0  0  0
  141.7040  155.2560  133.3560 O   0  0  0  0  0  0  0  0  0  0  0  0
  143.9570  155.3500  133.8930 O   0  0  0  0  0  0  0  0  0  0  0  0
  144.6810  154.5010  132.9910 C   0  0  0  0  0  0  0  0  0  0  0  0
  144.3680  153.0190  133.2710 C   0  0  0  0  0  0  0  0  0  0  0  0
  146.1770  154.7490  133.2380 C   0  0  0  0  0  0  0  0  0  0  0  0
  144.3530  154.8590  131.5290 C   0  0  0  0  0  0  0  0  0  0  0  0
  143.5880  158.2790  133.7420 C   0  0  0  0  0  0  0  0  0  0  0  0
  144.9620  158.0450  133.6170 C   0  0  0  0  0  0  0  0  0  0  0  0
  148.0890  160.1520  132.9380 C   0  0  0  0  0  0  0  0  0  0  0  0
  148.6667  161.9327  131.7598 H   0  0  0  0  0  0  0  0  0  0  0  0
  149.5087  162.2603  130.2073 H   0  0  0  0  0  0  0  0  0  0  0  0
  147.9155  161.4307  130.2073 H   0  0  0  0  0  0  0  0  0  0  0  0
  148.8636  158.4338  129.9920 H   0  0  0  0  0  0  0  0  0  0  0  0
  148.4590  159.9127  129.0562 H   0  0  0  0  0  0  0  0  0  0  0  0
  150.1410  159.2820  129.0562 H   0  0  0  0  0  0  0  0  0  0  0  0
  150.2138  159.8326  132.7240 H   0  0  0  0  0  0  0  0  0  0  0  0
  149.2095  157.7736  130.9728 H   0  0  0  0  0  0  0  0  0  0  0  0
  149.8382  157.5256  132.6148 H   0  0  0  0  0  0  0  0  0  0  0  0
  146.9832  157.7656  131.6548 H   0  0  0  0  0  0  0  0  0  0  0  0
  147.6135  156.8071  132.9990 H   0  0  0  0  0  0  0  0  0  0  0  0
  147.6382  158.6919  134.4846 H   0  0  0  0  0  0  0  0  0  0  0  0
  145.9757  161.3370  133.6462 H   0  0  0  0  0  0  0  0  0  0  0  0
  143.4920  161.6876  133.8303 H   0  0  0  0  0  0  0  0  0  0  0  0
  140.9983  160.2977  133.9298 H   0  0  0  0  0  0  0  0  0  0  0  0
  139.7170  155.8460  132.7260 H   0  0  0  0  0  0  0  0  0  0  0  0
  144.3324  152.8507  134.3575 H   0  0  0  0  0  0  0  0  0  0  0  0
  143.3953  152.7596  132.8277 H   0  0  0  0  0  0  0  0  0  0  0  0
  145.1528  152.3884  132.8277 H   0  0  0  0  0  0  0  0  0  0  0  0
  146.3695  154.7809  134.3206 H   0  0  0  0  0  0  0  0  0  0  0  0
  146.7632  153.9358  132.7852 H   0  0  0  0  0  0  0  0  0  0  0  0
  146.4694  155.7079  132.7852 H   0  0  0  0  0  0  0  0  0  0  0  0
  143.6100  155.6699  131.5079 H   0  0  0  0  0  0  0  0  0  0  0  0
  145.2696  155.1881  131.0176 H   0  0  0  0  0  0  0  0  0  0  0  0
  143.9452  153.9746  131.0176 H   0  0  0  0  0  0  0  0  0  0  0  0
  145.3532  157.0194  133.5460 H   0  0  0  0  0  0  0  0  0  0  0  0
  147.4457  160.7481  132.2741 H   0  0  0  0  0  0  0  0  0  0  0  0
  148.4042  160.8103  133.7609 H   0  0  0  0  0  0  0  0  0  0  0  0
  1  2  1  0
  2  3  1  0
  2  4  1  0
  4  5  1  0
  5  6  1  0
  6  7  1  0
  7  8  1  0
  8  9  2  0
  9 10  1  0
 10 11  2  0
 11 12  1  0
 12 13  2  0
 13 14  1  0
 14 15  1  0
 14 16  2  0
 13 17  1  0
 17 18  1  0
 18 19  2  0
 18 20  1  0
 20 21  1  0
 21 22  1  0
 21 23  1  0
 21 24  1  0
 17 25  1  0
 25 26  2  0
  7 27  1  0
 27  4  1  0
 26  8  1  0
 25 11  1  0
  1 28  1  0
  1 29  1  0
  1 30  1  0
  3 31  1  0
  3 32  1  0
  3 33  1  0
  4 34  1  1
  5 35  1  0
  5 36  1  0
  6 37  1  0
  6 38  1  0
  7 39  1  1
  9 40  1  0
 10 41  1  0
 12 42  1  0
 15 43  1  0
 22 44  1  0
 22 45  1  0
 22 46  1  0
 23 47  1  0
 23 48  1  0
 23 49  1  0
 24 50  1  0
 24 51  1  0
 24 52  1  0
 26 53  1  0
 27 54  1  0
 27 55  1  0
M  CHG  1  15  -1
M  END
>  <UniqueID>  (29) 
29

>  <SMILES>  (29) 
CN(C)[C@@H]1CC[C@H](c2ccc3cc(C([NH-])=O)n(C(=O)OC(C)(C)C)c3c2)C1

>  <Energy>  (29) 
97.62570130674473

>  <Genealogy>  (29) 
CN(C)C1CCC(c2ccc3cc(C([NH-])=O)n(C(=O)OC(C)(C)C)c3c2)C1 (protonated)
CN(C)[C@@H]1CC[C@H](c2ccc3cc(C([NH-])=O)n(C(=O)OC(C)(C)C)c3c2)C1 (chirality)
CN(C)[C@@H]1CC[C@H](c2ccc3cc(C([NH-])=O)n(C(=O)OC(C)(C)C)c3c2)C1 (3D coordinates assigned)
CN(C)[C@@H]1CC[C@H](c2ccc3cc(C([NH-])=O)n(C(=O)OC(C)(C)C)c3c2)C1 (nonaromatic ring conformer: 97.62570130674473 kcal/mol)

>  <smiles>  (29) 
CN(C)C1CCC(c2ccc3cc(C(N)=O)n(C(=O)OC(C)(C)C)c3c2)C1

>  <score_type>  (29) 
oracle

>  <origin>  (29) 
adg

>  <m_score__min__energy>  (29) 
-8.7200000000000006

>  <m_primary>  (29) 
energy

$$$$
29:0
     RDKit          3D

 35 36  0  0  0  0  0  0  0  0999 V2000
  149.8850  153.6730  138.8570 C   0  0  0  0  0  0  0  0  0  0  0  0
  149.0390  153.0560  137.8930 O   0  0  0  0  0  0  0  0  0  0  0  0
  148.1360  153.7810  137.1120 C   0  0  0  0  0  0  0  0  0  0  0  0
  148.4100  154.9550  136.7380 O   0  0  0  0  0  0  0  0  0  0  0  0
  146.8910  153.1790  136.7480 N   0  0  0  0  0  0  0  0  0  0  0  0
  145.7390  153.9320  136.2650 C   0  0  0  0  0  0  0  0  0  0  0  0
  145.5950  153.7770  134.7480 C   0  0  0  0  0  0  0  0  0  0  0  0
  146.5760  154.6650  134.0310 C   0  0  0  0  0  0  0  0  0  0  0  0
  147.8300  154.1490  133.6200 C   0  0  0  0  0  0  0  0  0  0  0  0
  148.7730  154.9780  132.9900 C   0  0  0  0  0  0  0  0  0  0  0  0
  148.4350  156.3140  132.7890 C   0  0  0  0  0  0  0  0  0  0  0  0
  149.1690  157.3350  132.2320 C   0  0  0  0  0  0  0  0  0  0  0  0
  148.3490  158.4610  132.3030 C   0  0  0  0  0  0  0  0  0  0  0  0
  148.7090  159.7780  131.7320 C   0  0  0  0  0  0  0  0  0  0  0  0
  147.7670  160.8520  131.7250 N   0  0  0  0  0  0  0  0  0  0  0  0
  149.8660  159.9750  131.2740 O   0  0  0  0  0  0  0  0  0  0  0  0
  147.1550  158.1460  132.8830 N   0  0  0  0  0  0  0  0  0  0  0  0
  146.0680  159.0350  133.1900 C   0  0  0  0  0  0  0  0  0  0  0  0
  146.2360  159.9980  133.9830 O   0  0  0  0  0  0  0  0  0  0  0  0
  144.8140  158.8320  132.6260 O   0  0  0  0  0  0  0  0  0  0  0  0
  147.2240  156.8280  133.1730 C   0  0  0  0  0  0  0  0  0  0  0  0
  146.2730  156.0280  133.8200 C   0  0  0  0  0  0  0  0  0  0  0  0
  149.5354  153.4180  139.8683 H   0  0  0  0  0  0  0  0  0  0  0  0
  150.9159  153.3133  138.7239 H   0  0  0  0  0  0  0  0  0  0  0  0
  149.8575  154.7646  138.7239 H   0  0  0  0  0  0  0  0  0  0  0  0
  144.8291  153.5558  136.7554 H   0  0  0  0  0  0  0  0  0  0  0  0
  145.8848  154.9963  136.5018 H   0  0  0  0  0  0  0  0  0  0  0  0
  145.7860  152.7296  134.4716 H   0  0  0  0  0  0  0  0  0  0  0  0
  144.5746  154.0666  134.4565 H   0  0  0  0  0  0  0  0  0  0  0  0
  148.0673  153.0894  133.7959 H   0  0  0  0  0  0  0  0  0  0  0  0
  149.7476  154.5843  132.6657 H   0  0  0  0  0  0  0  0  0  0  0  0
  150.1866  157.2761  131.8184 H   0  0  0  0  0  0  0  0  0  0  0  0
  148.0440  161.7880  131.3560 H   0  0  0  0  0  0  0  0  0  0  0  0
  146.7830  160.7130  132.0450 H   0  0  0  0  0  0  0  0  0  0  0  0
  145.3145  156.4510  134.1552 H   0  0  0  0  0  0  0  0  0  0  0  0
  1  2  1  0
  2  3  1  0
  3  4  2  0
  3  5  1  0
  5  6  1  0
  6  7  1  0
  7  8  1  0
  8  9  2  0
  9 10  1  0
 10 11  2  0
 11 12  1  0
 12 13  2  0
 13 14  1  0
 14 15  1  0
 14 16  2  0
 13 17  1  0
 17 18  1  0
 18 19  2  0
 18 20  1  0
 17 21  1  0
 21 22  2  0
 22  8  1  0
 21 11  1  0
  1 23  1  0
  1 24  1  0
  1 25  1  0
  6 26  1  0
  6 27  1  0
  7 28  1  0
  7 29  1  0
  9 30  1  0
 10 31  1  0
 12 32  1  0
 15 33  1  0
 15 34  1  0
 22 35  1  0
M  CHG  2   5  -1  20  -1
M  END
>  <UniqueID>  (30) 
30

>  <SMILES>  (30) 
COC(=O)[N-]CCc1ccc2cc(C(N)=O)n(C(=O)[O-])c2c1

>  <Energy>  (30) 
67.58707185404612

>  <Genealogy>  (30) 
COC(=O)[N-]CCc1ccc2cc(C(N)=O)n(C(=O)[O-])c2c1 (protonated)
COC(=O)[N-]CCc1ccc2cc(C(N)=O)n(C(=O)[O-])c2c1 (3D coordinates assigned)
COC(=O)[N-]CCc1ccc2cc(C(N)=O)n(C(=O)[O-])c2c1 (optimized conformer: 67.58707185404612 kcal/mol)

>  <smiles>  (30) 
COC(=O)NCCc1ccc2cc(C(N)=O)n(C(=O)O)c2c1

>  <score_type>  (30) 
oracle

>  <origin>  (30) 
adg

>  <m_score__min__energy>  (30) 
-6.3600000000000003

>  <m_primary>  (30) 
energy

$$$$
30:0
     RDKit          3D

 41 43  0  0  0  0  0  0  0  0999 V2000
  147.2960  155.3930  135.1280 C   0  0  0  0  0  0  0  0  0  0  0  0
  146.1490  155.9650  134.5110 O   0  0  0  0  0  0  0  0  0  0  0  0
  146.2110  156.6650  133.3030 C   0  0  0  0  0  0  0  0  0  0  0  0
  146.4550  156.0520  132.2260 O   0  0  0  0  0  0  0  0  0  0  0  0
  146.0250  158.0890  133.2920 N   0  0  0  0  0  0  0  0  0  0  0  0
  146.9710  159.0570  133.1260 C   0  0  0  0  0  0  0  0  0  0  0  0
  148.3890  158.8350  132.7730 C   0  0  0  0  0  0  0  0  0  0  0  0
  148.7930  157.5860  132.2160 N   0  0  0  0  0  0  0  0  0  0  0  0
  149.2550  159.7230  132.9890 O   0  0  0  0  0  0  0  0  0  0  0  0
  146.4020  160.3230  133.2560 C   0  0  0  0  0  0  0  0  0  0  0  0
  145.0680  160.1000  133.5010 C   0  0  0  0  0  0  0  0  0  0  0  0
  144.0360  161.0050  133.7290 C   0  0  0  0  0  0  0  0  0  0  0  0
  142.7550  160.4920  133.9930 C   0  0  0  0  0  0  0  0  0  0  0  0
  142.5300  159.0940  134.0250 C   0  0  0  0  0  0  0  0  0  0  0  0
  141.1620  158.5630  134.3540 C   0  0  0  0  0  0  0  0  0  0  0  0
  140.2800  158.6880  133.1950 N   0  0  0  0  0  0  0  0  0  0  0  0
  140.0350  159.8410  132.5940 N   0  0  0  0  0  0  0  0  0  0  0  0
  139.1320  159.6040  131.6210 C   0  0  0  0  0  0  0  0  0  0  0  0
  138.6330  160.6470  130.6780 C   0  0  0  0  0  0  0  0  0  0  0  0
  138.7980  158.2650  131.5960 C   0  0  0  0  0  0  0  0  0  0  0  0
  139.5480  157.7120  132.6140 C   0  0  0  0  0  0  0  0  0  0  0  0
  139.4850  156.2820  133.0590 C   0  0  0  0  0  0  0  0  0  0  0  0
  143.6020  158.2050  133.7910 C   0  0  0  0  0  0  0  0  0  0  0  0
  144.8650  158.7430  133.5160 C   0  0  0  0  0  0  0  0  0  0  0  0
  147.1891  155.4463  136.2215 H   0  0  0  0  0  0  0  0  0  0  0  0
  147.3921  154.3414  134.8198 H   0  0  0  0  0  0  0  0  0  0  0  0
  148.1938  155.9489  134.8198 H   0  0  0  0  0  0  0  0  0  0  0  0
  148.2120  157.1080  131.4920 H   0  0  0  0  0  0  0  0  0  0  0  0
  146.9123  161.2944  133.1789 H   0  0  0  0  0  0  0  0  0  0  0  0
  144.2177  162.0896  133.7033 H   0  0  0  0  0  0  0  0  0  0  0  0
  141.9188  161.1827  134.1766 H   0  0  0  0  0  0  0  0  0  0  0  0
  141.2420  157.5031  134.6371 H   0  0  0  0  0  0  0  0  0  0  0  0
  140.7426  159.1439  135.1886 H   0  0  0  0  0  0  0  0  0  0  0  0
  138.2275  161.4946  131.2499 H   0  0  0  0  0  0  0  0  0  0  0  0
  139.4620  160.9953  130.0444 H   0  0  0  0  0  0  0  0  0  0  0  0
  137.8416  160.2201  130.0444 H   0  0  0  0  0  0  0  0  0  0  0  0
  138.0955  157.7557  130.9200 H   0  0  0  0  0  0  0  0  0  0  0  0
  139.4831  156.2398  134.1582 H   0  0  0  0  0  0  0  0  0  0  0  0
  138.5655  155.8179  132.6727 H   0  0  0  0  0  0  0  0  0  0  0  0
  140.3601  155.7389  132.6727 H   0  0  0  0  0  0  0  0  0  0  0  0
  143.4485  157.1163  133.8240 H   0  0  0  0  0  0  0  0  0  0  0  0
  1  2  1  0
  2  3  1  0
  3  4  2  0
  3  5  1  0
  5  6  1  0
  6  7  1  0
  7  8  1  0
  7  9  2  0
  6 10  2  0
 10 11  1  0
 11 12  2  0
 12 13  1  0
 13 14  2  0
 14 15  1  0
 15 16  1  0
 16 17  1  0
 17 18  2  0
 18 19  1  0
 18 20  1  0
 20 21  2  0
 21 22  1  0
 14 23  1  0
 23 24  2  0
 24  5  1  0
 24 11  1  0
 21 16  1  0
  1 25  1  0
  1 26  1  0
  1 27  1  0
  8 28  1  0
 10 29  1  0
 12 30  1  0
 13 31  1  0
 15 32  1  0
 15 33  1  0
 19 34  1  0
 19 35  1  0
 19 36  1  0
 20 37  1  0
 22 38  1  0
 22 39  1  0
 22 40  1  0
 23 41  1  0
M  CHG  1   8  -1
M  END
>  <UniqueID>  (31) 
31

>  <SMILES>  (31) 
COC(=O)n1c(C([NH-])=O)cc2ccc(Cn3nc(C)cc3C)cc21

>  <Energy>  (31) 
105.21175183321314

>  <Genealogy>  (31) 
COC(=O)n1c(C([NH-])=O)cc2ccc(Cn3nc(C)cc3C)cc21 (protonated)
COC(=O)n1c(C([NH-])=O)cc2ccc(Cn3nc(C)cc3C)cc21 (3D coordinates assigned)
COC(=O)n1c(C([NH-])=O)cc2ccc(Cn3nc(C)cc3C)cc21 (optimized conformer: 105.21175183321314 kcal/mol)

>  <smiles>  (31) 
COC(=O)n1c(C(N)=O)cc2ccc(Cn3nc(C)cc3C)cc21

>  <score_type>  (31) 
oracle

>  <origin>  (31) 
adg

>  <m_score__min__energy>  (31) 
-7.5599999999999996

>  <m_primary>  (31) 
energy

$$$$
31:0
     RDKit          3D

 40 42  0  0  0  0  0  0  0  0999 V2000
  138.8690  157.9470  132.4800 N   0  0  0  0  0  0  0  0  0  0  0  0
  139.7340  157.6350  133.5730 C   0  0  0  0  0  0  0  0  0  0  0  0
  139.2520  157.1120  134.6130 O   0  0  0  0  0  0  0  0  0  0  0  0
  141.1690  157.9760  133.5320 C   0  0  0  0  0  0  0  0  0  0  0  0
  142.1840  157.0280  133.6310 C   0  0  0  0  0  0  0  0  0  0  0  0
  143.3560  157.7480  133.6160 C   0  0  0  0  0  0  0  0  0  0  0  0
  144.6740  157.3080  133.6620 C   0  0  0  0  0  0  0  0  0  0  0  0
  145.6930  158.2710  133.5820 C   0  0  0  0  0  0  0  0  0  0  0  0
  145.3850  159.6480  133.4590 C   0  0  0  0  0  0  0  0  0  0  0  0
  146.4660  160.5930  133.3490 N   0  0  0  0  0  0  0  0  0  0  0  0
  147.8510  160.2420  133.0230 C   0  0  0  0  0  0  0  0  0  0  0  0
  147.9230  159.5150  131.6620 C   0  0  2  0  0  0  0  0  0  0  0  0
  149.2680  158.7720  131.5070 C   0  0  0  0  0  0  0  0  0  0  0  0
  150.3260  159.7530  131.0100 C   0  0  0  0  0  0  0  0  0  0  0  0
  149.4440  160.9320  130.0350 S   0  0  0  0  0  0  0  0  0  0  0  0
  149.6930  160.7310  128.5660 O   0  0  0  0  0  0  0  0  0  0  0  0
  149.7730  162.3400  130.4420 O   0  0  0  0  0  0  0  0  0  0  0  0
  147.7910  160.4880  130.4780 C   0  0  0  0  0  0  0  0  0  0  0  0
  144.0290  160.0540  133.3990 C   0  0  0  0  0  0  0  0  0  0  0  0
  143.0330  159.0760  133.5040 C   0  0  0  0  0  0  0  0  0  0  0  0
  141.6910  159.2320  133.4470 N   0  0  0  0  0  0  0  0  0  0  0  0
  140.9740  160.4580  133.2170 C   0  0  0  0  0  0  0  0  0  0  0  0
  141.3700  161.5360  133.7310 O   0  0  0  0  0  0  0  0  0  0  0  0
  139.8350  160.4640  132.4210 O   0  0  0  0  0  0  0  0  0  0  0  0
  139.2000  158.5280  131.6790 H   0  0  0  0  0  0  0  0  0  0  0  0
  137.8630  157.6660  132.5110 H   0  0  0  0  0  0  0  0  0  0  0  0
  142.0725  155.9362  133.7053 H   0  0  0  0  0  0  0  0  0  0  0  0
  144.9114  156.2382  133.7581 H   0  0  0  0  0  0  0  0  0  0  0  0
  146.7450  157.9514  133.6153 H   0  0  0  0  0  0  0  0  0  0  0  0
  146.2340  161.6120  133.3730 H   0  0  0  0  0  0  0  0  0  0  0  0
  148.4546  161.1603  132.9744 H   0  0  0  0  0  0  0  0  0  0  0  0
  148.2395  159.5714  133.8036 H   0  0  0  0  0  0  0  0  0  0  0  0
  147.0818  158.8063  131.6495 H   0  0  0  0  0  0  0  0  0  0  0  0
  149.5755  158.3601  132.4795 H   0  0  0  0  0  0  0  0  0  0  0  0
  149.1562  157.9501  130.7846 H   0  0  0  0  0  0  0  0  0  0  0  0
  150.8218  160.2478  131.8581 H   0  0  0  0  0  0  0  0  0  0  0  0
  151.1142  159.2489  130.4315 H   0  0  0  0  0  0  0  0  0  0  0  0
  147.2214  161.3804  130.7769 H   0  0  0  0  0  0  0  0  0  0  0  0
  147.2544  160.0295  129.6343 H   0  0  0  0  0  0  0  0  0  0  0  0
  143.7647  161.1143  133.2727 H   0  0  0  0  0  0  0  0  0  0  0  0
  1  2  1  0
  2  3  2  0
  2  4  1  0
  4  5  2  0
  5  6  1  0
  6  7  2  0
  7  8  1  0
  8  9  2  0
  9 10  1  0
 10 11  1  0
 11 12  1  0
 12 13  1  0
 13 14  1  0
 14 15  1  0
 15 16  2  0
 15 17  2  0
 15 18  1  0
  9 19  1  0
 19 20  2  0
 20 21  1  0
 21 22  1  0
 22 23  2  0
 22 24  1  0
 21  4  1  0
 20  6  1  0
 18 12  1  0
  1 25  1  0
  1 26  1  0
  5 27  1  0
  7 28  1  0
  8 29  1  0
 10 30  1  0
 11 31  1  0
 11 32  1  0
 12 33  1  1
 13 34  1  0
 13 35  1  0
 14 36  1  0
 14 37  1  0
 18 38  1  0
 18 39  1  0
 19 40  1  0
M  CHG  1  24  -1
M  END
>  <UniqueID>  (32) 
32

>  <SMILES>  (32) 
NC(=O)c1cc2ccc(NC[C@@H]3CCS(=O)(=O)C3)cc2n1C(=O)[O-]

>  <Energy>  (32) 
78.9949976239028

>  <Genealogy>  (32) 
NC(=O)c1cc2ccc(NCC3CCS(=O)(=O)C3)cc2n1C(=O)[O-] (protonated)
NC(=O)c1cc2ccc(NC[C@@H]3CCS(=O)(=O)C3)cc2n1C(=O)[O-] (chirality)
NC(=O)c1cc2ccc(NC[C@@H]3CCS(=O)(=O)C3)cc2n1C(=O)[O-] (3D coordinates assigned)
NC(=O)c1cc2ccc(NC[C@@H]3CCS(=O)(=O)C3)cc2n1C(=O)[O-] (nonaromatic ring conformer: 78.9949976239028 kcal/mol)

>  <smiles>  (32) 
NC(=O)c1cc2ccc(NCC3CCS(=O)(=O)C3)cc2n1C(=O)O

>  <score_type>  (32) 
oracle

>  <origin>  (32) 
adg

>  <m_score__min__energy>  (32) 
-8.6699999999999999

>  <m_primary>  (32) 
energy

$$$$
32:0
     RDKit          3D

 41 43  0  0  0  0  0  0  0  0999 V2000
  138.7280  149.5750  131.5080 C   0  0  0  0  0  0  0  0  0  0  0  0
  140.2340  149.7920  131.6400 C   0  0  0  0  0  0  0  0  0  0  0  0
  140.9440  148.4520  131.8570 C   0  0  0  0  0  0  0  0  0  0  0  0
  140.4750  150.6640  132.7480 O   0  0  0  0  0  0  0  0  0  0  0  0
  141.5150  151.6040  132.8440 C   0  0  0  0  0  0  0  0  0  0  0  0
  141.2830  152.9850  132.9650 C   0  0  0  0  0  0  0  0  0  0  0  0
  142.3680  153.8580  133.0600 C   0  0  0  0  0  0  0  0  0  0  0  0
  143.6820  153.3650  133.0350 C   0  0  0  0  0  0  0  0  0  0  0  0
  144.8430  154.2840  133.1340 C   0  0  0  0  0  0  0  0  0  0  0  0
  146.1630  153.7660  133.2350 C   0  0  0  0  0  0  0  0  0  0  0  0
  147.2660  154.6260  133.3430 C   0  0  0  0  0  0  0  0  0  0  0  0
  147.0300  155.9970  133.3370 C   0  0  0  0  0  0  0  0  0  0  0  0
  147.9120  157.0450  133.4640 C   0  0  0  0  0  0  0  0  0  0  0  0
  147.1270  158.1930  133.4070 C   0  0  0  0  0  0  0  0  0  0  0  0
  147.6860  159.5600  133.4470 C   0  0  0  0  0  0  0  0  0  0  0  0
  146.9580  160.6720  132.9240 N   0  0  0  0  0  0  0  0  0  0  0  0
  148.8480  159.7400  133.8980 O   0  0  0  0  0  0  0  0  0  0  0  0
  145.8100  157.8720  133.2650 N   0  0  0  0  0  0  0  0  0  0  0  0
  144.6850  158.7670  133.2800 C   0  0  0  0  0  0  0  0  0  0  0  0
  143.6390  158.4850  132.6370 O   0  0  0  0  0  0  0  0  0  0  0  0
  144.7370  159.9520  134.0030 O   0  0  0  0  0  0  0  0  0  0  0  0
  145.7680  156.5200  133.2190 C   0  0  0  0  0  0  0  0  0  0  0  0
  144.6460  155.6860  133.1350 C   0  0  0  0  0  0  0  0  0  0  0  0
  143.8670  151.9780  132.9170 C   0  0  0  0  0  0  0  0  0  0  0  0
  142.7950  151.1470  132.8280 N   0  0  0  0  0  0  0  0  0  0  0  0
  138.2777  149.5101  132.5095 H   0  0  0  0  0  0  0  0  0  0  0  0
  138.2827  150.4183  130.9597 H   0  0  0  0  0  0  0  0  0  0  0  0
  138.5389  148.6403  130.9597 H   0  0  0  0  0  0  0  0  0  0  0  0
  140.6275  150.2445  130.7178 H   0  0  0  0  0  0  0  0  0  0  0  0
  141.0452  148.2611  132.9356 H   0  0  0  0  0  0  0  0  0  0  0  0
  140.3547  147.6459  131.3956 H   0  0  0  0  0  0  0  0  0  0  0  0
  141.9420  148.4869  131.3956 H   0  0  0  0  0  0  0  0  0  0  0  0
  140.2545  153.3747  132.9847 H   0  0  0  0  0  0  0  0  0  0  0  0
  142.1921  154.9397  133.1551 H   0  0  0  0  0  0  0  0  0  0  0  0
  146.3214  152.6775  133.2284 H   0  0  0  0  0  0  0  0  0  0  0  0
  148.2878  154.2279  133.4299 H   0  0  0  0  0  0  0  0  0  0  0  0
  149.0039  156.9880  133.5848 H   0  0  0  0  0  0  0  0  0  0  0  0
  146.0710  160.5330  132.3910 H   0  0  0  0  0  0  0  0  0  0  0  0
  147.3530  161.6360  132.9950 H   0  0  0  0  0  0  0  0  0  0  0  0
  143.6335  156.1111  133.0712 H   0  0  0  0  0  0  0  0  0  0  0  0
  144.8850  151.5617  132.8965 H   0  0  0  0  0  0  0  0  0  0  0  0
  1  2  1  0
  2  3  1  0
  2  4  1  0
  4  5  1  0
  5  6  2  0
  6  7  1  0
  7  8  2  0
  8  9  1  0
  9 10  2  0
 10 11  1  0
 11 12  2  0
 12 13  1  0
 13 14  2  0
 14 15  1  0
 15 16  1  0
 15 17  2  0
 14 18  1  0
 18 19  1  0
 19 20  2  0
 19 21  1  0
 18 22  1  0
 22 23  2  0
  8 24  1  0
 24 25  2  0
 25  5  1  0
 23  9  1  0
 22 12  1  0
  1 26  1  0
  1 27  1  0
  1 28  1  0
  2 29  1  0
  3 30  1  0
  3 31  1  0
  3 32  1  0
  6 33  1  0
  7 34  1  0
 10 35  1  0
 11 36  1  0
 13 37  1  0
 16 38  1  0
 16 39  1  0
 23 40  1  0
 24 41  1  0
M  CHG  1  21  -1
M  END
>  <UniqueID>  (33) 
33

>  <SMILES>  (33) 
CC(C)Oc1ccc(-c2ccc3cc(C(N)=O)n(C(=O)[O-])c3c2)cn1

>  <Energy>  (33) 
85.67807030560101

>  <Genealogy>  (33) 
CC(C)Oc1ccc(-c2ccc3cc(C(N)=O)n(C(=O)[O-])c3c2)cn1 (protonated)
CC(C)Oc1ccc(-c2ccc3cc(C(N)=O)n(C(=O)[O-])c3c2)cn1 (3D coordinates assigned)
CC(C)Oc1ccc(-c2ccc3cc(C(N)=O)n(C(=O)[O-])c3c2)cn1 (optimized conformer: 85.67807030560101 kcal/mol)

>  <smiles>  (33) 
CC(C)Oc1ccc(-c2ccc3cc(C(N)=O)n(C(=O)O)c3c2)cn1

>  <score_type>  (33) 
oracle

>  <origin>  (33) 
adg

>  <m_score__min__energy>  (33) 
-7.8499999999999996

>  <m_primary>  (33) 
energy

$$$$
33:0
     RDKit          3D

 39 41  0  0  0  0  0  0  0  0999 V2000
  148.4830  149.6950  132.9600 C   0  0  0  0  0  0  0  0  0  0  0  0
  149.2370  150.7460  132.2650 N   0  0  0  0  0  0  0  0  0  0  0  0
  150.3590  150.3590  131.4010 C   0  0  0  0  0  0  0  0  0  0  0  0
  148.8800  152.1440  132.4290 C   0  0  0  0  0  0  0  0  0  0  0  0
  149.8630  153.1540  132.3700 C   0  0  0  0  0  0  0  0  0  0  0  0
  149.5180  154.4990  132.5280 C   0  0  0  0  0  0  0  0  0  0  0  0
  148.1840  154.8750  132.7490 C   0  0  0  0  0  0  0  0  0  0  0  0
  147.8180  156.3040  132.9150 C   0  0  0  0  0  0  0  0  0  0  0  0
  148.8210  157.3090  132.8850 C   0  0  0  0  0  0  0  0  0  0  0  0
  148.4880  158.6620  133.0520 C   0  0  0  0  0  0  0  0  0  0  0  0
  147.1490  158.9870  133.2400 C   0  0  0  0  0  0  0  0  0  0  0  0
  146.5570  160.2110  133.4510 C   0  0  0  0  0  0  0  0  0  0  0  0
  145.1960  159.9450  133.5830 C   0  0  0  0  0  0  0  0  0  0  0  0
  144.1740  161.0010  133.7360 C   0  0  0  0  0  0  0  0  0  0  0  0
  142.8130  160.7610  133.3910 N   0  0  0  0  0  0  0  0  0  0  0  0
  144.5170  162.1490  134.1300 O   0  0  0  0  0  0  0  0  0  0  0  0
  144.9550  158.6090  133.4670 N   0  0  0  0  0  0  0  0  0  0  0  0
  143.7050  157.9240  133.6380 C   0  0  0  0  0  0  0  0  0  0  0  0
  142.8510  157.9170  132.7130 O   0  0  0  0  0  0  0  0  0  0  0  0
  143.4350  157.2390  134.8170 O   0  0  0  0  0  0  0  0  0  0  0  0
  146.1630  158.0350  133.2550 C   0  0  0  0  0  0  0  0  0  0  0  0
  146.4670  156.6780  133.1090 C   0  0  0  0  0  0  0  0  0  0  0  0
  147.2010  153.8740  132.8080 C   0  0  0  0  0  0  0  0  0  0  0  0
  147.5420  152.5280  132.6510 C   0  0  0  0  0  0  0  0  0  0  0  0
  148.5809  149.8314  134.0471 H   0  0  0  0  0  0  0  0  0  0  0  0
  147.4219  149.7567  132.6768 H   0  0  0  0  0  0  0  0  0  0  0  0
  148.8814  148.7096  132.6768 H   0  0  0  0  0  0  0  0  0  0  0  0
  151.2162  150.0633  132.0237 H   0  0  0  0  0  0  0  0  0  0  0  0
  150.0579  149.5128  130.7660 H   0  0  0  0  0  0  0  0  0  0  0  0
  150.6436  151.2109  130.7660 H   0  0  0  0  0  0  0  0  0  0  0  0
  150.9141  152.8795  132.1975 H   0  0  0  0  0  0  0  0  0  0  0  0
  150.3001  155.2710  132.4787 H   0  0  0  0  0  0  0  0  0  0  0  0
  149.8717  157.0234  132.7289 H   0  0  0  0  0  0  0  0  0  0  0  0
  149.2631  159.4423  133.0347 H   0  0  0  0  0  0  0  0  0  0  0  0
  147.0531  161.1913  133.5042 H   0  0  0  0  0  0  0  0  0  0  0  0
  142.5600  160.0760  132.6440 H   0  0  0  0  0  0  0  0  0  0  0  0
  145.6730  155.9175  133.1442 H   0  0  0  0  0  0  0  0  0  0  0  0
  146.1508  154.1525  132.9797 H   0  0  0  0  0  0  0  0  0  0  0  0
  146.7571  151.7590  132.7012 H   0  0  0  0  0  0  0  0  0  0  0  0
  1  2  1  0
  2  3  1  0
  2  4  1  0
  4  5  2  0
  5  6  1  0
  6  7  2  0
  7  8  1  0
  8  9  2  0
  9 10  1  0
 10 11  2  0
 11 12  1  0
 12 13  2  0
 13 14  1  0
 14 15  1  0
 14 16  2  0
 13 17  1  0
 17 18  1  0
 18 19  2  0
 18 20  1  0
 17 21  1  0
 21 22  2  0
  7 23  1  0
 23 24  2  0
 24  4  1  0
 22  8  1  0
 21 11  1  0
  1 25  1  0
  1 26  1  0
  1 27  1  0
  3 28  1  0
  3 29  1  0
  3 30  1  0
  5 31  1  0
  6 32  1  0
  9 33  1  0
 10 34  1  0
 12 35  1  0
 15 36  1  0
 22 37  1  0
 23 38  1  0
 24 39  1  0
M  CHG  2  15  -1  20  -1
M  END
>  <UniqueID>  (34) 
34

>  <SMILES>  (34) 
CN(C)c1ccc(-c2ccc3cc(C([NH-])=O)n(C(=O)[O-])c3c2)cc1

>  <Energy>  (34) 
88.14328228865666

>  <Genealogy>  (34) 
CN(C)c1ccc(-c2ccc3cc(C([NH-])=O)n(C(=O)[O-])c3c2)cc1 (protonated)
CN(C)c1ccc(-c2ccc3cc(C([NH-])=O)n(C(=O)[O-])c3c2)cc1 (3D coordinates assigned)
CN(C)c1ccc(-c2ccc3cc(C([NH-])=O)n(C(=O)[O-])c3c2)cc1 (optimized conformer: 88.14328228865666 kcal/mol)

>  <smiles>  (34) 
CN(C)c1ccc(-c2ccc3cc(C(N)=O)n(C(=O)O)c3c2)cc1

>  <score_type>  (34) 
oracle

>  <origin>  (34) 
adg

>  <m_score__min__energy>  (34) 
-7.5800000000000001

>  <m_primary>  (34) 
energy

$$$$
34:0
     RDKit          3D

 28 29  0  0  0  0  0  0  0  0999 V2000
  144.3890  161.5870  133.8150 C   0  0  0  0  0  0  0  0  0  0  0  0
  145.1960  160.4600  134.1270 O   0  0  0  0  0  0  0  0  0  0  0  0
  145.2630  159.3290  133.3070 C   0  0  0  0  0  0  0  0  0  0  0  0
  144.2440  158.9450  132.6700 O   0  0  0  0  0  0  0  0  0  0  0  0
  146.5030  158.6170  133.1720 N   0  0  0  0  0  0  0  0  0  0  0  0
  146.8040  157.3650  133.6180 C   0  0  0  0  0  0  0  0  0  0  0  0
  145.9560  156.5240  134.4880 C   0  0  0  0  0  0  0  0  0  0  0  0
  144.5380  156.6650  134.4890 N   0  0  0  0  0  0  0  0  0  0  0  0
  146.4940  155.7010  135.2760 O   0  0  0  0  0  0  0  0  0  0  0  0
  148.0830  156.9940  133.2070 C   0  0  0  0  0  0  0  0  0  0  0  0
  148.5650  158.0700  132.4970 C   0  0  0  0  0  0  0  0  0  0  0  0
  149.7830  158.2400  131.8460 C   0  0  0  0  0  0  0  0  0  0  0  0
  150.0000  159.4460  131.1600 C   0  0  0  0  0  0  0  0  0  0  0  0
  149.0060  160.4540  131.1400 C   0  0  0  0  0  0  0  0  0  0  0  0
  149.2300  161.7160  130.3600 C   0  0  0  0  0  0  0  0  0  0  0  0
  149.9380  161.4260  129.2090 F   0  0  0  0  0  0  0  0  0  0  0  0
  147.7750  160.2410  131.7990 C   0  0  0  0  0  0  0  0  0  0  0  0
  147.5920  159.0380  132.4910 C   0  0  0  0  0  0  0  0  0  0  0  0
  144.0482  162.0630  134.7463 H   0  0  0  0  0  0  0  0  0  0  0  0
  144.9773  162.3082  133.2286 H   0  0  0  0  0  0  0  0  0  0  0  0
  143.5168  161.2624  133.2286 H   0  0  0  0  0  0  0  0  0  0  0  0
  144.0900  157.5980  134.3470 H   0  0  0  0  0  0  0  0  0  0  0  0
  148.5980  156.0429  133.4075 H   0  0  0  0  0  0  0  0  0  0  0  0
  150.5522  157.4540  131.8680 H   0  0  0  0  0  0  0  0  0  0  0  0
  150.9517  159.6091  130.6330 H   0  0  0  0  0  0  0  0  0  0  0  0
  148.2593  162.1586  130.0918 H   0  0  0  0  0  0  0  0  0  0  0  0
  149.8013  162.4293  130.9723 H   0  0  0  0  0  0  0  0  0  0  0  0
  146.9804  161.0011  131.7692 H   0  0  0  0  0  0  0  0  0  0  0  0
  1  2  1  0
  2  3  1  0
  3  4  2  0
  3  5  1  0
  5  6  1  0
  6  7  1  0
  7  8  1  0
  7  9  2  0
  6 10  2  0
 10 11  1  0
 11 12  2  0
 12 13  1  0
 13 14  2  0
 14 15  1  0
 15 16  1  0
 14 17  1  0
 17 18  2  0
 18  5  1  0
 18 11  1  0
  1 19  1  0
  1 20  1  0
  1 21  1  0
  8 22  1  0
 10 23  1  0
 12 24  1  0
 13 25  1  0
 15 26  1  0
 15 27  1  0
 17 28  1  0
M  CHG  1   8  -1
M  END
>  <UniqueID>  (35) 
35

>  <SMILES>  (35) 
COC(=O)n1c(C([NH-])=O)cc2ccc(CF)cc21

>  <Energy>  (35) 
64.92461077058468

>  <Genealogy>  (35) 
COC(=O)n1c(C([NH-])=O)cc2ccc(CF)cc21 (protonated)
COC(=O)n1c(C([NH-])=O)cc2ccc(CF)cc21 (3D coordinates assigned)
COC(=O)n1c(C([NH-])=O)cc2ccc(CF)cc21 (optimized conformer: 64.92461077058468 kcal/mol)

>  <smiles>  (35) 
COC(=O)n1c(C(N)=O)cc2ccc(CF)cc21

>  <score_type>  (35) 
oracle

>  <origin>  (35) 
adg

>  <m_score__min__energy>  (35) 
-5.0899999999999999

>  <m_primary>  (35) 
energy

$$$$
35:0
     RDKit          3D

 38 39  0  0  0  0  0  0  0  0999 V2000
  147.7310  156.0000  135.1580 C   0  0  0  0  0  0  0  0  0  0  0  0
  146.6320  155.8040  134.1170 C   0  0  0  0  0  0  0  0  0  0  0  0
  146.8430  156.6620  132.9010 C   0  0  0  0  0  0  0  0  0  0  0  0
  147.0210  156.1250  131.7740 O   0  0  0  0  0  0  0  0  0  0  0  0
  146.6880  158.0870  132.9850 N   0  0  0  0  0  0  0  0  0  0  0  0
  147.6280  159.0510  132.7770 C   0  0  0  0  0  0  0  0  0  0  0  0
  149.0020  158.8260  132.2840 C   0  0  0  0  0  0  0  0  0  0  0  0
  149.5290  157.5030  132.2290 N   0  0  0  0  0  0  0  0  0  0  0  0
  149.7270  159.7950  131.9380 O   0  0  0  0  0  0  0  0  0  0  0  0
  147.0920  160.3140  133.0250 C   0  0  0  0  0  0  0  0  0  0  0  0
  145.7820  160.0890  133.3860 C   0  0  0  0  0  0  0  0  0  0  0  0
  144.7870  160.9850  133.7550 C   0  0  0  0  0  0  0  0  0  0  0  0
  143.5270  160.4690  134.1010 C   0  0  0  0  0  0  0  0  0  0  0  0
  143.2680  159.0660  134.0660 C   0  0  0  0  0  0  0  0  0  0  0  0
  141.9150  158.4630  134.4850 C   0  0  0  0  0  0  0  0  0  0  0  0
  140.8620  158.8600  133.4290 C   0  0  0  0  0  0  0  0  0  0  0  0
  141.9410  156.9210  134.5880 C   0  0  0  0  0  0  0  0  0  0  0  0
  141.5240  158.9920  135.8540 C   0  0  0  0  0  0  0  0  0  0  0  0
  140.9700  160.1180  135.9600 O   0  0  0  0  0  0  0  0  0  0  0  0
  141.8120  158.2720  137.0090 O   0  0  0  0  0  0  0  0  0  0  0  0
  144.3270  158.1930  133.7000 C   0  0  0  0  0  0  0  0  0  0  0  0
  145.5650  158.7390  133.3500 C   0  0  0  0  0  0  0  0  0  0  0  0
  147.2987  155.9229  136.1665 H   0  0  0  0  0  0  0  0  0  0  0  0
  148.5008  155.2250  135.0288 H   0  0  0  0  0  0  0  0  0  0  0  0
  148.1855  156.9934  135.0288 H   0  0  0  0  0  0  0  0  0  0  0  0
  146.6207  154.7483  133.8082 H   0  0  0  0  0  0  0  0  0  0  0  0
  145.6760  156.0970  134.5756 H   0  0  0  0  0  0  0  0  0  0  0  0
  149.0770  156.7700  131.6390 H   0  0  0  0  0  0  0  0  0  0  0  0
  147.6059  161.2836  132.9486 H   0  0  0  0  0  0  0  0  0  0  0  0
  144.9800  162.0677  133.7758 H   0  0  0  0  0  0  0  0  0  0  0  0
  142.7256  161.1588  134.4043 H   0  0  0  0  0  0  0  0  0  0  0  0
  139.9478  159.2047  133.9344 H   0  0  0  0  0  0  0  0  0  0  0  0
  141.2607  159.6695  132.8000 H   0  0  0  0  0  0  0  0  0  0  0  0
  140.6270  157.9888  132.8000 H   0  0  0  0  0  0  0  0  0  0  0  0
  141.9460  156.6243  135.6472 H   0  0  0  0  0  0  0  0  0  0  0  0
  141.0497  156.5055  134.0950 H   0  0  0  0  0  0  0  0  0  0  0  0
  142.8458  156.5358  134.0950 H   0  0  0  0  0  0  0  0  0  0  0  0
  144.1750  157.1036  133.6921 H   0  0  0  0  0  0  0  0  0  0  0  0
  1  2  1  0
  2  3  1  0
  3  4  2  0
  3  5  1  0
  5  6  1  0
  6  7  1  0
  7  8  1  0
  7  9  2  0
  6 10  2  0
 10 11  1  0
 11 12  2  0
 12 13  1  0
 13 14  2  0
 14 15  1  0
 15 16  1  0
 15 17  1  0
 15 18  1  0
 18 19  2  0
 18 20  1  0
 14 21  1  0
 21 22  2  0
 22  5  1  0
 22 11  1  0
  1 23  1  0
  1 24  1  0
  1 25  1  0
  2 26  1  0
  2 27  1  0
  8 28  1  0
 10 29  1  0
 12 30  1  0
 13 31  1  0
 16 32  1  0
 16 33  1  0
 16 34  1  0
 17 35  1  0
 17 36  1  0
 17 37  1  0
 21 38  1  0
M  CHG  2   8  -1  20  -1
M  END
>  <UniqueID>  (36) 
36

>  <SMILES>  (36) 
CCC(=O)n1c(C([NH-])=O)cc2ccc(C(C)(C)C(=O)[O-])cc21

>  <Energy>  (36) 
78.36061007648591

>  <Genealogy>  (36) 
CCC(=O)n1c(C([NH-])=O)cc2ccc(C(C)(C)C(=O)[O-])cc21 (protonated)
CCC(=O)n1c(C([NH-])=O)cc2ccc(C(C)(C)C(=O)[O-])cc21 (3D coordinates assigned)
CCC(=O)n1c(C([NH-])=O)cc2ccc(C(C)(C)C(=O)[O-])cc21 (optimized conformer: 78.36061007648591 kcal/mol)

>  <smiles>  (36) 
CCC(=O)n1c(C(N)=O)cc2ccc(C(C)(C)C(=O)O)cc21

>  <score_type>  (36) 
oracle

>  <origin>  (36) 
adg

>  <m_score__min__energy>  (36) 
-6.7000000000000002

>  <m_primary>  (36) 
energy

$$$$
36:0
     RDKit          3D

 49 51  0  0  0  0  0  0  0  0999 V2000
  139.5070  150.6920  131.5630 C   0  0  0  0  0  0  0  0  0  0  0  0
  140.6490  149.8670  131.9890 N   0  0  0  0  0  0  0  0  0  0  0  0
  140.6300  148.5560  131.3200 C   0  0  0  0  0  0  0  0  0  0  0  0
  140.7420  149.7500  133.4610 C   0  0  0  0  0  0  0  0  0  0  0  0
  141.3530  150.9650  134.1220 C   0  0  0  0  0  0  0  0  0  0  0  0
  141.1100  151.1880  135.3390 O   0  0  0  0  0  0  0  0  0  0  0  0
  142.1480  151.9010  133.3760 N   0  0  0  0  0  0  0  0  0  0  0  0
  143.3140  151.4650  132.6020 C   0  0  0  0  0  0  0  0  0  0  0  0
  144.5800  152.0820  133.2030 C   0  0  0  0  0  0  0  0  0  0  0  0
  144.3940  153.5260  133.4110 N   0  0  0  0  0  0  0  0  0  0  0  0
  145.5070  154.4230  133.2230 C   0  0  0  0  0  0  0  0  0  0  0  0
  146.8140  153.9150  133.0100 C   0  0  0  0  0  0  0  0  0  0  0  0
  147.9030  154.7850  132.8370 C   0  0  0  0  0  0  0  0  0  0  0  0
  147.6570  156.1530  132.8690 C   0  0  0  0  0  0  0  0  0  0  0  0
  148.5260  157.2100  132.7320 C   0  0  0  0  0  0  0  0  0  0  0  0
  147.7380  158.3540  132.8350 C   0  0  0  0  0  0  0  0  0  0  0  0
  148.2480  159.7270  132.6210 C   0  0  0  0  0  0  0  0  0  0  0  0
  147.3570  160.8440  132.6180 N   0  0  0  0  0  0  0  0  0  0  0  0
  149.4840  159.9290  132.4780 O   0  0  0  0  0  0  0  0  0  0  0  0
  146.4310  158.0170  133.0360 N   0  0  0  0  0  0  0  0  0  0  0  0
  145.3210  158.9070  133.2410 C   0  0  0  0  0  0  0  0  0  0  0  0
  144.2250  158.7060  132.6540 O   0  0  0  0  0  0  0  0  0  0  0  0
  145.4380  159.9890  134.1030 O   0  0  0  0  0  0  0  0  0  0  0  0
  146.3990  156.6640  133.0530 C   0  0  0  0  0  0  0  0  0  0  0  0
  145.2990  155.8210  133.2540 C   0  0  0  0  0  0  0  0  0  0  0  0
  143.2030  153.9700  134.1480 C   0  0  0  0  0  0  0  0  0  0  0  0
  141.9470  153.3420  133.5430 C   0  0  0  0  0  0  0  0  0  0  0  0
  138.9792  151.0733  132.4496 H   0  0  0  0  0  0  0  0  0  0  0  0
  139.8701  151.5377  130.9605 H   0  0  0  0  0  0  0  0  0  0  0  0
  138.8182  150.0816  130.9605 H   0  0  0  0  0  0  0  0  0  0  0  0
  140.6184  147.7581  132.0772 H   0  0  0  0  0  0  0  0  0  0  0  0
  139.7306  148.4781  130.6915 H   0  0  0  0  0  0  0  0  0  0  0  0
  141.5267  148.4521  130.6915 H   0  0  0  0  0  0  0  0  0  0  0  0
  139.7287  149.6061  133.8642 H   0  0  0  0  0  0  0  0  0  0  0  0
  141.4007  148.8962  133.6782 H   0  0  0  0  0  0  0  0  0  0  0  0
  143.3882  150.3680  132.6358 H   0  0  0  0  0  0  0  0  0  0  0  0
  143.2055  151.7911  131.5571 H   0  0  0  0  0  0  0  0  0  0  0  0
  144.7952  151.6009  134.1685 H   0  0  0  0  0  0  0  0  0  0  0  0
  145.4190  151.9253  132.5091 H   0  0  0  0  0  0  0  0  0  0  0  0
  146.9766  152.8275  132.9799 H   0  0  0  0  0  0  0  0  0  0  0  0
  148.9199  154.3957  132.6809 H   0  0  0  0  0  0  0  0  0  0  0  0
  149.6136  157.1622  132.5744 H   0  0  0  0  0  0  0  0  0  0  0  0
  146.3230  160.7120  132.6770 H   0  0  0  0  0  0  0  0  0  0  0  0
  147.7310  161.8130  132.5120 H   0  0  0  0  0  0  0  0  0  0  0  0
  144.2963  156.2369  133.4319 H   0  0  0  0  0  0  0  0  0  0  0  0
  143.2917  153.6643  135.2009 H   0  0  0  0  0  0  0  0  0  0  0  0
  143.1259  155.0653  134.0817 H   0  0  0  0  0  0  0  0  0  0  0  0
  141.0918  153.5169  134.2124 H   0  0  0  0  0  0  0  0  0  0  0  0
  141.7473  153.7984  132.5623 H   0  0  0  0  0  0  0  0  0  0  0  0
  1  2  1  0
  2  3  1  0
  2  4  1  0
  4  5  1  0
  5  6  2  0
  5  7  1  0
  7  8  1  0
  8  9  1  0
  9 10  1  0
 10 11  1  0
 11 12  2  0
 12 13  1  0
 13 14  2  0
 14 15  1  0
 15 16  2  0
 16 17  1  0
 17 18  1  0
 17 19  2  0
 16 20  1  0
 20 21  1  0
 21 22  2  0
 21 23  1  0
 20 24  1  0
 24 25  2  0
 10 26  1  0
 26 27  1  0
 27  7  1  0
 25 11  1  0
 24 14  1  0
  1 28  1  0
  1 29  1  0
  1 30  1  0
  3 31  1  0
  3 32  1  0
  3 33  1  0
  4 34  1  0
  4 35  1  0
  8 36  1  0
  8 37  1  0
  9 38  1  0
  9 39  1  0
 12 40  1  0
 13 41  1  0
 15 42  1  0
 18 43  1  0
 18 44  1  0
 25 45  1  0
 26 46  1  0
 26 47  1  0
 27 48  1  0
 27 49  1  0
M  CHG  1  23  -1
M  END
>  <UniqueID>  (37) 
37

>  <SMILES>  (37) 
CN(C)CC(=O)N1CCN(c2ccc3cc(C(N)=O)n(C(=O)[O-])c3c2)CC1

>  <Energy>  (37) 
97.20161521270585

>  <Genealogy>  (37) 
CN(C)CC(=O)N1CCN(c2ccc3cc(C(N)=O)n(C(=O)[O-])c3c2)CC1 (protonated)
CN(C)CC(=O)N1CCN(c2ccc3cc(C(N)=O)n(C(=O)[O-])c3c2)CC1 (3D coordinates assigned)
CN(C)CC(=O)N1CCN(c2ccc3cc(C(N)=O)n(C(=O)[O-])c3c2)CC1 (nonaromatic ring conformer: 97.20161521270585 kcal/mol)

>  <smiles>  (37) 
CN(C)CC(=O)N1CCN(c2ccc3cc(C(N)=O)n(C(=O)O)c3c2)CC1

>  <score_type>  (37) 
oracle

>  <origin>  (37) 
adg

>  <m_score__min__energy>  (37) 
-7.96

>  <m_primary>  (37) 
energy

$$$$
37:0
     RDKit          3D

 51 54  0  0  0  0  0  0  0  0999 V2000
  139.4090  159.9660  130.5600 C   0  0  0  0  0  0  0  0  0  0  0  0
  139.4680  159.1520  131.8200 C   0  0  0  0  0  0  0  0  0  0  0  0
  138.3160  158.4720  132.2920 C   0  0  0  0  0  0  0  0  0  0  0  0
  138.3550  157.7530  133.4980 C   0  0  0  0  0  0  0  0  0  0  0  0
  139.5500  157.7360  134.2100 C   0  0  0  0  0  0  0  0  0  0  0  0
  139.8490  157.1740  135.4290 C   0  0  0  0  0  0  0  0  0  0  0  0
  141.1790  157.5030  135.6720 C   0  0  0  0  0  0  0  0  0  0  0  0
  141.9200  157.0710  136.8760 C   0  0  0  0  0  0  0  0  0  0  0  0
  142.5920  155.8120  136.9310 N   0  0  0  0  0  0  0  0  0  0  0  0
  141.9130  157.8100  137.8980 O   0  0  0  0  0  0  0  0  0  0  0  0
  141.6820  158.2440  134.6460 N   0  0  0  0  0  0  0  0  0  0  0  0
  142.9820  158.8440  134.5570 C   0  0  0  0  0  0  0  0  0  0  0  0
  143.2330  159.9010  135.2050 O   0  0  0  0  0  0  0  0  0  0  0  0
  143.9650  158.2470  133.7610 O   0  0  0  0  0  0  0  0  0  0  0  0
  144.6230  157.0340  134.1170 C   0  0  0  0  0  0  0  0  0  0  0  0
  145.1690  156.3540  132.8560 C   0  0  2  0  0  0  0  0  0  0  0  0
  144.2540  155.3710  132.4170 O   0  0  0  0  0  0  0  0  0  0  0  0
  144.7810  154.0950  132.7420 C   0  0  2  0  0  0  0  0  0  0  0  0
  143.8290  153.3000  133.5560 N   0  0  0  0  0  0  0  0  0  0  0  0
  143.1040  152.2810  132.9950 C   0  0  0  0  0  0  0  0  0  0  0  0
  142.1130  151.6260  133.7210 C   0  0  0  0  0  0  0  0  0  0  0  0
  140.9780  150.0920  132.8070 I   0  0  0  0  0  0  0  0  0  0  0  0
  141.8870  152.0200  135.0430 C   0  0  0  0  0  0  0  0  0  0  0  0
  140.9840  151.4730  135.7260 O   0  0  0  0  0  0  0  0  0  0  0  0
  142.6450  153.0000  135.5950 N   0  0  0  0  0  0  0  0  0  0  0  0
  143.6070  153.6350  134.8750 C   0  0  0  0  0  0  0  0  0  0  0  0
  144.2820  154.5400  135.4370 O   0  0  0  0  0  0  0  0  0  0  0  0
  146.1060  154.2810  133.4850 C   0  0  1  0  0  0  0  0  0  0  0  0
  147.0540  153.3310  133.0780 O   0  0  0  0  0  0  0  0  0  0  0  0
  146.5140  155.6820  133.1130 C   0  0  1  0  0  0  0  0  0  0  0  0
  147.2800  155.6760  131.9360 O   0  0  0  0  0  0  0  0  0  0  0  0
  140.6740  158.3780  133.7600 C   0  0  0  0  0  0  0  0  0  0  0  0
  140.6630  159.1130  132.5690 C   0  0  0  0  0  0  0  0  0  0  0  0
  139.3317  161.0330  130.8161 H   0  0  0  0  0  0  0  0  0  0  0  0
  140.3218  159.7957  129.9703 H   0  0  0  0  0  0  0  0  0  0  0  0
  138.5303  159.6658  129.9703 H   0  0  0  0  0  0  0  0  0  0  0  0
  137.3842  158.5081  131.7086 H   0  0  0  0  0  0  0  0  0  0  0  0
  137.4673  157.2194  133.8684 H   0  0  0  0  0  0  0  0  0  0  0  0
  139.1786  156.5883  136.0752 H   0  0  0  0  0  0  0  0  0  0  0  0
  143.1590  155.5620  137.7710 H   0  0  0  0  0  0  0  0  0  0  0  0
  142.4490  155.0860  136.1970 H   0  0  0  0  0  0  0  0  0  0  0  0
  145.4545  157.2563  134.8019 H   0  0  0  0  0  0  0  0  0  0  0  0
  143.9065  156.3623  134.6124 H   0  0  0  0  0  0  0  0  0  0  0  0
  145.3061  157.1328  132.0913 H   0  0  0  0  0  0  0  0  0  0  0  0
  144.9516  153.5339  131.8114 H   0  0  0  0  0  0  0  0  0  0  0  0
  143.3078  151.9768  131.9577 H   0  0  0  0  0  0  0  0  0  0  0  0
  146.0197  154.1412  134.5727 H   0  0  0  0  0  0  0  0  0  0  0  0
  147.2330  153.5040  132.1160 H   0  0  0  0  0  0  0  0  0  0  0  0
  147.1264  156.1803  133.8790 H   0  0  0  0  0  0  0  0  0  0  0  0
  147.1010  154.8060  131.4900 H   0  0  0  0  0  0  0  0  0  0  0  0
  141.5620  159.6460  132.2261 H   0  0  0  0  0  0  0  0  0  0  0  0
  1  2  1  0
  2  3  2  0
  3  4  1  0
  4  5  2  0
  5  6  1  0
  6  7  2  0
  7  8  1  0
  8  9  1  0
  8 10  2  0
  7 11  1  0
 11 12  1  0
 12 13  2  0
 12 14  1  0
 14 15  1  0
 15 16  1  0
 16 17  1  0
 17 18  1  0
 18 19  1  0
 19 20  1  0
 20 21  2  0
 21 22  1  0
 21 23  1  0
 23 24  2  0
 23 25  1  0
 25 26  1  0
 26 27  2  0
 18 28  1  0
 28 29  1  0
 28 30  1  0
 30 31  1  0
 11 32  1  0
 32 33  2  0
 33  2  1  0
 32  5  1  0
 30 16  1  0
 26 19  1  0
  1 34  1  0
  1 35  1  0
  1 36  1  0
  3 37  1  0
  4 38  1  0
  6 39  1  0
  9 40  1  0
  9 41  1  0
 15 42  1  0
 15 43  1  0
 16 44  1  6
 18 45  1  6
 20 46  1  0
 28 47  1  1
 29 48  1  0
 30 49  1  1
 31 50  1  0
 33 51  1  0
M  CHG  1  25  -1
M  END
>  <UniqueID>  (38) 
38

>  <SMILES>  (38) 
Cc1ccc2cc(C(N)=O)n(C(=O)OC[C@@H]3O[C@H](n4cc(I)c(=O)[n-]c4=O)C(O)C3O)c2c1

>  <Energy>  (38) 
98.29861119897919

>  <Genealogy>  (38) 
Cc1ccc2cc(C(N)=O)n(C(=O)OCC3OC(n4cc(I)c(=O)[n-]c4=O)C(O)C3O)c2c1 (protonated)
Cc1ccc2cc(C(N)=O)n(C(=O)OC[C@@H]3O[C@H](n4cc(I)c(=O)[n-]c4=O)C(O)C3O)c2c1 (chirality)
Cc1ccc2cc(C(N)=O)n(C(=O)OC[C@@H]3O[C@H](n4cc(I)c(=O)[n-]c4=O)C(O)C3O)c2c1 (3D coordinates assigned)
Cc1ccc2cc(C(N)=O)n(C(=O)OC[C@@H]3O[C@H](n4cc(I)c(=O)[n-]c4=O)C(O)C3O)c2c1 (nonaromatic ring conformer: 98.29861119897919 kcal/mol)

>  <smiles>  (38) 
Cc1ccc2cc(C(N)=O)n(C(=O)OCC3OC(n4cc(I)c(=O)[nH]c4=O)C(O)C3O)c2c1

>  <score_type>  (38) 
oracle

>  <origin>  (38) 
adg

>  <m_score__min__energy>  (38) 
-10.48

>  <m_primary>  (38) 
energy

$$$$
38:0
     RDKit          3D

 30 32  0  0  0  0  0  0  0  0999 V2000
  140.4760  158.9840  136.4270 N   0  0  0  0  0  0  0  0  0  0  0  0
  140.8050  158.7630  135.0590 C   0  0  0  0  0  0  0  0  0  0  0  0
  139.8950  158.8090  134.1900 O   0  0  0  0  0  0  0  0  0  0  0  0
  142.2040  158.5390  134.6410 C   0  0  0  0  0  0  0  0  0  0  0  0
  142.8600  157.3180  134.7830 C   0  0  0  0  0  0  0  0  0  0  0  0
  144.0920  157.4940  134.1980 C   0  0  0  0  0  0  0  0  0  0  0  0
  145.1540  156.6060  134.0660 C   0  0  0  0  0  0  0  0  0  0  0  0
  146.3240  157.0670  133.4410 C   0  0  0  0  0  0  0  0  0  0  0  0
  146.4200  158.4020  132.9690 C   0  0  0  0  0  0  0  0  0  0  0  0
  147.6680  158.8820  132.3220 C   0  0  0  0  0  0  0  0  0  0  0  0
  147.6980  160.1080  131.6350 C   0  0  0  0  0  0  0  0  0  0  0  0
  148.8770  160.5460  131.0310 C   0  0  0  0  0  0  0  0  0  0  0  0
  150.0240  159.7560  131.1170 C   0  0  0  0  0  0  0  0  0  0  0  0
  149.9870  158.5730  131.7850 N   0  0  0  0  0  0  0  0  0  0  0  0
  148.8500  158.1220  132.3800 C   0  0  0  0  0  0  0  0  0  0  0  0
  145.3150  159.2740  133.1250 C   0  0  0  0  0  0  0  0  0  0  0  0
  144.1550  158.7820  133.7340 C   0  0  0  0  0  0  0  0  0  0  0  0
  143.0040  159.4400  134.0020 N   0  0  0  0  0  0  0  0  0  0  0  0
  142.7360  160.8270  133.7480 C   0  0  0  0  0  0  0  0  0  0  0  0
  143.6670  161.6740  133.7880 O   0  0  0  0  0  0  0  0  0  0  0  0
  141.4400  161.2540  133.4850 O   0  0  0  0  0  0  0  0  0  0  0  0
  139.4820  159.1080  136.7280 H   0  0  0  0  0  0  0  0  0  0  0  0
  142.4740  156.4060  135.2619 H   0  0  0  0  0  0  0  0  0  0  0  0
  145.0799  155.5741  134.4397 H   0  0  0  0  0  0  0  0  0  0  0  0
  147.1774  156.3843  133.3156 H   0  0  0  0  0  0  0  0  0  0  0  0
  146.7889  160.7242  131.5734 H   0  0  0  0  0  0  0  0  0  0  0  0
  148.9021  161.5047  130.4923 H   0  0  0  0  0  0  0  0  0  0  0  0
  150.9588  160.0910  130.6438 H   0  0  0  0  0  0  0  0  0  0  0  0
  148.8550  157.1577  132.9093 H   0  0  0  0  0  0  0  0  0  0  0  0
  145.3674  160.3155  132.7750 H   0  0  0  0  0  0  0  0  0  0  0  0
  1  2  1  0
  2  3  2  0
  2  4  1  0
  4  5  2  0
  5  6  1  0
  6  7  2  0
  7  8  1  0
  8  9  2  0
  9 10  1  0
 10 11  2  0
 11 12  1  0
 12 13  2  0
 13 14  1  0
 14 15  2  0
  9 16  1  0
 16 17  2  0
 17 18  1  0
 18 19  1  0
 19 20  2  0
 19 21  1  0
 18  4  1  0
 17  6  1  0
 15 10  1  0
  1 22  1  0
  5 23  1  0
  7 24  1  0
  8 25  1  0
 11 26  1  0
 12 27  1  0
 13 28  1  0
 15 29  1  0
 16 30  1  0
M  CHG  2   1  -1  21  -1
M  END
>  <UniqueID>  (39) 
39

>  <SMILES>  (39) 
[NH-]C(=O)c1cc2ccc(-c3cccnc3)cc2n1C(=O)[O-]

>  <Energy>  (39) 
78.97279809599095

>  <Genealogy>  (39) 
[NH-]C(=O)c1cc2ccc(-c3cccnc3)cc2n1C(=O)[O-] (protonated)
[NH-]C(=O)c1cc2ccc(-c3cccnc3)cc2n1C(=O)[O-] (3D coordinates assigned)
[NH-]C(=O)c1cc2ccc(-c3cccnc3)cc2n1C(=O)[O-] (optimized conformer: 78.97279809599095 kcal/mol)

>  <smiles>  (39) 
NC(=O)c1cc2ccc(-c3cccnc3)cc2n1C(=O)O

>  <score_type>  (39) 
oracle

>  <origin>  (39) 
adg

>  <m_score__min__energy>  (39) 
-7.21

>  <m_primary>  (39) 
energy

$$$$
39:0
     RDKit          3D

 43 45  0  0  0  0  0  0  0  0999 V2000
  139.3240  146.3560  129.8550 C   0  0  0  0  0  0  0  0  0  0  0  0
  139.3840  147.6260  130.5630 N   0  0  0  0  0  0  0  0  0  0  0  0
  140.5060  148.2570  130.9530 C   0  0  0  0  0  0  0  0  0  0  0  0
  140.1450  149.4630  131.5310 C   0  0  0  0  0  0  0  0  0  0  0  0
  141.0400  150.4980  132.1060 C   0  0  0  0  0  0  0  0  0  0  0  0
  142.3760  150.1760  132.4670 C   0  0  0  0  0  0  0  0  0  0  0  0
  143.2260  151.1460  133.0230 C   0  0  0  0  0  0  0  0  0  0  0  0
  142.7240  152.4280  133.2040 C   0  0  0  0  0  0  0  0  0  0  0  0
  143.3220  153.5440  133.7450 C   0  0  0  0  0  0  0  0  0  0  0  0
  142.3540  154.5450  133.6910 C   0  0  0  0  0  0  0  0  0  0  0  0
  142.5940  155.9500  134.0900 C   0  0  0  0  0  0  0  0  0  0  0  0
  142.2740  157.0250  133.2040 N   0  0  0  0  0  0  0  0  0  0  0  0
  143.0570  156.2120  135.2300 O   0  0  0  0  0  0  0  0  0  0  0  0
  141.2030  154.0660  133.1390 N   0  0  0  0  0  0  0  0  0  0  0  0
  139.9580  154.7640  132.9750 C   0  0  0  0  0  0  0  0  0  0  0  0
  138.8710  154.1220  132.9800 O   0  0  0  0  0  0  0  0  0  0  0  0
  139.9560  156.1540  132.8190 O   0  0  0  0  0  0  0  0  0  0  0  0
  139.1080  157.0280  133.5600 C   0  0  0  0  0  0  0  0  0  0  0  0
  138.7920  158.2860  132.7430 C   0  0  0  0  0  0  0  0  0  0  0  0
  139.9460  159.2900  132.7770 C   0  0  0  0  0  0  0  0  0  0  0  0
  141.0190  158.8190  132.0100 O   0  0  0  0  0  0  0  0  0  0  0  0
  141.4470  152.7680  132.8470 C   0  0  0  0  0  0  0  0  0  0  0  0
  140.5690  151.8190  132.3080 C   0  0  0  0  0  0  0  0  0  0  0  0
  138.7600  149.4930  131.4390 C   0  0  0  0  0  0  0  0  0  0  0  0
  138.3240  148.3680  130.8380 N   0  0  0  0  0  0  0  0  0  0  0  0
  139.2851  145.5320  130.5827 H   0  0  0  0  0  0  0  0  0  0  0  0
  138.4236  146.3304  129.2236 H   0  0  0  0  0  0  0  0  0  0  0  0
  140.2179  146.2456  129.2236 H   0  0  0  0  0  0  0  0  0  0  0  0
  141.5326  147.8805  130.8336 H   0  0  0  0  0  0  0  0  0  0  0  0
  142.7495  149.1535  132.3089 H   0  0  0  0  0  0  0  0  0  0  0  0
  144.2593  150.8974  133.3068 H   0  0  0  0  0  0  0  0  0  0  0  0
  144.3465  153.6277  134.1367 H   0  0  0  0  0  0  0  0  0  0  0  0
  142.4100  158.0140  133.5110 H   0  0  0  0  0  0  0  0  0  0  0  0
  141.9390  156.8470  132.2320 H   0  0  0  0  0  0  0  0  0  0  0  0
  138.1697  156.5060  133.7991 H   0  0  0  0  0  0  0  0  0  0  0  0
  139.6226  157.3240  134.4860 H   0  0  0  0  0  0  0  0  0  0  0  0
  138.6040  157.9947  131.6990 H   0  0  0  0  0  0  0  0  0  0  0  0
  137.9069  158.7672  133.1846 H   0  0  0  0  0  0  0  0  0  0  0  0
  139.6027  160.2523  132.3694 H   0  0  0  0  0  0  0  0  0  0  0  0
  140.2782  159.4202  133.8175 H   0  0  0  0  0  0  0  0  0  0  0  0
  141.4070  159.6140  131.5630 H   0  0  0  0  0  0  0  0  0  0  0  0
  139.5362  152.0933  132.0472 H   0  0  0  0  0  0  0  0  0  0  0  0
  138.1174  150.3092  131.8008 H   0  0  0  0  0  0  0  0  0  0  0  0
  1  2  1  0
  2  3  1  0
  3  4  2  0
  4  5  1  0
  5  6  2  0
  6  7  1  0
  7  8  2  0
  8  9  1  0
  9 10  2  0
 10 11  1  0
 11 12  1  0
 11 13  2  0
 10 14  1  0
 14 15  1  0
 15 16  2  0
 15 17  1  0
 17 18  1  0
 18 19  1  0
 19 20  1  0
 20 21  1  0
 14 22  1  0
 22 23  2  0
  4 24  1  0
 24 25  2  0
 25  2  1  0
 23  5  1  0
 22  8  1  0
  1 26  1  0
  1 27  1  0
  1 28  1  0
  3 29  1  0
  6 30  1  0
  7 31  1  0
  9 32  1  0
 12 33  1  0
 12 34  1  0
 18 35  1  0
 18 36  1  0
 19 37  1  0
 19 38  1  0
 20 39  1  0
 20 40  1  0
 21 41  1  0
 23 42  1  0
 24 43  1  0
M  END
>  <UniqueID>  (40) 
40

>  <SMILES>  (40) 
Cn1cc(-c2ccc3cc(C(N)=O)n(C(=O)OCCCO)c3c2)cn1

>  <Energy>  (40) 
108.73501504609771

>  <Genealogy>  (40) 
Cn1cc(-c2ccc3cc(C(N)=O)n(C(=O)OCCCO)c3c2)cn1 (3D coordinates assigned)
Cn1cc(-c2ccc3cc(C(N)=O)n(C(=O)OCCCO)c3c2)cn1 (optimized conformer: 108.73501504609771 kcal/mol)

>  <smiles>  (40) 
Cn1cc(-c2ccc3cc(C(N)=O)n(C(=O)OCCCO)c3c2)cn1

>  <score_type>  (40) 
oracle

>  <origin>  (40) 
adg

>  <m_score__min__energy>  (40) 
-7.2300000000000004

>  <m_primary>  (40) 
energy

$$$$
40:0
     RDKit          3D

 44 47  0  0  0  0  0  0  0  0999 V2000
  140.5710  156.0650  133.0890 N   0  0  0  0  0  0  0  0  0  0  0  0
  140.7790  157.2520  133.8540 C   0  0  0  0  0  0  0  0  0  0  0  0
  139.8630  157.6640  134.6150 O   0  0  0  0  0  0  0  0  0  0  0  0
  142.0660  157.9770  133.8120 C   0  0  0  0  0  0  0  0  0  0  0  0
  142.1710  159.3640  133.8880 C   0  0  0  0  0  0  0  0  0  0  0  0
  143.5210  159.6280  133.8370 C   0  0  0  0  0  0  0  0  0  0  0  0
  144.1950  160.8450  133.8460 C   0  0  0  0  0  0  0  0  0  0  0  0
  145.5950  160.8250  133.7280 C   0  0  0  0  0  0  0  0  0  0  0  0
  146.2930  159.5980  133.5910 C   0  0  0  0  0  0  0  0  0  0  0  0
  147.8030  159.5980  133.4350 C   0  0  0  0  0  0  0  0  0  0  0  0
  148.4130  158.1930  133.5700 C   0  0  0  0  0  0  0  0  0  0  0  0
  149.0700  157.8780  132.2340 C   0  0  0  0  0  0  0  0  0  0  0  0
  149.3570  159.2220  131.5930 C   0  0  0  0  0  0  0  0  0  0  0  0
  148.2420  160.1390  132.0660 C   0  0  0  0  0  0  0  0  0  0  0  0
  145.5680  158.3830  133.5740 C   0  0  0  0  0  0  0  0  0  0  0  0
  144.1790  158.4310  133.7250 C   0  0  0  0  0  0  0  0  0  0  0  0
  143.2980  157.4060  133.7130 N   0  0  0  0  0  0  0  0  0  0  0  0
  143.5970  156.0180  133.4940 C   0  0  0  0  0  0  0  0  0  0  0  0
  142.8970  155.1360  134.0630 O   0  0  0  0  0  0  0  0  0  0  0  0
  144.7510  155.6180  132.6070 C   0  0  0  0  0  0  0  0  0  0  0  0
  145.7400  154.6620  133.2550 C   0  0  0  0  0  0  0  0  0  0  0  0
  145.4130  153.5720  132.3330 N   0  0  0  0  0  0  0  0  0  0  0  0
  144.4460  154.4540  131.6780 C   0  0  0  0  0  0  0  0  0  0  0  0
  139.6360  155.6000  133.0890 H   0  0  0  0  0  0  0  0  0  0  0  0
  141.3610  155.5870  132.6050 H   0  0  0  0  0  0  0  0  0  0  0  0
  141.3508  160.0923  133.9710 H   0  0  0  0  0  0  0  0  0  0  0  0
  143.6482  161.7946  133.9426 H   0  0  0  0  0  0  0  0  0  0  0  0
  146.1557  161.7713  133.7420 H   0  0  0  0  0  0  0  0  0  0  0  0
  148.1642  160.2478  134.2457 H   0  0  0  0  0  0  0  0  0  0  0  0
  149.1627  158.1798  134.3748 H   0  0  0  0  0  0  0  0  0  0  0  0
  147.6441  157.4475  133.8212 H   0  0  0  0  0  0  0  0  0  0  0  0
  150.0047  157.3189  132.3882 H   0  0  0  0  0  0  0  0  0  0  0  0
  148.4229  157.2546  131.5994 H   0  0  0  0  0  0  0  0  0  0  0  0
  150.3350  159.6041  131.9208 H   0  0  0  0  0  0  0  0  0  0  0  0
  149.3932  159.1532  130.4958 H   0  0  0  0  0  0  0  0  0  0  0  0
  148.6106  161.1709  132.1628 H   0  0  0  0  0  0  0  0  0  0  0  0
  147.4051  160.1580  131.3524 H   0  0  0  0  0  0  0  0  0  0  0  0
  146.0862  157.4213  133.4448 H   0  0  0  0  0  0  0  0  0  0  0  0
  145.0303  156.6202  132.2497 H   0  0  0  0  0  0  0  0  0  0  0  0
  146.7848  154.9980  133.1809 H   0  0  0  0  0  0  0  0  0  0  0  0
  145.6667  154.4789  134.3372 H   0  0  0  0  0  0  0  0  0  0  0  0
  146.2250  153.4290  131.6860 H   0  0  0  0  0  0  0  0  0  0  0  0
  144.6875  154.6611  130.6250 H   0  0  0  0  0  0  0  0  0  0  0  0
  143.4040  154.1153  131.5803 H   0  0  0  0  0  0  0  0  0  0  0  0
  1  2  1  0
  2  3  2  0
  2  4  1  0
  4  5  2  0
  5  6  1  0
  6  7  2  0
  7  8  1  0
  8  9  2  0
  9 10  1  0
 10 11  1  0
 11 12  1  0
 12 13  1  0
 13 14  1  0
  9 15  1  0
 15 16  2  0
 16 17  1  0
 17 18  1  0
 18 19  2  0
 18 20  1  0
 20 21  1  0
 21 22  1  0
 22 23  1  0
 17  4  1  0
 23 20  1  0
 16  6  1  0
 14 10  1  0
  1 24  1  0
  1 25  1  0
  5 26  1  0
  7 27  1  0
  8 28  1  0
 10 29  1  0
 11 30  1  0
 11 31  1  0
 12 32  1  0
 12 33  1  0
 13 34  1  0
 13 35  1  0
 14 36  1  0
 14 37  1  0
 15 38  1  0
 20 39  1  0
 21 40  1  0
 21 41  1  0
 22 42  1  0
 23 43  1  0
 23 44  1  0
M  END
>  <UniqueID>  (41) 
41

>  <SMILES>  (41) 
NC(=O)c1cc2ccc(C3CCCC3)cc2n1C(=O)C1CNC1

>  <Energy>  (41) 
153.53692191227142

>  <Genealogy>  (41) 
NC(=O)c1cc2ccc(C3CCCC3)cc2n1C(=O)C1CNC1 (3D coordinates assigned)
NC(=O)c1cc2ccc(C3CCCC3)cc2n1C(=O)C1CNC1 (nonaromatic ring conformer: 153.53692191227142 kcal/mol)

>  <smiles>  (41) 
NC(=O)c1cc2ccc(C3CCCC3)cc2n1C(=O)C1CNC1

>  <score_type>  (41) 
oracle

>  <origin>  (41) 
adg

>  <m_score__min__energy>  (41) 
-8.9000000000000004

>  <m_primary>  (41) 
energy

$$$$
41:0
     RDKit          3D

 30 31  0  0  0  0  0  0  0  0999 V2000
  149.6090  162.2060  130.3520 C   0  0  0  0  0  0  0  0  0  0  0  0
  149.8770  160.8560  129.8800 N   0  0  0  0  0  0  0  0  0  0  0  0
  149.5240  159.6910  130.6310 C   0  0  0  0  0  0  0  0  0  0  0  0
  149.2280  158.6160  130.0410 O   0  0  0  0  0  0  0  0  0  0  0  0
  149.4570  159.7630  132.1220 C   0  0  0  0  0  0  0  0  0  0  0  0
  148.1170  159.2790  132.6020 C   0  0  0  0  0  0  0  0  0  0  0  0
  147.8080  157.8960  132.5650 C   0  0  0  0  0  0  0  0  0  0  0  0
  146.5430  157.4350  132.9670 C   0  0  0  0  0  0  0  0  0  0  0  0
  145.6110  158.3760  133.3960 C   0  0  0  0  0  0  0  0  0  0  0  0
  144.3090  158.2080  133.8060 C   0  0  0  0  0  0  0  0  0  0  0  0
  143.8460  159.4880  134.0990 C   0  0  0  0  0  0  0  0  0  0  0  0
  142.5070  159.7560  134.6620 C   0  0  0  0  0  0  0  0  0  0  0  0
  141.5530  160.5360  133.9450 N   0  0  0  0  0  0  0  0  0  0  0  0
  142.2170  159.3350  135.8130 O   0  0  0  0  0  0  0  0  0  0  0  0
  144.8190  160.4140  133.8690 N   0  0  0  0  0  0  0  0  0  0  0  0
  144.7080  161.8440  133.9540 C   0  0  0  0  0  0  0  0  0  0  0  0
  143.7570  162.4440  133.3870 O   0  0  0  0  0  0  0  0  0  0  0  0
  145.6340  162.5770  134.6850 O   0  0  0  0  0  0  0  0  0  0  0  0
  145.8960  159.7170  133.4430 C   0  0  0  0  0  0  0  0  0  0  0  0
  147.1420  160.2050  133.0320 C   0  0  0  0  0  0  0  0  0  0  0  0
  149.6070  162.2162  131.4520 H   0  0  0  0  0  0  0  0  0  0  0  0
  150.3897  162.8861  129.9804 H   0  0  0  0  0  0  0  0  0  0  0  0
  148.6277  162.5363  129.9804 H   0  0  0  0  0  0  0  0  0  0  0  0
  150.2478  159.1314  132.5528 H   0  0  0  0  0  0  0  0  0  0  0  0
  149.5979  160.8068  132.4391 H   0  0  0  0  0  0  0  0  0  0  0  0
  148.5653  157.1773  132.2185 H   0  0  0  0  0  0  0  0  0  0  0  0
  146.2966  156.3632  132.9434 H   0  0  0  0  0  0  0  0  0  0  0  0
  143.7517  157.2629  133.8856 H   0  0  0  0  0  0  0  0  0  0  0  0
  141.8220  161.4440  133.5060 H   0  0  0  0  0  0  0  0  0  0  0  0
  147.3562  161.2839  133.0438 H   0  0  0  0  0  0  0  0  0  0  0  0
  1  2  1  0
  2  3  1  0
  3  4  2  0
  3  5  1  0
  5  6  1  0
  6  7  2  0
  7  8  1  0
  8  9  2  0
  9 10  1  0
 10 11  2  0
 11 12  1  0
 12 13  1  0
 12 14  2  0
 11 15  1  0
 15 16  1  0
 16 17  2  0
 16 18  1  0
 15 19  1  0
 19 20  2  0
 20  6  1  0
 19  9  1  0
  1 21  1  0
  1 22  1  0
  1 23  1  0
  5 24  1  0
  5 25  1  0
  7 26  1  0
  8 27  1  0
 10 28  1  0
 13 29  1  0
 20 30  1  0
M  CHG  3   2  -1  13  -1  18  -1
M  END
>  <UniqueID>  (42) 
42

>  <SMILES>  (42) 
C[N-]C(=O)Cc1ccc2cc(C([NH-])=O)n(C(=O)[O-])c2c1

>  <Energy>  (42) 
65.59182530369416

>  <Genealogy>  (42) 
C[N-]C(=O)Cc1ccc2cc(C([NH-])=O)n(C(=O)[O-])c2c1 (protonated)
C[N-]C(=O)Cc1ccc2cc(C([NH-])=O)n(C(=O)[O-])c2c1 (3D coordinates assigned)
C[N-]C(=O)Cc1ccc2cc(C([NH-])=O)n(C(=O)[O-])c2c1 (optimized conformer: 65.59182530369416 kcal/mol)

>  <smiles>  (42) 
CNC(=O)Cc1ccc2cc(C(N)=O)n(C(=O)O)c2c1

>  <score_type>  (42) 
oracle

>  <origin>  (42) 
adg

>  <m_score__min__energy>  (42) 
-6.3200000000000003

>  <m_primary>  (42) 
energy

$$$$
42:0
     RDKit          3D

 34 36  0  0  0  0  0  0  0  0999 V2000
  149.1660  156.2620  132.6540 N   0  0  0  0  0  0  0  0  0  0  0  0
  147.7390  156.2200  132.5980 C   0  0  0  0  0  0  0  0  0  0  0  0
  147.1720  155.1540  132.2380 O   0  0  0  0  0  0  0  0  0  0  0  0
  146.9280  157.4110  132.9410 C   0  0  0  0  0  0  0  0  0  0  0  0
  145.5730  157.3720  133.2750 C   0  0  0  0  0  0  0  0  0  0  0  0
  145.2410  158.6680  133.6020 C   0  0  0  0  0  0  0  0  0  0  0  0
  144.0230  159.2090  134.0040 C   0  0  0  0  0  0  0  0  0  0  0  0
  143.9690  160.5900  134.2630 C   0  0  0  0  0  0  0  0  0  0  0  0
  145.1260  161.3970  134.1230 C   0  0  0  0  0  0  0  0  0  0  0  0
  145.0470  162.8780  134.3650 C   0  0  0  0  0  0  0  0  0  0  0  0
  144.0290  163.4910  133.4570 C   0  0  0  0  0  0  0  0  0  0  0  0
  142.8610  163.0220  133.4060 O   0  0  0  0  0  0  0  0  0  0  0  0
  144.3540  164.6140  132.7060 O   0  0  0  0  0  0  0  0  0  0  0  0
  146.3430  160.8130  133.7050 C   0  0  0  0  0  0  0  0  0  0  0  0
  146.3660  159.4360  133.4630 C   0  0  0  0  0  0  0  0  0  0  0  0
  147.4060  158.6810  133.0520 N   0  0  0  0  0  0  0  0  0  0  0  0
  148.7310  159.1540  132.7680 C   0  0  0  0  0  0  0  0  0  0  0  0
  149.6000  159.1510  133.6810 O   0  0  0  0  0  0  0  0  0  0  0  0
  149.0770  159.6790  131.4360 C   0  0  0  0  0  0  0  0  0  0  0  0
  149.2780  161.0030  131.1020 C   0  0  0  0  0  0  0  0  0  0  0  0
  149.5580  161.0040  129.7500 C   0  0  0  0  0  0  0  0  0  0  0  0
  149.5270  159.7750  129.2880 O   0  0  0  0  0  0  0  0  0  0  0  0
  149.2380  158.9550  130.2710 C   0  0  0  0  0  0  0  0  0  0  0  0
  149.7250  155.4250  132.3760 H   0  0  0  0  0  0  0  0  0  0  0  0
  149.6730  157.1010  133.0110 H   0  0  0  0  0  0  0  0  0  0  0  0
  144.9114  156.4932  133.2766 H   0  0  0  0  0  0  0  0  0  0  0  0
  143.1305  158.5758  134.1156 H   0  0  0  0  0  0  0  0  0  0  0  0
  143.0198  161.0486  134.5773 H   0  0  0  0  0  0  0  0  0  0  0  0
  144.7597  163.0614  135.4109 H   0  0  0  0  0  0  0  0  0  0  0  0
  146.0294  163.3298  134.1633 H   0  0  0  0  0  0  0  0  0  0  0  0
  147.2476  161.4250  133.5736 H   0  0  0  0  0  0  0  0  0  0  0  0
  149.2261  161.8740  131.7719 H   0  0  0  0  0  0  0  0  0  0  0  0
  149.7746  161.9000  129.1497 H   0  0  0  0  0  0  0  0  0  0  0  0
  149.1395  157.8631  130.1812 H   0  0  0  0  0  0  0  0  0  0  0  0
  1  2  1  0
  2  3  2  0
  2  4  1  0
  4  5  2  0
  5  6  1  0
  6  7  2  0
  7  8  1  0
  8  9  2  0
  9 10  1  0
 10 11  1  0
 11 12  2  0
 11 13  1  0
  9 14  1  0
 14 15  2  0
 15 16  1  0
 16 17  1  0
 17 18  2  0
 17 19  1  0
 19 20  1  0
 20 21  2  0
 21 22  1  0
 22 23  1  0
 16  4  1  0
 23 19  2  0
 15  6  1  0
  1 24  1  0
  1 25  1  0
  5 26  1  0
  7 27  1  0
  8 28  1  0
 10 29  1  0
 10 30  1  0
 14 31  1  0
 20 32  1  0
 21 33  1  0
 23 34  1  0
M  CHG  1  13  -1
M  END
>  <UniqueID>  (43) 
43

>  <SMILES>  (43) 
NC(=O)c1cc2ccc(CC(=O)[O-])cc2n1C(=O)c1ccoc1

>  <Energy>  (43) 
100.18776110638723

>  <Genealogy>  (43) 
NC(=O)c1cc2ccc(CC(=O)[O-])cc2n1C(=O)c1ccoc1 (protonated)
NC(=O)c1cc2ccc(CC(=O)[O-])cc2n1C(=O)c1ccoc1 (3D coordinates assigned)
NC(=O)c1cc2ccc(CC(=O)[O-])cc2n1C(=O)c1ccoc1 (optimized conformer: 100.18776110638723 kcal/mol)

>  <smiles>  (43) 
NC(=O)c1cc2ccc(CC(=O)O)cc2n1C(=O)c1ccoc1

>  <score_type>  (43) 
oracle

>  <origin>  (43) 
adg

>  <m_score__min__energy>  (43) 
-7.1200000000000001

>  <m_primary>  (43) 
energy

$$$$
43:0
     RDKit          3D

 40 41  0  0  0  0  0  0  0  0999 V2000
  149.6090  160.9170  129.2280 C   0  0  0  0  0  0  0  0  0  0  0  0
  149.4830  160.4180  130.6080 N   0  0  0  0  0  0  0  0  0  0  0  0
  148.4840  161.2180  131.3370 C   0  0  0  0  0  0  0  0  0  0  0  0
  149.1140  158.9840  130.6240 C   0  0  0  0  0  0  0  0  0  0  0  0
  149.8190  158.2510  131.7690 C   0  0  0  0  0  0  0  0  0  0  0  0
  148.8390  157.6590  132.6750 N   0  0  0  0  0  0  0  0  0  0  0  0
  148.0590  158.4110  133.6100 C   0  0  0  0  0  0  0  0  0  0  0  0
  148.6340  159.1150  134.4820 O   0  0  0  0  0  0  0  0  0  0  0  0
  146.6210  158.3300  133.5720 N   0  0  0  0  0  0  0  0  0  0  0  0
  145.8590  157.2400  133.2770 C   0  0  0  0  0  0  0  0  0  0  0  0
  146.3570  155.8710  133.0740 C   0  0  0  0  0  0  0  0  0  0  0  0
  147.2720  155.5770  132.0200 N   0  0  0  0  0  0  0  0  0  0  0  0
  146.0370  154.9670  133.8910 O   0  0  0  0  0  0  0  0  0  0  0  0
  144.5180  157.5910  133.1530 C   0  0  0  0  0  0  0  0  0  0  0  0
  144.4730  158.9400  133.4150 C   0  0  0  0  0  0  0  0  0  0  0  0
  143.3860  159.8080  133.4450 C   0  0  0  0  0  0  0  0  0  0  0  0
  143.6270  161.1550  133.7660 C   0  0  0  0  0  0  0  0  0  0  0  0
  144.9370  161.6050  134.0740 C   0  0  0  0  0  0  0  0  0  0  0  0
  145.1870  163.0570  134.3880 C   0  0  0  0  0  0  0  0  0  0  0  0
  145.2480  163.2600  135.7560 F   0  0  0  0  0  0  0  0  0  0  0  0
  144.1580  163.8180  133.8670 F   0  0  0  0  0  0  0  0  0  0  0  0
  146.3840  163.4790  133.8360 F   0  0  0  0  0  0  0  0  0  0  0  0
  146.0190  160.6960  134.0070 C   0  0  0  0  0  0  0  0  0  0  0  0
  145.7530  159.3640  133.6660 C   0  0  0  0  0  0  0  0  0  0  0  0
  149.8782  161.9834  129.2468 H   0  0  0  0  0  0  0  0  0  0  0  0
  150.3922  160.3503  128.7032 H   0  0  0  0  0  0  0  0  0  0  0  0
  148.6506  160.7900  128.7032 H   0  0  0  0  0  0  0  0  0  0  0  0
  148.6360  161.0963  132.4196 H   0  0  0  0  0  0  0  0  0  0  0  0
  148.5964  162.2786  131.0679 H   0  0  0  0  0  0  0  0  0  0  0  0
  147.4736  160.8765  131.0679 H   0  0  0  0  0  0  0  0  0  0  0  0
  148.0255  158.8936  130.7547 H   0  0  0  0  0  0  0  0  0  0  0  0
  149.4256  158.5303  129.6716 H   0  0  0  0  0  0  0  0  0  0  0  0
  150.4547  157.4555  131.3530 H   0  0  0  0  0  0  0  0  0  0  0  0
  150.4328  158.9717  132.3293 H   0  0  0  0  0  0  0  0  0  0  0  0
  147.6580  156.3420  131.4230 H   0  0  0  0  0  0  0  0  0  0  0  0
  147.6040  154.5990  131.8690 H   0  0  0  0  0  0  0  0  0  0  0  0
  143.6752  156.9310  132.8998 H   0  0  0  0  0  0  0  0  0  0  0  0
  142.3692  159.4510  133.2243 H   0  0  0  0  0  0  0  0  0  0  0  0
  142.7902  161.8688  133.7786 H   0  0  0  0  0  0  0  0  0  0  0  0
  147.0462  161.0280  134.2180 H   0  0  0  0  0  0  0  0  0  0  0  0
  1  2  1  0
  2  3  1  0
  2  4  1  0
  4  5  1  0
  5  6  1  0
  6  7  1  0
  7  8  2  0
  7  9  1  0
  9 10  1  0
 10 11  1  0
 11 12  1  0
 11 13  2  0
 10 14  2  0
 14 15  1  0
 15 16  2  0
 16 17  1  0
 17 18  2  0
 18 19  1  0
 19 20  1  0
 19 21  1  0
 19 22  1  0
 18 23  1  0
 23 24  2  0
 24  9  1  0
 24 15  1  0
  1 25  1  0
  1 26  1  0
  1 27  1  0
  3 28  1  0
  3 29  1  0
  3 30  1  0
  4 31  1  0
  4 32  1  0
  5 33  1  0
  5 34  1  0
 12 35  1  0
 12 36  1  0
 14 37  1  0
 16 38  1  0
 17 39  1  0
 23 40  1  0
M  CHG  1   6  -1
M  END
>  <UniqueID>  (44) 
44

>  <SMILES>  (44) 
CN(C)CC[N-]C(=O)n1c(C(N)=O)cc2ccc(C(F)(F)F)cc21

>  <Energy>  (44) 
80.05275204605641

>  <Genealogy>  (44) 
CN(C)CC[N-]C(=O)n1c(C(N)=O)cc2ccc(C(F)(F)F)cc21 (protonated)
CN(C)CC[N-]C(=O)n1c(C(N)=O)cc2ccc(C(F)(F)F)cc21 (3D coordinates assigned)
CN(C)CC[N-]C(=O)n1c(C(N)=O)cc2ccc(C(F)(F)F)cc21 (optimized conformer: 80.05275204605641 kcal/mol)

>  <smiles>  (44) 
CN(C)CCNC(=O)n1c(C(N)=O)cc2ccc(C(F)(F)F)cc21

>  <score_type>  (44) 
oracle

>  <origin>  (44) 
adg

>  <m_score__min__energy>  (44) 
-6.6299999999999999

>  <m_primary>  (44) 
energy

$$$$
44:0
     RDKit          3D

 52 54  0  0  0  0  0  0  0  0999 V2000
  144.3640  154.5270  131.5300 C   0  0  0  0  0  0  0  0  0  0  0  0
  145.3880  154.9910  132.5540 C   0  0  0  0  0  0  0  0  0  0  0  0
  145.1690  156.3650  132.8540 O   0  0  0  0  0  0  0  0  0  0  0  0
  146.1180  157.1590  133.5020 C   0  0  0  0  0  0  0  0  0  0  0  0
  147.1790  156.6450  133.9510 O   0  0  0  0  0  0  0  0  0  0  0  0
  145.8950  158.5720  133.6300 N   0  0  0  0  0  0  0  0  0  0  0  0
  146.8270  159.5670  133.6780 C   0  0  0  0  0  0  0  0  0  0  0  0
  148.2910  159.3850  133.7620 C   0  0  0  0  0  0  0  0  0  0  0  0
  148.8770  158.6140  134.8080 N   0  0  0  0  0  0  0  0  0  0  0  0
  149.0390  159.9590  132.9260 O   0  0  0  0  0  0  0  0  0  0  0  0
  146.2060  160.8130  133.7240 C   0  0  0  0  0  0  0  0  0  0  0  0
  144.8560  160.5470  133.7130 C   0  0  0  0  0  0  0  0  0  0  0  0
  143.7760  161.4180  133.7420 C   0  0  0  0  0  0  0  0  0  0  0  0
  142.4840  160.8720  133.6980 C   0  0  0  0  0  0  0  0  0  0  0  0
  142.2740  159.4610  133.6140 C   0  0  0  0  0  0  0  0  0  0  0  0
  140.9250  158.9000  133.5620 N   0  0  0  0  0  0  0  0  0  0  0  0
  140.2020  158.8980  132.2700 C   0  0  0  0  0  0  0  0  0  0  0  0
  138.8050  158.2380  132.2760 C   0  0  0  0  0  0  0  0  0  0  0  0
  138.6070  157.2450  133.3440 N   0  0  0  0  0  0  0  0  0  0  0  0
  139.3210  156.0040  133.1370 C   0  0  0  0  0  0  0  0  0  0  0  0
  138.6990  154.9150  132.9800 O   0  0  0  0  0  0  0  0  0  0  0  0
  140.7180  156.0300  133.0560 O   0  0  0  0  0  0  0  0  0  0  0  0
  141.5500  154.9580  133.4960 C   0  0  0  0  0  0  0  0  0  0  0  0
  142.4470  155.4110  134.6410 C   0  0  0  0  0  0  0  0  0  0  0  0
  138.9140  157.8430  134.6490 C   0  0  0  0  0  0  0  0  0  0  0  0
  140.3850  158.2420  134.7680 C   0  0  0  0  0  0  0  0  0  0  0  0
  143.4200  158.6160  133.5870 C   0  0  0  0  0  0  0  0  0  0  0  0
  144.6930  159.1920  133.6550 C   0  0  0  0  0  0  0  0  0  0  0  0
  143.4810  154.1269  132.0498 H   0  0  0  0  0  0  0  0  0  0  0  0
  144.0644  155.3773  130.8997 H   0  0  0  0  0  0  0  0  0  0  0  0
  144.8058  153.7412  130.8997 H   0  0  0  0  0  0  0  0  0  0  0  0
  145.2849  154.3941  133.4722 H   0  0  0  0  0  0  0  0  0  0  0  0
  146.4008  154.8617  132.1447 H   0  0  0  0  0  0  0  0  0  0  0  0
  149.0260  157.5870  134.6990 H   0  0  0  0  0  0  0  0  0  0  0  0
  146.6914  161.7994  133.7612 H   0  0  0  0  0  0  0  0  0  0  0  0
  143.9284  162.5060  133.7979 H   0  0  0  0  0  0  0  0  0  0  0  0
  141.6142  161.5446  133.7288 H   0  0  0  0  0  0  0  0  0  0  0  0
  140.0787  159.9437  131.9519 H   0  0  0  0  0  0  0  0  0  0  0  0
  140.8144  158.2891  131.5887 H   0  0  0  0  0  0  0  0  0  0  0  0
  138.0509  159.0295  132.3979 H   0  0  0  0  0  0  0  0  0  0  0  0
  138.7087  157.6976  131.3227 H   0  0  0  0  0  0  0  0  0  0  0  0
  137.5870  157.0060  133.3490 H   0  0  0  0  0  0  0  0  0  0  0  0
  140.9170  154.1267  133.8398 H   0  0  0  0  0  0  0  0  0  0  0  0
  142.1827  154.6326  132.6571 H   0  0  0  0  0  0  0  0  0  0  0  0
  141.9671  155.1686  135.6007 H   0  0  0  0  0  0  0  0  0  0  0  0
  143.4157  154.8940  134.5745 H   0  0  0  0  0  0  0  0  0  0  0  0
  142.6059  156.4974  134.5745 H   0  0  0  0  0  0  0  0  0  0  0  0
  138.2914  158.7399  134.7833 H   0  0  0  0  0  0  0  0  0  0  0  0
  138.7037  157.0909  135.4237 H   0  0  0  0  0  0  0  0  0  0  0  0
  140.4886  158.9345  135.6163 H   0  0  0  0  0  0  0  0  0  0  0  0
  140.9576  157.3134  134.9090 H   0  0  0  0  0  0  0  0  0  0  0  0
  143.3057  157.5244  133.5136 H   0  0  0  0  0  0  0  0  0  0  0  0
  1  2  1  0
  2  3  1  0
  3  4  1  0
  4  5  2  0
  4  6  1  0
  6  7  1  0
  7  8  1  0
  8  9  1  0
  8 10  2  0
  7 11  2  0
 11 12  1  0
 12 13  2  0
 13 14  1  0
 14 15  2  0
 15 16  1  0
 16 17  1  0
 17 18  1  0
 18 19  1  0
 19 20  1  0
 20 21  2  0
 20 22  1  0
 22 23  1  0
 23 24  1  0
 19 25  1  0
 25 26  1  0
 15 27  1  0
 27 28  2  0
 28  6  1  0
 28 12  1  0
 26 16  1  0
  1 29  1  0
  1 30  1  0
  1 31  1  0
  2 32  1  0
  2 33  1  0
  9 34  1  0
 11 35  1  0
 13 36  1  0
 14 37  1  0
 17 38  1  0
 17 39  1  0
 18 40  1  0
 18 41  1  0
 19 42  1  0
 23 43  1  0
 23 44  1  0
 24 45  1  0
 24 46  1  0
 24 47  1  0
 25 48  1  0
 25 49  1  0
 26 50  1  0
 26 51  1  0
 27 52  1  0
M  CHG  2   9  -1  19   1
M  END
>  <UniqueID>  (45) 
45

>  <SMILES>  (45) 
CCOC(=O)n1c(C([NH-])=O)cc2ccc(N3CC[NH+](C(=O)OCC)CC3)cc21

>  <Energy>  (45) 
96.07797347858342

>  <Genealogy>  (45) 
CCOC(=O)n1c(C([NH-])=O)cc2ccc(N3CC[NH+](C(=O)OCC)CC3)cc21 (protonated)
CCOC(=O)n1c(C([NH-])=O)cc2ccc(N3CC[NH+](C(=O)OCC)CC3)cc21 (3D coordinates assigned)
CCOC(=O)n1c(C([NH-])=O)cc2ccc(N3CC[NH+](C(=O)OCC)CC3)cc21 (nonaromatic ring conformer: 96.07797347858342 kcal/mol)

>  <smiles>  (45) 
CCOC(=O)N1CCN(c2ccc3cc(C(N)=O)n(C(=O)OCC)c3c2)CC1

>  <score_type>  (45) 
oracle

>  <origin>  (45) 
adg

>  <m_score__min__energy>  (45) 
-6.7699999999999996

>  <m_primary>  (45) 
energy

$$$$
45:0
     RDKit          3D

 37 40  0  0  0  0  0  0  0  0999 V2000
  139.1140  157.8630  136.7120 N   0  0  0  0  0  0  0  0  0  0  0  0
  139.5470  157.9430  135.3560 C   0  0  0  0  0  0  0  0  0  0  0  0
  138.7060  158.2080  134.4550 O   0  0  0  0  0  0  0  0  0  0  0  0
  140.9500  157.6620  134.9870 C   0  0  0  0  0  0  0  0  0  0  0  0
  141.6310  156.5150  135.3870 C   0  0  0  0  0  0  0  0  0  0  0  0
  142.9170  156.6760  134.9250 C   0  0  0  0  0  0  0  0  0  0  0  0
  144.0160  155.8290  135.0300 C   0  0  0  0  0  0  0  0  0  0  0  0
  145.2200  156.2360  134.4320 C   0  0  0  0  0  0  0  0  0  0  0  0
  145.3040  157.4710  133.7390 C   0  0  0  0  0  0  0  0  0  0  0  0
  146.5740  157.8830  133.0930 C   0  0  0  0  0  0  0  0  0  0  0  0
  147.6550  156.9840  133.0380 C   0  0  0  0  0  0  0  0  0  0  0  0
  148.8600  157.3580  132.4400 C   0  0  0  0  0  0  0  0  0  0  0  0
  148.9980  158.6280  131.8760 C   0  0  0  0  0  0  0  0  0  0  0  0
  147.9320  159.5390  131.9250 C   0  0  0  0  0  0  0  0  0  0  0  0
  146.7200  159.1670  132.5300 C   0  0  0  0  0  0  0  0  0  0  0  0
  145.6810  160.0410  132.5400 F   0  0  0  0  0  0  0  0  0  0  0  0
  148.1150  160.8540  131.3870 N   0  0  0  0  0  0  0  0  0  0  0  0
  149.3390  161.1940  130.7270 C   0  0  0  0  0  0  0  0  0  0  0  0
  149.5470  162.3800  130.3590 O   0  0  0  0  0  0  0  0  0  0  0  0
  150.3350  160.1190  130.4000 C   0  0  0  0  0  0  0  0  0  0  0  0
  150.2100  158.9990  131.2820 O   0  0  0  0  0  0  0  0  0  0  0  0
  144.1630  158.2990  133.6500 C   0  0  0  0  0  0  0  0  0  0  0  0
  142.9810  157.8780  134.2710 C   0  0  0  0  0  0  0  0  0  0  0  0
  141.7790  158.4960  134.2980 N   0  0  0  0  0  0  0  0  0  0  0  0
  141.4370  159.7270  133.6390 C   0  0  0  0  0  0  0  0  0  0  0  0
  140.4970  159.7610  132.8020 O   0  0  0  0  0  0  0  0  0  0  0  0
  142.1230  160.8970  133.9400 O   0  0  0  0  0  0  0  0  0  0  0  0
  139.1100  158.7080  137.3250 H   0  0  0  0  0  0  0  0  0  0  0  0
  141.2269  155.6620  135.9519 H   0  0  0  0  0  0  0  0  0  0  0  0
  143.9441  154.8704  135.5647 H   0  0  0  0  0  0  0  0  0  0  0  0
  146.1076  155.5900  134.5018 H   0  0  0  0  0  0  0  0  0  0  0  0
  147.5499  155.9778  133.4699 H   0  0  0  0  0  0  0  0  0  0  0  0
  149.7022  156.6509  132.4131 H   0  0  0  0  0  0  0  0  0  0  0  0
  147.3760  161.5840  131.5020 H   0  0  0  0  0  0  0  0  0  0  0  0
  150.1682  159.7801  129.3669 H   0  0  0  0  0  0  0  0  0  0  0  0
  151.3450  160.5385  130.5176 H   0  0  0  0  0  0  0  0  0  0  0  0
  144.2023  159.2535  133.1048 H   0  0  0  0  0  0  0  0  0  0  0  0
  1  2  1  0
  2  3  2  0
  2  4  1  0
  4  5  2  0
  5  6  1  0
  6  7  2  0
  7  8  1  0
  8  9  2  0
  9 10  1  0
 10 11  2  0
 11 12  1  0
 12 13  2  0
 13 14  1  0
 14 15  2  0
 15 16  1  0
 14 17  1  0
 17 18  1  0
 18 19  2  0
 18 20  1  0
 20 21  1  0
  9 22  1  0
 22 23  2  0
 23 24  1  0
 24 25  1  0
 25 26  2  0
 25 27  1  0
 24  4  1  0
 23  6  1  0
 15 10  1  0
 21 13  1  0
  1 28  1  0
  5 29  1  0
  7 30  1  0
  8 31  1  0
 11 32  1  0
 12 33  1  0
 17 34  1  0
 20 35  1  0
 20 36  1  0
 22 37  1  0
M  CHG  2   1  -1  27  -1
M  END
>  <UniqueID>  (46) 
46

>  <SMILES>  (46) 
[NH-]C(=O)c1cc2ccc(-c3ccc4c(c3F)NC(=O)CO4)cc2n1C(=O)[O-]

>  <Energy>  (46) 
89.51826944300777

>  <Genealogy>  (46) 
[NH-]C(=O)c1cc2ccc(-c3ccc4c(c3F)NC(=O)CO4)cc2n1C(=O)[O-] (protonated)
[NH-]C(=O)c1cc2ccc(-c3ccc4c(c3F)NC(=O)CO4)cc2n1C(=O)[O-] (3D coordinates assigned)
[NH-]C(=O)c1cc2ccc(-c3ccc4c(c3F)NC(=O)CO4)cc2n1C(=O)[O-] (nonaromatic ring conformer: 89.51826944300777 kcal/mol)

>  <smiles>  (46) 
NC(=O)c1cc2ccc(-c3ccc4c(c3F)NC(=O)CO4)cc2n1C(=O)O

>  <score_type>  (46) 
oracle

>  <origin>  (46) 
adg

>  <m_score__min__energy>  (46) 
-8.5399999999999991

>  <m_primary>  (46) 
energy

$$$$
46:0
     RDKit          3D

 55 58  0  0  0  0  0  0  0  0999 V2000
  147.8930  153.5080  132.9780 C   0  0  0  0  0  0  0  0  0  0  0  0
  146.5560  154.1990  133.2210 C   0  0  0  0  0  0  0  0  0  0  0  0
  146.5200  155.4670  132.5700 O   0  0  0  0  0  0  0  0  0  0  0  0
  147.2850  156.5660  132.9780 C   0  0  0  0  0  0  0  0  0  0  0  0
  148.4880  156.4110  133.3270 O   0  0  0  0  0  0  0  0  0  0  0  0
  146.6910  157.8720  133.0200 N   0  0  0  0  0  0  0  0  0  0  0  0
  147.2310  159.0470  132.5890 C   0  0  0  0  0  0  0  0  0  0  0  0
  148.6210  159.2450  132.1300 C   0  0  0  0  0  0  0  0  0  0  0  0
  149.2310  158.2820  131.2740 N   0  0  0  0  0  0  0  0  0  0  0  0
  149.2670  160.2750  132.4570 O   0  0  0  0  0  0  0  0  0  0  0  0
  146.3070  160.0830  132.7140 C   0  0  0  0  0  0  0  0  0  0  0  0
  145.1770  159.5030  133.2410 C   0  0  0  0  0  0  0  0  0  0  0  0
  143.9500  160.0690  133.5680 C   0  0  0  0  0  0  0  0  0  0  0  0
  142.9470  159.2240  134.0730 C   0  0  0  0  0  0  0  0  0  0  0  0
  143.1780  157.8320  134.2180 C   0  0  0  0  0  0  0  0  0  0  0  0
  142.0870  156.9300  134.7590 C   0  0  0  0  0  0  0  0  0  0  0  0
  141.0540  157.5970  135.7140 C   0  0  0  0  0  0  0  0  0  0  0  0
  139.8440  158.0620  134.9270 C   0  0  0  0  0  0  0  0  0  0  0  0
  138.7350  158.2160  135.5080 O   0  0  0  0  0  0  0  0  0  0  0  0
  139.9810  158.4260  133.5460 N   0  0  0  0  0  0  0  0  0  0  0  0
  138.8370  158.9000  132.7620 C   0  0  0  0  0  0  0  0  0  0  0  0
  138.7310  158.2400  131.3890 C   0  0  0  0  0  0  0  0  0  0  0  0
  139.0060  159.5830  130.7250 C   0  0  0  0  0  0  0  0  0  0  0  0
  139.1140  160.2430  132.0940 C   0  0  0  0  0  0  0  0  0  0  0  0
  141.6260  158.6810  136.6490 C   0  0  0  0  0  0  0  0  0  0  0  0
  141.2910  157.8190  137.8590 C   0  0  0  0  0  0  0  0  0  0  0  0
  140.6640  156.7700  136.9520 C   0  0  0  0  0  0  0  0  0  0  0  0
  144.4500  157.3010  133.9050 C   0  0  0  0  0  0  0  0  0  0  0  0
  145.4340  158.1680  133.4170 C   0  0  0  0  0  0  0  0  0  0  0  0
  148.3614  153.2659  133.9434 H   0  0  0  0  0  0  0  0  0  0  0  0
  147.7288  152.5819  132.4076 H   0  0  0  0  0  0  0  0  0  0  0  0
  148.5535  154.1776  132.4076 H   0  0  0  0  0  0  0  0  0  0  0  0
  145.7460  153.5675  132.8272 H   0  0  0  0  0  0  0  0  0  0  0  0
  146.4278  154.3523  134.3027 H   0  0  0  0  0  0  0  0  0  0  0  0
  149.0960  157.2590  131.4340 H   0  0  0  0  0  0  0  0  0  0  0  0
  146.4511  161.1405  132.4476 H   0  0  0  0  0  0  0  0  0  0  0  0
  143.7696  161.1460  133.4354 H   0  0  0  0  0  0  0  0  0  0  0  0
  141.9725  159.6466  134.3589 H   0  0  0  0  0  0  0  0  0  0  0  0
  141.5345  156.5198  133.9008 H   0  0  0  0  0  0  0  0  0  0  0  0
  142.6050  156.1740  135.3675 H   0  0  0  0  0  0  0  0  0  0  0  0
  140.9190  158.3320  133.0950 H   0  0  0  0  0  0  0  0  0  0  0  0
  138.0232  158.7862  133.4932 H   0  0  0  0  0  0  0  0  0  0  0  0
  139.5001  157.4775  131.1963 H   0  0  0  0  0  0  0  0  0  0  0  0
  137.8387  157.6565  131.1183 H   0  0  0  0  0  0  0  0  0  0  0  0
  139.9364  159.6113  130.1389 H   0  0  0  0  0  0  0  0  0  0  0  0
  138.3124  159.9813  129.9698 H   0  0  0  0  0  0  0  0  0  0  0  0
  140.1083  160.6583  132.3153 H   0  0  0  0  0  0  0  0  0  0  0  0
  138.5014  161.1234  132.3379 H   0  0  0  0  0  0  0  0  0  0  0  0
  142.7018  158.8670  136.5148 H   0  0  0  0  0  0  0  0  0  0  0  0
  141.2616  159.7170  136.5869 H   0  0  0  0  0  0  0  0  0  0  0  0
  142.1724  157.4628  138.4124 H   0  0  0  0  0  0  0  0  0  0  0  0
  140.7160  158.2409  138.6965 H   0  0  0  0  0  0  0  0  0  0  0  0
  141.1501  155.7846  137.0039 H   0  0  0  0  0  0  0  0  0  0  0  0
  139.6201  156.4582  137.1040 H   0  0  0  0  0  0  0  0  0  0  0  0
  144.6616  156.2303  134.0419 H   0  0  0  0  0  0  0  0  0  0  0  0
  1  2  1  0
  2  3  1  0
  3  4  1  0
  4  5  2  0
  4  6  1  0
  6  7  1  0
  7  8  1  0
  8  9  1  0
  8 10  2  0
  7 11  2  0
 11 12  1  0
 12 13  2  0
 13 14  1  0
 14 15  2  0
 15 16  1  0
 16 17  1  0
 17 18  1  0
 18 19  2  0
 18 20  1  0
 20 21  1  0
 21 22  1  0
 22 23  1  0
 23 24  1  0
 17 25  1  0
 25 26  1  0
 26 27  1  0
 15 28  1  0
 28 29  2  0
 29  6  1  0
 29 12  1  0
 27 17  1  0
 24 21  1  0
  1 30  1  0
  1 31  1  0
  1 32  1  0
  2 33  1  0
  2 34  1  0
  9 35  1  0
 11 36  1  0
 13 37  1  0
 14 38  1  0
 16 39  1  0
 16 40  1  0
 20 41  1  0
 21 42  1  0
 22 43  1  0
 22 44  1  0
 23 45  1  0
 23 46  1  0
 24 47  1  0
 24 48  1  0
 25 49  1  0
 25 50  1  0
 26 51  1  0
 26 52  1  0
 27 53  1  0
 27 54  1  0
 28 55  1  0
M  CHG  1   9  -1
M  END
>  <UniqueID>  (47) 
47

>  <SMILES>  (47) 
CCOC(=O)n1c(C([NH-])=O)cc2ccc(CC3(C(=O)NC4CCC4)CCC3)cc21

>  <Energy>  (47) 
212.04901547066984

>  <Genealogy>  (47) 
CCOC(=O)n1c(C([NH-])=O)cc2ccc(CC3(C(=O)NC4CCC4)CCC3)cc21 (protonated)
CCOC(=O)n1c(C([NH-])=O)cc2ccc(CC3(C(=O)NC4CCC4)CCC3)cc21 (3D coordinates assigned)
CCOC(=O)n1c(C([NH-])=O)cc2ccc(CC3(C(=O)NC4CCC4)CCC3)cc21 (nonaromatic ring conformer: 212.04901547066984 kcal/mol)

>  <smiles>  (47) 
CCOC(=O)n1c(C(N)=O)cc2ccc(CC3(C(=O)NC4CCC4)CCC3)cc21

>  <score_type>  (47) 
oracle

>  <origin>  (47) 
adg

>  <m_score__min__energy>  (47) 
-9.1199999999999992

>  <m_primary>  (47) 
energy

$$$$
47:0
     RDKit          3D

 41 43  0  0  0  0  0  0  0  0999 V2000
  149.0860  160.1110  130.7920 C   0  0  0  0  0  0  0  0  0  0  0  0
  149.6140  159.3820  131.8930 O   0  0  0  0  0  0  0  0  0  0  0  0
  148.8360  159.0150  132.9970 C   0  0  0  0  0  0  0  0  0  0  0  0
  148.8200  159.7430  134.0290 O   0  0  0  0  0  0  0  0  0  0  0  0
  148.0330  157.7730  132.9520 C   0  0  0  0  0  0  0  0  0  0  0  0
  146.6430  157.8190  133.1400 C   0  0  0  0  0  0  0  0  0  0  0  0
  145.8800  156.6480  133.0970 C   0  0  0  0  0  0  0  0  0  0  0  0
  146.4930  155.4050  132.8670 C   0  0  0  0  0  0  0  0  0  0  0  0
  145.6830  154.1610  132.8230 C   0  0  0  0  0  0  0  0  0  0  0  0
  146.3090  152.9040  132.6080 C   0  0  0  0  0  0  0  0  0  0  0  0
  145.5550  151.7200  132.5770 C   0  0  0  0  0  0  0  0  0  0  0  0
  144.1790  151.8170  132.7550 C   0  0  0  0  0  0  0  0  0  0  0  0
  143.2190  150.8320  132.7960 C   0  0  0  0  0  0  0  0  0  0  0  0
  142.0150  151.5010  133.0090 C   0  0  0  0  0  0  0  0  0  0  0  0
  140.7040  150.8230  133.0470 C   0  0  0  0  0  0  0  0  0  0  0  0
  139.5550  151.4010  132.4270 N   0  0  0  0  0  0  0  0  0  0  0  0
  140.6090  149.6910  133.5910 O   0  0  0  0  0  0  0  0  0  0  0  0
  142.2240  152.8440  133.1110 N   0  0  0  0  0  0  0  0  0  0  0  0
  141.2680  153.8650  133.4470 C   0  0  0  0  0  0  0  0  0  0  0  0
  141.4660  154.7430  134.6420 C   0  0  0  0  0  0  0  0  0  0  0  0
  140.2600  154.0440  132.7140 O   0  0  0  0  0  0  0  0  0  0  0  0
  143.5530  153.0210  132.9480 C   0  0  0  0  0  0  0  0  0  0  0  0
  144.2800  154.2160  133.0020 C   0  0  0  0  0  0  0  0  0  0  0  0
  147.8850  155.3580  132.6790 C   0  0  0  0  0  0  0  0  0  0  0  0
  148.6470  156.5290  132.7210 C   0  0  0  0  0  0  0  0  0  0  0  0
  148.4789  160.9492  131.1646 H   0  0  0  0  0  0  0  0  0  0  0  0
  149.9127  160.5007  130.1799 H   0  0  0  0  0  0  0  0  0  0  0  0
  148.4580  159.4470  130.1799 H   0  0  0  0  0  0  0  0  0  0  0  0
  146.1493  158.7849  133.3228 H   0  0  0  0  0  0  0  0  0  0  0  0
  144.7912  156.7005  133.2444 H   0  0  0  0  0  0  0  0  0  0  0  0
  147.3986  152.8577  132.4640 H   0  0  0  0  0  0  0  0  0  0  0  0
  146.0381  150.7448  132.4167 H   0  0  0  0  0  0  0  0  0  0  0  0
  143.3696  149.7481  132.6845 H   0  0  0  0  0  0  0  0  0  0  0  0
  138.6270  150.9290  132.5030 H   0  0  0  0  0  0  0  0  0  0  0  0
  139.6360  152.2500  131.8260 H   0  0  0  0  0  0  0  0  0  0  0  0
  141.3323  154.1501  135.5588 H   0  0  0  0  0  0  0  0  0  0  0  0
  142.4818  155.1647  134.6229 H   0  0  0  0  0  0  0  0  0  0  0  0
  140.7295  155.5598  134.6229 H   0  0  0  0  0  0  0  0  0  0  0  0
  143.7726  155.1757  133.1795 H   0  0  0  0  0  0  0  0  0  0  0  0
  148.3787  154.3920  132.4974 H   0  0  0  0  0  0  0  0  0  0  0  0
  149.7357  156.4772  132.5722 H   0  0  0  0  0  0  0  0  0  0  0  0
  1  2  1  0
  2  3  1  0
  3  4  2  0
  3  5  1  0
  5  6  2  0
  6  7  1  0
  7  8  2  0
  8  9  1  0
  9 10  2  0
 10 11  1  0
 11 12  2  0
 12 13  1  0
 13 14  2  0
 14 15  1  0
 15 16  1  0
 15 17  2  0
 14 18  1  0
 18 19  1  0
 19 20  1  0
 19 21  2  0
 18 22  1  0
 22 23  2  0
  8 24  1  0
 24 25  2  0
 25  5  1  0
 23  9  1  0
 22 12  1  0
  1 26  1  0
  1 27  1  0
  1 28  1  0
  6 29  1  0
  7 30  1  0
 10 31  1  0
 11 32  1  0
 13 33  1  0
 16 34  1  0
 16 35  1  0
 20 36  1  0
 20 37  1  0
 20 38  1  0
 23 39  1  0
 24 40  1  0
 25 41  1  0
M  END
>  <UniqueID>  (48) 
48

>  <SMILES>  (48) 
COC(=O)c1ccc(-c2ccc3cc(C(N)=O)n(C(C)=O)c3c2)cc1

>  <Energy>  (48) 
86.40198387490985

>  <Genealogy>  (48) 
COC(=O)c1ccc(-c2ccc3cc(C(N)=O)n(C(C)=O)c3c2)cc1 (3D coordinates assigned)
COC(=O)c1ccc(-c2ccc3cc(C(N)=O)n(C(C)=O)c3c2)cc1 (optimized conformer: 86.40198387490985 kcal/mol)

>  <smiles>  (48) 
COC(=O)c1ccc(-c2ccc3cc(C(N)=O)n(C(C)=O)c3c2)cc1

>  <score_type>  (48) 
oracle

>  <origin>  (48) 
adg

>  <m_score__min__energy>  (48) 
-7.7400000000000002

>  <m_primary>  (48) 
energy

$$$$
48:0
     RDKit          3D

 46 48  0  0  0  0  0  0  0  0999 V2000
  145.6800  154.9760  134.8070 C   0  0  0  0  0  0  0  0  0  0  0  0
  147.1640  154.8670  134.4950 C   0  0  0  0  0  0  0  0  0  0  0  0
  147.6720  156.1530  134.1560 O   0  0  0  0  0  0  0  0  0  0  0  0
  147.3420  156.8060  132.9660 C   0  0  0  0  0  0  0  0  0  0  0  0
  147.3340  156.1730  131.8740 O   0  0  0  0  0  0  0  0  0  0  0  0
  147.0400  158.2110  132.9840 N   0  0  0  0  0  0  0  0  0  0  0  0
  147.8680  159.2520  132.6820 C   0  0  0  0  0  0  0  0  0  0  0  0
  149.2320  159.1450  132.1230 C   0  0  0  0  0  0  0  0  0  0  0  0
  149.8090  157.8600  131.9010 N   0  0  0  0  0  0  0  0  0  0  0  0
  149.9090  160.1770  131.8720 O   0  0  0  0  0  0  0  0  0  0  0  0
  147.2210  160.4680  132.8920 C   0  0  0  0  0  0  0  0  0  0  0  0
  145.9580  160.1380  133.3300 C   0  0  0  0  0  0  0  0  0  0  0  0
  144.8960  160.9590  133.6970 C   0  0  0  0  0  0  0  0  0  0  0  0
  143.7120  160.3460  134.1380 C   0  0  0  0  0  0  0  0  0  0  0  0
  143.6130  158.9330  134.2110 C   0  0  0  0  0  0  0  0  0  0  0  0
  142.3470  158.2840  134.7200 C   0  0  0  0  0  0  0  0  0  0  0  0
  141.5380  157.5700  133.5990 C   0  0  0  0  0  0  0  0  0  0  0  0
  142.3490  156.6050  132.9690 O   0  0  0  0  0  0  0  0  0  0  0  0
  141.0640  158.6060  132.5370 C   0  0  0  0  0  0  0  0  0  0  0  0
  139.6180  159.0550  132.7970 C   0  0  0  0  0  0  0  0  0  0  0  0
  138.6700  157.9950  132.7350 O   0  0  0  0  0  0  0  0  0  0  0  0
  139.1740  156.7370  133.1740 C   0  0  0  0  0  0  0  0  0  0  0  0
  140.3080  156.8440  134.2060 C   0  0  0  0  0  0  0  0  0  0  0  0
  144.7120  158.1340  133.8270 C   0  0  0  0  0  0  0  0  0  0  0  0
  145.8740  158.7710  133.3760 C   0  0  0  0  0  0  0  0  0  0  0  0
  145.5344  154.9867  135.8973 H   0  0  0  0  0  0  0  0  0  0  0  0
  145.2817  155.9058  134.3747 H   0  0  0  0  0  0  0  0  0  0  0  0
  145.1502  154.1143  134.3747 H   0  0  0  0  0  0  0  0  0  0  0  0
  147.6971  154.4827  135.3771 H   0  0  0  0  0  0  0  0  0  0  0  0
  147.3120  154.1791  133.6495 H   0  0  0  0  0  0  0  0  0  0  0  0
  149.2480  157.0840  131.4830 H   0  0  0  0  0  0  0  0  0  0  0  0
  147.6318  161.4770  132.7402 H   0  0  0  0  0  0  0  0  0  0  0  0
  144.9813  162.0544  133.6433 H   0  0  0  0  0  0  0  0  0  0  0  0
  142.8528  160.9679  134.4297 H   0  0  0  0  0  0  0  0  0  0  0  0
  142.6168  157.5412  135.4852 H   0  0  0  0  0  0  0  0  0  0  0  0
  141.7095  159.0815  135.1294 H   0  0  0  0  0  0  0  0  0  0  0  0
  142.0960  156.5760  132.0080 H   0  0  0  0  0  0  0  0  0  0  0  0
  141.7240  159.4852  132.5755 H   0  0  0  0  0  0  0  0  0  0  0  0
  141.1053  158.1294  131.5465 H   0  0  0  0  0  0  0  0  0  0  0  0
  139.5693  159.5063  133.7990 H   0  0  0  0  0  0  0  0  0  0  0  0
  139.3550  159.7685  132.0022 H   0  0  0  0  0  0  0  0  0  0  0  0
  138.3462  156.1716  133.6269 H   0  0  0  0  0  0  0  0  0  0  0  0
  139.5946  156.2363  132.2895 H   0  0  0  0  0  0  0  0  0  0  0  0
  139.9495  157.4098  135.0786 H   0  0  0  0  0  0  0  0  0  0  0  0
  140.6095  155.8294  134.5054 H   0  0  0  0  0  0  0  0  0  0  0  0
  144.6564  157.0367  133.8810 H   0  0  0  0  0  0  0  0  0  0  0  0
  1  2  1  0
  2  3  1  0
  3  4  1  0
  4  5  2  0
  4  6  1  0
  6  7  1  0
  7  8  1  0
  8  9  1  0
  8 10  2  0
  7 11  2  0
 11 12  1  0
 12 13  2  0
 13 14  1  0
 14 15  2  0
 15 16  1  0
 16 17  1  0
 17 18  1  0
 17 19  1  0
 19 20  1  0
 20 21  1  0
 21 22  1  0
 22 23  1  0
 15 24  1  0
 24 25  2  0
 25  6  1  0
 25 12  1  0
 23 17  1  0
  1 26  1  0
  1 27  1  0
  1 28  1  0
  2 29  1  0
  2 30  1  0
  9 31  1  0
 11 32  1  0
 13 33  1  0
 14 34  1  0
 16 35  1  0
 16 36  1  0
 18 37  1  0
 19 38  1  0
 19 39  1  0
 20 40  1  0
 20 41  1  0
 22 42  1  0
 22 43  1  0
 23 44  1  0
 23 45  1  0
 24 46  1  0
M  CHG  1   9  -1
M  END
>  <UniqueID>  (49) 
49

>  <SMILES>  (49) 
CCOC(=O)n1c(C([NH-])=O)cc2ccc(CC3(O)CCOCC3)cc21

>  <Energy>  (49) 
91.47252697346056

>  <Genealogy>  (49) 
CCOC(=O)n1c(C([NH-])=O)cc2ccc(CC3(O)CCOCC3)cc21 (protonated)
CCOC(=O)n1c(C([NH-])=O)cc2ccc(CC3(O)CCOCC3)cc21 (3D coordinates assigned)
CCOC(=O)n1c(C([NH-])=O)cc2ccc(CC3(O)CCOCC3)cc21 (nonaromatic ring conformer: 91.47252697346056 kcal/mol)

>  <smiles>  (49) 
CCOC(=O)n1c(C(N)=O)cc2ccc(CC3(O)CCOCC3)cc21

>  <score_type>  (49) 
oracle

>  <origin>  (49) 
adg

>  <m_score__min__energy>  (49) 
-7.6600000000000001

>  <m_primary>  (49) 
energy

$$$$
49:0
     RDKit          3D

 31 32  0  0  0  0  0  0  0  0999 V2000
  143.3260  161.2300  133.8640 N   0  0  0  0  0  0  0  0  0  0  0  0
  144.7450  161.3750  133.9550 C   0  0  0  0  0  0  0  0  0  0  0  0
  145.2260  162.4750  134.3340 O   0  0  0  0  0  0  0  0  0  0  0  0
  145.6430  160.2630  133.5730 C   0  0  0  0  0  0  0  0  0  0  0  0
  147.0100  160.4120  133.3450 C   0  0  0  0  0  0  0  0  0  0  0  0
  147.4830  159.1400  133.1170 C   0  0  0  0  0  0  0  0  0  0  0  0
  148.7720  158.7050  132.8280 C   0  0  0  0  0  0  0  0  0  0  0  0
  148.9730  157.3320  132.6120 C   0  0  0  0  0  0  0  0  0  0  0  0
  147.8850  156.4190  132.6810 C   0  0  0  0  0  0  0  0  0  0  0  0
  148.0670  155.0100  132.4510 N   0  0  0  0  0  0  0  0  0  0  0  0
  148.2330  154.0360  133.5330 C   0  0  0  0  0  0  0  0  0  0  0  0
  149.0230  152.8110  133.0640 C   0  0  0  0  0  0  0  0  0  0  0  0
  149.4940  152.9950  131.7560 O   0  0  0  0  0  0  0  0  0  0  0  0
  146.5910  156.9040  132.9780 C   0  0  0  0  0  0  0  0  0  0  0  0
  146.4240  158.2760  133.2060 C   0  0  0  0  0  0  0  0  0  0  0  0
  145.2850  158.9500  133.4860 N   0  0  0  0  0  0  0  0  0  0  0  0
  143.9620  158.3970  133.5880 C   0  0  0  0  0  0  0  0  0  0  0  0
  143.4380  157.8110  132.6050 O   0  0  0  0  0  0  0  0  0  0  0  0
  143.2400  158.5200  134.7690 O   0  0  0  0  0  0  0  0  0  0  0  0
  142.7020  162.0340  134.0970 H   0  0  0  0  0  0  0  0  0  0  0  0
  142.8900  160.3180  133.6050 H   0  0  0  0  0  0  0  0  0  0  0  0
  147.5881  161.3479  133.3469 H   0  0  0  0  0  0  0  0  0  0  0  0
  149.6096  159.4157  132.7703 H   0  0  0  0  0  0  0  0  0  0  0  0
  149.9830  156.9588  132.3870 H   0  0  0  0  0  0  0  0  0  0  0  0
  148.0810  154.6710  131.4620 H   0  0  0  0  0  0  0  0  0  0  0  0
  148.7723  154.5130  134.3646 H   0  0  0  0  0  0  0  0  0  0  0  0
  147.2356  153.7027  133.8555 H   0  0  0  0  0  0  0  0  0  0  0  0
  149.8788  152.6540  133.7370 H   0  0  0  0  0  0  0  0  0  0  0  0
  148.3584  151.9346  133.0802 H   0  0  0  0  0  0  0  0  0  0  0  0
  150.4660  153.1880  131.8290 H   0  0  0  0  0  0  0  0  0  0  0  0
  145.7326  156.2180  133.0291 H   0  0  0  0  0  0  0  0  0  0  0  0
  1  2  1  0
  2  3  2  0
  2  4  1  0
  4  5  2  0
  5  6  1  0
  6  7  2  0
  7  8  1  0
  8  9  2  0
  9 10  1  0
 10 11  1  0
 11 12  1  0
 12 13  1  0
  9 14  1  0
 14 15  2  0
 15 16  1  0
 16 17  1  0
 17 18  2  0
 17 19  1  0
 16  4  1  0
 15  6  1  0
  1 20  1  0
  1 21  1  0
  5 22  1  0
  7 23  1  0
  8 24  1  0
 10 25  1  0
 11 26  1  0
 11 27  1  0
 12 28  1  0
 12 29  1  0
 13 30  1  0
 14 31  1  0
M  CHG  1  19  -1
M  END
>  <UniqueID>  (50) 
50

>  <SMILES>  (50) 
NC(=O)c1cc2ccc(NCCO)cc2n1C(=O)[O-]

>  <Energy>  (50) 
67.76858131945974

>  <Genealogy>  (50) 
NC(=O)c1cc2ccc(NCCO)cc2n1C(=O)[O-] (protonated)
NC(=O)c1cc2ccc(NCCO)cc2n1C(=O)[O-] (3D coordinates assigned)
NC(=O)c1cc2ccc(NCCO)cc2n1C(=O)[O-] (optimized conformer: 67.76858131945974 kcal/mol)

>  <smiles>  (50) 
NC(=O)c1cc2ccc(NCCO)cc2n1C(=O)O

>  <score_type>  (50) 
oracle

>  <origin>  (50) 
adg

>  <m_score__min__energy>  (50) 
-5.7199999999999998

>  <m_primary>  (50) 
energy

$$$$
50:0
     RDKit          3D

 53 56  0  0  0  0  0  0  0  0999 V2000
  140.2670  155.6820  133.9860 C   0  0  0  0  0  0  0  0  0  0  0  0
  141.4150  156.6570  134.3010 C   0  0  0  0  0  0  0  0  0  0  0  0
  142.1170  156.1660  135.5880 C   0  0  0  0  0  0  0  0  0  0  0  0
  140.8110  157.9420  134.5170 O   0  0  0  0  0  0  0  0  0  0  0  0
  141.4780  159.1700  134.6110 C   0  0  0  0  0  0  0  0  0  0  0  0
  141.6660  159.9460  133.4330 N   0  0  0  0  0  0  0  0  0  0  0  0
  141.9030  159.6050  135.7140 O   0  0  0  0  0  0  0  0  0  0  0  0
  142.3530  156.7320  133.1000 C   0  0  0  0  0  0  0  0  0  0  0  0
  142.0810  157.5270  132.1600 O   0  0  0  0  0  0  0  0  0  0  0  0
  143.6010  156.0210  133.0570 N   0  0  0  0  0  0  0  0  0  0  0  0
  144.8650  156.5280  133.0830 C   0  0  0  0  0  0  0  0  0  0  0  0
  145.2180  157.9480  133.2740 C   0  0  0  0  0  0  0  0  0  0  0  0
  144.4110  158.9660  132.6880 N   0  0  0  0  0  0  0  0  0  0  0  0
  146.2470  158.2710  133.9230 O   0  0  0  0  0  0  0  0  0  0  0  0
  145.8050  155.5010  133.0100 C   0  0  0  0  0  0  0  0  0  0  0  0
  145.0700  154.3370  132.9790 C   0  0  0  0  0  0  0  0  0  0  0  0
  145.4880  153.0110  132.9370 C   0  0  0  0  0  0  0  0  0  0  0  0
  144.5030  152.0080  132.9370 C   0  0  0  0  0  0  0  0  0  0  0  0
  143.1210  152.3420  133.0000 C   0  0  0  0  0  0  0  0  0  0  0  0
  142.0680  151.2930  132.9950 C   0  0  0  0  0  0  0  0  0  0  0  0
  141.4640  150.7710  134.1440 C   0  0  0  0  0  0  0  0  0  0  0  0
  140.3350  149.6210  133.6640 S   0  0  0  0  0  0  0  0  0  0  0  0
  140.6530  149.8270  132.0240 C   0  0  0  0  0  0  0  0  0  0  0  0
  140.0060  149.1190  130.9480 N   0  0  0  0  0  0  0  0  0  0  0  0
  140.1930  147.6710  130.7960 C   0  0  0  0  0  0  0  0  0  0  0  0
  139.0280  147.0610  130.0100 C   0  0  0  0  0  0  0  0  0  0  0  0
  138.8040  147.7680  128.8070 O   0  0  0  0  0  0  0  0  0  0  0  0
  138.3800  149.0830  129.1020 C   0  0  0  0  0  0  0  0  0  0  0  0
  139.4930  149.8720  129.7980 C   0  0  0  0  0  0  0  0  0  0  0  0
  141.6070  150.7620  131.8270 N   0  0  0  0  0  0  0  0  0  0  0  0
  142.7440  153.7060  133.0540 C   0  0  0  0  0  0  0  0  0  0  0  0
  143.7460  154.6800  133.0250 C   0  0  0  0  0  0  0  0  0  0  0  0
  139.8316  155.3122  134.9261 H   0  0  0  0  0  0  0  0  0  0  0  0
  139.4929  156.2030  133.4034 H   0  0  0  0  0  0  0  0  0  0  0  0
  140.6558  154.8338  133.4034 H   0  0  0  0  0  0  0  0  0  0  0  0
  141.5760  156.5444  136.4679 H   0  0  0  0  0  0  0  0  0  0  0  0
  142.1225  155.0662  135.6059 H   0  0  0  0  0  0  0  0  0  0  0  0
  143.1520  156.5381  135.6059 H   0  0  0  0  0  0  0  0  0  0  0  0
  142.2770  159.6050  132.6580 H   0  0  0  0  0  0  0  0  0  0  0  0
  143.3760  158.8470  132.6030 H   0  0  0  0  0  0  0  0  0  0  0  0
  146.9002  155.5995  132.9829 H   0  0  0  0  0  0  0  0  0  0  0  0
  146.5573  152.7549  132.9047 H   0  0  0  0  0  0  0  0  0  0  0  0
  144.8044  150.9512  132.8877 H   0  0  0  0  0  0  0  0  0  0  0  0
  141.6886  151.0621  135.1807 H   0  0  0  0  0  0  0  0  0  0  0  0
  141.1327  147.4817  130.2564 H   0  0  0  0  0  0  0  0  0  0  0  0
  140.2302  147.2096  131.7939 H   0  0  0  0  0  0  0  0  0  0  0  0
  139.2635  146.0130  129.7729 H   0  0  0  0  0  0  0  0  0  0  0  0
  138.1191  147.1215  130.6267 H   0  0  0  0  0  0  0  0  0  0  0  0
  138.1085  149.5926  128.1657 H   0  0  0  0  0  0  0  0  0  0  0  0
  137.5121  149.0300  129.7758 H   0  0  0  0  0  0  0  0  0  0  0  0
  140.3121  150.0499  129.0857 H   0  0  0  0  0  0  0  0  0  0  0  0
  139.0861  150.8313  130.1502 H   0  0  0  0  0  0  0  0  0  0  0  0
  141.6840  153.9931  133.1175 H   0  0  0  0  0  0  0  0  0  0  0  0
  1  2  1  0
  2  3  1  0
  2  4  1  0
  4  5  1  0
  5  6  1  0
  5  7  2  0
  2  8  1  0
  8  9  2  0
  8 10  1  0
 10 11  1  0
 11 12  1  0
 12 13  1  0
 12 14  2  0
 11 15  2  0
 15 16  1  0
 16 17  2  0
 17 18  1  0
 18 19  2  0
 19 20  1  0
 20 21  2  0
 21 22  1  0
 22 23  1  0
 23 24  1  0
 24 25  1  0
 25 26  1  0
 26 27  1  0
 27 28  1  0
 28 29  1  0
 23 30  2  0
 19 31  1  0
 31 32  2  0
 32 10  1  0
 32 16  1  0
 30 20  1  0
 29 24  1  0
  1 33  1  0
  1 34  1  0
  1 35  1  0
  3 36  1  0
  3 37  1  0
  3 38  1  0
  6 39  1  0
 13 40  1  0
 15 41  1  0
 17 42  1  0
 18 43  1  0
 21 44  1  0
 25 45  1  0
 25 46  1  0
 26 47  1  0
 26 48  1  0
 28 49  1  0
 28 50  1  0
 29 51  1  0
 29 52  1  0
 31 53  1  0
M  CHG  2   6  -1  13  -1
M  END
>  <UniqueID>  (51) 
51

>  <SMILES>  (51) 
CC(C)(OC([NH-])=O)C(=O)n1c(C([NH-])=O)cc2ccc(-c3csc(N4CCOCC4)n3)cc21

>  <Energy>  (51) 
128.09869293315288

>  <Genealogy>  (51) 
CC(C)(OC([NH-])=O)C(=O)n1c(C([NH-])=O)cc2ccc(-c3csc(N4CCOCC4)n3)cc21 (protonated)
CC(C)(OC([NH-])=O)C(=O)n1c(C([NH-])=O)cc2ccc(-c3csc(N4CCOCC4)n3)cc21 (3D coordinates assigned)
CC(C)(OC([NH-])=O)C(=O)n1c(C([NH-])=O)cc2ccc(-c3csc(N4CCOCC4)n3)cc21 (nonaromatic ring conformer: 128.09869293315288 kcal/mol)

>  <smiles>  (51) 
CC(C)(OC(N)=O)C(=O)n1c(C(N)=O)cc2ccc(-c3csc(N4CCOCC4)n3)cc21

>  <score_type>  (51) 
oracle

>  <origin>  (51) 
adg

>  <m_score__min__energy>  (51) 
-9.25

>  <m_primary>  (51) 
energy

$$$$
51:0
     RDKit          3D

 64 67  0  0  0  0  0  0  0  0999 V2000
  143.5690  153.9930  136.9920 N   0  0  0  0  0  0  0  0  0  0  0  0
  143.8750  153.7400  135.6240 C   0  0  0  0  0  0  0  0  0  0  0  0
  143.2170  152.8670  134.9950 O   0  0  0  0  0  0  0  0  0  0  0  0
  144.9340  154.5020  134.9220 C   0  0  0  0  0  0  0  0  0  0  0  0
  146.1350  153.9350  134.5000 C   0  0  0  0  0  0  0  0  0  0  0  0
  146.8070  154.9470  133.8550 C   0  0  0  0  0  0  0  0  0  0  0  0
  148.0450  154.9360  133.2270 C   0  0  0  0  0  0  0  0  0  0  0  0
  148.5030  156.1330  132.6520 C   0  0  0  0  0  0  0  0  0  0  0  0
  147.7300  157.3290  132.7180 C   0  0  0  0  0  0  0  0  0  0  0  0
  148.2350  158.5610  132.1320 N   0  0  0  0  0  0  0  0  0  0  0  0
  147.5440  159.8410  132.3790 C   0  0  0  0  0  0  0  0  0  0  0  0
  148.1440  160.9770  131.5370 C   0  0  0  0  0  0  0  0  0  0  0  0
  148.3390  160.5370  130.1500 N   0  0  0  0  0  0  0  0  0  0  0  0
  149.2200  159.3550  130.0230 C   0  0  0  0  0  0  0  0  0  0  0  0
  149.4770  158.6130  131.3440 C   0  0  0  0  0  0  0  0  0  0  0  0
  146.4770  157.2900  133.3920 C   0  0  0  0  0  0  0  0  0  0  0  0
  146.0290  156.0720  133.9120 C   0  0  0  0  0  0  0  0  0  0  0  0
  144.8680  155.8120  134.5540 N   0  0  0  0  0  0  0  0  0  0  0  0
  143.7870  156.7320  134.7750 C   0  0  0  0  0  0  0  0  0  0  0  0
  143.8260  157.8750  134.2480 O   0  0  0  0  0  0  0  0  0  0  0  0
  142.6810  156.3520  135.6100 N   0  0  0  0  0  0  0  0  0  0  0  0
  141.7290  157.3320  136.1480 C   0  0  2  0  0  0  0  0  0  0  0  0
  141.5600  157.1510  137.6740 C   0  0  0  0  0  0  0  0  0  0  0  0
  142.2150  155.9350  138.1740 N   0  0  0  0  0  0  0  0  0  0  0  0
  140.3770  157.2770  135.3970 C   0  0  0  0  0  0  0  0  0  0  0  0
  140.3870  157.8590  133.9530 C   0  0  0  0  0  0  0  0  0  0  0  0
  139.1110  157.4560  133.1490 C   0  0  0  0  0  0  0  0  0  0  0  0
  138.5220  158.5970  132.3030 C   0  0  0  0  0  0  0  0  0  0  0  0
  139.6310  159.3890  131.6090 C   0  0  0  0  0  0  0  0  0  0  0  0
  140.6010  160.0330  132.6160 C   0  0  0  0  0  0  0  0  0  0  0  0
  140.5570  159.3920  134.0140 C   0  0  0  0  0  0  0  0  0  0  0  0
  143.9460  154.8330  137.4830 H   0  0  0  0  0  0  0  0  0  0  0  0
  146.4733  152.8992  134.6506 H   0  0  0  0  0  0  0  0  0  0  0  0
  148.6490  154.0178  133.1811 H   0  0  0  0  0  0  0  0  0  0  0  0
  149.4769  156.1478  132.1409 H   0  0  0  0  0  0  0  0  0  0  0  0
  146.4806  159.7285  132.1213 H   0  0  0  0  0  0  0  0  0  0  0  0
  147.6646  160.0986  133.4416 H   0  0  0  0  0  0  0  0  0  0  0  0
  147.4606  161.8388  131.5513 H   0  0  0  0  0  0  0  0  0  0  0  0
  149.1181  161.2605  131.9621 H   0  0  0  0  0  0  0  0  0  0  0  0
  148.7800  161.3330  129.6240 H   0  0  0  0  0  0  0  0  0  0  0  0
  148.7531  158.6515  129.3179 H   0  0  0  0  0  0  0  0  0  0  0  0
  150.1955  159.7252  129.6747 H   0  0  0  0  0  0  0  0  0  0  0  0
  149.8167  157.5892  131.1285 H   0  0  0  0  0  0  0  0  0  0  0  0
  150.2506  159.1453  131.9169 H   0  0  0  0  0  0  0  0  0  0  0  0
  145.8718  158.2020  133.5018 H   0  0  0  0  0  0  0  0  0  0  0  0
  142.6640  155.3760  135.9790 H   0  0  0  0  0  0  0  0  0  0  0  0
  142.1398  158.3388  135.9817 H   0  0  0  0  0  0  0  0  0  0  0  0
  141.9984  158.0221  138.1829 H   0  0  0  0  0  0  0  0  0  0  0  0
  140.4837  157.0594  137.8817 H   0  0  0  0  0  0  0  0  0  0  0  0
  143.2280  155.9690  137.9110 H   0  0  0  0  0  0  0  0  0  0  0  0
  141.8260  155.0780  137.7220 H   0  0  0  0  0  0  0  0  0  0  0  0
  140.0664  156.2236  135.3354 H   0  0  0  0  0  0  0  0  0  0  0  0
  139.6863  157.9106  135.9727 H   0  0  0  0  0  0  0  0  0  0  0  0
  141.2415  157.4266  133.4118 H   0  0  0  0  0  0  0  0  0  0  0  0
  139.3730  156.6258  132.4766 H   0  0  0  0  0  0  0  0  0  0  0  0
  138.3440  157.1761  133.8862 H   0  0  0  0  0  0  0  0  0  0  0  0
  137.8520  158.1719  131.5412 H   0  0  0  0  0  0  0  0  0  0  0  0
  137.9667  159.2764  132.9663 H   0  0  0  0  0  0  0  0  0  0  0  0
  140.1976  158.7084  130.9565 H   0  0  0  0  0  0  0  0  0  0  0  0
  139.1587  160.1965  131.0303 H   0  0  0  0  0  0  0  0  0  0  0  0
  141.6238  159.9379  132.2224 H   0  0  0  0  0  0  0  0  0  0  0  0
  140.2923  161.0822  132.7337 H   0  0  0  0  0  0  0  0  0  0  0  0
  141.4961  159.6227  134.5382 H   0  0  0  0  0  0  0  0  0  0  0  0
  139.6870  159.8052  134.5454 H   0  0  0  0  0  0  0  0  0  0  0  0
  1  2  1  0
  2  3  2  0
  2  4  1  0
  4  5  2  0
  5  6  1  0
  6  7  2  0
  7  8  1  0
  8  9  2  0
  9 10  1  0
 10 11  1  0
 11 12  1  0
 12 13  1  0
 13 14  1  0
 14 15  1  0
  9 16  1  0
 16 17  2  0
 17 18  1  0
 18 19  1  0
 19 20  2  0
 19 21  1  0
 21 22  1  0
 22 23  1  0
 23 24  1  0
 22 25  1  0
 25 26  1  0
 26 27  1  0
 27 28  1  0
 28 29  1  0
 29 30  1  0
 30 31  1  0
 18  4  1  0
 31 26  1  0
 17  6  1  0
 15 10  1  0
  1 32  1  0
  5 33  1  0
  7 34  1  0
  8 35  1  0
 11 36  1  0
 11 37  1  0
 12 38  1  0
 12 39  1  0
 13 40  1  0
 14 41  1  0
 14 42  1  0
 15 43  1  0
 15 44  1  0
 16 45  1  0
 21 46  1  0
 22 47  1  1
 23 48  1  0
 23 49  1  0
 24 50  1  0
 24 51  1  0
 25 52  1  0
 25 53  1  0
 26 54  1  0
 27 55  1  0
 27 56  1  0
 28 57  1  0
 28 58  1  0
 29 59  1  0
 29 60  1  0
 30 61  1  0
 30 62  1  0
 31 63  1  0
 31 64  1  0
M  CHG  1   1  -1
M  END
>  <UniqueID>  (52) 
52

>  <SMILES>  (52) 
[NH-]C(=O)c1cc2ccc(N3CCNCC3)cc2n1C(=O)N[C@H](CN)CC1CCCCC1

>  <Energy>  (52) 
115.40308689951142

>  <Genealogy>  (52) 
[NH-]C(=O)c1cc2ccc(N3CCNCC3)cc2n1C(=O)N[C@H](CN)CC1CCCCC1 (protonated)
[NH-]C(=O)c1cc2ccc(N3CCNCC3)cc2n1C(=O)N[C@H](CN)CC1CCCCC1 (3D coordinates assigned)
[NH-]C(=O)c1cc2ccc(N3CCNCC3)cc2n1C(=O)N[C@H](CN)CC1CCCCC1 (nonaromatic ring conformer: 115.40308689951142 kcal/mol)

>  <smiles>  (52) 
NC[C@H](CC1CCCCC1)NC(=O)n1c(C(N)=O)cc2ccc(N3CCNCC3)cc21

>  <score_type>  (52) 
oracle

>  <origin>  (52) 
adg

>  <m_score__min__energy>  (52) 
-9.2300000000000004

>  <m_primary>  (52) 
energy

$$$$
52:0
     RDKit          3D

 44 46  0  0  0  0  0  0  0  0999 V2000
  149.5850  158.3930  131.8710 C   0  0  0  0  0  0  0  0  0  0  0  0
  149.2490  159.3240  130.9750 C   0  0  0  0  0  0  0  0  0  0  0  0
  148.4090  160.5050  131.3560 C   0  0  0  0  0  0  0  0  0  0  0  0
  147.1710  160.0560  131.8980 O   0  0  0  0  0  0  0  0  0  0  0  0
  146.8190  160.2460  133.2360 C   0  0  0  0  0  0  0  0  0  0  0  0
  147.7050  160.4870  134.0990 O   0  0  0  0  0  0  0  0  0  0  0  0
  145.4370  160.1910  133.6230 N   0  0  0  0  0  0  0  0  0  0  0  0
  144.6070  161.2320  133.9210 C   0  0  0  0  0  0  0  0  0  0  0  0
  145.0070  162.6460  134.0770 C   0  0  0  0  0  0  0  0  0  0  0  0
  146.1550  163.0030  134.8430 N   0  0  0  0  0  0  0  0  0  0  0  0
  144.2980  163.5540  133.5680 O   0  0  0  0  0  0  0  0  0  0  0  0
  143.3120  160.7740  134.1510 C   0  0  0  0  0  0  0  0  0  0  0  0
  143.3740  159.4090  133.9930 C   0  0  0  0  0  0  0  0  0  0  0  0
  142.3700  158.4500  134.0930 C   0  0  0  0  0  0  0  0  0  0  0  0
  142.7120  157.1100  133.8470 C   0  0  0  0  0  0  0  0  0  0  0  0
  144.0400  156.7550  133.5050 C   0  0  0  0  0  0  0  0  0  0  0  0
  144.3760  155.3200  133.2040 C   0  0  0  0  0  0  0  0  0  0  0  0
  145.6990  154.9940  133.7320 N   0  0  0  0  0  0  0  0  0  0  0  0
  145.8900  154.4520  134.9250 N   0  0  0  0  0  0  0  0  0  0  0  0
  147.2130  154.2180  135.0570 C   0  0  0  0  0  0  0  0  0  0  0  0
  147.8410  153.6630  136.2920 C   0  0  0  0  0  0  0  0  0  0  0  0
  147.8890  154.6270  133.9220 C   0  0  0  0  0  0  0  0  0  0  0  0
  146.8890  155.1030  133.1030 C   0  0  0  0  0  0  0  0  0  0  0  0
  147.0830  155.6320  131.7900 N   0  0  0  0  0  0  0  0  0  0  0  0
  145.0320  157.7560  133.4100 C   0  0  0  0  0  0  0  0  0  0  0  0
  144.6660  159.0810  133.6760 C   0  0  0  0  0  0  0  0  0  0  0  0
  150.2026  157.5349  131.5673 H   0  0  0  0  0  0  0  0  0  0  0  0
  149.2442  158.4840  132.9129 H   0  0  0  0  0  0  0  0  0  0  0  0
  149.5958  159.2221  129.9361 H   0  0  0  0  0  0  0  0  0  0  0  0
  148.9415  161.1056  132.1081 H   0  0  0  0  0  0  0  0  0  0  0  0
  148.2159  161.1189  130.4639 H   0  0  0  0  0  0  0  0  0  0  0  0
  147.0190  162.4170  134.8200 H   0  0  0  0  0  0  0  0  0  0  0  0
  142.4272  161.3762  134.4051 H   0  0  0  0  0  0  0  0  0  0  0  0
  141.3402  158.7329  134.3566 H   0  0  0  0  0  0  0  0  0  0  0  0
  141.9411  156.3288  133.9206 H   0  0  0  0  0  0  0  0  0  0  0  0
  143.6260  154.6648  133.6711 H   0  0  0  0  0  0  0  0  0  0  0  0
  144.3758  155.1706  132.1142 H   0  0  0  0  0  0  0  0  0  0  0  0
  147.3523  154.0949  137.1778 H   0  0  0  0  0  0  0  0  0  0  0  0
  147.7220  152.5695  136.3042 H   0  0  0  0  0  0  0  0  0  0  0  0
  148.9116  153.9155  136.3042 H   0  0  0  0  0  0  0  0  0  0  0  0
  148.9696  154.5827  133.7208 H   0  0  0  0  0  0  0  0  0  0  0  0
  147.7120  155.1660  131.1020 H   0  0  0  0  0  0  0  0  0  0  0  0
  146.5810  156.4990  131.4970 H   0  0  0  0  0  0  0  0  0  0  0  0
  146.0658  157.5010  133.1340 H   0  0  0  0  0  0  0  0  0  0  0  0
  1  2  2  0
  2  3  1  0
  3  4  1  0
  4  5  1  0
  5  6  2  0
  5  7  1  0
  7  8  1  0
  8  9  1  0
  9 10  1  0
  9 11  2  0
  8 12  2  0
 12 13  1  0
 13 14  2  0
 14 15  1  0
 15 16  2  0
 16 17  1  0
 17 18  1  0
 18 19  1  0
 19 20  2  0
 20 21  1  0
 20 22  1  0
 22 23  2  0
 23 24  1  0
 16 25  1  0
 25 26  2  0
 26  7  1  0
 26 13  1  0
 23 18  1  0
  1 27  1  0
  1 28  1  0
  2 29  1  0
  3 30  1  0
  3 31  1  0
 10 32  1  0
 12 33  1  0
 14 34  1  0
 15 35  1  0
 17 36  1  0
 17 37  1  0
 21 38  1  0
 21 39  1  0
 21 40  1  0
 22 41  1  0
 24 42  1  0
 24 43  1  0
 25 44  1  0
M  CHG  1  10  -1
M  END
>  <UniqueID>  (53) 
53

>  <SMILES>  (53) 
C=CCOC(=O)n1c(C([NH-])=O)cc2ccc(Cn3nc(C)cc3N)cc21

>  <Energy>  (53) 
106.9152805082875

>  <Genealogy>  (53) 
C=CCOC(=O)n1c(C([NH-])=O)cc2ccc(Cn3nc(C)cc3N)cc21 (protonated)
C=CCOC(=O)n1c(C([NH-])=O)cc2ccc(Cn3nc(C)cc3N)cc21 (3D coordinates assigned)
C=CCOC(=O)n1c(C([NH-])=O)cc2ccc(Cn3nc(C)cc3N)cc21 (optimized conformer: 106.9152805082875 kcal/mol)

>  <smiles>  (53) 
C=CCOC(=O)n1c(C(N)=O)cc2ccc(Cn3nc(C)cc3N)cc21

>  <score_type>  (53) 
oracle

>  <origin>  (53) 
adg

>  <m_score__min__energy>  (53) 
-8.5199999999999996

>  <m_primary>  (53) 
energy

$$$$
53:0
     RDKit          3D

 68 71  0  0  0  0  0  0  0  0999 V2000
  148.2100  159.7470  133.7440 C   0  0  0  0  0  0  0  0  0  0  0  0
  147.5090  159.3350  132.4400 C   0  0  0  0  0  0  0  0  0  0  0  0
  148.0780  160.1740  131.2800 C   0  0  0  0  0  0  0  0  0  0  0  0
  147.7530  157.8340  132.1980 C   0  0  0  0  0  0  0  0  0  0  0  0
  146.1090  159.6000  132.6150 O   0  0  0  0  0  0  0  0  0  0  0  0
  145.2440  158.9490  133.5080 C   0  0  0  0  0  0  0  0  0  0  0  0
  145.6240  157.9440  134.1630 O   0  0  0  0  0  0  0  0  0  0  0  0
  143.9190  159.4680  133.7000 N   0  0  0  0  0  0  0  0  0  0  0  0
  143.5250  160.7720  133.7560 C   0  0  0  0  0  0  0  0  0  0  0  0
  144.4150  161.9520  133.7430 C   0  0  0  0  0  0  0  0  0  0  0  0
  145.7870  161.8090  134.1020 N   0  0  0  0  0  0  0  0  0  0  0  0
  143.9890  163.0790  133.3800 O   0  0  0  0  0  0  0  0  0  0  0  0
  142.1440  160.8570  133.9360 C   0  0  0  0  0  0  0  0  0  0  0  0
  141.7040  159.5550  134.0010 C   0  0  0  0  0  0  0  0  0  0  0  0
  140.4220  159.0520  134.1960 C   0  0  0  0  0  0  0  0  0  0  0  0
  140.2590  157.6560  134.2270 C   0  0  0  0  0  0  0  0  0  0  0  0
  141.3690  156.7910  134.0450 C   0  0  0  0  0  0  0  0  0  0  0  0
  141.1980  155.3600  134.0960 N   0  0  0  0  0  0  0  0  0  0  0  0
  141.8550  154.5490  135.1310 C   0  0  0  0  0  0  0  0  0  0  0  0
  142.8230  153.5350  134.4940 C   0  0  0  0  0  0  0  0  0  0  0  0
  142.3850  153.1040  133.0640 C   0  0  0  0  0  0  0  0  0  0  0  0
  142.9120  151.7750  132.6610 N   0  0  2  0  0  0  0  0  0  0  0  0
  142.0990  150.6940  133.1750 C   0  0  0  0  0  0  0  0  0  0  0  0
  142.0740  149.6010  132.6280 O   0  0  0  0  0  0  0  0  0  0  0  0
  144.1910  151.6360  133.1610 O   0  0  0  0  0  0  0  0  0  0  0  0
  145.1640  151.9060  132.1640 C   0  0  0  0  0  0  0  0  0  0  0  0
  146.1580  152.9280  132.6470 C   0  0  0  0  0  0  0  0  0  0  0  0
  145.7220  154.1510  133.1820 C   0  0  0  0  0  0  0  0  0  0  0  0
  146.6490  155.0640  133.6970 C   0  0  0  0  0  0  0  0  0  0  0  0
  148.0130  154.7600  133.6840 C   0  0  0  0  0  0  0  0  0  0  0  0
  148.4530  153.5420  133.1570 C   0  0  0  0  0  0  0  0  0  0  0  0
  147.5300  152.6280  132.6410 C   0  0  0  0  0  0  0  0  0  0  0  0
  140.8510  153.2150  132.8880 C   0  0  0  0  0  0  0  0  0  0  0  0
  140.4110  154.6790  133.0530 C   0  0  0  0  0  0  0  0  0  0  0  0
  142.6560  157.3440  133.8550 C   0  0  0  0  0  0  0  0  0  0  0  0
  142.7930  158.7360  133.8550 C   0  0  0  0  0  0  0  0  0  0  0  0
  147.6186  159.3994  134.6039 H   0  0  0  0  0  0  0  0  0  0  0  0
  149.2117  159.2939  133.7808 H   0  0  0  0  0  0  0  0  0  0  0  0
  148.3015  160.8426  133.7808 H   0  0  0  0  0  0  0  0  0  0  0  0
  148.6517  161.0200  131.6864 H   0  0  0  0  0  0  0  0  0  0  0  0
  148.7376  159.5464  130.6627 H   0  0  0  0  0  0  0  0  0  0  0  0
  147.2510  160.5547  130.6627 H   0  0  0  0  0  0  0  0  0  0  0  0
  147.8373  157.3157  133.1646 H   0  0  0  0  0  0  0  0  0  0  0  0
  146.9115  157.4129  131.6283 H   0  0  0  0  0  0  0  0  0  0  0  0
  148.6845  157.7011  131.6283 H   0  0  0  0  0  0  0  0  0  0  0  0
  146.5110  161.5960  133.3810 H   0  0  0  0  0  0  0  0  0  0  0  0
  141.5362  161.7708  134.0102 H   0  0  0  0  0  0  0  0  0  0  0  0
  139.5619  159.7260  134.3221 H   0  0  0  0  0  0  0  0  0  0  0  0
  139.2591  157.2292  134.3943 H   0  0  0  0  0  0  0  0  0  0  0  0
  142.4178  155.2110  135.8055 H   0  0  0  0  0  0  0  0  0  0  0  0
  141.0848  153.9990  135.6916 H   0  0  0  0  0  0  0  0  0  0  0  0
  143.8218  153.9919  134.4335 H   0  0  0  0  0  0  0  0  0  0  0  0
  142.8254  152.6350  135.1265 H   0  0  0  0  0  0  0  0  0  0  0  0
  142.8484  153.8174  132.3667 H   0  0  0  0  0  0  0  0  0  0  0  0
  142.8560  151.7080  131.6130 H   0  0  0  0  0  0  0  0  0  0  0  0
  141.4908  150.8591  134.0766 H   0  0  0  0  0  0  0  0  0  0  0  0
  145.6954  150.9749  131.9178 H   0  0  0  0  0  0  0  0  0  0  0  0
  144.6545  152.3042  131.2741 H   0  0  0  0  0  0  0  0  0  0  0  0
  144.6488  154.3920  133.1963 H   0  0  0  0  0  0  0  0  0  0  0  0
  146.3037  156.0221  134.1126 H   0  0  0  0  0  0  0  0  0  0  0  0
  148.7406  155.4791  134.0885 H   0  0  0  0  0  0  0  0  0  0  0  0
  149.5267  153.3028  133.1485 H   0  0  0  0  0  0  0  0  0  0  0  0
  147.8795  151.6700  132.2286 H   0  0  0  0  0  0  0  0  0  0  0  0
  140.5722  152.8610  131.8845 H   0  0  0  0  0  0  0  0  0  0  0  0
  140.3529  152.5985  133.6508 H   0  0  0  0  0  0  0  0  0  0  0  0
  140.5513  155.2052  132.0973 H   0  0  0  0  0  0  0  0  0  0  0  0
  139.3526  154.6919  133.3525 H   0  0  0  0  0  0  0  0  0  0  0  0
  143.5311  156.6934  133.7102 H   0  0  0  0  0  0  0  0  0  0  0  0
  1  2  1  0
  2  3  1  0
  2  4  1  0
  2  5  1  0
  5  6  1  0
  6  7  2  0
  6  8  1  0
  8  9  1  0
  9 10  1  0
 10 11  1  0
 10 12  2  0
  9 13  2  0
 13 14  1  0
 14 15  2  0
 15 16  1  0
 16 17  2  0
 17 18  1  0
 18 19  1  0
 19 20  1  0
 20 21  1  0
 21 22  1  0
 22 23  1  0
 23 24  2  0
 22 25  1  0
 25 26  1  0
 26 27  1  0
 27 28  2  0
 28 29  1  0
 29 30  2  0
 30 31  1  0
 31 32  2  0
 21 33  1  0
 33 34  1  0
 17 35  1  0
 35 36  2  0
 36  8  1  0
 36 14  1  0
 34 18  1  0
 32 27  1  0
  1 37  1  0
  1 38  1  0
  1 39  1  0
  3 40  1  0
  3 41  1  0
  3 42  1  0
  4 43  1  0
  4 44  1  0
  4 45  1  0
 11 46  1  0
 13 47  1  0
 15 48  1  0
 16 49  1  0
 19 50  1  0
 19 51  1  0
 20 52  1  0
 20 53  1  0
 21 54  1  0
 22 55  1  6
 23 56  1  0
 26 57  1  0
 26 58  1  0
 28 59  1  0
 29 60  1  0
 30 61  1  0
 31 62  1  0
 32 63  1  0
 33 64  1  0
 33 65  1  0
 34 66  1  0
 34 67  1  0
 35 68  1  0
M  CHG  2  11  -1  22   1
M  END
>  <UniqueID>  (54) 
54

>  <SMILES>  (54) 
CC(C)(C)OC(=O)n1c(C([NH-])=O)cc2ccc(N3CCC([N@H+](C=O)OCc4ccccc4)CC3)cc21

>  <Energy>  (54) 
120.18650577518915

>  <Genealogy>  (54) 
CC(C)(C)OC(=O)n1c(C([NH-])=O)cc2ccc(N3CCC([NH+](C=O)OCc4ccccc4)CC3)cc21 (protonated)
CC(C)(C)OC(=O)n1c(C([NH-])=O)cc2ccc(N3CCC([N@H+](C=O)OCc4ccccc4)CC3)cc21 (chirality)
CC(C)(C)OC(=O)n1c(C([NH-])=O)cc2ccc(N3CCC([N@H+](C=O)OCc4ccccc4)CC3)cc21 (3D coordinates assigned)
CC(C)(C)OC(=O)n1c(C([NH-])=O)cc2ccc(N3CCC([N@H+](C=O)OCc4ccccc4)CC3)cc21 (nonaromatic ring conformer: 120.18650577518915 kcal/mol)

>  <smiles>  (54) 
CC(C)(C)OC(=O)n1c(C(N)=O)cc2ccc(N3CCC(N(C=O)OCc4ccccc4)CC3)cc21

>  <score_type>  (54) 
oracle

>  <origin>  (54) 
adg

>  <m_score__min__energy>  (54) 
-10.34

>  <m_primary>  (54) 
energy

$$$$
54:0
     RDKit          3D

 49 50  0  0  0  0  0  0  0  0999 V2000
  141.6240  156.9130  135.4590 C   0  0  0  0  0  0  0  0  0  0  0  0
  141.8230  158.3570  134.9670 C   0  0  0  0  0  0  0  0  0  0  0  0
  141.2220  159.3250  136.0030 C   0  0  0  0  0  0  0  0  0  0  0  0
  141.1220  158.5160  133.6010 C   0  0  0  0  0  0  0  0  0  0  0  0
  143.2370  158.5700  134.8480 O   0  0  0  0  0  0  0  0  0  0  0  0
  144.0830  158.0190  133.8740 C   0  0  0  0  0  0  0  0  0  0  0  0
  143.7180  157.0250  133.1930 O   0  0  0  0  0  0  0  0  0  0  0  0
  145.3780  158.6020  133.6530 N   0  0  0  0  0  0  0  0  0  0  0  0
  145.6810  159.9280  133.5710 C   0  0  0  0  0  0  0  0  0  0  0  0
  144.7630  161.0440  133.8760 C   0  0  0  0  0  0  0  0  0  0  0  0
  143.3620  160.9400  133.6160 N   0  0  0  0  0  0  0  0  0  0  0  0
  145.2140  162.0830  134.4290 O   0  0  0  0  0  0  0  0  0  0  0  0
  147.0100  160.1090  133.2010 C   0  0  0  0  0  0  0  0  0  0  0  0
  147.5280  158.8420  133.0720 C   0  0  0  0  0  0  0  0  0  0  0  0
  148.8070  158.4310  132.7080 C   0  0  0  0  0  0  0  0  0  0  0  0
  149.0550  157.0510  132.6150 C   0  0  0  0  0  0  0  0  0  0  0  0
  148.0240  156.1210  132.8770 C   0  0  0  0  0  0  0  0  0  0  0  0
  148.2840  154.7110  132.7600 C   0  0  0  0  0  0  0  0  0  0  0  0
  148.5000  153.5290  132.6630 C   0  0  0  0  0  0  0  0  0  0  0  0
  148.8250  151.7500  132.5070 Si  0  0  0  0  0  4  0  0  0  0  0  0
  147.2160  150.8460  132.2330 C   0  0  0  0  0  0  0  0  0  0  0  0
  149.6340  151.1290  134.0700 C   0  0  0  0  0  0  0  0  0  0  0  0
  149.9620  151.4550  131.0570 C   0  0  0  0  0  0  0  0  0  0  0  0
  146.7380  156.5680  133.2420 C   0  0  0  0  0  0  0  0  0  0  0  0
  146.5220  157.9480  133.3470 C   0  0  0  0  0  0  0  0  0  0  0  0
  141.6218  156.8974  136.5589 H   0  0  0  0  0  0  0  0  0  0  0  0
  140.6642  156.5272  135.0849 H   0  0  0  0  0  0  0  0  0  0  0  0
  142.4437  156.2819  135.0849 H   0  0  0  0  0  0  0  0  0  0  0  0
  141.4469  158.9627  137.0170 H   0  0  0  0  0  0  0  0  0  0  0  0
  141.6579  160.3256  135.8660 H   0  0  0  0  0  0  0  0  0  0  0  0
  140.1319  159.3781  135.8660 H   0  0  0  0  0  0  0  0  0  0  0  0
  140.0604  158.7568  133.7595 H   0  0  0  0  0  0  0  0  0  0  0  0
  141.6017  159.3282  133.0350 H   0  0  0  0  0  0  0  0  0  0  0  0
  141.2043  157.5764  133.0350 H   0  0  0  0  0  0  0  0  0  0  0  0
  142.9440  160.0470  133.2820 H   0  0  0  0  0  0  0  0  0  0  0  0
  142.7260  161.7400  133.8290 H   0  0  0  0  0  0  0  0  0  0  0  0
  147.5347  161.0631  133.0449 H   0  0  0  0  0  0  0  0  0  0  0  0
  149.5998  159.1644  132.4994 H   0  0  0  0  0  0  0  0  0  0  0  0
  150.0571  156.6928  132.3368 H   0  0  0  0  0  0  0  0  0  0  0  0
  146.7670  150.5937  133.2050 H   0  0  0  0  0  0  0  0  0  0  0  0
  146.5263  151.4887  131.6662 H   0  0  0  0  0  0  0  0  0  0  0  0
  147.4061  149.9226  131.6662 H   0  0  0  0  0  0  0  0  0  0  0  0
  149.1040  151.5359  134.9438 H   0  0  0  0  0  0  0  0  0  0  0  0
  149.5905  150.0301  134.0937 H   0  0  0  0  0  0  0  0  0  0  0  0
  150.6843  151.4550  134.0937 H   0  0  0  0  0  0  0  0  0  0  0  0
  150.9654  151.1947  131.4249 H   0  0  0  0  0  0  0  0  0  0  0  0
  149.5699  150.6289  130.4457 H   0  0  0  0  0  0  0  0  0  0  0  0
  150.0210  152.3676  130.4457 H   0  0  0  0  0  0  0  0  0  0  0  0
  145.9261  155.8525  133.4391 H   0  0  0  0  0  0  0  0  0  0  0  0
  1  2  1  0
  2  3  1  0
  2  4  1  0
  2  5  1  0
  5  6  1  0
  6  7  2  0
  6  8  1  0
  8  9  1  0
  9 10  1  0
 10 11  1  0
 10 12  2  0
  9 13  2  0
 13 14  1  0
 14 15  2  0
 15 16  1  0
 16 17  2  0
 17 18  1  0
 18 19  3  0
 19 20  1  0
 20 21  1  0
 20 22  1  0
 20 23  1  0
 17 24  1  0
 24 25  2  0
 25  8  1  0
 25 14  1  0
  1 26  1  0
  1 27  1  0
  1 28  1  0
  3 29  1  0
  3 30  1  0
  3 31  1  0
  4 32  1  0
  4 33  1  0
  4 34  1  0
 11 35  1  0
 11 36  1  0
 13 37  1  0
 15 38  1  0
 16 39  1  0
 21 40  1  0
 21 41  1  0
 21 42  1  0
 22 43  1  0
 22 44  1  0
 22 45  1  0
 23 46  1  0
 23 47  1  0
 23 48  1  0
 24 49  1  0
M  END
>  <UniqueID>  (55) 
55

>  <SMILES>  (55) 
CC(C)(C)OC(=O)n1c(C(N)=O)cc2ccc(C#C[Si](C)(C)C)cc21

>  <Energy>  (55) 
66.16339607857873

>  <Genealogy>  (55) 
CC(C)(C)OC(=O)n1c(C(N)=O)cc2ccc(C#C[Si](C)(C)C)cc21 (3D coordinates assigned)
CC(C)(C)OC(=O)n1c(C(N)=O)cc2ccc(C#C[Si](C)(C)C)cc21 (optimized conformer: 66.16339607857873 kcal/mol)

>  <smiles>  (55) 
CC(C)(C)OC(=O)n1c(C(N)=O)cc2ccc(C#C[Si](C)(C)C)cc21

>  <score_type>  (55) 
oracle

>  <origin>  (55) 
adg

>  <m_score__min__energy>  (55) 
-8.3200000000000003

>  <m_primary>  (55) 
energy

$$$$
55:0
     RDKit          3D

 43 46  0  0  0  0  0  0  0  0999 V2000
  148.6660  158.0700  131.6990 N   0  0  0  0  0  0  0  0  0  0  0  0
  148.3110  158.7010  132.9260 C   0  0  0  0  0  0  0  0  0  0  0  0
  149.2190  159.0180  133.7400 O   0  0  0  0  0  0  0  0  0  0  0  0
  146.9050  159.0380  133.2310 C   0  0  0  0  0  0  0  0  0  0  0  0
  146.4410  160.3460  133.3530 C   0  0  0  0  0  0  0  0  0  0  0  0
  145.0820  160.2340  133.5370 C   0  0  0  0  0  0  0  0  0  0  0  0
  144.1210  161.2240  133.7230 C   0  0  0  0  0  0  0  0  0  0  0  0
  142.7900  160.8200  133.9170 C   0  0  0  0  0  0  0  0  0  0  0  0
  142.4420  159.4420  133.9260 C   0  0  0  0  0  0  0  0  0  0  0  0
  141.0110  159.0050  134.1590 C   0  0  1  0  0  0  0  0  0  0  0  0
  140.3720  158.3750  132.8940 C   0  0  0  0  0  0  0  0  0  0  0  0
  140.0160  156.9920  133.3300 C   0  0  0  0  0  0  0  0  0  0  0  0
  139.4710  156.1390  132.5800 O   0  0  0  0  0  0  0  0  0  0  0  0
  140.3450  156.7240  134.6770 N   0  0  0  0  0  0  0  0  0  0  0  0
  140.9270  157.9100  135.1780 C   0  0  0  0  0  0  0  0  0  0  0  0
  141.3160  158.0250  136.3700 O   0  0  0  0  0  0  0  0  0  0  0  0
  143.4500  158.4690  133.7400 C   0  0  0  0  0  0  0  0  0  0  0  0
  144.7650  158.9010  133.5290 C   0  0  0  0  0  0  0  0  0  0  0  0
  145.8750  158.1520  133.3470 N   0  0  0  0  0  0  0  0  0  0  0  0
  145.9400  156.7180  133.3520 C   0  0  0  0  0  0  0  0  0  0  0  0
  146.7490  156.1240  132.5880 O   0  0  0  0  0  0  0  0  0  0  0  0
  145.1310  155.9920  134.2340 O   0  0  0  0  0  0  0  0  0  0  0  0
  145.4010  154.6570  134.6610 C   0  0  0  0  0  0  0  0  0  0  0  0
  144.1080  153.8340  134.7630 C   0  0  2  0  0  0  0  0  0  0  0  0
  143.0330  154.2490  133.7210 C   0  0  0  0  0  0  0  0  0  0  0  0
  141.9520  154.7620  134.4840 O   0  0  0  0  0  0  0  0  0  0  0  0
  142.2260  154.6060  135.8220 C   0  0  0  0  0  0  0  0  0  0  0  0
  141.4310  154.9470  136.7350 O   0  0  0  0  0  0  0  0  0  0  0  0
  143.4890  154.0330  136.0710 N   0  0  0  0  0  0  0  0  0  0  0  0
  148.3400  157.1040  131.4760 H   0  0  0  0  0  0  0  0  0  0  0  0
  147.0346  161.2711  133.3111 H   0  0  0  0  0  0  0  0  0  0  0  0
  144.3956  162.2892  133.7182 H   0  0  0  0  0  0  0  0  0  0  0  0
  142.0075  161.5791  134.0637 H   0  0  0  0  0  0  0  0  0  0  0  0
  140.4944  159.9242  134.4724 H   0  0  0  0  0  0  0  0  0  0  0  0
  139.4749  158.9332  132.5880 H   0  0  0  0  0  0  0  0  0  0  0  0
  141.0452  158.3882  132.0242 H   0  0  0  0  0  0  0  0  0  0  0  0
  140.1810  155.8350  135.1990 H   0  0  0  0  0  0  0  0  0  0  0  0
  143.2069  157.3964  133.7606 H   0  0  0  0  0  0  0  0  0  0  0  0
  146.0751  154.1778  133.9358 H   0  0  0  0  0  0  0  0  0  0  0  0
  145.8675  154.6974  135.6563 H   0  0  0  0  0  0  0  0  0  0  0  0
  144.4121  152.7916  134.5872 H   0  0  0  0  0  0  0  0  0  0  0  0
  143.4289  155.0216  133.0454 H   0  0  0  0  0  0  0  0  0  0  0  0
  142.7248  153.4026  133.0897 H   0  0  0  0  0  0  0  0  0  0  0  0
  1  2  1  0
  2  3  2  0
  2  4  1  0
  4  5  2  0
  5  6  1  0
  6  7  2  0
  7  8  1  0
  8  9  2  0
  9 10  1  0
 10 11  1  0
 11 12  1  0
 12 13  2  0
 12 14  1  0
 14 15  1  0
 15 16  2  0
  9 17  1  0
 17 18  2  0
 18 19  1  0
 19 20  1  0
 20 21  2  0
 20 22  1  0
 22 23  1  0
 23 24  1  0
 24 25  1  0
 25 26  1  0
 26 27  1  0
 27 28  2  0
 27 29  1  0
 19  4  1  0
 29 24  1  0
 18  6  1  0
 15 10  1  0
  1 30  1  0
  5 31  1  0
  7 32  1  0
  8 33  1  0
 10 34  1  1
 11 35  1  0
 11 36  1  0
 14 37  1  0
 17 38  1  0
 23 39  1  0
 23 40  1  0
 24 41  1  6
 25 42  1  0
 25 43  1  0
M  CHG  2   1  -1  29  -1
M  END
>  <UniqueID>  (56) 
56

>  <SMILES>  (56) 
[NH-]C(=O)c1cc2ccc([C@H]3CC(=O)NC3=O)cc2n1C(=O)OC[C@@H]1COC(=O)[N-]1

>  <Energy>  (56) 
111.09726687575716

>  <Genealogy>  (56) 
[NH-]C(=O)c1cc2ccc(C3CC(=O)NC3=O)cc2n1C(=O)OCC1COC(=O)[N-]1 (protonated)
[NH-]C(=O)c1cc2ccc([C@H]3CC(=O)NC3=O)cc2n1C(=O)OC[C@@H]1COC(=O)[N-]1 (chirality)
[NH-]C(=O)c1cc2ccc([C@H]3CC(=O)NC3=O)cc2n1C(=O)OC[C@@H]1COC(=O)[N-]1 (3D coordinates assigned)
[NH-]C(=O)c1cc2ccc([C@H]3CC(=O)NC3=O)cc2n1C(=O)OC[C@@H]1COC(=O)[N-]1 (nonaromatic ring conformer: 111.09726687575716 kcal/mol)

>  <smiles>  (56) 
NC(=O)c1cc2ccc(C3CC(=O)NC3=O)cc2n1C(=O)OCC1COC(=O)N1

>  <score_type>  (56) 
oracle

>  <origin>  (56) 
adg

>  <m_score__min__energy>  (56) 
-9.0099999999999998

>  <m_primary>  (56) 
energy

$$$$
56:0
     RDKit          3D

 36 37  0  0  0  0  0  0  0  0999 V2000
  145.0110  161.6470  134.1200 C   0  0  0  0  0  0  0  0  0  0  0  0
  144.5700  160.2810  133.6040 C   0  0  0  0  0  0  0  0  0  0  0  0
  145.7620  159.3940  133.3620 C   0  0  0  0  0  0  0  0  0  0  0  0
  147.0320  159.9660  133.0980 C   0  0  0  0  0  0  0  0  0  0  0  0
  148.1480  159.1490  132.8470 C   0  0  0  0  0  0  0  0  0  0  0  0
  147.9590  157.7700  132.8520 C   0  0  0  0  0  0  0  0  0  0  0  0
  148.8620  156.7480  132.6600 C   0  0  0  0  0  0  0  0  0  0  0  0
  148.1220  155.5730  132.7810 C   0  0  0  0  0  0  0  0  0  0  0  0
  148.6890  154.2250  132.5760 C   0  0  0  0  0  0  0  0  0  0  0  0
  147.8620  153.0660  132.6380 N   0  0  0  0  0  0  0  0  0  0  0  0
  149.9130  154.0960  132.3070 O   0  0  0  0  0  0  0  0  0  0  0  0
  146.8160  155.8580  133.0420 N   0  0  0  0  0  0  0  0  0  0  0  0
  145.7450  154.9450  133.3290 C   0  0  0  0  0  0  0  0  0  0  0  0
  145.2450  154.9310  134.4890 O   0  0  0  0  0  0  0  0  0  0  0  0
  145.3690  153.9450  132.3550 N   0  0  0  0  0  0  0  0  0  0  0  0
  144.4230  154.4850  131.3620 C   0  0  0  0  0  0  0  0  0  0  0  0
  144.7850  152.7860  133.0460 C   0  0  0  0  0  0  0  0  0  0  0  0
  146.7320  157.2050  133.0810 C   0  0  0  0  0  0  0  0  0  0  0  0
  145.6070  157.9900  133.3460 C   0  0  0  0  0  0  0  0  0  0  0  0
  145.0092  161.6415  135.2200 H   0  0  0  0  0  0  0  0  0  0  0  0
  146.0256  161.8664  133.7561 H   0  0  0  0  0  0  0  0  0  0  0  0
  144.3162  162.4182  133.7561 H   0  0  0  0  0  0  0  0  0  0  0  0
  143.9133  159.8082  134.3492 H   0  0  0  0  0  0  0  0  0  0  0  0
  144.0324  160.4182  132.6542 H   0  0  0  0  0  0  0  0  0  0  0  0
  147.1452  161.0601  133.0895 H   0  0  0  0  0  0  0  0  0  0  0  0
  149.1389  159.5855  132.6529 H   0  0  0  0  0  0  0  0  0  0  0  0
  149.9388  156.8396  132.4547 H   0  0  0  0  0  0  0  0  0  0  0  0
  147.2360  152.8110  131.8430 H   0  0  0  0  0  0  0  0  0  0  0  0
  146.2250  153.6230  131.8470 H   0  0  0  0  0  0  0  0  0  0  0  0
  143.5809  154.9657  131.8814 H   0  0  0  0  0  0  0  0  0  0  0  0
  144.9363  155.2262  130.7318 H   0  0  0  0  0  0  0  0  0  0  0  0
  144.0458  153.6661  130.7318 H   0  0  0  0  0  0  0  0  0  0  0  0
  144.8587  152.9322  134.1337 H   0  0  0  0  0  0  0  0  0  0  0  0
  143.7276  152.6835  132.7606 H   0  0  0  0  0  0  0  0  0  0  0  0
  145.3318  151.8752  132.7606 H   0  0  0  0  0  0  0  0  0  0  0  0
  144.6274  157.5274  133.5369 H   0  0  0  0  0  0  0  0  0  0  0  0
  1  2  1  0
  2  3  1  0
  3  4  2  0
  4  5  1  0
  5  6  2  0
  6  7  1  0
  7  8  2  0
  8  9  1  0
  9 10  1  0
  9 11  2  0
  8 12  1  0
 12 13  1  0
 13 14  2  0
 13 15  1  0
 15 16  1  0
 15 17  1  0
 12 18  1  0
 18 19  2  0
 19  3  1  0
 18  6  1  0
  1 20  1  0
  1 21  1  0
  1 22  1  0
  2 23  1  0
  2 24  1  0
  4 25  1  0
  5 26  1  0
  7 27  1  0
 10 28  1  0
 15 29  1  0
 16 30  1  0
 16 31  1  0
 16 32  1  0
 17 33  1  0
 17 34  1  0
 17 35  1  0
 19 36  1  0
M  CHG  2  10  -1  15   1
M  END
>  <UniqueID>  (57) 
57

>  <SMILES>  (57) 
CCc1ccc2cc(C([NH-])=O)n(C(=O)[NH+](C)C)c2c1

>  <Energy>  (57) 
73.34509796789484

>  <Genealogy>  (57) 
CCc1ccc2cc(C([NH-])=O)n(C(=O)[NH+](C)C)c2c1 (protonated)
CCc1ccc2cc(C([NH-])=O)n(C(=O)[NH+](C)C)c2c1 (3D coordinates assigned)
CCc1ccc2cc(C([NH-])=O)n(C(=O)[NH+](C)C)c2c1 (optimized conformer: 73.34509796789484 kcal/mol)

>  <smiles>  (57) 
CCc1ccc2cc(C(N)=O)n(C(=O)N(C)C)c2c1

>  <score_type>  (57) 
oracle

>  <origin>  (57) 
adg

>  <m_score__min__energy>  (57) 
-6.0199999999999996

>  <m_primary>  (57) 
energy

$$$$
57:0
     RDKit          3D

 46 47  0  0  0  0  0  0  0  0999 V2000
  149.6770  159.7600  130.6770 C   0  0  0  0  0  0  0  0  0  0  0  0
  148.5040  160.7330  130.7300 C   0  0  0  0  0  0  0  0  0  0  0  0
  147.3580  160.1070  131.3030 O   0  0  0  0  0  0  0  0  0  0  0  0
  147.1130  160.0560  132.6790 C   0  0  0  0  0  0  0  0  0  0  0  0
  147.7300  160.8260  133.4660 O   0  0  0  0  0  0  0  0  0  0  0  0
  146.1300  159.1450  133.1940 N   0  0  0  0  0  0  0  0  0  0  0  0
  144.8610  159.4260  133.6050 C   0  0  0  0  0  0  0  0  0  0  0  0
  144.2780  160.7770  133.7560 C   0  0  0  0  0  0  0  0  0  0  0  0
  145.0940  161.8930  134.1010 N   0  0  0  0  0  0  0  0  0  0  0  0
  143.0330  160.9390  133.6300 O   0  0  0  0  0  0  0  0  0  0  0  0
  144.1920  158.2570  133.9570 C   0  0  0  0  0  0  0  0  0  0  0  0
  145.1010  157.2430  133.7590 C   0  0  0  0  0  0  0  0  0  0  0  0
  144.9650  155.8700  133.9440 C   0  0  0  0  0  0  0  0  0  0  0  0
  146.0620  155.0510  133.6330 C   0  0  0  0  0  0  0  0  0  0  0  0
  147.2650  155.6140  133.1400 C   0  0  0  0  0  0  0  0  0  0  0  0
  148.4120  154.7190  132.7530 C   0  0  0  0  0  0  0  0  0  0  0  0
  148.1820  153.3160  133.2600 C   0  0  0  0  0  0  0  0  0  0  0  0
  148.4080  153.0710  134.4380 O   0  0  0  0  0  0  0  0  0  0  0  0
  147.6780  152.2770  132.3770 N   0  0  2  0  0  0  0  0  0  0  0  0
  146.2070  152.1710  132.4580 C   0  0  0  0  0  0  0  0  0  0  0  0
  148.3590  150.9740  132.5810 C   0  0  0  0  0  0  0  0  0  0  0  0
  149.7150  150.8190  131.8660 C   0  0  0  0  0  0  0  0  0  0  0  0
  149.9510  151.9130  131.0240 O   0  0  0  0  0  0  0  0  0  0  0  0
  147.3640  157.0120  132.9560 C   0  0  0  0  0  0  0  0  0  0  0  0
  146.2630  157.8040  133.2960 C   0  0  0  0  0  0  0  0  0  0  0  0
  149.9868  159.5030  131.7007 H   0  0  0  0  0  0  0  0  0  0  0  0
  149.3718  158.8463  130.1460 H   0  0  0  0  0  0  0  0  0  0  0  0
  150.5186  160.2288  130.1460 H   0  0  0  0  0  0  0  0  0  0  0  0
  148.7839  161.6036  131.3413 H   0  0  0  0  0  0  0  0  0  0  0  0
  148.2597  161.0501  129.7054 H   0  0  0  0  0  0  0  0  0  0  0  0
  145.9770  162.0890  133.5800 H   0  0  0  0  0  0  0  0  0  0  0  0
  143.1568  158.1637  134.3169 H   0  0  0  0  0  0  0  0  0  0  0  0
  144.0261  155.4397  134.3225 H   0  0  0  0  0  0  0  0  0  0  0  0
  145.9868  153.9626  133.7733 H   0  0  0  0  0  0  0  0  0  0  0  0
  148.5007  154.6978  131.6568 H   0  0  0  0  0  0  0  0  0  0  0  0
  149.3367  155.1120  133.2007 H   0  0  0  0  0  0  0  0  0  0  0  0
  147.8820  152.5630  131.3910 H   0  0  0  0  0  0  0  0  0  0  0  0
  145.8986  152.1488  133.5136 H   0  0  0  0  0  0  0  0  0  0  0  0
  145.7489  153.0385  131.9603 H   0  0  0  0  0  0  0  0  0  0  0  0
  145.8780  151.2468  131.9603 H   0  0  0  0  0  0  0  0  0  0  0  0
  148.5274  150.8442  133.6602 H   0  0  0  0  0  0  0  0  0  0  0  0
  147.6962  150.2133  132.1429 H   0  0  0  0  0  0  0  0  0  0  0  0
  150.5163  150.7605  132.6173 H   0  0  0  0  0  0  0  0  0  0  0  0
  149.6963  149.9006  131.2609 H   0  0  0  0  0  0  0  0  0  0  0  0
  150.6830  152.4350  131.4460 H   0  0  0  0  0  0  0  0  0  0  0  0
  148.2831  157.4649  132.5558 H   0  0  0  0  0  0  0  0  0  0  0  0
  1  2  1  0
  2  3  1  0
  3  4  1  0
  4  5  2  0
  4  6  1  0
  6  7  1  0
  7  8  1  0
  8  9  1  0
  8 10  2  0
  7 11  2  0
 11 12  1  0
 12 13  2  0
 13 14  1  0
 14 15  2  0
 15 16  1  0
 16 17  1  0
 17 18  2  0
 17 19  1  0
 19 20  1  0
 19 21  1  0
 21 22  1  0
 22 23  1  0
 15 24  1  0
 24 25  2  0
 25  6  1  0
 25 12  1  0
  1 26  1  0
  1 27  1  0
  1 28  1  0
  2 29  1  0
  2 30  1  0
  9 31  1  0
 11 32  1  0
 13 33  1  0
 14 34  1  0
 16 35  1  0
 16 36  1  0
 19 37  1  6
 20 38  1  0
 20 39  1  0
 20 40  1  0
 21 41  1  0
 21 42  1  0
 22 43  1  0
 22 44  1  0
 23 45  1  0
 24 46  1  0
M  CHG  2   9  -1  19   1
M  END
>  <UniqueID>  (58) 
58

>  <SMILES>  (58) 
CCOC(=O)n1c(C([NH-])=O)cc2ccc(CC(=O)[N@H+](C)CCO)cc21

>  <Energy>  (58) 
82.10339088000784

>  <Genealogy>  (58) 
CCOC(=O)n1c(C([NH-])=O)cc2ccc(CC(=O)[NH+](C)CCO)cc21 (protonated)
CCOC(=O)n1c(C([NH-])=O)cc2ccc(CC(=O)[N@H+](C)CCO)cc21 (chirality)
CCOC(=O)n1c(C([NH-])=O)cc2ccc(CC(=O)[N@H+](C)CCO)cc21 (3D coordinates assigned)
CCOC(=O)n1c(C([NH-])=O)cc2ccc(CC(=O)[N@H+](C)CCO)cc21 (optimized conformer: 82.10339088000784 kcal/mol)

>  <smiles>  (58) 
CCOC(=O)n1c(C(N)=O)cc2ccc(CC(=O)N(C)CCO)cc21

>  <score_type>  (58) 
oracle

>  <origin>  (58) 
adg

>  <m_score__min__energy>  (58) 
-6.1699999999999999

>  <m_primary>  (58) 
energy

$$$$
58:0
     RDKit          3D

 38 40  0  0  0  0  0  0  0  0999 V2000
  138.0380  159.4750  131.5050 C   0  0  0  0  0  0  0  0  0  0  0  0
  139.2860  159.4410  132.3230 C   0  0  0  0  0  0  0  0  0  0  0  0
  140.2420  160.3350  132.2510 O   0  0  0  0  0  0  0  0  0  0  0  0
  141.1450  159.9690  133.1300 C   0  0  0  0  0  0  0  0  0  0  0  0
  142.2120  160.6000  133.3410 O   0  0  0  0  0  0  0  0  0  0  0  0
  140.8100  158.8750  133.7720 O   0  0  0  0  0  0  0  0  0  0  0  0
  139.6420  158.5180  133.2930 C   0  0  0  0  0  0  0  0  0  0  0  0
  138.8880  157.2970  133.7280 C   0  0  0  0  0  0  0  0  0  0  0  0
  139.7690  156.2410  134.1070 O   0  0  0  0  0  0  0  0  0  0  0  0
  139.9770  155.0930  133.3370 C   0  0  0  0  0  0  0  0  0  0  0  0
  139.0090  154.5590  132.7300 O   0  0  0  0  0  0  0  0  0  0  0  0
  141.2960  154.5250  133.2240 N   0  0  0  0  0  0  0  0  0  0  0  0
  142.4840  155.1660  133.4200 C   0  0  0  0  0  0  0  0  0  0  0  0
  142.6660  156.6210  133.5710 C   0  0  0  0  0  0  0  0  0  0  0  0
  142.5660  157.4960  132.4460 N   0  0  0  0  0  0  0  0  0  0  0  0
  142.9750  157.0940  134.6970 O   0  0  0  0  0  0  0  0  0  0  0  0
  143.5450  154.2670  133.3860 C   0  0  0  0  0  0  0  0  0  0  0  0
  142.9720  153.0420  133.1400 C   0  0  0  0  0  0  0  0  0  0  0  0
  143.5700  151.7940  132.9920 C   0  0  0  0  0  0  0  0  0  0  0  0
  142.7400  150.6890  132.7460 C   0  0  0  0  0  0  0  0  0  0  0  0
  141.3320  150.8430  132.6730 C   0  0  0  0  0  0  0  0  0  0  0  0
  140.4520  149.6590  132.3560 C   0  0  0  0  0  0  0  0  0  0  0  0
  139.2250  150.0800  131.8720 F   0  0  0  0  0  0  0  0  0  0  0  0
  141.0710  148.8780  131.3970 F   0  0  0  0  0  0  0  0  0  0  0  0
  140.2310  148.8940  133.4880 F   0  0  0  0  0  0  0  0  0  0  0  0
  140.7640  152.1320  132.8040 C   0  0  0  0  0  0  0  0  0  0  0  0
  141.6160  153.2210  133.0420 C   0  0  0  0  0  0  0  0  0  0  0  0
  137.1633  159.4988  132.1715 H   0  0  0  0  0  0  0  0  0  0  0  0
  138.0400  160.3734  130.8703 H   0  0  0  0  0  0  0  0  0  0  0  0
  137.9910  158.5778  130.8703 H   0  0  0  0  0  0  0  0  0  0  0  0
  138.2529  157.5574  134.5876 H   0  0  0  0  0  0  0  0  0  0  0  0
  138.2798  156.9490  132.8801 H   0  0  0  0  0  0  0  0  0  0  0  0
  142.4900  157.1210  131.4770 H   0  0  0  0  0  0  0  0  0  0  0  0
  142.6270  158.5300  132.5820 H   0  0  0  0  0  0  0  0  0  0  0  0
  144.6133  154.4888  133.5259 H   0  0  0  0  0  0  0  0  0  0  0  0
  144.6613  151.6770  133.0657 H   0  0  0  0  0  0  0  0  0  0  0  0
  143.1864  149.6931  132.6084 H   0  0  0  0  0  0  0  0  0  0  0  0
  139.6768  152.2775  132.7210 H   0  0  0  0  0  0  0  0  0  0  0  0
  1  2  1  0
  2  3  1  0
  3  4  1  0
  4  5  2  0
  4  6  1  0
  6  7  1  0
  7  8  1  0
  8  9  1  0
  9 10  1  0
 10 11  2  0
 10 12  1  0
 12 13  1  0
 13 14  1  0
 14 15  1  0
 14 16  2  0
 13 17  2  0
 17 18  1  0
 18 19  2  0
 19 20  1  0
 20 21  2  0
 21 22  1  0
 22 23  1  0
 22 24  1  0
 22 25  1  0
 21 26  1  0
 26 27  2  0
  7  2  2  0
 27 12  1  0
 27 18  1  0
  1 28  1  0
  1 29  1  0
  1 30  1  0
  8 31  1  0
  8 32  1  0
 15 33  1  0
 15 34  1  0
 17 35  1  0
 19 36  1  0
 20 37  1  0
 26 38  1  0
M  END
>  <UniqueID>  (59) 
59

>  <SMILES>  (59) 
Cc1oc(=O)oc1COC(=O)n1c(C(N)=O)cc2ccc(C(F)(F)F)cc21

>  <Energy>  (59) 
109.54909435711026

>  <Genealogy>  (59) 
Cc1oc(=O)oc1COC(=O)n1c(C(N)=O)cc2ccc(C(F)(F)F)cc21 (3D coordinates assigned)
Cc1oc(=O)oc1COC(=O)n1c(C(N)=O)cc2ccc(C(F)(F)F)cc21 (optimized conformer: 109.54909435711026 kcal/mol)

>  <smiles>  (59) 
Cc1oc(=O)oc1COC(=O)n1c(C(N)=O)cc2ccc(C(F)(F)F)cc21

>  <score_type>  (59) 
oracle

>  <origin>  (59) 
adg

>  <m_score__min__energy>  (59) 
-6.7199999999999998

>  <m_primary>  (59) 
energy

$$$$
59:0
     RDKit          3D

 41 43  0  0  0  0  0  0  0  0999 V2000
  145.4080  155.7030  133.8460 C   0  0  0  0  0  0  0  0  0  0  0  0
  146.1720  156.6700  132.9990 C   0  0  0  0  0  0  0  0  0  0  0  0
  146.9580  156.2300  132.1180 O   0  0  0  0  0  0  0  0  0  0  0  0
  146.0240  158.0860  133.1820 N   0  0  0  0  0  0  0  0  0  0  0  0
  147.0130  159.0150  133.3090 C   0  0  0  0  0  0  0  0  0  0  0  0
  148.4630  158.7640  133.1590 C   0  0  0  0  0  0  0  0  0  0  0  0
  149.0060  158.3020  131.9250 N   0  0  0  0  0  0  0  0  0  0  0  0
  149.2380  158.9910  134.1250 O   0  0  0  0  0  0  0  0  0  0  0  0
  146.4700  160.2760  133.5440 C   0  0  0  0  0  0  0  0  0  0  0  0
  145.1070  160.0880  133.5590 C   0  0  0  0  0  0  0  0  0  0  0  0
  144.0820  161.0060  133.7390 C   0  0  0  0  0  0  0  0  0  0  0  0
  142.7610  160.5310  133.7180 C   0  0  0  0  0  0  0  0  0  0  0  0
  142.4700  159.1420  133.5670 C   0  0  0  0  0  0  0  0  0  0  0  0
  141.0680  158.6940  133.5000 N   0  0  1  0  0  0  0  0  0  0  0  0
  140.4260  159.4590  132.4330 C   0  0  0  0  0  0  0  0  0  0  0  0
  139.9940  160.6240  132.6610 O   0  0  0  0  0  0  0  0  0  0  0  0
  140.3120  158.9550  131.1400 O   0  0  0  0  0  0  0  0  0  0  0  0
  140.8990  157.2510  133.1960 C   0  0  0  0  0  0  0  0  0  0  0  0
  139.5280  156.8310  133.7130 C   0  0  0  0  0  0  0  0  0  0  0  0
  139.1550  157.8680  134.7600 C   0  0  0  0  0  0  0  0  0  0  0  0
  140.3390  158.8450  134.8010 C   0  0  1  0  0  0  0  0  0  0  0  0
  141.1960  158.5440  136.0210 C   0  0  0  0  0  0  0  0  0  0  0  0
  141.9270  157.5190  136.0640 O   0  0  0  0  0  0  0  0  0  0  0  0
  141.1650  159.4020  137.1140 O   0  0  0  0  0  0  0  0  0  0  0  0
  143.5600  158.2520  133.3380 C   0  0  0  0  0  0  0  0  0  0  0  0
  144.8630  158.7600  133.3430 C   0  0  0  0  0  0  0  0  0  0  0  0
  145.5848  155.9268  134.9084 H   0  0  0  0  0  0  0  0  0  0  0  0
  144.3339  155.7922  133.6263 H   0  0  0  0  0  0  0  0  0  0  0  0
  145.7433  154.6786  133.6263 H   0  0  0  0  0  0  0  0  0  0  0  0
  148.6530  157.4290  131.4760 H   0  0  0  0  0  0  0  0  0  0  0  0
  147.0148  161.2209  133.6871 H   0  0  0  0  0  0  0  0  0  0  0  0
  144.2980  162.0735  133.8934 H   0  0  0  0  0  0  0  0  0  0  0  0
  141.9312  161.2459  133.8203 H   0  0  0  0  0  0  0  0  0  0  0  0
  140.9572  157.0867  132.1099 H   0  0  0  0  0  0  0  0  0  0  0  0
  141.6920  156.6587  133.6759 H   0  0  0  0  0  0  0  0  0  0  0  0
  138.7926  156.8286  132.8949 H   0  0  0  0  0  0  0  0  0  0  0  0
  139.5434  155.8142  134.1324 H   0  0  0  0  0  0  0  0  0  0  0  0
  138.2322  158.3925  134.4713 H   0  0  0  0  0  0  0  0  0  0  0  0
  138.9664  157.4102  135.7422 H   0  0  0  0  0  0  0  0  0  0  0  0
  140.0261  159.8944  134.9049 H   0  0  0  0  0  0  0  0  0  0  0  0
  143.3788  157.1817  133.1600 H   0  0  0  0  0  0  0  0  0  0  0  0
  1  2  1  0
  2  3  2  0
  2  4  1  0
  4  5  1  0
  5  6  1  0
  6  7  1  0
  6  8  2  0
  5  9  2  0
  9 10  1  0
 10 11  2  0
 11 12  1  0
 12 13  2  0
 13 14  1  0
 14 15  1  6
 15 16  2  0
 15 17  1  0
 14 18  1  0
 18 19  1  0
 19 20  1  0
 20 21  1  0
 21 22  1  0
 22 23  2  0
 22 24  1  0
 13 25  1  0
 25 26  2  0
 26  4  1  0
 26 10  1  0
 21 14  1  0
  1 27  1  0
  1 28  1  0
  1 29  1  0
  7 30  1  0
  9 31  1  0
 11 32  1  0
 12 33  1  0
 18 34  1  0
 18 35  1  0
 19 36  1  0
 19 37  1  0
 20 38  1  0
 20 39  1  0
 21 40  1  1
 25 41  1  0
M  CHG  4   7  -1  14   1  17  -1  24  -1
M  END
>  <UniqueID>  (60) 
60

>  <SMILES>  (60) 
CC(=O)n1c(C([NH-])=O)cc2ccc([N@@+]3(C(=O)[O-])CCC[C@H]3C(=O)[O-])cc21

>  <Energy>  (60) 
105.16631069202607

>  <Genealogy>  (60) 
CC(=O)n1c(C([NH-])=O)cc2ccc([N+]3(C(=O)[O-])CCC[C@H]3C(=O)[O-])cc21 (protonated)
CC(=O)n1c(C([NH-])=O)cc2ccc([N@@+]3(C(=O)[O-])CCC[C@H]3C(=O)[O-])cc21 (chirality)
CC(=O)n1c(C([NH-])=O)cc2ccc([N@@+]3(C(=O)[O-])CCC[C@H]3C(=O)[O-])cc21 (3D coordinates assigned)
CC(=O)n1c(C([NH-])=O)cc2ccc([N@@+]3(C(=O)[O-])CCC[C@H]3C(=O)[O-])cc21 (nonaromatic ring conformer: 105.16631069202607 kcal/mol)

>  <smiles>  (60) 
CC(=O)n1c(C(N)=O)cc2ccc([N+]3(C(=O)O)CCC[C@H]3C(=O)O)cc21

>  <score_type>  (60) 
oracle

>  <origin>  (60) 
adg

>  <m_score__min__energy>  (60) 
-6.9199999999999999

>  <m_primary>  (60) 
energy

$$$$
60:0
     RDKit          3D

 56 59  0  0  0  0  0  0  0  0999 V2000
  142.0530  156.0580  134.7740 C   0  0  0  0  0  0  0  0  0  0  0  0
  141.6140  157.4800  134.4060 C   0  0  2  0  0  0  0  0  0  0  0  0
  140.6460  157.4630  133.2020 C   0  0  0  0  0  0  0  0  0  0  0  0
  139.7180  158.6190  133.2510 N   0  0  0  0  0  0  0  0  0  0  0  0
  140.1420  159.6870  132.3350 C   0  0  0  0  0  0  0  0  0  0  0  0
  139.4720  159.4360  130.9960 C   0  0  0  0  0  0  0  0  0  0  0  0
  138.2400  158.6140  131.3220 C   0  0  0  0  0  0  0  0  0  0  0  0
  138.3660  158.2510  132.7980 C   0  0  0  0  0  0  0  0  0  0  0  0
  142.8180  158.3640  134.1390 C   0  0  0  0  0  0  0  0  0  0  0  0
  142.6990  159.7740  134.2610 C   0  0  0  0  0  0  0  0  0  0  0  0
  143.7980  160.6140  134.0140 C   0  0  0  0  0  0  0  0  0  0  0  0
  145.0000  160.0220  133.6390 C   0  0  0  0  0  0  0  0  0  0  0  0
  146.2220  160.5910  133.3610 C   0  0  0  0  0  0  0  0  0  0  0  0
  147.0630  159.5240  133.0500 C   0  0  0  0  0  0  0  0  0  0  0  0
  148.4780  159.6870  132.6500 C   0  0  0  0  0  0  0  0  0  0  0  0
  149.4910  158.7830  133.0920 N   0  0  0  0  0  0  0  0  0  0  0  0
  148.7940  160.6290  131.8740 O   0  0  0  0  0  0  0  0  0  0  0  0
  146.3910  158.3440  133.1500 N   0  0  0  0  0  0  0  0  0  0  0  0
  146.9110  157.0160  133.0050 C   0  0  0  0  0  0  0  0  0  0  0  0
  147.8830  156.8130  132.2270 O   0  0  0  0  0  0  0  0  0  0  0  0
  146.3240  155.9170  133.7190 N   0  0  0  0  0  0  0  0  0  0  0  0
  145.5000  154.8980  133.0930 C   0  0  0  0  0  0  0  0  0  0  0  0
  145.3990  153.7740  134.1150 C   0  0  0  0  0  0  0  0  0  0  0  0
  145.7900  154.3940  135.4580 C   0  0  2  0  0  0  0  0  0  0  0  0
  144.6310  154.7900  136.1450 O   0  0  0  0  0  0  0  0  0  0  0  0
  146.6390  155.6150  135.1040 C   0  0  0  0  0  0  0  0  0  0  0  0
  145.1300  158.6660  133.5030 C   0  0  0  0  0  0  0  0  0  0  0  0
  144.0600  157.8030  133.7560 C   0  0  0  0  0  0  0  0  0  0  0  0
  142.0846  155.9558  135.8688 H   0  0  0  0  0  0  0  0  0  0  0  0
  141.3365  155.3340  134.3586 H   0  0  0  0  0  0  0  0  0  0  0  0
  143.0529  155.8639  134.3586 H   0  0  0  0  0  0  0  0  0  0  0  0
  141.0712  157.9063  135.2625 H   0  0  0  0  0  0  0  0  0  0  0  0
  141.2293  157.5090  132.2705 H   0  0  0  0  0  0  0  0  0  0  0  0
  140.0545  156.5363  133.2403 H   0  0  0  0  0  0  0  0  0  0  0  0
  139.8333  160.6656  132.7313 H   0  0  0  0  0  0  0  0  0  0  0  0
  141.2365  159.6897  132.2249 H   0  0  0  0  0  0  0  0  0  0  0  0
  139.1880  160.3869  130.5214 H   0  0  0  0  0  0  0  0  0  0  0  0
  140.1391  158.9190  130.2905 H   0  0  0  0  0  0  0  0  0  0  0  0
  137.3280  159.2041  131.1485 H   0  0  0  0  0  0  0  0  0  0  0  0
  138.1697  157.7180  130.6877 H   0  0  0  0  0  0  0  0  0  0  0  0
  137.6149  158.8029  133.3822 H   0  0  0  0  0  0  0  0  0  0  0  0
  138.1996  157.1728  132.9386 H   0  0  0  0  0  0  0  0  0  0  0  0
  141.7340  160.2142  134.5526 H   0  0  0  0  0  0  0  0  0  0  0  0
  143.7107  161.7060  134.1140 H   0  0  0  0  0  0  0  0  0  0  0  0
  146.4799  161.6602  133.3802 H   0  0  0  0  0  0  0  0  0  0  0  0
  149.2500  157.8790  133.5530 H   0  0  0  0  0  0  0  0  0  0  0  0
  150.4920  158.9680  132.8610 H   0  0  0  0  0  0  0  0  0  0  0  0
  144.5020  155.2987  132.8620 H   0  0  0  0  0  0  0  0  0  0  0  0
  145.9323  154.5493  132.1435 H   0  0  0  0  0  0  0  0  0  0  0  0
  144.3705  153.3862  134.1573 H   0  0  0  0  0  0  0  0  0  0  0  0
  146.0536  152.9295  133.8535 H   0  0  0  0  0  0  0  0  0  0  0  0
  146.3369  153.6910  136.1034 H   0  0  0  0  0  0  0  0  0  0  0  0
  144.8810  154.8630  137.1030 H   0  0  0  0  0  0  0  0  0  0  0  0
  146.3790  156.4652  135.7518 H   0  0  0  0  0  0  0  0  0  0  0  0
  147.7125  155.4212  135.2459 H   0  0  0  0  0  0  0  0  0  0  0  0
  144.1802  156.7138  133.6598 H   0  0  0  0  0  0  0  0  0  0  0  0
  1  2  1  0
  2  3  1  0
  3  4  1  0
  4  5  1  0
  5  6  1  0
  6  7  1  0
  7  8  1  0
  2  9  1  0
  9 10  2  0
 10 11  1  0
 11 12  2  0
 12 13  1  0
 13 14  2  0
 14 15  1  0
 15 16  1  0
 15 17  2  0
 14 18  1  0
 18 19  1  0
 19 20  2  0
 19 21  1  0
 21 22  1  0
 22 23  1  0
 23 24  1  0
 24 25  1  0
 24 26  1  0
 18 27  1  0
 27 28  2  0
  8  4  1  0
 28  9  1  0
 27 12  1  0
 26 21  1  0
  1 29  1  0
  1 30  1  0
  1 31  1  0
  2 32  1  1
  3 33  1  0
  3 34  1  0
  5 35  1  0
  5 36  1  0
  6 37  1  0
  6 38  1  0
  7 39  1  0
  7 40  1  0
  8 41  1  0
  8 42  1  0
 10 43  1  0
 11 44  1  0
 13 45  1  0
 16 46  1  0
 16 47  1  0
 22 48  1  0
 22 49  1  0
 23 50  1  0
 23 51  1  0
 24 52  1  1
 25 53  1  0
 26 54  1  0
 26 55  1  0
 28 56  1  0
M  END
>  <UniqueID>  (61) 
61

>  <SMILES>  (61) 
C[C@H](CN1CCCC1)c1ccc2cc(C(N)=O)n(C(=O)N3CC[C@H](O)C3)c2c1

>  <Energy>  (61) 
97.56439441008811

>  <Genealogy>  (61) 
C[C@H](CN1CCCC1)c1ccc2cc(C(N)=O)n(C(=O)N3CC[C@H](O)C3)c2c1 (chirality)
C[C@H](CN1CCCC1)c1ccc2cc(C(N)=O)n(C(=O)N3CC[C@H](O)C3)c2c1 (3D coordinates assigned)
C[C@H](CN1CCCC1)c1ccc2cc(C(N)=O)n(C(=O)N3CC[C@H](O)C3)c2c1 (nonaromatic ring conformer: 97.56439441008811 kcal/mol)

>  <smiles>  (61) 
CC(CN1CCCC1)c1ccc2cc(C(N)=O)n(C(=O)N3CC[C@H](O)C3)c2c1

>  <score_type>  (61) 
oracle

>  <origin>  (61) 
adg

>  <m_score__min__energy>  (61) 
-9.2599999999999998

>  <m_primary>  (61) 
energy

$$$$
61:0
     RDKit          3D

 47 49  0  0  0  0  0  0  0  0999 V2000
  149.2510  159.8140  131.3230 C   0  0  0  0  0  0  0  0  0  0  0  0
  148.0410  160.4420  132.0040 C   0  0  0  0  0  0  0  0  0  0  0  0
  147.6950  159.6890  133.2530 C   0  0  0  0  0  0  0  0  0  0  0  0
  148.5940  159.4320  134.0980 O   0  0  0  0  0  0  0  0  0  0  0  0
  146.3780  159.1530  133.4340 N   0  0  0  0  0  0  0  0  0  0  0  0
  145.2120  159.8320  133.6210 C   0  0  0  0  0  0  0  0  0  0  0  0
  145.0840  161.2930  133.8040 C   0  0  0  0  0  0  0  0  0  0  0  0
  146.2190  162.0970  134.1150 N   0  0  0  0  0  0  0  0  0  0  0  0
  143.9500  161.8370  133.7110 O   0  0  0  0  0  0  0  0  0  0  0  0
  144.1370  158.9460  133.6670 C   0  0  0  0  0  0  0  0  0  0  0  0
  144.6890  157.6930  133.5030 C   0  0  0  0  0  0  0  0  0  0  0  0
  144.0810  156.4420  133.4470 C   0  0  0  0  0  0  0  0  0  0  0  0
  144.9020  155.3210  133.2330 C   0  0  0  0  0  0  0  0  0  0  0  0
  146.3040  155.4700  133.0780 C   0  0  0  0  0  0  0  0  0  0  0  0
  147.1320  154.3200  132.8430 N   0  0  0  0  0  0  0  0  0  0  0  0
  148.4590  154.4970  132.2270 C   0  0  0  0  0  0  0  0  0  0  0  0
  149.5500  153.6180  132.8820 C   0  0  0  0  0  0  0  0  0  0  0  0
  149.6220  152.1670  132.3630 C   0  0  0  0  0  0  0  0  0  0  0  0
  148.4200  151.3430  132.6580 N   0  0  2  0  0  0  0  0  0  0  0  0
  148.5940  149.9920  132.1750 C   0  0  0  0  0  0  0  0  0  0  0  0
  149.5830  149.6860  131.4540 O   0  0  0  0  0  0  0  0  0  0  0  0
  147.6760  149.0070  132.5200 O   0  0  0  0  0  0  0  0  0  0  0  0
  147.1360  151.8950  132.1680 C   0  0  0  0  0  0  0  0  0  0  0  0
  146.5680  152.9830  133.0970 C   0  0  0  0  0  0  0  0  0  0  0  0
  146.8830  156.7560  133.1440 C   0  0  0  0  0  0  0  0  0  0  0  0
  146.0420  157.8500  133.3650 C   0  0  0  0  0  0  0  0  0  0  0  0
  149.9535  159.4494  132.0869 H   0  0  0  0  0  0  0  0  0  0  0  0
  148.9227  158.9725  130.6953 H   0  0  0  0  0  0  0  0  0  0  0  0
  149.7502  160.5668  130.6953 H   0  0  0  0  0  0  0  0  0  0  0  0
  148.2718  161.4860  132.2624 H   0  0  0  0  0  0  0  0  0  0  0  0
  147.1841  160.4036  131.3153 H   0  0  0  0  0  0  0  0  0  0  0  0
  146.7360  162.6090  133.3670 H   0  0  0  0  0  0  0  0  0  0  0  0
  143.0741  159.1937  133.8048 H   0  0  0  0  0  0  0  0  0  0  0  0
  142.9928  156.3340  133.5664 H   0  0  0  0  0  0  0  0  0  0  0  0
  144.4525  154.3182  133.1853 H   0  0  0  0  0  0  0  0  0  0  0  0
  148.3890  154.2333  131.1614 H   0  0  0  0  0  0  0  0  0  0  0  0
  148.7517  155.5475  132.3710 H   0  0  0  0  0  0  0  0  0  0  0  0
  150.5251  154.0935  132.7000 H   0  0  0  0  0  0  0  0  0  0  0  0
  149.2877  153.5488  133.9480 H   0  0  0  0  0  0  0  0  0  0  0  0
  149.7562  152.1994  131.2717 H   0  0  0  0  0  0  0  0  0  0  0  0
  150.4630  151.6900  132.8876 H   0  0  0  0  0  0  0  0  0  0  0  0
  148.3460  151.2800  133.7020 H   0  0  0  0  0  0  0  0  0  0  0  0
  147.2974  152.3315  131.1713 H   0  0  0  0  0  0  0  0  0  0  0  0
  146.4087  151.0704  132.1361 H   0  0  0  0  0  0  0  0  0  0  0  0
  145.4785  153.0308  132.9531 H   0  0  0  0  0  0  0  0  0  0  0  0
  146.8389  152.7058  134.1264 H   0  0  0  0  0  0  0  0  0  0  0  0
  147.9678  156.8932  133.0246 H   0  0  0  0  0  0  0  0  0  0  0  0
  1  2  1  0
  2  3  1  0
  3  4  2  0
  3  5  1  0
  5  6  1  0
  6  7  1  0
  7  8  1  0
  7  9  2  0
  6 10  2  0
 10 11  1  0
 11 12  2  0
 12 13  1  0
 13 14  2  0
 14 15  1  0
 15 16  1  0
 16 17  1  0
 17 18  1  0
 18 19  1  0
 19 20  1  0
 20 21  2  0
 20 22  1  0
 19 23  1  0
 23 24  1  0
 14 25  1  0
 25 26  2  0
 26  5  1  0
 26 11  1  0
 24 15  1  0
  1 27  1  0
  1 28  1  0
  1 29  1  0
  2 30  1  0
  2 31  1  0
  8 32  1  0
 10 33  1  0
 12 34  1  0
 13 35  1  0
 16 36  1  0
 16 37  1  0
 17 38  1  0
 17 39  1  0
 18 40  1  0
 18 41  1  0
 19 42  1  1
 23 43  1  0
 23 44  1  0
 24 45  1  0
 24 46  1  0
 25 47  1  0
M  CHG  3   8  -1  19   1  22  -1
M  END
>  <UniqueID>  (62) 
62

>  <SMILES>  (62) 
CCC(=O)n1c(C([NH-])=O)cc2ccc(N3CCC[N@H+](C(=O)[O-])CC3)cc21

>  <Energy>  (62) 
102.1034863011111

>  <Genealogy>  (62) 
CCC(=O)n1c(C([NH-])=O)cc2ccc(N3CCC[NH+](C(=O)[O-])CC3)cc21 (protonated)
CCC(=O)n1c(C([NH-])=O)cc2ccc(N3CCC[N@H+](C(=O)[O-])CC3)cc21 (chirality)
CCC(=O)n1c(C([NH-])=O)cc2ccc(N3CCC[N@H+](C(=O)[O-])CC3)cc21 (3D coordinates assigned)
CCC(=O)n1c(C([NH-])=O)cc2ccc(N3CCC[N@H+](C(=O)[O-])CC3)cc21 (nonaromatic ring conformer: 102.1034863011111 kcal/mol)

>  <smiles>  (62) 
CCC(=O)n1c(C(N)=O)cc2ccc(N3CCCN(C(=O)O)CC3)cc21

>  <score_type>  (62) 
oracle

>  <origin>  (62) 
adg

>  <m_score__min__energy>  (62) 
-5.3700000000000001

>  <m_primary>  (62) 
energy

$$$$
62:0
     RDKit          3D

 36 38  0  0  0  0  0  0  0  0999 V2000
  148.7910  158.9360  134.0840 C   0  0  0  0  0  0  0  0  0  0  0  0
  148.8050  159.4320  132.6630 C   0  0  0  0  0  0  0  0  0  0  0  0
  149.9630  159.2490  131.8870 C   0  0  0  0  0  0  0  0  0  0  0  0
  149.9970  159.6670  130.5550 C   0  0  0  0  0  0  0  0  0  0  0  0
  148.8780  160.2750  129.9840 C   0  0  0  0  0  0  0  0  0  0  0  0
  147.7280  160.4820  130.7480 C   0  0  0  0  0  0  0  0  0  0  0  0
  147.6890  160.0920  132.0940 C   0  0  0  0  0  0  0  0  0  0  0  0
  146.4940  160.3380  132.8500 N   0  0  0  0  0  0  0  0  0  0  0  0
  145.4980  159.3340  133.1150 C   0  0  0  0  0  0  0  0  0  0  0  0
  145.8620  157.9890  133.3870 C   0  0  0  0  0  0  0  0  0  0  0  0
  144.8800  157.0240  133.6680 C   0  0  0  0  0  0  0  0  0  0  0  0
  143.5490  157.4290  133.6690 C   0  0  0  0  0  0  0  0  0  0  0  0
  142.4060  156.7120  133.9390 C   0  0  0  0  0  0  0  0  0  0  0  0
  141.3590  157.6250  133.8170 C   0  0  0  0  0  0  0  0  0  0  0  0
  139.9340  157.2590  133.9720 C   0  0  0  0  0  0  0  0  0  0  0  0
  139.3770  156.1610  133.2550 N   0  0  0  0  0  0  0  0  0  0  0  0
  139.2070  157.9040  134.7730 O   0  0  0  0  0  0  0  0  0  0  0  0
  141.8390  158.8560  133.4860 N   0  0  0  0  0  0  0  0  0  0  0  0
  141.0960  160.0750  133.3330 C   0  0  0  0  0  0  0  0  0  0  0  0
  141.4070  161.0930  134.0050 O   0  0  0  0  0  0  0  0  0  0  0  0
  139.7000  160.1600  132.1960 S   0  0  0  0  0  0  0  0  0  0  0  0
  143.1790  158.7210  133.4010 C   0  0  0  0  0  0  0  0  0  0  0  0
  144.1370  159.7070  133.1410 C   0  0  0  0  0  0  0  0  0  0  0  0
  148.8152  159.7939  134.7721 H   0  0  0  0  0  0  0  0  0  0  0  0
  147.8760  158.3511  134.2592 H   0  0  0  0  0  0  0  0  0  0  0  0
  149.6716  158.3005  134.2592 H   0  0  0  0  0  0  0  0  0  0  0  0
  150.8490  158.7729  132.3324 H   0  0  0  0  0  0  0  0  0  0  0  0
  150.9067  159.5169  129.9551 H   0  0  0  0  0  0  0  0  0  0  0  0
  148.9022  160.5915  128.9308 H   0  0  0  0  0  0  0  0  0  0  0  0
  146.8462  160.9545  130.2906 H   0  0  0  0  0  0  0  0  0  0  0  0
  146.3990  161.2700  133.3140 H   0  0  0  0  0  0  0  0  0  0  0  0
  146.9232  157.6994  133.3777 H   0  0  0  0  0  0  0  0  0  0  0  0
  145.1552  155.9804  133.8806 H   0  0  0  0  0  0  0  0  0  0  0  0
  142.3335  155.6450  134.1964 H   0  0  0  0  0  0  0  0  0  0  0  0
  138.3760  156.1660  132.9600 H   0  0  0  0  0  0  0  0  0  0  0  0
  143.8362  160.7496  132.9609 H   0  0  0  0  0  0  0  0  0  0  0  0
  1  2  1  0
  2  3  2  0
  3  4  1  0
  4  5  2  0
  5  6  1  0
  6  7  2  0
  7  8  1  0
  8  9  1  0
  9 10  2  0
 10 11  1  0
 11 12  2  0
 12 13  1  0
 13 14  2  0
 14 15  1  0
 15 16  1  0
 15 17  2  0
 14 18  1  0
 18 19  1  0
 19 20  2  0
 19 21  1  0
 18 22  1  0
 22 23  2  0
  7  2  1  0
 23  9  1  0
 22 12  1  0
  1 24  1  0
  1 25  1  0
  1 26  1  0
  3 27  1  0
  4 28  1  0
  5 29  1  0
  6 30  1  0
  8 31  1  0
 10 32  1  0
 11 33  1  0
 13 34  1  0
 16 35  1  0
 23 36  1  0
M  CHG  2  16  -1  21  -1
M  END
>  <UniqueID>  (63) 
63

>  <SMILES>  (63) 
Cc1ccccc1Nc1ccc2cc(C([NH-])=O)n(C(=O)[S-])c2c1

>  <Energy>  (63) 
85.92522964716396

>  <Genealogy>  (63) 
Cc1ccccc1Nc1ccc2cc(C([NH-])=O)n(C(=O)[S-])c2c1 (protonated)
Cc1ccccc1Nc1ccc2cc(C([NH-])=O)n(C(=O)[S-])c2c1 (3D coordinates assigned)
Cc1ccccc1Nc1ccc2cc(C([NH-])=O)n(C(=O)[S-])c2c1 (optimized conformer: 85.92522964716396 kcal/mol)

>  <smiles>  (63) 
Cc1ccccc1Nc1ccc2cc(C(N)=O)n(C(=O)S)c2c1

>  <score_type>  (63) 
oracle

>  <origin>  (63) 
adg

>  <m_score__min__energy>  (63) 
-8.1600000000000001

>  <m_primary>  (63) 
energy

$$$$
63:0
     RDKit          3D

 36 37  0  0  0  0  0  0  0  0999 V2000
  149.9920  160.1440  129.2090 C   0  0  0  0  0  0  0  0  0  0  0  0
  149.8490  160.3640  130.6600 N   0  0  0  0  0  0  0  0  0  0  0  0
  148.8050  161.3620  130.9440 C   0  0  0  0  0  0  0  0  0  0  0  0
  149.6810  159.1030  131.4300 C   0  0  0  0  0  0  0  0  0  0  0  0
  149.2350  159.2570  132.9060 C   0  0  0  0  0  0  0  0  0  0  0  0
  147.7790  158.9460  133.1390 C   0  0  0  0  0  0  0  0  0  0  0  0
  147.3120  157.6100  133.0360 C   0  0  0  0  0  0  0  0  0  0  0  0
  145.9560  157.3080  133.2400 C   0  0  0  0  0  0  0  0  0  0  0  0
  145.0930  158.3570  133.5420 C   0  0  0  0  0  0  0  0  0  0  0  0
  143.7340  158.3480  133.7600 C   0  0  0  0  0  0  0  0  0  0  0  0
  143.3910  159.6750  134.0060 C   0  0  0  0  0  0  0  0  0  0  0  0
  142.0260  160.1050  134.3760 C   0  0  0  0  0  0  0  0  0  0  0  0
  141.2590  160.9400  133.5130 N   0  0  0  0  0  0  0  0  0  0  0  0
  141.5490  159.7720  135.4940 O   0  0  0  0  0  0  0  0  0  0  0  0
  144.4930  160.4770  133.9310 N   0  0  0  0  0  0  0  0  0  0  0  0
  144.5520  161.9080  134.0410 C   0  0  0  0  0  0  0  0  0  0  0  0
  145.4260  162.4550  134.7620 O   0  0  0  0  0  0  0  0  0  0  0  0
  143.6260  162.7010  133.3730 O   0  0  0  0  0  0  0  0  0  0  0  0
  145.5260  159.6520  133.6510 C   0  0  0  0  0  0  0  0  0  0  0  0
  146.8670  159.9850  133.4310 C   0  0  0  0  0  0  0  0  0  0  0  0
  150.5838  159.2336  129.0327 H   0  0  0  0  0  0  0  0  0  0  0  0
  148.9964  160.0276  128.7559 H   0  0  0  0  0  0  0  0  0  0  0  0
  150.5025  161.0066  128.7559 H   0  0  0  0  0  0  0  0  0  0  0  0
  150.7570  160.7800  130.9820 H   0  0  0  0  0  0  0  0  0  0  0  0
  148.6896  161.4723  132.0323 H   0  0  0  0  0  0  0  0  0  0  0  0
  149.0932  162.3290  130.5059 H   0  0  0  0  0  0  0  0  0  0  0  0
  147.8520  161.0305  130.5059 H   0  0  0  0  0  0  0  0  0  0  0  0
  148.9260  158.4923  130.9132 H   0  0  0  0  0  0  0  0  0  0  0  0
  150.6814  158.6474  131.4707 H   0  0  0  0  0  0  0  0  0  0  0  0
  149.8381  158.5747  133.5231 H   0  0  0  0  0  0  0  0  0  0  0  0
  149.3834  160.3129  133.1761 H   0  0  0  0  0  0  0  0  0  0  0  0
  148.0192  156.8030  132.7939 H   0  0  0  0  0  0  0  0  0  0  0  0
  145.5874  156.2744  133.1635 H   0  0  0  0  0  0  0  0  0  0  0  0
  143.0617  157.4775  133.7434 H   0  0  0  0  0  0  0  0  0  0  0  0
  141.6320  161.8560  133.1810 H   0  0  0  0  0  0  0  0  0  0  0  0
  147.2034  161.0310  133.4841 H   0  0  0  0  0  0  0  0  0  0  0  0
  1  2  1  0
  2  3  1  0
  2  4  1  0
  4  5  1  0
  5  6  1  0
  6  7  2  0
  7  8  1  0
  8  9  2  0
  9 10  1  0
 10 11  2  0
 11 12  1  0
 12 13  1  0
 12 14  2  0
 11 15  1  0
 15 16  1  0
 16 17  2  0
 16 18  1  0
 15 19  1  0
 19 20  2  0
 20  6  1  0
 19  9  1  0
  1 21  1  0
  1 22  1  0
  1 23  1  0
  2 24  1  0
  3 25  1  0
  3 26  1  0
  3 27  1  0
  4 28  1  0
  4 29  1  0
  5 30  1  0
  5 31  1  0
  7 32  1  0
  8 33  1  0
 10 34  1  0
 13 35  1  0
 20 36  1  0
M  CHG  3   2   1  13  -1  18  -1
M  END
>  <UniqueID>  (64) 
64

>  <SMILES>  (64) 
C[NH+](C)CCc1ccc2cc(C([NH-])=O)n(C(=O)[O-])c2c1

>  <Energy>  (64) 
78.84089451739088

>  <Genealogy>  (64) 
C[NH+](C)CCc1ccc2cc(C([NH-])=O)n(C(=O)[O-])c2c1 (protonated)
C[NH+](C)CCc1ccc2cc(C([NH-])=O)n(C(=O)[O-])c2c1 (3D coordinates assigned)
C[NH+](C)CCc1ccc2cc(C([NH-])=O)n(C(=O)[O-])c2c1 (optimized conformer: 78.84089451739088 kcal/mol)

>  <smiles>  (64) 
CN(C)CCc1ccc2cc(C(N)=O)n(C(=O)O)c2c1

>  <score_type>  (64) 
oracle

>  <origin>  (64) 
adg

>  <m_score__min__energy>  (64) 
-6.2300000000000004

>  <m_primary>  (64) 
energy

$$$$
64:0
     RDKit          3D

 42 43  0  0  0  0  0  0  0  0999 V2000
  149.6380  151.0170  134.1330 C   0  0  0  0  0  0  0  0  0  0  0  0
  148.6470  151.6910  133.2800 N   0  0  0  0  0  0  0  0  0  0  0  0
  149.0240  151.5950  131.8610 C   0  0  0  0  0  0  0  0  0  0  0  0
  148.5120  153.0800  133.6720 C   0  0  0  0  0  0  0  0  0  0  0  0
  148.3640  153.3780  134.8500 O   0  0  0  0  0  0  0  0  0  0  0  0
  148.5840  154.1800  132.6460 C   0  0  0  0  0  0  0  0  0  0  0  0
  147.4680  155.1630  132.8670 C   0  0  0  0  0  0  0  0  0  0  0  0
  146.1350  154.7080  133.0200 C   0  0  0  0  0  0  0  0  0  0  0  0
  145.0940  155.6160  133.2730 C   0  0  0  0  0  0  0  0  0  0  0  0
  145.4160  156.9670  133.3710 C   0  0  0  0  0  0  0  0  0  0  0  0
  144.6130  158.0510  133.6430 C   0  0  0  0  0  0  0  0  0  0  0  0
  145.4660  159.1530  133.6420 C   0  0  0  0  0  0  0  0  0  0  0  0
  144.9970  160.5440  133.8100 C   0  0  0  0  0  0  0  0  0  0  0  0
  145.9150  161.6000  134.0780 N   0  0  0  0  0  0  0  0  0  0  0  0
  143.7740  160.8110  133.6660 O   0  0  0  0  0  0  0  0  0  0  0  0
  146.7490  158.7640  133.3920 N   0  0  0  0  0  0  0  0  0  0  0  0
  147.9360  159.5730  133.3990 C   0  0  0  0  0  0  0  0  0  0  0  0
  148.8370  159.3600  134.2560 O   0  0  0  0  0  0  0  0  0  0  0  0
  148.1000  160.5720  132.4340 O   0  0  0  0  0  0  0  0  0  0  0  0
  148.2550  160.3050  131.0420 C   0  0  0  0  0  0  0  0  0  0  0  0
  149.6660  159.8070  130.7450 C   0  0  0  0  0  0  0  0  0  0  0  0
  149.9190  158.6630  131.4770 F   0  0  0  0  0  0  0  0  0  0  0  0
  146.7000  157.4240  133.2210 C   0  0  0  0  0  0  0  0  0  0  0  0
  147.7580  156.5400  132.9820 C   0  0  0  0  0  0  0  0  0  0  0  0
  149.3878  151.1872  135.1905 H   0  0  0  0  0  0  0  0  0  0  0  0
  149.6285  149.9372  133.9231 H   0  0  0  0  0  0  0  0  0  0  0  0
  150.6387  151.4226  133.9231 H   0  0  0  0  0  0  0  0  0  0  0  0
  147.7310  151.1970  133.4010 H   0  0  0  0  0  0  0  0  0  0  0  0
  150.0872  151.3243  131.7816 H   0  0  0  0  0  0  0  0  0  0  0  0
  148.4117  150.8241  131.3703 H   0  0  0  0  0  0  0  0  0  0  0  0
  148.8549  152.5649  131.3703 H   0  0  0  0  0  0  0  0  0  0  0  0
  149.5497  154.6990  132.7355 H   0  0  0  0  0  0  0  0  0  0  0  0
  148.4870  153.7434  131.6410 H   0  0  0  0  0  0  0  0  0  0  0  0
  145.9134  153.6335  132.9399 H   0  0  0  0  0  0  0  0  0  0  0  0
  144.0562  155.2705  133.3901 H   0  0  0  0  0  0  0  0  0  0  0  0
  143.5278  158.0482  133.8231 H   0  0  0  0  0  0  0  0  0  0  0  0
  146.6440  161.8680  133.3810 H   0  0  0  0  0  0  0  0  0  0  0  0
  147.5289  159.5365  130.7382 H   0  0  0  0  0  0  0  0  0  0  0  0
  148.0816  161.2351  130.4809 H   0  0  0  0  0  0  0  0  0  0  0  0
  149.7562  159.5821  129.6720 H   0  0  0  0  0  0  0  0  0  0  0  0
  150.3929  160.5849  131.0214 H   0  0  0  0  0  0  0  0  0  0  0  0
  148.7899  156.9087  132.8861 H   0  0  0  0  0  0  0  0  0  0  0  0
  1  2  1  0
  2  3  1  0
  2  4  1  0
  4  5  2  0
  4  6  1  0
  6  7  1  0
  7  8  2  0
  8  9  1  0
  9 10  2  0
 10 11  1  0
 11 12  2  0
 12 13  1  0
 13 14  1  0
 13 15  2  0
 12 16  1  0
 16 17  1  0
 17 18  2  0
 17 19  1  0
 19 20  1  0
 20 21  1  0
 21 22  1  0
 16 23  1  0
 23 24  2  0
 24  7  1  0
 23 10  1  0
  1 25  1  0
  1 26  1  0
  1 27  1  0
  2 28  1  0
  3 29  1  0
  3 30  1  0
  3 31  1  0
  6 32  1  0
  6 33  1  0
  8 34  1  0
  9 35  1  0
 11 36  1  0
 14 37  1  0
 20 38  1  0
 20 39  1  0
 21 40  1  0
 21 41  1  0
 24 42  1  0
M  CHG  2   2   1  14  -1
M  END
>  <UniqueID>  (65) 
65

>  <SMILES>  (65) 
C[NH+](C)C(=O)Cc1ccc2cc(C([NH-])=O)n(C(=O)OCCF)c2c1

>  <Energy>  (65) 
74.00051220656732

>  <Genealogy>  (65) 
C[NH+](C)C(=O)Cc1ccc2cc(C([NH-])=O)n(C(=O)OCCF)c2c1 (protonated)
C[NH+](C)C(=O)Cc1ccc2cc(C([NH-])=O)n(C(=O)OCCF)c2c1 (3D coordinates assigned)
C[NH+](C)C(=O)Cc1ccc2cc(C([NH-])=O)n(C(=O)OCCF)c2c1 (optimized conformer: 74.00051220656732 kcal/mol)

>  <smiles>  (65) 
CN(C)C(=O)Cc1ccc2cc(C(N)=O)n(C(=O)OCCF)c2c1

>  <score_type>  (65) 
oracle

>  <origin>  (65) 
adg

>  <m_score__min__energy>  (65) 
-5.9400000000000004

>  <m_primary>  (65) 
energy

$$$$
65:0
     RDKit          3D

 25 26  0  0  0  0  0  0  0  0999 V2000
  138.5860  157.8580  131.1170 N   0  0  0  0  0  0  0  0  0  0  0  0
  139.6230  158.6710  131.6680 C   0  0  0  0  0  0  0  0  0  0  0  0
  140.1660  159.5510  130.9480 O   0  0  0  0  0  0  0  0  0  0  0  0
  140.0240  158.5440  133.0830 C   0  0  0  0  0  0  0  0  0  0  0  0
  140.3710  159.6310  133.8800 C   0  0  0  0  0  0  0  0  0  0  0  0
  140.6160  159.1030  135.1270 C   0  0  0  0  0  0  0  0  0  0  0  0
  141.0240  159.7340  136.2980 C   0  0  0  0  0  0  0  0  0  0  0  0
  141.2480  158.9360  137.4320 C   0  0  0  0  0  0  0  0  0  0  0  0
  141.0550  157.5310  137.3810 C   0  0  0  0  0  0  0  0  0  0  0  0
  141.3630  156.6800  138.5870 C   0  0  0  0  0  0  0  0  0  0  0  0
  140.2640  155.9170  138.9400 F   0  0  0  0  0  0  0  0  0  0  0  0
  142.4170  155.8220  138.3230 F   0  0  0  0  0  0  0  0  0  0  0  0
  141.7030  157.4990  139.6470 F   0  0  0  0  0  0  0  0  0  0  0  0
  140.6650  156.9260  136.1640 C   0  0  0  0  0  0  0  0  0  0  0  0
  140.4260  157.7470  135.0550 C   0  0  0  0  0  0  0  0  0  0  0  0
  140.0650  157.3850  133.8020 N   0  0  0  0  0  0  0  0  0  0  0  0
  139.8850  156.0460  133.3120 C   0  0  0  0  0  0  0  0  0  0  0  0
  138.7420  155.6410  132.9710 O   0  0  0  0  0  0  0  0  0  0  0  0
  140.9690  155.1840  133.2050 O   0  0  0  0  0  0  0  0  0  0  0  0
  138.3420  157.9350  130.1050 H   0  0  0  0  0  0  0  0  0  0  0  0
  138.0030  157.2440  131.7260 H   0  0  0  0  0  0  0  0  0  0  0  0
  140.4356  160.6867  133.5777 H   0  0  0  0  0  0  0  0  0  0  0  0
  141.1667  160.8241  136.3346 H   0  0  0  0  0  0  0  0  0  0  0  0
  141.5769  159.4057  138.3707 H   0  0  0  0  0  0  0  0  0  0  0  0
  140.5518  155.8343  136.0900 H   0  0  0  0  0  0  0  0  0  0  0  0
  1  2  1  0
  2  3  2  0
  2  4  1  0
  4  5  2  0
  5  6  1  0
  6  7  2  0
  7  8  1  0
  8  9  2  0
  9 10  1  0
 10 11  1  0
 10 12  1  0
 10 13  1  0
  9 14  1  0
 14 15  2  0
 15 16  1  0
 16 17  1  0
 17 18  2  0
 17 19  1  0
 16  4  1  0
 15  6  1  0
  1 20  1  0
  1 21  1  0
  5 22  1  0
  7 23  1  0
  8 24  1  0
 14 25  1  0
M  CHG  1  19  -1
M  END
>  <UniqueID>  (66) 
66

>  <SMILES>  (66) 
NC(=O)c1cc2ccc(C(F)(F)F)cc2n1C(=O)[O-]

>  <Energy>  (66) 
66.34749153309393

>  <Genealogy>  (66) 
NC(=O)c1cc2ccc(C(F)(F)F)cc2n1C(=O)[O-] (protonated)
NC(=O)c1cc2ccc(C(F)(F)F)cc2n1C(=O)[O-] (3D coordinates assigned)
NC(=O)c1cc2ccc(C(F)(F)F)cc2n1C(=O)[O-] (optimized conformer: 66.34749153309393 kcal/mol)

>  <smiles>  (66) 
NC(=O)c1cc2ccc(C(F)(F)F)cc2n1C(=O)O

>  <score_type>  (66) 
oracle

>  <origin>  (66) 
adg

>  <m_score__min__energy>  (66) 
-5.3200000000000003

>  <m_primary>  (66) 
energy

$$$$
66:0
     RDKit          3D

 48 50  0  0  0  0  0  0  0  0999 V2000
  148.7120  155.6410  132.6630 C   0  0  0  0  0  0  0  0  0  0  0  0
  148.1080  156.6490  133.5950 C   0  0  0  0  0  0  0  0  0  0  0  0
  147.4630  156.2720  134.5610 O   0  0  0  0  0  0  0  0  0  0  0  0
  148.2470  158.1150  133.3140 C   0  0  0  0  0  0  0  0  0  0  0  0
  147.3040  158.8360  134.0970 O   0  0  0  0  0  0  0  0  0  0  0  0
  146.6370  159.9720  133.6280 C   0  0  0  0  0  0  0  0  0  0  0  0
  147.2850  160.9210  133.1090 O   0  0  0  0  0  0  0  0  0  0  0  0
  145.2040  160.0370  133.7060 N   0  0  0  0  0  0  0  0  0  0  0  0
  144.4170  161.1410  133.8560 C   0  0  0  0  0  0  0  0  0  0  0  0
  144.8900  162.5180  134.1100 C   0  0  0  0  0  0  0  0  0  0  0  0
  146.0580  162.7320  134.8990 N   0  0  0  0  0  0  0  0  0  0  0  0
  144.2960  163.5080  133.6080 O   0  0  0  0  0  0  0  0  0  0  0  0
  143.0690  160.7870  133.8220 C   0  0  0  0  0  0  0  0  0  0  0  0
  143.0540  159.4220  133.6540 C   0  0  0  0  0  0  0  0  0  0  0  0
  141.9790  158.5470  133.5400 C   0  0  0  0  0  0  0  0  0  0  0  0
  142.2570  157.1820  133.3470 C   0  0  0  0  0  0  0  0  0  0  0  0
  143.5960  156.7190  133.2680 C   0  0  0  0  0  0  0  0  0  0  0  0
  143.8710  155.3200  133.0520 N   0  0  0  0  0  0  0  0  0  0  0  0
  144.8020  154.8790  132.0100 C   0  0  0  0  0  0  0  0  0  0  0  0
  145.8790  153.9500  132.6050 C   0  0  0  0  0  0  0  0  0  0  0  0
  145.4190  153.1700  133.7890 N   0  0  0  0  0  0  0  0  0  0  0  0
  145.8950  153.7720  135.0510 C   0  0  0  0  0  0  0  0  0  0  0  0
  143.9520  152.9650  133.8060 C   0  0  0  0  0  0  0  0  0  0  0  0
  143.1840  154.2980  133.8490 C   0  0  0  0  0  0  0  0  0  0  0  0
  144.6580  157.6440  133.3730 C   0  0  0  0  0  0  0  0  0  0  0  0
  144.3530  158.9940  133.5870 C   0  0  0  0  0  0  0  0  0  0  0  0
  149.1909  154.8418  133.2477 H   0  0  0  0  0  0  0  0  0  0  0  0
  147.9236  155.2093  132.0289 H   0  0  0  0  0  0  0  0  0  0  0  0
  149.4645  156.1326  132.0289 H   0  0  0  0  0  0  0  0  0  0  0  0
  149.2650  158.4433  133.5707 H   0  0  0  0  0  0  0  0  0  0  0  0
  148.0606  158.3045  132.2466 H   0  0  0  0  0  0  0  0  0  0  0  0
  147.0100  162.5540  134.5080 H   0  0  0  0  0  0  0  0  0  0  0  0
  142.2013  161.4573  133.9107 H   0  0  0  0  0  0  0  0  0  0  0  0
  140.9428  158.9115  133.5990 H   0  0  0  0  0  0  0  0  0  0  0  0
  141.4274  156.4654  133.2563 H   0  0  0  0  0  0  0  0  0  0  0  0
  144.2444  154.3355  131.2330 H   0  0  0  0  0  0  0  0  0  0  0  0
  145.2944  155.7619  131.5764 H   0  0  0  0  0  0  0  0  0  0  0  0
  146.1940  153.2413  131.8249 H   0  0  0  0  0  0  0  0  0  0  0  0
  146.7015  154.5947  132.9482 H   0  0  0  0  0  0  0  0  0  0  0  0
  145.8560  152.2200  133.7320 H   0  0  0  0  0  0  0  0  0  0  0  0
  145.4636  153.2264  135.9031 H   0  0  0  0  0  0  0  0  0  0  0  0
  146.9925  153.7119  135.0948 H   0  0  0  0  0  0  0  0  0  0  0  0
  145.5834  154.8260  135.0948 H   0  0  0  0  0  0  0  0  0  0  0  0
  143.6596  152.4158  132.8989 H   0  0  0  0  0  0  0  0  0  0  0  0
  143.6987  152.3976  134.7137 H   0  0  0  0  0  0  0  0  0  0  0  0
  142.1725  154.1448  133.4447 H   0  0  0  0  0  0  0  0  0  0  0  0
  143.1308  154.6412  134.8927 H   0  0  0  0  0  0  0  0  0  0  0  0
  145.7030  157.3110  133.2885 H   0  0  0  0  0  0  0  0  0  0  0  0
  1  2  1  0
  2  3  2  0
  2  4  1  0
  4  5  1  0
  5  6  1  0
  6  7  2  0
  6  8  1  0
  8  9  1  0
  9 10  1  0
 10 11  1  0
 10 12  2  0
  9 13  2  0
 13 14  1  0
 14 15  2  0
 15 16  1  0
 16 17  2  0
 17 18  1  0
 18 19  1  0
 19 20  1  0
 20 21  1  0
 21 22  1  0
 21 23  1  0
 23 24  1  0
 17 25  1  0
 25 26  2  0
 26  8  1  0
 26 14  1  0
 24 18  1  0
  1 27  1  0
  1 28  1  0
  1 29  1  0
  4 30  1  0
  4 31  1  0
 11 32  1  0
 13 33  1  0
 15 34  1  0
 16 35  1  0
 19 36  1  0
 19 37  1  0
 20 38  1  0
 20 39  1  0
 21 40  1  0
 22 41  1  0
 22 42  1  0
 22 43  1  0
 23 44  1  0
 23 45  1  0
 24 46  1  0
 24 47  1  0
 25 48  1  0
M  CHG  2  11  -1  21   1
M  END
>  <UniqueID>  (67) 
67

>  <SMILES>  (67) 
CC(=O)COC(=O)n1c(C([NH-])=O)cc2ccc(N3CC[NH+](C)CC3)cc21

>  <Energy>  (67) 
93.75493518339611

>  <Genealogy>  (67) 
CC(=O)COC(=O)n1c(C([NH-])=O)cc2ccc(N3CC[NH+](C)CC3)cc21 (protonated)
CC(=O)COC(=O)n1c(C([NH-])=O)cc2ccc(N3CC[NH+](C)CC3)cc21 (3D coordinates assigned)
CC(=O)COC(=O)n1c(C([NH-])=O)cc2ccc(N3CC[NH+](C)CC3)cc21 (nonaromatic ring conformer: 93.75493518339611 kcal/mol)

>  <smiles>  (67) 
CC(=O)COC(=O)n1c(C(N)=O)cc2ccc(N3CCN(C)CC3)cc21

>  <score_type>  (67) 
oracle

>  <origin>  (67) 
adg

>  <m_score__min__energy>  (67) 
-6.8600000000000003

>  <m_primary>  (67) 
energy

$$$$
67:0
     RDKit          3D

 43 44  0  0  0  0  0  0  0  0999 V2000
  147.4250  155.1280  134.6870 C   0  0  0  0  0  0  0  0  0  0  0  0
  148.0730  156.4330  134.2210 C   0  0  0  0  0  0  0  0  0  0  0  0
  148.2350  156.5660  132.6850 C   0  0  1  0  0  0  0  0  0  0  0  0
  147.0700  156.0070  131.9830 N   0  0  0  0  0  0  0  0  0  0  0  0
  148.5090  158.0110  132.1930 C   0  0  0  0  0  0  0  0  0  0  0  0
  148.2520  159.1070  133.2510 C   0  0  0  0  0  0  0  0  0  0  0  0
  146.7860  159.4200  133.4280 C   0  0  0  0  0  0  0  0  0  0  0  0
  146.3730  160.7460  133.7130 C   0  0  0  0  0  0  0  0  0  0  0  0
  145.0140  161.0530  133.8880 C   0  0  0  0  0  0  0  0  0  0  0  0
  144.0920  160.0160  133.7740 C   0  0  0  0  0  0  0  0  0  0  0  0
  142.7230  160.0310  133.9100 C   0  0  0  0  0  0  0  0  0  0  0  0
  142.3170  158.7150  133.6990 C   0  0  0  0  0  0  0  0  0  0  0  0
  140.8990  158.2970  133.6670 C   0  0  0  0  0  0  0  0  0  0  0  0
  140.4600  157.3530  132.6930 N   0  0  0  0  0  0  0  0  0  0  0  0
  140.0770  158.7370  134.5140 O   0  0  0  0  0  0  0  0  0  0  0  0
  143.3940  157.9160  133.4500 N   0  0  0  0  0  0  0  0  0  0  0  0
  143.4120  156.4980  133.2230 C   0  0  0  0  0  0  0  0  0  0  0  0
  142.4660  155.7790  133.6460 O   0  0  0  0  0  0  0  0  0  0  0  0
  144.4920  155.9180  132.5500 O   0  0  0  0  0  0  0  0  0  0  0  0
  144.3630  154.7420  131.7600 C   0  0  0  0  0  0  0  0  0  0  0  0
  144.4720  158.7290  133.4980 C   0  0  0  0  0  0  0  0  0  0  0  0
  145.8220  158.3900  133.3480 C   0  0  0  0  0  0  0  0  0  0  0  0
  147.4102  155.0982  135.7865 H   0  0  0  0  0  0  0  0  0  0  0  0
  146.3950  155.0732  134.3048 H   0  0  0  0  0  0  0  0  0  0  0  0
  148.0039  154.2743  134.3048 H   0  0  0  0  0  0  0  0  0  0  0  0
  147.4507  157.2689  134.5731 H   0  0  0  0  0  0  0  0  0  0  0  0
  149.0894  156.4415  134.6415 H   0  0  0  0  0  0  0  0  0  0  0  0
  149.1353  155.9835  132.4397 H   0  0  0  0  0  0  0  0  0  0  0  0
  146.3870  156.7640  131.7520 H   0  0  0  0  0  0  0  0  0  0  0  0
  147.3620  155.5230  131.1030 H   0  0  0  0  0  0  0  0  0  0  0  0
  146.5860  155.3160  132.6000 H   0  0  0  0  0  0  0  0  0  0  0  0
  149.5621  158.0741  131.8816 H   0  0  0  0  0  0  0  0  0  0  0  0
  147.8051  158.2000  131.3691 H   0  0  0  0  0  0  0  0  0  0  0  0
  148.6570  158.7660  134.2152 H   0  0  0  0  0  0  0  0  0  0  0  0
  148.7459  160.0256  132.9015 H   0  0  0  0  0  0  0  0  0  0  0  0
  147.1258  161.5435  133.7980 H   0  0  0  0  0  0  0  0  0  0  0  0
  144.6882  162.0803  134.1082 H   0  0  0  0  0  0  0  0  0  0  0  0
  142.0848  160.8977  134.1370 H   0  0  0  0  0  0  0  0  0  0  0  0
  141.1360  156.7080  132.2280 H   0  0  0  0  0  0  0  0  0  0  0  0
  144.2670  153.8664  132.4188 H   0  0  0  0  0  0  0  0  0  0  0  0
  143.4684  154.8231  131.1251 H   0  0  0  0  0  0  0  0  0  0  0  0
  145.2539  154.6272  131.1251 H   0  0  0  0  0  0  0  0  0  0  0  0
  146.1249  157.3472  133.1722 H   0  0  0  0  0  0  0  0  0  0  0  0
  1  2  1  0
  2  3  1  0
  3  4  1  0
  3  5  1  0
  5  6  1  0
  6  7  1  0
  7  8  2  0
  8  9  1  0
  9 10  2  0
 10 11  1  0
 11 12  2  0
 12 13  1  0
 13 14  1  0
 13 15  2  0
 12 16  1  0
 16 17  1  0
 17 18  2  0
 17 19  1  0
 19 20  1  0
 16 21  1  0
 21 22  2  0
 22  7  1  0
 21 10  1  0
  1 23  1  0
  1 24  1  0
  1 25  1  0
  2 26  1  0
  2 27  1  0
  3 28  1  6
  4 29  1  0
  4 30  1  0
  4 31  1  0
  5 32  1  0
  5 33  1  0
  6 34  1  0
  6 35  1  0
  8 36  1  0
  9 37  1  0
 11 38  1  0
 14 39  1  0
 20 40  1  0
 20 41  1  0
 20 42  1  0
 22 43  1  0
M  CHG  2   4   1  14  -1
M  END
>  <UniqueID>  (68) 
68

>  <SMILES>  (68) 
CC[C@@H]([NH3+])CCc1ccc2cc(C([NH-])=O)n(C(=O)OC)c2c1

>  <Energy>  (68) 
75.10006491110248

>  <Genealogy>  (68) 
CCC([NH3+])CCc1ccc2cc(C([NH-])=O)n(C(=O)OC)c2c1 (protonated)
CC[C@@H]([NH3+])CCc1ccc2cc(C([NH-])=O)n(C(=O)OC)c2c1 (chirality)
CC[C@@H]([NH3+])CCc1ccc2cc(C([NH-])=O)n(C(=O)OC)c2c1 (3D coordinates assigned)
CC[C@@H]([NH3+])CCc1ccc2cc(C([NH-])=O)n(C(=O)OC)c2c1 (optimized conformer: 75.10006491110248 kcal/mol)

>  <smiles>  (68) 
CCC(N)CCc1ccc2cc(C(N)=O)n(C(=O)OC)c2c1

>  <score_type>  (68) 
oracle

>  <origin>  (68) 
adg

>  <m_score__min__energy>  (68) 
-6.8700000000000001

>  <m_primary>  (68) 
energy

$$$$
68:0
     RDKit          3D

 39 41  0  0  0  0  0  0  0  0999 V2000
  147.6660  153.2590  133.0490 C   0  0  0  0  0  0  0  0  0  0  0  0
  148.1150  154.6160  133.5760 C   0  0  0  0  0  0  0  0  0  0  0  0
  147.2140  155.0690  134.6860 C   0  0  0  0  0  0  0  0  0  0  0  0
  147.3790  154.6140  135.8500 O   0  0  0  0  0  0  0  0  0  0  0  0
  146.0950  155.9220  134.4090 N   0  0  0  0  0  0  0  0  0  0  0  0
  144.7930  155.7420  134.7640 C   0  0  0  0  0  0  0  0  0  0  0  0
  144.2320  154.5370  135.4120 C   0  0  0  0  0  0  0  0  0  0  0  0
  144.7380  154.0730  136.6600 N   0  0  0  0  0  0  0  0  0  0  0  0
  143.3140  153.8910  134.8390 O   0  0  0  0  0  0  0  0  0  0  0  0
  144.0290  156.8420  134.3780 C   0  0  0  0  0  0  0  0  0  0  0  0
  144.9140  157.7030  133.7660 C   0  0  0  0  0  0  0  0  0  0  0  0
  144.7070  158.9640  133.2210 C   0  0  0  0  0  0  0  0  0  0  0  0
  145.8160  159.6420  132.6870 C   0  0  0  0  0  0  0  0  0  0  0  0
  147.1090  159.0470  132.6820 C   0  0  0  0  0  0  0  0  0  0  0  0
  148.3140  159.8300  132.1710 C   0  0  2  0  0  0  0  0  0  0  0  0
  148.1050  160.4750  130.8120 C   0  0  0  0  0  0  0  0  0  0  0  0
  149.5030  160.5960  130.2260 C   0  0  0  0  0  0  0  0  0  0  0  0
  150.3890  159.6770  130.9480 N   0  0  0  0  0  0  0  0  0  0  0  0
  149.5660  158.9880  131.9410 C   0  0  0  0  0  0  0  0  0  0  0  0
  147.2770  157.7750  133.2860 C   0  0  0  0  0  0  0  0  0  0  0  0
  146.1520  157.1220  133.7970 C   0  0  0  0  0  0  0  0  0  0  0  0
  147.4452  152.5918  133.8952 H   0  0  0  0  0  0  0  0  0  0  0  0
  146.7616  153.3848  132.4356 H   0  0  0  0  0  0  0  0  0  0  0  0
  148.4670  152.8206  132.4356 H   0  0  0  0  0  0  0  0  0  0  0  0
  149.1446  154.5353  133.9548 H   0  0  0  0  0  0  0  0  0  0  0  0
  148.0702  155.3496  132.7576 H   0  0  0  0  0  0  0  0  0  0  0  0
  145.5690  154.5260  137.1050 H   0  0  0  0  0  0  0  0  0  0  0  0
  142.9497  156.9911  134.5296 H   0  0  0  0  0  0  0  0  0  0  0  0
  143.7052  159.4181  133.2079 H   0  0  0  0  0  0  0  0  0  0  0  0
  145.6826  160.6494  132.2658 H   0  0  0  0  0  0  0  0  0  0  0  0
  148.4367  160.5619  132.9830 H   0  0  0  0  0  0  0  0  0  0  0  0
  147.4703  159.8415  130.1749 H   0  0  0  0  0  0  0  0  0  0  0  0
  147.5978  161.4483  130.8857 H   0  0  0  0  0  0  0  0  0  0  0  0
  149.4826  160.3306  129.1587 H   0  0  0  0  0  0  0  0  0  0  0  0
  149.8669  161.6291  130.3270 H   0  0  0  0  0  0  0  0  0  0  0  0
  151.1070  160.2450  131.4580 H   0  0  0  0  0  0  0  0  0  0  0  0
  149.2844  157.9921  131.5683 H   0  0  0  0  0  0  0  0  0  0  0  0
  150.1226  158.8606  132.8812 H   0  0  0  0  0  0  0  0  0  0  0  0
  148.2726  157.3117  133.3510 H   0  0  0  0  0  0  0  0  0  0  0  0
  1  2  1  0
  2  3  1  0
  3  4  2  0
  3  5  1  0
  5  6  1  0
  6  7  1  0
  7  8  1  0
  7  9  2  0
  6 10  2  0
 10 11  1  0
 11 12  2  0
 12 13  1  0
 13 14  2  0
 14 15  1  0
 15 16  1  0
 16 17  1  0
 17 18  1  0
 18 19  1  0
 14 20  1  0
 20 21  2  0
 21  5  1  0
 21 11  1  0
 19 15  1  0
  1 22  1  0
  1 23  1  0
  1 24  1  0
  2 25  1  0
  2 26  1  0
  8 27  1  0
 10 28  1  0
 12 29  1  0
 13 30  1  0
 15 31  1  1
 16 32  1  0
 16 33  1  0
 17 34  1  0
 17 35  1  0
 18 36  1  0
 19 37  1  0
 19 38  1  0
 20 39  1  0
M  CHG  1   8  -1
M  END
>  <UniqueID>  (69) 
69

>  <SMILES>  (69) 
CCC(=O)n1c(C([NH-])=O)cc2ccc([C@@H]3CCNC3)cc21

>  <Energy>  (69) 
79.99229265582414

>  <Genealogy>  (69) 
CCC(=O)n1c(C([NH-])=O)cc2ccc([C@@H]3CCNC3)cc21 (protonated)
CCC(=O)n1c(C([NH-])=O)cc2ccc([C@@H]3CCNC3)cc21 (3D coordinates assigned)
CCC(=O)n1c(C([NH-])=O)cc2ccc([C@@H]3CCNC3)cc21 (nonaromatic ring conformer: 79.99229265582414 kcal/mol)

>  <smiles>  (69) 
CCC(=O)n1c(C(N)=O)cc2ccc([C@@H]3CCNC3)cc21

>  <score_type>  (69) 
oracle

>  <origin>  (69) 
adg

>  <m_score__min__energy>  (69) 
-7.75

>  <m_primary>  (69) 
energy

$$$$
69:0
     RDKit          3D

 44 45  0  0  0  0  0  0  0  0999 V2000
  139.8330  159.3640  130.9250 C   0  0  0  0  0  0  0  0  0  0  0  0
  138.3870  158.9050  131.1030 C   0  0  0  0  0  0  0  0  0  0  0  0
  137.4230  160.0710  130.8680 C   0  0  0  0  0  0  0  0  0  0  0  0
  138.2250  158.3940  132.4270 O   0  0  0  0  0  0  0  0  0  0  0  0
  139.2200  157.6830  133.1070 C   0  0  0  0  0  0  0  0  0  0  0  0
  139.5750  156.5360  132.7200 O   0  0  0  0  0  0  0  0  0  0  0  0
  139.8340  158.2760  134.3330 C   0  0  0  0  0  0  0  0  0  0  0  0
  141.2430  158.7090  134.0370 C   0  0  0  0  0  0  0  0  0  0  0  0
  141.5650  160.0880  133.9850 C   0  0  0  0  0  0  0  0  0  0  0  0
  142.8850  160.5060  133.7580 C   0  0  0  0  0  0  0  0  0  0  0  0
  143.8590  159.5270  133.5880 C   0  0  0  0  0  0  0  0  0  0  0  0
  145.2120  159.6560  133.3700 C   0  0  0  0  0  0  0  0  0  0  0  0
  145.6970  158.3520  133.2760 C   0  0  0  0  0  0  0  0  0  0  0  0
  147.0960  158.0180  132.9310 C   0  0  0  0  0  0  0  0  0  0  0  0
  147.3890  156.9780  131.9970 N   0  0  0  0  0  0  0  0  0  0  0  0
  148.0470  158.6290  133.4850 O   0  0  0  0  0  0  0  0  0  0  0  0
  144.6830  157.4530  133.4350 N   0  0  0  0  0  0  0  0  0  0  0  0
  144.7770  156.0180  133.4470 C   0  0  0  0  0  0  0  0  0  0  0  0
  144.6210  155.3860  134.5280 O   0  0  0  0  0  0  0  0  0  0  0  0
  145.0250  155.3290  132.2540 O   0  0  0  0  0  0  0  0  0  0  0  0
  144.3290  154.1470  131.8630 C   0  0  0  0  0  0  0  0  0  0  0  0
  145.0380  152.9020  132.3900 C   0  0  0  0  0  0  0  0  0  0  0  0
  144.1170  151.9540  132.7950 F   0  0  0  0  0  0  0  0  0  0  0  0
  143.5650  158.1890  133.6240 C   0  0  0  0  0  0  0  0  0  0  0  0
  142.2600  157.7440  133.8710 C   0  0  0  0  0  0  0  0  0  0  0  0
  140.2953  159.5107  131.9123 H   0  0  0  0  0  0  0  0  0  0  0  0
  140.3942  158.5998  130.3673 H   0  0  0  0  0  0  0  0  0  0  0  0
  139.8508  160.3119  130.3673 H   0  0  0  0  0  0  0  0  0  0  0  0
  138.1595  158.1180  130.3690 H   0  0  0  0  0  0  0  0  0  0  0  0
  137.0907  160.4729  131.8365 H   0  0  0  0  0  0  0  0  0  0  0  0
  137.9351  160.8612  130.2993 H   0  0  0  0  0  0  0  0  0  0  0  0
  136.5506  159.7166  130.2993 H   0  0  0  0  0  0  0  0  0  0  0  0
  139.2435  159.1473  134.6525 H   0  0  0  0  0  0  0  0  0  0  0  0
  139.8458  157.5228  135.1346 H   0  0  0  0  0  0  0  0  0  0  0  0
  140.7724  160.8380  134.1239 H   0  0  0  0  0  0  0  0  0  0  0  0
  143.1419  161.5747  133.7157 H   0  0  0  0  0  0  0  0  0  0  0  0
  145.7882  160.5894  133.2875 H   0  0  0  0  0  0  0  0  0  0  0  0
  148.3810  156.7250  131.7890 H   0  0  0  0  0  0  0  0  0  0  0  0
  146.6300  156.4840  131.4780 H   0  0  0  0  0  0  0  0  0  0  0  0
  143.3071  154.1792  132.2688 H   0  0  0  0  0  0  0  0  0  0  0  0
  144.3030  154.0999  130.7643 H   0  0  0  0  0  0  0  0  0  0  0  0
  145.6662  152.4785  131.5925 H   0  0  0  0  0  0  0  0  0  0  0  0
  145.6590  153.1852  133.2526 H   0  0  0  0  0  0  0  0  0  0  0  0
  142.0332  156.6695  133.9341 H   0  0  0  0  0  0  0  0  0  0  0  0
  1  2  1  0
  2  3  1  0
  2  4  1  0
  4  5  1  0
  5  6  2  0
  5  7  1  0
  7  8  1  0
  8  9  2  0
  9 10  1  0
 10 11  2  0
 11 12  1  0
 12 13  2  0
 13 14  1  0
 14 15  1  0
 14 16  2  0
 13 17  1  0
 17 18  1  0
 18 19  2  0
 18 20  1  0
 20 21  1  0
 21 22  1  0
 22 23  1  0
 17 24  1  0
 24 25  2  0
 25  8  1  0
 24 11  1  0
  1 26  1  0
  1 27  1  0
  1 28  1  0
  2 29  1  0
  3 30  1  0
  3 31  1  0
  3 32  1  0
  7 33  1  0
  7 34  1  0
  9 35  1  0
 10 36  1  0
 12 37  1  0
 15 38  1  0
 15 39  1  0
 21 40  1  0
 21 41  1  0
 22 42  1  0
 22 43  1  0
 25 44  1  0
M  END
>  <UniqueID>  (70) 
70

>  <SMILES>  (70) 
CC(C)OC(=O)Cc1ccc2cc(C(N)=O)n(C(=O)OCCF)c2c1

>  <Energy>  (70) 
70.475411058089

>  <Genealogy>  (70) 
CC(C)OC(=O)Cc1ccc2cc(C(N)=O)n(C(=O)OCCF)c2c1 (3D coordinates assigned)
CC(C)OC(=O)Cc1ccc2cc(C(N)=O)n(C(=O)OCCF)c2c1 (optimized conformer: 70.475411058089 kcal/mol)

>  <smiles>  (70) 
CC(C)OC(=O)Cc1ccc2cc(C(N)=O)n(C(=O)OCCF)c2c1

>  <score_type>  (70) 
oracle

>  <origin>  (70) 
adg

>  <m_score__min__energy>  (70) 
-6.6299999999999999

>  <m_primary>  (70) 
energy

$$$$
70:0
     RDKit          3D

 34 35  0  0  0  0  0  0  0  0999 V2000
  145.8870  163.0450  134.7380 N   0  0  0  0  0  0  0  0  0  0  0  0
  145.1680  161.9890  134.1060 C   0  0  0  0  0  0  0  0  0  0  0  0
  143.9860  162.1920  133.7210 O   0  0  0  0  0  0  0  0  0  0  0  0
  145.8280  160.6890  133.8690 C   0  0  0  0  0  0  0  0  0  0  0  0
  147.1950  160.5560  133.6300 C   0  0  0  0  0  0  0  0  0  0  0  0
  147.3920  159.2200  133.3690 C   0  0  0  0  0  0  0  0  0  0  0  0
  148.5630  158.5300  133.0710 C   0  0  0  0  0  0  0  0  0  0  0  0
  148.4760  157.1420  132.8680 C   0  0  0  0  0  0  0  0  0  0  0  0
  147.2310  156.4720  132.9800 C   0  0  0  0  0  0  0  0  0  0  0  0
  147.1460  154.9870  132.7420 C   0  0  0  0  0  0  0  0  0  0  0  0
  148.5330  154.3470  132.5900 C   0  0  0  0  0  0  0  0  0  0  0  0
  148.4660  152.8220  132.4700 C   0  0  0  0  0  0  0  0  0  0  0  0
  149.4940  152.3870  131.6110 O   0  0  0  0  0  0  0  0  0  0  0  0
  149.8840  150.7760  132.0140 P   0  0  0  0  0  0  0  0  0  0  0  0
  150.6840  150.7400  133.2970 O   0  0  0  0  0  0  0  0  0  0  0  0
  148.4750  149.8580  132.1990 O   0  0  0  0  0  0  0  0  0  0  0  0
  150.8130  150.1110  130.7670 O   0  0  0  0  0  0  0  0  0  0  0  0
  146.0630  157.2070  133.2790 C   0  0  0  0  0  0  0  0  0  0  0  0
  146.1760  158.5910  133.4590 C   0  0  0  0  0  0  0  0  0  0  0  0
  145.2050  159.4800  133.7670 N   0  0  0  0  0  0  0  0  0  0  0  0
  143.8200  159.1820  134.0100 C   0  0  0  0  0  0  0  0  0  0  0  0
  143.2300  159.6700  135.0100 O   0  0  0  0  0  0  0  0  0  0  0  0
  143.1100  158.3750  133.1300 O   0  0  0  0  0  0  0  0  0  0  0  0
  146.9310  163.0510  134.7500 H   0  0  0  0  0  0  0  0  0  0  0  0
  147.9550  161.3510  133.6466 H   0  0  0  0  0  0  0  0  0  0  0  0
  149.5270  159.0546  132.9966 H   0  0  0  0  0  0  0  0  0  0  0  0
  149.3821  156.5699  132.6199 H   0  0  0  0  0  0  0  0  0  0  0  0
  146.6312  154.5199  133.5945 H   0  0  0  0  0  0  0  0  0  0  0  0
  146.5932  154.8249  131.8049 H   0  0  0  0  0  0  0  0  0  0  0  0
  149.0106  154.7512  131.6853 H   0  0  0  0  0  0  0  0  0  0  0  0
  149.1118  154.5856  133.4945 H   0  0  0  0  0  0  0  0  0  0  0  0
  148.5972  152.3672  133.4630 H   0  0  0  0  0  0  0  0  0  0  0  0
  147.4887  152.5224  132.0637 H   0  0  0  0  0  0  0  0  0  0  0  0
  145.0884  156.7047  133.3683 H   0  0  0  0  0  0  0  0  0  0  0  0
  1  2  1  0
  2  3  2  0
  2  4  1  0
  4  5  2  0
  5  6  1  0
  6  7  2  0
  7  8  1  0
  8  9  2  0
  9 10  1  0
 10 11  1  0
 11 12  1  0
 12 13  1  0
 13 14  1  0
 14 15  2  0
 14 16  1  0
 14 17  1  0
  9 18  1  0
 18 19  2  0
 19 20  1  0
 20 21  1  0
 21 22  2  0
 21 23  1  0
 20  4  1  0
 19  6  1  0
  1 24  1  0
  5 25  1  0
  7 26  1  0
  8 27  1  0
 10 28  1  0
 10 29  1  0
 11 30  1  0
 11 31  1  0
 12 32  1  0
 12 33  1  0
 18 34  1  0
M  CHG  4   1  -1  16  -1  17  -1  23  -1
M  END
>  <UniqueID>  (71) 
71

>  <SMILES>  (71) 
[NH-]C(=O)c1cc2ccc(CCCOP(=O)([O-])[O-])cc2n1C(=O)[O-]

>  <Energy>  (71) 
67.72502521991109

>  <Genealogy>  (71) 
[NH-]C(=O)c1cc2ccc(CCCOP(=O)([O-])[O-])cc2n1C(=O)[O-] (protonated)
[NH-]C(=O)c1cc2ccc(CCCOP(=O)([O-])[O-])cc2n1C(=O)[O-] (3D coordinates assigned)
[NH-]C(=O)c1cc2ccc(CCCOP(=O)([O-])[O-])cc2n1C(=O)[O-] (optimized conformer: 67.72502521991109 kcal/mol)

>  <smiles>  (71) 
NC(=O)c1cc2ccc(CCCOP(=O)(O)O)cc2n1C(=O)O

>  <score_type>  (71) 
oracle

>  <origin>  (71) 
adg

>  <m_score__min__energy>  (71) 
-7.1200000000000001

>  <m_primary>  (71) 
energy

$$$$
71:0
     RDKit          3D

 39 42  0  0  0  0  0  0  0  0999 V2000
  143.6390  155.3230  133.1040 N   0  0  0  0  0  0  0  0  0  0  0  0
  143.6750  154.0610  133.7680 C   0  0  0  0  0  0  0  0  0  0  0  0
  144.3290  153.9470  134.8390 O   0  0  0  0  0  0  0  0  0  0  0  0
  142.9140  152.9060  133.2480 C   0  0  0  0  0  0  0  0  0  0  0  0
  143.4920  151.6650  132.9860 C   0  0  0  0  0  0  0  0  0  0  0  0
  142.4480  150.8500  132.6110 C   0  0  0  0  0  0  0  0  0  0  0  0
  142.4500  149.5130  132.2290 C   0  0  0  0  0  0  0  0  0  0  0  0
  141.2250  148.9310  131.8640 C   0  0  0  0  0  0  0  0  0  0  0  0
  140.0240  149.6830  131.8770 C   0  0  0  0  0  0  0  0  0  0  0  0
  138.7480  148.9740  131.4540 C   0  0  0  0  0  0  0  0  0  0  0  0
  138.3720  149.0330  129.9800 C   0  0  0  0  0  0  0  0  0  0  0  0
  138.8950  147.7350  130.5840 C   0  0  0  0  0  0  0  0  0  0  0  0
  140.0680  151.0470  132.2710 C   0  0  0  0  0  0  0  0  0  0  0  0
  141.2990  151.5940  132.6490 C   0  0  0  0  0  0  0  0  0  0  0  0
  141.5690  152.8610  133.0370 N   0  0  0  0  0  0  0  0  0  0  0  0
  140.6230  153.9370  133.1120 C   0  0  0  0  0  0  0  0  0  0  0  0
  139.4660  153.7930  132.6300 O   0  0  0  0  0  0  0  0  0  0  0  0
  141.0050  155.1510  133.6990 O   0  0  0  0  0  0  0  0  0  0  0  0
  140.4910  156.4120  133.3660 C   0  0  0  0  0  0  0  0  0  0  0  0
  139.1080  156.6810  133.3570 C   0  0  0  0  0  0  0  0  0  0  0  0
  138.6430  157.9600  133.0340 C   0  0  0  0  0  0  0  0  0  0  0  0
  139.5480  158.9790  132.7280 C   0  0  0  0  0  0  0  0  0  0  0  0
  140.9220  158.7220  132.7540 C   0  0  0  0  0  0  0  0  0  0  0  0
  141.3900  157.4460  133.0780 C   0  0  0  0  0  0  0  0  0  0  0  0
  142.8060  155.6120  132.5460 H   0  0  0  0  0  0  0  0  0  0  0  0
  144.5555  151.3946  133.0626 H   0  0  0  0  0  0  0  0  0  0  0  0
  143.3822  148.9292  132.2132 H   0  0  0  0  0  0  0  0  0  0  0  0
  141.1974  147.8734  131.5629 H   0  0  0  0  0  0  0  0  0  0  0  0
  138.2325  149.2053  132.3978 H   0  0  0  0  0  0  0  0  0  0  0  0
  137.3157  149.1160  129.6845 H   0  0  0  0  0  0  0  0  0  0  0  0
  138.6598  149.6665  129.1280 H   0  0  0  0  0  0  0  0  0  0  0  0
  138.2162  146.8808  130.7241 H   0  0  0  0  0  0  0  0  0  0  0  0
  139.7170  147.0431  130.3483 H   0  0  0  0  0  0  0  0  0  0  0  0
  139.1544  151.6597  132.2787 H   0  0  0  0  0  0  0  0  0  0  0  0
  138.3922  155.8833  133.6046 H   0  0  0  0  0  0  0  0  0  0  0  0
  137.5621  158.1638  133.0209 H   0  0  0  0  0  0  0  0  0  0  0  0
  139.1802  159.9823  132.4669 H   0  0  0  0  0  0  0  0  0  0  0  0
  141.6356  159.5255  132.5190 H   0  0  0  0  0  0  0  0  0  0  0  0
  142.4724  157.2524  133.1070 H   0  0  0  0  0  0  0  0  0  0  0  0
  1  2  1  0
  2  3  2  0
  2  4  1  0
  4  5  2  0
  5  6  1  0
  6  7  2  0
  7  8  1  0
  8  9  2  0
  9 10  1  0
 10 11  1  0
 11 12  1  0
  9 13  1  0
 13 14  2  0
 14 15  1  0
 15 16  1  0
 16 17  2  0
 16 18  1  0
 18 19  1  0
 19 20  2  0
 20 21  1  0
 21 22  2  0
 22 23  1  0
 23 24  2  0
 15  4  1  0
 24 19  1  0
 14  6  1  0
 12 10  1  0
  1 25  1  0
  5 26  1  0
  7 27  1  0
  8 28  1  0
 10 29  1  0
 11 30  1  0
 11 31  1  0
 12 32  1  0
 12 33  1  0
 13 34  1  0
 20 35  1  0
 21 36  1  0
 22 37  1  0
 23 38  1  0
 24 39  1  0
M  CHG  1   1  -1
M  END
>  <UniqueID>  (72) 
72

>  <SMILES>  (72) 
[NH-]C(=O)c1cc2ccc(C3CC3)cc2n1C(=O)Oc1ccccc1

>  <Energy>  (72) 
353.8562551900546

>  <Genealogy>  (72) 
[NH-]C(=O)c1cc2ccc(C3CC3)cc2n1C(=O)Oc1ccccc1 (protonated)
[NH-]C(=O)c1cc2ccc(C3CC3)cc2n1C(=O)Oc1ccccc1 (3D coordinates assigned)
[NH-]C(=O)c1cc2ccc(C3CC3)cc2n1C(=O)Oc1ccccc1 (nonaromatic ring conformer: 353.8562551900546 kcal/mol)

>  <smiles>  (72) 
NC(=O)c1cc2ccc(C3CC3)cc2n1C(=O)Oc1ccccc1

>  <score_type>  (72) 
oracle

>  <origin>  (72) 
adg

>  <m_score__min__energy>  (72) 
-8.3399999999999999

>  <m_primary>  (72) 
energy

$$$$
72:0
     RDKit          3D

 39 41  0  0  0  0  0  0  0  0999 V2000
  138.7330  158.2340  131.4360 C   0  0  0  0  0  0  0  0  0  0  0  0
  139.1580  157.1420  132.2400 O   0  0  0  0  0  0  0  0  0  0  0  0
  139.2940  157.2370  133.6290 C   0  0  0  0  0  0  0  0  0  0  0  0
  138.4110  157.8210  134.3160 O   0  0  0  0  0  0  0  0  0  0  0  0
  140.4300  156.6450  134.2770 N   0  0  0  0  0  0  0  0  0  0  0  0
  141.3200  157.2470  135.1150 C   0  0  0  0  0  0  0  0  0  0  0  0
  141.2030  158.6120  135.6680 C   0  0  0  0  0  0  0  0  0  0  0  0
  140.0680  158.9960  136.4410 N   0  0  0  0  0  0  0  0  0  0  0  0
  142.1410  159.4370  135.4990 O   0  0  0  0  0  0  0  0  0  0  0  0
  142.3400  156.3650  135.4630 C   0  0  0  0  0  0  0  0  0  0  0  0
  142.0400  155.1880  134.8150 C   0  0  0  0  0  0  0  0  0  0  0  0
  142.7220  153.9760  134.8010 C   0  0  0  0  0  0  0  0  0  0  0  0
  142.1950  152.9340  134.0210 C   0  0  0  0  0  0  0  0  0  0  0  0
  141.0090  153.1160  133.2660 C   0  0  0  0  0  0  0  0  0  0  0  0
  140.5060  152.0190  132.4800 N   0  0  0  0  0  0  0  0  0  0  0  0
  140.8410  150.6120  132.7100 C   0  0  0  0  0  0  0  0  0  0  0  0
  140.2380  149.7430  131.6440 C   0  0  0  0  0  0  0  0  0  0  0  0
  140.4380  148.3550  131.6550 C   0  0  0  0  0  0  0  0  0  0  0  0
  139.8580  147.5710  130.6560 C   0  0  0  0  0  0  0  0  0  0  0  0
  139.0900  148.1740  129.6580 C   0  0  0  0  0  0  0  0  0  0  0  0
  138.9170  149.5600  129.6740 C   0  0  0  0  0  0  0  0  0  0  0  0
  139.4890  150.3060  130.6550 N   0  0  0  0  0  0  0  0  0  0  0  0
  140.3520  154.3700  133.2990 C   0  0  0  0  0  0  0  0  0  0  0  0
  140.8850  155.3830  134.1040 C   0  0  0  0  0  0  0  0  0  0  0  0
  138.4105  159.0625  132.0837 H   0  0  0  0  0  0  0  0  0  0  0  0
  139.5667  158.5681  130.8010 H   0  0  0  0  0  0  0  0  0  0  0  0
  137.8928  157.9166  130.8010 H   0  0  0  0  0  0  0  0  0  0  0  0
  139.1100  158.9920  136.0270 H   0  0  0  0  0  0  0  0  0  0  0  0
  143.2018  156.5660  136.1164 H   0  0  0  0  0  0  0  0  0  0  0  0
  143.6453  153.8380  135.3827 H   0  0  0  0  0  0  0  0  0  0  0  0
  142.7100  151.9623  133.9954 H   0  0  0  0  0  0  0  0  0  0  0  0
  139.8850  152.2330  131.6670 H   0  0  0  0  0  0  0  0  0  0  0  0
  141.9346  150.4941  132.6965 H   0  0  0  0  0  0  0  0  0  0  0  0
  140.4369  150.3067  133.6865 H   0  0  0  0  0  0  0  0  0  0  0  0
  141.0464  147.8882  132.4437 H   0  0  0  0  0  0  0  0  0  0  0  0
  140.0057  146.4810  130.6551 H   0  0  0  0  0  0  0  0  0  0  0  0
  138.6265  147.5646  128.8682 H   0  0  0  0  0  0  0  0  0  0  0  0
  138.3171  150.0479  128.8916 H   0  0  0  0  0  0  0  0  0  0  0  0
  139.4427  154.5440  132.7049 H   0  0  0  0  0  0  0  0  0  0  0  0
  1  2  1  0
  2  3  1  0
  3  4  2  0
  3  5  1  0
  5  6  1  0
  6  7  1  0
  7  8  1  0
  7  9  2  0
  6 10  2  0
 10 11  1  0
 11 12  2  0
 12 13  1  0
 13 14  2  0
 14 15  1  0
 15 16  1  0
 16 17  1  0
 17 18  2  0
 18 19  1  0
 19 20  2  0
 20 21  1  0
 21 22  2  0
 14 23  1  0
 23 24  2  0
 24  5  1  0
 24 11  1  0
 22 17  1  0
  1 25  1  0
  1 26  1  0
  1 27  1  0
  8 28  1  0
 10 29  1  0
 12 30  1  0
 13 31  1  0
 15 32  1  0
 16 33  1  0
 16 34  1  0
 18 35  1  0
 19 36  1  0
 20 37  1  0
 21 38  1  0
 23 39  1  0
M  CHG  1   8  -1
M  END
>  <UniqueID>  (73) 
73

>  <SMILES>  (73) 
COC(=O)n1c(C([NH-])=O)cc2ccc(NCc3ccccn3)cc21

>  <Energy>  (73) 
77.85800929855586

>  <Genealogy>  (73) 
COC(=O)n1c(C([NH-])=O)cc2ccc(NCc3ccccn3)cc21 (protonated)
COC(=O)n1c(C([NH-])=O)cc2ccc(NCc3ccccn3)cc21 (3D coordinates assigned)
COC(=O)n1c(C([NH-])=O)cc2ccc(NCc3ccccn3)cc21 (optimized conformer: 77.85800929855586 kcal/mol)

>  <smiles>  (73) 
COC(=O)n1c(C(N)=O)cc2ccc(NCc3ccccn3)cc21

>  <score_type>  (73) 
oracle

>  <origin>  (73) 
adg

>  <m_score__min__energy>  (73) 
-7.6900000000000004

>  <m_primary>  (73) 
energy

$$$$
73:0
     RDKit          3D

 37 39  0  0  0  0  0  0  0  0999 V2000
  145.6810  155.2500  134.7230 C   0  0  0  0  0  0  0  0  0  0  0  0
  144.1720  155.3200  134.5000 C   0  0  0  0  0  0  0  0  0  0  0  0
  143.8180  156.2350  133.3620 C   0  0  0  0  0  0  0  0  0  0  0  0
  143.6120  155.7560  132.2140 O   0  0  0  0  0  0  0  0  0  0  0  0
  143.6250  157.6390  133.5890 N   0  0  0  0  0  0  0  0  0  0  0  0
  142.4440  158.3000  133.7580 C   0  0  0  0  0  0  0  0  0  0  0  0
  141.1070  157.6780  133.8520 C   0  0  0  0  0  0  0  0  0  0  0  0
  140.8620  156.3760  133.3230 N   0  0  0  0  0  0  0  0  0  0  0  0
  140.1720  158.2910  134.4340 O   0  0  0  0  0  0  0  0  0  0  0  0
  142.6680  159.6700  133.8960 C   0  0  0  0  0  0  0  0  0  0  0  0
  144.0320  159.8280  133.8060 C   0  0  0  0  0  0  0  0  0  0  0  0
  144.8090  160.9820  133.8760 C   0  0  0  0  0  0  0  0  0  0  0  0
  146.2000  160.8490  133.7340 C   0  0  0  0  0  0  0  0  0  0  0  0
  146.7830  159.5780  133.5050 C   0  0  0  0  0  0  0  0  0  0  0  0
  148.2750  159.4370  133.3910 C   0  0  0  0  0  0  0  0  0  0  0  0
  148.7050  159.8200  132.0510 N   0  0  0  0  0  0  0  0  0  0  0  0
  149.2400  159.0010  131.1280 C   0  0  0  0  0  0  0  0  0  0  0  0
  149.5830  159.7550  130.0270 C   0  0  0  0  0  0  0  0  0  0  0  0
  149.2290  161.0490  130.3630 C   0  0  0  0  0  0  0  0  0  0  0  0
  148.7040  161.0660  131.6040 N   0  0  0  0  0  0  0  0  0  0  0  0
  145.9640  158.4290  133.4490 C   0  0  0  0  0  0  0  0  0  0  0  0
  144.5850  158.5880  133.6160 C   0  0  0  0  0  0  0  0  0  0  0  0
  145.8920  155.2402  135.8025 H   0  0  0  0  0  0  0  0  0  0  0  0
  146.0774  154.3325  134.2636 H   0  0  0  0  0  0  0  0  0  0  0  0
  146.1606  156.1269  134.2636 H   0  0  0  0  0  0  0  0  0  0  0  0
  143.7982  154.3103  134.2746 H   0  0  0  0  0  0  0  0  0  0  0  0
  143.7092  155.7178  135.4152 H   0  0  0  0  0  0  0  0  0  0  0  0
  141.4850  155.9690  132.5910 H   0  0  0  0  0  0  0  0  0  0  0  0
  141.9141  160.4570  134.0451 H   0  0  0  0  0  0  0  0  0  0  0  0
  144.3473  161.9673  134.0376 H   0  0  0  0  0  0  0  0  0  0  0  0
  146.8424  161.7394  133.8011 H   0  0  0  0  0  0  0  0  0  0  0  0
  148.7613  160.0893  134.1313 H   0  0  0  0  0  0  0  0  0  0  0  0
  148.5569  158.3904  133.5783 H   0  0  0  0  0  0  0  0  0  0  0  0
  149.3798  157.9151  131.2340 H   0  0  0  0  0  0  0  0  0  0  0  0
  150.0377  159.4052  129.0885 H   0  0  0  0  0  0  0  0  0  0  0  0
  149.3565  161.9296  129.7162 H   0  0  0  0  0  0  0  0  0  0  0  0
  146.4001  157.4337  133.2783 H   0  0  0  0  0  0  0  0  0  0  0  0
  1  2  1  0
  2  3  1  0
  3  4  2  0
  3  5  1  0
  5  6  1  0
  6  7  1  0
  7  8  1  0
  7  9  2  0
  6 10  2  0
 10 11  1  0
 11 12  2  0
 12 13  1  0
 13 14  2  0
 14 15  1  0
 15 16  1  0
 16 17  1  0
 17 18  2  0
 18 19  1  0
 19 20  2  0
 14 21  1  0
 21 22  2  0
 22  5  1  0
 22 11  1  0
 20 16  1  0
  1 23  1  0
  1 24  1  0
  1 25  1  0
  2 26  1  0
  2 27  1  0
  8 28  1  0
 10 29  1  0
 12 30  1  0
 13 31  1  0
 15 32  1  0
 15 33  1  0
 17 34  1  0
 18 35  1  0
 19 36  1  0
 21 37  1  0
M  CHG  1   8  -1
M  END
>  <UniqueID>  (74) 
74

>  <SMILES>  (74) 
CCC(=O)n1c(C([NH-])=O)cc2ccc(Cn3cccn3)cc21

>  <Energy>  (74) 
103.30330886834363

>  <Genealogy>  (74) 
CCC(=O)n1c(C([NH-])=O)cc2ccc(Cn3cccn3)cc21 (protonated)
CCC(=O)n1c(C([NH-])=O)cc2ccc(Cn3cccn3)cc21 (3D coordinates assigned)
CCC(=O)n1c(C([NH-])=O)cc2ccc(Cn3cccn3)cc21 (optimized conformer: 103.30330886834363 kcal/mol)

>  <smiles>  (74) 
CCC(=O)n1c(C(N)=O)cc2ccc(Cn3cccn3)cc21

>  <score_type>  (74) 
oracle

>  <origin>  (74) 
adg

>  <m_score__min__energy>  (74) 
-7.2800000000000002

>  <m_primary>  (74) 
energy

$$$$
74:0
     RDKit          3D

 69 74  0  0  0  0  0  0  0  0999 V2000
  143.8570  159.0820  134.2150 C   0  0  0  0  0  0  0  0  0  0  0  0
  145.0770  158.3670  133.7180 C   0  0  0  0  0  0  0  0  0  0  0  0
  146.0790  159.0820  133.0190 C   0  0  0  0  0  0  0  0  0  0  0  0
  147.2570  158.4390  132.6030 C   0  0  0  0  0  0  0  0  0  0  0  0
  147.4040  157.0860  132.9000 C   0  0  0  0  0  0  0  0  0  0  0  0
  148.4590  156.2370  132.6580 C   0  0  0  0  0  0  0  0  0  0  0  0
  148.0750  155.0090  133.1870 C   0  0  0  0  0  0  0  0  0  0  0  0
  148.9080  153.7960  133.0980 C   0  0  0  0  0  0  0  0  0  0  0  0
  148.4810  152.5710  133.6920 N   0  0  0  0  0  0  0  0  0  0  0  0
  150.0030  153.8340  132.4810 O   0  0  0  0  0  0  0  0  0  0  0  0
  146.8340  155.0910  133.7480 N   0  0  0  0  0  0  0  0  0  0  0  0
  146.1350  154.0640  134.4750 C   0  0  0  0  0  0  0  0  0  0  0  0
  145.0250  153.6380  134.0550 O   0  0  0  0  0  0  0  0  0  0  0  0
  146.6890  153.5440  135.6520 O   0  0  0  0  0  0  0  0  0  0  0  0
  146.5020  154.1430  136.9330 C   0  0  0  0  0  0  0  0  0  0  0  0
  147.1170  153.2690  138.0330 C   0  0  0  0  0  0  0  0  0  0  0  0
  146.2780  152.0190  138.3080 C   0  0  0  0  0  0  0  0  0  0  0  0
  145.2930  152.3100  139.2950 O   0  0  0  0  0  0  0  0  0  0  0  0
  143.9200  152.3250  139.0330 C   0  0  0  0  0  0  0  0  0  0  0  0
  143.1780  151.4090  139.4870 O   0  0  0  0  0  0  0  0  0  0  0  0
  143.3450  153.4220  138.2230 C   0  0  0  0  0  0  0  0  0  0  0  0
  143.3070  153.3100  136.8220 C   0  0  0  0  0  0  0  0  0  0  0  0
  142.7710  154.3330  136.0390 C   0  0  0  0  0  0  0  0  0  0  0  0
  142.2630  155.4930  136.6400 C   0  0  0  0  0  0  0  0  0  0  0  0
  141.7170  156.5560  135.8980 C   0  0  0  0  0  0  0  0  0  0  0  0
  141.2380  157.6910  136.5230 C   0  0  0  0  0  0  0  0  0  0  0  0
  141.2610  157.8340  137.9080 C   0  0  0  0  0  0  0  0  0  0  0  0
  141.7930  156.7880  138.6780 C   0  0  0  0  0  0  0  0  0  0  0  0
  142.2980  155.6200  138.0560 C   0  0  0  0  0  0  0  0  0  0  0  0
  142.8360  154.5820  138.8340 C   0  0  0  0  0  0  0  0  0  0  0  0
  140.7590  158.6100  135.4990 C   0  0  0  0  0  0  0  0  0  0  0  0
  140.2400  159.7390  135.7100 O   0  0  0  0  0  0  0  0  0  0  0  0
  140.9540  158.0400  134.2020 N   0  0  0  0  0  0  0  0  0  0  0  0
  140.4520  158.5370  132.9160 C   0  0  1  0  0  0  0  0  0  0  0  0
  139.0170  158.0300  132.6760 C   0  0  0  0  0  0  0  0  0  0  0  0
  138.4340  158.5970  131.3750 C   0  0  0  0  0  0  0  0  0  0  0  0
  138.5100  160.0980  131.3700 C   0  0  0  0  0  0  0  0  0  0  0  0
  137.6780  160.7700  130.7040 O   0  0  0  0  0  0  0  0  0  0  0  0
  139.5530  160.7700  132.0810 N   0  0  0  0  0  0  0  0  0  0  0  0
  140.5090  160.0430  132.8570 C   0  0  0  0  0  0  0  0  0  0  0  0
  141.4420  160.6670  133.4310 O   0  0  0  0  0  0  0  0  0  0  0  0
  141.5260  156.7560  134.4540 C   0  0  0  0  0  0  0  0  0  0  0  0
  141.8060  155.9270  133.5480 O   0  0  0  0  0  0  0  0  0  0  0  0
  146.4360  156.3740  133.5640 C   0  0  0  0  0  0  0  0  0  0  0  0
  145.2640  156.9990  134.0130 C   0  0  0  0  0  0  0  0  0  0  0  0
  143.8552  159.0830  135.3150 H   0  0  0  0  0  0  0  0  0  0  0  0
  143.8643  160.1187  133.8474 H   0  0  0  0  0  0  0  0  0  0  0  0
  142.9561  158.5690  133.8474 H   0  0  0  0  0  0  0  0  0  0  0  0
  145.9341  160.1501  132.7996 H   0  0  0  0  0  0  0  0  0  0  0  0
  148.0399  158.9877  132.0590 H   0  0  0  0  0  0  0  0  0  0  0  0
  149.4060  156.4781  132.1530 H   0  0  0  0  0  0  0  0  0  0  0  0
  147.4840  152.4280  133.9720 H   0  0  0  0  0  0  0  0  0  0  0  0
  146.9853  155.1311  136.9440 H   0  0  0  0  0  0  0  0  0  0  0  0
  145.4233  154.2447  137.1227 H   0  0  0  0  0  0  0  0  0  0  0  0
  148.1243  152.9585  137.7183 H   0  0  0  0  0  0  0  0  0  0  0  0
  147.1547  153.8632  138.9579 H   0  0  0  0  0  0  0  0  0  0  0  0
  145.7821  151.6998  137.3794 H   0  0  0  0  0  0  0  0  0  0  0  0
  146.9326  151.2137  138.6727 H   0  0  0  0  0  0  0  0  0  0  0  0
  143.7043  152.4058  136.3378 H   0  0  0  0  0  0  0  0  0  0  0  0
  142.7469  154.2286  134.9442 H   0  0  0  0  0  0  0  0  0  0  0  0
  140.8717  158.7445  138.3869 H   0  0  0  0  0  0  0  0  0  0  0  0
  141.8180  156.8761  139.7742 H   0  0  0  0  0  0  0  0  0  0  0  0
  142.8595  154.6769  139.9296 H   0  0  0  0  0  0  0  0  0  0  0  0
  141.0993  158.1488  132.1159 H   0  0  0  0  0  0  0  0  0  0  0  0
  139.0311  156.9319  132.6133 H   0  0  0  0  0  0  0  0  0  0  0  0
  138.3867  158.3648  133.5130 H   0  0  0  0  0  0  0  0  0  0  0  0
  139.0054  158.2035  130.5214 H   0  0  0  0  0  0  0  0  0  0  0  0
  137.3789  158.2956  131.2988 H   0  0  0  0  0  0  0  0  0  0  0  0
  144.5083  156.4370  134.5815 H   0  0  0  0  0  0  0  0  0  0  0  0
  1  2  1  0
  2  3  2  0
  3  4  1  0
  4  5  2  0
  5  6  1  0
  6  7  2  0
  7  8  1  0
  8  9  1  0
  8 10  2  0
  7 11  1  0
 11 12  1  0
 12 13  2  0
 12 14  1  0
 14 15  1  0
 15 16  1  0
 16 17  1  0
 17 18  1  0
 18 19  1  0
 19 20  2  0
 19 21  1  0
 21 22  2  0
 22 23  1  0
 23 24  2  0
 24 25  1  0
 25 26  2  0
 26 27  1  0
 27 28  2  0
 28 29  1  0
 29 30  2  0
 26 31  1  0
 31 32  2  0
 31 33  1  0
 33 34  1  0
 34 35  1  0
 35 36  1  0
 36 37  1  0
 37 38  2  0
 37 39  1  0
 39 40  1  0
 40 41  2  0
 33 42  1  0
 42 43  2  0
 11 44  1  0
 44 45  2  0
 45  2  1  0
 44  5  1  0
 30 21  1  0
 40 34  1  0
 29 24  1  0
 42 25  1  0
  1 46  1  0
  1 47  1  0
  1 48  1  0
  3 49  1  0
  4 50  1  0
  6 51  1  0
  9 52  1  0
 15 53  1  0
 15 54  1  0
 16 55  1  0
 16 56  1  0
 17 57  1  0
 17 58  1  0
 22 59  1  0
 23 60  1  0
 27 61  1  0
 28 62  1  0
 30 63  1  0
 34 64  1  6
 35 65  1  0
 35 66  1  0
 36 67  1  0
 36 68  1  0
 45 69  1  0
M  CHG  2   9  -1  39  -1
M  END
>  <UniqueID>  (75) 
75

>  <SMILES>  (75) 
Cc1ccc2cc(C([NH-])=O)n(C(=O)OCCCOC(=O)c3ccc4c5c(ccc4c3)C(=O)N([C@H]3CCC(=O)[N-]C3=O)C5=O)c2c1

>  <Energy>  (75) 
142.95094412409253

>  <Genealogy>  (75) 
Cc1ccc2cc(C([NH-])=O)n(C(=O)OCCCOC(=O)c3ccc4c5c(ccc4c3)C(=O)N(C3CCC(=O)[N-]C3=O)C5=O)c2c1 (protonated)
Cc1ccc2cc(C([NH-])=O)n(C(=O)OCCCOC(=O)c3ccc4c5c(ccc4c3)C(=O)N([C@H]3CCC(=O)[N-]C3=O)C5=O)c2c1 (chirality)
Cc1ccc2cc(C([NH-])=O)n(C(=O)OCCCOC(=O)c3ccc4c5c(ccc4c3)C(=O)N([C@H]3CCC(=O)[N-]C3=O)C5=O)c2c1 (3D coordinates assigned)
Cc1ccc2cc(C([NH-])=O)n(C(=O)OCCCOC(=O)c3ccc4c5c(ccc4c3)C(=O)N([C@H]3CCC(=O)[N-]C3=O)C5=O)c2c1 (nonaromatic ring conformer: 142.95094412409253 kcal/mol)

>  <smiles>  (75) 
Cc1ccc2cc(C(N)=O)n(C(=O)OCCCOC(=O)c3ccc4c5c(ccc4c3)C(=O)N(C3CCC(=O)NC3=O)C5=O)c2c1

>  <score_type>  (75) 
oracle

>  <origin>  (75) 
adg

>  <m_score__min__energy>  (75) 
-11.789999999999999

>  <m_primary>  (75) 
energy

$$$$
75:0
     RDKit          3D

 32 34  0  0  0  0  0  0  0  0999 V2000
  139.8770  158.2190  136.3540 N   0  0  0  0  0  0  0  0  0  0  0  0
  140.2000  158.4000  134.9770 C   0  0  0  0  0  0  0  0  0  0  0  0
  139.2850  158.3280  134.1150 O   0  0  0  0  0  0  0  0  0  0  0  0
  141.5770  158.7280  134.5560 C   0  0  0  0  0  0  0  0  0  0  0  0
  142.0410  160.0320  134.4010 C   0  0  0  0  0  0  0  0  0  0  0  0
  143.3760  159.9100  134.0940 C   0  0  0  0  0  0  0  0  0  0  0  0
  144.3210  160.8890  133.8200 C   0  0  0  0  0  0  0  0  0  0  0  0
  145.6240  160.4790  133.5000 C   0  0  0  0  0  0  0  0  0  0  0  0
  145.9780  159.0990  133.4520 C   0  0  0  0  0  0  0  0  0  0  0  0
  147.4130  158.6890  133.0810 C   0  0  0  0  0  0  0  0  0  0  0  0
  147.8910  157.2390  133.3230 C   0  0  0  0  0  0  0  0  0  0  0  0
  148.4870  157.1250  134.5870 O   0  0  0  0  0  0  0  0  0  0  0  0
  148.4910  159.7510  133.2920 C   0  0  0  0  0  0  0  0  0  0  0  0
  148.0710  159.3650  131.8770 C   0  0  0  0  0  0  0  0  0  0  0  0
  144.9670  158.1370  133.7300 C   0  0  0  0  0  0  0  0  0  0  0  0
  143.6820  158.5770  134.0670 C   0  0  0  0  0  0  0  0  0  0  0  0
  142.5860  157.8350  134.3440 N   0  0  0  0  0  0  0  0  0  0  0  0
  142.4960  156.4010  134.3190 C   0  0  0  0  0  0  0  0  0  0  0  0
  141.5930  155.8320  133.6500 O   0  0  0  0  0  0  0  0  0  0  0  0
  143.3890  155.6300  135.0530 O   0  0  0  0  0  0  0  0  0  0  0  0
  139.4890  159.0040  136.9220 H   0  0  0  0  0  0  0  0  0  0  0  0
  141.4625  160.9621  134.5026 H   0  0  0  0  0  0  0  0  0  0  0  0
  144.0558  161.9561  133.8528 H   0  0  0  0  0  0  0  0  0  0  0  0
  146.3889  161.2387  133.2814 H   0  0  0  0  0  0  0  0  0  0  0  0
  147.0283  156.5588  133.2664 H   0  0  0  0  0  0  0  0  0  0  0  0
  148.6320  156.9747  132.5542 H   0  0  0  0  0  0  0  0  0  0  0  0
  149.4170  157.4600  134.4920 H   0  0  0  0  0  0  0  0  0  0  0  0
  148.2193  160.7373  133.6963 H   0  0  0  0  0  0  0  0  0  0  0  0
  149.4466  159.7911  133.8353 H   0  0  0  0  0  0  0  0  0  0  0  0
  147.4962  160.0727  131.2616 H   0  0  0  0  0  0  0  0  0  0  0  0
  148.5979  159.0115  130.9785 H   0  0  0  0  0  0  0  0  0  0  0  0
  145.1926  157.0615  133.6806 H   0  0  0  0  0  0  0  0  0  0  0  0
  1  2  1  0
  2  3  2  0
  2  4  1  0
  4  5  2  0
  5  6  1  0
  6  7  2  0
  7  8  1  0
  8  9  2  0
  9 10  1  0
 10 11  1  0
 11 12  1  0
 10 13  1  0
 13 14  1  0
  9 15  1  0
 15 16  2  0
 16 17  1  0
 17 18  1  0
 18 19  2  0
 18 20  1  0
 17  4  1  0
 16  6  1  0
 14 10  1  0
  1 21  1  0
  5 22  1  0
  7 23  1  0
  8 24  1  0
 11 25  1  0
 11 26  1  0
 12 27  1  0
 13 28  1  0
 13 29  1  0
 14 30  1  0
 14 31  1  0
 15 32  1  0
M  CHG  2   1  -1  20  -1
M  END
>  <UniqueID>  (76) 
76

>  <SMILES>  (76) 
[NH-]C(=O)c1cc2ccc(C3(CO)CC3)cc2n1C(=O)[O-]

>  <Energy>  (76) 
345.2880631993124

>  <Genealogy>  (76) 
[NH-]C(=O)c1cc2ccc(C3(CO)CC3)cc2n1C(=O)[O-] (protonated)
[NH-]C(=O)c1cc2ccc(C3(CO)CC3)cc2n1C(=O)[O-] (3D coordinates assigned)
[NH-]C(=O)c1cc2ccc(C3(CO)CC3)cc2n1C(=O)[O-] (nonaromatic ring conformer: 345.2880631993124 kcal/mol)

>  <smiles>  (76) 
NC(=O)c1cc2ccc(C3(CO)CC3)cc2n1C(=O)O

>  <score_type>  (76) 
oracle

>  <origin>  (76) 
adg

>  <m_score__min__energy>  (76) 
-6.6299999999999999

>  <m_primary>  (76) 
energy

$$$$
76:0
     RDKit          3D

 48 50  0  0  0  0  0  0  0  0999 V2000
  137.4040  160.0740  130.7090 C   0  0  0  0  0  0  0  0  0  0  0  0
  138.7880  159.4350  130.7230 C   0  0  0  0  0  0  0  0  0  0  0  0
  138.7100  158.0780  131.1600 O   0  0  0  0  0  0  0  0  0  0  0  0
  139.1900  157.6380  132.3990 C   0  0  0  0  0  0  0  0  0  0  0  0
  139.3960  158.4560  133.3390 O   0  0  0  0  0  0  0  0  0  0  0  0
  139.5070  156.1900  132.5910 C   0  0  0  0  0  0  0  0  0  0  0  0
  140.4110  156.0230  133.7730 C   0  0  0  0  0  0  0  0  0  0  0  0
  140.0170  156.3670  134.9200 O   0  0  0  0  0  0  0  0  0  0  0  0
  141.6790  155.3720  133.6220 N   0  0  0  0  0  0  0  0  0  0  0  0
  142.9150  155.9390  133.6300 C   0  0  0  0  0  0  0  0  0  0  0  0
  143.2070  157.3590  133.9170 C   0  0  0  0  0  0  0  0  0  0  0  0
  142.2570  158.1500  134.6280 N   0  0  0  0  0  0  0  0  0  0  0  0
  144.2840  157.8850  133.5300 O   0  0  0  0  0  0  0  0  0  0  0  0
  143.8900  154.9810  133.3530 C   0  0  0  0  0  0  0  0  0  0  0  0
  143.2000  153.8030  133.1670 C   0  0  0  0  0  0  0  0  0  0  0  0
  143.6600  152.5360  132.8300 C   0  0  0  0  0  0  0  0  0  0  0  0
  142.7100  151.5160  132.6580 C   0  0  0  0  0  0  0  0  0  0  0  0
  141.3230  151.7670  132.8260 C   0  0  0  0  0  0  0  0  0  0  0  0
  140.3720  150.6080  132.6020 C   0  0  2  0  0  0  0  0  0  0  0  0
  141.0330  149.2520  132.8450 C   0  0  0  0  0  0  0  0  0  0  0  0
  140.5680  149.6270  131.4420 C   0  0  1  0  0  0  0  0  0  0  0  0
  139.2910  148.9110  130.9760 C   0  0  0  0  0  0  0  0  0  0  0  0
  139.5530  148.1490  129.7470 N   0  0  0  0  0  0  0  0  0  0  0  0
  139.0960  146.7610  129.8650 C   0  0  0  0  0  0  0  0  0  0  0  0
  140.8980  153.0740  133.1770 C   0  0  0  0  0  0  0  0  0  0  0  0
  141.8670  154.0670  133.3390 C   0  0  0  0  0  0  0  0  0  0  0  0
  137.0625  160.2317  131.7427 H   0  0  0  0  0  0  0  0  0  0  0  0
  137.4519  161.0411  130.1871 H   0  0  0  0  0  0  0  0  0  0  0  0
  136.6990  159.4103  130.1871 H   0  0  0  0  0  0  0  0  0  0  0  0
  139.2101  159.4642  129.7076 H   0  0  0  0  0  0  0  0  0  0  0  0
  139.4305  159.9953  131.4182 H   0  0  0  0  0  0  0  0  0  0  0  0
  138.5750  155.6313  132.7618 H   0  0  0  0  0  0  0  0  0  0  0  0
  140.0093  155.8049  131.6913 H   0  0  0  0  0  0  0  0  0  0  0  0
  141.2370  158.0870  134.4120 H   0  0  0  0  0  0  0  0  0  0  0  0
  144.9779  155.1334  133.2953 H   0  0  0  0  0  0  0  0  0  0  0  0
  144.7344  152.3380  132.7019 H   0  0  0  0  0  0  0  0  0  0  0  0
  143.0469  150.5042  132.3882 H   0  0  0  0  0  0  0  0  0  0  0  0
  139.4903  151.1745  132.9363 H   0  0  0  0  0  0  0  0  0  0  0  0
  142.1081  149.1976  133.0712 H   0  0  0  0  0  0  0  0  0  0  0  0
  140.8462  148.4079  133.5252 H   0  0  0  0  0  0  0  0  0  0  0  0
  141.0403  149.6786  130.4499 H   0  0  0  0  0  0  0  0  0  0  0  0
  138.9526  148.2227  131.7645 H   0  0  0  0  0  0  0  0  0  0  0  0
  138.5137  149.6622  130.7724 H   0  0  0  0  0  0  0  0  0  0  0  0
  140.5890  148.1240  129.5970 H   0  0  0  0  0  0  0  0  0  0  0  0
  139.0078  146.4932  130.9282 H   0  0  0  0  0  0  0  0  0  0  0  0
  138.1155  146.6551  129.3777 H   0  0  0  0  0  0  0  0  0  0  0  0
  139.8217  146.0933  129.3777 H   0  0  0  0  0  0  0  0  0  0  0  0
  139.8308  153.3002  133.3183 H   0  0  0  0  0  0  0  0  0  0  0  0
  1  2  1  0
  2  3  1  0
  3  4  1  0
  4  5  2  0
  4  6  1  0
  6  7  1  0
  7  8  2  0
  7  9  1  0
  9 10  1  0
 10 11  1  0
 11 12  1  0
 11 13  2  0
 10 14  2  0
 14 15  1  0
 15 16  2  0
 16 17  1  0
 17 18  2  0
 18 19  1  0
 19 20  1  0
 20 21  1  0
 21 22  1  0
 22 23  1  0
 23 24  1  0
 18 25  1  0
 25 26  2  0
 26  9  1  0
 26 15  1  0
 21 19  1  0
  1 27  1  0
  1 28  1  0
  1 29  1  0
  2 30  1  0
  2 31  1  0
  6 32  1  0
  6 33  1  0
 12 34  1  0
 14 35  1  0
 16 36  1  0
 17 37  1  0
 19 38  1  1
 20 39  1  0
 20 40  1  0
 21 41  1  6
 22 42  1  0
 22 43  1  0
 23 44  1  0
 24 45  1  0
 24 46  1  0
 24 47  1  0
 25 48  1  0
M  CHG  1  12  -1
M  END
>  <UniqueID>  (77) 
77

>  <SMILES>  (77) 
CCOC(=O)CC(=O)n1c(C([NH-])=O)cc2ccc([C@@H]3C[C@H]3CNC)cc21

>  <Energy>  (77) 
349.4457935858587

>  <Genealogy>  (77) 
CCOC(=O)CC(=O)n1c(C([NH-])=O)cc2ccc(C3CC3CNC)cc21 (protonated)
CCOC(=O)CC(=O)n1c(C([NH-])=O)cc2ccc([C@@H]3C[C@H]3CNC)cc21 (chirality)
CCOC(=O)CC(=O)n1c(C([NH-])=O)cc2ccc([C@@H]3C[C@H]3CNC)cc21 (3D coordinates assigned)
CCOC(=O)CC(=O)n1c(C([NH-])=O)cc2ccc([C@@H]3C[C@H]3CNC)cc21 (nonaromatic ring conformer: 349.4457935858587 kcal/mol)

>  <smiles>  (77) 
CCOC(=O)CC(=O)n1c(C(N)=O)cc2ccc(C3CC3CNC)cc21

>  <score_type>  (77) 
oracle

>  <origin>  (77) 
adg

>  <m_score__min__energy>  (77) 
-8.1099999999999994

>  <m_primary>  (77) 
energy

$$$$
77:0
     RDKit          3D

 26 27  0  0  0  0  0  0  0  0999 V2000
  141.5370  160.9480  133.6400 N   0  0  0  0  0  0  0  0  0  0  0  0
  142.3380  160.0920  134.4500 C   0  0  0  0  0  0  0  0  0  0  0  0
  141.8410  159.5870  135.4920 O   0  0  0  0  0  0  0  0  0  0  0  0
  143.7170  159.7410  134.0540 C   0  0  0  0  0  0  0  0  0  0  0  0
  144.1290  158.4370  133.7920 C   0  0  0  0  0  0  0  0  0  0  0  0
  145.4340  158.5430  133.3690 C   0  0  0  0  0  0  0  0  0  0  0  0
  146.3330  157.5540  132.9810 C   0  0  0  0  0  0  0  0  0  0  0  0
  147.6290  157.9500  132.6130 C   0  0  0  0  0  0  0  0  0  0  0  0
  148.0060  159.3160  132.6570 C   0  0  0  0  0  0  0  0  0  0  0  0
  149.3920  159.7280  132.2420 C   0  0  0  0  0  0  0  0  0  0  0  0
  149.3880  160.1720  130.8140 C   0  0  0  0  0  0  0  0  0  0  0  0
  149.1630  159.3430  129.8940 O   0  0  0  0  0  0  0  0  0  0  0  0
  149.5840  161.5110  130.5020 O   0  0  0  0  0  0  0  0  0  0  0  0
  147.0640  160.2930  133.0460 C   0  0  0  0  0  0  0  0  0  0  0  0
  145.7730  159.8720  133.3890 C   0  0  0  0  0  0  0  0  0  0  0  0
  144.7290  160.6220  133.8100 N   0  0  0  0  0  0  0  0  0  0  0  0
  144.7370  162.0390  134.0460 C   0  0  0  0  0  0  0  0  0  0  0  0
  145.5460  162.5440  134.8680 O   0  0  0  0  0  0  0  0  0  0  0  0
  143.8320  162.8630  133.3890 O   0  0  0  0  0  0  0  0  0  0  0  0
  141.9120  161.8540  133.2820 H   0  0  0  0  0  0  0  0  0  0  0  0
  143.5364  157.5166  133.9003 H   0  0  0  0  0  0  0  0  0  0  0  0
  146.0374  156.4946  132.9631 H   0  0  0  0  0  0  0  0  0  0  0  0
  148.3583  157.1935  132.2877 H   0  0  0  0  0  0  0  0  0  0  0  0
  149.7320  160.5569  132.8802 H   0  0  0  0  0  0  0  0  0  0  0  0
  150.0715  158.8699  132.3512 H   0  0  0  0  0  0  0  0  0  0  0  0
  147.3371  161.3580  133.0789 H   0  0  0  0  0  0  0  0  0  0  0  0
  1  2  1  0
  2  3  2  0
  2  4  1  0
  4  5  2  0
  5  6  1  0
  6  7  2  0
  7  8  1  0
  8  9  2  0
  9 10  1  0
 10 11  1  0
 11 12  2  0
 11 13  1  0
  9 14  1  0
 14 15  2  0
 15 16  1  0
 16 17  1  0
 17 18  2  0
 17 19  1  0
 16  4  1  0
 15  6  1  0
  1 20  1  0
  5 21  1  0
  7 22  1  0
  8 23  1  0
 10 24  1  0
 10 25  1  0
 14 26  1  0
M  CHG  3   1  -1  13  -1  19  -1
M  END
>  <UniqueID>  (78) 
78

>  <SMILES>  (78) 
[NH-]C(=O)c1cc2ccc(CC(=O)[O-])cc2n1C(=O)[O-]

>  <Energy>  (78) 
64.85566555338957

>  <Genealogy>  (78) 
[NH-]C(=O)c1cc2ccc(CC(=O)[O-])cc2n1C(=O)[O-] (protonated)
[NH-]C(=O)c1cc2ccc(CC(=O)[O-])cc2n1C(=O)[O-] (3D coordinates assigned)
[NH-]C(=O)c1cc2ccc(CC(=O)[O-])cc2n1C(=O)[O-] (optimized conformer: 64.85566555338957 kcal/mol)

>  <smiles>  (78) 
NC(=O)c1cc2ccc(CC(=O)O)cc2n1C(=O)O

>  <score_type>  (78) 
oracle

>  <origin>  (78) 
adg

>  <m_score__min__energy>  (78) 
-6.4500000000000002

>  <m_primary>  (78) 
energy

$$$$
78:0
     RDKit          3D

 57 59  0  0  0  0  0  0  0  0999 V2000
  140.9600  154.2070  133.3370 C   0  0  0  0  0  0  0  0  0  0  0  0
  140.7380  155.5130  133.5150 C   0  0  0  0  0  0  0  0  0  0  0  0
  139.4690  156.1750  133.0450 C   0  0  0  0  0  0  0  0  0  0  0  0
  139.5860  157.7160  133.0100 C   0  0  2  0  0  0  0  0  0  0  0  0
  140.1620  158.2790  134.3380 C   0  0  0  0  0  0  0  0  0  0  0  0
  141.5090  158.9230  134.1400 C   0  0  0  0  0  0  0  0  0  0  0  0
  141.6180  160.3210  133.9350 C   0  0  0  0  0  0  0  0  0  0  0  0
  142.8740  160.9190  133.7310 C   0  0  0  0  0  0  0  0  0  0  0  0
  143.9960  160.0940  133.7240 C   0  0  0  0  0  0  0  0  0  0  0  0
  145.3250  160.4080  133.5580 C   0  0  0  0  0  0  0  0  0  0  0  0
  146.0050  159.1930  133.6350 C   0  0  0  0  0  0  0  0  0  0  0  0
  147.4600  159.0460  133.4110 C   0  0  0  0  0  0  0  0  0  0  0  0
  148.2600  158.2680  134.3030 N   0  0  0  0  0  0  0  0  0  0  0  0
  148.0160  159.6330  132.4450 O   0  0  0  0  0  0  0  0  0  0  0  0
  145.1290  158.1690  133.8430 N   0  0  0  0  0  0  0  0  0  0  0  0
  145.4230  156.7740  134.0150 C   0  0  0  0  0  0  0  0  0  0  0  0
  146.3790  156.4220  134.7590 O   0  0  0  0  0  0  0  0  0  0  0  0
  144.6250  155.8190  133.3650 O   0  0  0  0  0  0  0  0  0  0  0  0
  145.0720  154.5870  132.7830 C   0  0  0  0  0  0  0  0  0  0  0  0
  144.4220  154.4850  131.3940 C   0  0  0  0  0  0  0  0  0  0  0  0
  144.6130  153.3880  133.6350 C   0  0  0  0  0  0  0  0  0  0  0  0
  146.6030  154.5860  132.6210 C   0  0  0  0  0  0  0  0  0  0  0  0
  143.9050  158.7380  133.8970 C   0  0  0  0  0  0  0  0  0  0  0  0
  142.6710  158.1200  134.1300 C   0  0  0  0  0  0  0  0  0  0  0  0
  138.2990  158.3330  132.6210 N   0  0  0  0  0  0  0  0  0  0  0  0
  138.3070  158.9080  131.2710 C   0  0  0  0  0  0  0  0  0  0  0  0
  139.6630  159.4240  130.8210 C   0  0  0  0  0  0  0  0  0  0  0  0
  138.5990  160.4000  131.2890 C   0  0  0  0  0  0  0  0  0  0  0  0
  141.8978  153.7551  133.6925 H   0  0  0  0  0  0  0  0  0  0  0  0
  140.2049  153.5842  132.8351 H   0  0  0  0  0  0  0  0  0  0  0  0
  141.5034  156.1215  134.0188 H   0  0  0  0  0  0  0  0  0  0  0  0
  139.2373  155.8153  132.0316 H   0  0  0  0  0  0  0  0  0  0  0  0
  138.6718  155.9154  133.7571 H   0  0  0  0  0  0  0  0  0  0  0  0
  140.3135  157.9910  132.2321 H   0  0  0  0  0  0  0  0  0  0  0  0
  139.4646  159.0299  134.7376 H   0  0  0  0  0  0  0  0  0  0  0  0
  140.2861  157.4394  135.0377 H   0  0  0  0  0  0  0  0  0  0  0  0
  140.7115  160.9441  133.9355 H   0  0  0  0  0  0  0  0  0  0  0  0
  142.9675  162.0048  133.5816 H   0  0  0  0  0  0  0  0  0  0  0  0
  145.7592  161.4060  133.3984 H   0  0  0  0  0  0  0  0  0  0  0  0
  147.8310  157.7210  135.0820 H   0  0  0  0  0  0  0  0  0  0  0  0
  149.2930  158.2040  134.1600 H   0  0  0  0  0  0  0  0  0  0  0  0
  143.3410  154.3154  131.5066 H   0  0  0  0  0  0  0  0  0  0  0  0
  144.5906  155.4206  130.8406 H   0  0  0  0  0  0  0  0  0  0  0  0
  144.8691  153.6460  130.8406 H   0  0  0  0  0  0  0  0  0  0  0  0
  144.7088  153.6382  134.7019 H   0  0  0  0  0  0  0  0  0  0  0  0
  143.5625  153.1560  133.4057 H   0  0  0  0  0  0  0  0  0  0  0  0
  145.2401  152.5138  133.4057 H   0  0  0  0  0  0  0  0  0  0  0  0
  147.0768  154.5857  133.6138 H   0  0  0  0  0  0  0  0  0  0  0  0
  146.9125  153.6876  132.0668 H   0  0  0  0  0  0  0  0  0  0  0  0
  146.9137  155.4839  132.0668 H   0  0  0  0  0  0  0  0  0  0  0  0
  142.6076  157.0352  134.3012 H   0  0  0  0  0  0  0  0  0  0  0  0
  137.5420  157.6140  132.6660 H   0  0  0  0  0  0  0  0  0  0  0  0
  137.5458  158.2526  130.8227 H   0  0  0  0  0  0  0  0  0  0  0  0
  140.5535  159.2427  131.4408 H   0  0  0  0  0  0  0  0  0  0  0  0
  140.2732  159.3162  129.9121 H   0  0  0  0  0  0  0  0  0  0  0  0
  138.7183  160.9256  132.2479 H   0  0  0  0  0  0  0  0  0  0  0  0
  138.1188  161.2918  130.8600 H   0  0  0  0  0  0  0  0  0  0  0  0
  1  2  2  0
  2  3  1  0
  3  4  1  0
  4  5  1  0
  5  6  1  0
  6  7  2  0
  7  8  1  0
  8  9  2  0
  9 10  1  0
 10 11  2  0
 11 12  1  0
 12 13  1  0
 12 14  2  0
 11 15  1  0
 15 16  1  0
 16 17  2  0
 16 18  1  0
 18 19  1  0
 19 20  1  0
 19 21  1  0
 19 22  1  0
 15 23  1  0
 23 24  2  0
  4 25  1  0
 25 26  1  0
 26 27  1  0
 27 28  1  0
 24  6  1  0
 28 26  1  0
 23  9  1  0
  1 29  1  0
  1 30  1  0
  2 31  1  0
  3 32  1  0
  3 33  1  0
  4 34  1  6
  5 35  1  0
  5 36  1  0
  7 37  1  0
  8 38  1  0
 10 39  1  0
 13 40  1  0
 13 41  1  0
 20 42  1  0
 20 43  1  0
 20 44  1  0
 21 45  1  0
 21 46  1  0
 21 47  1  0
 22 48  1  0
 22 49  1  0
 22 50  1  0
 24 51  1  0
 25 52  1  0
 26 53  1  0
 27 54  1  0
 27 55  1  0
 28 56  1  0
 28 57  1  0
M  END
>  <UniqueID>  (79) 
79

>  <SMILES>  (79) 
C=CC[C@H](Cc1ccc2cc(C(N)=O)n(C(=O)OC(C)(C)C)c2c1)NC1CC1

>  <Energy>  (79) 
350.2181965307772

>  <Genealogy>  (79) 
C=CC[C@H](Cc1ccc2cc(C(N)=O)n(C(=O)OC(C)(C)C)c2c1)NC1CC1 (chirality)
C=CC[C@H](Cc1ccc2cc(C(N)=O)n(C(=O)OC(C)(C)C)c2c1)NC1CC1 (3D coordinates assigned)
C=CC[C@H](Cc1ccc2cc(C(N)=O)n(C(=O)OC(C)(C)C)c2c1)NC1CC1 (nonaromatic ring conformer: 350.2181965307772 kcal/mol)

>  <smiles>  (79) 
C=CCC(Cc1ccc2cc(C(N)=O)n(C(=O)OC(C)(C)C)c2c1)NC1CC1

>  <score_type>  (79) 
oracle

>  <origin>  (79) 
adg

>  <m_score__min__energy>  (79) 
-9.2200000000000006

>  <m_primary>  (79) 
energy

$$$$
79:0
     RDKit          3D

 40 41  0  0  0  0  0  0  0  0999 V2000
  149.5830  161.2300  130.3460 C   0  0  0  0  0  0  0  0  0  0  0  0
  149.1980  159.8100  130.7450 C   0  0  0  0  0  0  0  0  0  0  0  0
  147.9470  159.8050  131.4280 O   0  0  0  0  0  0  0  0  0  0  0  0
  147.8260  159.9730  132.8120 C   0  0  0  0  0  0  0  0  0  0  0  0
  148.7730  159.6680  133.5860 O   0  0  0  0  0  0  0  0  0  0  0  0
  146.5360  160.4710  133.3780 C   0  0  0  0  0  0  0  0  0  0  0  0
  145.5450  159.3430  133.4490 C   0  0  0  0  0  0  0  0  0  0  0  0
  145.9830  158.0010  133.3180 C   0  0  0  0  0  0  0  0  0  0  0  0
  145.0610  156.9420  133.3540 C   0  0  0  0  0  0  0  0  0  0  0  0
  143.7130  157.2550  133.5000 C   0  0  0  0  0  0  0  0  0  0  0  0
  142.6160  156.4270  133.5820 C   0  0  0  0  0  0  0  0  0  0  0  0
  141.5220  157.2770  133.7250 C   0  0  0  0  0  0  0  0  0  0  0  0
  140.1230  156.8020  133.7660 C   0  0  0  0  0  0  0  0  0  0  0  0
  139.1330  157.5720  134.4450 N   0  0  0  0  0  0  0  0  0  0  0  0
  139.7980  155.7050  133.2410 O   0  0  0  0  0  0  0  0  0  0  0  0
  141.9260  158.5790  133.7380 N   0  0  0  0  0  0  0  0  0  0  0  0
  141.1140  159.7470  133.9370 C   0  0  0  0  0  0  0  0  0  0  0  0
  140.8080  160.1100  135.1070 O   0  0  0  0  0  0  0  0  0  0  0  0
  140.6470  160.4660  132.8320 O   0  0  0  0  0  0  0  0  0  0  0  0
  139.3880  160.2060  132.2220 C   0  0  0  0  0  0  0  0  0  0  0  0
  139.5430  159.1040  131.1870 C   0  0  0  0  0  0  0  0  0  0  0  0
  143.2690  158.5480  133.5990 C   0  0  0  0  0  0  0  0  0  0  0  0
  144.1680  159.6220  133.5880 C   0  0  0  0  0  0  0  0  0  0  0  0
  149.7466  161.8335  131.2510 H   0  0  0  0  0  0  0  0  0  0  0  0
  150.5069  161.2055  129.7496 H   0  0  0  0  0  0  0  0  0  0  0  0
  148.7732  161.6756  129.7496 H   0  0  0  0  0  0  0  0  0  0  0  0
  149.1191  159.1887  129.8407 H   0  0  0  0  0  0  0  0  0  0  0  0
  149.9711  159.4071  131.4158 H   0  0  0  0  0  0  0  0  0  0  0  0
  146.7096  160.8693  134.3885 H   0  0  0  0  0  0  0  0  0  0  0  0
  146.1371  161.2662  132.7310 H   0  0  0  0  0  0  0  0  0  0  0  0
  147.0541  157.7873  133.1870 H   0  0  0  0  0  0  0  0  0  0  0  0
  145.3943  155.8971  133.2694 H   0  0  0  0  0  0  0  0  0  0  0  0
  142.6058  155.3277  133.5429 H   0  0  0  0  0  0  0  0  0  0  0  0
  139.3140  158.5670  134.7070 H   0  0  0  0  0  0  0  0  0  0  0  0
  138.6673  159.8886  132.9900 H   0  0  0  0  0  0  0  0  0  0  0  0
  139.0231  161.1204  131.7314 H   0  0  0  0  0  0  0  0  0  0  0  0
  139.6788  158.1387  131.6967 H   0  0  0  0  0  0  0  0  0  0  0  0
  138.6418  159.0627  130.5576 H   0  0  0  0  0  0  0  0  0  0  0  0
  140.4206  159.3129  130.5576 H   0  0  0  0  0  0  0  0  0  0  0  0
  143.8099  160.6575  133.6853 H   0  0  0  0  0  0  0  0  0  0  0  0
  1  2  1  0
  2  3  1  0
  3  4  1  0
  4  5  2  0
  4  6  1  0
  6  7  1  0
  7  8  2  0
  8  9  1  0
  9 10  2  0
 10 11  1  0
 11 12  2  0
 12 13  1  0
 13 14  1  0
 13 15  2  0
 12 16  1  0
 16 17  1  0
 17 18  2  0
 17 19  1  0
 19 20  1  0
 20 21  1  0
 16 22  1  0
 22 23  2  0
 23  7  1  0
 22 10  1  0
  1 24  1  0
  1 25  1  0
  1 26  1  0
  2 27  1  0
  2 28  1  0
  6 29  1  0
  6 30  1  0
  8 31  1  0
  9 32  1  0
 11 33  1  0
 14 34  1  0
 20 35  1  0
 20 36  1  0
 21 37  1  0
 21 38  1  0
 21 39  1  0
 23 40  1  0
M  CHG  1  14  -1
M  END
>  <UniqueID>  (80) 
80

>  <SMILES>  (80) 
CCOC(=O)Cc1ccc2cc(C([NH-])=O)n(C(=O)OCC)c2c1

>  <Energy>  (80) 
67.16341799460317

>  <Genealogy>  (80) 
CCOC(=O)Cc1ccc2cc(C([NH-])=O)n(C(=O)OCC)c2c1 (protonated)
CCOC(=O)Cc1ccc2cc(C([NH-])=O)n(C(=O)OCC)c2c1 (3D coordinates assigned)
CCOC(=O)Cc1ccc2cc(C([NH-])=O)n(C(=O)OCC)c2c1 (optimized conformer: 67.16341799460317 kcal/mol)

>  <smiles>  (80) 
CCOC(=O)Cc1ccc2cc(C(N)=O)n(C(=O)OCC)c2c1

>  <score_type>  (80) 
oracle

>  <origin>  (80) 
adg

>  <m_score__min__energy>  (80) 
-6.0800000000000001

>  <m_primary>  (80) 
energy

$$$$
80:0
     RDKit          3D

 28 30  0  0  0  0  0  0  0  0999 V2000
  141.6500  160.5290  134.1470 N   0  0  0  0  0  0  0  0  0  0  0  0
  142.6610  159.7250  134.7510 C   0  0  0  0  0  0  0  0  0  0  0  0
  142.4370  159.1940  135.8710 O   0  0  0  0  0  0  0  0  0  0  0  0
  143.9810  159.5510  134.1090 C   0  0  0  0  0  0  0  0  0  0  0  0
  144.4820  158.3130  133.7150 C   0  0  0  0  0  0  0  0  0  0  0  0
  145.7530  158.5640  133.2530 C   0  0  0  0  0  0  0  0  0  0  0  0
  146.7010  157.6930  132.7290 C   0  0  0  0  0  0  0  0  0  0  0  0
  147.9240  158.2320  132.2990 C   0  0  0  0  0  0  0  0  0  0  0  0
  148.1840  159.6230  132.3890 C   0  0  0  0  0  0  0  0  0  0  0  0
  149.5300  160.1170  131.8870 C   0  0  0  0  0  0  0  0  0  0  0  0
  149.9200  159.7490  130.4620 C   0  0  0  0  0  0  0  0  0  0  0  0
  149.5210  161.1810  130.7960 C   0  0  0  0  0  0  0  0  0  0  0  0
  147.1860  160.4780  132.9290 C   0  0  0  0  0  0  0  0  0  0  0  0
  145.9840  159.9090  133.3680 C   0  0  0  0  0  0  0  0  0  0  0  0
  144.9030  160.5320  133.8900 N   0  0  0  0  0  0  0  0  0  0  0  0
  144.7470  161.9470  134.0820 C   0  0  0  0  0  0  0  0  0  0  0  0
  145.5430  162.5800  134.8250 O   0  0  0  0  0  0  0  0  0  0  0  0
  143.7020  162.6270  133.4680 O   0  0  0  0  0  0  0  0  0  0  0  0
  141.8860  161.4450  133.7060 H   0  0  0  0  0  0  0  0  0  0  0  0
  143.9700  157.3406  133.7630 H   0  0  0  0  0  0  0  0  0  0  0  0
  146.4992  156.6143  132.6535 H   0  0  0  0  0  0  0  0  0  0  0  0
  148.6936  157.5638  131.8852 H   0  0  0  0  0  0  0  0  0  0  0  0
  150.0050  160.0189  132.8743 H   0  0  0  0  0  0  0  0  0  0  0  0
  150.9670  159.5115  130.2223 H   0  0  0  0  0  0  0  0  0  0  0  0
  149.5825  158.9977  129.7328 H   0  0  0  0  0  0  0  0  0  0  0  0
  150.2798  161.9773  130.7979 H   0  0  0  0  0  0  0  0  0  0  0  0
  148.7763  161.8918  130.4084 H   0  0  0  0  0  0  0  0  0  0  0  0
  147.3537  161.5628  133.0007 H   0  0  0  0  0  0  0  0  0  0  0  0
  1  2  1  0
  2  3  2  0
  2  4  1  0
  4  5  2  0
  5  6  1  0
  6  7  2  0
  7  8  1  0
  8  9  2  0
  9 10  1  0
 10 11  1  0
 11 12  1  0
  9 13  1  0
 13 14  2  0
 14 15  1  0
 15 16  1  0
 16 17  2  0
 16 18  1  0
 15  4  1  0
 14  6  1  0
 12 10  1  0
  1 19  1  0
  5 20  1  0
  7 21  1  0
  8 22  1  0
 10 23  1  0
 11 24  1  0
 11 25  1  0
 12 26  1  0
 12 27  1  0
 13 28  1  0
M  CHG  2   1  -1  18  -1
M  END
>  <UniqueID>  (81) 
81

>  <SMILES>  (81) 
[NH-]C(=O)c1cc2ccc(C3CC3)cc2n1C(=O)[O-]

>  <Energy>  (81) 
337.1348481604584

>  <Genealogy>  (81) 
[NH-]C(=O)c1cc2ccc(C3CC3)cc2n1C(=O)[O-] (protonated)
[NH-]C(=O)c1cc2ccc(C3CC3)cc2n1C(=O)[O-] (3D coordinates assigned)
[NH-]C(=O)c1cc2ccc(C3CC3)cc2n1C(=O)[O-] (nonaromatic ring conformer: 337.1348481604584 kcal/mol)

>  <smiles>  (81) 
NC(=O)c1cc2ccc(C3CC3)cc2n1C(=O)O

>  <score_type>  (81) 
oracle

>  <origin>  (81) 
adg

>  <m_score__min__energy>  (81) 
-6.6600000000000001

>  <m_primary>  (81) 
energy

$$$$
81:0
     RDKit          3D

 35 36  0  0  0  0  0  0  0  0999 V2000
  149.5810  151.3280  131.5300 C   0  0  0  0  0  0  0  0  0  0  0  0
  149.6720  152.3020  132.6980 C   0  0  0  0  0  0  0  0  0  0  0  0
  148.6260  153.2690  132.6290 O   0  0  0  0  0  0  0  0  0  0  0  0
  148.8530  154.6500  132.6060 C   0  0  0  0  0  0  0  0  0  0  0  0
  149.9800  155.1040  132.2680 O   0  0  0  0  0  0  0  0  0  0  0  0
  147.7960  155.5540  132.9650 N   0  0  0  0  0  0  0  0  0  0  0  0
  146.6470  155.2630  133.6370 C   0  0  0  0  0  0  0  0  0  0  0  0
  146.1760  153.9100  133.9970 C   0  0  0  0  0  0  0  0  0  0  0  0
  146.2600  152.8260  133.0710 N   0  0  0  0  0  0  0  0  0  0  0  0
  145.6400  153.7210  135.1220 O   0  0  0  0  0  0  0  0  0  0  0  0
  145.9260  156.4220  133.9090 C   0  0  0  0  0  0  0  0  0  0  0  0
  146.6680  157.4460  133.3630 C   0  0  0  0  0  0  0  0  0  0  0  0
  146.4290  158.8170  133.3570 C   0  0  0  0  0  0  0  0  0  0  0  0
  147.3880  159.6490  132.7570 C   0  0  0  0  0  0  0  0  0  0  0  0
  148.5590  159.1010  132.1770 C   0  0  0  0  0  0  0  0  0  0  0  0
  149.6020  160.0070  131.5820 C   0  0  0  0  0  0  0  0  0  0  0  0
  149.2310  160.3950  130.1560 C   0  0  0  0  0  0  0  0  0  0  0  0
  148.7740  157.7050  132.2150 C   0  0  0  0  0  0  0  0  0  0  0  0
  147.7920  156.8960  132.8000 C   0  0  0  0  0  0  0  0  0  0  0  0
  149.4851  150.3020  131.9148 H   0  0  0  0  0  0  0  0  0  0  0  0
  148.7018  151.5730  130.9159 H   0  0  0  0  0  0  0  0  0  0  0  0
  150.4903  151.4059  130.9159 H   0  0  0  0  0  0  0  0  0  0  0  0
  149.5861  151.7435  133.6418 H   0  0  0  0  0  0  0  0  0  0  0  0
  150.6397  152.8229  132.6503 H   0  0  0  0  0  0  0  0  0  0  0  0
  146.5350  152.9860  132.0770 H   0  0  0  0  0  0  0  0  0  0  0  0
  145.9600  151.8680  133.3580 H   0  0  0  0  0  0  0  0  0  0  0  0
  144.9689  156.5029  134.4450 H   0  0  0  0  0  0  0  0  0  0  0  0
  145.5174  159.2358  133.8081 H   0  0  0  0  0  0  0  0  0  0  0  0
  147.2286  160.7372  132.7370 H   0  0  0  0  0  0  0  0  0  0  0  0
  149.6810  160.9172  132.1946 H   0  0  0  0  0  0  0  0  0  0  0  0
  150.5638  159.4735  131.5636 H   0  0  0  0  0  0  0  0  0  0  0  0
  148.4710  161.1899  130.1782 H   0  0  0  0  0  0  0  0  0  0  0  0
  150.1263  160.7583  129.6302 H   0  0  0  0  0  0  0  0  0  0  0  0
  148.8280  159.5169  129.6302 H   0  0  0  0  0  0  0  0  0  0  0  0
  149.6904  157.2644  131.7953 H   0  0  0  0  0  0  0  0  0  0  0  0
  1  2  1  0
  2  3  1  0
  3  4  1  0
  4  5  2  0
  4  6  1  0
  6  7  1  0
  7  8  1  0
  8  9  1  0
  8 10  2  0
  7 11  2  0
 11 12  1  0
 12 13  2  0
 13 14  1  0
 14 15  2  0
 15 16  1  0
 16 17  1  0
 15 18  1  0
 18 19  2  0
 19  6  1  0
 19 12  1  0
  1 20  1  0
  1 21  1  0
  1 22  1  0
  2 23  1  0
  2 24  1  0
  9 25  1  0
  9 26  1  0
 11 27  1  0
 13 28  1  0
 14 29  1  0
 16 30  1  0
 16 31  1  0
 17 32  1  0
 17 33  1  0
 17 34  1  0
 18 35  1  0
M  END
>  <UniqueID>  (82) 
82

>  <SMILES>  (82) 
CCOC(=O)n1c(C(N)=O)cc2ccc(CC)cc21

>  <Energy>  (82) 
66.92044513408044

>  <Genealogy>  (82) 
CCOC(=O)n1c(C(N)=O)cc2ccc(CC)cc21 (3D coordinates assigned)
CCOC(=O)n1c(C(N)=O)cc2ccc(CC)cc21 (optimized conformer: 66.92044513408044 kcal/mol)

>  <smiles>  (82) 
CCOC(=O)n1c(C(N)=O)cc2ccc(CC)cc21

>  <score_type>  (82) 
oracle

>  <origin>  (82) 
adg

>  <m_score__min__energy>  (82) 
-6.7199999999999998

>  <m_primary>  (82) 
energy

$$$$
82:0
     RDKit          3D

 51 54  0  0  0  0  0  0  0  0999 V2000
  136.4890  160.0940  130.3580 C   0  0  0  0  0  0  0  0  0  0  0  0
  137.5110  159.5960  131.2670 N   0  0  0  0  0  0  0  0  0  0  0  0
  138.8640  160.0660  131.2850 C   0  0  0  0  0  0  0  0  0  0  0  0
  139.0710  161.3050  131.3890 O   0  0  0  0  0  0  0  0  0  0  0  0
  140.0210  159.1020  131.2040 C   0  0  0  0  0  0  0  0  0  0  0  0
  140.1880  158.2940  132.4650 C   0  0  0  0  0  0  0  0  0  0  0  0
  139.1440  158.2370  133.4210 C   0  0  0  0  0  0  0  0  0  0  0  0
  139.3110  157.5280  134.6220 C   0  0  0  0  0  0  0  0  0  0  0  0
  140.5300  156.8910  134.8410 C   0  0  0  0  0  0  0  0  0  0  0  0
  140.9770  156.1870  135.9350 C   0  0  0  0  0  0  0  0  0  0  0  0
  142.2820  155.8160  135.6260 C   0  0  0  0  0  0  0  0  0  0  0  0
  143.1320  155.0030  136.5190 C   0  0  0  0  0  0  0  0  0  0  0  0
  144.5520  154.9700  136.3630 N   0  0  0  0  0  0  0  0  0  0  0  0
  142.5920  154.2840  137.4010 O   0  0  0  0  0  0  0  0  0  0  0  0
  142.6350  156.2780  134.3930 N   0  0  0  0  0  0  0  0  0  0  0  0
  143.9370  156.2460  133.7890 C   0  0  0  0  0  0  0  0  0  0  0  0
  144.8060  157.0960  134.1240 O   0  0  0  0  0  0  0  0  0  0  0  0
  144.2350  155.2680  132.8330 O   0  0  0  0  0  0  0  0  0  0  0  0
  145.5630  154.8720  132.5010 C   0  0  0  0  0  0  0  0  0  0  0  0
  146.3820  154.7640  133.7530 C   0  0  0  0  0  0  0  0  0  0  0  0
  146.1960  153.8310  134.6580 O   0  0  0  0  0  0  0  0  0  0  0  0
  147.0080  154.1130  135.6470 C   0  0  0  0  0  0  0  0  0  0  0  0
  147.0960  153.4230  136.6970 O   0  0  0  0  0  0  0  0  0  0  0  0
  147.7120  155.1980  135.4290 O   0  0  0  0  0  0  0  0  0  0  0  0
  147.3530  155.6320  134.2420 C   0  0  0  0  0  0  0  0  0  0  0  0
  147.9070  156.8470  133.6200 C   0  0  0  0  0  0  0  0  0  0  0  0
  148.8820  156.7680  132.6120 C   0  0  0  0  0  0  0  0  0  0  0  0
  149.4020  157.9340  132.0440 C   0  0  0  0  0  0  0  0  0  0  0  0
  148.9680  159.1850  132.4900 C   0  0  0  0  0  0  0  0  0  0  0  0
  148.0210  159.2720  133.5120 C   0  0  0  0  0  0  0  0  0  0  0  0
  147.4970  158.1080  134.0820 C   0  0  0  0  0  0  0  0  0  0  0  0
  141.5480  156.9320  133.9230 C   0  0  0  0  0  0  0  0  0  0  0  0
  141.4140  157.6440  132.7250 C   0  0  0  0  0  0  0  0  0  0  0  0
  135.6494  160.5031  130.9390 H   0  0  0  0  0  0  0  0  0  0  0  0
  136.9161  160.8850  129.7240 H   0  0  0  0  0  0  0  0  0  0  0  0
  136.1292  159.2702  129.7240 H   0  0  0  0  0  0  0  0  0  0  0  0
  139.8482  158.4132  130.3639 H   0  0  0  0  0  0  0  0  0  0  0  0
  140.9383  159.6920  131.0610 H   0  0  0  0  0  0  0  0  0  0  0  0
  138.1934  158.7530  133.2208 H   0  0  0  0  0  0  0  0  0  0  0  0
  138.5034  157.4774  135.3671 H   0  0  0  0  0  0  0  0  0  0  0  0
  140.4211  155.9646  136.8578 H   0  0  0  0  0  0  0  0  0  0  0  0
  145.0150  155.4180  135.5420 H   0  0  0  0  0  0  0  0  0  0  0  0
  145.1410  154.4250  137.0310 H   0  0  0  0  0  0  0  0  0  0  0  0
  145.5384  153.8961  131.9940 H   0  0  0  0  0  0  0  0  0  0  0  0
  146.0124  155.6218  131.8332 H   0  0  0  0  0  0  0  0  0  0  0  0
  149.2373  155.7852  132.2687 H   0  0  0  0  0  0  0  0  0  0  0  0
  150.1543  157.8669  131.2443 H   0  0  0  0  0  0  0  0  0  0  0  0
  149.3726  160.1015  132.0358 H   0  0  0  0  0  0  0  0  0  0  0  0
  147.6868  160.2573  133.8691 H   0  0  0  0  0  0  0  0  0  0  0  0
  146.7604  158.1803  134.8958 H   0  0  0  0  0  0  0  0  0  0  0  0
  142.2433  157.6957  132.0042 H   0  0  0  0  0  0  0  0  0  0  0  0
  1  2  1  0
  2  3  1  0
  3  4  2  0
  3  5  1  0
  5  6  1  0
  6  7  2  0
  7  8  1  0
  8  9  2  0
  9 10  1  0
 10 11  2  0
 11 12  1  0
 12 13  1  0
 12 14  2  0
 11 15  1  0
 15 16  1  0
 16 17  2  0
 16 18  1  0
 18 19  1  0
 19 20  1  0
 20 21  1  0
 21 22  1  0
 22 23  2  0
 22 24  1  0
 24 25  1  0
 25 26  1  0
 26 27  2  0
 27 28  1  0
 28 29  2  0
 29 30  1  0
 30 31  2  0
 15 32  1  0
 32 33  2  0
 33  6  1  0
 32  9  1  0
 25 20  2  0
 31 26  1  0
  1 34  1  0
  1 35  1  0
  1 36  1  0
  5 37  1  0
  5 38  1  0
  7 39  1  0
  8 40  1  0
 10 41  1  0
 13 42  1  0
 13 43  1  0
 19 44  1  0
 19 45  1  0
 27 46  1  0
 28 47  1  0
 29 48  1  0
 30 49  1  0
 31 50  1  0
 33 51  1  0
M  CHG  1   2  -1
M  END
>  <UniqueID>  (83) 
83

>  <SMILES>  (83) 
C[N-]C(=O)Cc1ccc2cc(C(N)=O)n(C(=O)OCc3oc(=O)oc3-c3ccccc3)c2c1

>  <Energy>  (83) 
125.686546099065

>  <Genealogy>  (83) 
C[N-]C(=O)Cc1ccc2cc(C(N)=O)n(C(=O)OCc3oc(=O)oc3-c3ccccc3)c2c1 (protonated)
C[N-]C(=O)Cc1ccc2cc(C(N)=O)n(C(=O)OCc3oc(=O)oc3-c3ccccc3)c2c1 (3D coordinates assigned)
C[N-]C(=O)Cc1ccc2cc(C(N)=O)n(C(=O)OCc3oc(=O)oc3-c3ccccc3)c2c1 (optimized conformer: 125.686546099065 kcal/mol)

>  <smiles>  (83) 
CNC(=O)Cc1ccc2cc(C(N)=O)n(C(=O)OCc3oc(=O)oc3-c3ccccc3)c2c1

>  <score_type>  (83) 
oracle

>  <origin>  (83) 
adg

>  <m_score__min__energy>  (83) 
-8.9000000000000004

>  <m_primary>  (83) 
energy

$$$$
83:0
     RDKit          3D

 37 39  0  0  0  0  0  0  0  0999 V2000
  145.9220  160.8470  133.2140 N   0  0  0  0  0  0  0  0  0  0  0  0
  145.2720  159.6170  133.5380 C   0  0  0  0  0  0  0  0  0  0  0  0
  144.0660  159.6360  133.9000 O   0  0  0  0  0  0  0  0  0  0  0  0
  145.9690  158.3210  133.4080 C   0  0  0  0  0  0  0  0  0  0  0  0
  145.3270  157.0900  133.5160 C   0  0  0  0  0  0  0  0  0  0  0  0
  146.3030  156.1490  133.2710 C   0  0  0  0  0  0  0  0  0  0  0  0
  146.2240  154.7590  133.2510 C   0  0  0  0  0  0  0  0  0  0  0  0
  147.4010  154.0370  132.9910 C   0  0  0  0  0  0  0  0  0  0  0  0
  148.6290  154.7110  132.7760 C   0  0  0  0  0  0  0  0  0  0  0  0
  149.8760  153.9290  132.4690 C   0  0  0  0  0  0  0  0  0  0  0  0
  149.5940  152.4530  132.5490 C   0  0  0  0  0  0  0  0  0  0  0  0
  149.4530  151.6940  131.3780 C   0  0  0  0  0  0  0  0  0  0  0  0
  149.2290  150.3180  131.4720 C   0  0  0  0  0  0  0  0  0  0  0  0
  149.1610  149.7210  132.6910 N   0  0  0  0  0  0  0  0  0  0  0  0
  149.3040  150.4300  133.8420 C   0  0  0  0  0  0  0  0  0  0  0  0
  149.2350  149.7960  135.0380 F   0  0  0  0  0  0  0  0  0  0  0  0
  149.5290  151.8080  133.7930 C   0  0  0  0  0  0  0  0  0  0  0  0
  148.6680  156.1230  132.7960 C   0  0  0  0  0  0  0  0  0  0  0  0
  147.4780  156.8150  133.0380 C   0  0  0  0  0  0  0  0  0  0  0  0
  147.2910  158.1490  133.1240 N   0  0  0  0  0  0  0  0  0  0  0  0
  148.3170  159.1500  133.0380 C   0  0  0  0  0  0  0  0  0  0  0  0
  148.4280  160.0110  133.9530 O   0  0  0  0  0  0  0  0  0  0  0  0
  149.2150  159.2320  131.8430 C   0  0  0  0  0  0  0  0  0  0  0  0
  148.6000  160.4690  130.7200 Cl  0  0  0  0  0  0  0  0  0  0  0  0
  146.8500  160.8610  132.7370 H   0  0  0  0  0  0  0  0  0  0  0  0
  145.4280  161.7550  133.3640 H   0  0  0  0  0  0  0  0  0  0  0  0
  144.2672  156.9079  133.7475 H   0  0  0  0  0  0  0  0  0  0  0  0
  145.2701  154.2424  133.4331 H   0  0  0  0  0  0  0  0  0  0  0  0
  147.3690  152.9381  132.9540 H   0  0  0  0  0  0  0  0  0  0  0  0
  150.2217  154.1789  131.4551 H   0  0  0  0  0  0  0  0  0  0  0  0
  150.6528  154.1873  133.2037 H   0  0  0  0  0  0  0  0  0  0  0  0
  149.5183  152.1785  130.3926 H   0  0  0  0  0  0  0  0  0  0  0  0
  149.1076  149.7174  130.5585 H   0  0  0  0  0  0  0  0  0  0  0  0
  149.6542  152.3826  134.7226 H   0  0  0  0  0  0  0  0  0  0  0  0
  149.6105  156.6639  132.6255 H   0  0  0  0  0  0  0  0  0  0  0  0
  150.2309  159.5031  132.1661 H   0  0  0  0  0  0  0  0  0  0  0  0
  149.2389  158.2564  131.3355 H   0  0  0  0  0  0  0  0  0  0  0  0
  1  2  1  0
  2  3  2  0
  2  4  1  0
  4  5  2  0
  5  6  1  0
  6  7  2  0
  7  8  1  0
  8  9  2  0
  9 10  1  0
 10 11  1  0
 11 12  2  0
 12 13  1  0
 13 14  2  0
 14 15  1  0
 15 16  1  0
 15 17  2  0
  9 18  1  0
 18 19  2  0
 19 20  1  0
 20 21  1  0
 21 22  2  0
 21 23  1  0
 23 24  1  0
 20  4  1  0
 19  6  1  0
 17 11  1  0
  1 25  1  0
  1 26  1  0
  5 27  1  0
  7 28  1  0
  8 29  1  0
 10 30  1  0
 10 31  1  0
 12 32  1  0
 13 33  1  0
 17 34  1  0
 18 35  1  0
 23 36  1  0
 23 37  1  0
M  END
>  <UniqueID>  (84) 
84

>  <SMILES>  (84) 
NC(=O)c1cc2ccc(Cc3ccnc(F)c3)cc2n1C(=O)CCl

>  <Energy>  (84) 
77.85232067328712

>  <Genealogy>  (84) 
NC(=O)c1cc2ccc(Cc3ccnc(F)c3)cc2n1C(=O)CCl (3D coordinates assigned)
NC(=O)c1cc2ccc(Cc3ccnc(F)c3)cc2n1C(=O)CCl (optimized conformer: 77.85232067328712 kcal/mol)

>  <smiles>  (84) 
NC(=O)c1cc2ccc(Cc3ccnc(F)c3)cc2n1C(=O)CCl

>  <score_type>  (84) 
oracle

>  <origin>  (84) 
adg

>  <m_score__min__energy>  (84) 
-7.9299999999999997

>  <m_primary>  (84) 
energy

$$$$
84:0
     RDKit          3D

 30 32  0  0  0  0  0  0  0  0999 V2000
  148.3820  151.3330  132.5630 C   0  0  0  0  0  0  0  0  0  0  0  0
  148.7750  152.7700  132.5360 C   0  0  0  0  0  0  0  0  0  0  0  0
  147.9260  153.7880  132.7710 N   0  0  0  0  0  0  0  0  0  0  0  0
  148.7360  154.8560  132.6040 C   0  0  0  0  0  0  0  0  0  0  0  0
  148.2920  156.2570  132.7520 C   0  0  0  0  0  0  0  0  0  0  0  0
  149.2170  157.3210  132.5930 C   0  0  0  0  0  0  0  0  0  0  0  0
  148.8090  158.6560  132.7450 C   0  0  0  0  0  0  0  0  0  0  0  0
  147.4730  158.9010  133.0480 C   0  0  0  0  0  0  0  0  0  0  0  0
  146.8270  160.0910  133.2830 C   0  0  0  0  0  0  0  0  0  0  0  0
  145.5060  159.7430  133.5530 C   0  0  0  0  0  0  0  0  0  0  0  0
  144.4410  160.7350  133.8050 C   0  0  0  0  0  0  0  0  0  0  0  0
  143.1020  160.5130  133.3600 N   0  0  0  0  0  0  0  0  0  0  0  0
  144.7310  161.8210  134.3750 O   0  0  0  0  0  0  0  0  0  0  0  0
  145.3420  158.3900  133.5010 N   0  0  0  0  0  0  0  0  0  0  0  0
  144.1610  157.6390  133.8310 C   0  0  0  0  0  0  0  0  0  0  0  0
  144.1700  156.8340  134.7990 O   0  0  0  0  0  0  0  0  0  0  0  0
  142.9980  157.7920  133.0870 O   0  0  0  0  0  0  0  0  0  0  0  0
  146.5590  157.8880  133.1880 C   0  0  0  0  0  0  0  0  0  0  0  0
  146.9420  156.5470  133.0630 C   0  0  0  0  0  0  0  0  0  0  0  0
  149.9960  154.4960  132.2810 N   0  0  0  0  0  0  0  0  0  0  0  0
  149.9780  153.1990  132.2460 O   0  0  0  0  0  0  0  0  0  0  0  0
  148.2903  150.9975  133.6066 H   0  0  0  0  0  0  0  0  0  0  0  0
  147.4165  151.2072  132.0512 H   0  0  0  0  0  0  0  0  0  0  0  0
  149.1491  150.7334  132.0512 H   0  0  0  0  0  0  0  0  0  0  0  0
  150.2658  157.0976  132.3479 H   0  0  0  0  0  0  0  0  0  0  0  0
  149.5242  159.4836  132.6280 H   0  0  0  0  0  0  0  0  0  0  0  0
  147.2605  161.1018  133.2623 H   0  0  0  0  0  0  0  0  0  0  0  0
  142.3550  161.2070  133.5810 H   0  0  0  0  0  0  0  0  0  0  0  0
  142.8670  159.7070  132.7390 H   0  0  0  0  0  0  0  0  0  0  0  0
  146.2105  155.7375  133.2033 H   0  0  0  0  0  0  0  0  0  0  0  0
  1  2  1  0
  2  3  2  0
  3  4  1  0
  4  5  1  0
  5  6  2  0
  6  7  1  0
  7  8  2  0
  8  9  1  0
  9 10  2  0
 10 11  1  0
 11 12  1  0
 11 13  2  0
 10 14  1  0
 14 15  1  0
 15 16  2  0
 15 17  1  0
 14 18  1  0
 18 19  2  0
  4 20  2  0
 20 21  1  0
 21  2  1  0
 19  5  1  0
 18  8  1  0
  1 22  1  0
  1 23  1  0
  1 24  1  0
  6 25  1  0
  7 26  1  0
  9 27  1  0
 12 28  1  0
 12 29  1  0
 19 30  1  0
M  CHG  1  17  -1
M  END
>  <UniqueID>  (85) 
85

>  <SMILES>  (85) 
Cc1nc(-c2ccc3cc(C(N)=O)n(C(=O)[O-])c3c2)no1

>  <Energy>  (85) 
104.66945555759062

>  <Genealogy>  (85) 
Cc1nc(-c2ccc3cc(C(N)=O)n(C(=O)[O-])c3c2)no1 (protonated)
Cc1nc(-c2ccc3cc(C(N)=O)n(C(=O)[O-])c3c2)no1 (3D coordinates assigned)
Cc1nc(-c2ccc3cc(C(N)=O)n(C(=O)[O-])c3c2)no1 (optimized conformer: 104.66945555759062 kcal/mol)

>  <smiles>  (85) 
Cc1nc(-c2ccc3cc(C(N)=O)n(C(=O)O)c3c2)no1

>  <score_type>  (85) 
oracle

>  <origin>  (85) 
adg

>  <m_score__min__energy>  (85) 
-6.75

>  <m_primary>  (85) 
energy

$$$$
85:0
     RDKit          3D

 80 84  0  0  0  0  0  0  0  0999 V2000
  140.4550  151.8960  138.3210 N   0  0  0  0  0  0  0  0  0  0  0  0
  140.8930  153.0230  139.0680 C   0  0  0  0  0  0  0  0  0  0  0  0
  141.1190  152.9080  140.3000 O   0  0  0  0  0  0  0  0  0  0  0  0
  141.0680  154.3170  138.3950 C   0  0  0  0  0  0  0  0  0  0  0  0
  140.2240  155.4100  138.5970 C   0  0  0  0  0  0  0  0  0  0  0  0
  140.6600  156.3690  137.7170 C   0  0  0  0  0  0  0  0  0  0  0  0
  140.1760  157.6580  137.4860 C   0  0  0  0  0  0  0  0  0  0  0  0
  140.8130  158.4350  136.5020 C   0  0  0  0  0  0  0  0  0  0  0  0
  141.9050  157.9070  135.7620 C   0  0  0  0  0  0  0  0  0  0  0  0
  142.6090  158.7520  134.7360 C   0  0  0  0  0  0  0  0  0  0  0  0
  141.6630  159.7880  134.0850 C   0  0  0  0  0  0  0  0  0  0  0  0
  141.3100  159.4900  132.6130 C   0  0  0  0  0  0  0  0  0  0  0  0
  139.9320  158.9060  132.4110 C   0  0  0  0  0  0  0  0  0  0  0  0
  139.4740  158.7790  131.2840 O   0  0  0  0  0  0  0  0  0  0  0  0
  139.1350  158.4210  133.5910 C   0  0  0  0  0  0  0  0  0  0  0  0
  139.0970  156.8830  133.7150 C   0  0  0  0  0  0  0  0  0  0  0  0
  140.4220  156.1790  133.3190 C   0  0  0  0  0  0  0  0  0  0  0  0
  140.2740  154.6750  132.9800 C   0  0  0  0  0  0  0  0  0  0  0  0
  141.3330  153.7460  133.6190 C   0  0  0  0  0  0  0  0  0  0  0  0
  142.6830  153.7250  132.8770 C   0  0  0  0  0  0  0  0  0  0  0  0
  143.8090  153.6300  133.8040 N   0  0  0  0  0  0  0  0  0  0  0  0
  145.1850  153.5500  133.3800 C   0  0  0  0  0  0  0  0  0  0  0  0
  145.7750  152.3260  132.9570 C   0  0  0  0  0  0  0  0  0  0  0  0
  147.1290  152.2750  132.5660 C   0  0  0  0  0  0  0  0  0  0  0  0
  147.9300  153.4250  132.5990 C   0  0  0  0  0  0  0  0  0  0  0  0
  147.3450  154.6200  133.0180 C   0  0  0  0  0  0  0  0  0  0  0  0
  146.0160  154.6850  133.3970 C   0  0  0  0  0  0  0  0  0  0  0  0
  145.7370  156.0910  133.7190 C   0  0  0  0  0  0  0  0  0  0  0  0
  144.6230  156.5590  134.0790 O   0  0  0  0  0  0  0  0  0  0  0  0
  146.9130  156.8880  133.5320 N   0  0  0  0  0  0  0  0  0  0  0  0
  147.0580  158.3100  133.8730 C   0  0  1  0  0  0  0  0  0  0  0  0
  148.5500  158.7160  133.9180 C   0  0  0  0  0  0  0  0  0  0  0  0
  149.1190  159.1210  132.5550 C   0  0  0  0  0  0  0  0  0  0  0  0
  148.2630  160.1900  131.9410 C   0  0  0  0  0  0  0  0  0  0  0  0
  148.7900  161.1480  131.3240 O   0  0  0  0  0  0  0  0  0  0  0  0
  146.8430  160.1110  132.0530 N   0  0  0  0  0  0  0  0  0  0  0  0
  146.2300  159.1710  132.9490 C   0  0  0  0  0  0  0  0  0  0  0  0
  144.9730  159.0640  132.9790 O   0  0  0  0  0  0  0  0  0  0  0  0
  147.9160  155.9580  133.1000 C   0  0  0  0  0  0  0  0  0  0  0  0
  149.1050  156.2730  132.8210 O   0  0  0  0  0  0  0  0  0  0  0  0
  142.3420  156.5880  136.0050 C   0  0  0  0  0  0  0  0  0  0  0  0
  141.7050  155.8470  137.0050 C   0  0  0  0  0  0  0  0  0  0  0  0
  141.9690  154.5890  137.4100 N   0  0  0  0  0  0  0  0  0  0  0  0
  142.8690  153.6650  136.7770 C   0  0  0  0  0  0  0  0  0  0  0  0
  144.2800  153.8590  136.8120 N   0  0  0  0  0  0  0  0  0  0  0  0
  142.4130  152.6400  136.2150 O   0  0  0  0  0  0  0  0  0  0  0  0
  140.8350  151.7070  137.3680 H   0  0  0  0  0  0  0  0  0  0  0  0
  139.3887  155.4865  139.3086 H   0  0  0  0  0  0  0  0  0  0  0  0
  139.3226  158.0537  138.0562 H   0  0  0  0  0  0  0  0  0  0  0  0
  140.4633  159.4589  136.3038 H   0  0  0  0  0  0  0  0  0  0  0  0
  143.4372  159.2862  135.2246 H   0  0  0  0  0  0  0  0  0  0  0  0
  142.9765  158.0844  133.9427 H   0  0  0  0  0  0  0  0  0  0  0  0
  140.7286  159.8131  134.6649 H   0  0  0  0  0  0  0  0  0  0  0  0
  142.1971  160.7496  134.0919 H   0  0  0  0  0  0  0  0  0  0  0  0
  141.3720  160.4309  132.0465 H   0  0  0  0  0  0  0  0  0  0  0  0
  142.0276  158.7330  132.2637 H   0  0  0  0  0  0  0  0  0  0  0  0
  139.5824  158.8337  134.5073 H   0  0  0  0  0  0  0  0  0  0  0  0
  138.0990  158.7605  133.4446 H   0  0  0  0  0  0  0  0  0  0  0  0
  138.8695  156.6269  134.7603 H   0  0  0  0  0  0  0  0  0  0  0  0
  138.3288  156.5285  133.0119 H   0  0  0  0  0  0  0  0  0  0  0  0
  140.8328  156.6913  132.4365 H   0  0  0  0  0  0  0  0  0  0  0  0
  141.0821  156.2382  134.1969 H   0  0  0  0  0  0  0  0  0  0  0  0
  139.2819  154.3455  133.3224 H   0  0  0  0  0  0  0  0  0  0  0  0
  140.4144  154.5932  131.8921 H   0  0  0  0  0  0  0  0  0  0  0  0
  141.5113  154.0839  134.6505 H   0  0  0  0  0  0  0  0  0  0  0  0
  140.9287  152.7242  133.5698 H   0  0  0  0  0  0  0  0  0  0  0  0
  142.7043  152.8579  132.2005 H   0  0  0  0  0  0  0  0  0  0  0  0
  142.7800  154.6660  132.3157 H   0  0  0  0  0  0  0  0  0  0  0  0
  143.5920  153.6350  134.8260 H   0  0  0  0  0  0  0  0  0  0  0  0
  145.1678  151.4090  132.9348 H   0  0  0  0  0  0  0  0  0  0  0  0
  147.5620  151.3209  132.2309 H   0  0  0  0  0  0  0  0  0  0  0  0
  148.9888  153.3862  132.3032 H   0  0  0  0  0  0  0  0  0  0  0  0
  146.6632  158.4779  134.8859 H   0  0  0  0  0  0  0  0  0  0  0  0
  148.6577  159.5674  134.6062 H   0  0  0  0  0  0  0  0  0  0  0  0
  149.1137  157.8325  134.2521 H   0  0  0  0  0  0  0  0  0  0  0  0
  150.1420  159.5034  132.6859 H   0  0  0  0  0  0  0  0  0  0  0  0
  149.1321  158.2428  131.8927 H   0  0  0  0  0  0  0  0  0  0  0  0
  146.2340  160.7730  131.5210 H   0  0  0  0  0  0  0  0  0  0  0  0
  143.1657  156.1520  135.4207 H   0  0  0  0  0  0  0  0  0  0  0  0
  144.6870  154.6610  137.3370 H   0  0  0  0  0  0  0  0  0  0  0  0
  1  2  1  0
  2  3  2  0
  2  4  1  0
  4  5  2  0
  5  6  1  0
  6  7  2  0
  7  8  1  0
  8  9  2  0
  9 10  1  0
 10 11  1  0
 11 12  1  0
 12 13  1  0
 13 14  2  0
 13 15  1  0
 15 16  1  0
 16 17  1  0
 17 18  1  0
 18 19  1  0
 19 20  1  0
 20 21  1  0
 21 22  1  0
 22 23  2  0
 23 24  1  0
 24 25  2  0
 25 26  1  0
 26 27  2  0
 27 28  1  0
 28 29  2  0
 28 30  1  0
 30 31  1  0
 31 32  1  0
 32 33  1  0
 33 34  1  0
 34 35  2  0
 34 36  1  0
 36 37  1  0
 37 38  2  0
 30 39  1  0
 39 40  2  0
  9 41  1  0
 41 42  2  0
 42 43  1  0
 43 44  1  0
 44 45  1  0
 44 46  2  0
 43  4  1  0
 42  6  1  0
 27 22  1  0
 37 31  1  0
 39 26  1  0
  1 47  1  0
  5 48  1  0
  7 49  1  0
  8 50  1  0
 10 51  1  0
 10 52  1  0
 11 53  1  0
 11 54  1  0
 12 55  1  0
 12 56  1  0
 15 57  1  0
 15 58  1  0
 16 59  1  0
 16 60  1  0
 17 61  1  0
 17 62  1  0
 18 63  1  0
 18 64  1  0
 19 65  1  0
 19 66  1  0
 20 67  1  0
 20 68  1  0
 21 69  1  0
 23 70  1  0
 24 71  1  0
 25 72  1  0
 31 73  1  1
 32 74  1  0
 32 75  1  0
 33 76  1  0
 33 77  1  0
 36 78  1  0
 41 79  1  0
 45 80  1  0
M  CHG  2   1  -1  45  -1
M  END
>  <UniqueID>  (86) 
86

>  <SMILES>  (86) 
[NH-]C(=O)c1cc2ccc(CCCC(=O)CCCCCCNc3cccc4c3C(=O)N([C@H]3CCC(=O)NC3=O)C4=O)cc2n1C([NH-])=O

>  <Energy>  (86) 
153.54909137904497

>  <Genealogy>  (86) 
[NH-]C(=O)c1cc2ccc(CCCC(=O)CCCCCCNc3cccc4c3C(=O)N(C3CCC(=O)NC3=O)C4=O)cc2n1C([NH-])=O (protonated)
[NH-]C(=O)c1cc2ccc(CCCC(=O)CCCCCCNc3cccc4c3C(=O)N([C@H]3CCC(=O)NC3=O)C4=O)cc2n1C([NH-])=O (chirality)
[NH-]C(=O)c1cc2ccc(CCCC(=O)CCCCCCNc3cccc4c3C(=O)N([C@H]3CCC(=O)NC3=O)C4=O)cc2n1C([NH-])=O (3D coordinates assigned)
[NH-]C(=O)c1cc2ccc(CCCC(=O)CCCCCCNc3cccc4c3C(=O)N([C@H]3CCC(=O)NC3=O)C4=O)cc2n1C([NH-])=O (nonaromatic ring conformer: 153.54909137904497 kcal/mol)

>  <smiles>  (86) 
NC(=O)c1cc2ccc(CCCC(=O)CCCCCCNc3cccc4c3C(=O)N(C3CCC(=O)NC3=O)C4=O)cc2n1C(N)=O

>  <score_type>  (86) 
oracle

>  <origin>  (86) 
adg

>  <m_score__min__energy>  (86) 
-11.92

>  <m_primary>  (86) 
energy

$$$$
86:0
     RDKit          3D

 35 36  0  0  0  0  0  0  0  0999 V2000
  149.5830  159.6480  131.5520 C   0  0  0  0  0  0  0  0  0  0  0  0
  148.1240  159.6510  131.9020 C   0  0  0  0  0  0  0  0  0  0  0  0
  147.3290  160.1340  131.1080 O   0  0  0  0  0  0  0  0  0  0  0  0
  147.6310  159.0850  133.2170 C   0  0  2  0  0  0  0  0  0  0  0  0
  147.7670  157.5570  133.2520 C   0  0  0  0  0  0  0  0  0  0  0  0
  146.2070  159.5300  133.4910 C   0  0  0  0  0  0  0  0  0  0  0  0
  145.9000  160.8980  133.7330 C   0  0  0  0  0  0  0  0  0  0  0  0
  144.5800  161.3030  133.9920 C   0  0  0  0  0  0  0  0  0  0  0  0
  143.5900  160.3270  134.0140 C   0  0  0  0  0  0  0  0  0  0  0  0
  142.2340  160.4430  134.2280 C   0  0  0  0  0  0  0  0  0  0  0  0
  141.7350  159.1450  134.1370 C   0  0  0  0  0  0  0  0  0  0  0  0
  140.3230  158.7920  134.3900 C   0  0  0  0  0  0  0  0  0  0  0  0
  139.8650  158.6090  135.7290 N   0  0  0  0  0  0  0  0  0  0  0  0
  139.5220  158.6170  133.4360 O   0  0  0  0  0  0  0  0  0  0  0  0
  142.7400  158.2660  133.8680 N   0  0  0  0  0  0  0  0  0  0  0  0
  142.6460  156.8500  133.6440 C   0  0  0  0  0  0  0  0  0  0  0  0
  141.8650  155.9770  134.5750 C   0  0  0  0  0  0  0  0  0  0  0  0
  143.1740  156.3410  132.6200 O   0  0  0  0  0  0  0  0  0  0  0  0
  143.8680  159.0040  133.8020 C   0  0  0  0  0  0  0  0  0  0  0  0
  145.1690  158.5690  133.5290 C   0  0  0  0  0  0  0  0  0  0  0  0
  150.1815  159.6468  132.4750 H   0  0  0  0  0  0  0  0  0  0  0  0
  149.8167  158.7494  130.9622 H   0  0  0  0  0  0  0  0  0  0  0  0
  149.8204  160.5457  130.9622 H   0  0  0  0  0  0  0  0  0  0  0  0
  148.2661  159.4829  134.0222 H   0  0  0  0  0  0  0  0  0  0  0  0
  147.7974  157.2154  134.2972 H   0  0  0  0  0  0  0  0  0  0  0  0
  146.9059  157.1005  132.7420 H   0  0  0  0  0  0  0  0  0  0  0  0
  148.6952  157.2597  132.7420 H   0  0  0  0  0  0  0  0  0  0  0  0
  146.7054  161.6471  133.7171 H   0  0  0  0  0  0  0  0  0  0  0  0
  144.3369  162.3606  134.1720 H   0  0  0  0  0  0  0  0  0  0  0  0
  141.6663  161.3637  134.4280 H   0  0  0  0  0  0  0  0  0  0  0  0
  139.4800  159.4100  136.2780 H   0  0  0  0  0  0  0  0  0  0  0  0
  142.1039  156.2440  135.6150 H   0  0  0  0  0  0  0  0  0  0  0  0
  140.7891  156.1214  134.3972 H   0  0  0  0  0  0  0  0  0  0  0  0
  142.1279  154.9238  134.3972 H   0  0  0  0  0  0  0  0  0  0  0  0
  145.3803  157.5048  133.3481 H   0  0  0  0  0  0  0  0  0  0  0  0
  1  2  1  0
  2  3  2  0
  2  4  1  0
  4  5  1  0
  4  6  1  0
  6  7  2  0
  7  8  1  0
  8  9  2  0
  9 10  1  0
 10 11  2  0
 11 12  1  0
 12 13  1  0
 12 14  2  0
 11 15  1  0
 15 16  1  0
 16 17  1  0
 16 18  2  0
 15 19  1  0
 19 20  2  0
 20  6  1  0
 19  9  1  0
  1 21  1  0
  1 22  1  0
  1 23  1  0
  4 24  1  1
  5 25  1  0
  5 26  1  0
  5 27  1  0
  7 28  1  0
  8 29  1  0
 10 30  1  0
 13 31  1  0
 17 32  1  0
 17 33  1  0
 17 34  1  0
 20 35  1  0
M  CHG  1  13  -1
M  END
>  <UniqueID>  (87) 
87

>  <SMILES>  (87) 
CC(=O)[C@H](C)c1ccc2cc(C([NH-])=O)n(C(C)=O)c2c1

>  <Energy>  (87) 
69.86579967865545

>  <Genealogy>  (87) 
CC(=O)C(C)c1ccc2cc(C([NH-])=O)n(C(C)=O)c2c1 (protonated)
CC(=O)[C@H](C)c1ccc2cc(C([NH-])=O)n(C(C)=O)c2c1 (chirality)
CC(=O)[C@H](C)c1ccc2cc(C([NH-])=O)n(C(C)=O)c2c1 (3D coordinates assigned)
CC(=O)[C@H](C)c1ccc2cc(C([NH-])=O)n(C(C)=O)c2c1 (optimized conformer: 69.86579967865545 kcal/mol)

>  <smiles>  (87) 
CC(=O)C(C)c1ccc2cc(C(N)=O)n(C(C)=O)c2c1

>  <score_type>  (87) 
oracle

>  <origin>  (87) 
adg

>  <m_score__min__energy>  (87) 
-7.3899999999999997

>  <m_primary>  (87) 
energy

$$$$
87:0
     RDKit          3D

 34 35  0  0  0  0  0  0  0  0999 V2000
  138.8610  157.7660  132.8980 N   0  0  0  0  0  0  0  0  0  0  0  0
  139.8460  156.7750  133.1950 C   0  0  0  0  0  0  0  0  0  0  0  0
  139.4940  155.5720  133.3150 O   0  0  0  0  0  0  0  0  0  0  0  0
  141.2760  157.1260  133.2960 C   0  0  0  0  0  0  0  0  0  0  0  0
  142.2920  156.1770  133.3770 C   0  0  0  0  0  0  0  0  0  0  0  0
  143.4630  156.8990  133.3900 C   0  0  0  0  0  0  0  0  0  0  0  0
  144.7810  156.4610  133.4670 C   0  0  0  0  0  0  0  0  0  0  0  0
  145.7970  157.4300  133.4900 C   0  0  0  0  0  0  0  0  0  0  0  0
  145.4800  158.8100  133.4470 C   0  0  0  0  0  0  0  0  0  0  0  0
  146.5820  159.8380  133.4640 C   0  0  0  0  0  0  0  0  0  0  0  0
  147.9320  159.2770  132.9600 C   0  0  2  0  0  0  0  0  0  0  0  0
  148.8250  159.1640  134.0390 O   0  0  0  0  0  0  0  0  0  0  0  0
  148.5730  160.1370  131.8450 C   0  0  0  0  0  0  0  0  0  0  0  0
  149.8080  159.5180  131.2620 C   0  0  0  0  0  0  0  0  0  0  0  0
  150.3260  159.9910  130.2160 O   0  0  0  0  0  0  0  0  0  0  0  0
  150.3630  158.3890  131.8500 O   0  0  0  0  0  0  0  0  0  0  0  0
  144.1280  159.2180  133.3800 C   0  0  0  0  0  0  0  0  0  0  0  0
  143.1360  158.2300  133.3300 C   0  0  0  0  0  0  0  0  0  0  0  0
  141.7940  158.3860  133.2740 N   0  0  0  0  0  0  0  0  0  0  0  0
  141.0720  159.6300  133.3040 C   0  0  0  0  0  0  0  0  0  0  0  0
  141.2030  160.4180  134.2780 O   0  0  0  0  0  0  0  0  0  0  0  0
  140.2240  159.9780  132.2600 O   0  0  0  0  0  0  0  0  0  0  0  0
  139.1370  158.7350  132.6250 H   0  0  0  0  0  0  0  0  0  0  0  0
  137.8500  157.5070  132.8680 H   0  0  0  0  0  0  0  0  0  0  0  0
  142.1818  155.0834  133.4212 H   0  0  0  0  0  0  0  0  0  0  0  0
  145.0201  155.3881  133.5086 H   0  0  0  0  0  0  0  0  0  0  0  0
  146.8495  157.1144  133.5419 H   0  0  0  0  0  0  0  0  0  0  0  0
  146.2881  160.6791  132.8190 H   0  0  0  0  0  0  0  0  0  0  0  0
  146.7237  160.1547  134.5079 H   0  0  0  0  0  0  0  0  0  0  0  0
  147.7239  158.2902  132.5207 H   0  0  0  0  0  0  0  0  0  0  0  0
  149.5900  158.6060  133.7390 H   0  0  0  0  0  0  0  0  0  0  0  0
  147.8358  160.2726  131.0399 H   0  0  0  0  0  0  0  0  0  0  0  0
  148.8685  161.0947  132.2982 H   0  0  0  0  0  0  0  0  0  0  0  0
  143.8615  160.2852  133.3674 H   0  0  0  0  0  0  0  0  0  0  0  0
  1  2  1  0
  2  3  2  0
  2  4  1  0
  4  5  2  0
  5  6  1  0
  6  7  2  0
  7  8  1  0
  8  9  2  0
  9 10  1  0
 10 11  1  0
 11 12  1  0
 11 13  1  0
 13 14  1  0
 14 15  2  0
 14 16  1  0
  9 17  1  0
 17 18  2  0
 18 19  1  0
 19 20  1  0
 20 21  2  0
 20 22  1  0
 19  4  1  0
 18  6  1  0
  1 23  1  0
  1 24  1  0
  5 25  1  0
  7 26  1  0
  8 27  1  0
 10 28  1  0
 10 29  1  0
 11 30  1  6
 12 31  1  0
 13 32  1  0
 13 33  1  0
 17 34  1  0
M  CHG  2  16  -1  22  -1
M  END
>  <UniqueID>  (88) 
88

>  <SMILES>  (88) 
NC(=O)c1cc2ccc(C[C@H](O)CC(=O)[O-])cc2n1C(=O)[O-]

>  <Energy>  (88) 
71.61773446127145

>  <Genealogy>  (88) 
NC(=O)c1cc2ccc(CC(O)CC(=O)[O-])cc2n1C(=O)[O-] (protonated)
NC(=O)c1cc2ccc(C[C@H](O)CC(=O)[O-])cc2n1C(=O)[O-] (chirality)
NC(=O)c1cc2ccc(C[C@H](O)CC(=O)[O-])cc2n1C(=O)[O-] (3D coordinates assigned)
NC(=O)c1cc2ccc(C[C@H](O)CC(=O)[O-])cc2n1C(=O)[O-] (optimized conformer: 71.61773446127145 kcal/mol)

>  <smiles>  (88) 
NC(=O)c1cc2ccc(CC(O)CC(=O)O)cc2n1C(=O)O

>  <score_type>  (88) 
oracle

>  <origin>  (88) 
adg

>  <m_score__min__energy>  (88) 
-6.7800000000000002

>  <m_primary>  (88) 
energy

$$$$
88:0
     RDKit          3D

 40 42  0  0  0  0  0  0  0  0999 V2000
  142.1340  157.3160  135.3880 C   0  0  0  0  0  0  0  0  0  0  0  0
  143.4160  157.2040  134.7840 O   0  0  0  0  0  0  0  0  0  0  0  0
  143.7460  157.8470  133.5860 C   0  0  0  0  0  0  0  0  0  0  0  0
  142.9250  157.8650  132.6280 O   0  0  0  0  0  0  0  0  0  0  0  0
  145.0320  158.4700  133.4410 N   0  0  0  0  0  0  0  0  0  0  0  0
  145.3350  159.7920  133.5720 C   0  0  0  0  0  0  0  0  0  0  0  0
  144.3630  160.8960  133.7190 C   0  0  0  0  0  0  0  0  0  0  0  0
  142.9930  160.7170  133.3710 N   0  0  0  0  0  0  0  0  0  0  0  0
  144.7580  162.0260  134.1100 O   0  0  0  0  0  0  0  0  0  0  0  0
  146.7090  159.9920  133.4640 C   0  0  0  0  0  0  0  0  0  0  0  0
  147.2430  158.7400  133.2530 C   0  0  0  0  0  0  0  0  0  0  0  0
  148.5660  158.3500  133.0870 C   0  0  0  0  0  0  0  0  0  0  0  0
  148.8350  156.9820  132.9160 C   0  0  0  0  0  0  0  0  0  0  0  0
  147.7840  156.0240  132.9230 C   0  0  0  0  0  0  0  0  0  0  0  0
  148.0740  154.6150  132.7580 N   0  0  0  0  0  0  0  0  0  0  0  0
  147.0930  153.5550  132.9450 C   0  0  0  0  0  0  0  0  0  0  0  0
  147.8690  152.2480  132.8600 C   0  0  0  0  0  0  0  0  0  0  0  0
  149.1700  152.5990  132.1380 C   0  0  2  0  0  0  0  0  0  0  0  0
  150.3530  151.7440  132.6030 C   0  0  0  0  0  0  0  0  0  0  0  0
  149.3830  154.0910  132.3950 C   0  0  0  0  0  0  0  0  0  0  0  0
  146.4500  156.4680  133.0960 C   0  0  0  0  0  0  0  0  0  0  0  0
  146.2110  157.8400  133.2450 C   0  0  0  0  0  0  0  0  0  0  0  0
  142.2423  157.3065  136.4826 H   0  0  0  0  0  0  0  0  0  0  0  0
  141.6620  158.2588  135.0744 H   0  0  0  0  0  0  0  0  0  0  0  0
  141.5057  156.4693  135.0744 H   0  0  0  0  0  0  0  0  0  0  0  0
  142.7110  160.0320  132.6350 H   0  0  0  0  0  0  0  0  0  0  0  0
  147.2519  160.9462  133.5326 H   0  0  0  0  0  0  0  0  0  0  0  0
  149.3791  159.0908  133.0894 H   0  0  0  0  0  0  0  0  0  0  0  0
  149.8732  156.6470  132.7747 H   0  0  0  0  0  0  0  0  0  0  0  0
  146.6101  153.6499  133.9288 H   0  0  0  0  0  0  0  0  0  0  0  0
  146.2978  153.6024  132.1864 H   0  0  0  0  0  0  0  0  0  0  0  0
  148.0799  151.8587  133.8670 H   0  0  0  0  0  0  0  0  0  0  0  0
  147.3028  151.4680  132.3299 H   0  0  0  0  0  0  0  0  0  0  0  0
  149.1009  152.3844  131.0614 H   0  0  0  0  0  0  0  0  0  0  0  0
  150.3810  151.7238  133.7025 H   0  0  0  0  0  0  0  0  0  0  0  0
  150.2376  150.7192  132.2202 H   0  0  0  0  0  0  0  0  0  0  0  0
  151.2898  152.1751  132.2202 H   0  0  0  0  0  0  0  0  0  0  0  0
  150.0984  154.2410  133.2170 H   0  0  0  0  0  0  0  0  0  0  0  0
  149.7962  154.6017  131.5127 H   0  0  0  0  0  0  0  0  0  0  0  0
  145.6177  155.7490  133.1130 H   0  0  0  0  0  0  0  0  0  0  0  0
  1  2  1  0
  2  3  1  0
  3  4  2  0
  3  5  1  0
  5  6  1  0
  6  7  1  0
  7  8  1  0
  7  9  2  0
  6 10  2  0
 10 11  1  0
 11 12  2  0
 12 13  1  0
 13 14  2  0
 14 15  1  0
 15 16  1  0
 16 17  1  0
 17 18  1  0
 18 19  1  0
 18 20  1  0
 14 21  1  0
 21 22  2  0
 22  5  1  0
 22 11  1  0
 20 15  1  0
  1 23  1  0
  1 24  1  0
  1 25  1  0
  8 26  1  0
 10 27  1  0
 12 28  1  0
 13 29  1  0
 16 30  1  0
 16 31  1  0
 17 32  1  0
 17 33  1  0
 18 34  1  6
 19 35  1  0
 19 36  1  0
 19 37  1  0
 20 38  1  0
 20 39  1  0
 21 40  1  0
M  CHG  1   8  -1
M  END
>  <UniqueID>  (89) 
89

>  <SMILES>  (89) 
COC(=O)n1c(C([NH-])=O)cc2ccc(N3CC[C@H](C)C3)cc21

>  <Energy>  (89) 
78.41935676461446

>  <Genealogy>  (89) 
COC(=O)n1c(C([NH-])=O)cc2ccc(N3CC[C@H](C)C3)cc21 (protonated)
COC(=O)n1c(C([NH-])=O)cc2ccc(N3CC[C@H](C)C3)cc21 (3D coordinates assigned)
COC(=O)n1c(C([NH-])=O)cc2ccc(N3CC[C@H](C)C3)cc21 (nonaromatic ring conformer: 78.41935676461446 kcal/mol)

>  <smiles>  (89) 
COC(=O)n1c(C(N)=O)cc2ccc(N3CC[C@H](C)C3)cc21

>  <score_type>  (89) 
oracle

>  <origin>  (89) 
adg

>  <m_score__min__energy>  (89) 
-6.75

>  <m_primary>  (89) 
energy

$$$$
89:0
     RDKit          3D

 48 50  0  0  0  0  0  0  0  0999 V2000
  141.6340  154.9140  134.0760 C   0  0  0  0  0  0  0  0  0  0  0  0
  142.4370  155.9690  133.3840 C   0  0  0  0  0  0  0  0  0  0  0  0
  143.4220  155.6290  132.6780 O   0  0  0  0  0  0  0  0  0  0  0  0
  142.1510  157.3610  133.5880 N   0  0  0  0  0  0  0  0  0  0  0  0
  140.9490  157.9460  133.8530 C   0  0  0  0  0  0  0  0  0  0  0  0
  139.6350  157.2690  133.8500 C   0  0  0  0  0  0  0  0  0  0  0  0
  139.3340  156.2600  132.8900 N   0  0  0  0  0  0  0  0  0  0  0  0
  138.7540  157.6130  134.6820 O   0  0  0  0  0  0  0  0  0  0  0  0
  141.1080  159.3170  134.0530 C   0  0  0  0  0  0  0  0  0  0  0  0
  142.4540  159.5550  133.8870 C   0  0  0  0  0  0  0  0  0  0  0  0
  143.1740  160.7410  133.9770 C   0  0  0  0  0  0  0  0  0  0  0  0
  144.5630  160.6840  133.7710 C   0  0  0  0  0  0  0  0  0  0  0  0
  145.2100  159.4570  133.4760 C   0  0  0  0  0  0  0  0  0  0  0  0
  146.6410  159.4590  133.2830 N   0  0  0  0  0  0  0  0  0  0  0  0
  147.4170  158.6800  132.3000 C   0  0  2  0  0  0  0  0  0  0  0  0
  147.4950  157.2120  132.6590 C   0  0  0  0  0  0  0  0  0  0  0  0
  146.4580  156.3620  132.5440 N   0  0  0  0  0  0  0  0  0  0  0  0
  146.9730  155.2040  132.9980 C   0  0  0  0  0  0  0  0  0  0  0  0
  146.2260  153.9140  133.0320 C   0  0  0  0  0  0  0  0  0  0  0  0
  148.2650  155.3360  133.3530 N   0  0  0  0  0  0  0  0  0  0  0  0
  148.5480  156.5880  133.1350 O   0  0  0  0  0  0  0  0  0  0  0  0
  148.7710  159.3920  131.9540 C   0  0  0  0  0  0  0  0  0  0  0  0
  148.5400  160.8670  131.5490 C   0  0  0  0  0  0  0  0  0  0  0  0
  149.5380  158.6750  130.8280 C   0  0  0  0  0  0  0  0  0  0  0  0
  149.6040  159.3680  133.0910 O   0  0  0  0  0  0  0  0  0  0  0  0
  144.4400  158.2690  133.4170 C   0  0  0  0  0  0  0  0  0  0  0  0
  143.0580  158.3590  133.6070 C   0  0  0  0  0  0  0  0  0  0  0  0
  141.7278  155.0372  135.1651 H   0  0  0  0  0  0  0  0  0  0  0  0
  140.5771  155.0084  133.7860 H   0  0  0  0  0  0  0  0  0  0  0  0
  142.0065  153.9205  133.7860 H   0  0  0  0  0  0  0  0  0  0  0  0
  138.3460  155.9830  132.6950 H   0  0  0  0  0  0  0  0  0  0  0  0
  140.3250  160.0516  134.2923 H   0  0  0  0  0  0  0  0  0  0  0  0
  142.6724  161.6937  134.2023 H   0  0  0  0  0  0  0  0  0  0  0  0
  145.1583  161.6065  133.8397 H   0  0  0  0  0  0  0  0  0  0  0  0
  147.1860  160.1630  133.8300 H   0  0  0  0  0  0  0  0  0  0  0  0
  146.8731  158.6631  131.3440 H   0  0  0  0  0  0  0  0  0  0  0  0
  145.4940  156.5550  132.1910 H   0  0  0  0  0  0  0  0  0  0  0  0
  146.0542  153.6172  134.0772 H   0  0  0  0  0  0  0  0  0  0  0  0
  145.2591  154.0366  132.5219 H   0  0  0  0  0  0  0  0  0  0  0  0
  146.8136  153.1365  132.5219 H   0  0  0  0  0  0  0  0  0  0  0  0
  148.4432  161.4849  132.4539 H   0  0  0  0  0  0  0  0  0  0  0  0
  149.3936  161.2215  130.9525 H   0  0  0  0  0  0  0  0  0  0  0  0
  147.6189  160.9435  130.9525 H   0  0  0  0  0  0  0  0  0  0  0  0
  150.2748  157.9863  131.2671 H   0  0  0  0  0  0  0  0  0  0  0  0
  148.8303  158.1071  130.2062 H   0  0  0  0  0  0  0  0  0  0  0  0
  150.0570  159.4193  130.2062 H   0  0  0  0  0  0  0  0  0  0  0  0
  149.6200  158.4400  133.4440 H   0  0  0  0  0  0  0  0  0  0  0  0
  144.9191  157.2974  133.2259 H   0  0  0  0  0  0  0  0  0  0  0  0
  1  2  1  0
  2  3  2  0
  2  4  1  0
  4  5  1  0
  5  6  1  0
  6  7  1  0
  6  8  2  0
  5  9  2  0
  9 10  1  0
 10 11  2  0
 11 12  1  0
 12 13  2  0
 13 14  1  0
 14 15  1  0
 15 16  1  0
 16 17  2  0
 17 18  1  0
 18 19  1  0
 18 20  2  0
 20 21  1  0
 15 22  1  0
 22 23  1  0
 22 24  1  0
 22 25  1  0
 13 26  1  0
 26 27  2  0
 27  4  1  0
 27 10  1  0
 21 16  1  0
  1 28  1  0
  1 29  1  0
  1 30  1  0
  7 31  1  0
  9 32  1  0
 11 33  1  0
 12 34  1  0
 14 35  1  0
 15 36  1  6
 17 37  1  0
 19 38  1  0
 19 39  1  0
 19 40  1  0
 23 41  1  0
 23 42  1  0
 23 43  1  0
 24 44  1  0
 24 45  1  0
 24 46  1  0
 25 47  1  0
 26 48  1  0
M  CHG  2   7  -1  17   1
M  END
>  <UniqueID>  (90) 
90

>  <SMILES>  (90) 
CC(=O)n1c(C([NH-])=O)cc2ccc(N[C@H](c3[nH+]c(C)no3)C(C)(C)O)cc21

>  <Energy>  (90) 
126.68838039354479

>  <Genealogy>  (90) 
CC(=O)n1c(C([NH-])=O)cc2ccc(N[C@H](c3[nH+]c(C)no3)C(C)(C)O)cc21 (protonated)
CC(=O)n1c(C([NH-])=O)cc2ccc(N[C@H](c3[nH+]c(C)no3)C(C)(C)O)cc21 (3D coordinates assigned)
CC(=O)n1c(C([NH-])=O)cc2ccc(N[C@H](c3[nH+]c(C)no3)C(C)(C)O)cc21 (optimized conformer: 126.68838039354479 kcal/mol)

>  <smiles>  (90) 
CC(=O)n1c(C(N)=O)cc2ccc(N[C@H](c3nc(C)no3)C(C)(C)O)cc21

>  <score_type>  (90) 
oracle

>  <origin>  (90) 
adg

>  <m_score__min__energy>  (90) 
-7.8899999999999997

>  <m_primary>  (90) 
energy

$$$$
90:0
     RDKit          3D

 30 32  0  0  0  0  0  0  0  0999 V2000
  141.2280  158.9620  137.3700 C   0  0  0  0  0  0  0  0  0  0  0  0
  140.5620  158.6330  136.0740 C   0  0  0  0  0  0  0  0  0  0  0  0
  139.3000  158.1790  135.9780 N   0  0  0  0  0  0  0  0  0  0  0  0
  139.0950  157.9700  134.7090 O   0  0  0  0  0  0  0  0  0  0  0  0
  140.1220  158.2520  133.9580 N   0  0  0  0  0  0  0  0  0  0  0  0
  141.0810  158.6930  134.7930 C   0  0  0  0  0  0  0  0  0  0  0  0
  142.4280  159.1100  134.3470 C   0  0  0  0  0  0  0  0  0  0  0  0
  142.6990  160.4880  134.1530 C   0  0  0  0  0  0  0  0  0  0  0  0
  143.9660  160.9200  133.7290 C   0  0  0  0  0  0  0  0  0  0  0  0
  144.9480  159.9570  133.5230 C   0  0  0  0  0  0  0  0  0  0  0  0
  146.2490  160.0980  133.0990 C   0  0  0  0  0  0  0  0  0  0  0  0
  146.7730  158.8070  133.0750 C   0  0  0  0  0  0  0  0  0  0  0  0
  148.1860  158.4960  132.7640 C   0  0  0  0  0  0  0  0  0  0  0  0
  148.5190  157.4300  131.8740 N   0  0  0  0  0  0  0  0  0  0  0  0
  149.1100  159.1940  133.2590 O   0  0  0  0  0  0  0  0  0  0  0  0
  145.8310  157.9030  133.4680 N   0  0  0  0  0  0  0  0  0  0  0  0
  145.9590  156.4700  133.5080 C   0  0  0  0  0  0  0  0  0  0  0  0
  146.3140  155.8330  132.4820 O   0  0  0  0  0  0  0  0  0  0  0  0
  145.7080  155.7770  134.6850 O   0  0  0  0  0  0  0  0  0  0  0  0
  144.7190  158.6230  133.7380 C   0  0  0  0  0  0  0  0  0  0  0  0
  143.4600  158.1630  134.1450 C   0  0  0  0  0  0  0  0  0  0  0  0
  140.5848  158.6442  138.2038 H   0  0  0  0  0  0  0  0  0  0  0  0
  142.1926  158.4368  137.4302 H   0  0  0  0  0  0  0  0  0  0  0  0
  141.3970  160.0473  137.4302 H   0  0  0  0  0  0  0  0  0  0  0  0
  141.9065  161.2283  134.3370 H   0  0  0  0  0  0  0  0  0  0  0  0
  144.1754  161.9873  133.5648 H   0  0  0  0  0  0  0  0  0  0  0  0
  146.7662  161.0322  132.8348 H   0  0  0  0  0  0  0  0  0  0  0  0
  149.5180  157.2440  131.6310 H   0  0  0  0  0  0  0  0  0  0  0  0
  147.7850  156.7970  131.4860 H   0  0  0  0  0  0  0  0  0  0  0  0
  143.2777  157.0899  134.3040 H   0  0  0  0  0  0  0  0  0  0  0  0
  1  2  1  0
  2  3  2  0
  3  4  1  0
  4  5  1  0
  5  6  2  0
  6  7  1  0
  7  8  2  0
  8  9  1  0
  9 10  2  0
 10 11  1  0
 11 12  2  0
 12 13  1  0
 13 14  1  0
 13 15  2  0
 12 16  1  0
 16 17  1  0
 17 18  2  0
 17 19  1  0
 16 20  1  0
 20 21  2  0
  6  2  1  0
 21  7  1  0
 20 10  1  0
  1 22  1  0
  1 23  1  0
  1 24  1  0
  8 25  1  0
  9 26  1  0
 11 27  1  0
 14 28  1  0
 14 29  1  0
 21 30  1  0
M  CHG  1  19  -1
M  END
>  <UniqueID>  (91) 
91

>  <SMILES>  (91) 
Cc1nonc1-c1ccc2cc(C(N)=O)n(C(=O)[O-])c2c1

>  <Energy>  (91) 
109.1016387626988

>  <Genealogy>  (91) 
Cc1nonc1-c1ccc2cc(C(N)=O)n(C(=O)[O-])c2c1 (protonated)
Cc1nonc1-c1ccc2cc(C(N)=O)n(C(=O)[O-])c2c1 (3D coordinates assigned)
Cc1nonc1-c1ccc2cc(C(N)=O)n(C(=O)[O-])c2c1 (optimized conformer: 109.1016387626988 kcal/mol)

>  <smiles>  (91) 
Cc1nonc1-c1ccc2cc(C(N)=O)n(C(=O)O)c2c1

>  <score_type>  (91) 
oracle

>  <origin>  (91) 
adg

>  <m_score__min__energy>  (91) 
-7.0999999999999996

>  <m_primary>  (91) 
energy

$$$$
91:0
     RDKit          3D

 32 33  0  0  0  0  0  0  0  0999 V2000
  147.8240  154.2860  134.4380 C   0  0  0  0  0  0  0  0  0  0  0  0
  148.3210  154.3120  133.1990 C   0  0  0  0  0  0  0  0  0  0  0  0
  147.6450  155.0520  132.1540 N   0  0  0  0  0  0  0  0  0  0  0  0
  147.6290  156.4630  132.4550 C   0  0  0  0  0  0  0  0  0  0  0  0
  148.8300  157.2200  132.4000 C   0  0  0  0  0  0  0  0  0  0  0  0
  148.8280  158.5930  132.6920 C   0  0  0  0  0  0  0  0  0  0  0  0
  147.6210  159.1820  133.0540 C   0  0  0  0  0  0  0  0  0  0  0  0
  147.3330  160.4910  133.3630 C   0  0  0  0  0  0  0  0  0  0  0  0
  145.9690  160.5150  133.6420 C   0  0  0  0  0  0  0  0  0  0  0  0
  145.2540  161.7240  134.1050 C   0  0  0  0  0  0  0  0  0  0  0  0
  145.9620  162.7370  134.8160 N   0  0  0  0  0  0  0  0  0  0  0  0
  144.0170  161.8540  133.9120 O   0  0  0  0  0  0  0  0  0  0  0  0
  145.4310  159.2690  133.5040 N   0  0  0  0  0  0  0  0  0  0  0  0
  144.0540  158.8810  133.6380 C   0  0  0  0  0  0  0  0  0  0  0  0
  143.3970  159.2080  134.6610 O   0  0  0  0  0  0  0  0  0  0  0  0
  143.4250  158.1640  132.6280 O   0  0  0  0  0  0  0  0  0  0  0  0
  146.4570  158.4650  133.1460 C   0  0  0  0  0  0  0  0  0  0  0  0
  146.4260  157.0980  132.8450 C   0  0  0  0  0  0  0  0  0  0  0  0
  149.5090  153.6040  132.9570 O   0  0  0  0  0  0  0  0  0  0  0  0
  149.5720  152.2370  132.5670 C   0  0  0  0  0  0  0  0  0  0  0  0
  148.3428  153.7218  135.2270 H   0  0  0  0  0  0  0  0  0  0  0  0
  146.8958  154.8288  134.6698 H   0  0  0  0  0  0  0  0  0  0  0  0
  148.1150  154.8660  131.2390 H   0  0  0  0  0  0  0  0  0  0  0  0
  146.6560  154.7240  132.0460 H   0  0  0  0  0  0  0  0  0  0  0  0
  149.7727  156.7242  132.1253 H   0  0  0  0  0  0  0  0  0  0  0  0
  149.7532  159.1854  132.6362 H   0  0  0  0  0  0  0  0  0  0  0  0
  148.0325  161.3397  133.3851 H   0  0  0  0  0  0  0  0  0  0  0  0
  147.0050  162.7820  134.7870 H   0  0  0  0  0  0  0  0  0  0  0  0
  145.4865  156.5297  132.9103 H   0  0  0  0  0  0  0  0  0  0  0  0
  149.6013  151.6008  133.4639 H   0  0  0  0  0  0  0  0  0  0  0  0
  148.6845  151.9854  131.9678 H   0  0  0  0  0  0  0  0  0  0  0  0
  150.4789  152.0681  131.9678 H   0  0  0  0  0  0  0  0  0  0  0  0
  1  2  2  0
  2  3  1  0
  3  4  1  0
  4  5  2  0
  5  6  1  0
  6  7  2  0
  7  8  1  0
  8  9  2  0
  9 10  1  0
 10 11  1  0
 10 12  2  0
  9 13  1  0
 13 14  1  0
 14 15  2  0
 14 16  1  0
 13 17  1  0
 17 18  2  0
  2 19  1  0
 19 20  1  0
 18  4  1  0
 17  7  1  0
  1 21  1  0
  1 22  1  0
  3 23  1  0
  3 24  1  0
  5 25  1  0
  6 26  1  0
  8 27  1  0
 11 28  1  0
 18 29  1  0
 20 30  1  0
 20 31  1  0
 20 32  1  0
M  CHG  3   3   1  11  -1  16  -1
M  END
>  <UniqueID>  (92) 
92

>  <SMILES>  (92) 
C=C([NH2+]c1ccc2cc(C([NH-])=O)n(C(=O)[O-])c2c1)OC

>  <Energy>  (92) 
71.44510830358031

>  <Genealogy>  (92) 
C=C([NH2+]c1ccc2cc(C([NH-])=O)n(C(=O)[O-])c2c1)OC (protonated)
C=C([NH2+]c1ccc2cc(C([NH-])=O)n(C(=O)[O-])c2c1)OC (3D coordinates assigned)
C=C([NH2+]c1ccc2cc(C([NH-])=O)n(C(=O)[O-])c2c1)OC (optimized conformer: 71.44510830358031 kcal/mol)

>  <smiles>  (92) 
C=C(Nc1ccc2cc(C(N)=O)n(C(=O)O)c2c1)OC

>  <score_type>  (92) 
oracle

>  <origin>  (92) 
adg

>  <m_score__min__energy>  (92) 
-6.25

>  <m_primary>  (92) 
energy

$$$$
92:0
     RDKit          3D

 41 42  0  0  0  0  0  0  0  0999 V2000
  150.0020  160.0990  129.6600 C   0  0  0  0  0  0  0  0  0  0  0  0
  149.8930  159.5080  130.9490 O   0  0  0  0  0  0  0  0  0  0  0  0
  148.9650  159.9420  131.9000 C   0  0  0  0  0  0  0  0  0  0  0  0
  148.1340  160.8500  131.6230 O   0  0  0  0  0  0  0  0  0  0  0  0
  148.9180  159.2770  133.2380 C   0  0  0  0  0  0  0  0  0  0  0  0
  147.8510  158.2190  133.2460 C   0  0  0  0  0  0  0  0  0  0  0  0
  146.4950  158.5790  133.4450 C   0  0  0  0  0  0  0  0  0  0  0  0
  145.4860  157.6040  133.4280 C   0  0  0  0  0  0  0  0  0  0  0  0
  145.8590  156.2840  133.1920 C   0  0  0  0  0  0  0  0  0  0  0  0
  145.0900  155.1450  133.1520 C   0  0  0  0  0  0  0  0  0  0  0  0
  145.9820  154.1100  132.8890 C   0  0  0  0  0  0  0  0  0  0  0  0
  145.5590  152.7120  132.6830 C   0  0  0  0  0  0  0  0  0  0  0  0
  146.3190  151.8290  131.8570 N   0  0  0  0  0  0  0  0  0  0  0  0
  144.4780  152.3110  133.1860 O   0  0  0  0  0  0  0  0  0  0  0  0
  147.2560  154.5820  132.7810 N   0  0  0  0  0  0  0  0  0  0  0  0
  148.4640  153.8120  132.6610 C   0  0  0  0  0  0  0  0  0  0  0  0
  149.5190  154.3570  132.2350 O   0  0  0  0  0  0  0  0  0  0  0  0
  148.4760  152.4660  133.0530 O   0  0  0  0  0  0  0  0  0  0  0  0
  149.5630  151.5820  132.7770 C   0  0  0  0  0  0  0  0  0  0  0  0
  149.4030  150.9030  131.4110 C   0  0  0  0  0  0  0  0  0  0  0  0
  150.7300  150.3570  130.8880 C   0  0  0  0  0  0  0  0  0  0  0  0
  150.4960  149.5270  129.8070 F   0  0  0  0  0  0  0  0  0  0  0  0
  147.1620  155.9200  132.9690 C   0  0  0  0  0  0  0  0  0  0  0  0
  148.1910  156.8700  133.0020 C   0  0  0  0  0  0  0  0  0  0  0  0
  150.2006  161.1757  129.7659 H   0  0  0  0  0  0  0  0  0  0  0  0
  150.8281  159.6263  129.1086 H   0  0  0  0  0  0  0  0  0  0  0  0
  149.0616  159.9521  129.1086 H   0  0  0  0  0  0  0  0  0  0  0  0
  149.8929  158.8134  133.4494 H   0  0  0  0  0  0  0  0  0  0  0  0
  148.6888  160.0283  134.0080 H   0  0  0  0  0  0  0  0  0  0  0  0
  146.2307  159.6332  133.6145 H   0  0  0  0  0  0  0  0  0  0  0  0
  144.4331  157.8745  133.5959 H   0  0  0  0  0  0  0  0  0  0  0  0
  144.0023  155.0684  133.2969 H   0  0  0  0  0  0  0  0  0  0  0  0
  145.9940  150.8480  131.7050 H   0  0  0  0  0  0  0  0  0  0  0  0
  147.1540  152.1680  131.3300 H   0  0  0  0  0  0  0  0  0  0  0  0
  150.5011  152.1564  132.7828 H   0  0  0  0  0  0  0  0  0  0  0  0
  149.5772  150.8006  133.5511 H   0  0  0  0  0  0  0  0  0  0  0  0
  148.6898  150.0712  131.5086 H   0  0  0  0  0  0  0  0  0  0  0  0
  149.0386  151.6558  130.6965 H   0  0  0  0  0  0  0  0  0  0  0  0
  151.3722  151.1934  130.5751 H   0  0  0  0  0  0  0  0  0  0  0  0
  151.2301  149.7870  131.6849 H   0  0  0  0  0  0  0  0  0  0  0  0
  149.2379  156.5727  132.8418 H   0  0  0  0  0  0  0  0  0  0  0  0
  1  2  1  0
  2  3  1  0
  3  4  2  0
  3  5  1  0
  5  6  1  0
  6  7  2  0
  7  8  1  0
  8  9  2  0
  9 10  1  0
 10 11  2  0
 11 12  1  0
 12 13  1  0
 12 14  2  0
 11 15  1  0
 15 16  1  0
 16 17  2  0
 16 18  1  0
 18 19  1  0
 19 20  1  0
 20 21  1  0
 21 22  1  0
 15 23  1  0
 23 24  2  0
 24  6  1  0
 23  9  1  0
  1 25  1  0
  1 26  1  0
  1 27  1  0
  5 28  1  0
  5 29  1  0
  7 30  1  0
  8 31  1  0
 10 32  1  0
 13 33  1  0
 13 34  1  0
 19 35  1  0
 19 36  1  0
 20 37  1  0
 20 38  1  0
 21 39  1  0
 21 40  1  0
 24 41  1  0
M  END
>  <UniqueID>  (93) 
93

>  <SMILES>  (93) 
COC(=O)Cc1ccc2cc(C(N)=O)n(C(=O)OCCCF)c2c1

>  <Energy>  (93) 
70.7356405043125

>  <Genealogy>  (93) 
COC(=O)Cc1ccc2cc(C(N)=O)n(C(=O)OCCCF)c2c1 (3D coordinates assigned)
COC(=O)Cc1ccc2cc(C(N)=O)n(C(=O)OCCCF)c2c1 (optimized conformer: 70.7356405043125 kcal/mol)

>  <smiles>  (93) 
COC(=O)Cc1ccc2cc(C(N)=O)n(C(=O)OCCCF)c2c1

>  <score_type>  (93) 
oracle

>  <origin>  (93) 
adg

>  <m_score__min__energy>  (93) 
-6.4400000000000004

>  <m_primary>  (93) 
energy

$$$$
93:0
     RDKit          3D

 48 50  0  0  0  0  0  0  0  0999 V2000
  149.4650  159.3370  131.5550 C   0  0  0  0  0  0  0  0  0  0  0  0
  148.4510  160.3800  131.1160 C   0  0  0  0  0  0  0  0  0  0  0  0
  147.1570  160.0090  131.5780 O   0  0  0  0  0  0  0  0  0  0  0  0
  146.8140  159.9920  132.9330 C   0  0  0  0  0  0  0  0  0  0  0  0
  147.3500  160.8050  133.7340 O   0  0  0  0  0  0  0  0  0  0  0  0
  145.8640  159.0290  133.4160 N   0  0  0  0  0  0  0  0  0  0  0  0
  144.5430  159.2290  133.6910 C   0  0  0  0  0  0  0  0  0  0  0  0
  143.8490  160.5340  133.7190 C   0  0  0  0  0  0  0  0  0  0  0  0
  144.5820  161.7510  133.8290 N   0  0  0  0  0  0  0  0  0  0  0  0
  142.5910  160.5710  133.6950 O   0  0  0  0  0  0  0  0  0  0  0  0
  143.9270  158.0270  134.0290 C   0  0  0  0  0  0  0  0  0  0  0  0
  144.9190  157.0760  133.9610 C   0  0  0  0  0  0  0  0  0  0  0  0
  144.8580  155.7030  134.1800 C   0  0  0  0  0  0  0  0  0  0  0  0
  146.0350  154.9550  134.0000 C   0  0  0  0  0  0  0  0  0  0  0  0
  147.2400  155.5900  133.6100 C   0  0  0  0  0  0  0  0  0  0  0  0
  148.4810  154.7720  133.3690 C   0  0  0  0  0  0  0  0  0  0  0  0
  148.1730  153.2700  133.5120 C   0  0  0  0  0  0  0  0  0  0  0  0
  148.2030  152.5670  132.2010 N   0  0  0  0  0  0  0  0  0  0  0  0
  147.4490  151.2850  132.2310 C   0  0  0  0  0  0  0  0  0  0  0  0
  148.3450  150.0770  132.5800 C   0  0  0  0  0  0  0  0  0  0  0  0
  149.4400  150.4830  133.3730 O   0  0  0  0  0  0  0  0  0  0  0  0
  150.3210  151.2900  132.6110 C   0  0  0  0  0  0  0  0  0  0  0  0
  149.5900  152.3410  131.7410 C   0  0  0  0  0  0  0  0  0  0  0  0
  147.2600  156.9830  133.3850 C   0  0  0  0  0  0  0  0  0  0  0  0
  146.0780  157.7060  133.5890 C   0  0  0  0  0  0  0  0  0  0  0  0
  149.5008  159.3002  132.6538 H   0  0  0  0  0  0  0  0  0  0  0  0
  149.1701  158.3518  131.1645 H   0  0  0  0  0  0  0  0  0  0  0  0
  150.4581  159.6040  131.1645 H   0  0  0  0  0  0  0  0  0  0  0  0
  148.7247  161.3579  131.5388 H   0  0  0  0  0  0  0  0  0  0  0  0
  148.4434  160.4439  130.0179 H   0  0  0  0  0  0  0  0  0  0  0  0
  145.5070  161.8660  133.3580 H   0  0  0  0  0  0  0  0  0  0  0  0
  142.8710  157.8707  134.2942 H   0  0  0  0  0  0  0  0  0  0  0  0
  143.9187  155.2182  134.4843 H   0  0  0  0  0  0  0  0  0  0  0  0
  146.0201  153.8673  134.1634 H   0  0  0  0  0  0  0  0  0  0  0  0
  148.8535  154.9701  132.3531 H   0  0  0  0  0  0  0  0  0  0  0  0
  149.2415  155.0517  134.1129 H   0  0  0  0  0  0  0  0  0  0  0  0
  148.9231  152.8154  134.1759 H   0  0  0  0  0  0  0  0  0  0  0  0
  147.1597  153.1693  133.9281 H   0  0  0  0  0  0  0  0  0  0  0  0
  147.7520  153.1880  131.4860 H   0  0  0  0  0  0  0  0  0  0  0  0
  146.6524  151.3624  132.9856 H   0  0  0  0  0  0  0  0  0  0  0  0
  147.0393  151.1159  131.2243 H   0  0  0  0  0  0  0  0  0  0  0  0
  147.7519  149.3355  133.1352 H   0  0  0  0  0  0  0  0  0  0  0  0
  148.7268  149.6374  131.6467 H   0  0  0  0  0  0  0  0  0  0  0  0
  150.9968  151.8167  133.3008 H   0  0  0  0  0  0  0  0  0  0  0  0
  150.8653  150.6223  131.9269 H   0  0  0  0  0  0  0  0  0  0  0  0
  150.1414  153.2914  131.7926 H   0  0  0  0  0  0  0  0  0  0  0  0
  149.5501  151.9621  130.7091 H   0  0  0  0  0  0  0  0  0  0  0  0
  148.1807  157.4882  133.0576 H   0  0  0  0  0  0  0  0  0  0  0  0
  1  2  1  0
  2  3  1  0
  3  4  1  0
  4  5  2  0
  4  6  1  0
  6  7  1  0
  7  8  1  0
  8  9  1  0
  8 10  2  0
  7 11  2  0
 11 12  1  0
 12 13  2  0
 13 14  1  0
 14 15  2  0
 15 16  1  0
 16 17  1  0
 17 18  1  0
 18 19  1  0
 19 20  1  0
 20 21  1  0
 21 22  1  0
 22 23  1  0
 15 24  1  0
 24 25  2  0
 25  6  1  0
 25 12  1  0
 23 18  1  0
  1 26  1  0
  1 27  1  0
  1 28  1  0
  2 29  1  0
  2 30  1  0
  9 31  1  0
 11 32  1  0
 13 33  1  0
 14 34  1  0
 16 35  1  0
 16 36  1  0
 17 37  1  0
 17 38  1  0
 18 39  1  0
 19 40  1  0
 19 41  1  0
 20 42  1  0
 20 43  1  0
 22 44  1  0
 22 45  1  0
 23 46  1  0
 23 47  1  0
 24 48  1  0
M  CHG  2   9  -1  18   1
M  END
>  <UniqueID>  (94) 
94

>  <SMILES>  (94) 
CCOC(=O)n1c(C([NH-])=O)cc2ccc(CC[NH+]3CCOCC3)cc21

>  <Energy>  (94) 
94.04866188967006

>  <Genealogy>  (94) 
CCOC(=O)n1c(C([NH-])=O)cc2ccc(CC[NH+]3CCOCC3)cc21 (protonated)
CCOC(=O)n1c(C([NH-])=O)cc2ccc(CC[NH+]3CCOCC3)cc21 (3D coordinates assigned)
CCOC(=O)n1c(C([NH-])=O)cc2ccc(CC[NH+]3CCOCC3)cc21 (nonaromatic ring conformer: 94.04866188967006 kcal/mol)

>  <smiles>  (94) 
CCOC(=O)n1c(C(N)=O)cc2ccc(CCN3CCOCC3)cc21

>  <score_type>  (94) 
oracle

>  <origin>  (94) 
adg

>  <m_score__min__energy>  (94) 
-7.0599999999999996

>  <m_primary>  (94) 
energy

$$$$
94:0
     RDKit          3D

 46 47  0  0  0  0  0  0  0  0999 V2000
  138.1730  159.7580  130.9800 C   0  0  0  0  0  0  0  0  0  0  0  0
  139.6410  159.3180  131.0620 C   0  0  0  0  0  0  0  0  0  0  0  0
  140.0120  158.6930  132.3560 N   0  0  0  0  0  0  0  0  0  0  0  0
  139.1030  157.6080  132.7930 C   0  0  0  0  0  0  0  0  0  0  0  0
  139.8580  156.3050  133.0500 C   0  0  0  0  0  0  0  0  0  0  0  0
  140.2430  159.6910  133.4270 C   0  0  0  0  0  0  0  0  0  0  0  0
  141.7210  159.6890  133.8350 C   0  0  0  0  0  0  0  0  0  0  0  0
  142.5120  158.7970  132.9860 N   0  0  0  0  0  0  0  0  0  0  0  0
  143.7460  158.1670  133.3840 C   0  0  0  0  0  0  0  0  0  0  0  0
  144.9630  158.8690  133.1950 C   0  0  0  0  0  0  0  0  0  0  0  0
  146.1920  158.2950  133.5630 C   0  0  0  0  0  0  0  0  0  0  0  0
  146.1760  157.0150  134.1080 C   0  0  0  0  0  0  0  0  0  0  0  0
  147.2120  156.2350  134.5690 C   0  0  0  0  0  0  0  0  0  0  0  0
  146.6170  155.0560  135.0150 C   0  0  0  0  0  0  0  0  0  0  0  0
  147.3810  153.9040  135.5390 C   0  0  0  0  0  0  0  0  0  0  0  0
  146.9890  153.2460  136.7400 N   0  0  0  0  0  0  0  0  0  0  0  0
  148.3770  153.4730  134.8980 O   0  0  0  0  0  0  0  0  0  0  0  0
  145.2660  155.1070  134.8380 N   0  0  0  0  0  0  0  0  0  0  0  0
  144.2950  154.1200  135.2190 C   0  0  0  0  0  0  0  0  0  0  0  0
  143.5630  153.3250  134.1860 C   0  0  0  0  0  0  0  0  0  0  0  0
  144.0450  153.9260  136.4380 O   0  0  0  0  0  0  0  0  0  0  0  0
  145.0120  156.3140  134.2850 C   0  0  0  0  0  0  0  0  0  0  0  0
  143.7720  156.8710  133.9530 C   0  0  0  0  0  0  0  0  0  0  0  0
  137.7692  159.8790  131.9960 H   0  0  0  0  0  0  0  0  0  0  0  0
  138.1067  160.7155  130.4426 H   0  0  0  0  0  0  0  0  0  0  0  0
  137.5909  158.9948  130.4426 H   0  0  0  0  0  0  0  0  0  0  0  0
  139.8292  158.5897  130.2594 H   0  0  0  0  0  0  0  0  0  0  0  0
  140.2521  160.2270  130.9606 H   0  0  0  0  0  0  0  0  0  0  0  0
  138.5999  157.9171  133.7211 H   0  0  0  0  0  0  0  0  0  0  0  0
  138.3738  157.4281  131.9893 H   0  0  0  0  0  0  0  0  0  0  0  0
  139.9517  156.1432  134.1340 H   0  0  0  0  0  0  0  0  0  0  0  0
  139.3058  155.4665  132.6005 H   0  0  0  0  0  0  0  0  0  0  0  0
  140.8601  156.3671  132.6005 H   0  0  0  0  0  0  0  0  0  0  0  0
  139.9679  160.6905  133.0592 H   0  0  0  0  0  0  0  0  0  0  0  0
  139.6266  159.4326  134.3007 H   0  0  0  0  0  0  0  0  0  0  0  0
  142.1174  160.7112  133.7461 H   0  0  0  0  0  0  0  0  0  0  0  0
  141.7916  159.3296  134.8723 H   0  0  0  0  0  0  0  0  0  0  0  0
  142.1480  158.6100  132.0240 H   0  0  0  0  0  0  0  0  0  0  0  0
  144.9452  159.8767  132.7543 H   0  0  0  0  0  0  0  0  0  0  0  0
  147.1370  158.8407  133.4245 H   0  0  0  0  0  0  0  0  0  0  0  0
  148.2824  156.4882  134.5826 H   0  0  0  0  0  0  0  0  0  0  0  0
  145.9850  153.1850  137.0170 H   0  0  0  0  0  0  0  0  0  0  0  0
  142.8981  152.6028  134.6823 H   0  0  0  0  0  0  0  0  0  0  0  0
  142.9654  154.0020  133.5578 H   0  0  0  0  0  0  0  0  0  0  0  0
  144.2869  152.7852  133.5578 H   0  0  0  0  0  0  0  0  0  0  0  0
  142.8395  156.3150  134.1300 H   0  0  0  0  0  0  0  0  0  0  0  0
  1  2  1  0
  2  3  1  0
  3  4  1  0
  4  5  1  0
  3  6  1  0
  6  7  1  0
  7  8  1  0
  8  9  1  0
  9 10  2  0
 10 11  1  0
 11 12  2  0
 12 13  1  0
 13 14  2  0
 14 15  1  0
 15 16  1  0
 15 17  2  0
 14 18  1  0
 18 19  1  0
 19 20  1  0
 19 21  2  0
 18 22  1  0
 22 23  2  0
 23  9  1  0
 22 12  1  0
  1 24  1  0
  1 25  1  0
  1 26  1  0
  2 27  1  0
  2 28  1  0
  4 29  1  0
  4 30  1  0
  5 31  1  0
  5 32  1  0
  5 33  1  0
  6 34  1  0
  6 35  1  0
  7 36  1  0
  7 37  1  0
  8 38  1  0
 10 39  1  0
 11 40  1  0
 13 41  1  0
 16 42  1  0
 20 43  1  0
 20 44  1  0
 20 45  1  0
 23 46  1  0
M  CHG  1  16  -1
M  END
>  <UniqueID>  (95) 
95

>  <SMILES>  (95) 
CCN(CC)CCNc1ccc2cc(C([NH-])=O)n(C(C)=O)c2c1

>  <Energy>  (95) 
83.81763783359499

>  <Genealogy>  (95) 
CCN(CC)CCNc1ccc2cc(C([NH-])=O)n(C(C)=O)c2c1 (protonated)
CCN(CC)CCNc1ccc2cc(C([NH-])=O)n(C(C)=O)c2c1 (3D coordinates assigned)
CCN(CC)CCNc1ccc2cc(C([NH-])=O)n(C(C)=O)c2c1 (optimized conformer: 83.81763783359499 kcal/mol)

>  <smiles>  (95) 
CCN(CC)CCNc1ccc2cc(C(N)=O)n(C(C)=O)c2c1

>  <score_type>  (95) 
oracle

>  <origin>  (95) 
adg

>  <m_score__min__energy>  (95) 
-6.7599999999999998

>  <m_primary>  (95) 
energy

$$$$
95:0
     RDKit          3D

 27 28  0  0  0  0  0  0  0  0999 V2000
  145.7880  162.7360  134.7840 C   0  0  0  0  0  0  0  0  0  0  0  0
  144.7290  162.0600  133.9710 C   0  0  0  0  0  0  0  0  0  0  0  0
  143.8600  162.7610  133.3860 O   0  0  0  0  0  0  0  0  0  0  0  0
  144.7330  160.6340  133.7950 N   0  0  0  0  0  0  0  0  0  0  0  0
  143.7280  159.7510  134.0540 C   0  0  0  0  0  0  0  0  0  0  0  0
  142.3490  160.1030  134.4530 C   0  0  0  0  0  0  0  0  0  0  0  0
  141.5550  160.9310  133.6060 N   0  0  0  0  0  0  0  0  0  0  0  0
  141.8750  159.7060  135.5490 O   0  0  0  0  0  0  0  0  0  0  0  0
  144.1510  158.4460  133.8070 C   0  0  0  0  0  0  0  0  0  0  0  0
  145.4530  158.5600  133.3760 C   0  0  0  0  0  0  0  0  0  0  0  0
  146.3590  157.5770  132.9870 C   0  0  0  0  0  0  0  0  0  0  0  0
  147.6460  157.9860  132.5980 C   0  0  0  0  0  0  0  0  0  0  0  0
  148.0060  159.3570  132.6190 C   0  0  0  0  0  0  0  0  0  0  0  0
  149.3710  159.7820  132.1720 C   0  0  0  0  0  0  0  0  0  0  0  0
  147.0550  160.3270  133.0050 C   0  0  0  0  0  0  0  0  0  0  0  0
  145.7790  159.8910  133.3760 C   0  0  0  0  0  0  0  0  0  0  0  0
  145.5725  162.5985  135.8539 H   0  0  0  0  0  0  0  0  0  0  0  0
  146.7682  162.2962  134.5479 H   0  0  0  0  0  0  0  0  0  0  0  0
  145.8017  163.8103  134.5479 H   0  0  0  0  0  0  0  0  0  0  0  0
  141.9780  161.7350  133.0920 H   0  0  0  0  0  0  0  0  0  0  0  0
  143.5680  157.5214  133.9304 H   0  0  0  0  0  0  0  0  0  0  0  0
  146.0764  156.5139  132.9842 H   0  0  0  0  0  0  0  0  0  0  0  0
  148.3814  157.2348  132.2740 H   0  0  0  0  0  0  0  0  0  0  0  0
  150.0006  159.9780  133.0524 H   0  0  0  0  0  0  0  0  0  0  0  0
  149.8244  158.9825  131.5677 H   0  0  0  0  0  0  0  0  0  0  0  0
  149.2904  160.6976  131.5677 H   0  0  0  0  0  0  0  0  0  0  0  0
  147.3110  161.3968  133.0136 H   0  0  0  0  0  0  0  0  0  0  0  0
  1  2  1  0
  2  3  2  0
  2  4  1  0
  4  5  1  0
  5  6  1  0
  6  7  1  0
  6  8  2  0
  5  9  2  0
  9 10  1  0
 10 11  2  0
 11 12  1  0
 12 13  2  0
 13 14  1  0
 13 15  1  0
 15 16  2  0
 16  4  1  0
 16 10  1  0
  1 17  1  0
  1 18  1  0
  1 19  1  0
  7 20  1  0
  9 21  1  0
 11 22  1  0
 12 23  1  0
 14 24  1  0
 14 25  1  0
 14 26  1  0
 15 27  1  0
M  CHG  1   7  -1
M  END
>  <UniqueID>  (96) 
96

>  <SMILES>  (96) 
CC(=O)n1c(C([NH-])=O)cc2ccc(C)cc21

>  <Energy>  (96) 
65.29670161220857

>  <Genealogy>  (96) 
CC(=O)n1c(C([NH-])=O)cc2ccc(C)cc21 (protonated)
CC(=O)n1c(C([NH-])=O)cc2ccc(C)cc21 (3D coordinates assigned)
CC(=O)n1c(C([NH-])=O)cc2ccc(C)cc21 (optimized conformer: 65.29670161220857 kcal/mol)

>  <smiles>  (96) 
CC(=O)n1c(C(N)=O)cc2ccc(C)cc21

>  <score_type>  (96) 
oracle

>  <origin>  (96) 
adg

>  <m_score__min__energy>  (96) 
-5.8200000000000003

>  <m_primary>  (96) 
energy

$$$$
