0:0
     RDKit          3D

 53 56  0  0  0  0  0  0  0  0999 V2000
  136.6350  160.0400  130.6800 C   0  0  0  0  0  0  0  0  0  0  0  0
  138.0710  159.7480  130.5540 N   0  0  0  0  0  0  0  0  0  0  0  0
  138.8700  160.6840  131.3620 C   0  0  0  0  0  0  0  0  0  0  0  0
  138.3880  158.3340  130.8570 C   0  0  0  0  0  0  0  0  0  0  0  0
  139.2780  158.1650  132.0630 C   0  0  0  0  0  0  0  0  0  0  0  0
  138.8020  157.7110  133.2270 C   0  0  0  0  0  0  0  0  0  0  0  0
  139.6520  157.5610  134.4240 C   0  0  0  0  0  0  0  0  0  0  0  0
  139.1330  157.4630  135.5700 O   0  0  0  0  0  0  0  0  0  0  0  0
  141.0780  157.4700  134.2840 N   0  0  0  0  0  0  0  0  0  0  0  0
  142.0030  158.4600  134.4300 C   0  0  0  0  0  0  0  0  0  0  0  0
  141.7390  159.8260  134.9260 C   0  0  0  0  0  0  0  0  0  0  0  0
  140.8220  160.0550  135.9920 N   0  0  0  0  0  0  0  0  0  0  0  0
  142.3620  160.8020  134.4280 O   0  0  0  0  0  0  0  0  0  0  0  0
  143.2760  157.9860  134.1170 C   0  0  0  0  0  0  0  0  0  0  0  0
  143.1000  156.6620  133.7820 C   0  0  0  0  0  0  0  0  0  0  0  0
  144.0280  155.7080  133.3800 C   0  0  0  0  0  0  0  0  0  0  0  0
  143.5600  154.4200  133.0730 C   0  0  0  0  0  0  0  0  0  0  0  0
  142.1770  154.1060  133.1670 C   0  0  0  0  0  0  0  0  0  0  0  0
  141.6710  152.7510  132.8350 C   0  0  0  0  0  0  0  0  0  0  0  0
  142.4200  151.5910  132.6990 C   0  0  0  0  0  0  0  0  0  0  0  0
  141.5750  150.5980  132.3850 N   0  0  0  0  0  0  0  0  0  0  0  0
  140.3480  151.1480  132.3710 C   0  0  0  0  0  0  0  0  0  0  0  0
  140.3640  152.4730  132.6210 N   0  0  0  0  0  0  0  0  0  0  0  0
  139.1190  150.3720  132.0100 C   0  0  0  0  0  0  0  0  0  0  0  0
  139.3670  148.8640  132.1740 C   0  0  0  0  0  0  0  0  0  0  0  0
  140.7120  148.4450  131.5550 C   0  0  0  0  0  0  0  0  0  0  0  0
  141.8810  149.1770  132.2340 C   0  0  0  0  0  0  0  0  0  0  0  0
  141.2670  155.1070  133.5800 C   0  0  0  0  0  0  0  0  0  0  0  0
  141.7660  156.3770  133.8930 C   0  0  0  0  0  0  0  0  0  0  0  0
  136.3641  160.0951  131.7447 H   0  0  0  0  0  0  0  0  0  0  0  0
  136.4124  161.0018  130.1948 H   0  0  0  0  0  0  0  0  0  0  0  0
  136.0545  159.2415  130.1948 H   0  0  0  0  0  0  0  0  0  0  0  0
  138.6994  160.4842  132.4302 H   0  0  0  0  0  0  0  0  0  0  0  0
  139.9369  160.5505  131.1298 H   0  0  0  0  0  0  0  0  0  0  0  0
  138.5707  161.7167  131.1298 H   0  0  0  0  0  0  0  0  0  0  0  0
  137.4457  157.7971  131.0410 H   0  0  0  0  0  0  0  0  0  0  0  0
  138.9340  157.9308  129.9913 H   0  0  0  0  0  0  0  0  0  0  0  0
  140.3447  158.4215  131.9829 H   0  0  0  0  0  0  0  0  0  0  0  0
  137.7382  157.4394  133.2949 H   0  0  0  0  0  0  0  0  0  0  0  0
  139.9920  159.4360  136.1310 H   0  0  0  0  0  0  0  0  0  0  0  0
  144.2204  158.5498  134.1340 H   0  0  0  0  0  0  0  0  0  0  0  0
  145.0973  155.9548  133.3046 H   0  0  0  0  0  0  0  0  0  0  0  0
  144.2727  153.6445  132.7558 H   0  0  0  0  0  0  0  0  0  0  0  0
  143.5090  151.5020  132.8257 H   0  0  0  0  0  0  0  0  0  0  0  0
  138.2922  150.6766  132.6684 H   0  0  0  0  0  0  0  0  0  0  0  0
  138.8635  150.5784  130.9602 H   0  0  0  0  0  0  0  0  0  0  0  0
  139.3741  148.6171  133.2459 H   0  0  0  0  0  0  0  0  0  0  0  0
  138.5631  148.3226  131.6537 H   0  0  0  0  0  0  0  0  0  0  0  0
  140.8442  147.3603  131.6816 H   0  0  0  0  0  0  0  0  0  0  0  0
  140.7047  148.7096  130.4873 H   0  0  0  0  0  0  0  0  0  0  0  0
  142.0564  148.7368  133.2267 H   0  0  0  0  0  0  0  0  0  0  0  0
  142.7795  149.0705  131.6085 H   0  0  0  0  0  0  0  0  0  0  0  0
  140.1907  154.8923  133.6536 H   0  0  0  0  0  0  0  0  0  0  0  0
  1  2  1  0
  2  3  1  0
  2  4  1  0
  4  5  1  0
  5  6  2  3
  6  7  1  0
  7  8  2  0
  7  9  1  0
  9 10  1  0
 10 11  1  0
 11 12  1  0
 11 13  2  0
 10 14  2  0
 14 15  1  0
 15 16  2  0
 16 17  1  0
 17 18  2  0
 18 19  1  0
 19 20  2  0
 20 21  1  0
 21 22  1  0
 22 23  2  0
 22 24  1  0
 24 25  1  0
 25 26  1  0
 26 27  1  0
 18 28  1  0
 28 29  2  0
 29  9  1  0
 29 15  1  0
 23 19  1  0
 27 21  1  0
  1 30  1  0
  1 31  1  0
  1 32  1  0
  3 33  1  0
  3 34  1  0
  3 35  1  0
  4 36  1  0
  4 37  1  0
  5 38  1  0
  6 39  1  0
 12 40  1  0
 14 41  1  0
 16 42  1  0
 17 43  1  0
 20 44  1  0
 24 45  1  0
 24 46  1  0
 25 47  1  0
 25 48  1  0
 26 49  1  0
 26 50  1  0
 27 51  1  0
 27 52  1  0
 28 53  1  0
M  CHG  1  12  -1
M  END
>  <UniqueID>  (1) 
1

>  <SMILES>  (1) 
CN(C)CC=CC(=O)n1c(C([NH-])=O)cc2ccc(-c3cn4c(n3)CCCC4)cc21

>  <Energy>  (1) 
124.74786410322686

>  <Genealogy>  (1) 
CN(C)CC=CC(=O)n1c(C([NH-])=O)cc2ccc(-c3cn4c(n3)CCCC4)cc21 (protonated)
CN(C)CC=CC(=O)n1c(C([NH-])=O)cc2ccc(-c3cn4c(n3)CCCC4)cc21 (3D coordinates assigned)
CN(C)CC=CC(=O)n1c(C([NH-])=O)cc2ccc(-c3cn4c(n3)CCCC4)cc21 (nonaromatic ring conformer: 124.74786410322686 kcal/mol)

>  <smiles>  (1) 
CN(C)CC=CC(=O)n1c(C(N)=O)cc2ccc(-c3cn4c(n3)CCCC4)cc21

>  <score_type>  (1) 
oracle

>  <origin>  (1) 
adg

>  <m_score__min__energy>  (1) 
-9.4800000000000004

>  <m_primary>  (1) 
energy

$$$$
1:0
     RDKit          3D

 65 67  0  0  0  0  0  0  0  0999 V2000
  141.9190  150.8080  132.6330 C   0  0  0  0  0  0  0  0  0  0  0  0
  141.6640  152.2520  132.8980 C   0  0  0  0  0  0  0  0  0  0  0  0
  140.5140  152.8520  132.7010 O   0  0  0  0  0  0  0  0  0  0  0  0
  140.7070  154.1110  133.0180 C   0  0  0  0  0  0  0  0  0  0  0  0
  139.8120  154.9940  132.9560 O   0  0  0  0  0  0  0  0  0  0  0  0
  141.9380  154.3530  133.4080 O   0  0  0  0  0  0  0  0  0  0  0  0
  142.5690  153.2030  133.3390 C   0  0  0  0  0  0  0  0  0  0  0  0
  144.0130  153.0100  133.6980 C   0  0  0  0  0  0  0  0  0  0  0  0
  144.2700  153.3810  135.0530 O   0  0  0  0  0  0  0  0  0  0  0  0
  144.4960  154.6990  135.4610 C   0  0  0  0  0  0  0  0  0  0  0  0
  143.6300  155.3010  136.1520 O   0  0  0  0  0  0  0  0  0  0  0  0
  145.6970  155.3870  135.0640 N   0  0  0  0  0  0  0  0  0  0  0  0
  146.9810  155.0410  135.3730 C   0  0  0  0  0  0  0  0  0  0  0  0
  147.4200  153.7480  135.9330 C   0  0  0  0  0  0  0  0  0  0  0  0
  146.5960  153.0310  136.8490 N   0  0  0  0  0  0  0  0  0  0  0  0
  148.5060  153.2370  135.5480 O   0  0  0  0  0  0  0  0  0  0  0  0
  147.8660  156.0510  135.0090 C   0  0  0  0  0  0  0  0  0  0  0  0
  147.0850  157.0320  134.4480 C   0  0  0  0  0  0  0  0  0  0  0  0
  147.4490  158.2770  133.9490 C   0  0  0  0  0  0  0  0  0  0  0  0
  146.4310  159.1210  133.4800 C   0  0  0  0  0  0  0  0  0  0  0  0
  145.0770  158.7050  133.5050 C   0  0  0  0  0  0  0  0  0  0  0  0
  143.9980  159.6370  133.0100 C   0  0  0  0  0  0  0  0  0  0  0  0
  143.0450  160.1210  134.1180 C   0  0  0  0  0  0  0  0  0  0  0  0
  141.7320  160.7140  133.5900 C   0  0  0  0  0  0  0  0  0  0  0  0
  140.6510  160.0580  134.2080 O   0  0  0  0  0  0  0  0  0  0  0  0
  140.0910  158.7320  133.2380 Si  0  0  0  0  0  4  0  0  0  0  0  0
  141.5580  157.7270  132.6500 C   0  0  0  0  0  0  0  0  0  0  0  0
  138.9530  157.6030  134.2110 C   0  0  0  0  0  0  0  0  0  0  0  0
  139.1650  159.4660  131.7480 C   0  0  0  0  0  0  0  0  0  0  0  0
  137.7250  158.9210  131.7230 C   0  0  0  0  0  0  0  0  0  0  0  0
  139.8840  159.0900  130.4430 C   0  0  0  0  0  0  0  0  0  0  0  0
  139.1190  160.9980  131.8860 C   0  0  0  0  0  0  0  0  0  0  0  0
  144.7450  157.4250  134.0070 C   0  0  0  0  0  0  0  0  0  0  0  0
  145.7800  156.6060  134.4810 C   0  0  0  0  0  0  0  0  0  0  0  0
  142.0138  150.2711  133.5883 H   0  0  0  0  0  0  0  0  0  0  0  0
  141.0813  150.3873  132.0575 H   0  0  0  0  0  0  0  0  0  0  0  0
  142.8502  150.6997  132.0575 H   0  0  0  0  0  0  0  0  0  0  0  0
  144.2767  151.9509  133.5613 H   0  0  0  0  0  0  0  0  0  0  0  0
  144.6201  153.6526  133.0433 H   0  0  0  0  0  0  0  0  0  0  0  0
  145.5540  153.0780  136.7890 H   0  0  0  0  0  0  0  0  0  0  0  0
  148.9579  156.0617  135.1420 H   0  0  0  0  0  0  0  0  0  0  0  0
  148.5029  158.5911  133.9226 H   0  0  0  0  0  0  0  0  0  0  0  0
  146.6870  160.1166  133.0886 H   0  0  0  0  0  0  0  0  0  0  0  0
  144.4791  160.5162  132.5567 H   0  0  0  0  0  0  0  0  0  0  0  0
  143.3912  159.0724  132.2868 H   0  0  0  0  0  0  0  0  0  0  0  0
  142.8034  159.2655  134.7658 H   0  0  0  0  0  0  0  0  0  0  0  0
  143.5650  160.9252  134.6592 H   0  0  0  0  0  0  0  0  0  0  0  0
  141.6929  161.7884  133.8225 H   0  0  0  0  0  0  0  0  0  0  0  0
  141.6749  160.5779  132.4999 H   0  0  0  0  0  0  0  0  0  0  0  0
  142.1138  157.3462  133.5195 H   0  0  0  0  0  0  0  0  0  0  0  0
  141.2033  156.8813  132.0425 H   0  0  0  0  0  0  0  0  0  0  0  0
  142.2185  158.3632  132.0425 H   0  0  0  0  0  0  0  0  0  0  0  0
  139.1125  157.7612  135.2878 H   0  0  0  0  0  0  0  0  0  0  0  0
  137.9069  157.8303  133.9580 H   0  0  0  0  0  0  0  0  0  0  0  0
  139.1720  156.5551  133.9580 H   0  0  0  0  0  0  0  0  0  0  0  0
  137.3664  158.7853  132.7540 H   0  0  0  0  0  0  0  0  0  0  0  0
  137.0721  159.6342  131.1986 H   0  0  0  0  0  0  0  0  0  0  0  0
  137.7079  157.9542  131.1986 H   0  0  0  0  0  0  0  0  0  0  0  0
  140.8360  158.5921  130.6792 H   0  0  0  0  0  0  0  0  0  0  0  0
  139.2491  158.4085  129.8578 H   0  0  0  0  0  0  0  0  0  0  0  0
  140.0815  160.0002  129.8578 H   0  0  0  0  0  0  0  0  0  0  0  0
  139.1108  161.2701  132.9518 H   0  0  0  0  0  0  0  0  0  0  0  0
  140.0044  161.4365  131.4024 H   0  0  0  0  0  0  0  0  0  0  0  0
  138.2089  161.3826  131.4024 H   0  0  0  0  0  0  0  0  0  0  0  0
  143.7005  157.0804  134.0252 H   0  0  0  0  0  0  0  0  0  0  0  0
  1  2  1  0
  2  3  1  0
  3  4  1  0
  4  5  2  0
  4  6  1  0
  6  7  1  0
  7  8  1  0
  8  9  1  0
  9 10  1  0
 10 11  2  0
 10 12  1  0
 12 13  1  0
 13 14  1  0
 14 15  1  0
 14 16  2  0
 13 17  2  0
 17 18  1  0
 18 19  2  0
 19 20  1  0
 20 21  2  0
 21 22  1  0
 22 23  1  0
 23 24  1  0
 24 25  1  0
 25 26  1  0
 26 27  1  0
 26 28  1  0
 26 29  1  0
 29 30  1  0
 29 31  1  0
 29 32  1  0
 21 33  1  0
 33 34  2  0
  7  2  2  0
 34 12  1  0
 34 18  1  0
  1 35  1  0
  1 36  1  0
  1 37  1  0
  8 38  1  0
  8 39  1  0
 15 40  1  0
 17 41  1  0
 19 42  1  0
 20 43  1  0
 22 44  1  0
 22 45  1  0
 23 46  1  0
 23 47  1  0
 24 48  1  0
 24 49  1  0
 27 50  1  0
 27 51  1  0
 27 52  1  0
 28 53  1  0
 28 54  1  0
 28 55  1  0
 30 56  1  0
 30 57  1  0
 30 58  1  0
 31 59  1  0
 31 60  1  0
 31 61  1  0
 32 62  1  0
 32 63  1  0
 32 64  1  0
 33 65  1  0
M  CHG  1  15  -1
M  END
>  <UniqueID>  (2) 
2

>  <SMILES>  (2) 
Cc1oc(=O)oc1COC(=O)n1c(C([NH-])=O)cc2ccc(CCCO[Si](C)(C)C(C)(C)C)cc21

>  <Energy>  (2) 
106.58440467649176

>  <Genealogy>  (2) 
Cc1oc(=O)oc1COC(=O)n1c(C([NH-])=O)cc2ccc(CCCO[Si](C)(C)C(C)(C)C)cc21 (protonated)
Cc1oc(=O)oc1COC(=O)n1c(C([NH-])=O)cc2ccc(CCCO[Si](C)(C)C(C)(C)C)cc21 (3D coordinates assigned)
Cc1oc(=O)oc1COC(=O)n1c(C([NH-])=O)cc2ccc(CCCO[Si](C)(C)C(C)(C)C)cc21 (optimized conformer: 106.58440467649176 kcal/mol)

>  <smiles>  (2) 
Cc1oc(=O)oc1COC(=O)n1c(C(N)=O)cc2ccc(CCCO[Si](C)(C)C(C)(C)C)cc21

>  <score_type>  (2) 
oracle

>  <origin>  (2) 
adg

>  <m_score__min__energy>  (2) 
-8.3399999999999999

>  <m_primary>  (2) 
energy

$$$$
2:0
     RDKit          3D

 36 37  0  0  0  0  0  0  0  0999 V2000
  149.6170  151.7870  132.0800 C   0  0  0  0  0  0  0  0  0  0  0  0
  148.8660  153.0330  132.1090 N   0  0  0  0  0  0  0  0  0  0  0  0
  148.1800  153.4970  133.2750 C   0  0  0  0  0  0  0  0  0  0  0  0
  148.6460  153.2500  134.4200 O   0  0  0  0  0  0  0  0  0  0  0  0
  146.9610  154.2470  133.1420 N   0  0  0  0  0  0  0  0  0  0  0  0
  145.7080  153.7600  132.9130 C   0  0  0  0  0  0  0  0  0  0  0  0
  145.3760  152.3500  132.6100 C   0  0  0  0  0  0  0  0  0  0  0  0
  146.2690  151.5380  131.8460 N   0  0  0  0  0  0  0  0  0  0  0  0
  144.3110  151.8420  133.0500 O   0  0  0  0  0  0  0  0  0  0  0  0
  144.7750  154.7960  132.9140 C   0  0  0  0  0  0  0  0  0  0  0  0
  145.5010  155.9400  133.1540 C   0  0  0  0  0  0  0  0  0  0  0  0
  145.0750  157.2600  133.2750 C   0  0  0  0  0  0  0  0  0  0  0  0
  146.0400  158.2400  133.5580 C   0  0  0  0  0  0  0  0  0  0  0  0
  147.4030  157.8860  133.7190 C   0  0  0  0  0  0  0  0  0  0  0  0
  148.4250  158.9430  134.0630 C   0  0  0  0  0  0  0  0  0  0  0  0
  148.4530  160.1090  133.0530 C   0  0  2  0  0  0  0  0  0  0  0  0
  147.1770  160.8300  133.0470 N   0  0  0  0  0  0  0  0  0  0  0  0
  148.7940  159.6200  131.6700 C   0  0  0  0  0  0  0  0  0  0  0  0
  148.1130  159.9850  130.6750 O   0  0  0  0  0  0  0  0  0  0  0  0
  149.8340  158.7170  131.4940 O   0  0  0  0  0  0  0  0  0  0  0  0
  147.7970  156.5360  133.5900 C   0  0  0  0  0  0  0  0  0  0  0  0
  146.8170  155.5830  133.2880 C   0  0  0  0  0  0  0  0  0  0  0  0
  149.8169  151.4553  133.1096 H   0  0  0  0  0  0  0  0  0  0  0  0
  149.0317  151.0182  131.5543 H   0  0  0  0  0  0  0  0  0  0  0  0
  150.5701  151.9455  131.5543 H   0  0  0  0  0  0  0  0  0  0  0  0
  146.0430  150.5330  131.6720 H   0  0  0  0  0  0  0  0  0  0  0  0
  147.1310  151.9360  131.4130 H   0  0  0  0  0  0  0  0  0  0  0  0
  143.6893  154.7159  132.7564 H   0  0  0  0  0  0  0  0  0  0  0  0
  144.0149  157.5270  133.1526 H   0  0  0  0  0  0  0  0  0  0  0  0
  145.7353  159.2924  133.6557 H   0  0  0  0  0  0  0  0  0  0  0  0
  148.1889  159.3475  135.0583 H   0  0  0  0  0  0  0  0  0  0  0  0
  149.4145  158.4632  134.0377 H   0  0  0  0  0  0  0  0  0  0  0  0
  149.2401  160.8084  133.3712 H   0  0  0  0  0  0  0  0  0  0  0  0
  147.3790  161.8530  132.9630 H   0  0  0  0  0  0  0  0  0  0  0  0
  146.6560  160.5680  132.1790 H   0  0  0  0  0  0  0  0  0  0  0  0
  148.8481  156.2405  133.7235 H   0  0  0  0  0  0  0  0  0  0  0  0
  1  2  1  0
  2  3  1  0
  3  4  2  0
  3  5  1  0
  5  6  1  0
  6  7  1  0
  7  8  1  0
  7  9  2  0
  6 10  2  0
 10 11  1  0
 11 12  2  0
 12 13  1  0
 13 14  2  0
 14 15  1  0
 15 16  1  0
 16 17  1  0
 16 18  1  0
 18 19  2  0
 18 20  1  0
 14 21  1  0
 21 22  2  0
 22  5  1  0
 22 11  1  0
  1 23  1  0
  1 24  1  0
  1 25  1  0
  8 26  1  0
  8 27  1  0
 10 28  1  0
 12 29  1  0
 13 30  1  0
 15 31  1  0
 15 32  1  0
 16 33  1  1
 17 34  1  0
 17 35  1  0
 21 36  1  0
M  CHG  2   2  -1  20  -1
M  END
>  <UniqueID>  (3) 
3

>  <SMILES>  (3) 
C[N-]C(=O)n1c(C(N)=O)cc2ccc(C[C@H](N)C(=O)[O-])cc21

>  <Energy>  (3) 
69.91733730495906

>  <Genealogy>  (3) 
C[N-]C(=O)n1c(C(N)=O)cc2ccc(C[C@H](N)C(=O)[O-])cc21 (protonated)
C[N-]C(=O)n1c(C(N)=O)cc2ccc(C[C@H](N)C(=O)[O-])cc21 (3D coordinates assigned)
C[N-]C(=O)n1c(C(N)=O)cc2ccc(C[C@H](N)C(=O)[O-])cc21 (optimized conformer: 69.91733730495906 kcal/mol)

>  <smiles>  (3) 
CNC(=O)n1c(C(N)=O)cc2ccc(C[C@H](N)C(=O)O)cc21

>  <score_type>  (3) 
oracle

>  <origin>  (3) 
adg

>  <m_score__min__energy>  (3) 
-7.0700000000000003

>  <m_primary>  (3) 
energy

$$$$
3:0
     RDKit          3D

 32 34  0  0  0  0  0  0  0  0999 V2000
  149.9850  151.7100  132.2520 C   0  0  0  0  0  0  0  0  0  0  0  0
  148.9800  152.7110  132.5870 N   0  0  0  0  0  0  0  0  0  0  0  0
  149.1250  154.0440  132.4760 C   0  0  0  0  0  0  0  0  0  0  0  0
  147.9820  154.6500  132.9800 C   0  0  0  0  0  0  0  0  0  0  0  0
  147.6920  156.1040  133.0670 C   0  0  0  0  0  0  0  0  0  0  0  0
  148.7380  157.0560  132.9380 C   0  0  0  0  0  0  0  0  0  0  0  0
  148.4750  158.4330  133.0300 C   0  0  0  0  0  0  0  0  0  0  0  0
  147.1610  158.8340  133.2420 C   0  0  0  0  0  0  0  0  0  0  0  0
  146.6360  160.0970  133.3950 C   0  0  0  0  0  0  0  0  0  0  0  0
  145.2710  159.9070  133.5930 C   0  0  0  0  0  0  0  0  0  0  0  0
  144.3060  161.0200  133.7150 C   0  0  0  0  0  0  0  0  0  0  0  0
  142.9370  160.8470  133.3570 N   0  0  0  0  0  0  0  0  0  0  0  0
  144.7070  162.1530  134.0940 O   0  0  0  0  0  0  0  0  0  0  0  0
  144.9640  158.5790  133.5700 N   0  0  0  0  0  0  0  0  0  0  0  0
  143.6880  157.9690  133.8270 C   0  0  0  0  0  0  0  0  0  0  0  0
  143.4650  157.4000  134.9280 O   0  0  0  0  0  0  0  0  0  0  0  0
  142.6790  158.0250  132.8740 O   0  0  0  0  0  0  0  0  0  0  0  0
  146.1320  157.9360  133.3500 C   0  0  0  0  0  0  0  0  0  0  0  0
  146.3680  156.5570  133.2830 C   0  0  0  0  0  0  0  0  0  0  0  0
  147.1770  153.5980  133.4000 C   0  0  0  0  0  0  0  0  0  0  0  0
  147.8170  152.4410  133.1520 N   0  0  0  0  0  0  0  0  0  0  0  0
  150.4067  151.2900  133.1770 H   0  0  0  0  0  0  0  0  0  0  0  0
  149.5196  150.9059  131.6631 H   0  0  0  0  0  0  0  0  0  0  0  0
  150.7872  152.1786  131.6631 H   0  0  0  0  0  0  0  0  0  0  0  0
  149.9992  154.5644  132.0577 H   0  0  0  0  0  0  0  0  0  0  0  0
  149.7677  156.7106  132.7638 H   0  0  0  0  0  0  0  0  0  0  0  0
  149.2847  159.1718  132.9370 H   0  0  0  0  0  0  0  0  0  0  0  0
  147.1792  161.0531  133.3669 H   0  0  0  0  0  0  0  0  0  0  0  0
  142.6590  160.1790  132.6040 H   0  0  0  0  0  0  0  0  0  0  0  0
  145.5413  155.8402  133.3959 H   0  0  0  0  0  0  0  0  0  0  0  0
  146.1820  153.6952  133.8589 H   0  0  0  0  0  0  0  0  0  0  0  0
  147.4660  151.4830  133.3770 H   0  0  0  0  0  0  0  0  0  0  0  0
  1  2  1  0
  2  3  1  0
  3  4  2  0
  4  5  1  0
  5  6  2  0
  6  7  1  0
  7  8  2  0
  8  9  1  0
  9 10  2  0
 10 11  1  0
 11 12  1  0
 11 13  2  0
 10 14  1  0
 14 15  1  0
 15 16  2  0
 15 17  1  0
 14 18  1  0
 18 19  2  0
  4 20  1  0
 20 21  2  0
 21  2  1  0
 19  5  1  0
 18  8  1  0
  1 22  1  0
  1 23  1  0
  1 24  1  0
  3 25  1  0
  6 26  1  0
  7 27  1  0
  9 28  1  0
 12 29  1  0
 19 30  1  0
 20 31  1  0
 21 32  1  0
M  CHG  3  12  -1  17  -1  21   1
M  END
>  <UniqueID>  (4) 
4

>  <SMILES>  (4) 
Cn1cc(-c2ccc3cc(C([NH-])=O)n(C(=O)[O-])c3c2)c[nH+]1

>  <Energy>  (4) 
106.03870868899504

>  <Genealogy>  (4) 
Cn1cc(-c2ccc3cc(C([NH-])=O)n(C(=O)[O-])c3c2)c[nH+]1 (protonated)
Cn1cc(-c2ccc3cc(C([NH-])=O)n(C(=O)[O-])c3c2)c[nH+]1 (3D coordinates assigned)
Cn1cc(-c2ccc3cc(C([NH-])=O)n(C(=O)[O-])c3c2)c[nH+]1 (optimized conformer: 106.03870868899504 kcal/mol)

>  <smiles>  (4) 
Cn1cc(-c2ccc3cc(C(N)=O)n(C(=O)O)c3c2)cn1

>  <score_type>  (4) 
oracle

>  <origin>  (4) 
adg

>  <m_score__min__energy>  (4) 
-6.9000000000000004

>  <m_primary>  (4) 
energy

$$$$
4:0
     RDKit          3D

 45 46  0  0  0  0  0  0  0  0999 V2000
  138.7490  158.2810  132.1040 C   0  0  0  0  0  0  0  0  0  0  0  0
  139.6320  157.1470  132.6100 C   0  0  0  0  0  0  0  0  0  0  0  0
  139.6290  157.1120  134.1100 C   0  0  0  0  0  0  0  0  0  0  0  0
  138.7310  157.7300  134.7430 O   0  0  0  0  0  0  0  0  0  0  0  0
  140.6990  156.4800  134.8260 N   0  0  0  0  0  0  0  0  0  0  0  0
  141.3400  156.9240  135.9430 C   0  0  0  0  0  0  0  0  0  0  0  0
  141.1700  158.2530  136.5670 C   0  0  0  0  0  0  0  0  0  0  0  0
  139.9550  158.6020  137.2260 N   0  0  0  0  0  0  0  0  0  0  0  0
  142.0940  159.1050  136.4840 O   0  0  0  0  0  0  0  0  0  0  0  0
  142.2630  155.9780  136.3830 C   0  0  0  0  0  0  0  0  0  0  0  0
  142.1780  154.9380  135.4840 C   0  0  0  0  0  0  0  0  0  0  0  0
  142.8740  153.7340  135.4340 C   0  0  0  0  0  0  0  0  0  0  0  0
  142.5770  152.8450  134.3890 C   0  0  0  0  0  0  0  0  0  0  0  0
  141.6000  153.1730  133.4150 C   0  0  0  0  0  0  0  0  0  0  0  0
  141.2820  152.2040  132.3110 C   0  0  0  0  0  0  0  0  0  0  0  0
  140.6930  150.9510  132.8740 C   0  0  0  0  0  0  0  0  0  0  0  0
  141.1750  150.4510  133.9260 O   0  0  0  0  0  0  0  0  0  0  0  0
  139.6080  150.3510  132.2260 O   0  0  0  0  0  0  0  0  0  0  0  0
  139.4900  148.9420  132.0240 C   0  0  0  0  0  0  0  0  0  0  0  0
  138.9820  148.6230  130.6040 C   0  0  0  0  0  0  0  0  0  0  0  0
  139.7840  149.4040  129.5540 C   0  0  0  0  0  0  0  0  0  0  0  0
  139.0940  147.1170  130.3350 C   0  0  0  0  0  0  0  0  0  0  0  0
  137.6480  148.9850  130.5000 F   0  0  0  0  0  0  0  0  0  0  0  0
  140.8990  154.3970  133.5090 C   0  0  0  0  0  0  0  0  0  0  0  0
  141.2270  155.2680  134.5530 C   0  0  0  0  0  0  0  0  0  0  0  0
  138.3249  158.8256  132.9605 H   0  0  0  0  0  0  0  0  0  0  0  0
  139.3509  158.9698  131.4931 H   0  0  0  0  0  0  0  0  0  0  0  0
  137.9337  157.8662  131.4931 H   0  0  0  0  0  0  0  0  0  0  0  0
  139.2500  156.1903  132.2243 H   0  0  0  0  0  0  0  0  0  0  0  0
  140.6613  157.3119  132.2587 H   0  0  0  0  0  0  0  0  0  0  0  0
  139.0490  158.6190  136.7070 H   0  0  0  0  0  0  0  0  0  0  0  0
  142.9205  156.0470  137.2622 H   0  0  0  0  0  0  0  0  0  0  0  0
  143.6336  153.4865  136.1902 H   0  0  0  0  0  0  0  0  0  0  0  0
  143.1078  151.8837  134.3250 H   0  0  0  0  0  0  0  0  0  0  0  0
  140.5611  152.6652  131.6199 H   0  0  0  0  0  0  0  0  0  0  0  0
  142.2101  151.9541  131.7760 H   0  0  0  0  0  0  0  0  0  0  0  0
  140.4760  148.4754  132.1656 H   0  0  0  0  0  0  0  0  0  0  0  0
  138.7654  148.5455  132.7504 H   0  0  0  0  0  0  0  0  0  0  0  0
  140.4839  150.0856  130.0596 H   0  0  0  0  0  0  0  0  0  0  0  0
  140.3481  148.6996  128.9249 H   0  0  0  0  0  0  0  0  0  0  0  0
  139.0948  149.9865  128.9249 H   0  0  0  0  0  0  0  0  0  0  0  0
  139.1343  146.5756  131.2917 H   0  0  0  0  0  0  0  0  0  0  0  0
  138.2184  146.7811  129.7602 H   0  0  0  0  0  0  0  0  0  0  0  0
  140.0097  146.9143  129.7602 H   0  0  0  0  0  0  0  0  0  0  0  0
  140.1167  154.6573  132.7808 H   0  0  0  0  0  0  0  0  0  0  0  0
  1  2  1  0
  2  3  1  0
  3  4  2  0
  3  5  1  0
  5  6  1  0
  6  7  1  0
  7  8  1  0
  7  9  2  0
  6 10  2  0
 10 11  1  0
 11 12  2  0
 12 13  1  0
 13 14  2  0
 14 15  1  0
 15 16  1  0
 16 17  2  0
 16 18  1  0
 18 19  1  0
 19 20  1  0
 20 21  1  0
 20 22  1  0
 20 23  1  0
 14 24  1  0
 24 25  2  0
 25  5  1  0
 25 11  1  0
  1 26  1  0
  1 27  1  0
  1 28  1  0
  2 29  1  0
  2 30  1  0
  8 31  1  0
 10 32  1  0
 12 33  1  0
 13 34  1  0
 15 35  1  0
 15 36  1  0
 19 37  1  0
 19 38  1  0
 21 39  1  0
 21 40  1  0
 21 41  1  0
 22 42  1  0
 22 43  1  0
 22 44  1  0
 24 45  1  0
M  CHG  1   8  -1
M  END
>  <UniqueID>  (5) 
5

>  <SMILES>  (5) 
CCC(=O)n1c(C([NH-])=O)cc2ccc(CC(=O)OCC(C)(C)F)cc21

>  <Energy>  (5) 
70.88273826628104

>  <Genealogy>  (5) 
CCC(=O)n1c(C([NH-])=O)cc2ccc(CC(=O)OCC(C)(C)F)cc21 (protonated)
CCC(=O)n1c(C([NH-])=O)cc2ccc(CC(=O)OCC(C)(C)F)cc21 (3D coordinates assigned)
CCC(=O)n1c(C([NH-])=O)cc2ccc(CC(=O)OCC(C)(C)F)cc21 (optimized conformer: 70.88273826628104 kcal/mol)

>  <smiles>  (5) 
CCC(=O)n1c(C(N)=O)cc2ccc(CC(=O)OCC(C)(C)F)cc21

>  <score_type>  (5) 
oracle

>  <origin>  (5) 
adg

>  <m_score__min__energy>  (5) 
-7.0800000000000001

>  <m_primary>  (5) 
energy

$$$$
5:0
     RDKit          3D

 35 37  0  0  0  0  0  0  0  0999 V2000
  141.1220  160.8630  133.5960 N   0  0  0  0  0  0  0  0  0  0  0  0
  141.8730  160.0890  134.5290 C   0  0  0  0  0  0  0  0  0  0  0  0
  141.3720  159.8230  135.6530 O   0  0  0  0  0  0  0  0  0  0  0  0
  143.2410  159.6470  134.1850 C   0  0  0  0  0  0  0  0  0  0  0  0
  143.6000  158.3080  134.0440 C   0  0  0  0  0  0  0  0  0  0  0  0
  144.9140  158.3230  133.6370 C   0  0  0  0  0  0  0  0  0  0  0  0
  145.7750  157.2670  133.3550 C   0  0  0  0  0  0  0  0  0  0  0  0
  147.0920  157.5730  132.9780 C   0  0  0  0  0  0  0  0  0  0  0  0
  147.5260  158.9200  132.8980 C   0  0  0  0  0  0  0  0  0  0  0  0
  148.9390  159.2410  132.4800 C   0  0  0  0  0  0  0  0  0  0  0  0
  149.0530  159.4510  130.9560 C   0  0  0  0  0  0  0  0  0  0  0  0
  148.7450  158.2730  130.2430 O   0  0  0  0  0  0  0  0  0  0  0  0
  148.2640  160.6660  130.4520 C   0  0  0  0  0  0  0  0  0  0  0  0
  149.5650  161.3100  129.9840 C   0  0  0  0  0  0  0  0  0  0  0  0
  150.3600  160.1140  130.4990 C   0  0  0  0  0  0  0  0  0  0  0  0
  146.6220  159.9660  133.1920 C   0  0  0  0  0  0  0  0  0  0  0  0
  145.3110  159.6320  133.5470 C   0  0  0  0  0  0  0  0  0  0  0  0
  144.2950  160.4580  133.8830 N   0  0  0  0  0  0  0  0  0  0  0  0
  144.3560  161.8920  133.9600 C   0  0  0  0  0  0  0  0  0  0  0  0
  143.5030  162.5990  133.3620 O   0  0  0  0  0  0  0  0  0  0  0  0
  145.3430  162.5130  134.7150 O   0  0  0  0  0  0  0  0  0  0  0  0
  141.5150  161.7390  133.1860 H   0  0  0  0  0  0  0  0  0  0  0  0
  142.9669  157.4260  134.2207 H   0  0  0  0  0  0  0  0  0  0  0  0
  145.4338  156.2236  133.4254 H   0  0  0  0  0  0  0  0  0  0  0  0
  147.7941  156.7596  132.7424 H   0  0  0  0  0  0  0  0  0  0  0  0
  149.2611  160.1603  132.9910 H   0  0  0  0  0  0  0  0  0  0  0  0
  149.5785  158.3897  132.7562 H   0  0  0  0  0  0  0  0  0  0  0  0
  148.7860  157.5020  130.8680 H   0  0  0  0  0  0  0  0  0  0  0  0
  147.5573  160.4383  129.6403 H   0  0  0  0  0  0  0  0  0  0  0  0
  147.5830  161.2079  131.1247 H   0  0  0  0  0  0  0  0  0  0  0  0
  149.6268  161.4521  128.8950 H   0  0  0  0  0  0  0  0  0  0  0  0
  149.8256  162.3276  130.3106 H   0  0  0  0  0  0  0  0  0  0  0  0
  150.8963  159.5588  129.7153 H   0  0  0  0  0  0  0  0  0  0  0  0
  151.1909  160.2573  131.2054 H   0  0  0  0  0  0  0  0  0  0  0  0
  146.9418  161.0173  133.1428 H   0  0  0  0  0  0  0  0  0  0  0  0
  1  2  1  0
  2  3  2  0
  2  4  1  0
  4  5  2  0
  5  6  1  0
  6  7  2  0
  7  8  1  0
  8  9  2  0
  9 10  1  0
 10 11  1  0
 11 12  1  0
 11 13  1  0
 13 14  1  0
 14 15  1  0
  9 16  1  0
 16 17  2  0
 17 18  1  0
 18 19  1  0
 19 20  2  0
 19 21  1  0
 18  4  1  0
 17  6  1  0
 15 11  1  0
  1 22  1  0
  5 23  1  0
  7 24  1  0
  8 25  1  0
 10 26  1  0
 10 27  1  0
 12 28  1  0
 13 29  1  0
 13 30  1  0
 14 31  1  0
 14 32  1  0
 15 33  1  0
 15 34  1  0
 16 35  1  0
M  CHG  2   1  -1  21  -1
M  END
>  <UniqueID>  (6) 
6

>  <SMILES>  (6) 
[NH-]C(=O)c1cc2ccc(CC3(O)CCC3)cc2n1C(=O)[O-]

>  <Energy>  (6) 
136.31895087488465

>  <Genealogy>  (6) 
[NH-]C(=O)c1cc2ccc(CC3(O)CCC3)cc2n1C(=O)[O-] (protonated)
[NH-]C(=O)c1cc2ccc(CC3(O)CCC3)cc2n1C(=O)[O-] (3D coordinates assigned)
[NH-]C(=O)c1cc2ccc(CC3(O)CCC3)cc2n1C(=O)[O-] (nonaromatic ring conformer: 136.31895087488465 kcal/mol)

>  <smiles>  (6) 
NC(=O)c1cc2ccc(CC3(O)CCC3)cc2n1C(=O)O

>  <score_type>  (6) 
oracle

>  <origin>  (6) 
adg

>  <m_score__min__energy>  (6) 
-7.6200000000000001

>  <m_primary>  (6) 
energy

$$$$
6:0
     RDKit          3D

 54 57  0  0  0  0  0  0  0  0999 V2000
  148.2070  160.6630  131.3030 N   0  0  0  0  0  0  0  0  0  0  0  0
  148.7350  159.5040  131.9440 C   0  0  0  0  0  0  0  0  0  0  0  0
  149.9820  159.3230  131.9580 O   0  0  0  0  0  0  0  0  0  0  0  0
  147.8420  158.4890  132.5370 C   0  0  0  0  0  0  0  0  0  0  0  0
  148.1440  157.1290  132.5700 C   0  0  0  0  0  0  0  0  0  0  0  0
  147.0350  156.5220  133.1100 C   0  0  0  0  0  0  0  0  0  0  0  0
  146.7960  155.1810  133.3890 C   0  0  0  0  0  0  0  0  0  0  0  0
  145.5710  154.8390  133.9840 C   0  0  0  0  0  0  0  0  0  0  0  0
  144.6040  155.8350  134.2890 C   0  0  0  0  0  0  0  0  0  0  0  0
  143.3090  155.4360  134.9810 C   0  0  1  0  0  0  0  0  0  0  0  0
  142.1890  155.1530  133.9530 C   0  0  0  0  0  0  0  0  0  0  0  0
  142.2240  153.7280  133.3740 C   0  0  0  0  0  0  0  0  0  0  0  0
  142.4830  152.6190  134.4300 C   0  0  2  0  0  0  0  0  0  0  0  0
  141.4810  151.5610  134.3220 N   0  0  0  0  0  0  0  0  0  0  0  0
  140.9800  151.0760  133.0730 C   0  0  0  0  0  0  0  0  0  0  0  0
  139.9770  151.6210  132.5340 O   0  0  0  0  0  0  0  0  0  0  0  0
  141.6180  149.9920  132.4600 O   0  0  0  0  0  0  0  0  0  0  0  0
  141.0670  148.6780  132.4260 C   0  0  0  0  0  0  0  0  0  0  0  0
  140.2600  148.4790  131.1730 C   0  0  0  0  0  0  0  0  0  0  0  0
  139.9150  147.1880  130.7390 C   0  0  0  0  0  0  0  0  0  0  0  0
  139.1460  147.0150  129.5830 C   0  0  0  0  0  0  0  0  0  0  0  0
  138.7150  148.1280  128.8560 C   0  0  0  0  0  0  0  0  0  0  0  0
  139.0500  149.4150  129.2830 C   0  0  0  0  0  0  0  0  0  0  0  0
  139.8180  149.5920  130.4390 C   0  0  0  0  0  0  0  0  0  0  0  0
  142.4850  153.1600  135.8670 C   0  0  0  0  0  0  0  0  0  0  0  0
  143.5090  154.2910  136.0170 C   0  0  0  0  0  0  0  0  0  0  0  0
  144.8940  157.1900  133.9970 C   0  0  0  0  0  0  0  0  0  0  0  0
  146.1150  157.4990  133.3900 C   0  0  0  0  0  0  0  0  0  0  0  0
  146.5980  158.7150  133.0450 N   0  0  0  0  0  0  0  0  0  0  0  0
  145.9610  159.9820  133.2770 C   0  0  0  0  0  0  0  0  0  0  0  0
  146.6320  160.9680  133.6800 O   0  0  0  0  0  0  0  0  0  0  0  0
  144.6030  160.1400  133.0290 O   0  0  0  0  0  0  0  0  0  0  0  0
  147.7040  161.3970  131.8490 H   0  0  0  0  0  0  0  0  0  0  0  0
  149.0728  156.6440  132.2350 H   0  0  0  0  0  0  0  0  0  0  0  0
  147.5444  154.4109  133.1507 H   0  0  0  0  0  0  0  0  0  0  0  0
  145.3567  153.7856  134.2173 H   0  0  0  0  0  0  0  0  0  0  0  0
  142.9739  156.2974  135.5773 H   0  0  0  0  0  0  0  0  0  0  0  0
  142.2914  155.8674  133.1229 H   0  0  0  0  0  0  0  0  0  0  0  0
  141.2317  155.2598  134.4842 H   0  0  0  0  0  0  0  0  0  0  0  0
  143.0243  153.6810  132.6208 H   0  0  0  0  0  0  0  0  0  0  0  0
  141.2279  153.5343  132.9494 H   0  0  0  0  0  0  0  0  0  0  0  0
  143.4841  152.2164  134.2159 H   0  0  0  0  0  0  0  0  0  0  0  0
  141.8840  147.9419  132.4514 H   0  0  0  0  0  0  0  0  0  0  0  0
  140.4099  148.5445  133.2980 H   0  0  0  0  0  0  0  0  0  0  0  0
  140.2507  146.3099  131.3102 H   0  0  0  0  0  0  0  0  0  0  0  0
  138.8804  146.0021  129.2461 H   0  0  0  0  0  0  0  0  0  0  0  0
  138.1114  147.9904  127.9467 H   0  0  0  0  0  0  0  0  0  0  0  0
  138.7097  150.2901  128.7099 H   0  0  0  0  0  0  0  0  0  0  0  0
  140.0768  150.6071  130.7745 H   0  0  0  0  0  0  0  0  0  0  0  0
  142.7425  152.3451  136.5596 H   0  0  0  0  0  0  0  0  0  0  0  0
  141.4847  153.5547  136.0985 H   0  0  0  0  0  0  0  0  0  0  0  0
  144.5169  153.8708  135.8845 H   0  0  0  0  0  0  0  0  0  0  0  0
  143.3732  154.7264  137.0180 H   0  0  0  0  0  0  0  0  0  0  0  0
  144.1730  157.9836  134.2428 H   0  0  0  0  0  0  0  0  0  0  0  0
  1  2  1  0
  2  3  2  0
  2  4  1  0
  4  5  2  0
  5  6  1  0
  6  7  2  0
  7  8  1  0
  8  9  2  0
  9 10  1  0
 10 11  1  0
 11 12  1  0
 12 13  1  0
 13 14  1  0
 14 15  1  0
 15 16  2  0
 15 17  1  0
 17 18  1  0
 18 19  1  0
 19 20  2  0
 20 21  1  0
 21 22  2  0
 22 23  1  0
 23 24  2  0
 13 25  1  0
 25 26  1  0
  9 27  1  0
 27 28  2  0
 28 29  1  0
 29 30  1  0
 30 31  2  0
 30 32  1  0
 29  4  1  0
 28  6  1  0
 26 10  1  0
 24 19  1  0
  1 33  1  0
  5 34  1  0
  7 35  1  0
  8 36  1  0
 10 37  1  1
 11 38  1  0
 11 39  1  0
 12 40  1  0
 12 41  1  0
 13 42  1  6
 18 43  1  0
 18 44  1  0
 20 45  1  0
 21 46  1  0
 22 47  1  0
 23 48  1  0
 24 49  1  0
 25 50  1  0
 25 51  1  0
 26 52  1  0
 26 53  1  0
 27 54  1  0
M  CHG  3   1  -1  14  -1  32  -1
M  END
>  <UniqueID>  (7) 
7

>  <SMILES>  (7) 
[NH-]C(=O)c1cc2ccc(C3CCC([N-]C(=O)OCc4ccccc4)CC3)cc2n1C(=O)[O-]

>  <Energy>  (7) 
99.50759736457925

>  <Genealogy>  (7) 
[NH-]C(=O)c1cc2ccc(C3CCC([N-]C(=O)OCc4ccccc4)CC3)cc2n1C(=O)[O-] (protonated)
[NH-]C(=O)c1cc2ccc(C3CCC([N-]C(=O)OCc4ccccc4)CC3)cc2n1C(=O)[O-] (3D coordinates assigned)
[NH-]C(=O)c1cc2ccc(C3CCC([N-]C(=O)OCc4ccccc4)CC3)cc2n1C(=O)[O-] (nonaromatic ring conformer: 99.50759736457925 kcal/mol)

>  <smiles>  (7) 
NC(=O)c1cc2ccc(C3CCC(NC(=O)OCc4ccccc4)CC3)cc2n1C(=O)O

>  <score_type>  (7) 
oracle

>  <origin>  (7) 
adg

>  <m_score__min__energy>  (7) 
-10.07

>  <m_primary>  (7) 
energy

$$$$
7:0
     RDKit          3D

 38 39  0  0  0  0  0  0  0  0999 V2000
  149.5910  162.0250  130.1760 C   0  0  0  0  0  0  0  0  0  0  0  0
  148.9900  161.1700  131.1410 O   0  0  0  0  0  0  0  0  0  0  0  0
  149.3100  159.8140  131.2450 C   0  0  0  0  0  0  0  0  0  0  0  0
  150.3730  159.3630  130.7360 O   0  0  0  0  0  0  0  0  0  0  0  0
  148.3970  158.9020  132.0260 C   0  0  1  0  0  0  0  0  0  0  0  0
  149.0130  157.5860  132.2230 N   0  0  0  0  0  0  0  0  0  0  0  0
  148.0280  159.5180  133.3870 C   0  0  0  0  0  0  0  0  0  0  0  0
  146.5340  159.6490  133.5500 C   0  0  0  0  0  0  0  0  0  0  0  0
  145.9470  160.9260  133.7350 C   0  0  0  0  0  0  0  0  0  0  0  0
  144.5530  161.0640  133.8510 C   0  0  0  0  0  0  0  0  0  0  0  0
  143.7760  159.9120  133.7660 C   0  0  0  0  0  0  0  0  0  0  0  0
  142.4110  159.7530  133.8530 C   0  0  0  0  0  0  0  0  0  0  0  0
  142.1870  158.3870  133.6920 C   0  0  0  0  0  0  0  0  0  0  0  0
  140.8400  157.7820  133.6310 C   0  0  0  0  0  0  0  0  0  0  0  0
  140.6300  156.5230  132.9990 N   0  0  0  0  0  0  0  0  0  0  0  0
  139.8530  158.4050  134.1100 O   0  0  0  0  0  0  0  0  0  0  0  0
  143.3670  157.7260  133.5250 N   0  0  0  0  0  0  0  0  0  0  0  0
  143.5850  156.3130  133.4020 C   0  0  0  0  0  0  0  0  0  0  0  0
  143.9140  155.4820  134.6010 C   0  0  0  0  0  0  0  0  0  0  0  0
  143.5710  155.7740  132.2640 O   0  0  0  0  0  0  0  0  0  0  0  0
  144.3280  158.6740  133.5670 C   0  0  0  0  0  0  0  0  0  0  0  0
  145.7120  158.5040  133.4610 C   0  0  0  0  0  0  0  0  0  0  0  0
  150.1505  162.8210  130.6892 H   0  0  0  0  0  0  0  0  0  0  0  0
  150.2784  161.4411  129.5463 H   0  0  0  0  0  0  0  0  0  0  0  0
  148.8088  162.4741  129.5463 H   0  0  0  0  0  0  0  0  0  0  0  0
  147.4757  158.7760  131.4384 H   0  0  0  0  0  0  0  0  0  0  0  0
  149.5990  157.3610  131.3860 H   0  0  0  0  0  0  0  0  0  0  0  0
  149.6460  157.6150  133.0540 H   0  0  0  0  0  0  0  0  0  0  0  0
  148.4195  158.8741  134.1883 H   0  0  0  0  0  0  0  0  0  0  0  0
  148.4697  160.5240  133.4406 H   0  0  0  0  0  0  0  0  0  0  0  0
  146.5888  161.8178  133.7883 H   0  0  0  0  0  0  0  0  0  0  0  0
  144.0909  162.0504  134.0040 H   0  0  0  0  0  0  0  0  0  0  0  0
  141.6573  160.5377  134.0151 H   0  0  0  0  0  0  0  0  0  0  0  0
  141.4170  156.0160  132.5360 H   0  0  0  0  0  0  0  0  0  0  0  0
  143.6886  156.0514  135.5148 H   0  0  0  0  0  0  0  0  0  0  0  0
  143.3126  154.5611  134.5851 H   0  0  0  0  0  0  0  0  0  0  0  0
  144.9828  155.2223  134.5851 H   0  0  0  0  0  0  0  0  0  0  0  0
  146.1487  157.5054  133.3123 H   0  0  0  0  0  0  0  0  0  0  0  0
  1  2  1  0
  2  3  1  0
  3  4  2  0
  3  5  1  0
  5  6  1  0
  5  7  1  0
  7  8  1  0
  8  9  2  0
  9 10  1  0
 10 11  2  0
 11 12  1  0
 12 13  2  0
 13 14  1  0
 14 15  1  0
 14 16  2  0
 13 17  1  0
 17 18  1  0
 18 19  1  0
 18 20  2  0
 17 21  1  0
 21 22  2  0
 22  8  1  0
 21 11  1  0
  1 23  1  0
  1 24  1  0
  1 25  1  0
  5 26  1  6
  6 27  1  0
  6 28  1  0
  7 29  1  0
  7 30  1  0
  9 31  1  0
 10 32  1  0
 12 33  1  0
 15 34  1  0
 19 35  1  0
 19 36  1  0
 19 37  1  0
 22 38  1  0
M  CHG  1  15  -1
M  END
>  <UniqueID>  (8) 
8

>  <SMILES>  (8) 
COC(=O)[C@@H](N)Cc1ccc2cc(C([NH-])=O)n(C(C)=O)c2c1

>  <Energy>  (8) 
71.42911594101193

>  <Genealogy>  (8) 
COC(=O)C(N)Cc1ccc2cc(C([NH-])=O)n(C(C)=O)c2c1 (protonated)
COC(=O)[C@@H](N)Cc1ccc2cc(C([NH-])=O)n(C(C)=O)c2c1 (chirality)
COC(=O)[C@@H](N)Cc1ccc2cc(C([NH-])=O)n(C(C)=O)c2c1 (3D coordinates assigned)
COC(=O)[C@@H](N)Cc1ccc2cc(C([NH-])=O)n(C(C)=O)c2c1 (optimized conformer: 71.42911594101193 kcal/mol)

>  <smiles>  (8) 
COC(=O)C(N)Cc1ccc2cc(C(N)=O)n(C(C)=O)c2c1

>  <score_type>  (8) 
oracle

>  <origin>  (8) 
adg

>  <m_score__min__energy>  (8) 
-6.5199999999999996

>  <m_primary>  (8) 
energy

$$$$
8:0
     RDKit          3D

 43 46  0  0  0  0  0  0  0  0999 V2000
  149.4640  157.3590  132.2330 N   0  0  0  0  0  0  0  0  0  0  0  0
  148.9180  158.6700  132.3570 C   0  0  0  0  0  0  0  0  0  0  0  0
  149.6460  159.6680  132.1180 O   0  0  0  0  0  0  0  0  0  0  0  0
  147.5010  158.8430  132.7400 C   0  0  0  0  0  0  0  0  0  0  0  0
  146.9020  160.0820  132.9650 C   0  0  0  0  0  0  0  0  0  0  0  0
  145.6160  159.7980  133.3650 C   0  0  0  0  0  0  0  0  0  0  0  0
  144.5710  160.6530  133.7100 C   0  0  0  0  0  0  0  0  0  0  0  0
  143.3400  160.0770  134.0650 C   0  0  0  0  0  0  0  0  0  0  0  0
  143.1770  158.6680  134.0790 C   0  0  0  0  0  0  0  0  0  0  0  0
  141.8400  158.0640  134.4150 C   0  0  0  0  0  0  0  0  0  0  0  0
  141.7440  156.6250  133.8450 C   0  0  0  0  0  0  0  0  0  0  0  0
  141.6560  155.5120  134.8250 N   0  0  0  0  0  0  0  0  0  0  0  0
  142.6970  154.4870  134.6640 C   0  0  0  0  0  0  0  0  0  0  0  0
  143.2760  154.7540  136.0440 C   0  0  0  0  0  0  0  0  0  0  0  0
  144.5500  155.3310  135.9760 O   0  0  0  0  0  0  0  0  0  0  0  0
  142.1720  155.7930  136.1720 C   0  0  0  0  0  0  0  0  0  0  0  0
  144.2550  157.8340  133.7110 C   0  0  0  0  0  0  0  0  0  0  0  0
  145.4710  158.4360  133.3690 C   0  0  0  0  0  0  0  0  0  0  0  0
  146.6140  157.8370  132.9810 N   0  0  0  0  0  0  0  0  0  0  0  0
  146.8160  156.4250  132.8300 C   0  0  0  0  0  0  0  0  0  0  0  0
  146.9950  155.9420  131.6800 O   0  0  0  0  0  0  0  0  0  0  0  0
  146.8650  155.5410  134.0070 C   0  0  0  0  0  0  0  0  0  0  0  0
  147.3920  155.8260  135.2470 C   0  0  0  0  0  0  0  0  0  0  0  0
  147.2190  154.7560  136.0460 N   0  0  0  0  0  0  0  0  0  0  0  0
  146.6100  153.8440  135.3430 O   0  0  0  0  0  0  0  0  0  0  0  0
  146.3730  154.2590  134.1200 C   0  0  0  0  0  0  0  0  0  0  0  0
  149.0290  156.6550  131.5960 H   0  0  0  0  0  0  0  0  0  0  0  0
  147.3599  161.0753  132.8477 H   0  0  0  0  0  0  0  0  0  0  0  0
  144.7059  161.7447  133.7045 H   0  0  0  0  0  0  0  0  0  0  0  0
  142.4935  160.7254  134.3350 H   0  0  0  0  0  0  0  0  0  0  0  0
  141.7207  158.0306  135.5080 H   0  0  0  0  0  0  0  0  0  0  0  0
  141.0454  158.6804  133.9692 H   0  0  0  0  0  0  0  0  0  0  0  0
  140.8465  156.5793  133.2106 H   0  0  0  0  0  0  0  0  0  0  0  0
  142.6959  156.4644  133.3176 H   0  0  0  0  0  0  0  0  0  0  0  0
  142.2957  153.4696  134.5465 H   0  0  0  0  0  0  0  0  0  0  0  0
  143.3620  154.5369  133.7892 H   0  0  0  0  0  0  0  0  0  0  0  0
  143.4447  153.9654  136.7922 H   0  0  0  0  0  0  0  0  0  0  0  0
  145.1140  154.8140  136.6050 H   0  0  0  0  0  0  0  0  0  0  0  0
  141.4513  155.5705  136.9727 H   0  0  0  0  0  0  0  0  0  0  0  0
  142.4415  156.8268  136.4340 H   0  0  0  0  0  0  0  0  0  0  0  0
  144.1420  156.7400  133.6936 H   0  0  0  0  0  0  0  0  0  0  0  0
  147.8744  156.7712  135.5367 H   0  0  0  0  0  0  0  0  0  0  0  0
  145.8711  153.6853  133.3269 H   0  0  0  0  0  0  0  0  0  0  0  0
  1  2  1  0
  2  3  2  0
  2  4  1  0
  4  5  2  0
  5  6  1  0
  6  7  2  0
  7  8  1  0
  8  9  2  0
  9 10  1  0
 10 11  1  0
 11 12  1  0
 12 13  1  0
 13 14  1  0
 14 15  1  0
 14 16  1  0
  9 17  1  0
 17 18  2  0
 18 19  1  0
 19 20  1  0
 20 21  2  0
 20 22  1  0
 22 23  1  0
 23 24  2  0
 24 25  1  0
 25 26  1  0
 19  4  1  0
 26 22  2  0
 18  6  1  0
 16 12  1  0
  1 27  1  0
  5 28  1  0
  7 29  1  0
  8 30  1  0
 10 31  1  0
 10 32  1  0
 11 33  1  0
 11 34  1  0
 13 35  1  0
 13 36  1  0
 14 37  1  0
 15 38  1  0
 16 39  1  0
 16 40  1  0
 17 41  1  0
 23 42  1  0
 26 43  1  0
M  CHG  1   1  -1
M  END
>  <UniqueID>  (9) 
9

>  <SMILES>  (9) 
[NH-]C(=O)c1cc2ccc(CCN3CC(O)C3)cc2n1C(=O)c1cnoc1

>  <Energy>  (9) 
190.72527726425943

>  <Genealogy>  (9) 
[NH-]C(=O)c1cc2ccc(CCN3CC(O)C3)cc2n1C(=O)c1cnoc1 (protonated)
[NH-]C(=O)c1cc2ccc(CCN3CC(O)C3)cc2n1C(=O)c1cnoc1 (3D coordinates assigned)
[NH-]C(=O)c1cc2ccc(CCN3CC(O)C3)cc2n1C(=O)c1cnoc1 (nonaromatic ring conformer: 190.72527726425943 kcal/mol)

>  <smiles>  (9) 
NC(=O)c1cc2ccc(CCN3CC(O)C3)cc2n1C(=O)c1cnoc1

>  <score_type>  (9) 
oracle

>  <origin>  (9) 
adg

>  <m_score__min__energy>  (9) 
-8.3699999999999992

>  <m_primary>  (9) 
energy

$$$$
9:0
     RDKit          3D

 33 34  0  0  0  0  0  0  0  0999 V2000
  145.5890  160.4850  132.8850 N   0  0  0  0  0  0  0  0  0  0  0  0
  144.9530  159.3280  133.4310 C   0  0  0  0  0  0  0  0  0  0  0  0
  143.8040  159.4370  133.9380 O   0  0  0  0  0  0  0  0  0  0  0  0
  145.5880  157.9970  133.3540 C   0  0  0  0  0  0  0  0  0  0  0  0
  144.9260  156.8140  133.6650 C   0  0  0  0  0  0  0  0  0  0  0  0
  145.8340  155.8110  133.4070 C   0  0  0  0  0  0  0  0  0  0  0  0
  145.7130  154.4350  133.5640 C   0  0  0  0  0  0  0  0  0  0  0  0
  146.8290  153.6370  133.2640 C   0  0  0  0  0  0  0  0  0  0  0  0
  148.0380  154.2220  132.8070 C   0  0  0  0  0  0  0  0  0  0  0  0
  149.2490  153.3610  132.5520 C   0  0  0  0  0  0  0  0  0  0  0  0
  150.3310  154.1720  132.2610 F   0  0  0  0  0  0  0  0  0  0  0  0
  149.0250  152.5080  131.4850 F   0  0  0  0  0  0  0  0  0  0  0  0
  149.5480  152.5940  133.6650 F   0  0  0  0  0  0  0  0  0  0  0  0
  148.1290  155.6290  132.6880 C   0  0  0  0  0  0  0  0  0  0  0  0
  146.9940  156.3980  132.9700 C   0  0  0  0  0  0  0  0  0  0  0  0
  146.8600  157.7430  132.9350 N   0  0  0  0  0  0  0  0  0  0  0  0
  147.8880  158.6980  132.6280 C   0  0  0  0  0  0  0  0  0  0  0  0
  148.1590  159.6190  133.4470 O   0  0  0  0  0  0  0  0  0  0  0  0
  148.5890  158.6020  131.4220 O   0  0  0  0  0  0  0  0  0  0  0  0
  149.6710  159.4660  131.0890 C   0  0  0  0  0  0  0  0  0  0  0  0
  149.1420  160.7060  130.3740 C   0  0  0  0  0  0  0  0  0  0  0  0
  147.7850  160.8990  130.6650 O   0  0  0  0  0  0  0  0  0  0  0  0
  146.4540  160.4030  132.3100 H   0  0  0  0  0  0  0  0  0  0  0  0
  145.1420  161.4240  132.9850 H   0  0  0  0  0  0  0  0  0  0  0  0
  143.8969  156.7031  134.0375 H   0  0  0  0  0  0  0  0  0  0  0  0
  144.7717  153.9850  133.9126 H   0  0  0  0  0  0  0  0  0  0  0  0
  146.7650  152.5455  133.3848 H   0  0  0  0  0  0  0  0  0  0  0  0
  149.0705  156.1077  132.3808 H   0  0  0  0  0  0  0  0  0  0  0  0
  150.1922  159.7695  132.0089 H   0  0  0  0  0  0  0  0  0  0  0  0
  150.3689  158.9344  130.4254 H   0  0  0  0  0  0  0  0  0  0  0  0
  149.7121  161.5861  130.7060 H   0  0  0  0  0  0  0  0  0  0  0  0
  149.2568  160.5670  129.2889 H   0  0  0  0  0  0  0  0  0  0  0  0
  147.6450  160.5890  131.5970 H   0  0  0  0  0  0  0  0  0  0  0  0
  1  2  1  0
  2  3  2  0
  2  4  1  0
  4  5  2  0
  5  6  1  0
  6  7  2  0
  7  8  1  0
  8  9  2  0
  9 10  1  0
 10 11  1  0
 10 12  1  0
 10 13  1  0
  9 14  1  0
 14 15  2  0
 15 16  1  0
 16 17  1  0
 17 18  2  0
 17 19  1  0
 19 20  1  0
 20 21  1  0
 21 22  1  0
 16  4  1  0
 15  6  1  0
  1 23  1  0
  1 24  1  0
  5 25  1  0
  7 26  1  0
  8 27  1  0
 14 28  1  0
 20 29  1  0
 20 30  1  0
 21 31  1  0
 21 32  1  0
 22 33  1  0
M  END
>  <UniqueID>  (10) 
10

>  <SMILES>  (10) 
NC(=O)c1cc2ccc(C(F)(F)F)cc2n1C(=O)OCCO

>  <Energy>  (10) 
68.40290845599047

>  <Genealogy>  (10) 
NC(=O)c1cc2ccc(C(F)(F)F)cc2n1C(=O)OCCO (3D coordinates assigned)
NC(=O)c1cc2ccc(C(F)(F)F)cc2n1C(=O)OCCO (optimized conformer: 68.40290845599047 kcal/mol)

>  <smiles>  (10) 
NC(=O)c1cc2ccc(C(F)(F)F)cc2n1C(=O)OCCO

>  <score_type>  (10) 
oracle

>  <origin>  (10) 
adg

>  <m_score__min__energy>  (10) 
-5.71

>  <m_primary>  (10) 
energy

$$$$
10:0
     RDKit          3D

 40 42  0  0  0  0  0  0  0  0999 V2000
  148.4500  157.4950  131.7910 N   0  0  0  0  0  0  0  0  0  0  0  0
  148.0580  158.6610  132.5180 C   0  0  0  0  0  0  0  0  0  0  0  0
  148.8920  159.5890  132.6920 O   0  0  0  0  0  0  0  0  0  0  0  0
  146.6770  158.8260  133.0110 C   0  0  0  0  0  0  0  0  0  0  0  0
  146.0170  160.0510  133.0430 C   0  0  0  0  0  0  0  0  0  0  0  0
  144.7530  159.7690  133.5050 C   0  0  0  0  0  0  0  0  0  0  0  0
  143.6890  160.6200  133.7610 C   0  0  0  0  0  0  0  0  0  0  0  0
  142.5090  160.0690  134.2840 C   0  0  0  0  0  0  0  0  0  0  0  0
  142.3900  158.6680  134.5390 C   0  0  0  0  0  0  0  0  0  0  0  0
  141.1060  158.0480  135.1550 C   0  0  0  0  0  0  0  0  0  0  0  0
  141.0680  158.3760  136.6720 C   0  0  0  0  0  0  0  0  0  0  0  0
  140.6040  159.6780  136.9150 O   0  0  0  0  0  0  0  0  0  0  0  0
  139.7920  158.5890  134.5170 C   0  0  0  0  0  0  0  0  0  0  0  0
  139.6410  158.1520  133.0400 C   0  0  0  0  0  0  0  0  0  0  0  0
  140.6850  157.2910  132.6200 O   0  0  0  0  0  0  0  0  0  0  0  0
  140.7430  156.1480  133.4530 C   0  0  0  0  0  0  0  0  0  0  0  0
  141.0480  156.5070  134.9270 C   0  0  0  0  0  0  0  0  0  0  0  0
  143.5270  157.8490  134.2870 C   0  0  0  0  0  0  0  0  0  0  0  0
  144.6800  158.4230  133.7430 C   0  0  0  0  0  0  0  0  0  0  0  0
  145.8590  157.8280  133.4480 N   0  0  0  0  0  0  0  0  0  0  0  0
  146.2030  156.4480  133.6660 C   0  0  0  0  0  0  0  0  0  0  0  0
  146.3080  155.9970  134.8380 O   0  0  0  0  0  0  0  0  0  0  0  0
  146.4250  155.5990  132.5900 O   0  0  0  0  0  0  0  0  0  0  0  0
  147.7460  156.7900  131.4820 H   0  0  0  0  0  0  0  0  0  0  0  0
  149.4420  157.3780  131.4850 H   0  0  0  0  0  0  0  0  0  0  0  0
  146.4203  161.0343  132.7594 H   0  0  0  0  0  0  0  0  0  0  0  0
  143.7675  161.6985  133.5595 H   0  0  0  0  0  0  0  0  0  0  0  0
  141.6572  160.7299  134.5024 H   0  0  0  0  0  0  0  0  0  0  0  0
  140.3994  157.6609  137.1737 H   0  0  0  0  0  0  0  0  0  0  0  0
  142.0937  158.3015  137.0624 H   0  0  0  0  0  0  0  0  0  0  0  0
  139.6860  159.5940  137.2840 H   0  0  0  0  0  0  0  0  0  0  0  0
  138.9350  158.2054  135.0901 H   0  0  0  0  0  0  0  0  0  0  0  0
  139.8292  159.6881  134.5437 H   0  0  0  0  0  0  0  0  0  0  0  0
  138.6818  157.6262  132.9239 H   0  0  0  0  0  0  0  0  0  0  0  0
  139.6835  159.0577  132.4172 H   0  0  0  0  0  0  0  0  0  0  0  0
  139.7740  155.6293  133.4090 H   0  0  0  0  0  0  0  0  0  0  0  0
  141.5597  155.5080  133.0878 H   0  0  0  0  0  0  0  0  0  0  0  0
  140.2591  156.0833  135.5659 H   0  0  0  0  0  0  0  0  0  0  0  0
  142.0337  156.0896  135.1804 H   0  0  0  0  0  0  0  0  0  0  0  0
  143.4986  156.7740  134.5183 H   0  0  0  0  0  0  0  0  0  0  0  0
  1  2  1  0
  2  3  2  0
  2  4  1  0
  4  5  2  0
  5  6  1  0
  6  7  2  0
  7  8  1  0
  8  9  2  0
  9 10  1  0
 10 11  1  0
 11 12  1  0
 10 13  1  0
 13 14  1  0
 14 15  1  0
 15 16  1  0
 16 17  1  0
  9 18  1  0
 18 19  2  0
 19 20  1  0
 20 21  1  0
 21 22  2  0
 21 23  1  0
 20  4  1  0
 19  6  1  0
 17 10  1  0
  1 24  1  0
  1 25  1  0
  5 26  1  0
  7 27  1  0
  8 28  1  0
 11 29  1  0
 11 30  1  0
 12 31  1  0
 13 32  1  0
 13 33  1  0
 14 34  1  0
 14 35  1  0
 16 36  1  0
 16 37  1  0
 17 38  1  0
 17 39  1  0
 18 40  1  0
M  CHG  1  23  -1
M  END
>  <UniqueID>  (11) 
11

>  <SMILES>  (11) 
NC(=O)c1cc2ccc(C3(CO)CCOCC3)cc2n1C(=O)[O-]

>  <Energy>  (11) 
97.88711884851429

>  <Genealogy>  (11) 
NC(=O)c1cc2ccc(C3(CO)CCOCC3)cc2n1C(=O)[O-] (protonated)
NC(=O)c1cc2ccc(C3(CO)CCOCC3)cc2n1C(=O)[O-] (3D coordinates assigned)
NC(=O)c1cc2ccc(C3(CO)CCOCC3)cc2n1C(=O)[O-] (nonaromatic ring conformer: 97.88711884851429 kcal/mol)

>  <smiles>  (11) 
NC(=O)c1cc2ccc(C3(CO)CCOCC3)cc2n1C(=O)O

>  <score_type>  (11) 
oracle

>  <origin>  (11) 
adg

>  <m_score__min__energy>  (11) 
-7.2300000000000004

>  <m_primary>  (11) 
energy

$$$$
11:0
     RDKit          3D

 53 54  0  0  0  0  0  0  0  0999 V2000
  141.7300  158.5990  137.4340 C   0  0  0  0  0  0  0  0  0  0  0  0
  141.2550  157.2770  136.9350 C   0  0  0  0  0  0  0  0  0  0  0  0
  140.1630  156.8100  137.3560 O   0  0  0  0  0  0  0  0  0  0  0  0
  142.0080  156.5880  135.9780 O   0  0  0  0  0  0  0  0  0  0  0  0
  141.4460  155.6140  135.1060 C   0  0  0  0  0  0  0  0  0  0  0  0
  141.3420  156.1530  133.7930 O   0  0  0  0  0  0  0  0  0  0  0  0
  142.3430  156.9320  133.2060 C   0  0  0  0  0  0  0  0  0  0  0  0
  143.2160  156.3950  132.4720 O   0  0  0  0  0  0  0  0  0  0  0  0
  142.3940  158.3450  133.4750 N   0  0  0  0  0  0  0  0  0  0  0  0
  141.3510  159.2050  133.6550 C   0  0  0  0  0  0  0  0  0  0  0  0
  139.9240  158.8330  133.7600 C   0  0  0  0  0  0  0  0  0  0  0  0
  139.4780  158.0400  134.8580 N   0  0  0  0  0  0  0  0  0  0  0  0
  139.1020  159.1720  132.8690 O   0  0  0  0  0  0  0  0  0  0  0  0
  141.8150  160.5080  133.8250 C   0  0  0  0  0  0  0  0  0  0  0  0
  143.1870  160.4180  133.7560 C   0  0  0  0  0  0  0  0  0  0  0  0
  144.1530  161.4100  133.8630 C   0  0  0  0  0  0  0  0  0  0  0  0
  145.5000  161.0330  133.7380 C   0  0  0  0  0  0  0  0  0  0  0  0
  145.8660  159.6800  133.5020 C   0  0  0  0  0  0  0  0  0  0  0  0
  147.3460  159.3440  133.3350 C   0  0  1  0  0  0  0  0  0  0  0  0
  147.7610  157.8660  133.6470 C   0  0  0  0  0  0  0  0  0  0  0  0
  147.3260  156.7560  132.6550 C   0  0  1  0  0  0  0  0  0  0  0  0
  148.3440  155.6090  132.6730 C   0  0  0  0  0  0  0  0  0  0  0  0
  146.0690  156.2440  133.0010 O   0  0  0  0  0  0  0  0  0  0  0  0
  147.9670  159.9630  132.0530 C   0  0  0  0  0  0  0  0  0  0  0  0
  149.4640  159.6520  131.8360 C   0  0  2  0  0  0  0  0  0  0  0  0
  149.9710  160.2950  130.5490 C   0  0  0  0  0  0  0  0  0  0  0  0
  149.6560  158.2830  131.7500 F   0  0  0  0  0  0  0  0  0  0  0  0
  144.8450  158.7060  133.3920 C   0  0  0  0  0  0  0  0  0  0  0  0
  143.5120  159.1050  133.5430 C   0  0  0  0  0  0  0  0  0  0  0  0
  141.7294  158.5975  138.5340 H   0  0  0  0  0  0  0  0  0  0  0  0
  142.7508  158.7838  137.0681 H   0  0  0  0  0  0  0  0  0  0  0  0
  141.0603  159.3912  137.0681 H   0  0  0  0  0  0  0  0  0  0  0  0
  142.0920  154.7239  135.0864 H   0  0  0  0  0  0  0  0  0  0  0  0
  140.4452  155.3344  135.4668 H   0  0  0  0  0  0  0  0  0  0  0  0
  140.0480  157.2370  135.2050 H   0  0  0  0  0  0  0  0  0  0  0  0
  141.2131  161.4154  133.9811 H   0  0  0  0  0  0  0  0  0  0  0  0
  143.8718  162.4586  134.0402 H   0  0  0  0  0  0  0  0  0  0  0  0
  146.2856  161.7982  133.8242 H   0  0  0  0  0  0  0  0  0  0  0  0
  147.8371  159.8678  134.1684 H   0  0  0  0  0  0  0  0  0  0  0  0
  148.8593  157.8408  133.7030 H   0  0  0  0  0  0  0  0  0  0  0  0
  147.2261  157.6241  134.5772 H   0  0  0  0  0  0  0  0  0  0  0  0
  147.2737  157.2008  131.6503 H   0  0  0  0  0  0  0  0  0  0  0  0
  148.5793  155.3439  133.7143 H   0  0  0  0  0  0  0  0  0  0  0  0
  147.9197  154.7340  132.1588 H   0  0  0  0  0  0  0  0  0  0  0  0
  149.2631  155.9264  132.1588 H   0  0  0  0  0  0  0  0  0  0  0  0
  145.4590  156.4300  132.2400 H   0  0  0  0  0  0  0  0  0  0  0  0
  147.4099  159.5802  131.1852 H   0  0  0  0  0  0  0  0  0  0  0  0
  147.8944  161.0540  132.1727 H   0  0  0  0  0  0  0  0  0  0  0  0
  150.0213  160.0607  132.6918 H   0  0  0  0  0  0  0  0  0  0  0  0
  150.6346  161.1367  130.7963 H   0  0  0  0  0  0  0  0  0  0  0  0
  150.5273  159.5499  129.9613 H   0  0  0  0  0  0  0  0  0  0  0  0
  149.1167  160.6621  129.9613 H   0  0  0  0  0  0  0  0  0  0  0  0
  145.0948  157.6537  133.1913 H   0  0  0  0  0  0  0  0  0  0  0  0
  1  2  1  0
  2  3  2  0
  2  4  1  0
  4  5  1  0
  5  6  1  0
  6  7  1  0
  7  8  2  0
  7  9  1  0
  9 10  1  0
 10 11  1  0
 11 12  1  0
 11 13  2  0
 10 14  2  0
 14 15  1  0
 15 16  2  0
 16 17  1  0
 17 18  2  0
 18 19  1  0
 19 20  1  0
 20 21  1  0
 21 22  1  0
 21 23  1  0
 19 24  1  0
 24 25  1  0
 25 26  1  0
 25 27  1  0
 18 28  1  0
 28 29  2  0
 29  9  1  0
 29 15  1  0
  1 30  1  0
  1 31  1  0
  1 32  1  0
  5 33  1  0
  5 34  1  0
 12 35  1  0
 14 36  1  0
 16 37  1  0
 17 38  1  0
 19 39  1  1
 20 40  1  0
 20 41  1  0
 21 42  1  6
 22 43  1  0
 22 44  1  0
 22 45  1  0
 23 46  1  0
 24 47  1  0
 24 48  1  0
 25 49  1  1
 26 50  1  0
 26 51  1  0
 26 52  1  0
 28 53  1  0
M  CHG  1  12  -1
M  END
>  <UniqueID>  (12) 
12

>  <SMILES>  (12) 
CC(=O)OCOC(=O)n1c(C([NH-])=O)cc2ccc([C@H](CC(C)F)C[C@@H](C)O)cc21

>  <Energy>  (12) 
88.00942540293705

>  <Genealogy>  (12) 
CC(=O)OCOC(=O)n1c(C([NH-])=O)cc2ccc(C(CC(C)O)CC(C)F)cc21 (protonated)
CC(=O)OCOC(=O)n1c(C([NH-])=O)cc2ccc([C@H](CC(C)F)C[C@@H](C)O)cc21 (chirality)
CC(=O)OCOC(=O)n1c(C([NH-])=O)cc2ccc([C@H](CC(C)F)C[C@@H](C)O)cc21 (3D coordinates assigned)
CC(=O)OCOC(=O)n1c(C([NH-])=O)cc2ccc([C@H](CC(C)F)C[C@@H](C)O)cc21 (optimized conformer: 88.00942540293705 kcal/mol)

>  <smiles>  (12) 
CC(=O)OCOC(=O)n1c(C(N)=O)cc2ccc(C(CC(C)O)CC(C)F)cc21

>  <score_type>  (12) 
oracle

>  <origin>  (12) 
adg

>  <m_score__min__energy>  (12) 
-7.4500000000000002

>  <m_primary>  (12) 
energy

$$$$
12:0
     RDKit          3D

 41 43  0  0  0  0  0  0  0  0999 V2000
  144.2160  153.4150  133.5160 C   0  0  0  0  0  0  0  0  0  0  0  0
  145.6500  153.1660  133.7400 N   0  0  2  0  0  0  0  0  0  0  0  0
  146.1220  153.7230  135.0260 C   0  0  0  0  0  0  0  0  0  0  0  0
  147.3850  154.5350  134.7490 C   0  0  0  0  0  0  0  0  0  0  0  0
  147.8220  154.1060  133.3520 C   0  0  2  0  0  0  0  0  0  0  0  0
  148.5830  152.9270  133.4870 O   0  0  0  0  0  0  0  0  0  0  0  0
  148.6740  155.1720  132.6000 C   0  0  0  0  0  0  0  0  0  0  0  0
  148.2350  156.6100  132.7750 C   0  0  0  0  0  0  0  0  0  0  0  0
  149.1790  157.6630  132.6620 C   0  0  0  0  0  0  0  0  0  0  0  0
  148.7840  159.0010  132.8250 C   0  0  0  0  0  0  0  0  0  0  0  0
  147.4410  159.2580  133.0790 C   0  0  0  0  0  0  0  0  0  0  0  0
  146.7960  160.4530  133.3000 C   0  0  0  0  0  0  0  0  0  0  0  0
  145.4590  160.1190  133.5060 C   0  0  0  0  0  0  0  0  0  0  0  0
  144.3900  161.1210  133.6960 C   0  0  0  0  0  0  0  0  0  0  0  0
  143.0360  160.7760  133.4100 N   0  0  0  0  0  0  0  0  0  0  0  0
  144.6530  162.2680  134.1440 O   0  0  0  0  0  0  0  0  0  0  0  0
  145.2840  158.7700  133.4210 N   0  0  0  0  0  0  0  0  0  0  0  0
  144.0760  158.0230  133.6460 C   0  0  0  0  0  0  0  0  0  0  0  0
  143.1650  158.0090  132.7770 O   0  0  0  0  0  0  0  0  0  0  0  0
  143.9140  157.2870  134.8130 O   0  0  0  0  0  0  0  0  0  0  0  0
  146.5080  158.2570  133.1560 C   0  0  0  0  0  0  0  0  0  0  0  0
  146.8760  156.9140  133.0130 C   0  0  0  0  0  0  0  0  0  0  0  0
  146.4830  153.7700  132.6890 C   0  0  0  0  0  0  0  0  0  0  0  0
  143.7035  153.5040  134.4853 H   0  0  0  0  0  0  0  0  0  0  0  0
  144.0903  154.3484  132.9477 H   0  0  0  0  0  0  0  0  0  0  0  0
  143.7830  152.5786  132.9477 H   0  0  0  0  0  0  0  0  0  0  0  0
  145.8080  152.1300  133.7380 H   0  0  0  0  0  0  0  0  0  0  0  0
  145.3472  154.3727  135.4590 H   0  0  0  0  0  0  0  0  0  0  0  0
  146.3351  152.9135  135.7396 H   0  0  0  0  0  0  0  0  0  0  0  0
  147.1664  155.6128  134.7733 H   0  0  0  0  0  0  0  0  0  0  0  0
  148.1669  154.3587  135.5023 H   0  0  0  0  0  0  0  0  0  0  0  0
  147.9610  152.1830  133.7050 H   0  0  0  0  0  0  0  0  0  0  0  0
  149.7106  155.0897  132.9587 H   0  0  0  0  0  0  0  0  0  0  0  0
  148.5518  154.9508  131.5294 H   0  0  0  0  0  0  0  0  0  0  0  0
  150.2316  157.4291  132.4444 H   0  0  0  0  0  0  0  0  0  0  0  0
  149.5144  159.8204  132.7539 H   0  0  0  0  0  0  0  0  0  0  0  0
  147.2413  161.4588  133.3116 H   0  0  0  0  0  0  0  0  0  0  0  0
  142.8010  160.1420  132.6150 H   0  0  0  0  0  0  0  0  0  0  0  0
  146.1245  156.1139  133.0843 H   0  0  0  0  0  0  0  0  0  0  0  0
  146.0079  154.6838  132.3028 H   0  0  0  0  0  0  0  0  0  0  0  0
  146.6155  153.0863  131.8375 H   0  0  0  0  0  0  0  0  0  0  0  0
  1  2  1  0
  2  3  1  0
  3  4  1  0
  4  5  1  0
  5  6  1  1
  5  7  1  0
  7  8  1  0
  8  9  2  0
  9 10  1  0
 10 11  2  0
 11 12  1  0
 12 13  2  0
 13 14  1  0
 14 15  1  0
 14 16  2  0
 13 17  1  0
 17 18  1  0
 18 19  2  0
 18 20  1  0
 17 21  1  0
 21 22  2  0
  5 23  1  0
 23  2  1  0
 22  8  1  0
 21 11  1  0
  1 24  1  0
  1 25  1  0
  1 26  1  0
  2 27  1  1
  3 28  1  0
  3 29  1  0
  4 30  1  0
  4 31  1  0
  6 32  1  0
  7 33  1  0
  7 34  1  0
  9 35  1  0
 10 36  1  0
 12 37  1  0
 15 38  1  0
 22 39  1  0
 23 40  1  0
 23 41  1  0
M  CHG  3   2   1  15  -1  20  -1
M  END
>  <UniqueID>  (13) 
13

>  <SMILES>  (13) 
C[N@@H+]1CC[C@](O)(Cc2ccc3cc(C([NH-])=O)n(C(=O)[O-])c3c2)C1

>  <Energy>  (13) 
88.01100781130516

>  <Genealogy>  (13) 
C[NH+]1CCC(O)(Cc2ccc3cc(C([NH-])=O)n(C(=O)[O-])c3c2)C1 (protonated)
C[N@@H+]1CC[C@](O)(Cc2ccc3cc(C([NH-])=O)n(C(=O)[O-])c3c2)C1 (chirality)
C[N@@H+]1CC[C@](O)(Cc2ccc3cc(C([NH-])=O)n(C(=O)[O-])c3c2)C1 (3D coordinates assigned)
C[N@@H+]1CC[C@](O)(Cc2ccc3cc(C([NH-])=O)n(C(=O)[O-])c3c2)C1 (nonaromatic ring conformer: 88.01100781130516 kcal/mol)

>  <smiles>  (13) 
CN1CCC(O)(Cc2ccc3cc(C(N)=O)n(C(=O)O)c3c2)C1

>  <score_type>  (13) 
oracle

>  <origin>  (13) 
adg

>  <m_score__min__energy>  (13) 
-7.2000000000000002

>  <m_primary>  (13) 
energy

$$$$
13:0
     RDKit          3D

 27 28  0  0  0  0  0  0  0  0999 V2000
  148.4140  161.5440  131.5510 N   0  0  0  0  0  0  0  0  0  0  0  0
  148.8760  160.2610  131.1300 C   0  0  0  0  0  0  0  0  0  0  0  0
  149.5320  160.1620  130.0580 O   0  0  0  0  0  0  0  0  0  0  0  0
  148.5420  159.0410  131.8910 C   0  0  0  0  0  0  0  0  0  0  0  0
  149.2880  157.8680  131.8220 C   0  0  0  0  0  0  0  0  0  0  0  0
  148.6170  156.9640  132.6110 C   0  0  0  0  0  0  0  0  0  0  0  0
  148.9290  155.6420  132.9180 C   0  0  0  0  0  0  0  0  0  0  0  0
  148.0800  154.9520  133.7970 C   0  0  0  0  0  0  0  0  0  0  0  0
  146.9420  155.5910  134.3530 C   0  0  0  0  0  0  0  0  0  0  0  0
  146.0690  154.8560  135.3310 C   0  0  0  0  0  0  0  0  0  0  0  0
  146.9120  154.1690  136.3570 C   0  0  0  0  0  0  0  0  0  0  0  0
  146.5840  153.0320  136.7890 O   0  0  0  0  0  0  0  0  0  0  0  0
  148.0880  154.7610  136.8010 O   0  0  0  0  0  0  0  0  0  0  0  0
  146.6660  156.9380  134.0300 C   0  0  0  0  0  0  0  0  0  0  0  0
  147.5170  157.5960  133.1340 C   0  0  0  0  0  0  0  0  0  0  0  0
  147.4590  158.8770  132.7010 N   0  0  0  0  0  0  0  0  0  0  0  0
  146.5240  159.8870  133.1200 C   0  0  0  0  0  0  0  0  0  0  0  0
  145.2880  159.7280  132.9390 O   0  0  0  0  0  0  0  0  0  0  0  0
  146.9760  161.0480  133.7350 O   0  0  0  0  0  0  0  0  0  0  0  0
  148.6900  162.4000  131.0200 H   0  0  0  0  0  0  0  0  0  0  0  0
  147.7340  161.6420  132.3370 H   0  0  0  0  0  0  0  0  0  0  0  0
  150.2165  157.7001  131.2567 H   0  0  0  0  0  0  0  0  0  0  0  0
  149.8141  155.1534  132.4846 H   0  0  0  0  0  0  0  0  0  0  0  0
  148.2990  153.9059  134.0573 H   0  0  0  0  0  0  0  0  0  0  0  0
  145.3994  155.5718  135.8303 H   0  0  0  0  0  0  0  0  0  0  0  0
  145.4763  154.1038  134.7898 H   0  0  0  0  0  0  0  0  0  0  0  0
  145.8030  157.4576  134.4719 H   0  0  0  0  0  0  0  0  0  0  0  0
  1  2  1  0
  2  3  2  0
  2  4  1  0
  4  5  2  0
  5  6  1  0
  6  7  2  0
  7  8  1  0
  8  9  2  0
  9 10  1  0
 10 11  1  0
 11 12  2  0
 11 13  1  0
  9 14  1  0
 14 15  2  0
 15 16  1  0
 16 17  1  0
 17 18  2  0
 17 19  1  0
 16  4  1  0
 15  6  1  0
  1 20  1  0
  1 21  1  0
  5 22  1  0
  7 23  1  0
  8 24  1  0
 10 25  1  0
 10 26  1  0
 14 27  1  0
M  CHG  2  13  -1  19  -1
M  END
>  <UniqueID>  (14) 
14

>  <SMILES>  (14) 
NC(=O)c1cc2ccc(CC(=O)[O-])cc2n1C(=O)[O-]

>  <Energy>  (14) 
65.89953004683294

>  <Genealogy>  (14) 
NC(=O)c1cc2ccc(CC(=O)[O-])cc2n1C(=O)[O-] (protonated)
NC(=O)c1cc2ccc(CC(=O)[O-])cc2n1C(=O)[O-] (3D coordinates assigned)
NC(=O)c1cc2ccc(CC(=O)[O-])cc2n1C(=O)[O-] (optimized conformer: 65.89953004683294 kcal/mol)

>  <smiles>  (14) 
NC(=O)c1cc2ccc(CC(=O)O)cc2n1C(=O)O

>  <score_type>  (14) 
oracle

>  <origin>  (14) 
adg

>  <m_score__min__energy>  (14) 
-6.6399999999999997

>  <m_primary>  (14) 
energy

$$$$
14:0
     RDKit          3D

 30 32  0  0  0  0  0  0  0  0999 V2000
  148.9490  157.4550  131.8570 N   0  0  0  0  0  0  0  0  0  0  0  0
  148.6820  158.6250  132.6310 C   0  0  0  0  0  0  0  0  0  0  0  0
  149.6380  159.3770  132.9580 O   0  0  0  0  0  0  0  0  0  0  0  0
  147.3060  158.9350  133.0810 C   0  0  0  0  0  0  0  0  0  0  0  0
  146.7780  160.2240  133.1320 C   0  0  0  0  0  0  0  0  0  0  0  0
  145.4630  160.0640  133.5030 C   0  0  0  0  0  0  0  0  0  0  0  0
  144.4740  161.0170  133.7150 C   0  0  0  0  0  0  0  0  0  0  0  0
  143.2040  160.5730  134.1200 C   0  0  0  0  0  0  0  0  0  0  0  0
  142.9460  159.1890  134.3110 C   0  0  0  0  0  0  0  0  0  0  0  0
  141.6030  158.7310  134.7500 C   0  0  0  0  0  0  0  0  0  0  0  0
  140.6080  158.3980  133.8180 C   0  0  0  0  0  0  0  0  0  0  0  0
  139.3860  157.9820  134.2430 N   0  0  0  0  0  0  0  0  0  0  0  0
  139.1040  157.8770  135.5660 C   0  0  0  0  0  0  0  0  0  0  0  0
  140.0480  158.1910  136.4900 N   0  0  0  0  0  0  0  0  0  0  0  0
  141.2830  158.6150  136.1120 C   0  0  0  0  0  0  0  0  0  0  0  0
  143.9810  158.2510  134.0830 C   0  0  0  0  0  0  0  0  0  0  0  0
  145.2300  158.7230  133.6630 C   0  0  0  0  0  0  0  0  0  0  0  0
  146.3550  158.0150  133.4080 N   0  0  0  0  0  0  0  0  0  0  0  0
  146.5220  156.5920  133.5350 C   0  0  0  0  0  0  0  0  0  0  0  0
  146.4230  156.0370  134.6610 O   0  0  0  0  0  0  0  0  0  0  0  0
  146.8100  155.8160  132.4190 O   0  0  0  0  0  0  0  0  0  0  0  0
  149.9280  157.2240  131.5780 H   0  0  0  0  0  0  0  0  0  0  0  0
  148.1770  156.8370  131.5230 H   0  0  0  0  0  0  0  0  0  0  0  0
  147.3014  161.1681  132.9206 H   0  0  0  0  0  0  0  0  0  0  0  0
  144.6795  162.0879  133.5699 H   0  0  0  0  0  0  0  0  0  0  0  0
  142.4008  161.3048  134.2910 H   0  0  0  0  0  0  0  0  0  0  0  0
  140.8177  158.4739  132.7408 H   0  0  0  0  0  0  0  0  0  0  0  0
  138.1094  157.5371  135.8904 H   0  0  0  0  0  0  0  0  0  0  0  0
  142.0336  158.8679  136.8753 H   0  0  0  0  0  0  0  0  0  0  0  0
  143.8077  157.1751  134.2325 H   0  0  0  0  0  0  0  0  0  0  0  0
  1  2  1  0
  2  3  2  0
  2  4  1  0
  4  5  2  0
  5  6  1  0
  6  7  2  0
  7  8  1  0
  8  9  2  0
  9 10  1  0
 10 11  2  0
 11 12  1  0
 12 13  2  0
 13 14  1  0
 14 15  2  0
  9 16  1  0
 16 17  2  0
 17 18  1  0
 18 19  1  0
 19 20  2  0
 19 21  1  0
 18  4  1  0
 17  6  1  0
 15 10  1  0
  1 22  1  0
  1 23  1  0
  5 24  1  0
  7 25  1  0
  8 26  1  0
 11 27  1  0
 13 28  1  0
 15 29  1  0
 16 30  1  0
M  CHG  1  21  -1
M  END
>  <UniqueID>  (15) 
15

>  <SMILES>  (15) 
NC(=O)c1cc2ccc(-c3cncnc3)cc2n1C(=O)[O-]

>  <Energy>  (15) 
78.62101706703513

>  <Genealogy>  (15) 
NC(=O)c1cc2ccc(-c3cncnc3)cc2n1C(=O)[O-] (protonated)
NC(=O)c1cc2ccc(-c3cncnc3)cc2n1C(=O)[O-] (3D coordinates assigned)
NC(=O)c1cc2ccc(-c3cncnc3)cc2n1C(=O)[O-] (optimized conformer: 78.62101706703513 kcal/mol)

>  <smiles>  (15) 
NC(=O)c1cc2ccc(-c3cncnc3)cc2n1C(=O)O

>  <score_type>  (15) 
oracle

>  <origin>  (15) 
adg

>  <m_score__min__energy>  (15) 
-6.5899999999999999

>  <m_primary>  (15) 
energy

$$$$
15:0
     RDKit          3D

 36 37  0  0  0  0  0  0  0  0999 V2000
  139.1120  147.5200  130.1590 C   0  0  0  0  0  0  0  0  0  0  0  0
  139.9090  148.1510  131.1530 O   0  0  0  0  0  0  0  0  0  0  0  0
  140.1210  149.5330  131.1830 C   0  0  0  0  0  0  0  0  0  0  0  0
  139.4650  150.2980  130.4260 O   0  0  0  0  0  0  0  0  0  0  0  0
  141.1500  150.1120  132.1210 C   0  0  1  0  0  0  0  0  0  0  0  0
  142.4750  149.3580  131.9530 C   0  0  0  0  0  0  0  0  0  0  0  0
  141.3450  151.5570  131.8780 N   0  0  0  0  0  0  0  0  0  0  0  0
  141.7430  152.2420  133.0860 C   0  0  0  0  0  0  0  0  0  0  0  0
  142.4890  153.4470  133.0150 C   0  0  0  0  0  0  0  0  0  0  0  0
  142.8440  154.1420  134.1820 C   0  0  0  0  0  0  0  0  0  0  0  0
  142.4490  153.6080  135.4050 C   0  0  0  0  0  0  0  0  0  0  0  0
  142.6320  154.0910  136.6810 C   0  0  0  0  0  0  0  0  0  0  0  0
  142.0160  153.1640  137.5190 C   0  0  0  0  0  0  0  0  0  0  0  0
  142.0520  153.2550  138.9930 C   0  0  0  0  0  0  0  0  0  0  0  0
  140.8780  153.5600  139.7390 N   0  0  0  0  0  0  0  0  0  0  0  0
  143.1270  153.0120  139.6060 O   0  0  0  0  0  0  0  0  0  0  0  0
  141.4640  152.1530  136.7890 N   0  0  0  0  0  0  0  0  0  0  0  0
  140.6680  151.0550  137.2640 C   0  0  0  0  0  0  0  0  0  0  0  0
  140.5250  150.0200  136.5600 O   0  0  0  0  0  0  0  0  0  0  0  0
  140.0670  151.1140  138.5160 O   0  0  0  0  0  0  0  0  0  0  0  0
  141.7410  152.4380  135.4970 C   0  0  0  0  0  0  0  0  0  0  0  0
  141.3550  151.7350  134.3490 C   0  0  0  0  0  0  0  0  0  0  0  0
  138.3380  146.9072  130.6442 H   0  0  0  0  0  0  0  0  0  0  0  0
  138.6332  148.2865  129.5319 H   0  0  0  0  0  0  0  0  0  0  0  0
  139.7482  146.8781  129.5319 H   0  0  0  0  0  0  0  0  0  0  0  0
  140.7888  149.9945  133.1534 H   0  0  0  0  0  0  0  0  0  0  0  0
  142.8905  149.1216  132.9437 H   0  0  0  0  0  0  0  0  0  0  0  0
  142.2982  148.4252  131.3974 H   0  0  0  0  0  0  0  0  0  0  0  0
  143.1866  149.9864  131.3974 H   0  0  0  0  0  0  0  0  0  0  0  0
  140.4700  151.9820  131.4920 H   0  0  0  0  0  0  0  0  0  0  0  0
  142.0960  151.6920  131.1600 H   0  0  0  0  0  0  0  0  0  0  0  0
  142.7927  153.8412  132.0340 H   0  0  0  0  0  0  0  0  0  0  0  0
  143.4167  155.0798  134.1313 H   0  0  0  0  0  0  0  0  0  0  0  0
  143.1539  155.0132  136.9763 H   0  0  0  0  0  0  0  0  0  0  0  0
  140.0570  152.9150  139.7360 H   0  0  0  0  0  0  0  0  0  0  0  0
  140.7641  150.8105  134.4271 H   0  0  0  0  0  0  0  0  0  0  0  0
  1  2  1  0
  2  3  1  0
  3  4  2  0
  3  5  1  0
  5  6  1  0
  5  7  1  0
  7  8  1  0
  8  9  2  0
  9 10  1  0
 10 11  2  0
 11 12  1  0
 12 13  2  0
 13 14  1  0
 14 15  1  0
 14 16  2  0
 13 17  1  0
 17 18  1  0
 18 19  2  0
 18 20  1  0
 17 21  1  0
 21 22  2  0
 22  8  1  0
 21 11  1  0
  1 23  1  0
  1 24  1  0
  1 25  1  0
  5 26  1  1
  6 27  1  0
  6 28  1  0
  6 29  1  0
  7 30  1  0
  7 31  1  0
  9 32  1  0
 10 33  1  0
 12 34  1  0
 15 35  1  0
 22 36  1  0
M  CHG  3   7   1  15  -1  20  -1
M  END
>  <UniqueID>  (16) 
16

>  <SMILES>  (16) 
COC(=O)[C@@H](C)[NH2+]c1ccc2cc(C([NH-])=O)n(C(=O)[O-])c2c1

>  <Energy>  (16) 
72.5678326138046

>  <Genealogy>  (16) 
COC(=O)C(C)[NH2+]c1ccc2cc(C([NH-])=O)n(C(=O)[O-])c2c1 (protonated)
COC(=O)[C@@H](C)[NH2+]c1ccc2cc(C([NH-])=O)n(C(=O)[O-])c2c1 (chirality)
COC(=O)[C@@H](C)[NH2+]c1ccc2cc(C([NH-])=O)n(C(=O)[O-])c2c1 (3D coordinates assigned)
COC(=O)[C@@H](C)[NH2+]c1ccc2cc(C([NH-])=O)n(C(=O)[O-])c2c1 (optimized conformer: 72.5678326138046 kcal/mol)

>  <smiles>  (16) 
COC(=O)C(C)Nc1ccc2cc(C(N)=O)n(C(=O)O)c2c1

>  <score_type>  (16) 
oracle

>  <origin>  (16) 
adg

>  <m_score__min__energy>  (16) 
-6.3300000000000001

>  <m_primary>  (16) 
energy

$$$$
16:0
     RDKit          3D

 38 40  0  0  0  0  0  0  0  0999 V2000
  148.5080  154.8580  132.6150 C   0  0  0  0  0  0  0  0  0  0  0  0
  148.7590  156.2110  132.9730 O   0  0  0  0  0  0  0  0  0  0  0  0
  148.0640  156.8630  133.9970 C   0  0  0  0  0  0  0  0  0  0  0  0
  148.4070  156.6980  135.1990 O   0  0  0  0  0  0  0  0  0  0  0  0
  146.9570  157.7210  133.6750 N   0  0  0  0  0  0  0  0  0  0  0  0
  146.9990  158.8970  132.9880 C   0  0  0  0  0  0  0  0  0  0  0  0
  148.2220  159.6200  132.5840 C   0  0  0  0  0  0  0  0  0  0  0  0
  149.5180  159.0540  132.7890 N   0  0  0  0  0  0  0  0  0  0  0  0
  148.1260  160.7790  132.1020 O   0  0  0  0  0  0  0  0  0  0  0  0
  145.7150  159.3760  132.7500 C   0  0  0  0  0  0  0  0  0  0  0  0
  144.8720  158.4560  133.3280 C   0  0  0  0  0  0  0  0  0  0  0  0
  143.4830  158.4260  133.3770 C   0  0  0  0  0  0  0  0  0  0  0  0
  142.8690  157.3310  134.0080 C   0  0  0  0  0  0  0  0  0  0  0  0
  143.6490  156.2870  134.5700 C   0  0  0  0  0  0  0  0  0  0  0  0
  142.9910  155.1250  135.2140 C   0  0  0  0  0  0  0  0  0  0  0  0
  142.5810  155.2040  136.5560 C   0  0  0  0  0  0  0  0  0  0  0  0
  141.9640  154.1160  137.1760 C   0  0  0  0  0  0  0  0  0  0  0  0
  141.7400  152.9230  136.4670 C   0  0  0  0  0  0  0  0  0  0  0  0
  141.0870  151.7670  137.1210 C   0  0  0  0  0  0  0  0  0  0  0  0
  140.9480  151.7330  138.3730 O   0  0  0  0  0  0  0  0  0  0  0  0
  140.6180  150.7010  136.3610 O   0  0  0  0  0  0  0  0  0  0  0  0
  142.1440  152.8440  135.1240 C   0  0  0  0  0  0  0  0  0  0  0  0
  142.7620  153.9320  134.5000 C   0  0  0  0  0  0  0  0  0  0  0  0
  143.1040  153.8310  133.1910 F   0  0  0  0  0  0  0  0  0  0  0  0
  145.0590  156.3510  134.4940 C   0  0  0  0  0  0  0  0  0  0  0  0
  145.6440  157.4640  133.8780 C   0  0  0  0  0  0  0  0  0  0  0  0
  148.3956  154.2524  133.5264 H   0  0  0  0  0  0  0  0  0  0  0  0
  147.5840  154.8013  132.0208 H   0  0  0  0  0  0  0  0  0  0  0  0
  149.3502  154.4736  132.0208 H   0  0  0  0  0  0  0  0  0  0  0  0
  150.3690  159.5620  132.4610 H   0  0  0  0  0  0  0  0  0  0  0  0
  149.6420  158.1730  133.3350 H   0  0  0  0  0  0  0  0  0  0  0  0
  145.4339  160.2945  132.2140 H   0  0  0  0  0  0  0  0  0  0  0  0
  142.8828  159.2350  132.9351 H   0  0  0  0  0  0  0  0  0  0  0  0
  141.7717  157.2824  134.0670 H   0  0  0  0  0  0  0  0  0  0  0  0
  142.7478  156.1317  137.1230 H   0  0  0  0  0  0  0  0  0  0  0  0
  141.6506  154.1928  138.2276 H   0  0  0  0  0  0  0  0  0  0  0  0
  141.9725  151.9168  134.5575 H   0  0  0  0  0  0  0  0  0  0  0  0
  145.6822  155.5452  134.9091 H   0  0  0  0  0  0  0  0  0  0  0  0
  1  2  1  0
  2  3  1  0
  3  4  2  0
  3  5  1  0
  5  6  1  0
  6  7  1  0
  7  8  1  0
  7  9  2  0
  6 10  2  0
 10 11  1  0
 11 12  2  0
 12 13  1  0
 13 14  2  0
 14 15  1  0
 15 16  2  0
 16 17  1  0
 17 18  2  0
 18 19  1  0
 19 20  2  0
 19 21  1  0
 18 22  1  0
 22 23  2  0
 23 24  1  0
 14 25  1  0
 25 26  2  0
 26  5  1  0
 26 11  1  0
 23 15  1  0
  1 27  1  0
  1 28  1  0
  1 29  1  0
  8 30  1  0
  8 31  1  0
 10 32  1  0
 12 33  1  0
 13 34  1  0
 16 35  1  0
 17 36  1  0
 22 37  1  0
 25 38  1  0
M  CHG  1  21  -1
M  END
>  <UniqueID>  (17) 
17

>  <SMILES>  (17) 
COC(=O)n1c(C(N)=O)cc2ccc(-c3ccc(C(=O)[O-])cc3F)cc21

>  <Energy>  (17) 
84.94555665909402

>  <Genealogy>  (17) 
COC(=O)n1c(C(N)=O)cc2ccc(-c3ccc(C(=O)[O-])cc3F)cc21 (protonated)
COC(=O)n1c(C(N)=O)cc2ccc(-c3ccc(C(=O)[O-])cc3F)cc21 (3D coordinates assigned)
COC(=O)n1c(C(N)=O)cc2ccc(-c3ccc(C(=O)[O-])cc3F)cc21 (optimized conformer: 84.94555665909402 kcal/mol)

>  <smiles>  (17) 
COC(=O)n1c(C(N)=O)cc2ccc(-c3ccc(C(=O)O)cc3F)cc21

>  <score_type>  (17) 
oracle

>  <origin>  (17) 
adg

>  <m_score__min__energy>  (17) 
-7.6600000000000001

>  <m_primary>  (17) 
energy

$$$$
17:0
     RDKit          3D

 26 27  0  0  0  0  0  0  0  0999 V2000
  148.6220  158.0760  131.7170 N   0  0  0  0  0  0  0  0  0  0  0  0
  148.1300  158.4000  133.0150 C   0  0  0  0  0  0  0  0  0  0  0  0
  148.9420  158.7970  133.8910 O   0  0  0  0  0  0  0  0  0  0  0  0
  146.7320  158.2340  133.3330 N   0  0  0  0  0  0  0  0  0  0  0  0
  146.0130  157.0750  133.3100 C   0  0  0  0  0  0  0  0  0  0  0  0
  146.5560  155.7260  133.0780 C   0  0  0  0  0  0  0  0  0  0  0  0
  147.3600  155.4510  131.9300 N   0  0  0  0  0  0  0  0  0  0  0  0
  146.3730  154.8270  133.9400 O   0  0  0  0  0  0  0  0  0  0  0  0
  144.6580  157.3220  133.4920 C   0  0  0  0  0  0  0  0  0  0  0  0
  144.5590  158.6830  133.6590 C   0  0  0  0  0  0  0  0  0  0  0  0
  143.4380  159.4720  133.8980 C   0  0  0  0  0  0  0  0  0  0  0  0
  143.6250  160.8540  134.0540 C   0  0  0  0  0  0  0  0  0  0  0  0
  144.9220  161.4190  133.9740 C   0  0  0  0  0  0  0  0  0  0  0  0
  145.1210  162.8950  134.1690 C   0  0  0  0  0  0  0  0  0  0  0  0
  145.3830  163.1600  135.5000 F   0  0  0  0  0  0  0  0  0  0  0  0
  143.9790  163.5730  133.7840 F   0  0  0  0  0  0  0  0  0  0  0  0
  146.0370  160.5860  133.7330 C   0  0  0  0  0  0  0  0  0  0  0  0
  145.8220  159.2130  133.5610 C   0  0  0  0  0  0  0  0  0  0  0  0
  148.9130  157.1020  131.4800 H   0  0  0  0  0  0  0  0  0  0  0  0
  147.7320  154.4900  131.7670 H   0  0  0  0  0  0  0  0  0  0  0  0
  147.6320  156.2180  131.2740 H   0  0  0  0  0  0  0  0  0  0  0  0
  143.8401  156.5866  133.5006 H   0  0  0  0  0  0  0  0  0  0  0  0
  142.4348  159.0255  133.9627 H   0  0  0  0  0  0  0  0  0  0  0  0
  142.7574  161.5042  134.2400 H   0  0  0  0  0  0  0  0  0  0  0  0
  145.9713  163.2275  133.5555 H   0  0  0  0  0  0  0  0  0  0  0  0
  147.0521  161.0067  133.6816 H   0  0  0  0  0  0  0  0  0  0  0  0
  1  2  1  0
  2  3  2  0
  2  4  1  0
  4  5  1  0
  5  6  1  0
  6  7  1  0
  6  8  2  0
  5  9  2  0
  9 10  1  0
 10 11  2  0
 11 12  1  0
 12 13  2  0
 13 14  1  0
 14 15  1  0
 14 16  1  0
 13 17  1  0
 17 18  2  0
 18  4  1  0
 18 10  1  0
  1 19  1  0
  7 20  1  0
  7 21  1  0
  9 22  1  0
 11 23  1  0
 12 24  1  0
 14 25  1  0
 17 26  1  0
M  CHG  1   1  -1
M  END
>  <UniqueID>  (18) 
18

>  <SMILES>  (18) 
[NH-]C(=O)n1c(C(N)=O)cc2ccc(C(F)F)cc21

>  <Energy>  (18) 
68.6394104904594

>  <Genealogy>  (18) 
[NH-]C(=O)n1c(C(N)=O)cc2ccc(C(F)F)cc21 (protonated)
[NH-]C(=O)n1c(C(N)=O)cc2ccc(C(F)F)cc21 (3D coordinates assigned)
[NH-]C(=O)n1c(C(N)=O)cc2ccc(C(F)F)cc21 (optimized conformer: 68.6394104904594 kcal/mol)

>  <smiles>  (18) 
NC(=O)c1cc2ccc(C(F)F)cc2n1C(N)=O

>  <score_type>  (18) 
oracle

>  <origin>  (18) 
adg

>  <m_score__min__energy>  (18) 
-5.8700000000000001

>  <m_primary>  (18) 
energy

$$$$
18:0
     RDKit          3D

 53 56  0  0  0  0  0  0  0  0999 V2000
  147.7020  155.3790  135.1880 C   0  0  0  0  0  0  0  0  0  0  0  0
  147.9150  156.5450  134.4000 O   0  0  0  0  0  0  0  0  0  0  0  0
  147.0510  156.9300  133.3730 C   0  0  0  0  0  0  0  0  0  0  0  0
  146.8210  156.1490  132.4090 O   0  0  0  0  0  0  0  0  0  0  0  0
  146.4310  158.2270  133.4080 N   0  0  0  0  0  0  0  0  0  0  0  0
  147.0060  159.4350  133.1420 C   0  0  0  0  0  0  0  0  0  0  0  0
  148.3750  159.6380  132.6170 C   0  0  0  0  0  0  0  0  0  0  0  0
  149.4640  158.8440  133.0890 N   0  0  0  0  0  0  0  0  0  0  0  0
  148.5990  160.5390  131.7660 O   0  0  0  0  0  0  0  0  0  0  0  0
  146.0900  160.4650  133.3390 C   0  0  0  0  0  0  0  0  0  0  0  0
  144.9250  159.8480  133.7350 C   0  0  0  0  0  0  0  0  0  0  0  0
  143.6900  160.3970  134.0660 C   0  0  0  0  0  0  0  0  0  0  0  0
  142.6650  159.5220  134.4600 C   0  0  0  0  0  0  0  0  0  0  0  0
  142.8970  158.1260  134.5350 C   0  0  0  0  0  0  0  0  0  0  0  0
  141.7820  157.1970  134.9360 C   0  0  0  0  0  0  0  0  0  0  0  0
  141.3060  156.3750  133.7320 C   0  0  0  0  0  0  0  0  0  0  0  0
  140.3390  157.1500  132.9230 N   0  0  0  0  0  0  0  0  0  0  0  0
  139.2500  157.6830  133.7690 C   0  0  0  0  0  0  0  0  0  0  0  0
  138.2360  158.4470  132.9120 C   0  0  0  0  0  0  0  0  0  0  0  0
  138.9130  159.5370  132.1820 N   0  0  0  0  0  0  0  0  0  0  0  0
  138.0590  160.4730  131.4030 C   0  0  0  0  0  0  0  0  0  0  0  0
  138.0180  160.2310  129.8960 C   0  0  0  0  0  0  0  0  0  0  0  0
  136.7790  159.9590  130.7360 C   0  0  0  0  0  0  0  0  0  0  0  0
  140.0250  159.0280  131.3590 C   0  0  0  0  0  0  0  0  0  0  0  0
  141.0210  158.2630  132.2350 C   0  0  0  0  0  0  0  0  0  0  0  0
  144.1600  157.6030  134.1790 C   0  0  0  0  0  0  0  0  0  0  0  0
  145.1580  158.4970  133.7710 C   0  0  0  0  0  0  0  0  0  0  0  0
  147.7503  155.6435  136.2546 H   0  0  0  0  0  0  0  0  0  0  0  0
  146.7120  154.9576  134.9592 H   0  0  0  0  0  0  0  0  0  0  0  0
  148.4791  154.6348  134.9592 H   0  0  0  0  0  0  0  0  0  0  0  0
  149.3110  158.0520  133.7520 H   0  0  0  0  0  0  0  0  0  0  0  0
  150.4330  159.0250  132.7450 H   0  0  0  0  0  0  0  0  0  0  0  0
  146.2611  161.5435  133.2063 H   0  0  0  0  0  0  0  0  0  0  0  0
  143.5219  161.4831  134.0204 H   0  0  0  0  0  0  0  0  0  0  0  0
  141.6727  159.9238  134.7128 H   0  0  0  0  0  0  0  0  0  0  0  0
  142.1438  156.5148  135.7194 H   0  0  0  0  0  0  0  0  0  0  0  0
  140.9394  157.7955  135.3126 H   0  0  0  0  0  0  0  0  0  0  0  0
  142.1727  156.1135  133.1072 H   0  0  0  0  0  0  0  0  0  0  0  0
  140.8122  155.4627  134.0978 H   0  0  0  0  0  0  0  0  0  0  0  0
  138.7420  156.8487  134.2748 H   0  0  0  0  0  0  0  0  0  0  0  0
  139.6789  158.3701  134.5133 H   0  0  0  0  0  0  0  0  0  0  0  0
  137.7750  157.7565  132.1904 H   0  0  0  0  0  0  0  0  0  0  0  0
  137.4613  158.8757  133.5647 H   0  0  0  0  0  0  0  0  0  0  0  0
  138.2750  161.3153  132.0768 H   0  0  0  0  0  0  0  0  0  0  0  0
  138.0345  161.0845  129.2022 H   0  0  0  0  0  0  0  0  0  0  0  0
  138.6200  159.6423  129.1882 H   0  0  0  0  0  0  0  0  0  0  0  0
  135.9013  160.6165  130.6504 H   0  0  0  0  0  0  0  0  0  0  0  0
  136.1164  159.0941  130.8874 H   0  0  0  0  0  0  0  0  0  0  0  0
  139.6269  158.3534  130.5867 H   0  0  0  0  0  0  0  0  0  0  0  0
  140.5401  159.8767  130.8854 H   0  0  0  0  0  0  0  0  0  0  0  0
  141.8273  157.8613  131.6037 H   0  0  0  0  0  0  0  0  0  0  0  0
  141.4406  158.9482  132.9863 H   0  0  0  0  0  0  0  0  0  0  0  0
  144.3547  156.5212  134.2211 H   0  0  0  0  0  0  0  0  0  0  0  0
  1  2  1  0
  2  3  1  0
  3  4  2  0
  3  5  1  0
  5  6  1  0
  6  7  1  0
  7  8  1  0
  7  9  2  0
  6 10  2  0
 10 11  1  0
 11 12  2  0
 12 13  1  0
 13 14  2  0
 14 15  1  0
 15 16  1  0
 16 17  1  0
 17 18  1  0
 18 19  1  0
 19 20  1  0
 20 21  1  0
 21 22  1  0
 22 23  1  0
 20 24  1  0
 24 25  1  0
 14 26  1  0
 26 27  2  0
 27  5  1  0
 27 11  1  0
 25 17  1  0
 23 21  1  0
  1 28  1  0
  1 29  1  0
  1 30  1  0
  8 31  1  0
  8 32  1  0
 10 33  1  0
 12 34  1  0
 13 35  1  0
 15 36  1  0
 15 37  1  0
 16 38  1  0
 16 39  1  0
 18 40  1  0
 18 41  1  0
 19 42  1  0
 19 43  1  0
 21 44  1  0
 22 45  1  0
 22 46  1  0
 23 47  1  0
 23 48  1  0
 24 49  1  0
 24 50  1  0
 25 51  1  0
 25 52  1  0
 26 53  1  0
M  END
>  <UniqueID>  (19) 
19

>  <SMILES>  (19) 
COC(=O)n1c(C(N)=O)cc2ccc(CCN3CCN(C4CC4)CC3)cc21

>  <Energy>  (19) 
365.1284786578749

>  <Genealogy>  (19) 
COC(=O)n1c(C(N)=O)cc2ccc(CCN3CCN(C4CC4)CC3)cc21 (3D coordinates assigned)
COC(=O)n1c(C(N)=O)cc2ccc(CCN3CCN(C4CC4)CC3)cc21 (nonaromatic ring conformer: 365.1284786578749 kcal/mol)

>  <smiles>  (19) 
COC(=O)n1c(C(N)=O)cc2ccc(CCN3CCN(C4CC4)CC3)cc21

>  <score_type>  (19) 
oracle

>  <origin>  (19) 
adg

>  <m_score__min__energy>  (19) 
-8.8800000000000008

>  <m_primary>  (19) 
energy

$$$$
19:0
     RDKit          3D

 44 46  0  0  0  0  0  0  0  0999 V2000
  144.2110  155.1730  132.8710 C   0  0  0  0  0  0  0  0  0  0  0  0
  145.2250  155.8770  133.7700 C   0  0  0  0  0  0  0  0  0  0  0  0
  146.0850  156.8360  132.9950 C   0  0  0  0  0  0  0  0  0  0  0  0
  146.9470  156.3920  132.1900 O   0  0  0  0  0  0  0  0  0  0  0  0
  145.9910  158.2510  133.2240 N   0  0  0  0  0  0  0  0  0  0  0  0
  147.0050  159.1630  133.2200 C   0  0  0  0  0  0  0  0  0  0  0  0
  148.4460  158.8570  133.0990 C   0  0  0  0  0  0  0  0  0  0  0  0
  148.9950  158.3720  131.8770 N   0  0  0  0  0  0  0  0  0  0  0  0
  149.1990  158.9960  134.1010 O   0  0  0  0  0  0  0  0  0  0  0  0
  146.5040  160.4510  133.4070 C   0  0  0  0  0  0  0  0  0  0  0  0
  145.1420  160.2980  133.5280 C   0  0  0  0  0  0  0  0  0  0  0  0
  144.1460  161.2520  133.7140 C   0  0  0  0  0  0  0  0  0  0  0  0
  142.8130  160.8110  133.7740 C   0  0  0  0  0  0  0  0  0  0  0  0
  142.4990  159.4340  133.6400 C   0  0  0  0  0  0  0  0  0  0  0  0
  141.1290  158.9890  133.6970 N   0  0  0  0  0  0  0  0  0  0  0  0
  140.1690  159.4140  132.6720 C   0  0  0  0  0  0  0  0  0  0  0  0
  139.2080  158.2650  132.2980 C   0  0  0  0  0  0  0  0  0  0  0  0
  138.9370  157.3070  133.3980 N   0  0  0  0  0  0  0  0  0  0  0  0
  139.6510  156.0320  133.2040 C   0  0  0  0  0  0  0  0  0  0  0  0
  139.1790  157.8780  134.7390 C   0  0  0  0  0  0  0  0  0  0  0  0
  140.6390  158.3190  134.9080 C   0  0  0  0  0  0  0  0  0  0  0  0
  143.5390  158.4990  133.4470 C   0  0  0  0  0  0  0  0  0  0  0  0
  144.8570  158.9630  133.4130 C   0  0  0  0  0  0  0  0  0  0  0  0
  143.4660  154.6558  133.4935 H   0  0  0  0  0  0  0  0  0  0  0  0
  143.7061  155.9158  132.2360 H   0  0  0  0  0  0  0  0  0  0  0  0
  144.7305  154.4403  132.2360 H   0  0  0  0  0  0  0  0  0  0  0  0
  144.6841  156.4335  134.5496 H   0  0  0  0  0  0  0  0  0  0  0  0
  145.8791  155.1117  134.2133 H   0  0  0  0  0  0  0  0  0  0  0  0
  148.6750  157.4660  131.4660 H   0  0  0  0  0  0  0  0  0  0  0  0
  147.0761  161.3896  133.4489 H   0  0  0  0  0  0  0  0  0  0  0  0
  144.3946  162.3191  133.8111 H   0  0  0  0  0  0  0  0  0  0  0  0
  142.0046  161.5412  133.9265 H   0  0  0  0  0  0  0  0  0  0  0  0
  139.5829  160.2609  133.0582 H   0  0  0  0  0  0  0  0  0  0  0  0
  140.7278  159.7084  131.7714 H   0  0  0  0  0  0  0  0  0  0  0  0
  138.2509  158.7063  131.9832 H   0  0  0  0  0  0  0  0  0  0  0  0
  139.7011  157.6923  131.4987 H   0  0  0  0  0  0  0  0  0  0  0  0
  139.8953  155.5958  134.1838 H   0  0  0  0  0  0  0  0  0  0  0  0
  139.0116  155.3356  132.6417 H   0  0  0  0  0  0  0  0  0  0  0  0
  140.5789  156.2132  132.6417 H   0  0  0  0  0  0  0  0  0  0  0  0
  138.5237  158.7503  134.8795 H   0  0  0  0  0  0  0  0  0  0  0  0
  138.9643  157.1018  135.4882 H   0  0  0  0  0  0  0  0  0  0  0  0
  140.7088  159.0145  135.7573 H   0  0  0  0  0  0  0  0  0  0  0  0
  141.2562  157.4267  135.0894 H   0  0  0  0  0  0  0  0  0  0  0  0
  143.3169  157.4285  133.3260 H   0  0  0  0  0  0  0  0  0  0  0  0
  1  2  1  0
  2  3  1  0
  3  4  2  0
  3  5  1  0
  5  6  1  0
  6  7  1  0
  7  8  1  0
  7  9  2  0
  6 10  2  0
 10 11  1  0
 11 12  2  0
 12 13  1  0
 13 14  2  0
 14 15  1  0
 15 16  1  0
 16 17  1  0
 17 18  1  0
 18 19  1  0
 18 20  1  0
 20 21  1  0
 14 22  1  0
 22 23  2  0
 23  5  1  0
 23 11  1  0
 21 15  1  0
  1 24  1  0
  1 25  1  0
  1 26  1  0
  2 27  1  0
  2 28  1  0
  8 29  1  0
 10 30  1  0
 12 31  1  0
 13 32  1  0
 16 33  1  0
 16 34  1  0
 17 35  1  0
 17 36  1  0
 19 37  1  0
 19 38  1  0
 19 39  1  0
 20 40  1  0
 20 41  1  0
 21 42  1  0
 21 43  1  0
 22 44  1  0
M  CHG  1   8  -1
M  END
>  <UniqueID>  (20) 
20

>  <SMILES>  (20) 
CCC(=O)n1c(C([NH-])=O)cc2ccc(N3CCN(C)CC3)cc21

>  <Energy>  (20) 
92.83659741013385

>  <Genealogy>  (20) 
CCC(=O)n1c(C([NH-])=O)cc2ccc(N3CCN(C)CC3)cc21 (protonated)
CCC(=O)n1c(C([NH-])=O)cc2ccc(N3CCN(C)CC3)cc21 (3D coordinates assigned)
CCC(=O)n1c(C([NH-])=O)cc2ccc(N3CCN(C)CC3)cc21 (nonaromatic ring conformer: 92.83659741013385 kcal/mol)

>  <smiles>  (20) 
CCC(=O)n1c(C(N)=O)cc2ccc(N3CCN(C)CC3)cc21

>  <score_type>  (20) 
oracle

>  <origin>  (20) 
adg

>  <m_score__min__energy>  (20) 
-7.2400000000000002

>  <m_primary>  (20) 
energy

$$$$
20:0
     RDKit          3D

 34 36  0  0  0  0  0  0  0  0999 V2000
  145.5950  161.8940  134.3600 N   0  0  0  0  0  0  0  0  0  0  0  0
  144.2900  161.6290  133.8500 C   0  0  0  0  0  0  0  0  0  0  0  0
  143.6090  162.5760  133.3760 O   0  0  0  0  0  0  0  0  0  0  0  0
  143.7390  160.2600  133.9160 C   0  0  0  0  0  0  0  0  0  0  0  0
  142.4380  159.9700  134.3230 C   0  0  0  0  0  0  0  0  0  0  0  0
  142.2960  158.6110  134.1530 C   0  0  0  0  0  0  0  0  0  0  0  0
  141.2030  157.7860  134.3990 C   0  0  0  0  0  0  0  0  0  0  0  0
  141.3440  156.4110  134.1440 C   0  0  0  0  0  0  0  0  0  0  0  0
  142.5720  155.8890  133.6650 C   0  0  0  0  0  0  0  0  0  0  0  0
  142.7030  154.4200  133.3730 C   0  0  0  0  0  0  0  0  0  0  0  0
  141.3570  153.7700  133.3950 C   0  0  0  0  0  0  0  0  0  0  0  0
  140.4510  154.1640  132.6150 O   0  0  0  0  0  0  0  0  0  0  0  0
  141.1180  152.6970  134.2440 O   0  0  0  0  0  0  0  0  0  0  0  0
  143.6560  156.7600  133.4140 C   0  0  0  0  0  0  0  0  0  0  0  0
  143.4800  158.1250  133.6640 C   0  0  0  0  0  0  0  0  0  0  0  0
  144.3790  159.1230  133.5170 N   0  0  0  0  0  0  0  0  0  0  0  0
  145.7400  158.9840  133.0830 C   0  0  0  0  0  0  0  0  0  0  0  0
  146.3300  157.8820  133.2410 O   0  0  0  0  0  0  0  0  0  0  0  0
  146.4330  160.1130  132.5290 N   0  0  0  0  0  0  0  0  0  0  0  0
  147.7150  160.0540  131.8860 C   0  0  0  0  0  0  0  0  0  0  0  0
  147.9300  160.5640  130.6540 N   0  0  0  0  0  0  0  0  0  0  0  0
  149.2080  160.3620  130.2370 C   0  0  0  0  0  0  0  0  0  0  0  0
  150.0210  159.6810  131.1360 C   0  0  0  0  0  0  0  0  0  0  0  0
  149.1030  159.3200  132.4970 S   0  0  0  0  0  0  0  0  0  0  0  0
  146.3690  162.1940  133.7260 H   0  0  0  0  0  0  0  0  0  0  0  0
  141.6843  160.6769  134.7001 H   0  0  0  0  0  0  0  0  0  0  0  0
  140.2572  158.1974  134.7815 H   0  0  0  0  0  0  0  0  0  0  0  0
  140.4944  155.7342  134.3175 H   0  0  0  0  0  0  0  0  0  0  0  0
  143.1558  154.2854  132.3796 H   0  0  0  0  0  0  0  0  0  0  0  0
  143.3397  153.9557  134.1405 H   0  0  0  0  0  0  0  0  0  0  0  0
  144.6130  156.3748  133.0321 H   0  0  0  0  0  0  0  0  0  0  0  0
  145.9750  161.0490  132.6030 H   0  0  0  0  0  0  0  0  0  0  0  0
  149.5722  160.7118  129.2598 H   0  0  0  0  0  0  0  0  0  0  0  0
  151.0795  159.4236  130.9834 H   0  0  0  0  0  0  0  0  0  0  0  0
  1  2  1  0
  2  3  2  0
  2  4  1  0
  4  5  2  0
  5  6  1  0
  6  7  2  0
  7  8  1  0
  8  9  2  0
  9 10  1  0
 10 11  1  0
 11 12  2  0
 11 13  1  0
  9 14  1  0
 14 15  2  0
 15 16  1  0
 16 17  1  0
 17 18  2  0
 17 19  1  0
 19 20  1  0
 20 21  2  0
 21 22  1  0
 22 23  2  0
 23 24  1  0
 16  4  1  0
 24 20  1  0
 15  6  1  0
  1 25  1  0
  5 26  1  0
  7 27  1  0
  8 28  1  0
 10 29  1  0
 10 30  1  0
 14 31  1  0
 19 32  1  0
 22 33  1  0
 23 34  1  0
M  CHG  2   1  -1  13  -1
M  END
>  <UniqueID>  (21) 
21

>  <SMILES>  (21) 
[NH-]C(=O)c1cc2ccc(CC(=O)[O-])cc2n1C(=O)Nc1nccs1

>  <Energy>  (21) 
104.85644045387296

>  <Genealogy>  (21) 
[NH-]C(=O)c1cc2ccc(CC(=O)[O-])cc2n1C(=O)Nc1nccs1 (protonated)
[NH-]C(=O)c1cc2ccc(CC(=O)[O-])cc2n1C(=O)Nc1nccs1 (3D coordinates assigned)
[NH-]C(=O)c1cc2ccc(CC(=O)[O-])cc2n1C(=O)Nc1nccs1 (optimized conformer: 104.85644045387296 kcal/mol)

>  <smiles>  (21) 
NC(=O)c1cc2ccc(CC(=O)O)cc2n1C(=O)Nc1nccs1

>  <score_type>  (21) 
oracle

>  <origin>  (21) 
adg

>  <m_score__min__energy>  (21) 
-7.8399999999999999

>  <m_primary>  (21) 
energy

$$$$
21:0
     RDKit          3D

 43 45  0  0  0  0  0  0  0  0999 V2000
  143.3440  156.9980  134.6710 C   0  0  0  0  0  0  0  0  0  0  0  0
  143.7590  157.7420  133.4420 C   0  0  0  0  0  0  0  0  0  0  0  0
  142.9480  157.8500  132.4840 O   0  0  0  0  0  0  0  0  0  0  0  0
  145.0420  158.3850  133.3650 N   0  0  0  0  0  0  0  0  0  0  0  0
  145.3250  159.7170  133.4310 C   0  0  0  0  0  0  0  0  0  0  0  0
  144.3620  160.7940  133.7370 C   0  0  0  0  0  0  0  0  0  0  0  0
  142.9900  160.6730  133.3690 N   0  0  0  0  0  0  0  0  0  0  0  0
  144.7440  161.8140  134.3700 O   0  0  0  0  0  0  0  0  0  0  0  0
  146.6920  159.9350  133.2500 C   0  0  0  0  0  0  0  0  0  0  0  0
  147.2430  158.6840  133.0820 C   0  0  0  0  0  0  0  0  0  0  0  0
  148.5670  158.3050  132.8740 C   0  0  0  0  0  0  0  0  0  0  0  0
  148.8430  156.9340  132.7230 C   0  0  0  0  0  0  0  0  0  0  0  0
  147.7960  155.9780  132.7650 C   0  0  0  0  0  0  0  0  0  0  0  0
  148.1020  154.5130  132.6240 C   0  0  0  0  0  0  0  0  0  0  0  0
  147.4660  153.7450  133.7530 C   0  0  0  0  0  0  0  0  0  0  0  0
  148.1370  153.4920  134.7460 O   0  0  0  0  0  0  0  0  0  0  0  0
  146.0790  153.3210  133.6780 N   0  0  0  0  0  0  0  0  0  0  0  0
  145.5530  153.5370  132.3060 C   0  0  0  0  0  0  0  0  0  0  0  0
  144.0140  153.5570  132.2360 C   0  0  0  0  0  0  0  0  0  0  0  0
  143.2740  152.4450  133.4750 S   0  0  0  0  0  0  0  0  0  0  0  0
  143.9120  153.3600  134.9330 C   0  0  0  0  0  0  0  0  0  0  0  0
  145.2820  154.0330  134.7010 C   0  0  0  0  0  0  0  0  0  0  0  0
  146.4660  156.4010  132.9860 C   0  0  0  0  0  0  0  0  0  0  0  0
  146.2250  157.7670  133.1540 C   0  0  0  0  0  0  0  0  0  0  0  0
  143.6574  157.5599  135.5632 H   0  0  0  0  0  0  0  0  0  0  0  0
  142.2503  156.8809  134.6769 H   0  0  0  0  0  0  0  0  0  0  0  0
  143.8190  156.0059  134.6769 H   0  0  0  0  0  0  0  0  0  0  0  0
  142.6890  160.0130  132.6170 H   0  0  0  0  0  0  0  0  0  0  0  0
  147.2177  160.9012  133.2430 H   0  0  0  0  0  0  0  0  0  0  0  0
  149.3713  159.0540  132.8292 H   0  0  0  0  0  0  0  0  0  0  0  0
  149.8801  156.6003  132.5710 H   0  0  0  0  0  0  0  0  0  0  0  0
  147.7046  154.1481  131.6654 H   0  0  0  0  0  0  0  0  0  0  0  0
  149.1917  154.3662  132.6551 H   0  0  0  0  0  0  0  0  0  0  0  0
  146.0380  152.2930  133.8840 H   0  0  0  0  0  0  0  0  0  0  0  0
  145.9313  154.5012  131.9355 H   0  0  0  0  0  0  0  0  0  0  0  0
  145.8947  152.6916  131.6907 H   0  0  0  0  0  0  0  0  0  0  0  0
  143.6612  154.5825  132.4202 H   0  0  0  0  0  0  0  0  0  0  0  0
  143.7097  153.2114  131.2370 H   0  0  0  0  0  0  0  0  0  0  0  0
  143.1835  154.1405  135.1976 H   0  0  0  0  0  0  0  0  0  0  0  0
  144.0518  152.6216  135.7363 H   0  0  0  0  0  0  0  0  0  0  0  0
  145.1179  155.0682  134.3673 H   0  0  0  0  0  0  0  0  0  0  0  0
  145.8403  154.0062  135.6484 H   0  0  0  0  0  0  0  0  0  0  0  0
  145.6417  155.6737  133.0248 H   0  0  0  0  0  0  0  0  0  0  0  0
  1  2  1  0
  2  3  2  0
  2  4  1  0
  4  5  1  0
  5  6  1  0
  6  7  1  0
  6  8  2  0
  5  9  2  0
  9 10  1  0
 10 11  2  0
 11 12  1  0
 12 13  2  0
 13 14  1  0
 14 15  1  0
 15 16  2  0
 15 17  1  0
 17 18  1  0
 18 19  1  0
 19 20  1  0
 20 21  1  0
 21 22  1  0
 13 23  1  0
 23 24  2  0
 24  4  1  0
 24 10  1  0
 22 17  1  0
  1 25  1  0
  1 26  1  0
  1 27  1  0
  7 28  1  0
  9 29  1  0
 11 30  1  0
 12 31  1  0
 14 32  1  0
 14 33  1  0
 17 34  1  0
 18 35  1  0
 18 36  1  0
 19 37  1  0
 19 38  1  0
 21 39  1  0
 21 40  1  0
 22 41  1  0
 22 42  1  0
 23 43  1  0
M  CHG  2   7  -1  17   1
M  END
>  <UniqueID>  (22) 
22

>  <SMILES>  (22) 
CC(=O)n1c(C([NH-])=O)cc2ccc(CC(=O)[NH+]3CCSCC3)cc21

>  <Energy>  (22) 
86.63500586216401

>  <Genealogy>  (22) 
CC(=O)n1c(C([NH-])=O)cc2ccc(CC(=O)[NH+]3CCSCC3)cc21 (protonated)
CC(=O)n1c(C([NH-])=O)cc2ccc(CC(=O)[NH+]3CCSCC3)cc21 (3D coordinates assigned)
CC(=O)n1c(C([NH-])=O)cc2ccc(CC(=O)[NH+]3CCSCC3)cc21 (nonaromatic ring conformer: 86.63500586216401 kcal/mol)

>  <smiles>  (22) 
CC(=O)n1c(C(N)=O)cc2ccc(CC(=O)N3CCSCC3)cc21

>  <score_type>  (22) 
oracle

>  <origin>  (22) 
adg

>  <m_score__min__energy>  (22) 
-7.5599999999999996

>  <m_primary>  (22) 
energy

$$$$
22:0
     RDKit          3D

 43 45  0  0  0  0  0  0  0  0999 V2000
  147.4600  154.8650  132.7010 C   0  0  0  0  0  0  0  0  0  0  0  0
  146.7430  156.0780  132.5020 O   0  0  0  0  0  0  0  0  0  0  0  0
  145.9600  156.6630  133.4970 C   0  0  0  0  0  0  0  0  0  0  0  0
  145.2960  155.9370  134.2840 O   0  0  0  0  0  0  0  0  0  0  0  0
  145.9170  158.0960  133.6260 N   0  0  0  0  0  0  0  0  0  0  0  0
  146.9720  158.9540  133.6040 C   0  0  0  0  0  0  0  0  0  0  0  0
  148.3940  158.5700  133.6410 C   0  0  0  0  0  0  0  0  0  0  0  0
  148.9500  157.7100  132.6470 N   0  0  0  0  0  0  0  0  0  0  0  0
  149.1180  158.9650  134.5920 O   0  0  0  0  0  0  0  0  0  0  0  0
  146.5350  160.2770  133.6260 C   0  0  0  0  0  0  0  0  0  0  0  0
  145.1640  160.2040  133.6830 C   0  0  0  0  0  0  0  0  0  0  0  0
  144.2170  161.2220  133.7290 C   0  0  0  0  0  0  0  0  0  0  0  0
  142.8590  160.8590  133.7770 C   0  0  0  0  0  0  0  0  0  0  0  0
  142.4740  159.4940  133.7780 C   0  0  0  0  0  0  0  0  0  0  0  0
  141.0800  159.1320  133.8510 N   0  0  0  0  0  0  0  0  0  0  0  0
  140.2890  158.9750  132.6260 C   0  0  0  0  0  0  0  0  0  0  0  0
  138.9900  158.1980  132.9090 C   0  0  0  0  0  0  0  0  0  0  0  0
  139.2090  157.0840  133.8550 N   0  0  0  0  0  0  0  0  0  0  0  0
  140.0010  156.0000  133.2480 C   0  0  0  0  0  0  0  0  0  0  0  0
  139.7700  157.5130  135.1650 C   0  0  0  0  0  0  0  0  0  0  0  0
  140.4180  158.9090  135.1390 C   0  0  0  0  0  0  0  0  0  0  0  0
  143.4690  158.4890  133.7030 C   0  0  0  0  0  0  0  0  0  0  0  0
  144.8130  158.8780  133.6810 C   0  0  0  0  0  0  0  0  0  0  0  0
  147.5710  154.6773  133.7792 H   0  0  0  0  0  0  0  0  0  0  0  0
  146.9085  154.0330  132.2388 H   0  0  0  0  0  0  0  0  0  0  0  0
  148.4548  154.9471  132.2388 H   0  0  0  0  0  0  0  0  0  0  0  0
  148.3420  157.2420  131.9390 H   0  0  0  0  0  0  0  0  0  0  0  0
  149.9710  157.4920  132.6550 H   0  0  0  0  0  0  0  0  0  0  0  0
  147.1549  161.1854  133.6027 H   0  0  0  0  0  0  0  0  0  0  0  0
  144.5211  162.2791  133.7279 H   0  0  0  0  0  0  0  0  0  0  0  0
  142.0874  161.6421  133.8141 H   0  0  0  0  0  0  0  0  0  0  0  0
  140.0353  159.9697  132.2307 H   0  0  0  0  0  0  0  0  0  0  0  0
  140.8839  158.4114  131.8923 H   0  0  0  0  0  0  0  0  0  0  0  0
  138.2490  158.8884  133.3381 H   0  0  0  0  0  0  0  0  0  0  0  0
  138.6331  157.7733  131.9591 H   0  0  0  0  0  0  0  0  0  0  0  0
  140.4502  155.3852  134.0419 H   0  0  0  0  0  0  0  0  0  0  0  0
  139.3469  155.3729  132.6244 H   0  0  0  0  0  0  0  0  0  0  0  0
  140.7973  156.4326  132.6244 H   0  0  0  0  0  0  0  0  0  0  0  0
  138.9553  157.5230  135.9040 H   0  0  0  0  0  0  0  0  0  0  0  0
  140.5645  156.7970  135.4219 H   0  0  0  0  0  0  0  0  0  0  0  0
  139.6411  159.6737  135.2862 H   0  0  0  0  0  0  0  0  0  0  0  0
  141.1646  158.9748  135.9441 H   0  0  0  0  0  0  0  0  0  0  0  0
  143.1913  157.4254  133.6629 H   0  0  0  0  0  0  0  0  0  0  0  0
  1  2  1  0
  2  3  1  0
  3  4  2  0
  3  5  1  0
  5  6  1  0
  6  7  1  0
  7  8  1  0
  7  9  2  0
  6 10  2  0
 10 11  1  0
 11 12  2  0
 12 13  1  0
 13 14  2  0
 14 15  1  0
 15 16  1  0
 16 17  1  0
 17 18  1  0
 18 19  1  0
 18 20  1  0
 20 21  1  0
 14 22  1  0
 22 23  2  0
 23  5  1  0
 23 11  1  0
 21 15  1  0
  1 24  1  0
  1 25  1  0
  1 26  1  0
  8 27  1  0
  8 28  1  0
 10 29  1  0
 12 30  1  0
 13 31  1  0
 16 32  1  0
 16 33  1  0
 17 34  1  0
 17 35  1  0
 19 36  1  0
 19 37  1  0
 19 38  1  0
 20 39  1  0
 20 40  1  0
 21 41  1  0
 21 42  1  0
 22 43  1  0
M  END
>  <UniqueID>  (23) 
23

>  <SMILES>  (23) 
COC(=O)n1c(C(N)=O)cc2ccc(N3CCN(C)CC3)cc21

>  <Energy>  (23) 
92.79261322131222

>  <Genealogy>  (23) 
COC(=O)n1c(C(N)=O)cc2ccc(N3CCN(C)CC3)cc21 (3D coordinates assigned)
COC(=O)n1c(C(N)=O)cc2ccc(N3CCN(C)CC3)cc21 (nonaromatic ring conformer: 92.79261322131222 kcal/mol)

>  <smiles>  (23) 
COC(=O)n1c(C(N)=O)cc2ccc(N3CCN(C)CC3)cc21

>  <score_type>  (23) 
oracle

>  <origin>  (23) 
adg

>  <m_score__min__energy>  (23) 
-7.1500000000000004

>  <m_primary>  (23) 
energy

$$$$
23:0
     RDKit          3D

 32 35  0  0  0  0  0  0  0  0999 V2000
  139.1350  157.0410  132.8850 N   0  0  0  0  0  0  0  0  0  0  0  0
  139.9500  157.2010  134.0470 C   0  0  0  0  0  0  0  0  0  0  0  0
  139.4230  157.0980  135.1870 O   0  0  0  0  0  0  0  0  0  0  0  0
  141.3850  157.5360  133.9410 C   0  0  0  0  0  0  0  0  0  0  0  0
  142.4100  156.6180  134.1570 C   0  0  0  0  0  0  0  0  0  0  0  0
  143.5770  157.3240  133.9690 C   0  0  0  0  0  0  0  0  0  0  0  0
  144.9000  156.9000  134.0300 C   0  0  0  0  0  0  0  0  0  0  0  0
  145.9070  157.8360  133.7380 C   0  0  0  0  0  0  0  0  0  0  0  0
  145.5820  159.1680  133.3790 C   0  0  0  0  0  0  0  0  0  0  0  0
  146.7190  160.1170  133.0640 C   0  0  0  0  0  0  0  0  0  0  0  0
  147.5300  159.7530  131.9790 C   0  0  0  0  0  0  0  0  0  0  0  0
  148.0020  159.6290  133.3490 C   0  0  0  0  0  0  0  0  0  0  0  0
  144.2170  159.5570  133.3190 C   0  0  0  0  0  0  0  0  0  0  0  0
  143.2390  158.6120  133.6450 C   0  0  0  0  0  0  0  0  0  0  0  0
  141.8960  158.7600  133.6310 N   0  0  0  0  0  0  0  0  0  0  0  0
  141.1680  159.9250  133.2110 C   0  0  0  0  0  0  0  0  0  0  0  0
  141.4390  161.0440  133.7250 O   0  0  0  0  0  0  0  0  0  0  0  0
  140.1330  159.8280  132.1670 C   0  0  0  0  0  0  0  0  0  0  0  0
  139.1010  160.7580  132.0260 C   0  0  0  0  0  0  0  0  0  0  0  0
  138.2300  160.2080  130.7150 S   0  0  0  0  0  0  0  0  0  0  0  0
  139.1390  158.8680  130.3620 N   0  0  0  0  0  0  0  0  0  0  0  0
  140.1300  158.8150  131.2450 N   0  0  0  0  0  0  0  0  0  0  0  0
  139.4820  157.3090  131.9380 H   0  0  0  0  0  0  0  0  0  0  0  0
  138.1380  156.7470  132.9820 H   0  0  0  0  0  0  0  0  0  0  0  0
  142.3087  155.5551  134.4215 H   0  0  0  0  0  0  0  0  0  0  0  0
  145.1508  155.8632  134.2987 H   0  0  0  0  0  0  0  0  0  0  0  0
  146.9625  157.5304  133.7888 H   0  0  0  0  0  0  0  0  0  0  0  0
  146.1691  161.0312  133.3322 H   0  0  0  0  0  0  0  0  0  0  0  0
  147.6901  159.6430  130.8963 H   0  0  0  0  0  0  0  0  0  0  0  0
  148.7846  159.3554  134.0720 H   0  0  0  0  0  0  0  0  0  0  0  0
  143.9357  160.5784  133.0228 H   0  0  0  0  0  0  0  0  0  0  0  0
  138.9069  161.6500  132.6398 H   0  0  0  0  0  0  0  0  0  0  0  0
  1  2  1  0
  2  3  2  0
  2  4  1  0
  4  5  2  0
  5  6  1  0
  6  7  2  0
  7  8  1  0
  8  9  2  0
  9 10  1  0
 10 11  1  0
 11 12  2  0
  9 13  1  0
 13 14  2  0
 14 15  1  0
 15 16  1  0
 16 17  2  0
 16 18  1  0
 18 19  2  0
 19 20  1  0
 20 21  1  0
 21 22  2  0
 15  4  1  0
 22 18  1  0
 14  6  1  0
 12 10  1  0
  1 23  1  0
  1 24  1  0
  5 25  1  0
  7 26  1  0
  8 27  1  0
 10 28  1  0
 11 29  1  0
 12 30  1  0
 13 31  1  0
 19 32  1  0
M  END
>  <UniqueID>  (24) 
24

>  <SMILES>  (24) 
NC(=O)c1cc2ccc(C3C=C3)cc2n1C(=O)c1csnn1

>  <Energy>  (24) 
212.07121402903272

>  <Genealogy>  (24) 
NC(=O)c1cc2ccc(C3C=C3)cc2n1C(=O)c1csnn1 (3D coordinates assigned)
NC(=O)c1cc2ccc(C3C=C3)cc2n1C(=O)c1csnn1 (nonaromatic ring conformer: 212.07121402903272 kcal/mol)

>  <smiles>  (24) 
NC(=O)c1cc2ccc(C3C=C3)cc2n1C(=O)c1csnn1

>  <score_type>  (24) 
oracle

>  <origin>  (24) 
adg

>  <m_score__min__energy>  (24) 
-8.4100000000000001

>  <m_primary>  (24) 
energy

$$$$
24:0
     RDKit          3D

 39 41  0  0  0  0  0  0  0  0999 V2000
  149.2370  159.2620  131.0810 C   0  0  0  0  0  0  0  0  0  0  0  0
  148.6430  160.6600  131.1350 C   0  0  0  0  0  0  0  0  0  0  0  0
  148.0790  160.8860  132.4220 O   0  0  0  0  0  0  0  0  0  0  0  0
  147.9010  159.8660  133.3610 C   0  0  0  0  0  0  0  0  0  0  0  0
  148.8470  159.5370  134.1280 O   0  0  0  0  0  0  0  0  0  0  0  0
  146.6290  159.2050  133.4620 N   0  0  0  0  0  0  0  0  0  0  0  0
  145.4000  159.7780  133.6120 C   0  0  0  0  0  0  0  0  0  0  0  0
  145.1440  161.2170  133.8450 C   0  0  0  0  0  0  0  0  0  0  0  0
  146.2230  162.1170  134.1060 N   0  0  0  0  0  0  0  0  0  0  0  0
  143.9710  161.6690  133.7840 O   0  0  0  0  0  0  0  0  0  0  0  0
  144.4050  158.8020  133.6150 C   0  0  0  0  0  0  0  0  0  0  0  0
  145.0670  157.6050  133.4620 C   0  0  0  0  0  0  0  0  0  0  0  0
  144.5650  156.3100  133.3920 C   0  0  0  0  0  0  0  0  0  0  0  0
  145.4780  155.2590  133.2090 C   0  0  0  0  0  0  0  0  0  0  0  0
  146.8700  155.5150  133.0900 C   0  0  0  0  0  0  0  0  0  0  0  0
  147.8270  154.3980  132.8860 C   0  0  0  0  0  0  0  0  0  0  0  0
  149.1790  154.6410  132.6000 C   0  0  0  0  0  0  0  0  0  0  0  0
  150.0370  153.6040  132.4180 N   0  0  0  0  0  0  0  0  0  0  0  0
  149.6080  152.3180  132.5020 C   0  0  0  0  0  0  0  0  0  0  0  0
  150.5260  151.2450  132.3040 N   0  0  0  0  0  0  0  0  0  0  0  0
  148.3040  152.0550  132.7740 N   0  0  0  0  0  0  0  0  0  0  0  0
  147.4120  153.0600  132.9680 C   0  0  0  0  0  0  0  0  0  0  0  0
  147.3380  156.8490  133.1670 C   0  0  0  0  0  0  0  0  0  0  0  0
  146.4060  157.8750  133.3720 C   0  0  0  0  0  0  0  0  0  0  0  0
  149.3947  158.8908  132.1044 H   0  0  0  0  0  0  0  0  0  0  0  0
  148.5465  158.5905  130.5497 H   0  0  0  0  0  0  0  0  0  0  0  0
  150.1997  159.2929  130.5497 H   0  0  0  0  0  0  0  0  0  0  0  0
  149.4329  161.4017  130.9454 H   0  0  0  0  0  0  0  0  0  0  0  0
  147.8592  160.7554  130.3691 H   0  0  0  0  0  0  0  0  0  0  0  0
  146.0360  163.1360  134.2290 H   0  0  0  0  0  0  0  0  0  0  0  0
  147.2020  161.7730  134.2180 H   0  0  0  0  0  0  0  0  0  0  0  0
  143.3207  158.9557  133.7178 H   0  0  0  0  0  0  0  0  0  0  0  0
  143.4858  156.1150  133.4774 H   0  0  0  0  0  0  0  0  0  0  0  0
  145.1103  154.2236  133.1571 H   0  0  0  0  0  0  0  0  0  0  0  0
  149.5454  155.6753  132.5229 H   0  0  0  0  0  0  0  0  0  0  0  0
  150.2660  150.2700  132.5730 H   0  0  0  0  0  0  0  0  0  0  0  0
  151.4660  151.4230  131.8860 H   0  0  0  0  0  0  0  0  0  0  0  0
  146.3607  152.8247  133.1902 H   0  0  0  0  0  0  0  0  0  0  0  0
  148.4100  157.0751  133.0681 H   0  0  0  0  0  0  0  0  0  0  0  0
  1  2  1  0
  2  3  1  0
  3  4  1  0
  4  5  2  0
  4  6  1  0
  6  7  1  0
  7  8  1  0
  8  9  1  0
  8 10  2  0
  7 11  2  0
 11 12  1  0
 12 13  2  0
 13 14  1  0
 14 15  2  0
 15 16  1  0
 16 17  2  0
 17 18  1  0
 18 19  2  0
 19 20  1  0
 19 21  1  0
 21 22  2  0
 15 23  1  0
 23 24  2  0
 24  6  1  0
 24 12  1  0
 22 16  1  0
  1 25  1  0
  1 26  1  0
  1 27  1  0
  2 28  1  0
  2 29  1  0
  9 30  1  0
  9 31  1  0
 11 32  1  0
 13 33  1  0
 14 34  1  0
 17 35  1  0
 20 36  1  0
 20 37  1  0
 22 38  1  0
 23 39  1  0
M  END
>  <UniqueID>  (25) 
25

>  <SMILES>  (25) 
CCOC(=O)n1c(C(N)=O)cc2ccc(-c3cnc(N)nc3)cc21

>  <Energy>  (25) 
79.55816867888538

>  <Genealogy>  (25) 
CCOC(=O)n1c(C(N)=O)cc2ccc(-c3cnc(N)nc3)cc21 (3D coordinates assigned)
CCOC(=O)n1c(C(N)=O)cc2ccc(-c3cnc(N)nc3)cc21 (optimized conformer: 79.55816867888538 kcal/mol)

>  <smiles>  (25) 
CCOC(=O)n1c(C(N)=O)cc2ccc(-c3cnc(N)nc3)cc21

>  <score_type>  (25) 
oracle

>  <origin>  (25) 
adg

>  <m_score__min__energy>  (25) 
-7.29

>  <m_primary>  (25) 
energy

$$$$
25:0
     RDKit          3D

 43 45  0  0  0  0  0  0  0  0999 V2000
  148.0450  153.8780  133.1370 C   0  0  0  0  0  0  0  0  0  0  0  0
  148.1150  154.3410  134.4800 O   0  0  0  0  0  0  0  0  0  0  0  0
  146.9880  154.4520  135.2990 C   0  0  0  0  0  0  0  0  0  0  0  0
  146.9140  153.7920  136.3710 O   0  0  0  0  0  0  0  0  0  0  0  0
  145.9190  155.3390  134.9290 N   0  0  0  0  0  0  0  0  0  0  0  0
  144.5780  155.1220  135.0430 C   0  0  0  0  0  0  0  0  0  0  0  0
  143.9410  153.9740  135.7230 C   0  0  0  0  0  0  0  0  0  0  0  0
  144.2500  153.6960  137.0860 N   0  0  0  0  0  0  0  0  0  0  0  0
  143.1530  153.2130  135.1020 O   0  0  0  0  0  0  0  0  0  0  0  0
  143.8620  156.1850  134.4980 C   0  0  0  0  0  0  0  0  0  0  0  0
  144.8140  157.0710  134.0480 C   0  0  0  0  0  0  0  0  0  0  0  0
  144.6610  158.2960  133.4060 C   0  0  0  0  0  0  0  0  0  0  0  0
  145.8210  158.9890  133.0250 C   0  0  0  0  0  0  0  0  0  0  0  0
  147.1090  158.4510  133.2860 C   0  0  0  0  0  0  0  0  0  0  0  0
  148.3640  159.1870  132.8490 C   0  0  0  0  0  0  0  0  0  0  0  0
  148.0680  160.6480  132.4180 C   0  0  0  0  0  0  0  0  0  0  0  0
  148.2780  160.8640  130.9140 C   0  0  0  0  0  0  0  0  0  0  0  0
  149.6590  160.5190  130.5060 N   0  0  0  0  0  0  0  0  0  0  0  0
  149.7620  160.4970  129.0390 C   0  0  0  0  0  0  0  0  0  0  0  0
  150.1900  159.2640  131.1060 C   0  0  0  0  0  0  0  0  0  0  0  0
  149.1070  158.3920  131.7560 C   0  0  0  0  0  0  0  0  0  0  0  0
  147.2200  157.1980  133.9350 C   0  0  0  0  0  0  0  0  0  0  0  0
  146.0470  156.5390  134.3190 C   0  0  0  0  0  0  0  0  0  0  0  0
  147.8805  152.7904  133.1322 H   0  0  0  0  0  0  0  0  0  0  0  0
  147.2121  154.3771  132.6200 H   0  0  0  0  0  0  0  0  0  0  0  0
  148.9882  154.1085  132.6200 H   0  0  0  0  0  0  0  0  0  0  0  0
  145.0910  154.1160  137.5410 H   0  0  0  0  0  0  0  0  0  0  0  0
  142.7689  156.2933  134.4397 H   0  0  0  0  0  0  0  0  0  0  0  0
  143.6618  158.7088  133.2032 H   0  0  0  0  0  0  0  0  0  0  0  0
  145.7310  159.9610  132.5179 H   0  0  0  0  0  0  0  0  0  0  0  0
  149.0314  159.2599  133.7204 H   0  0  0  0  0  0  0  0  0  0  0  0
  147.0233  160.8858  132.6673 H   0  0  0  0  0  0  0  0  0  0  0  0
  148.7680  161.3058  132.9539 H   0  0  0  0  0  0  0  0  0  0  0  0
  147.5717  160.2289  130.3592 H   0  0  0  0  0  0  0  0  0  0  0  0
  148.1063  161.9271  130.6898 H   0  0  0  0  0  0  0  0  0  0  0  0
  150.7993  160.2754  128.7475 H   0  0  0  0  0  0  0  0  0  0  0  0
  149.0942  159.7212  128.6361 H   0  0  0  0  0  0  0  0  0  0  0  0
  149.4695  161.4779  128.6361 H   0  0  0  0  0  0  0  0  0  0  0  0
  150.6794  158.6788  130.3136 H   0  0  0  0  0  0  0  0  0  0  0  0
  150.8914  159.5564  131.9013 H   0  0  0  0  0  0  0  0  0  0  0  0
  148.3879  158.0732  130.9870 H   0  0  0  0  0  0  0  0  0  0  0  0
  149.5831  157.5127  132.2144 H   0  0  0  0  0  0  0  0  0  0  0  0
  148.2061  156.7525  134.1330 H   0  0  0  0  0  0  0  0  0  0  0  0
  1  2  1  0
  2  3  1  0
  3  4  2  0
  3  5  1  0
  5  6  1  0
  6  7  1  0
  7  8  1  0
  7  9  2  0
  6 10  2  0
 10 11  1  0
 11 12  2  0
 12 13  1  0
 13 14  2  0
 14 15  1  0
 15 16  1  0
 16 17  1  0
 17 18  1  0
 18 19  1  0
 18 20  1  0
 20 21  1  0
 14 22  1  0
 22 23  2  0
 23  5  1  0
 23 11  1  0
 21 15  1  0
  1 24  1  0
  1 25  1  0
  1 26  1  0
  8 27  1  0
 10 28  1  0
 12 29  1  0
 13 30  1  0
 15 31  1  0
 16 32  1  0
 16 33  1  0
 17 34  1  0
 17 35  1  0
 19 36  1  0
 19 37  1  0
 19 38  1  0
 20 39  1  0
 20 40  1  0
 21 41  1  0
 21 42  1  0
 22 43  1  0
M  CHG  1   8  -1
M  END
>  <UniqueID>  (26) 
26

>  <SMILES>  (26) 
COC(=O)n1c(C([NH-])=O)cc2ccc(C3CCN(C)CC3)cc21

>  <Energy>  (26) 
89.48160110123976

>  <Genealogy>  (26) 
COC(=O)n1c(C([NH-])=O)cc2ccc(C3CCN(C)CC3)cc21 (protonated)
COC(=O)n1c(C([NH-])=O)cc2ccc(C3CCN(C)CC3)cc21 (3D coordinates assigned)
COC(=O)n1c(C([NH-])=O)cc2ccc(C3CCN(C)CC3)cc21 (nonaromatic ring conformer: 89.48160110123976 kcal/mol)

>  <smiles>  (26) 
COC(=O)n1c(C(N)=O)cc2ccc(C3CCN(C)CC3)cc21

>  <score_type>  (26) 
oracle

>  <origin>  (26) 
adg

>  <m_score__min__energy>  (26) 
-7.7599999999999998

>  <m_primary>  (26) 
energy

$$$$
26:0
     RDKit          3D

 31 33  0  0  0  0  0  0  0  0999 V2000
  143.9430  153.6350  137.0410 N   0  0  0  0  0  0  0  0  0  0  0  0
  142.5980  153.5650  136.5740 C   0  0  0  0  0  0  0  0  0  0  0  0
  141.9780  152.4710  136.6430 O   0  0  0  0  0  0  0  0  0  0  0  0
  141.9060  154.7690  136.0690 C   0  0  0  0  0  0  0  0  0  0  0  0
  141.7320  155.9250  136.8270 C   0  0  0  0  0  0  0  0  0  0  0  0
  141.1360  156.8300  135.9800 C   0  0  0  0  0  0  0  0  0  0  0  0
  140.7310  158.1400  136.2130 C   0  0  0  0  0  0  0  0  0  0  0  0
  140.1150  158.8370  135.1590 C   0  0  0  0  0  0  0  0  0  0  0  0
  139.9050  158.2130  133.9030 C   0  0  0  0  0  0  0  0  0  0  0  0
  139.2530  158.9540  132.7970 C   0  0  0  0  0  0  0  0  0  0  0  0
  138.1220  158.4060  132.1640 C   0  0  0  0  0  0  0  0  0  0  0  0
  137.4990  159.0860  131.1140 C   0  0  0  0  0  0  0  0  0  0  0  0
  137.9950  160.3190  130.6850 C   0  0  0  0  0  0  0  0  0  0  0  0
  139.1120  160.8780  131.3110 C   0  0  0  0  0  0  0  0  0  0  0  0
  139.7390  160.2060  132.3660 C   0  0  0  0  0  0  0  0  0  0  0  0
  140.8290  160.8010  132.9920 O   0  0  0  0  0  0  0  0  0  0  0  0
  140.3380  156.8810  133.7040 C   0  0  0  0  0  0  0  0  0  0  0  0
  140.9650  156.2180  134.7650 C   0  0  0  0  0  0  0  0  0  0  0  0
  141.4290  154.9490  134.8040 N   0  0  0  0  0  0  0  0  0  0  0  0
  141.3380  153.9730  133.7530 C   0  0  0  0  0  0  0  0  0  0  0  0
  142.3010  153.1970  133.5200 O   0  0  0  0  0  0  0  0  0  0  0  0
  140.1950  153.8960  132.9670 O   0  0  0  0  0  0  0  0  0  0  0  0
  144.3160  154.5090  137.4750 H   0  0  0  0  0  0  0  0  0  0  0  0
  142.0118  156.0808  137.8793 H   0  0  0  0  0  0  0  0  0  0  0  0
  140.8879  158.6161  137.1921 H   0  0  0  0  0  0  0  0  0  0  0  0
  139.7924  159.8777  135.3101 H   0  0  0  0  0  0  0  0  0  0  0  0
  137.7255  157.4358  132.4979 H   0  0  0  0  0  0  0  0  0  0  0  0
  136.6161  158.6491  130.6244 H   0  0  0  0  0  0  0  0  0  0  0  0
  137.5065  160.8498  129.8546 H   0  0  0  0  0  0  0  0  0  0  0  0
  139.5000  161.8503  130.9731 H   0  0  0  0  0  0  0  0  0  0  0  0
  140.1854  156.3781  132.7377 H   0  0  0  0  0  0  0  0  0  0  0  0
  1  2  1  0
  2  3  2  0
  2  4  1  0
  4  5  2  0
  5  6  1  0
  6  7  2  0
  7  8  1  0
  8  9  2  0
  9 10  1  0
 10 11  2  0
 11 12  1  0
 12 13  2  0
 13 14  1  0
 14 15  2  0
 15 16  1  0
  9 17  1  0
 17 18  2  0
 18 19  1  0
 19 20  1  0
 20 21  2  0
 20 22  1  0
 19  4  1  0
 18  6  1  0
 15 10  1  0
  1 23  1  0
  5 24  1  0
  7 25  1  0
  8 26  1  0
 11 27  1  0
 12 28  1  0
 13 29  1  0
 14 30  1  0
 17 31  1  0
M  CHG  3   1  -1  16  -1  22  -1
M  END
>  <UniqueID>  (27) 
27

>  <SMILES>  (27) 
[NH-]C(=O)c1cc2ccc(-c3ccccc3[O-])cc2n1C(=O)[O-]

>  <Energy>  (27) 
80.62281685852088

>  <Genealogy>  (27) 
[NH-]C(=O)c1cc2ccc(-c3ccccc3[O-])cc2n1C(=O)[O-] (protonated)
[NH-]C(=O)c1cc2ccc(-c3ccccc3[O-])cc2n1C(=O)[O-] (3D coordinates assigned)
[NH-]C(=O)c1cc2ccc(-c3ccccc3[O-])cc2n1C(=O)[O-] (optimized conformer: 80.62281685852088 kcal/mol)

>  <smiles>  (27) 
NC(=O)c1cc2ccc(-c3ccccc3O)cc2n1C(=O)O

>  <score_type>  (27) 
oracle

>  <origin>  (27) 
adg

>  <m_score__min__energy>  (27) 
-7.0800000000000001

>  <m_primary>  (27) 
energy

$$$$
27:0
     RDKit          3D

 48 49  0  0  0  0  0  0  0  0999 V2000
  139.1460  147.7910  130.4400 C   0  0  0  0  0  0  0  0  0  0  0  0
  140.4030  148.6520  130.3010 C   0  0  0  0  0  0  0  0  0  0  0  0
  140.7240  149.4350  131.5130 N   0  0  0  0  0  0  0  0  0  0  0  0
  141.8060  148.8670  132.3580 C   0  0  0  0  0  0  0  0  0  0  0  0
  143.1770  149.5410  132.1960 C   0  0  0  0  0  0  0  0  0  0  0  0
  139.5390  149.9810  132.2130 C   0  0  0  0  0  0  0  0  0  0  0  0
  139.5670  151.5170  132.2550 C   0  0  0  0  0  0  0  0  0  0  0  0
  140.9360  152.0340  132.0990 N   0  0  0  0  0  0  0  0  0  0  0  0
  141.2020  153.0280  133.1090 C   0  0  0  0  0  0  0  0  0  0  0  0
  142.1360  152.7660  134.1440 C   0  0  0  0  0  0  0  0  0  0  0  0
  142.4170  153.7370  135.1190 C   0  0  0  0  0  0  0  0  0  0  0  0
  141.7650  154.9640  135.0260 C   0  0  0  0  0  0  0  0  0  0  0  0
  141.8370  156.0690  135.8430 C   0  0  0  0  0  0  0  0  0  0  0  0
  140.9760  157.0050  135.2740 C   0  0  0  0  0  0  0  0  0  0  0  0
  140.8180  158.3810  135.7910 C   0  0  0  0  0  0  0  0  0  0  0  0
  140.4100  158.6160  137.1360 N   0  0  0  0  0  0  0  0  0  0  0  0
  141.0010  159.3610  135.0220 O   0  0  0  0  0  0  0  0  0  0  0  0
  140.3870  156.4960  134.1550 N   0  0  0  0  0  0  0  0  0  0  0  0
  139.3850  157.1070  133.3270 C   0  0  0  0  0  0  0  0  0  0  0  0
  138.1870  157.1550  133.7200 O   0  0  0  0  0  0  0  0  0  0  0  0
  139.7390  157.6210  132.0760 O   0  0  0  0  0  0  0  0  0  0  0  0
  139.3720  158.9280  131.6520 C   0  0  0  0  0  0  0  0  0  0  0  0
  140.8810  155.2460  134.0170 C   0  0  0  0  0  0  0  0  0  0  0  0
  140.5670  154.2900  133.0440 C   0  0  0  0  0  0  0  0  0  0  0  0
  138.9225  147.6379  131.5061 H   0  0  0  0  0  0  0  0  0  0  0  0
  138.2983  148.2990  129.9569 H   0  0  0  0  0  0  0  0  0  0  0  0
  139.3134  146.8170  129.9569 H   0  0  0  0  0  0  0  0  0  0  0  0
  141.2538  147.9911  130.0791 H   0  0  0  0  0  0  0  0  0  0  0  0
  140.2105  149.3738  129.4936 H   0  0  0  0  0  0  0  0  0  0  0  0
  141.5017  148.9609  133.4109 H   0  0  0  0  0  0  0  0  0  0  0  0
  141.9354  147.8243  132.0325 H   0  0  0  0  0  0  0  0  0  0  0  0
  143.6024  149.7501  133.1886 H   0  0  0  0  0  0  0  0  0  0  0  0
  143.8514  148.8717  131.6417 H   0  0  0  0  0  0  0  0  0  0  0  0
  143.0589  150.4838  131.6417 H   0  0  0  0  0  0  0  0  0  0  0  0
  138.6306  149.6545  131.6856 H   0  0  0  0  0  0  0  0  0  0  0  0
  139.5472  149.6075  133.2476 H   0  0  0  0  0  0  0  0  0  0  0  0
  138.9415  151.9087  131.4393 H   0  0  0  0  0  0  0  0  0  0  0  0
  139.1832  151.8434  133.2328 H   0  0  0  0  0  0  0  0  0  0  0  0
  141.0490  152.4560  131.1470 H   0  0  0  0  0  0  0  0  0  0  0  0
  141.6280  151.2540  132.1930 H   0  0  0  0  0  0  0  0  0  0  0  0
  142.6456  151.7920  134.1833 H   0  0  0  0  0  0  0  0  0  0  0  0
  143.1304  153.5345  135.9314 H   0  0  0  0  0  0  0  0  0  0  0  0
  142.4450  156.1880  136.7519 H   0  0  0  0  0  0  0  0  0  0  0  0
  139.4660  159.0100  137.3500 H   0  0  0  0  0  0  0  0  0  0  0  0
  139.1938  159.5626  132.5326 H   0  0  0  0  0  0  0  0  0  0  0  0
  140.1839  159.3589  131.0477 H   0  0  0  0  0  0  0  0  0  0  0  0
  138.4545  158.8733  131.0477 H   0  0  0  0  0  0  0  0  0  0  0  0
  139.8429  154.5151  132.2471 H   0  0  0  0  0  0  0  0  0  0  0  0
  1  2  1  0
  2  3  1  0
  3  4  1  0
  4  5  1  0
  3  6  1  0
  6  7  1  0
  7  8  1  0
  8  9  1  0
  9 10  2  0
 10 11  1  0
 11 12  2  0
 12 13  1  0
 13 14  2  0
 14 15  1  0
 15 16  1  0
 15 17  2  0
 14 18  1  0
 18 19  1  0
 19 20  2  0
 19 21  1  0
 21 22  1  0
 18 23  1  0
 23 24  2  0
 24  9  1  0
 23 12  1  0
  1 25  1  0
  1 26  1  0
  1 27  1  0
  2 28  1  0
  2 29  1  0
  4 30  1  0
  4 31  1  0
  5 32  1  0
  5 33  1  0
  5 34  1  0
  6 35  1  0
  6 36  1  0
  7 37  1  0
  7 38  1  0
  8 39  1  0
  8 40  1  0
 10 41  1  0
 11 42  1  0
 13 43  1  0
 16 44  1  0
 22 45  1  0
 22 46  1  0
 22 47  1  0
 24 48  1  0
M  CHG  2   8   1  16  -1
M  END
>  <UniqueID>  (28) 
28

>  <SMILES>  (28) 
CCN(CC)CC[NH2+]c1ccc2cc(C([NH-])=O)n(C(=O)OC)c2c1

>  <Energy>  (28) 
89.28240425206484

>  <Genealogy>  (28) 
CCN(CC)CC[NH2+]c1ccc2cc(C([NH-])=O)n(C(=O)OC)c2c1 (protonated)
CCN(CC)CC[NH2+]c1ccc2cc(C([NH-])=O)n(C(=O)OC)c2c1 (3D coordinates assigned)
CCN(CC)CC[NH2+]c1ccc2cc(C([NH-])=O)n(C(=O)OC)c2c1 (optimized conformer: 89.28240425206484 kcal/mol)

>  <smiles>  (28) 
CCN(CC)CCNc1ccc2cc(C(N)=O)n(C(=O)OC)c2c1

>  <score_type>  (28) 
oracle

>  <origin>  (28) 
adg

>  <m_score__min__energy>  (28) 
-6.6299999999999999

>  <m_primary>  (28) 
energy

$$$$
28:0
     RDKit          3D

 49 52  0  0  0  0  0  0  0  0999 V2000
  145.6880  153.7020  134.9720 C   0  0  0  0  0  0  0  0  0  0  0  0
  145.1060  153.2150  133.7090 N   0  0  0  0  0  0  0  0  0  0  0  0
  145.5160  154.0540  132.5520 C   0  0  0  0  0  0  0  0  0  0  0  0
  144.4060  154.9910  132.0360 C   0  0  0  0  0  0  0  0  0  0  0  0
  143.5420  155.4130  133.1420 N   0  0  0  0  0  0  0  0  0  0  0  0
  143.3250  156.8080  133.4330 C   0  0  0  0  0  0  0  0  0  0  0  0
  142.0260  157.2790  133.7540 C   0  0  0  0  0  0  0  0  0  0  0  0
  141.7970  158.6410  134.0100 C   0  0  0  0  0  0  0  0  0  0  0  0
  142.8820  159.5090  133.9370 C   0  0  0  0  0  0  0  0  0  0  0  0
  142.9370  160.8740  134.1070 C   0  0  0  0  0  0  0  0  0  0  0  0
  144.2710  161.2180  133.9000 C   0  0  0  0  0  0  0  0  0  0  0  0
  144.7950  162.5890  134.0660 C   0  0  0  0  0  0  0  0  0  0  0  0
  145.8670  162.8590  134.9640 N   0  0  0  0  0  0  0  0  0  0  0  0
  144.2550  163.5430  133.4450 O   0  0  0  0  0  0  0  0  0  0  0  0
  145.0090  160.1100  133.6060 N   0  0  0  0  0  0  0  0  0  0  0  0
  146.3900  160.0510  133.2220 C   0  0  0  0  0  0  0  0  0  0  0  0
  147.2190  160.8570  133.7270 O   0  0  0  0  0  0  0  0  0  0  0  0
  146.8260  159.0670  132.2810 N   0  0  0  0  0  0  0  0  0  0  0  0
  148.0420  158.2770  132.4460 C   0  0  0  0  0  0  0  0  0  0  0  0
  149.3020  158.7410  131.6990 C   0  0  0  0  0  0  0  0  0  0  0  0
  149.6840  159.9800  132.1780 F   0  0  0  0  0  0  0  0  0  0  0  0
  149.0250  158.8470  130.3490 F   0  0  0  0  0  0  0  0  0  0  0  0
  150.3530  157.8540  131.8670 F   0  0  0  0  0  0  0  0  0  0  0  0
  147.8240  156.7960  132.7130 C   0  0  0  0  0  0  0  0  0  0  0  0
  148.2160  157.7330  133.8550 C   0  0  0  0  0  0  0  0  0  0  0  0
  144.1450  159.0730  133.6360 C   0  0  0  0  0  0  0  0  0  0  0  0
  144.3990  157.7260  133.3590 C   0  0  0  0  0  0  0  0  0  0  0  0
  142.9090  154.3780  133.9670 C   0  0  0  0  0  0  0  0  0  0  0  0
  143.6420  153.0340  133.8120 C   0  0  0  0  0  0  0  0  0  0  0  0
  145.1511  153.2527  135.8204 H   0  0  0  0  0  0  0  0  0  0  0  0
  146.7501  153.4196  135.0192 H   0  0  0  0  0  0  0  0  0  0  0  0
  145.5973  154.7972  135.0192 H   0  0  0  0  0  0  0  0  0  0  0  0
  146.3748  154.6697  132.8576 H   0  0  0  0  0  0  0  0  0  0  0  0
  145.7613  153.3660  131.7295 H   0  0  0  0  0  0  0  0  0  0  0  0
  144.8650  155.8781  131.5752 H   0  0  0  0  0  0  0  0  0  0  0  0
  143.7993  154.4521  131.2934 H   0  0  0  0  0  0  0  0  0  0  0  0
  141.1875  156.5687  133.8031 H   0  0  0  0  0  0  0  0  0  0  0  0
  140.7914  159.0098  134.2603 H   0  0  0  0  0  0  0  0  0  0  0  0
  142.1046  161.5494  134.3538 H   0  0  0  0  0  0  0  0  0  0  0  0
  146.8620  162.7670  134.6590 H   0  0  0  0  0  0  0  0  0  0  0  0
  146.8096  156.3727  132.6718 H   0  0  0  0  0  0  0  0  0  0  0  0
  148.2300  155.8617  132.2979 H   0  0  0  0  0  0  0  0  0  0  0  0
  147.4839  157.9846  134.6365 H   0  0  0  0  0  0  0  0  0  0  0  0
  149.0215  157.7536  134.6038 H   0  0  0  0  0  0  0  0  0  0  0  0
  145.4106  157.3880  133.0898 H   0  0  0  0  0  0  0  0  0  0  0  0
  142.9417  154.6874  135.0221 H   0  0  0  0  0  0  0  0  0  0  0  0
  141.8670  154.2521  133.6379 H   0  0  0  0  0  0  0  0  0  0  0  0
  143.4218  152.4054  134.6874 H   0  0  0  0  0  0  0  0  0  0  0  0
  143.2905  152.5581  132.8847 H   0  0  0  0  0  0  0  0  0  0  0  0
  1  2  1  0
  2  3  1  0
  3  4  1  0
  4  5  1  0
  5  6  1  0
  6  7  2  0
  7  8  1  0
  8  9  2  0
  9 10  1  0
 10 11  2  0
 11 12  1  0
 12 13  1  0
 12 14  2  0
 11 15  1  0
 15 16  1  0
 16 17  2  0
 16 18  1  0
 18 19  1  0
 19 20  1  0
 20 21  1  0
 20 22  1  0
 20 23  1  0
 19 24  1  0
 24 25  1  0
 15 26  1  0
 26 27  2  0
  5 28  1  0
 28 29  1  0
 29  2  1  0
 27  6  1  0
 26  9  1  0
 25 19  1  0
  1 30  1  0
  1 31  1  0
  1 32  1  0
  3 33  1  0
  3 34  1  0
  4 35  1  0
  4 36  1  0
  7 37  1  0
  8 38  1  0
 10 39  1  0
 13 40  1  0
 24 41  1  0
 24 42  1  0
 25 43  1  0
 25 44  1  0
 27 45  1  0
 28 46  1  0
 28 47  1  0
 29 48  1  0
 29 49  1  0
M  CHG  2  13  -1  18  -1
M  END
>  <UniqueID>  (29) 
29

>  <SMILES>  (29) 
CN1CCN(c2ccc3cc(C([NH-])=O)n(C(=O)[N-]C4(C(F)(F)F)CC4)c3c2)CC1

>  <Energy>  (29) 
368.04237210253484

>  <Genealogy>  (29) 
CN1CCN(c2ccc3cc(C([NH-])=O)n(C(=O)[N-]C4(C(F)(F)F)CC4)c3c2)CC1 (protonated)
CN1CCN(c2ccc3cc(C([NH-])=O)n(C(=O)[N-]C4(C(F)(F)F)CC4)c3c2)CC1 (3D coordinates assigned)
CN1CCN(c2ccc3cc(C([NH-])=O)n(C(=O)[N-]C4(C(F)(F)F)CC4)c3c2)CC1 (nonaromatic ring conformer: 368.04237210253484 kcal/mol)

>  <smiles>  (29) 
CN1CCN(c2ccc3cc(C(N)=O)n(C(=O)NC4(C(F)(F)F)CC4)c3c2)CC1

>  <score_type>  (29) 
oracle

>  <origin>  (29) 
adg

>  <m_score__min__energy>  (29) 
-7.6699999999999999

>  <m_primary>  (29) 
energy

$$$$
29:0
     RDKit          3D

 28 29  0  0  0  0  0  0  0  0999 V2000
  148.9790  160.0480  129.4410 N   0  0  0  0  0  0  0  0  0  0  0  0
  149.4050  160.7920  130.5790 C   0  0  0  0  0  0  0  0  0  0  0  0
  149.5690  162.0380  130.4890 O   0  0  0  0  0  0  0  0  0  0  0  0
  149.6080  160.1020  131.8900 C   0  0  0  0  0  0  0  0  0  0  0  0
  148.3040  159.5450  132.3890 C   0  0  0  0  0  0  0  0  0  0  0  0
  148.0280  158.1610  132.2650 C   0  0  0  0  0  0  0  0  0  0  0  0
  146.7950  157.6370  132.6860 C   0  0  0  0  0  0  0  0  0  0  0  0
  145.8620  158.5160  133.2260 C   0  0  0  0  0  0  0  0  0  0  0  0
  144.5830  158.2800  133.6730 C   0  0  0  0  0  0  0  0  0  0  0  0
  144.1010  159.5200  134.0820 C   0  0  0  0  0  0  0  0  0  0  0  0
  142.7730  159.7130  134.6960 C   0  0  0  0  0  0  0  0  0  0  0  0
  141.8380  160.6480  134.1580 N   0  0  0  0  0  0  0  0  0  0  0  0
  142.4810  159.0830  135.7480 O   0  0  0  0  0  0  0  0  0  0  0  0
  145.0370  160.4910  133.8840 N   0  0  0  0  0  0  0  0  0  0  0  0
  144.8730  161.9080  134.0640 C   0  0  0  0  0  0  0  0  0  0  0  0
  145.6660  162.5550  134.7970 O   0  0  0  0  0  0  0  0  0  0  0  0
  143.8390  162.5810  133.4240 O   0  0  0  0  0  0  0  0  0  0  0  0
  146.1130  159.8580  133.3600 C   0  0  0  0  0  0  0  0  0  0  0  0
  147.3250  160.4110  132.9300 C   0  0  0  0  0  0  0  0  0  0  0  0
  148.4560  160.5090  128.6630 H   0  0  0  0  0  0  0  0  0  0  0  0
  150.3286  159.2810  131.7611 H   0  0  0  0  0  0  0  0  0  0  0  0
  149.9931  160.8270  132.6222 H   0  0  0  0  0  0  0  0  0  0  0  0
  148.7866  157.4905  131.8349 H   0  0  0  0  0  0  0  0  0  0  0  0
  146.5737  156.5636  132.5916 H   0  0  0  0  0  0  0  0  0  0  0  0
  144.0535  157.3162  133.7013 H   0  0  0  0  0  0  0  0  0  0  0  0
  140.8900  160.7460  134.5840 H   0  0  0  0  0  0  0  0  0  0  0  0
  142.1110  161.3030  133.3910 H   0  0  0  0  0  0  0  0  0  0  0  0
  147.5114  161.4921  133.0108 H   0  0  0  0  0  0  0  0  0  0  0  0
  1  2  1  0
  2  3  2  0
  2  4  1  0
  4  5  1  0
  5  6  2  0
  6  7  1  0
  7  8  2  0
  8  9  1  0
  9 10  2  0
 10 11  1  0
 11 12  1  0
 11 13  2  0
 10 14  1  0
 14 15  1  0
 15 16  2  0
 15 17  1  0
 14 18  1  0
 18 19  2  0
 19  5  1  0
 18  8  1  0
  1 20  1  0
  4 21  1  0
  4 22  1  0
  6 23  1  0
  7 24  1  0
  9 25  1  0
 12 26  1  0
 12 27  1  0
 19 28  1  0
M  CHG  2   1  -1  17  -1
M  END
>  <UniqueID>  (30) 
30

>  <SMILES>  (30) 
[NH-]C(=O)Cc1ccc2cc(C(N)=O)n(C(=O)[O-])c2c1

>  <Energy>  (30) 
66.05563009382571

>  <Genealogy>  (30) 
[NH-]C(=O)Cc1ccc2cc(C(N)=O)n(C(=O)[O-])c2c1 (protonated)
[NH-]C(=O)Cc1ccc2cc(C(N)=O)n(C(=O)[O-])c2c1 (3D coordinates assigned)
[NH-]C(=O)Cc1ccc2cc(C(N)=O)n(C(=O)[O-])c2c1 (optimized conformer: 66.05563009382571 kcal/mol)

>  <smiles>  (30) 
NC(=O)Cc1ccc2cc(C(N)=O)n(C(=O)O)c2c1

>  <score_type>  (30) 
oracle

>  <origin>  (30) 
adg

>  <m_score__min__energy>  (30) 
-6.2300000000000004

>  <m_primary>  (30) 
energy

$$$$
30:0
     RDKit          3D

 47 49  0  0  0  0  0  0  0  0999 V2000
  145.3850  152.6050  132.5890 C   0  0  0  0  0  0  0  0  0  0  0  0
  145.1730  153.3950  133.7520 O   0  0  0  0  0  0  0  0  0  0  0  0
  146.2020  154.0970  134.3860 C   0  0  0  0  0  0  0  0  0  0  0  0
  146.5520  153.7900  135.5570 O   0  0  0  0  0  0  0  0  0  0  0  0
  146.8790  155.1560  133.6900 N   0  0  0  0  0  0  0  0  0  0  0  0
  148.1140  155.1160  133.1110 C   0  0  0  0  0  0  0  0  0  0  0  0
  148.9560  153.9130  132.9480 C   0  0  0  0  0  0  0  0  0  0  0  0
  148.6200  152.7130  133.6410 N   0  0  0  0  0  0  0  0  0  0  0  0
  149.9910  153.9430  132.2330 O   0  0  0  0  0  0  0  0  0  0  0  0
  148.4560  156.3680  132.6050 C   0  0  0  0  0  0  0  0  0  0  0  0
  147.3840  157.1820  132.8870 C   0  0  0  0  0  0  0  0  0  0  0  0
  147.1910  158.5330  132.6200 C   0  0  0  0  0  0  0  0  0  0  0  0
  145.9940  159.1270  133.0500 C   0  0  0  0  0  0  0  0  0  0  0  0
  145.0110  158.3660  133.7420 C   0  0  0  0  0  0  0  0  0  0  0  0
  143.7810  158.9540  134.2070 N   0  0  0  0  0  0  0  0  0  0  0  0
  142.9010  159.8010  133.4000 C   0  0  0  0  0  0  0  0  0  0  0  0
  141.6670  159.0170  132.9410 C   0  0  0  0  0  0  0  0  0  0  0  0
  140.4650  159.4720  133.6920 N   0  0  0  0  0  0  0  0  0  0  0  0
  139.2380  159.2580  132.9050 C   0  0  0  0  0  0  0  0  0  0  0  0
  138.7300  157.8520  133.2180 C   0  0  0  0  0  0  0  0  0  0  0  0
  139.4290  157.4480  134.5070 C   0  0  0  0  0  0  0  0  0  0  0  0
  140.1980  158.7000  134.9240 C   0  0  1  0  0  0  0  0  0  0  0  0
  141.4120  158.4300  135.7830 C   0  0  0  0  0  0  0  0  0  0  0  0
  141.8540  159.3370  136.5370 O   0  0  0  0  0  0  0  0  0  0  0  0
  142.0710  157.2060  135.7340 O   0  0  0  0  0  0  0  0  0  0  0  0
  145.2510  156.9970  133.9970 C   0  0  0  0  0  0  0  0  0  0  0  0
  146.4450  156.4280  133.5410 C   0  0  0  0  0  0  0  0  0  0  0  0
  145.6595  151.5820  132.8857 H   0  0  0  0  0  0  0  0  0  0  0  0
  144.4623  152.5781  131.9908 H   0  0  0  0  0  0  0  0  0  0  0  0
  146.1972  153.0437  131.9908 H   0  0  0  0  0  0  0  0  0  0  0  0
  147.6920  152.6040  134.1080 H   0  0  0  0  0  0  0  0  0  0  0  0
  149.3867  156.6466  132.0890 H   0  0  0  0  0  0  0  0  0  0  0  0
  147.9542  159.1193  132.0873 H   0  0  0  0  0  0  0  0  0  0  0  0
  145.8139  160.1935  132.8496 H   0  0  0  0  0  0  0  0  0  0  0  0
  143.4870  158.7740  135.1950 H   0  0  0  0  0  0  0  0  0  0  0  0
  142.5779  160.6631  134.0020 H   0  0  0  0  0  0  0  0  0  0  0  0
  143.4542  160.1415  132.5123 H   0  0  0  0  0  0  0  0  0  0  0  0
  141.5090  159.1840  131.8653 H   0  0  0  0  0  0  0  0  0  0  0  0
  141.8282  157.9460  133.1331 H   0  0  0  0  0  0  0  0  0  0  0  0
  138.4781  160.0026  133.1845 H   0  0  0  0  0  0  0  0  0  0  0  0
  139.4444  159.3645  131.8298 H   0  0  0  0  0  0  0  0  0  0  0  0
  137.6389  157.8592  133.3577 H   0  0  0  0  0  0  0  0  0  0  0  0
  138.9424  157.1485  132.3995 H   0  0  0  0  0  0  0  0  0  0  0  0
  138.6956  157.1661  135.2768 H   0  0  0  0  0  0  0  0  0  0  0  0
  140.0849  156.5749  134.3750 H   0  0  0  0  0  0  0  0  0  0  0  0
  139.5867  159.3060  135.6089 H   0  0  0  0  0  0  0  0  0  0  0  0
  144.5135  156.3906  134.5433 H   0  0  0  0  0  0  0  0  0  0  0  0
  1  2  1  0
  2  3  1  0
  3  4  2  0
  3  5  1  0
  5  6  1  0
  6  7  1  0
  7  8  1  0
  7  9  2  0
  6 10  2  0
 10 11  1  0
 11 12  2  0
 12 13  1  0
 13 14  2  0
 14 15  1  0
 15 16  1  0
 16 17  1  0
 17 18  1  0
 18 19  1  0
 19 20  1  0
 20 21  1  0
 21 22  1  0
 22 23  1  0
 23 24  2  0
 23 25  1  0
 14 26  1  0
 26 27  2  0
 27  5  1  0
 27 11  1  0
 22 18  1  0
  1 28  1  0
  1 29  1  0
  1 30  1  0
  8 31  1  0
 10 32  1  0
 12 33  1  0
 13 34  1  0
 15 35  1  0
 16 36  1  0
 16 37  1  0
 17 38  1  0
 17 39  1  0
 19 40  1  0
 19 41  1  0
 20 42  1  0
 20 43  1  0
 21 44  1  0
 21 45  1  0
 22 46  1  1
 26 47  1  0
M  CHG  2   8  -1  25  -1
M  END
>  <UniqueID>  (31) 
31

>  <SMILES>  (31) 
COC(=O)n1c(C([NH-])=O)cc2ccc(NCCN3CCC[C@H]3C(=O)[O-])cc21

>  <Energy>  (31) 
93.56236282312679

>  <Genealogy>  (31) 
COC(=O)n1c(C([NH-])=O)cc2ccc(NCCN3CCCC3C(=O)[O-])cc21 (protonated)
COC(=O)n1c(C([NH-])=O)cc2ccc(NCCN3CCC[C@H]3C(=O)[O-])cc21 (chirality)
COC(=O)n1c(C([NH-])=O)cc2ccc(NCCN3CCC[C@H]3C(=O)[O-])cc21 (3D coordinates assigned)
COC(=O)n1c(C([NH-])=O)cc2ccc(NCCN3CCC[C@H]3C(=O)[O-])cc21 (nonaromatic ring conformer: 93.56236282312679 kcal/mol)

>  <smiles>  (31) 
COC(=O)n1c(C(N)=O)cc2ccc(NCCN3CCCC3C(=O)O)cc21

>  <score_type>  (31) 
oracle

>  <origin>  (31) 
adg

>  <m_score__min__energy>  (31) 
-7.7300000000000004

>  <m_primary>  (31) 
energy

$$$$
31:0
     RDKit          3D

 32 33  0  0  0  0  0  0  0  0999 V2000
  149.6150  160.5030  129.4710 C   0  0  0  0  0  0  0  0  0  0  0  0
  148.8450  160.7770  131.1000 S   0  0  0  0  0  0  0  0  0  0  0  0
  149.1670  159.0980  131.7410 C   0  0  0  0  0  0  0  0  0  0  0  0
  148.5180  158.9180  133.0800 C   0  0  0  0  0  0  0  0  0  0  0  0
  149.0930  159.3620  134.1100 O   0  0  0  0  0  0  0  0  0  0  0  0
  147.2880  158.1890  133.2110 N   0  0  0  0  0  0  0  0  0  0  0  0
  146.0240  158.6870  133.3140 C   0  0  0  0  0  0  0  0  0  0  0  0
  145.6790  160.1190  133.4650 C   0  0  0  0  0  0  0  0  0  0  0  0
  146.6940  161.0960  133.7030 N   0  0  0  0  0  0  0  0  0  0  0  0
  144.4800  160.4930  133.3620 O   0  0  0  0  0  0  0  0  0  0  0  0
  145.0940  157.6490  133.3570 C   0  0  0  0  0  0  0  0  0  0  0  0
  145.8370  156.4910  133.2860 C   0  0  0  0  0  0  0  0  0  0  0  0
  145.4270  155.1620  133.2710 C   0  0  0  0  0  0  0  0  0  0  0  0
  146.4150  154.1690  133.1610 C   0  0  0  0  0  0  0  0  0  0  0  0
  147.7890  154.5170  133.0840 C   0  0  0  0  0  0  0  0  0  0  0  0
  148.8350  153.4460  132.9050 C   0  0  0  0  0  0  0  0  0  0  0  0
  148.4760  152.5780  131.8880 F   0  0  0  0  0  0  0  0  0  0  0  0
  148.9870  152.7120  134.0680 F   0  0  0  0  0  0  0  0  0  0  0  0
  150.0420  154.0390  132.5850 F   0  0  0  0  0  0  0  0  0  0  0  0
  148.1620  155.8810  133.0830 C   0  0  0  0  0  0  0  0  0  0  0  0
  147.1570  156.8450  133.2030 C   0  0  0  0  0  0  0  0  0  0  0  0
  150.6432  160.1371  129.6083 H   0  0  0  0  0  0  0  0  0  0  0  0
  149.0322  159.7571  128.9107 H   0  0  0  0  0  0  0  0  0  0  0  0
  149.6343  161.4494  128.9107 H   0  0  0  0  0  0  0  0  0  0  0  0
  148.7593  158.3569  131.0378 H   0  0  0  0  0  0  0  0  0  0  0  0
  150.2528  158.9587  131.8485 H   0  0  0  0  0  0  0  0  0  0  0  0
  147.6890  160.8220  133.8540 H   0  0  0  0  0  0  0  0  0  0  0  0
  146.4410  162.1070  133.7710 H   0  0  0  0  0  0  0  0  0  0  0  0
  144.0000  157.7362  133.4317 H   0  0  0  0  0  0  0  0  0  0  0  0
  144.3620  154.8965  133.3430 H   0  0  0  0  0  0  0  0  0  0  0  0
  146.1203  153.1096  133.1342 H   0  0  0  0  0  0  0  0  0  0  0  0
  149.2175  156.1763  132.9900 H   0  0  0  0  0  0  0  0  0  0  0  0
  1  2  1  0
  2  3  1  0
  3  4  1  0
  4  5  2  0
  4  6  1  0
  6  7  1  0
  7  8  1  0
  8  9  1  0
  8 10  2  0
  7 11  2  0
 11 12  1  0
 12 13  2  0
 13 14  1  0
 14 15  2  0
 15 16  1  0
 16 17  1  0
 16 18  1  0
 16 19  1  0
 15 20  1  0
 20 21  2  0
 21  6  1  0
 21 12  1  0
  1 22  1  0
  1 23  1  0
  1 24  1  0
  3 25  1  0
  3 26  1  0
  9 27  1  0
  9 28  1  0
 11 29  1  0
 13 30  1  0
 14 31  1  0
 20 32  1  0
M  END
>  <UniqueID>  (32) 
32

>  <SMILES>  (32) 
CSCC(=O)n1c(C(N)=O)cc2ccc(C(F)(F)F)cc21

>  <Energy>  (32) 
67.08268882669178

>  <Genealogy>  (32) 
CSCC(=O)n1c(C(N)=O)cc2ccc(C(F)(F)F)cc21 (3D coordinates assigned)
CSCC(=O)n1c(C(N)=O)cc2ccc(C(F)(F)F)cc21 (optimized conformer: 67.08268882669178 kcal/mol)

>  <smiles>  (32) 
CSCC(=O)n1c(C(N)=O)cc2ccc(C(F)(F)F)cc21

>  <score_type>  (32) 
oracle

>  <origin>  (32) 
adg

>  <m_score__min__energy>  (32) 
-6.7999999999999998

>  <m_primary>  (32) 
energy

$$$$
32:0
     RDKit          3D

 36 37  0  0  0  0  0  0  0  0999 V2000
  149.6290  160.8740  129.0390 C   0  0  0  0  0  0  0  0  0  0  0  0
  149.3740  161.6250  130.3410 C   0  0  0  0  0  0  0  0  0  0  0  0
  148.7110  160.7880  131.2850 O   0  0  0  0  0  0  0  0  0  0  0  0
  149.3190  159.6860  131.8980 C   0  0  0  0  0  0  0  0  0  0  0  0
  150.2040  159.0170  131.2960 O   0  0  0  0  0  0  0  0  0  0  0  0
  148.9560  159.3370  133.3050 C   0  0  0  0  0  0  0  0  0  0  0  0
  147.5430  158.8310  133.3600 C   0  0  0  0  0  0  0  0  0  0  0  0
  147.2870  157.4360  133.3730 C   0  0  0  0  0  0  0  0  0  0  0  0
  145.9720  156.9500  133.4690 C   0  0  0  0  0  0  0  0  0  0  0  0
  144.9390  157.8780  133.5560 C   0  0  0  0  0  0  0  0  0  0  0  0
  143.5810  157.6860  133.6820 C   0  0  0  0  0  0  0  0  0  0  0  0
  143.0300  158.9660  133.7400 C   0  0  0  0  0  0  0  0  0  0  0  0
  141.5780  159.2280  133.7930 C   0  0  0  0  0  0  0  0  0  0  0  0
  141.0310  160.1360  134.7460 N   0  0  0  0  0  0  0  0  0  0  0  0
  140.8120  158.6740  132.9610 O   0  0  0  0  0  0  0  0  0  0  0  0
  144.0110  159.9090  133.6640 N   0  0  0  0  0  0  0  0  0  0  0  0
  143.8820  161.3360  133.7670 C   0  0  0  0  0  0  0  0  0  0  0  0
  145.0240  162.1750  134.2460 C   0  0  0  0  0  0  0  0  0  0  0  0
  142.8220  161.8970  133.3830 O   0  0  0  0  0  0  0  0  0  0  0  0
  145.1700  159.2290  133.5450 C   0  0  0  0  0  0  0  0  0  0  0  0
  146.4680  159.7420  133.4620 C   0  0  0  0  0  0  0  0  0  0  0  0
  149.9751  159.8547  129.2654 H   0  0  0  0  0  0  0  0  0  0  0  0
  148.6975  160.8239  128.4561 H   0  0  0  0  0  0  0  0  0  0  0  0
  150.3984  161.4015  128.4561 H   0  0  0  0  0  0  0  0  0  0  0  0
  150.3355  161.9533  130.7625 H   0  0  0  0  0  0  0  0  0  0  0  0
  148.7335  162.4936  130.1281 H   0  0  0  0  0  0  0  0  0  0  0  0
  149.6373  158.5562  133.6741 H   0  0  0  0  0  0  0  0  0  0  0  0
  149.0428  160.2353  133.9339 H   0  0  0  0  0  0  0  0  0  0  0  0
  148.1260  156.7277  133.3073 H   0  0  0  0  0  0  0  0  0  0  0  0
  145.7657  155.8695  133.4752 H   0  0  0  0  0  0  0  0  0  0  0  0
  143.0447  156.7267  133.7273 H   0  0  0  0  0  0  0  0  0  0  0  0
  141.3100  161.1410  134.7530 H   0  0  0  0  0  0  0  0  0  0  0  0
  145.0363  162.1840  135.3459 H   0  0  0  0  0  0  0  0  0  0  0  0
  145.9695  161.7552  133.8722 H   0  0  0  0  0  0  0  0  0  0  0  0
  144.9060  163.2028  133.8722 H   0  0  0  0  0  0  0  0  0  0  0  0
  146.6476  160.8272  133.4758 H   0  0  0  0  0  0  0  0  0  0  0  0
  1  2  1  0
  2  3  1  0
  3  4  1  0
  4  5  2  0
  4  6  1  0
  6  7  1  0
  7  8  2  0
  8  9  1  0
  9 10  2  0
 10 11  1  0
 11 12  2  0
 12 13  1  0
 13 14  1  0
 13 15  2  0
 12 16  1  0
 16 17  1  0
 17 18  1  0
 17 19  2  0
 16 20  1  0
 20 21  2  0
 21  7  1  0
 20 10  1  0
  1 22  1  0
  1 23  1  0
  1 24  1  0
  2 25  1  0
  2 26  1  0
  6 27  1  0
  6 28  1  0
  8 29  1  0
  9 30  1  0
 11 31  1  0
 14 32  1  0
 18 33  1  0
 18 34  1  0
 18 35  1  0
 21 36  1  0
M  CHG  1  14  -1
M  END
>  <UniqueID>  (33) 
33

>  <SMILES>  (33) 
CCOC(=O)Cc1ccc2cc(C([NH-])=O)n(C(C)=O)c2c1

>  <Energy>  (33) 
69.00089827828072

>  <Genealogy>  (33) 
CCOC(=O)Cc1ccc2cc(C([NH-])=O)n(C(C)=O)c2c1 (protonated)
CCOC(=O)Cc1ccc2cc(C([NH-])=O)n(C(C)=O)c2c1 (3D coordinates assigned)
CCOC(=O)Cc1ccc2cc(C([NH-])=O)n(C(C)=O)c2c1 (optimized conformer: 69.00089827828072 kcal/mol)

>  <smiles>  (33) 
CCOC(=O)Cc1ccc2cc(C(N)=O)n(C(C)=O)c2c1

>  <score_type>  (33) 
oracle

>  <origin>  (33) 
adg

>  <m_score__min__energy>  (33) 
-6.9500000000000002

>  <m_primary>  (33) 
energy

$$$$
33:0
     RDKit          3D

 33 34  0  0  0  0  0  0  0  0999 V2000
  149.8160  159.8990  129.7110 C   0  0  0  0  0  0  0  0  0  0  0  0
  150.1530  159.6800  131.1130 N   0  0  0  0  0  0  0  0  0  0  0  0
  149.3150  158.9470  132.0250 C   0  0  0  0  0  0  0  0  0  0  0  0
  148.4340  159.6590  132.8770 C   0  0  0  0  0  0  0  0  0  0  0  0
  147.6040  158.9820  133.7870 C   0  0  0  0  0  0  0  0  0  0  0  0
  147.6730  157.5930  133.8220 C   0  0  0  0  0  0  0  0  0  0  0  0
  146.9970  156.6890  134.6100 C   0  0  0  0  0  0  0  0  0  0  0  0
  147.4650  155.4350  134.2200 C   0  0  0  0  0  0  0  0  0  0  0  0
  146.9510  154.1610  134.7600 C   0  0  0  0  0  0  0  0  0  0  0  0
  146.0320  153.3850  133.9960 N   0  0  0  0  0  0  0  0  0  0  0  0
  147.3390  153.7350  135.8800 O   0  0  0  0  0  0  0  0  0  0  0  0
  148.3980  155.5620  133.2350 N   0  0  0  0  0  0  0  0  0  0  0  0
  149.1740  154.5320  132.6090 C   0  0  0  0  0  0  0  0  0  0  0  0
  150.3560  154.7830  132.2500 O   0  0  0  0  0  0  0  0  0  0  0  0
  148.6330  153.1310  132.5340 C   0  0  0  0  0  0  0  0  0  0  0  0
  149.9480  151.8580  132.5990 S   0  0  0  0  0  0  0  0  0  0  0  0
  148.8220  150.4260  132.5850 C   0  0  0  0  0  0  0  0  0  0  0  0
  148.5100  156.8870  133.0010 C   0  0  0  0  0  0  0  0  0  0  0  0
  149.3550  157.5320  132.0920 C   0  0  0  0  0  0  0  0  0  0  0  0
  148.8953  160.4973  129.6443 H   0  0  0  0  0  0  0  0  0  0  0  0
  150.6386  160.4355  129.2156 H   0  0  0  0  0  0  0  0  0  0  0  0
  149.6598  158.9294  129.2156 H   0  0  0  0  0  0  0  0  0  0  0  0
  151.0510  160.0820  131.4640 H   0  0  0  0  0  0  0  0  0  0  0  0
  148.3994  160.7572  132.8253 H   0  0  0  0  0  0  0  0  0  0  0  0
  146.9214  159.5330  134.4506 H   0  0  0  0  0  0  0  0  0  0  0  0
  146.2466  156.9094  135.3835 H   0  0  0  0  0  0  0  0  0  0  0  0
  146.2410  152.3900  133.7540 H   0  0  0  0  0  0  0  0  0  0  0  0
  147.9485  152.9728  133.3804 H   0  0  0  0  0  0  0  0  0  0  0  0
  148.1180  153.0261  131.5677 H   0  0  0  0  0  0  0  0  0  0  0  0
  148.5905  150.1315  133.6193 H   0  0  0  0  0  0  0  0  0  0  0  0
  147.8918  150.6960  132.0637 H   0  0  0  0  0  0  0  0  0  0  0  0
  149.3039  149.5857  132.0637 H   0  0  0  0  0  0  0  0  0  0  0  0
  150.0333  156.9557  131.4456 H   0  0  0  0  0  0  0  0  0  0  0  0
  1  2  1  0
  2  3  1  0
  3  4  2  0
  4  5  1  0
  5  6  2  0
  6  7  1  0
  7  8  2  0
  8  9  1  0
  9 10  1  0
  9 11  2  0
  8 12  1  0
 12 13  1  0
 13 14  2  0
 13 15  1  0
 15 16  1  0
 16 17  1  0
 12 18  1  0
 18 19  2  0
 19  3  1  0
 18  6  1  0
  1 20  1  0
  1 21  1  0
  1 22  1  0
  2 23  1  0
  4 24  1  0
  5 25  1  0
  7 26  1  0
 10 27  1  0
 15 28  1  0
 15 29  1  0
 17 30  1  0
 17 31  1  0
 17 32  1  0
 19 33  1  0
M  CHG  1  10  -1
M  END
>  <UniqueID>  (34) 
34

>  <SMILES>  (34) 
CNc1ccc2cc(C([NH-])=O)n(C(=O)CSC)c2c1

>  <Energy>  (34) 
68.87896701075165

>  <Genealogy>  (34) 
CNc1ccc2cc(C([NH-])=O)n(C(=O)CSC)c2c1 (protonated)
CNc1ccc2cc(C([NH-])=O)n(C(=O)CSC)c2c1 (3D coordinates assigned)
CNc1ccc2cc(C([NH-])=O)n(C(=O)CSC)c2c1 (optimized conformer: 68.87896701075165 kcal/mol)

>  <smiles>  (34) 
CNc1ccc2cc(C(N)=O)n(C(=O)CSC)c2c1

>  <score_type>  (34) 
oracle

>  <origin>  (34) 
adg

>  <m_score__min__energy>  (34) 
-6.5199999999999996

>  <m_primary>  (34) 
energy

$$$$
34:0
     RDKit          3D

 36 38  0  0  0  0  0  0  0  0999 V2000
  144.7350  153.9290  132.2120 C   0  0  0  0  0  0  0  0  0  0  0  0
  145.3040  155.2200  132.0320 O   0  0  0  0  0  0  0  0  0  0  0  0
  146.5080  155.6020  132.6310 C   0  0  0  0  0  0  0  0  0  0  0  0
  147.6040  155.1240  132.2280 O   0  0  0  0  0  0  0  0  0  0  0  0
  146.4900  156.5550  133.7500 C   0  0  0  0  0  0  0  0  0  0  0  0
  146.6580  156.1340  134.9250 O   0  0  0  0  0  0  0  0  0  0  0  0
  146.2990  157.9600  133.5200 N   0  0  0  0  0  0  0  0  0  0  0  0
  147.2360  158.8670  133.1260 C   0  0  0  0  0  0  0  0  0  0  0  0
  148.6290  158.5420  132.7400 C   0  0  0  0  0  0  0  0  0  0  0  0
  148.9090  157.4840  131.8200 N   0  0  0  0  0  0  0  0  0  0  0  0
  149.5880  159.1910  133.2350 O   0  0  0  0  0  0  0  0  0  0  0  0
  146.6810  160.1460  133.0790 C   0  0  0  0  0  0  0  0  0  0  0  0
  145.3690  159.9900  133.4690 C   0  0  0  0  0  0  0  0  0  0  0  0
  144.3610  160.9370  133.6210 C   0  0  0  0  0  0  0  0  0  0  0  0
  143.1060  160.4960  134.0710 C   0  0  0  0  0  0  0  0  0  0  0  0
  142.8800  159.1260  134.3730 C   0  0  0  0  0  0  0  0  0  0  0  0
  141.5520  158.6730  134.8600 C   0  0  0  0  0  0  0  0  0  0  0  0
  140.5660  158.2360  133.9640 C   0  0  0  0  0  0  0  0  0  0  0  0
  139.3310  157.8150  134.4520 C   0  0  0  0  0  0  0  0  0  0  0  0
  139.0960  157.8360  135.7900 N   0  0  0  0  0  0  0  0  0  0  0  0
  140.0250  158.2530  136.6510 N   0  0  0  0  0  0  0  0  0  0  0  0
  141.2480  158.6710  136.2300 C   0  0  0  0  0  0  0  0  0  0  0  0
  143.9350  158.1970  134.2070 C   0  0  0  0  0  0  0  0  0  0  0  0
  145.1660  158.6630  133.7350 C   0  0  0  0  0  0  0  0  0  0  0  0
  144.6412  153.7163  133.2872 H   0  0  0  0  0  0  0  0  0  0  0  0
  143.7400  153.8983  131.7440 H   0  0  0  0  0  0  0  0  0  0  0  0
  145.3837  153.1739  131.7440 H   0  0  0  0  0  0  0  0  0  0  0  0
  148.1450  156.9640  131.3350 H   0  0  0  0  0  0  0  0  0  0  0  0
  149.8970  157.2450  131.5860 H   0  0  0  0  0  0  0  0  0  0  0  0
  147.1843  161.0809  132.7915 H   0  0  0  0  0  0  0  0  0  0  0  0
  144.5416  161.9984  133.3956 H   0  0  0  0  0  0  0  0  0  0  0  0
  142.2872  161.2206  134.1913 H   0  0  0  0  0  0  0  0  0  0  0  0
  140.7664  158.2256  132.8825 H   0  0  0  0  0  0  0  0  0  0  0  0
  138.5510  157.4678  133.7584 H   0  0  0  0  0  0  0  0  0  0  0  0
  141.9977  159.0069  136.9615 H   0  0  0  0  0  0  0  0  0  0  0  0
  143.7898  157.1327  134.4439 H   0  0  0  0  0  0  0  0  0  0  0  0
  1  2  1  0
  2  3  1  0
  3  4  2  0
  3  5  1  0
  5  6  2  0
  5  7  1  0
  7  8  1  0
  8  9  1  0
  9 10  1  0
  9 11  2  0
  8 12  2  0
 12 13  1  0
 13 14  2  0
 14 15  1  0
 15 16  2  0
 16 17  1  0
 17 18  2  0
 18 19  1  0
 19 20  2  0
 20 21  1  0
 21 22  2  0
 16 23  1  0
 23 24  2  0
 24  7  1  0
 24 13  1  0
 22 17  1  0
  1 25  1  0
  1 26  1  0
  1 27  1  0
 10 28  1  0
 10 29  1  0
 12 30  1  0
 14 31  1  0
 15 32  1  0
 18 33  1  0
 19 34  1  0
 22 35  1  0
 23 36  1  0
M  END
>  <UniqueID>  (35) 
35

>  <SMILES>  (35) 
COC(=O)C(=O)n1c(C(N)=O)cc2ccc(-c3ccnnc3)cc21

>  <Energy>  (35) 
81.91482196708897

>  <Genealogy>  (35) 
COC(=O)C(=O)n1c(C(N)=O)cc2ccc(-c3ccnnc3)cc21 (3D coordinates assigned)
COC(=O)C(=O)n1c(C(N)=O)cc2ccc(-c3ccnnc3)cc21 (optimized conformer: 81.91482196708897 kcal/mol)

>  <smiles>  (35) 
COC(=O)C(=O)n1c(C(N)=O)cc2ccc(-c3ccnnc3)cc21

>  <score_type>  (35) 
oracle

>  <origin>  (35) 
adg

>  <m_score__min__energy>  (35) 
-7.3499999999999996

>  <m_primary>  (35) 
energy

$$$$
35:0
     RDKit          3D

 41 42  0  0  0  0  0  0  0  0999 V2000
  149.3950  161.2110  130.5370 C   0  0  0  0  0  0  0  0  0  0  0  0
  149.3890  159.7530  130.9780 C   0  0  0  0  0  0  0  0  0  0  0  0
  148.1530  159.4270  131.6110 O   0  0  0  0  0  0  0  0  0  0  0  0
  148.0670  158.7920  132.8540 C   0  0  0  0  0  0  0  0  0  0  0  0
  148.8760  159.0860  133.7770 O   0  0  0  0  0  0  0  0  0  0  0  0
  147.0570  157.7940  133.0800 N   0  0  0  0  0  0  0  0  0  0  0  0
  145.7580  157.9940  133.4420 C   0  0  0  0  0  0  0  0  0  0  0  0
  145.0750  159.3000  133.5260 C   0  0  0  0  0  0  0  0  0  0  0  0
  145.6090  160.4570  132.8790 N   0  0  0  0  0  0  0  0  0  0  0  0
  143.9730  159.3850  134.1300 O   0  0  0  0  0  0  0  0  0  0  0  0
  145.1180  156.7790  133.6720 C   0  0  0  0  0  0  0  0  0  0  0  0
  146.0680  155.8150  133.4220 C   0  0  0  0  0  0  0  0  0  0  0  0
  145.9740  154.4290  133.4930 C   0  0  0  0  0  0  0  0  0  0  0  0
  147.1230  153.6750  133.1970 C   0  0  0  0  0  0  0  0  0  0  0  0
  148.3400  154.3180  132.8600 C   0  0  0  0  0  0  0  0  0  0  0  0
  149.5550  153.4990  132.5080 C   0  0  0  0  0  0  0  0  0  0  0  0
  149.1710  152.1620  131.8630 C   0  0  0  0  0  0  0  0  0  0  0  0
  150.0290  151.0380  132.3630 C   0  0  0  0  0  0  0  0  0  0  0  0
  150.3390  150.9820  133.5840 O   0  0  0  0  0  0  0  0  0  0  0  0
  150.4540  150.0460  131.4740 O   0  0  0  0  0  0  0  0  0  0  0  0
  150.7220  150.3130  130.1030 C   0  0  0  0  0  0  0  0  0  0  0  0
  148.3960  155.7280  132.7990 C   0  0  0  0  0  0  0  0  0  0  0  0
  147.2310  156.4530  133.0710 C   0  0  0  0  0  0  0  0  0  0  0  0
  149.3977  161.8622  131.4235 H   0  0  0  0  0  0  0  0  0  0  0  0
  150.2940  161.4081  129.9345 H   0  0  0  0  0  0  0  0  0  0  0  0
  148.4977  161.4155  129.9345 H   0  0  0  0  0  0  0  0  0  0  0  0
  149.5258  159.1080  130.0975 H   0  0  0  0  0  0  0  0  0  0  0  0
  150.2081  159.5951  131.6950 H   0  0  0  0  0  0  0  0  0  0  0  0
  145.1330  161.3810  132.9810 H   0  0  0  0  0  0  0  0  0  0  0  0
  146.4230  160.3840  132.2290 H   0  0  0  0  0  0  0  0  0  0  0  0
  144.0755  156.6229  133.9864 H   0  0  0  0  0  0  0  0  0  0  0  0
  145.0300  153.9382  133.7721 H   0  0  0  0  0  0  0  0  0  0  0  0
  147.0770  152.5764  133.2273 H   0  0  0  0  0  0  0  0  0  0  0  0
  150.1771  154.0694  131.8025 H   0  0  0  0  0  0  0  0  0  0  0  0
  150.1054  153.2861  133.4363 H   0  0  0  0  0  0  0  0  0  0  0  0
  148.1199  151.9407  132.1001 H   0  0  0  0  0  0  0  0  0  0  0  0
  149.3201  152.2501  130.7767 H   0  0  0  0  0  0  0  0  0  0  0  0
  151.4993  151.0874  130.0254 H   0  0  0  0  0  0  0  0  0  0  0  0
  151.0709  149.3928  129.6116 H   0  0  0  0  0  0  0  0  0  0  0  0
  149.8031  150.6653  129.6116 H   0  0  0  0  0  0  0  0  0  0  0  0
  149.3334  156.2437  132.5437 H   0  0  0  0  0  0  0  0  0  0  0  0
  1  2  1  0
  2  3  1  0
  3  4  1  0
  4  5  2  0
  4  6  1  0
  6  7  1  0
  7  8  1  0
  8  9  1  0
  8 10  2  0
  7 11  2  0
 11 12  1  0
 12 13  2  0
 13 14  1  0
 14 15  2  0
 15 16  1  0
 16 17  1  0
 17 18  1  0
 18 19  2  0
 18 20  1  0
 20 21  1  0
 15 22  1  0
 22 23  2  0
 23  6  1  0
 23 12  1  0
  1 24  1  0
  1 25  1  0
  1 26  1  0
  2 27  1  0
  2 28  1  0
  9 29  1  0
  9 30  1  0
 11 31  1  0
 13 32  1  0
 14 33  1  0
 16 34  1  0
 16 35  1  0
 17 36  1  0
 17 37  1  0
 21 38  1  0
 21 39  1  0
 21 40  1  0
 22 41  1  0
M  END
>  <UniqueID>  (36) 
36

>  <SMILES>  (36) 
CCOC(=O)n1c(C(N)=O)cc2ccc(CCC(=O)OC)cc21

>  <Energy>  (36) 
68.9642981577665

>  <Genealogy>  (36) 
CCOC(=O)n1c(C(N)=O)cc2ccc(CCC(=O)OC)cc21 (3D coordinates assigned)
CCOC(=O)n1c(C(N)=O)cc2ccc(CCC(=O)OC)cc21 (optimized conformer: 68.9642981577665 kcal/mol)

>  <smiles>  (36) 
CCOC(=O)n1c(C(N)=O)cc2ccc(CCC(=O)OC)cc21

>  <score_type>  (36) 
oracle

>  <origin>  (36) 
adg

>  <m_score__min__energy>  (36) 
-6.8799999999999999

>  <m_primary>  (36) 
energy

$$$$
36:0
     RDKit          3D

 41 42  0  0  0  0  0  0  0  0999 V2000
  139.0980  157.5300  133.5310 C   0  0  0  0  0  0  0  0  0  0  0  0
  139.3990  158.2370  134.7270 O   0  0  0  0  0  0  0  0  0  0  0  0
  140.6070  158.0790  135.4130 C   0  0  0  0  0  0  0  0  0  0  0  0
  140.7560  158.5520  136.5740 O   0  0  0  0  0  0  0  0  0  0  0  0
  141.7100  157.2910  134.7840 C   0  0  0  0  0  0  0  0  0  0  0  0
  142.8330  158.2050  134.3790 C   0  0  0  0  0  0  0  0  0  0  0  0
  142.6750  159.6110  134.4460 C   0  0  0  0  0  0  0  0  0  0  0  0
  143.7330  160.4680  134.1030 C   0  0  0  0  0  0  0  0  0  0  0  0
  144.9350  159.8930  133.6970 C   0  0  0  0  0  0  0  0  0  0  0  0
  146.1310  160.4850  133.3630 C   0  0  0  0  0  0  0  0  0  0  0  0
  146.9970  159.4320  133.0840 C   0  0  0  0  0  0  0  0  0  0  0  0
  148.3900  159.6230  132.6340 C   0  0  0  0  0  0  0  0  0  0  0  0
  149.4500  158.8090  133.1400 N   0  0  0  0  0  0  0  0  0  0  0  0
  148.6430  160.4830  131.7490 O   0  0  0  0  0  0  0  0  0  0  0  0
  146.3690  158.2340  133.2490 N   0  0  0  0  0  0  0  0  0  0  0  0
  146.9530  156.9220  133.2040 C   0  0  0  0  0  0  0  0  0  0  0  0
  146.7350  156.1700  132.2150 O   0  0  0  0  0  0  0  0  0  0  0  0
  147.7730  156.4900  134.2520 O   0  0  0  0  0  0  0  0  0  0  0  0
  147.6360  155.2230  134.8930 C   0  0  0  0  0  0  0  0  0  0  0  0
  148.1080  154.1310  133.9350 C   0  0  0  0  0  0  0  0  0  0  0  0
  146.1750  154.9920  135.2890 C   0  0  0  0  0  0  0  0  0  0  0  0
  145.1030  158.5340  133.6200 C   0  0  0  0  0  0  0  0  0  0  0  0
  144.0680  157.6580  133.9680 C   0  0  0  0  0  0  0  0  0  0  0  0
  138.6786  156.5448  133.7831 H   0  0  0  0  0  0  0  0  0  0  0  0
  138.3649  158.1009  132.9422 H   0  0  0  0  0  0  0  0  0  0  0  0
  140.0176  157.3972  132.9422 H   0  0  0  0  0  0  0  0  0  0  0  0
  142.0858  156.5510  135.5059 H   0  0  0  0  0  0  0  0  0  0  0  0
  141.3225  156.7795  133.8906 H   0  0  0  0  0  0  0  0  0  0  0  0
  141.7135  160.0359  134.7701 H   0  0  0  0  0  0  0  0  0  0  0  0
  143.6162  161.5606  134.1534 H   0  0  0  0  0  0  0  0  0  0  0  0
  146.3550  161.5613  133.3247 H   0  0  0  0  0  0  0  0  0  0  0  0
  150.4350  158.9860  132.8410 H   0  0  0  0  0  0  0  0  0  0  0  0
  149.2530  157.9780  133.7400 H   0  0  0  0  0  0  0  0  0  0  0  0
  148.2489  155.1980  135.8061 H   0  0  0  0  0  0  0  0  0  0  0  0
  148.4794  153.2718  134.5128 H   0  0  0  0  0  0  0  0  0  0  0  0
  147.2678  153.8110  133.3011 H   0  0  0  0  0  0  0  0  0  0  0  0
  148.9167  154.5237  133.3011 H   0  0  0  0  0  0  0  0  0  0  0  0
  146.0901  154.9786  136.3856 H   0  0  0  0  0  0  0  0  0  0  0  0
  145.5524  155.8029  134.8829 H   0  0  0  0  0  0  0  0  0  0  0  0
  145.8330  154.0286  134.8829 H   0  0  0  0  0  0  0  0  0  0  0  0
  144.2136  156.5686  133.9223 H   0  0  0  0  0  0  0  0  0  0  0  0
  1  2  1  0
  2  3  1  0
  3  4  2  0
  3  5  1  0
  5  6  1  0
  6  7  2  0
  7  8  1  0
  8  9  2  0
  9 10  1  0
 10 11  2  0
 11 12  1  0
 12 13  1  0
 12 14  2  0
 11 15  1  0
 15 16  1  0
 16 17  2  0
 16 18  1  0
 18 19  1  0
 19 20  1  0
 19 21  1  0
 15 22  1  0
 22 23  2  0
 23  6  1  0
 22  9  1  0
  1 24  1  0
  1 25  1  0
  1 26  1  0
  5 27  1  0
  5 28  1  0
  7 29  1  0
  8 30  1  0
 10 31  1  0
 13 32  1  0
 13 33  1  0
 19 34  1  0
 20 35  1  0
 20 36  1  0
 20 37  1  0
 21 38  1  0
 21 39  1  0
 21 40  1  0
 23 41  1  0
M  END
>  <UniqueID>  (37) 
37

>  <SMILES>  (37) 
COC(=O)Cc1ccc2cc(C(N)=O)n(C(=O)OC(C)C)c2c1

>  <Energy>  (37) 
69.4289386122349

>  <Genealogy>  (37) 
COC(=O)Cc1ccc2cc(C(N)=O)n(C(=O)OC(C)C)c2c1 (3D coordinates assigned)
COC(=O)Cc1ccc2cc(C(N)=O)n(C(=O)OC(C)C)c2c1 (optimized conformer: 69.4289386122349 kcal/mol)

>  <smiles>  (37) 
COC(=O)Cc1ccc2cc(C(N)=O)n(C(=O)OC(C)C)c2c1

>  <score_type>  (37) 
oracle

>  <origin>  (37) 
adg

>  <m_score__min__energy>  (37) 
-7.0099999999999998

>  <m_primary>  (37) 
energy

$$$$
37:0
     RDKit          3D

 44 45  0  0  0  0  0  0  0  0999 V2000
  137.4190  159.1840  131.4430 C   0  0  0  0  0  0  0  0  0  0  0  0
  139.0560  159.8870  131.4050 S   0  0  0  0  0  0  0  0  0  0  0  0
  139.0840  161.1480  132.2230 O   0  0  0  0  0  0  0  0  0  0  0  0
  139.4170  160.2130  129.9790 O   0  0  0  0  0  0  0  0  0  0  0  0
  140.2290  158.7080  132.0570 C   0  0  0  0  0  0  0  0  0  0  0  0
  139.5690  157.7870  133.0890 C   0  0  0  0  0  0  0  0  0  0  0  0
  140.3450  157.7280  134.4180 C   0  0  0  0  0  0  0  0  0  0  0  0
  141.7090  157.0230  134.3200 C   0  0  0  0  0  0  0  0  0  0  0  0
  142.8340  157.9880  134.0470 C   0  0  0  0  0  0  0  0  0  0  0  0
  142.6430  159.3760  134.2630 C   0  0  0  0  0  0  0  0  0  0  0  0
  143.6900  160.2850  134.0450 C   0  0  0  0  0  0  0  0  0  0  0  0
  144.9160  159.7790  133.6230 C   0  0  0  0  0  0  0  0  0  0  0  0
  146.1050  160.4280  133.3760 C   0  0  0  0  0  0  0  0  0  0  0  0
  147.0020  159.4240  133.0120 C   0  0  0  0  0  0  0  0  0  0  0  0
  148.3940  159.6760  132.5800 C   0  0  0  0  0  0  0  0  0  0  0  0
  149.4610  158.8370  133.0270 N   0  0  0  0  0  0  0  0  0  0  0  0
  148.6550  160.6520  131.8260 O   0  0  0  0  0  0  0  0  0  0  0  0
  146.3930  158.2060  133.0400 N   0  0  0  0  0  0  0  0  0  0  0  0
  146.9890  156.9130  132.8340 C   0  0  0  0  0  0  0  0  0  0  0  0
  148.0880  156.8270  132.2150 O   0  0  0  0  0  0  0  0  0  0  0  0
  146.3150  155.6550  133.3180 C   0  0  0  0  0  0  0  0  0  0  0  0
  146.8200  154.5240  132.6590 O   0  0  0  0  0  0  0  0  0  0  0  0
  145.1170  158.4400  133.4080 C   0  0  0  0  0  0  0  0  0  0  0  0
  144.0930  157.5110  133.6170 C   0  0  0  0  0  0  0  0  0  0  0  0
  137.1025  159.0481  132.4877 H   0  0  0  0  0  0  0  0  0  0  0  0
  136.7176  159.8603  130.9324 H   0  0  0  0  0  0  0  0  0  0  0  0
  137.4264  158.2097  130.9324 H   0  0  0  0  0  0  0  0  0  0  0  0
  140.6225  158.0980  131.2306 H   0  0  0  0  0  0  0  0  0  0  0  0
  141.0422  159.2603  132.5507 H   0  0  0  0  0  0  0  0  0  0  0  0
  138.5529  158.1568  133.2913 H   0  0  0  0  0  0  0  0  0  0  0  0
  139.5568  156.7713  132.6669 H   0  0  0  0  0  0  0  0  0  0  0  0
  140.5130  158.7580  134.7656 H   0  0  0  0  0  0  0  0  0  0  0  0
  139.7330  157.1377  135.1159 H   0  0  0  0  0  0  0  0  0  0  0  0
  141.9091  156.5063  135.2703 H   0  0  0  0  0  0  0  0  0  0  0  0
  141.6619  156.3149  133.4795 H   0  0  0  0  0  0  0  0  0  0  0  0
  141.6645  159.7443  134.6049 H   0  0  0  0  0  0  0  0  0  0  0  0
  143.5460  161.3641  134.2028 H   0  0  0  0  0  0  0  0  0  0  0  0
  146.3046  161.5072  133.4500 H   0  0  0  0  0  0  0  0  0  0  0  0
  149.2760  157.9920  133.6140 H   0  0  0  0  0  0  0  0  0  0  0  0
  150.4430  159.0260  132.7190 H   0  0  0  0  0  0  0  0  0  0  0  0
  146.4885  155.5479  134.3989 H   0  0  0  0  0  0  0  0  0  0  0  0
  145.2387  155.7316  133.1040 H   0  0  0  0  0  0  0  0  0  0  0  0
  147.2580  154.8460  131.8300 H   0  0  0  0  0  0  0  0  0  0  0  0
  144.2629  156.4369  133.4511 H   0  0  0  0  0  0  0  0  0  0  0  0
  1  2  1  0
  2  3  2  0
  2  4  2  0
  2  5  1  0
  5  6  1  0
  6  7  1  0
  7  8  1  0
  8  9  1  0
  9 10  2  0
 10 11  1  0
 11 12  2  0
 12 13  1  0
 13 14  2  0
 14 15  1  0
 15 16  1  0
 15 17  2  0
 14 18  1  0
 18 19  1  0
 19 20  2  0
 19 21  1  0
 21 22  1  0
 18 23  1  0
 23 24  2  0
 24  9  1  0
 23 12  1  0
  1 25  1  0
  1 26  1  0
  1 27  1  0
  5 28  1  0
  5 29  1  0
  6 30  1  0
  6 31  1  0
  7 32  1  0
  7 33  1  0
  8 34  1  0
  8 35  1  0
 10 36  1  0
 11 37  1  0
 13 38  1  0
 16 39  1  0
 16 40  1  0
 21 41  1  0
 21 42  1  0
 22 43  1  0
 24 44  1  0
M  END
>  <UniqueID>  (38) 
38

>  <SMILES>  (38) 
CS(=O)(=O)CCCCc1ccc2cc(C(N)=O)n(C(=O)CO)c2c1

>  <Energy>  (38) 
68.32473537847586

>  <Genealogy>  (38) 
CS(=O)(=O)CCCCc1ccc2cc(C(N)=O)n(C(=O)CO)c2c1 (3D coordinates assigned)
CS(=O)(=O)CCCCc1ccc2cc(C(N)=O)n(C(=O)CO)c2c1 (optimized conformer: 68.32473537847586 kcal/mol)

>  <smiles>  (38) 
CS(=O)(=O)CCCCc1ccc2cc(C(N)=O)n(C(=O)CO)c2c1

>  <score_type>  (38) 
oracle

>  <origin>  (38) 
adg

>  <m_score__min__energy>  (38) 
-7.7400000000000002

>  <m_primary>  (38) 
energy

$$$$
38:0
     RDKit          3D

 38 40  0  0  0  0  0  0  0  0999 V2000
  142.9830  154.2350  135.9590 C   0  0  0  0  0  0  0  0  0  0  0  0
  144.2890  154.4800  136.5620 N   0  0  0  0  0  0  0  0  0  0  0  0
  145.4990  154.6520  135.8050 C   0  0  0  0  0  0  0  0  0  0  0  0
  145.5580  155.4980  134.6820 C   0  0  0  0  0  0  0  0  0  0  0  0
  146.7620  155.6290  133.9680 C   0  0  0  0  0  0  0  0  0  0  0  0
  146.8400  156.5160  132.7820 C   0  0  0  0  0  0  0  0  0  0  0  0
  146.9710  156.0180  131.6310 O   0  0  0  0  0  0  0  0  0  0  0  0
  146.7760  157.9440  132.9200 N   0  0  0  0  0  0  0  0  0  0  0  0
  147.7900  158.8420  132.7740 C   0  0  0  0  0  0  0  0  0  0  0  0
  149.1600  158.5320  132.3150 C   0  0  0  0  0  0  0  0  0  0  0  0
  149.6280  157.1880  132.2510 N   0  0  0  0  0  0  0  0  0  0  0  0
  149.9210  159.4670  131.9470 O   0  0  0  0  0  0  0  0  0  0  0  0
  147.3450  160.1290  133.0730 C   0  0  0  0  0  0  0  0  0  0  0  0
  146.0180  159.9880  133.4130 C   0  0  0  0  0  0  0  0  0  0  0  0
  145.0820  160.9430  133.7980 C   0  0  0  0  0  0  0  0  0  0  0  0
  143.7830  160.5070  134.1040 C   0  0  0  0  0  0  0  0  0  0  0  0
  143.4470  159.1280  134.0470 C   0  0  0  0  0  0  0  0  0  0  0  0
  142.0370  158.6790  134.3340 C   0  0  0  0  0  0  0  0  0  0  0  0
  141.1640  159.1620  133.3740 F   0  0  0  0  0  0  0  0  0  0  0  0
  141.6180  159.1340  135.5720 F   0  0  0  0  0  0  0  0  0  0  0  0
  144.4210  158.1920  133.6310 C   0  0  0  0  0  0  0  0  0  0  0  0
  145.7010  158.6590  133.3180 C   0  0  0  0  0  0  0  0  0  0  0  0
  147.8890  154.9160  134.4040 C   0  0  0  0  0  0  0  0  0  0  0  0
  147.7920  154.0870  135.5210 C   0  0  0  0  0  0  0  0  0  0  0  0
  146.6140  153.9740  136.1880 N   0  0  0  0  0  0  0  0  0  0  0  0
  142.2336  154.0944  136.7519 H   0  0  0  0  0  0  0  0  0  0  0  0
  142.6998  155.0957  135.3353 H   0  0  0  0  0  0  0  0  0  0  0  0
  143.0310  153.3302  135.3353 H   0  0  0  0  0  0  0  0  0  0  0  0
  144.3450  154.5340  137.6040 H   0  0  0  0  0  0  0  0  0  0  0  0
  144.6646  156.0553  134.3637 H   0  0  0  0  0  0  0  0  0  0  0  0
  149.0870  156.4540  131.7430 H   0  0  0  0  0  0  0  0  0  0  0  0
  147.9301  161.0600  133.0435 H   0  0  0  0  0  0  0  0  0  0  0  0
  145.3518  162.0076  133.8607 H   0  0  0  0  0  0  0  0  0  0  0  0
  143.0165  161.2418  134.3912 H   0  0  0  0  0  0  0  0  0  0  0  0
  142.0346  157.5791  134.3218 H   0  0  0  0  0  0  0  0  0  0  0  0
  144.1777  157.1219  133.5554 H   0  0  0  0  0  0  0  0  0  0  0  0
  148.8445  155.0105  133.8672 H   0  0  0  0  0  0  0  0  0  0  0  0
  148.6721  153.5228  135.8631 H   0  0  0  0  0  0  0  0  0  0  0  0
  1  2  1  0
  2  3  1  0
  3  4  2  0
  4  5  1  0
  5  6  1  0
  6  7  2  0
  6  8  1  0
  8  9  1  0
  9 10  1  0
 10 11  1  0
 10 12  2  0
  9 13  2  0
 13 14  1  0
 14 15  2  0
 15 16  1  0
 16 17  2  0
 17 18  1  0
 18 19  1  0
 18 20  1  0
 17 21  1  0
 21 22  2  0
  5 23  2  0
 23 24  1  0
 24 25  2  0
 25  3  1  0
 22  8  1  0
 22 14  1  0
  1 26  1  0
  1 27  1  0
  1 28  1  0
  2 29  1  0
  4 30  1  0
 11 31  1  0
 13 32  1  0
 15 33  1  0
 16 34  1  0
 18 35  1  0
 21 36  1  0
 23 37  1  0
 24 38  1  0
M  CHG  1  11  -1
M  END
>  <UniqueID>  (39) 
39

>  <SMILES>  (39) 
CNc1cc(C(=O)n2c(C([NH-])=O)cc3ccc(C(F)F)cc32)ccn1

>  <Energy>  (39) 
80.91666291063865

>  <Genealogy>  (39) 
CNc1cc(C(=O)n2c(C([NH-])=O)cc3ccc(C(F)F)cc32)ccn1 (protonated)
CNc1cc(C(=O)n2c(C([NH-])=O)cc3ccc(C(F)F)cc32)ccn1 (3D coordinates assigned)
CNc1cc(C(=O)n2c(C([NH-])=O)cc3ccc(C(F)F)cc32)ccn1 (optimized conformer: 80.91666291063865 kcal/mol)

>  <smiles>  (39) 
CNc1cc(C(=O)n2c(C(N)=O)cc3ccc(C(F)F)cc32)ccn1

>  <score_type>  (39) 
oracle

>  <origin>  (39) 
adg

>  <m_score__min__energy>  (39) 
-7.29

>  <m_primary>  (39) 
energy

$$$$
39:0
     RDKit          3D

 45 47  0  0  0  0  0  0  0  0999 V2000
  149.1260  162.1410  130.3600 C   0  0  0  0  0  0  0  0  0  0  0  0
  149.0150  160.7930  131.0050 C   0  0  0  0  0  0  0  0  0  0  0  0
  150.0850  159.8690  130.9070 C   0  0  0  0  0  0  0  0  0  0  0  0
  149.9990  158.6080  131.5210 C   0  0  0  0  0  0  0  0  0  0  0  0
  148.8390  158.3060  132.2310 C   0  0  0  0  0  0  0  0  0  0  0  0
  148.4780  157.1560  132.8980 C   0  0  0  0  0  0  0  0  0  0  0  0
  147.2020  157.4070  133.4050 C   0  0  0  0  0  0  0  0  0  0  0  0
  146.4580  156.4520  134.2550 C   0  0  0  0  0  0  0  0  0  0  0  0
  145.2350  155.8670  133.8130 N   0  0  0  0  0  0  0  0  0  0  0  0
  146.8870  156.1820  135.4120 O   0  0  0  0  0  0  0  0  0  0  0  0
  146.7940  158.6610  133.0630 N   0  0  0  0  0  0  0  0  0  0  0  0
  145.5490  159.3020  133.3660 C   0  0  0  0  0  0  0  0  0  0  0  0
  145.3420  160.4790  132.9730 O   0  0  0  0  0  0  0  0  0  0  0  0
  144.5210  158.5710  134.0470 N   0  0  0  0  0  0  0  0  0  0  0  0
  143.1160  158.6820  133.7920 C   0  0  0  0  0  0  0  0  0  0  0  0
  142.3810  157.5290  133.5050 C   0  0  0  0  0  0  0  0  0  0  0  0
  141.0090  157.6150  133.2600 C   0  0  0  0  0  0  0  0  0  0  0  0
  140.3730  158.8560  133.3380 C   0  0  0  0  0  0  0  0  0  0  0  0
  138.9960  158.9350  133.0940 O   0  0  0  0  0  0  0  0  0  0  0  0
  138.3830  158.5950  131.8470 C   0  0  0  0  0  0  0  0  0  0  0  0
  138.4120  159.7740  130.8540 C   0  0  1  0  0  0  0  0  0  0  0  0
  137.0170  160.1690  130.3580 C   0  0  0  0  0  0  0  0  0  0  0  0
  139.0790  160.8800  131.4090 O   0  0  0  0  0  0  0  0  0  0  0  0
  141.0970  159.9630  133.6570 N   0  0  0  0  0  0  0  0  0  0  0  0
  142.4370  159.9090  133.8830 C   0  0  0  0  0  0  0  0  0  0  0  0
  147.8060  159.1990  132.3510 C   0  0  0  0  0  0  0  0  0  0  0  0
  147.8620  160.4590  131.7480 C   0  0  0  0  0  0  0  0  0  0  0  0
  149.1898  162.9157  131.1383 H   0  0  0  0  0  0  0  0  0  0  0  0
  150.0300  162.1747  129.7341 H   0  0  0  0  0  0  0  0  0  0  0  0
  148.2397  162.3221  129.7341 H   0  0  0  0  0  0  0  0  0  0  0  0
  150.9908  160.1413  130.3454 H   0  0  0  0  0  0  0  0  0  0  0  0
  150.8218  157.8821  131.4435 H   0  0  0  0  0  0  0  0  0  0  0  0
  149.0698  156.2353  133.0077 H   0  0  0  0  0  0  0  0  0  0  0  0
  144.4170  156.4630  133.5530 H   0  0  0  0  0  0  0  0  0  0  0  0
  142.8842  156.5514  133.4720 H   0  0  0  0  0  0  0  0  0  0  0  0
  140.4335  156.7122  133.0075 H   0  0  0  0  0  0  0  0  0  0  0  0
  138.9226  157.7442  131.4053 H   0  0  0  0  0  0  0  0  0  0  0  0
  137.3313  158.3382  132.0420 H   0  0  0  0  0  0  0  0  0  0  0  0
  138.9724  159.4291  129.9725 H   0  0  0  0  0  0  0  0  0  0  0  0
  136.3602  160.3550  131.2206 H   0  0  0  0  0  0  0  0  0  0  0  0
  137.0894  161.0820  129.7487 H   0  0  0  0  0  0  0  0  0  0  0  0
  136.6000  159.3536  129.7487 H   0  0  0  0  0  0  0  0  0  0  0  0
  139.5490  160.5710  132.2270 H   0  0  0  0  0  0  0  0  0  0  0  0
  142.9893  160.8257  134.1370 H   0  0  0  0  0  0  0  0  0  0  0  0
  147.0299  161.1712  131.8497 H   0  0  0  0  0  0  0  0  0  0  0  0
  1  2  1  0
  2  3  2  0
  3  4  1  0
  4  5  2  0
  5  6  1  0
  6  7  2  0
  7  8  1  0
  8  9  1  0
  8 10  2  0
  7 11  1  0
 11 12  1  0
 12 13  2  0
 12 14  1  0
 14 15  1  0
 15 16  2  0
 16 17  1  0
 17 18  2  0
 18 19  1  0
 19 20  1  0
 20 21  1  0
 21 22  1  0
 21 23  1  0
 18 24  1  0
 24 25  2  0
 11 26  1  0
 26 27  2  0
 27  2  1  0
 26  5  1  0
 25 15  1  0
  1 28  1  0
  1 29  1  0
  1 30  1  0
  3 31  1  0
  4 32  1  0
  6 33  1  0
  9 34  1  0
 16 35  1  0
 17 36  1  0
 20 37  1  0
 20 38  1  0
 21 39  1  6
 22 40  1  0
 22 41  1  0
 22 42  1  0
 23 43  1  0
 25 44  1  0
 27 45  1  0
M  CHG  2   9  -1  14  -1
M  END
>  <UniqueID>  (40) 
40

>  <SMILES>  (40) 
Cc1ccc2cc(C([NH-])=O)n(C(=O)[N-]c3ccc(OC[C@@H](C)O)nc3)c2c1

>  <Energy>  (40) 
87.83086662678977

>  <Genealogy>  (40) 
Cc1ccc2cc(C([NH-])=O)n(C(=O)[N-]c3ccc(OC[C@@H](C)O)nc3)c2c1 (protonated)
Cc1ccc2cc(C([NH-])=O)n(C(=O)[N-]c3ccc(OC[C@@H](C)O)nc3)c2c1 (3D coordinates assigned)
Cc1ccc2cc(C([NH-])=O)n(C(=O)[N-]c3ccc(OC[C@@H](C)O)nc3)c2c1 (optimized conformer: 87.83086662678977 kcal/mol)

>  <smiles>  (40) 
Cc1ccc2cc(C(N)=O)n(C(=O)Nc3ccc(OC[C@@H](C)O)nc3)c2c1

>  <score_type>  (40) 
oracle

>  <origin>  (40) 
adg

>  <m_score__min__energy>  (40) 
-7.8600000000000003

>  <m_primary>  (40) 
energy

$$$$
40:0
     RDKit          3D

 32 33  0  0  0  0  0  0  0  0999 V2000
  149.2270  160.8940  130.7800 C   0  0  0  0  0  0  0  0  0  0  0  0
  149.2380  159.4490  130.3000 C   0  0  0  0  0  0  0  0  0  0  0  0
  149.5410  158.5610  131.3750 O   0  0  0  0  0  0  0  0  0  0  0  0
  148.8850  158.5920  132.6110 C   0  0  0  0  0  0  0  0  0  0  0  0
  149.2870  159.3620  133.5260 O   0  0  0  0  0  0  0  0  0  0  0  0
  147.7390  157.7530  132.8290 N   0  0  0  0  0  0  0  0  0  0  0  0
  146.4760  158.1510  133.1530 C   0  0  0  0  0  0  0  0  0  0  0  0
  145.9890  159.5430  133.1740 C   0  0  0  0  0  0  0  0  0  0  0  0
  146.8890  160.6380  133.3420 N   0  0  0  0  0  0  0  0  0  0  0  0
  144.7650  159.7740  132.9830 O   0  0  0  0  0  0  0  0  0  0  0  0
  145.6660  157.0500  133.4200 C   0  0  0  0  0  0  0  0  0  0  0  0
  146.4720  155.9520  133.2340 C   0  0  0  0  0  0  0  0  0  0  0  0
  146.1850  154.5980  133.3800 C   0  0  0  0  0  0  0  0  0  0  0  0
  147.2220  153.6770  133.1610 C   0  0  0  0  0  0  0  0  0  0  0  0
  148.5220  154.1220  132.8110 C   0  0  0  0  0  0  0  0  0  0  0  0
  149.6210  153.1200  132.6030 C   0  0  0  0  0  0  0  0  0  0  0  0
  149.5950  152.1830  133.6200 F   0  0  0  0  0  0  0  0  0  0  0  0
  149.4470  152.4810  131.3890 F   0  0  0  0  0  0  0  0  0  0  0  0
  148.7780  155.5050  132.6770 C   0  0  0  0  0  0  0  0  0  0  0  0
  147.7200  156.4010  132.8790 C   0  0  0  0  0  0  0  0  0  0  0  0
  149.2268  160.9150  131.8798 H   0  0  0  0  0  0  0  0  0  0  0  0
  150.1212  161.4123  130.4035 H   0  0  0  0  0  0  0  0  0  0  0  0
  148.3250  161.3986  130.4035 H   0  0  0  0  0  0  0  0  0  0  0  0
  148.2481  159.1969  129.8919 H   0  0  0  0  0  0  0  0  0  0  0  0
  150.0105  159.3407  129.5244 H   0  0  0  0  0  0  0  0  0  0  0  0
  146.5240  161.6150  133.3970 H   0  0  0  0  0  0  0  0  0  0  0  0
  147.9220  160.4920  133.3360 H   0  0  0  0  0  0  0  0  0  0  0  0
  144.6068  157.0574  133.7166 H   0  0  0  0  0  0  0  0  0  0  0  0
  145.1761  154.2596  133.6586 H   0  0  0  0  0  0  0  0  0  0  0  0
  147.0239  152.5997  133.2619 H   0  0  0  0  0  0  0  0  0  0  0  0
  150.5893  153.6418  132.6075 H   0  0  0  0  0  0  0  0  0  0  0  0
  149.7836  155.8695  132.4203 H   0  0  0  0  0  0  0  0  0  0  0  0
  1  2  1  0
  2  3  1  0
  3  4  1  0
  4  5  2  0
  4  6  1  0
  6  7  1  0
  7  8  1  0
  8  9  1  0
  8 10  2  0
  7 11  2  0
 11 12  1  0
 12 13  2  0
 13 14  1  0
 14 15  2  0
 15 16  1  0
 16 17  1  0
 16 18  1  0
 15 19  1  0
 19 20  2  0
 20  6  1  0
 20 12  1  0
  1 21  1  0
  1 22  1  0
  1 23  1  0
  2 24  1  0
  2 25  1  0
  9 26  1  0
  9 27  1  0
 11 28  1  0
 13 29  1  0
 14 30  1  0
 16 31  1  0
 19 32  1  0
M  END
>  <UniqueID>  (41) 
41

>  <SMILES>  (41) 
CCOC(=O)n1c(C(N)=O)cc2ccc(C(F)F)cc21

>  <Energy>  (41) 
66.83577037046851

>  <Genealogy>  (41) 
CCOC(=O)n1c(C(N)=O)cc2ccc(C(F)F)cc21 (3D coordinates assigned)
CCOC(=O)n1c(C(N)=O)cc2ccc(C(F)F)cc21 (optimized conformer: 66.83577037046851 kcal/mol)

>  <smiles>  (41) 
CCOC(=O)n1c(C(N)=O)cc2ccc(C(F)F)cc21

>  <score_type>  (41) 
oracle

>  <origin>  (41) 
adg

>  <m_score__min__energy>  (41) 
-5.9500000000000002

>  <m_primary>  (41) 
energy

$$$$
41:0
     RDKit          3D

 54 56  0  0  0  0  0  0  0  0999 V2000
  140.3040  157.7380  137.1060 C   0  0  0  0  0  0  0  0  0  0  0  0
  139.8970  157.0400  135.9350 O   0  0  0  0  0  0  0  0  0  0  0  0
  139.7660  157.6210  134.6630 C   0  0  0  0  0  0  0  0  0  0  0  0
  138.5050  157.8730  134.0910 C   0  0  0  0  0  0  0  0  0  0  0  0
  138.4040  158.4810  132.8380 C   0  0  0  0  0  0  0  0  0  0  0  0
  139.5570  158.8450  132.1270 C   0  0  0  0  0  0  0  0  0  0  0  0
  139.4450  159.5550  130.8010 C   0  0  0  0  0  0  0  0  0  0  0  0
  140.6020  159.3490  130.0750 F   0  0  0  0  0  0  0  0  0  0  0  0
  138.3670  159.0750  130.0780 F   0  0  0  0  0  0  0  0  0  0  0  0
  139.2670  160.9150  130.9890 F   0  0  0  0  0  0  0  0  0  0  0  0
  140.8160  158.6210  132.7090 C   0  0  0  0  0  0  0  0  0  0  0  0
  140.9290  157.9830  133.9530 C   0  0  0  0  0  0  0  0  0  0  0  0
  142.2370  157.7550  134.5020 N   0  0  0  0  0  0  0  0  0  0  0  0
  143.4060  158.5020  134.1230 C   0  0  0  0  0  0  0  0  0  0  0  0
  143.3660  159.9170  134.1530 C   0  0  0  0  0  0  0  0  0  0  0  0
  144.4890  160.6760  133.7830 C   0  0  0  0  0  0  0  0  0  0  0  0
  145.6340  159.9930  133.3850 C   0  0  0  0  0  0  0  0  0  0  0  0
  146.8510  160.4770  132.9590 C   0  0  0  0  0  0  0  0  0  0  0  0
  147.6190  159.3490  132.6750 C   0  0  0  0  0  0  0  0  0  0  0  0
  149.0420  159.4000  132.2720 C   0  0  0  0  0  0  0  0  0  0  0  0
  149.9050  158.2850  132.4990 N   0  0  0  0  0  0  0  0  0  0  0  0
  149.5000  160.4220  131.6940 O   0  0  0  0  0  0  0  0  0  0  0  0
  146.9040  158.2120  132.9130 N   0  0  0  0  0  0  0  0  0  0  0  0
  147.3090  156.8530  132.6880 C   0  0  0  0  0  0  0  0  0  0  0  0
  147.0890  156.3120  131.5700 O   0  0  0  0  0  0  0  0  0  0  0  0
  147.9270  156.1370  133.7240 O   0  0  0  0  0  0  0  0  0  0  0  0
  147.5350  154.8500  134.2230 C   0  0  0  0  0  0  0  0  0  0  0  0
  146.0520  154.5760  133.9050 C   0  0  0  0  0  0  0  0  0  0  0  0
  147.7140  154.8820  135.7480 C   0  0  0  0  0  0  0  0  0  0  0  0
  148.4320  153.7450  133.6360 C   0  0  0  0  0  0  0  0  0  0  0  0
  145.6920  158.6240  133.3470 C   0  0  0  0  0  0  0  0  0  0  0  0
  144.5810  157.8460  133.6870 C   0  0  0  0  0  0  0  0  0  0  0  0
  139.9789  157.1805  137.9968 H   0  0  0  0  0  0  0  0  0  0  0  0
  141.3998  157.8342  137.1133 H   0  0  0  0  0  0  0  0  0  0  0  0
  139.8480  158.7390  137.1133 H   0  0  0  0  0  0  0  0  0  0  0  0
  137.5922  157.5889  134.6351 H   0  0  0  0  0  0  0  0  0  0  0  0
  137.4119  158.6761  132.4049 H   0  0  0  0  0  0  0  0  0  0  0  0
  141.7241  158.9500  132.1827 H   0  0  0  0  0  0  0  0  0  0  0  0
  142.3300  157.0490  135.2670 H   0  0  0  0  0  0  0  0  0  0  0  0
  142.4449  160.4281  134.4697 H   0  0  0  0  0  0  0  0  0  0  0  0
  144.4638  161.7754  133.8072 H   0  0  0  0  0  0  0  0  0  0  0  0
  147.1529  161.5304  132.8632 H   0  0  0  0  0  0  0  0  0  0  0  0
  149.5790  157.4440  133.0250 H   0  0  0  0  0  0  0  0  0  0  0  0
  150.8970  158.3150  132.1740 H   0  0  0  0  0  0  0  0  0  0  0  0
  145.4888  154.4719  134.8441 H   0  0  0  0  0  0  0  0  0  0  0  0
  145.6412  155.4135  133.3220 H   0  0  0  0  0  0  0  0  0  0  0  0
  145.9676  153.6471  133.3220 H   0  0  0  0  0  0  0  0  0  0  0  0
  146.7430  154.7084  136.2349 H   0  0  0  0  0  0  0  0  0  0  0  0
  148.4216  154.0961  136.0507 H   0  0  0  0  0  0  0  0  0  0  0  0
  148.1056  155.8644  136.0507 H   0  0  0  0  0  0  0  0  0  0  0  0
  148.8949  153.1748  134.4549 H   0  0  0  0  0  0  0  0  0  0  0  0
  147.8237  153.0693  133.0168 H   0  0  0  0  0  0  0  0  0  0  0  0
  149.2183  154.2014  133.0168 H   0  0  0  0  0  0  0  0  0  0  0  0
  144.6198  156.7489  133.6170 H   0  0  0  0  0  0  0  0  0  0  0  0
  1  2  1  0
  2  3  1  0
  3  4  2  0
  4  5  1  0
  5  6  2  0
  6  7  1  0
  7  8  1  0
  7  9  1  0
  7 10  1  0
  6 11  1  0
 11 12  2  0
 12 13  1  0
 13 14  1  0
 14 15  2  0
 15 16  1  0
 16 17  2  0
 17 18  1  0
 18 19  2  0
 19 20  1  0
 20 21  1  0
 20 22  2  0
 19 23  1  0
 23 24  1  0
 24 25  2  0
 24 26  1  0
 26 27  1  0
 27 28  1  0
 27 29  1  0
 27 30  1  0
 23 31  1  0
 31 32  2  0
 12  3  1  0
 32 14  1  0
 31 17  1  0
  1 33  1  0
  1 34  1  0
  1 35  1  0
  4 36  1  0
  5 37  1  0
 11 38  1  0
 13 39  1  0
 15 40  1  0
 16 41  1  0
 18 42  1  0
 21 43  1  0
 21 44  1  0
 28 45  1  0
 28 46  1  0
 28 47  1  0
 29 48  1  0
 29 49  1  0
 29 50  1  0
 30 51  1  0
 30 52  1  0
 30 53  1  0
 32 54  1  0
M  END
>  <UniqueID>  (42) 
42

>  <SMILES>  (42) 
COc1ccc(C(F)(F)F)cc1Nc1ccc2cc(C(N)=O)n(C(=O)OC(C)(C)C)c2c1

>  <Energy>  (42) 
93.130767214923

>  <Genealogy>  (42) 
COc1ccc(C(F)(F)F)cc1Nc1ccc2cc(C(N)=O)n(C(=O)OC(C)(C)C)c2c1 (3D coordinates assigned)
COc1ccc(C(F)(F)F)cc1Nc1ccc2cc(C(N)=O)n(C(=O)OC(C)(C)C)c2c1 (optimized conformer: 93.130767214923 kcal/mol)

>  <smiles>  (42) 
COc1ccc(C(F)(F)F)cc1Nc1ccc2cc(C(N)=O)n(C(=O)OC(C)(C)C)c2c1

>  <score_type>  (42) 
oracle

>  <origin>  (42) 
adg

>  <m_score__min__energy>  (42) 
-8.1799999999999997

>  <m_primary>  (42) 
energy

$$$$
42:0
     RDKit          3D

 36 38  0  0  0  0  0  0  0  0999 V2000
  140.5900  156.7090  137.5530 C   0  0  0  0  0  0  0  0  0  0  0  0
  140.6750  157.4040  136.2740 N   0  0  0  0  0  0  0  0  0  0  0  0
  140.4580  156.7860  134.9790 C   0  0  0  0  0  0  0  0  0  0  0  0
  140.6270  157.9110  133.9380 C   0  0  0  0  0  0  0  0  0  0  0  0
  141.1720  159.1490  134.6870 C   0  0  2  0  0  0  0  0  0  0  0  0
  142.5990  159.4760  134.2950 C   0  0  0  0  0  0  0  0  0  0  0  0
  142.9830  160.8280  134.1040 C   0  0  0  0  0  0  0  0  0  0  0  0
  144.2940  161.1550  133.7190 C   0  0  0  0  0  0  0  0  0  0  0  0
  145.2010  160.1140  133.5410 C   0  0  0  0  0  0  0  0  0  0  0  0
  146.5160  160.1500  133.1390 C   0  0  0  0  0  0  0  0  0  0  0  0
  146.9290  158.8210  133.1150 C   0  0  0  0  0  0  0  0  0  0  0  0
  148.3090  158.4070  132.7960 C   0  0  0  0  0  0  0  0  0  0  0  0
  148.5670  157.3500  131.8700 N   0  0  0  0  0  0  0  0  0  0  0  0
  149.2740  158.9550  133.3910 O   0  0  0  0  0  0  0  0  0  0  0  0
  145.9080  157.9920  133.4740 N   0  0  0  0  0  0  0  0  0  0  0  0
  145.9060  156.5540  133.4520 C   0  0  0  0  0  0  0  0  0  0  0  0
  146.2900  155.9300  132.4280 O   0  0  0  0  0  0  0  0  0  0  0  0
  145.4880  155.8360  134.5660 O   0  0  0  0  0  0  0  0  0  0  0  0
  144.8560  158.8020  133.7340 C   0  0  0  0  0  0  0  0  0  0  0  0
  143.5510  158.4450  134.0970 C   0  0  0  0  0  0  0  0  0  0  0  0
  141.0840  158.7460  136.1100 C   0  0  0  0  0  0  0  0  0  0  0  0
  141.3440  159.5100  137.0770 O   0  0  0  0  0  0  0  0  0  0  0  0
  140.6791  157.4372  138.3726 H   0  0  0  0  0  0  0  0  0  0  0  0
  139.6219  156.1918  137.6256 H   0  0  0  0  0  0  0  0  0  0  0  0
  141.4049  155.9737  137.6256 H   0  0  0  0  0  0  0  0  0  0  0  0
  141.1981  155.9908  134.8061 H   0  0  0  0  0  0  0  0  0  0  0  0
  139.4619  156.3237  134.9148 H   0  0  0  0  0  0  0  0  0  0  0  0
  141.3375  157.5993  133.1583 H   0  0  0  0  0  0  0  0  0  0  0  0
  139.6674  158.1401  133.4515 H   0  0  0  0  0  0  0  0  0  0  0  0
  140.6066  160.0636  134.4550 H   0  0  0  0  0  0  0  0  0  0  0  0
  142.2459  161.6297  134.2591 H   0  0  0  0  0  0  0  0  0  0  0  0
  144.5946  162.2016  133.5630 H   0  0  0  0  0  0  0  0  0  0  0  0
  147.1136  161.0392  132.8897 H   0  0  0  0  0  0  0  0  0  0  0  0
  149.5500  157.0940  131.6290 H   0  0  0  0  0  0  0  0  0  0  0  0
  147.7910  156.7670  131.4860 H   0  0  0  0  0  0  0  0  0  0  0  0
  143.2716  157.3889  134.2254 H   0  0  0  0  0  0  0  0  0  0  0  0
  1  2  1  0
  2  3  1  0
  3  4  1  0
  4  5  1  0
  5  6  1  0
  6  7  2  0
  7  8  1  0
  8  9  2  0
  9 10  1  0
 10 11  2  0
 11 12  1  0
 12 13  1  0
 12 14  2  0
 11 15  1  0
 15 16  1  0
 16 17  2  0
 16 18  1  0
 15 19  1  0
 19 20  2  0
  5 21  1  0
 21 22  2  0
 21  2  1  0
 20  6  1  0
 19  9  1  0
  1 23  1  0
  1 24  1  0
  1 25  1  0
  3 26  1  0
  3 27  1  0
  4 28  1  0
  4 29  1  0
  5 30  1  1
  7 31  1  0
  8 32  1  0
 10 33  1  0
 13 34  1  0
 13 35  1  0
 20 36  1  0
M  CHG  1  18  -1
M  END
>  <UniqueID>  (43) 
43

>  <SMILES>  (43) 
CN1CC[C@H](c2ccc3cc(C(N)=O)n(C(=O)[O-])c3c2)C1=O

>  <Energy>  (43) 
82.69896693983131

>  <Genealogy>  (43) 
CN1CCC(c2ccc3cc(C(N)=O)n(C(=O)[O-])c3c2)C1=O (protonated)
CN1CC[C@H](c2ccc3cc(C(N)=O)n(C(=O)[O-])c3c2)C1=O (chirality)
CN1CC[C@H](c2ccc3cc(C(N)=O)n(C(=O)[O-])c3c2)C1=O (3D coordinates assigned)
CN1CC[C@H](c2ccc3cc(C(N)=O)n(C(=O)[O-])c3c2)C1=O (nonaromatic ring conformer: 82.69896693983131 kcal/mol)

>  <smiles>  (43) 
CN1CCC(c2ccc3cc(C(N)=O)n(C(=O)O)c3c2)C1=O

>  <score_type>  (43) 
oracle

>  <origin>  (43) 
adg

>  <m_score__min__energy>  (43) 
-6.9500000000000002

>  <m_primary>  (43) 
energy

$$$$
43:0
     RDKit          3D

 46 47  0  0  0  0  0  0  0  0999 V2000
  142.9520  156.1810  135.5420 N   0  0  0  0  0  0  0  0  0  0  0  0
  144.1000  155.6170  134.9140 C   0  0  0  0  0  0  0  0  0  0  0  0
  144.1730  154.3670  134.7680 O   0  0  0  0  0  0  0  0  0  0  0  0
  145.1710  156.4790  134.3740 C   0  0  0  0  0  0  0  0  0  0  0  0
  146.4870  156.0500  134.2150 C   0  0  0  0  0  0  0  0  0  0  0  0
  147.1380  157.0920  133.6000 C   0  0  0  0  0  0  0  0  0  0  0  0
  148.4720  157.2120  133.2170 C   0  0  0  0  0  0  0  0  0  0  0  0
  148.8810  158.4180  132.6230 C   0  0  0  0  0  0  0  0  0  0  0  0
  147.9560  159.4700  132.4190 C   0  0  0  0  0  0  0  0  0  0  0  0
  148.4080  160.7690  131.8050 C   0  0  0  0  0  0  0  0  0  0  0  0
  149.4020  160.5320  130.6680 C   0  0  0  0  0  0  0  0  0  0  0  0
  149.5830  161.7100  129.9320 O   0  0  0  0  0  0  0  0  0  0  0  0
  146.6150  159.3180  132.8320 C   0  0  0  0  0  0  0  0  0  0  0  0
  146.2300  158.1020  133.4100 C   0  0  0  0  0  0  0  0  0  0  0  0
  145.0160  157.7460  133.8910 N   0  0  0  0  0  0  0  0  0  0  0  0
  143.8500  158.5830  133.9760 C   0  0  0  0  0  0  0  0  0  0  0  0
  143.3600  159.0900  132.9310 O   0  0  0  0  0  0  0  0  0  0  0  0
  143.2390  158.8080  135.2140 O   0  0  0  0  0  0  0  0  0  0  0  0
  141.9020  159.2760  135.3390 C   0  0  0  0  0  0  0  0  0  0  0  0
  141.2410  158.7820  136.9680 S   0  0  0  0  0  0  0  0  0  0  0  0
  139.5880  158.2340  136.3990 C   0  0  0  0  0  0  0  0  0  0  0  0
  139.6360  157.6410  134.9900 C   0  0  0  0  0  0  0  0  0  0  0  0
  140.2440  156.3650  135.0100 O   0  0  0  0  0  0  0  0  0  0  0  0
  140.6620  155.8960  133.4340 S   0  0  0  0  0  0  0  0  0  0  0  0
  139.4840  156.0350  132.5080 O   0  0  0  0  0  0  0  0  0  0  0  0
  141.7980  156.7430  132.9320 O   0  0  0  0  0  0  0  0  0  0  0  0
  141.1710  154.1910  133.4540 C   0  0  0  0  0  0  0  0  0  0  0  0
  141.4680  153.8120  134.7480 F   0  0  0  0  0  0  0  0  0  0  0  0
  142.2910  154.0300  132.6610 F   0  0  0  0  0  0  0  0  0  0  0  0
  140.1500  153.3960  132.9660 F   0  0  0  0  0  0  0  0  0  0  0  0
  142.3370  156.8520  135.0320 H   0  0  0  0  0  0  0  0  0  0  0  0
  146.9141  155.0825  134.5176 H   0  0  0  0  0  0  0  0  0  0  0  0
  149.1834  156.3880  133.3747 H   0  0  0  0  0  0  0  0  0  0  0  0
  149.9289  158.5457  132.3139 H   0  0  0  0  0  0  0  0  0  0  0  0
  147.5311  161.3018  131.4086 H   0  0  0  0  0  0  0  0  0  0  0  0
  148.9076  161.3646  132.5832 H   0  0  0  0  0  0  0  0  0  0  0  0
  150.3673  160.2145  131.0892 H   0  0  0  0  0  0  0  0  0  0  0  0
  149.0076  159.7496  130.0029 H   0  0  0  0  0  0  0  0  0  0  0  0
  148.6830  161.9760  129.6100 H   0  0  0  0  0  0  0  0  0  0  0  0
  145.8898  160.1350  132.7030 H   0  0  0  0  0  0  0  0  0  0  0  0
  141.8868  160.3725  135.2532 H   0  0  0  0  0  0  0  0  0  0  0  0
  141.2823  158.8398  134.5417 H   0  0  0  0  0  0  0  0  0  0  0  0
  139.2084  157.4700  137.0934 H   0  0  0  0  0  0  0  0  0  0  0  0
  138.9273  159.1132  136.3759 H   0  0  0  0  0  0  0  0  0  0  0  0
  138.6111  157.5475  134.6016 H   0  0  0  0  0  0  0  0  0  0  0  0
  140.2273  158.3066  134.3440 H   0  0  0  0  0  0  0  0  0  0  0  0
  1  2  1  0
  2  3  2  0
  2  4  1  0
  4  5  2  0
  5  6  1  0
  6  7  2  0
  7  8  1  0
  8  9  2  0
  9 10  1  0
 10 11  1  0
 11 12  1  0
  9 13  1  0
 13 14  2  0
 14 15  1  0
 15 16  1  0
 16 17  2  0
 16 18  1  0
 18 19  1  0
 19 20  1  0
 20 21  1  0
 21 22  1  0
 22 23  1  0
 23 24  1  0
 24 25  2  0
 24 26  2  0
 24 27  1  0
 27 28  1  0
 27 29  1  0
 27 30  1  0
 15  4  1  0
 14  6  1  0
  1 31  1  0
  5 32  1  0
  7 33  1  0
  8 34  1  0
 10 35  1  0
 10 36  1  0
 11 37  1  0
 11 38  1  0
 12 39  1  0
 13 40  1  0
 19 41  1  0
 19 42  1  0
 21 43  1  0
 21 44  1  0
 22 45  1  0
 22 46  1  0
M  CHG  1   1  -1
M  END
>  <UniqueID>  (44) 
44

>  <SMILES>  (44) 
[NH-]C(=O)c1cc2ccc(CCO)cc2n1C(=O)OCSCCOS(=O)(=O)C(F)(F)F

>  <Energy>  (44) 
72.25677751296057

>  <Genealogy>  (44) 
[NH-]C(=O)c1cc2ccc(CCO)cc2n1C(=O)OCSCCOS(=O)(=O)C(F)(F)F (protonated)
[NH-]C(=O)c1cc2ccc(CCO)cc2n1C(=O)OCSCCOS(=O)(=O)C(F)(F)F (3D coordinates assigned)
[NH-]C(=O)c1cc2ccc(CCO)cc2n1C(=O)OCSCCOS(=O)(=O)C(F)(F)F (optimized conformer: 72.25677751296057 kcal/mol)

>  <smiles>  (44) 
NC(=O)c1cc2ccc(CCO)cc2n1C(=O)OCSCCOS(=O)(=O)C(F)(F)F

>  <score_type>  (44) 
oracle

>  <origin>  (44) 
adg

>  <m_score__min__energy>  (44) 
-7.1900000000000004

>  <m_primary>  (44) 
energy

$$$$
44:0
     RDKit          3D

 52 55  0  0  0  0  0  0  0  0999 V2000
  147.3100  155.4240  135.2170 C   0  0  0  0  0  0  0  0  0  0  0  0
  146.0040  155.7980  134.5260 C   0  0  0  0  0  0  0  0  0  0  0  0
  146.2700  156.6090  133.2910 C   0  0  0  0  0  0  0  0  0  0  0  0
  146.5140  156.0230  132.2020 O   0  0  0  0  0  0  0  0  0  0  0  0
  146.2670  158.0440  133.3430 N   0  0  0  0  0  0  0  0  0  0  0  0
  147.3110  158.8870  133.1090 C   0  0  0  0  0  0  0  0  0  0  0  0
  148.7020  158.4800  132.8180 C   0  0  0  0  0  0  0  0  0  0  0  0
  149.0120  157.1030  132.6180 N   0  0  0  0  0  0  0  0  0  0  0  0
  149.6200  159.3380  132.7260 O   0  0  0  0  0  0  0  0  0  0  0  0
  146.9000  160.2130  133.2350 C   0  0  0  0  0  0  0  0  0  0  0  0
  145.5630  160.1510  133.5570 C   0  0  0  0  0  0  0  0  0  0  0  0
  144.6420  161.1700  133.7610 C   0  0  0  0  0  0  0  0  0  0  0  0
  143.3130  160.8130  134.0470 C   0  0  0  0  0  0  0  0  0  0  0  0
  142.9190  159.4450  134.1540 C   0  0  0  0  0  0  0  0  0  0  0  0
  141.4500  159.0460  134.4130 C   0  0  0  0  0  0  0  0  0  0  0  0
  140.4180  159.6380  133.3990 C   0  0  0  0  0  0  0  0  0  0  0  0
  140.0930  158.6890  132.3020 N   0  0  0  0  0  0  0  0  0  0  0  0
  138.7240  158.1640  132.3910 C   0  0  0  0  0  0  0  0  0  0  0  0
  137.8140  159.1020  131.6120 C   0  0  0  0  0  0  0  0  0  0  0  0
  138.7380  159.8860  130.6990 C   0  0  0  0  0  0  0  0  0  0  0  0
  140.1340  159.3600  130.9940 C   0  0  0  0  0  0  0  0  0  0  0  0
  141.1880  157.5490  134.7010 C   0  0  0  0  0  0  0  0  0  0  0  0
  140.9030  157.8680  136.1600 C   0  0  0  0  0  0  0  0  0  0  0  0
  141.0720  159.3540  135.8740 C   0  0  0  0  0  0  0  0  0  0  0  0
  143.8880  158.4480  133.8640 C   0  0  0  0  0  0  0  0  0  0  0  0
  145.2070  158.8330  133.6120 C   0  0  0  0  0  0  0  0  0  0  0  0
  147.1722  155.4635  136.3076 H   0  0  0  0  0  0  0  0  0  0  0  0
  147.6029  154.4059  134.9210 H   0  0  0  0  0  0  0  0  0  0  0  0
  148.0975  156.1327  134.9210 H   0  0  0  0  0  0  0  0  0  0  0  0
  145.4677  154.8793  134.2461 H   0  0  0  0  0  0  0  0  0  0  0  0
  145.3967  156.3985  135.2192 H   0  0  0  0  0  0  0  0  0  0  0  0
  148.5760  156.5620  131.8390 H   0  0  0  0  0  0  0  0  0  0  0  0
  147.5135  161.1167  133.1048 H   0  0  0  0  0  0  0  0  0  0  0  0
  144.9438  162.2261  133.7005 H   0  0  0  0  0  0  0  0  0  0  0  0
  142.5616  161.6033  134.1912 H   0  0  0  0  0  0  0  0  0  0  0  0
  139.4921  159.8831  133.9399 H   0  0  0  0  0  0  0  0  0  0  0  0
  140.8690  160.5330  132.9456 H   0  0  0  0  0  0  0  0  0  0  0  0
  138.6814  157.1546  131.9559 H   0  0  0  0  0  0  0  0  0  0  0  0
  138.4037  158.1029  133.4416 H   0  0  0  0  0  0  0  0  0  0  0  0
  137.0837  158.5290  131.0218 H   0  0  0  0  0  0  0  0  0  0  0  0
  137.2370  159.7613  132.2772 H   0  0  0  0  0  0  0  0  0  0  0  0
  138.4758  159.7131  129.6448 H   0  0  0  0  0  0  0  0  0  0  0  0
  138.6629  160.9697  130.8718 H   0  0  0  0  0  0  0  0  0  0  0  0
  140.4368  158.6444  130.2154 H   0  0  0  0  0  0  0  0  0  0  0  0
  140.8613  160.1852  131.0075 H   0  0  0  0  0  0  0  0  0  0  0  0
  140.3269  157.1328  134.1575 H   0  0  0  0  0  0  0  0  0  0  0  0
  141.9439  156.7946  134.4373 H   0  0  0  0  0  0  0  0  0  0  0  0
  139.8922  157.5874  136.4910 H   0  0  0  0  0  0  0  0  0  0  0  0
  141.4877  157.3865  136.9577 H   0  0  0  0  0  0  0  0  0  0  0  0
  140.1461  159.9380  135.9823 H   0  0  0  0  0  0  0  0  0  0  0  0
  141.7404  159.9636  136.4998 H   0  0  0  0  0  0  0  0  0  0  0  0
  143.6034  157.3858  133.8381 H   0  0  0  0  0  0  0  0  0  0  0  0
  1  2  1  0
  2  3  1  0
  3  4  2  0
  3  5  1  0
  5  6  1  0
  6  7  1  0
  7  8  1  0
  7  9  2  0
  6 10  2  0
 10 11  1  0
 11 12  2  0
 12 13  1  0
 13 14  2  0
 14 15  1  0
 15 16  1  0
 16 17  1  0
 17 18  1  0
 18 19  1  0
 19 20  1  0
 20 21  1  0
 15 22  1  0
 22 23  1  0
 23 24  1  0
 14 25  1  0
 25 26  2  0
 26  5  1  0
 26 11  1  0
 24 15  1  0
 21 17  1  0
  1 27  1  0
  1 28  1  0
  1 29  1  0
  2 30  1  0
  2 31  1  0
  8 32  1  0
 10 33  1  0
 12 34  1  0
 13 35  1  0
 16 36  1  0
 16 37  1  0
 18 38  1  0
 18 39  1  0
 19 40  1  0
 19 41  1  0
 20 42  1  0
 20 43  1  0
 21 44  1  0
 21 45  1  0
 22 46  1  0
 22 47  1  0
 23 48  1  0
 23 49  1  0
 24 50  1  0
 24 51  1  0
 25 52  1  0
M  CHG  1   8  -1
M  END
>  <UniqueID>  (45) 
45

>  <SMILES>  (45) 
CCC(=O)n1c(C([NH-])=O)cc2ccc(C3(CN4CCCC4)CCC3)cc21

>  <Energy>  (45) 
160.68601225618917

>  <Genealogy>  (45) 
CCC(=O)n1c(C([NH-])=O)cc2ccc(C3(CN4CCCC4)CCC3)cc21 (protonated)
CCC(=O)n1c(C([NH-])=O)cc2ccc(C3(CN4CCCC4)CCC3)cc21 (3D coordinates assigned)
CCC(=O)n1c(C([NH-])=O)cc2ccc(C3(CN4CCCC4)CCC3)cc21 (nonaromatic ring conformer: 160.68601225618917 kcal/mol)

>  <smiles>  (45) 
CCC(=O)n1c(C(N)=O)cc2ccc(C3(CN4CCCC4)CCC3)cc21

>  <score_type>  (45) 
oracle

>  <origin>  (45) 
adg

>  <m_score__min__energy>  (45) 
-9.1199999999999992

>  <m_primary>  (45) 
energy

$$$$
45:0
     RDKit          3D

 34 35  0  0  0  0  0  0  0  0999 V2000
  138.3970  159.6850  131.3450 C   0  0  0  0  0  0  0  0  0  0  0  0
  139.2240  159.4070  132.4690 O   0  0  0  0  0  0  0  0  0  0  0  0
  139.5390  158.1040  132.8680 C   0  0  0  0  0  0  0  0  0  0  0  0
  139.1300  157.1150  132.2010 O   0  0  0  0  0  0  0  0  0  0  0  0
  140.4150  157.8730  134.0700 C   0  0  2  0  0  0  0  0  0  0  0  0
  139.6990  158.2540  135.3710 C   0  0  0  0  0  0  0  0  0  0  0  0
  141.7240  158.6230  133.9260 C   0  0  0  0  0  0  0  0  0  0  0  0
  141.7450  160.0420  133.8550 C   0  0  0  0  0  0  0  0  0  0  0  0
  142.9590  160.7370  133.7400 C   0  0  0  0  0  0  0  0  0  0  0  0
  144.1350  159.9950  133.6920 C   0  0  0  0  0  0  0  0  0  0  0  0
  145.4420  160.4170  133.6080 C   0  0  0  0  0  0  0  0  0  0  0  0
  146.2060  159.2500  133.6070 C   0  0  0  0  0  0  0  0  0  0  0  0
  147.6760  159.2300  133.4380 C   0  0  0  0  0  0  0  0  0  0  0  0
  148.4710  158.2340  134.0860 N   0  0  0  0  0  0  0  0  0  0  0  0
  148.2470  160.1130  132.7440 O   0  0  0  0  0  0  0  0  0  0  0  0
  145.4020  158.1520  133.6900 N   0  0  0  0  0  0  0  0  0  0  0  0
  145.8040  156.7750  133.7750 C   0  0  0  0  0  0  0  0  0  0  0  0
  145.4010  155.9400  132.9240 O   0  0  0  0  0  0  0  0  0  0  0  0
  146.6540  156.3520  134.7890 O   0  0  0  0  0  0  0  0  0  0  0  0
  144.1360  158.6260  133.7410 C   0  0  0  0  0  0  0  0  0  0  0  0
  142.9430  157.9070  133.8760 C   0  0  0  0  0  0  0  0  0  0  0  0
  137.4073  160.0177  131.6913 H   0  0  0  0  0  0  0  0  0  0  0  0
  138.8583  160.4774  130.7374 H   0  0  0  0  0  0  0  0  0  0  0  0
  138.2860  158.7748  130.7374 H   0  0  0  0  0  0  0  0  0  0  0  0
  140.6372  156.7970  134.1240 H   0  0  0  0  0  0  0  0  0  0  0  0
  140.3047  157.9317  136.2308 H   0  0  0  0  0  0  0  0  0  0  0  0
  139.5612  159.3447  135.4078 H   0  0  0  0  0  0  0  0  0  0  0  0
  138.7174  157.7590  135.4078 H   0  0  0  0  0  0  0  0  0  0  0  0
  140.7990  160.6022  133.8906 H   0  0  0  0  0  0  0  0  0  0  0  0
  142.9801  161.8356  133.6893 H   0  0  0  0  0  0  0  0  0  0  0  0
  145.8065  161.4534  133.5533 H   0  0  0  0  0  0  0  0  0  0  0  0
  149.5110  158.2530  133.9930 H   0  0  0  0  0  0  0  0  0  0  0  0
  148.0320  157.4550  134.6240 H   0  0  0  0  0  0  0  0  0  0  0  0
  142.9529  156.8090  133.9418 H   0  0  0  0  0  0  0  0  0  0  0  0
  1  2  1  0
  2  3  1  0
  3  4  2  0
  3  5  1  0
  5  6  1  0
  5  7  1  0
  7  8  2  0
  8  9  1  0
  9 10  2  0
 10 11  1  0
 11 12  2  0
 12 13  1  0
 13 14  1  0
 13 15  2  0
 12 16  1  0
 16 17  1  0
 17 18  2  0
 17 19  1  0
 16 20  1  0
 20 21  2  0
 21  7  1  0
 20 10  1  0
  1 22  1  0
  1 23  1  0
  1 24  1  0
  5 25  1  1
  6 26  1  0
  6 27  1  0
  6 28  1  0
  8 29  1  0
  9 30  1  0
 11 31  1  0
 14 32  1  0
 14 33  1  0
 21 34  1  0
M  CHG  1  19  -1
M  END
>  <UniqueID>  (46) 
46

>  <SMILES>  (46) 
COC(=O)[C@H](C)c1ccc2cc(C(N)=O)n(C(=O)[O-])c2c1

>  <Energy>  (46) 
69.26299309874733

>  <Genealogy>  (46) 
COC(=O)C(C)c1ccc2cc(C(N)=O)n(C(=O)[O-])c2c1 (protonated)
COC(=O)[C@H](C)c1ccc2cc(C(N)=O)n(C(=O)[O-])c2c1 (chirality)
COC(=O)[C@H](C)c1ccc2cc(C(N)=O)n(C(=O)[O-])c2c1 (3D coordinates assigned)
COC(=O)[C@H](C)c1ccc2cc(C(N)=O)n(C(=O)[O-])c2c1 (optimized conformer: 69.26299309874733 kcal/mol)

>  <smiles>  (46) 
COC(=O)C(C)c1ccc2cc(C(N)=O)n(C(=O)O)c2c1

>  <score_type>  (46) 
oracle

>  <origin>  (46) 
adg

>  <m_score__min__energy>  (46) 
-6.1600000000000001

>  <m_primary>  (46) 
energy

$$$$
46:0
     RDKit          3D

 39 41  0  0  0  0  0  0  0  0999 V2000
  145.4970  155.0910  132.6510 C   0  0  0  0  0  0  0  0  0  0  0  0
  143.9750  155.1300  132.5820 C   0  0  0  0  0  0  0  0  0  0  0  0
  143.4370  155.8220  133.7060 O   0  0  0  0  0  0  0  0  0  0  0  0
  142.2490  156.5620  133.6600 C   0  0  0  0  0  0  0  0  0  0  0  0
  141.1540  155.9950  133.3940 O   0  0  0  0  0  0  0  0  0  0  0  0
  142.2830  157.9780  133.9010 N   0  0  0  0  0  0  0  0  0  0  0  0
  141.2840  158.7650  134.3920 C   0  0  0  0  0  0  0  0  0  0  0  0
  139.8900  158.3420  134.6410 C   0  0  0  0  0  0  0  0  0  0  0  0
  139.4260  158.1800  135.9790 N   0  0  0  0  0  0  0  0  0  0  0  0
  139.0920  158.1570  133.6850 O   0  0  0  0  0  0  0  0  0  0  0  0
  141.7310  160.0740  134.5580 C   0  0  0  0  0  0  0  0  0  0  0  0
  143.0440  160.0660  134.1450 C   0  0  0  0  0  0  0  0  0  0  0  0
  143.9760  161.0980  134.1090 C   0  0  0  0  0  0  0  0  0  0  0  0
  145.2730  160.8000  133.6620 C   0  0  0  0  0  0  0  0  0  0  0  0
  145.6210  159.4800  133.2680 C   0  0  0  0  0  0  0  0  0  0  0  0
  146.9990  159.1720  132.8090 C   0  0  0  0  0  0  0  0  0  0  0  0
  147.5620  157.9020  133.0390 C   0  0  0  0  0  0  0  0  0  0  0  0
  148.8590  157.6140  132.6050 C   0  0  0  0  0  0  0  0  0  0  0  0
  149.6090  158.5860  131.9390 C   0  0  0  0  0  0  0  0  0  0  0  0
  149.0650  159.8520  131.7040 C   0  0  0  0  0  0  0  0  0  0  0  0
  149.8260  160.8130  131.0410 O   0  0  0  0  0  0  0  0  0  0  0  0
  147.7640  160.1440  132.1380 C   0  0  0  0  0  0  0  0  0  0  0  0
  144.6420  158.4590  133.3210 C   0  0  0  0  0  0  0  0  0  0  0  0
  143.3520  158.7910  133.7520 C   0  0  0  0  0  0  0  0  0  0  0  0
  145.8162  155.0828  133.7036 H   0  0  0  0  0  0  0  0  0  0  0  0
  145.8636  154.1832  132.1496 H   0  0  0  0  0  0  0  0  0  0  0  0
  145.9096  155.9789  132.1496 H   0  0  0  0  0  0  0  0  0  0  0  0
  143.6685  155.6457  131.6600 H   0  0  0  0  0  0  0  0  0  0  0  0
  143.5943  154.0980  132.5869 H   0  0  0  0  0  0  0  0  0  0  0  0
  139.0900  158.9990  136.5330 H   0  0  0  0  0  0  0  0  0  0  0  0
  141.1567  160.9317  134.9383 H   0  0  0  0  0  0  0  0  0  0  0  0
  143.7048  162.1172  134.4214 H   0  0  0  0  0  0  0  0  0  0  0  0
  146.0288  161.5979  133.6162 H   0  0  0  0  0  0  0  0  0  0  0  0
  146.9774  157.1318  133.5635 H   0  0  0  0  0  0  0  0  0  0  0  0
  149.2904  156.6189  132.7885 H   0  0  0  0  0  0  0  0  0  0  0  0
  150.6293  158.3549  131.5989 H   0  0  0  0  0  0  0  0  0  0  0  0
  150.8380  160.7960  131.0650 H   0  0  0  0  0  0  0  0  0  0  0  0
  147.3379  161.1410  131.9524 H   0  0  0  0  0  0  0  0  0  0  0  0
  144.8893  157.4274  133.0300 H   0  0  0  0  0  0  0  0  0  0  0  0
  1  2  1  0
  2  3  1  0
  3  4  1  0
  4  5  2  0
  4  6  1  0
  6  7  1  0
  7  8  1  0
  8  9  1  0
  8 10  2  0
  7 11  2  0
 11 12  1  0
 12 13  2  0
 13 14  1  0
 14 15  2  0
 15 16  1  0
 16 17  2  0
 17 18  1  0
 18 19  2  0
 19 20  1  0
 20 21  1  0
 20 22  2  0
 15 23  1  0
 23 24  2  0
 24  6  1  0
 24 12  1  0
 22 16  1  0
  1 25  1  0
  1 26  1  0
  1 27  1  0
  2 28  1  0
  2 29  1  0
  9 30  1  0
 11 31  1  0
 13 32  1  0
 14 33  1  0
 17 34  1  0
 18 35  1  0
 19 36  1  0
 21 37  1  0
 22 38  1  0
 23 39  1  0
M  CHG  1   9  -1
M  END
>  <UniqueID>  (47) 
47

>  <SMILES>  (47) 
CCOC(=O)n1c(C([NH-])=O)cc2ccc(-c3cccc(O)c3)cc21

>  <Energy>  (47) 
81.22183737078832

>  <Genealogy>  (47) 
CCOC(=O)n1c(C([NH-])=O)cc2ccc(-c3cccc(O)c3)cc21 (protonated)
CCOC(=O)n1c(C([NH-])=O)cc2ccc(-c3cccc(O)c3)cc21 (3D coordinates assigned)
CCOC(=O)n1c(C([NH-])=O)cc2ccc(-c3cccc(O)c3)cc21 (optimized conformer: 81.22183737078832 kcal/mol)

>  <smiles>  (47) 
CCOC(=O)n1c(C(N)=O)cc2ccc(-c3cccc(O)c3)cc21

>  <score_type>  (47) 
oracle

>  <origin>  (47) 
adg

>  <m_score__min__energy>  (47) 
-7.6200000000000001

>  <m_primary>  (47) 
energy

$$$$
47:0
     RDKit          3D

 39 40  0  0  0  0  0  0  0  0999 V2000
  149.6040  159.7530  130.6990 C   0  0  0  0  0  0  0  0  0  0  0  0
  148.2470  160.4170  130.8950 C   0  0  0  0  0  0  0  0  0  0  0  0
  148.0420  160.7490  132.2670 O   0  0  0  0  0  0  0  0  0  0  0  0
  147.9640  159.7950  133.2890 C   0  0  0  0  0  0  0  0  0  0  0  0
  148.8550  159.7390  134.1800 O   0  0  0  0  0  0  0  0  0  0  0  0
  146.8440  158.8960  133.3370 N   0  0  0  0  0  0  0  0  0  0  0  0
  145.5280  159.2040  133.5190 C   0  0  0  0  0  0  0  0  0  0  0  0
  144.9810  160.5430  133.8210 C   0  0  0  0  0  0  0  0  0  0  0  0
  145.8670  161.6220  134.1050 N   0  0  0  0  0  0  0  0  0  0  0  0
  143.7400  160.7540  133.7980 O   0  0  0  0  0  0  0  0  0  0  0  0
  144.7480  158.0500  133.4690 C   0  0  0  0  0  0  0  0  0  0  0  0
  145.6340  157.0180  133.2600 C   0  0  0  0  0  0  0  0  0  0  0  0
  145.4050  155.6500  133.1400 C   0  0  0  0  0  0  0  0  0  0  0  0
  146.5120  154.8140  132.9210 C   0  0  0  0  0  0  0  0  0  0  0  0
  147.8160  155.3570  132.8070 C   0  0  0  0  0  0  0  0  0  0  0  0
  148.9960  154.4480  132.6090 C   0  0  0  0  0  0  0  0  0  0  0  0
  148.7330  153.1100  133.2500 C   0  0  0  0  0  0  0  0  0  0  0  0
  148.4810  153.0690  134.4450 O   0  0  0  0  0  0  0  0  0  0  0  0
  148.7910  151.8180  132.4640 C   0  0  0  0  0  0  0  0  0  0  0  0
  149.6160  151.9460  131.3580 F   0  0  0  0  0  0  0  0  0  0  0  0
  147.5160  151.5110  132.0200 F   0  0  0  0  0  0  0  0  0  0  0  0
  149.3070  150.6710  133.3370 C   0  0  0  0  0  0  0  0  0  0  0  0
  150.6900  150.6760  133.3710 F   0  0  0  0  0  0  0  0  0  0  0  0
  148.8770  149.4620  132.8210 F   0  0  0  0  0  0  0  0  0  0  0  0
  148.0100  156.7500  132.9370 C   0  0  0  0  0  0  0  0  0  0  0  0
  146.8920  157.5550  133.1810 C   0  0  0  0  0  0  0  0  0  0  0  0
  150.0505  159.5345  131.6803 H   0  0  0  0  0  0  0  0  0  0  0  0
  149.4759  158.8158  130.1376 H   0  0  0  0  0  0  0  0  0  0  0  0
  150.2654  160.4293  130.1376 H   0  0  0  0  0  0  0  0  0  0  0  0
  148.2036  161.3352  130.2909 H   0  0  0  0  0  0  0  0  0  0  0  0
  147.4609  159.7153  130.5795 H   0  0  0  0  0  0  0  0  0  0  0  0
  146.6160  161.8950  133.4300 H   0  0  0  0  0  0  0  0  0  0  0  0
  143.6553  157.9792  133.5743 H   0  0  0  0  0  0  0  0  0  0  0  0
  144.3883  155.2367  133.2144 H   0  0  0  0  0  0  0  0  0  0  0  0
  146.3654  153.7270  132.8371 H   0  0  0  0  0  0  0  0  0  0  0  0
  149.1701  154.3074  131.5320 H   0  0  0  0  0  0  0  0  0  0  0  0
  149.8825  154.9024  133.0756 H   0  0  0  0  0  0  0  0  0  0  0  0
  148.9167  150.8057  134.3566 H   0  0  0  0  0  0  0  0  0  0  0  0
  149.0140  157.1905  132.8487 H   0  0  0  0  0  0  0  0  0  0  0  0
  1  2  1  0
  2  3  1  0
  3  4  1  0
  4  5  2  0
  4  6  1  0
  6  7  1  0
  7  8  1  0
  8  9  1  0
  8 10  2  0
  7 11  2  0
 11 12  1  0
 12 13  2  0
 13 14  1  0
 14 15  2  0
 15 16  1  0
 16 17  1  0
 17 18  2  0
 17 19  1  0
 19 20  1  0
 19 21  1  0
 19 22  1  0
 22 23  1  0
 22 24  1  0
 15 25  1  0
 25 26  2  0
 26  6  1  0
 26 12  1  0
  1 27  1  0
  1 28  1  0
  1 29  1  0
  2 30  1  0
  2 31  1  0
  9 32  1  0
 11 33  1  0
 13 34  1  0
 14 35  1  0
 16 36  1  0
 16 37  1  0
 22 38  1  0
 25 39  1  0
M  CHG  1   9  -1
M  END
>  <UniqueID>  (48) 
48

>  <SMILES>  (48) 
CCOC(=O)n1c(C([NH-])=O)cc2ccc(CC(=O)C(F)(F)C(F)F)cc21

>  <Energy>  (48) 
68.24368923049506

>  <Genealogy>  (48) 
CCOC(=O)n1c(C([NH-])=O)cc2ccc(CC(=O)C(F)(F)C(F)F)cc21 (protonated)
CCOC(=O)n1c(C([NH-])=O)cc2ccc(CC(=O)C(F)(F)C(F)F)cc21 (3D coordinates assigned)
CCOC(=O)n1c(C([NH-])=O)cc2ccc(CC(=O)C(F)(F)C(F)F)cc21 (optimized conformer: 68.24368923049506 kcal/mol)

>  <smiles>  (48) 
CCOC(=O)n1c(C(N)=O)cc2ccc(CC(=O)C(F)(F)C(F)F)cc21

>  <score_type>  (48) 
oracle

>  <origin>  (48) 
adg

>  <m_score__min__energy>  (48) 
-6.3600000000000003

>  <m_primary>  (48) 
energy

$$$$
48:0
     RDKit          3D

 48 50  0  0  0  0  0  0  0  0999 V2000
  147.1030  154.0570  133.0990 C   0  0  0  0  0  0  0  0  0  0  0  0
  147.9120  154.7470  132.0880 N   0  0  0  0  0  0  0  0  0  0  0  0
  148.8750  155.6820  132.6940 C   0  0  0  0  0  0  0  0  0  0  0  0
  148.4050  157.1150  132.6010 C   0  0  0  0  0  0  0  0  0  0  0  0
  149.2410  158.1040  132.0650 C   0  0  0  0  0  0  0  0  0  0  0  0
  148.7960  159.4240  131.9640 C   0  0  0  0  0  0  0  0  0  0  0  0
  147.5110  159.7660  132.3910 C   0  0  0  0  0  0  0  0  0  0  0  0
  146.6530  158.7870  132.9250 C   0  0  0  0  0  0  0  0  0  0  0  0
  145.2860  159.1490  133.3760 C   0  0  0  0  0  0  0  0  0  0  0  0
  144.9440  160.5060  133.6190 C   0  0  0  0  0  0  0  0  0  0  0  0
  143.6530  160.8590  134.0490 C   0  0  0  0  0  0  0  0  0  0  0  0
  142.7230  159.8390  134.2230 C   0  0  0  0  0  0  0  0  0  0  0  0
  141.4120  159.8920  134.6440 C   0  0  0  0  0  0  0  0  0  0  0  0
  140.9700  158.5690  134.6410 C   0  0  0  0  0  0  0  0  0  0  0  0
  139.5970  158.1580  135.0040 C   0  0  0  0  0  0  0  0  0  0  0  0
  139.1750  158.1310  136.3660 N   0  0  0  0  0  0  0  0  0  0  0  0
  138.7900  157.8110  134.1020 O   0  0  0  0  0  0  0  0  0  0  0  0
  141.9670  157.7390  134.2310 N   0  0  0  0  0  0  0  0  0  0  0  0
  141.9390  156.3080  134.1450 C   0  0  0  0  0  0  0  0  0  0  0  0
  141.8930  155.7620  133.0080 O   0  0  0  0  0  0  0  0  0  0  0  0
  141.9640  155.4980  135.3360 N   0  0  0  0  0  0  0  0  0  0  0  0
  142.2610  156.1140  136.6320 C   0  0  0  0  0  0  0  0  0  0  0  0
  141.7470  154.0530  135.2300 C   0  0  0  0  0  0  0  0  0  0  0  0
  143.0320  158.5270  133.9860 C   0  0  0  0  0  0  0  0  0  0  0  0
  144.3100  158.1430  133.5700 C   0  0  0  0  0  0  0  0  0  0  0  0
  147.1110  157.4610  133.0250 C   0  0  0  0  0  0  0  0  0  0  0  0
  147.4445  154.3483  134.1032 H   0  0  0  0  0  0  0  0  0  0  0  0
  146.0461  154.3361  132.9759 H   0  0  0  0  0  0  0  0  0  0  0  0
  147.2118  152.9693  132.9759 H   0  0  0  0  0  0  0  0  0  0  0  0
  147.2680  155.2910  131.4680 H   0  0  0  0  0  0  0  0  0  0  0  0
  148.4120  154.0400  131.5000 H   0  0  0  0  0  0  0  0  0  0  0  0
  149.0068  155.4192  133.7540 H   0  0  0  0  0  0  0  0  0  0  0  0
  149.8236  155.5983  132.1434 H   0  0  0  0  0  0  0  0  0  0  0  0
  150.2522  157.8394  131.7223 H   0  0  0  0  0  0  0  0  0  0  0  0
  149.4593  160.1962  131.5471 H   0  0  0  0  0  0  0  0  0  0  0  0
  147.1674  160.8078  132.3093 H   0  0  0  0  0  0  0  0  0  0  0  0
  145.6995  161.2913  133.4687 H   0  0  0  0  0  0  0  0  0  0  0  0
  143.3865  161.9087  134.2418 H   0  0  0  0  0  0  0  0  0  0  0  0
  140.8366  160.7870  134.9230 H   0  0  0  0  0  0  0  0  0  0  0  0
  139.2610  158.9770  136.9720 H   0  0  0  0  0  0  0  0  0  0  0  0
  141.9370  155.4419  137.4403 H   0  0  0  0  0  0  0  0  0  0  0  0
  143.3435  156.2912  136.7143 H   0  0  0  0  0  0  0  0  0  0  0  0
  141.7255  157.0713  136.7143 H   0  0  0  0  0  0  0  0  0  0  0  0
  141.6815  153.6171  136.2378 H   0  0  0  0  0  0  0  0  0  0  0  0
  140.8101  153.8618  134.6863 H   0  0  0  0  0  0  0  0  0  0  0  0
  142.5864  153.5951  134.6863 H   0  0  0  0  0  0  0  0  0  0  0  0
  144.5513  157.0838  133.3975 H   0  0  0  0  0  0  0  0  0  0  0  0
  146.4490  156.6865  133.4396 H   0  0  0  0  0  0  0  0  0  0  0  0
  1  2  1  0
  2  3  1  0
  3  4  1  0
  4  5  2  0
  5  6  1  0
  6  7  2  0
  7  8  1  0
  8  9  1  0
  9 10  2  0
 10 11  1  0
 11 12  2  0
 12 13  1  0
 13 14  2  0
 14 15  1  0
 15 16  1  0
 15 17  2  0
 14 18  1  0
 18 19  1  0
 19 20  2  0
 19 21  1  0
 21 22  1  0
 21 23  1  0
 18 24  1  0
 24 25  2  0
  8 26  2  0
 26  4  1  0
 25  9  1  0
 24 12  1  0
  1 27  1  0
  1 28  1  0
  1 29  1  0
  2 30  1  0
  2 31  1  0
  3 32  1  0
  3 33  1  0
  5 34  1  0
  6 35  1  0
  7 36  1  0
 10 37  1  0
 11 38  1  0
 13 39  1  0
 16 40  1  0
 22 41  1  0
 22 42  1  0
 22 43  1  0
 23 44  1  0
 23 45  1  0
 23 46  1  0
 25 47  1  0
 26 48  1  0
M  CHG  2   2   1  16  -1
M  END
>  <UniqueID>  (49) 
49

>  <SMILES>  (49) 
C[NH2+]Cc1cccc(-c2ccc3cc(C([NH-])=O)n(C(=O)N(C)C)c3c2)c1

>  <Energy>  (49) 
90.7053953880495

>  <Genealogy>  (49) 
C[NH2+]Cc1cccc(-c2ccc3cc(C([NH-])=O)n(C(=O)N(C)C)c3c2)c1 (protonated)
C[NH2+]Cc1cccc(-c2ccc3cc(C([NH-])=O)n(C(=O)N(C)C)c3c2)c1 (3D coordinates assigned)
C[NH2+]Cc1cccc(-c2ccc3cc(C([NH-])=O)n(C(=O)N(C)C)c3c2)c1 (optimized conformer: 90.7053953880495 kcal/mol)

>  <smiles>  (49) 
CNCc1cccc(-c2ccc3cc(C(N)=O)n(C(=O)N(C)C)c3c2)c1

>  <score_type>  (49) 
oracle

>  <origin>  (49) 
adg

>  <m_score__min__energy>  (49) 
-8.6500000000000004

>  <m_primary>  (49) 
energy

$$$$
49:0
     RDKit          3D

 29 30  0  0  0  0  0  0  0  0999 V2000
  148.8390  160.2470  131.0410 C   0  0  0  0  0  0  0  0  0  0  0  0
  149.1730  158.5730  131.6630 S   0  0  0  0  0  0  0  0  0  0  0  0
  148.0260  158.7070  133.0410 C   0  0  0  0  0  0  0  0  0  0  0  0
  148.1640  159.6600  133.8520 O   0  0  0  0  0  0  0  0  0  0  0  0
  146.9760  157.7410  133.2360 N   0  0  0  0  0  0  0  0  0  0  0  0
  145.6450  157.9960  133.3950 C   0  0  0  0  0  0  0  0  0  0  0  0
  145.0180  159.3310  133.4870 C   0  0  0  0  0  0  0  0  0  0  0  0
  145.6410  160.4860  132.9250 N   0  0  0  0  0  0  0  0  0  0  0  0
  143.9370  159.4620  134.1210 O   0  0  0  0  0  0  0  0  0  0  0  0
  144.9170  156.8120  133.4470 C   0  0  0  0  0  0  0  0  0  0  0  0
  145.8460  155.8080  133.3160 C   0  0  0  0  0  0  0  0  0  0  0  0
  145.6610  154.4310  133.2510 C   0  0  0  0  0  0  0  0  0  0  0  0
  146.7890  153.6240  133.0300 C   0  0  0  0  0  0  0  0  0  0  0  0
  148.0740  154.2030  132.8750 C   0  0  0  0  0  0  0  0  0  0  0  0
  149.2650  153.3340  132.5590 C   0  0  0  0  0  0  0  0  0  0  0  0
  150.3450  154.1380  132.2460 F   0  0  0  0  0  0  0  0  0  0  0  0
  149.5930  152.5420  133.6470 F   0  0  0  0  0  0  0  0  0  0  0  0
  148.9940  152.5040  131.4860 F   0  0  0  0  0  0  0  0  0  0  0  0
  148.2140  155.6100  132.9160 C   0  0  0  0  0  0  0  0  0  0  0  0
  147.0800  156.3910  133.1790 C   0  0  0  0  0  0  0  0  0  0  0  0
  148.7021  160.9330  131.8899 H   0  0  0  0  0  0  0  0  0  0  0  0
  149.6871  160.5865  130.4283 H   0  0  0  0  0  0  0  0  0  0  0  0
  147.9255  160.2350  130.4283 H   0  0  0  0  0  0  0  0  0  0  0  0
  146.6170  160.4470  132.5650 H   0  0  0  0  0  0  0  0  0  0  0  0
  145.1570  161.4100  132.9570 H   0  0  0  0  0  0  0  0  0  0  0  0
  143.8291  156.7026  133.5674 H   0  0  0  0  0  0  0  0  0  0  0  0
  144.6614  153.9874  133.3691 H   0  0  0  0  0  0  0  0  0  0  0  0
  146.6744  152.5313  132.9766 H   0  0  0  0  0  0  0  0  0  0  0  0
  149.1929  156.0817  132.7450 H   0  0  0  0  0  0  0  0  0  0  0  0
  1  2  1  0
  2  3  1  0
  3  4  2  0
  3  5  1  0
  5  6  1  0
  6  7  1  0
  7  8  1  0
  7  9  2  0
  6 10  2  0
 10 11  1  0
 11 12  2  0
 12 13  1  0
 13 14  2  0
 14 15  1  0
 15 16  1  0
 15 17  1  0
 15 18  1  0
 14 19  1  0
 19 20  2  0
 20  5  1  0
 20 11  1  0
  1 21  1  0
  1 22  1  0
  1 23  1  0
  8 24  1  0
  8 25  1  0
 10 26  1  0
 12 27  1  0
 13 28  1  0
 19 29  1  0
M  END
>  <UniqueID>  (50) 
50

>  <SMILES>  (50) 
CSC(=O)n1c(C(N)=O)cc2ccc(C(F)(F)F)cc21

>  <Energy>  (50) 
66.75109983516701

>  <Genealogy>  (50) 
CSC(=O)n1c(C(N)=O)cc2ccc(C(F)(F)F)cc21 (3D coordinates assigned)
CSC(=O)n1c(C(N)=O)cc2ccc(C(F)(F)F)cc21 (optimized conformer: 66.75109983516701 kcal/mol)

>  <smiles>  (50) 
CSC(=O)n1c(C(N)=O)cc2ccc(C(F)(F)F)cc21

>  <score_type>  (50) 
oracle

>  <origin>  (50) 
adg

>  <m_score__min__energy>  (50) 
-6.6699999999999999

>  <m_primary>  (50) 
energy

$$$$
50:0
     RDKit          3D

 34 35  0  0  0  0  0  0  0  0999 V2000
  140.9680  158.3150  133.3510 C   0  0  0  0  0  0  0  0  0  0  0  0
  141.9130  158.4210  134.5550 C   0  0  2  0  0  0  0  0  0  0  0  0
  141.2590  159.2170  135.6980 C   0  0  0  0  0  0  0  0  0  0  0  0
  139.9940  158.6950  136.0040 O   0  0  0  0  0  0  0  0  0  0  0  0
  143.2430  159.0250  134.1410 C   0  0  0  0  0  0  0  0  0  0  0  0
  143.3990  160.4360  134.1120 C   0  0  0  0  0  0  0  0  0  0  0  0
  144.6210  161.0170  133.7360 C   0  0  0  0  0  0  0  0  0  0  0  0
  145.6670  160.1700  133.3860 C   0  0  0  0  0  0  0  0  0  0  0  0
  146.9570  160.4620  133.0080 C   0  0  0  0  0  0  0  0  0  0  0  0
  147.5690  159.2270  132.7930 C   0  0  0  0  0  0  0  0  0  0  0  0
  148.9640  159.0740  132.3270 C   0  0  0  0  0  0  0  0  0  0  0  0
  149.4940  157.7920  132.0010 N   0  0  0  0  0  0  0  0  0  0  0  0
  149.6920  160.0940  132.1900 O   0  0  0  0  0  0  0  0  0  0  0  0
  146.6890  158.2140  133.0260 N   0  0  0  0  0  0  0  0  0  0  0  0
  146.9480  156.8020  132.9800 C   0  0  0  0  0  0  0  0  0  0  0  0
  146.9850  156.2130  131.8660 O   0  0  0  0  0  0  0  0  0  0  0  0
  147.1710  156.0120  134.2360 C   0  0  0  0  0  0  0  0  0  0  0  0
  147.9940  156.7260  135.0860 F   0  0  0  0  0  0  0  0  0  0  0  0
  145.9590  155.7880  134.8630 F   0  0  0  0  0  0  0  0  0  0  0  0
  147.7680  154.7970  133.9510 F   0  0  0  0  0  0  0  0  0  0  0  0
  145.5310  158.8060  133.3930 C   0  0  0  0  0  0  0  0  0  0  0  0
  144.3350  158.1980  133.7820 C   0  0  0  0  0  0  0  0  0  0  0  0
  139.9334  158.1989  133.7060 H   0  0  0  0  0  0  0  0  0  0  0  0
  141.0464  159.2276  132.7419 H   0  0  0  0  0  0  0  0  0  0  0  0
  141.2467  157.4425  132.7419 H   0  0  0  0  0  0  0  0  0  0  0  0
  142.1107  157.4068  134.9322 H   0  0  0  0  0  0  0  0  0  0  0  0
  141.8991  159.1594  136.5907 H   0  0  0  0  0  0  0  0  0  0  0  0
  141.1425  160.2633  135.3792 H   0  0  0  0  0  0  0  0  0  0  0  0
  139.4810  159.4230  136.4440 H   0  0  0  0  0  0  0  0  0  0  0  0
  142.5523  161.0820  134.3874 H   0  0  0  0  0  0  0  0  0  0  0  0
  144.7471  162.1096  133.7188 H   0  0  0  0  0  0  0  0  0  0  0  0
  147.4100  161.4584  132.8984 H   0  0  0  0  0  0  0  0  0  0  0  0
  148.9250  157.0920  131.4760 H   0  0  0  0  0  0  0  0  0  0  0  0
  144.2436  157.1021  133.8088 H   0  0  0  0  0  0  0  0  0  0  0  0
  1  2  1  0
  2  3  1  0
  3  4  1  0
  2  5  1  0
  5  6  2  0
  6  7  1  0
  7  8  2  0
  8  9  1  0
  9 10  2  0
 10 11  1  0
 11 12  1  0
 11 13  2  0
 10 14  1  0
 14 15  1  0
 15 16  2  0
 15 17  1  0
 17 18  1  0
 17 19  1  0
 17 20  1  0
 14 21  1  0
 21 22  2  0
 22  5  1  0
 21  8  1  0
  1 23  1  0
  1 24  1  0
  1 25  1  0
  2 26  1  1
  3 27  1  0
  3 28  1  0
  4 29  1  0
  6 30  1  0
  7 31  1  0
  9 32  1  0
 12 33  1  0
 22 34  1  0
M  CHG  1  12  -1
M  END
>  <UniqueID>  (51) 
51

>  <SMILES>  (51) 
C[C@H](CO)c1ccc2cc(C([NH-])=O)n(C(=O)C(F)(F)F)c2c1

>  <Energy>  (51) 
70.39092115849903

>  <Genealogy>  (51) 
CC(CO)c1ccc2cc(C([NH-])=O)n(C(=O)C(F)(F)F)c2c1 (protonated)
C[C@H](CO)c1ccc2cc(C([NH-])=O)n(C(=O)C(F)(F)F)c2c1 (chirality)
C[C@H](CO)c1ccc2cc(C([NH-])=O)n(C(=O)C(F)(F)F)c2c1 (3D coordinates assigned)
C[C@H](CO)c1ccc2cc(C([NH-])=O)n(C(=O)C(F)(F)F)c2c1 (optimized conformer: 70.39092115849903 kcal/mol)

>  <smiles>  (51) 
CC(CO)c1ccc2cc(C(N)=O)n(C(=O)C(F)(F)F)c2c1

>  <score_type>  (51) 
oracle

>  <origin>  (51) 
adg

>  <m_score__min__energy>  (51) 
-5.7699999999999996

>  <m_primary>  (51) 
energy

$$$$
51:0
     RDKit          3D

 33 34  0  0  0  0  0  0  0  0999 V2000
  149.5920  161.8060  130.1760 C   0  0  0  0  0  0  0  0  0  0  0  0
  148.6310  160.6950  130.5840 C   0  0  0  0  0  0  0  0  0  0  0  0
  149.3130  159.4440  130.6510 O   0  0  0  0  0  0  0  0  0  0  0  0
  149.6080  158.7930  131.8540 C   0  0  0  0  0  0  0  0  0  0  0  0
  150.3530  157.7750  131.8710 O   0  0  0  0  0  0  0  0  0  0  0  0
  149.0780  159.3470  133.1350 C   0  0  0  0  0  0  0  0  0  0  0  0
  147.6010  159.0850  133.2290 C   0  0  0  0  0  0  0  0  0  0  0  0
  147.1050  157.7610  133.1220 C   0  0  0  0  0  0  0  0  0  0  0  0
  145.7290  157.5020  133.2360 C   0  0  0  0  0  0  0  0  0  0  0  0
  144.8800  158.5790  133.4760 C   0  0  0  0  0  0  0  0  0  0  0  0
  143.5120  158.6130  133.6140 C   0  0  0  0  0  0  0  0  0  0  0  0
  143.1950  159.9500  133.8390 C   0  0  0  0  0  0  0  0  0  0  0  0
  141.8250  160.4240  134.1280 C   0  0  0  0  0  0  0  0  0  0  0  0
  141.1420  159.9520  135.2870 N   0  0  0  0  0  0  0  0  0  0  0  0
  141.2630  161.2690  133.3830 O   0  0  0  0  0  0  0  0  0  0  0  0
  144.3240  160.7170  133.8330 N   0  0  0  0  0  0  0  0  0  0  0  0
  144.4250  162.1440  133.9720 C   0  0  0  0  0  0  0  0  0  0  0  0
  145.3360  162.6530  134.6760 O   0  0  0  0  0  0  0  0  0  0  0  0
  143.5000  162.9760  133.3520 O   0  0  0  0  0  0  0  0  0  0  0  0
  145.3470  159.8610  133.6110 C   0  0  0  0  0  0  0  0  0  0  0  0
  146.7100  160.1510  133.4800 C   0  0  0  0  0  0  0  0  0  0  0  0
  150.0047  162.2831  131.0771 H   0  0  0  0  0  0  0  0  0  0  0  0
  150.4116  161.3807  129.5782 H   0  0  0  0  0  0  0  0  0  0  0  0
  149.0531  162.5558  129.5782 H   0  0  0  0  0  0  0  0  0  0  0  0
  148.2057  160.9287  131.5712 H   0  0  0  0  0  0  0  0  0  0  0  0
  147.8302  160.6238  129.8332 H   0  0  0  0  0  0  0  0  0  0  0  0
  149.5893  158.8645  133.9811 H   0  0  0  0  0  0  0  0  0  0  0  0
  149.2576  160.4319  133.1641 H   0  0  0  0  0  0  0  0  0  0  0  0
  147.8037  156.9294  132.9482 H   0  0  0  0  0  0  0  0  0  0  0  0
  145.3345  156.4798  133.1386 H   0  0  0  0  0  0  0  0  0  0  0  0
  142.8155  157.7634  133.5584 H   0  0  0  0  0  0  0  0  0  0  0  0
  140.4020  160.5260  135.7460 H   0  0  0  0  0  0  0  0  0  0  0  0
  147.0778  161.1837  133.5704 H   0  0  0  0  0  0  0  0  0  0  0  0
  1  2  1  0
  2  3  1  0
  3  4  1  0
  4  5  2  0
  4  6  1  0
  6  7  1  0
  7  8  2  0
  8  9  1  0
  9 10  2  0
 10 11  1  0
 11 12  2  0
 12 13  1  0
 13 14  1  0
 13 15  2  0
 12 16  1  0
 16 17  1  0
 17 18  2  0
 17 19  1  0
 16 20  1  0
 20 21  2  0
 21  7  1  0
 20 10  1  0
  1 22  1  0
  1 23  1  0
  1 24  1  0
  2 25  1  0
  2 26  1  0
  6 27  1  0
  6 28  1  0
  8 29  1  0
  9 30  1  0
 11 31  1  0
 14 32  1  0
 21 33  1  0
M  CHG  2  14  -1  19  -1
M  END
>  <UniqueID>  (52) 
52

>  <SMILES>  (52) 
CCOC(=O)Cc1ccc2cc(C([NH-])=O)n(C(=O)[O-])c2c1

>  <Energy>  (52) 
66.2219818260012

>  <Genealogy>  (52) 
CCOC(=O)Cc1ccc2cc(C([NH-])=O)n(C(=O)[O-])c2c1 (protonated)
CCOC(=O)Cc1ccc2cc(C([NH-])=O)n(C(=O)[O-])c2c1 (3D coordinates assigned)
CCOC(=O)Cc1ccc2cc(C([NH-])=O)n(C(=O)[O-])c2c1 (optimized conformer: 66.2219818260012 kcal/mol)

>  <smiles>  (52) 
CCOC(=O)Cc1ccc2cc(C(N)=O)n(C(=O)O)c2c1

>  <score_type>  (52) 
oracle

>  <origin>  (52) 
adg

>  <m_score__min__energy>  (52) 
-6.5199999999999996

>  <m_primary>  (52) 
energy

$$$$
52:0
     RDKit          3D

 41 43  0  0  0  0  0  0  0  0999 V2000
  149.6980  160.5580  129.7900 C   0  0  0  0  0  0  0  0  0  0  0  0
  148.6280  161.1470  130.5960 N   0  0  0  0  0  0  0  0  0  0  0  0
  147.6870  160.1070  131.0370 C   0  0  0  0  0  0  0  0  0  0  0  0
  148.0280  159.6070  132.4560 C   0  0  2  0  0  0  0  0  0  0  0  0
  149.3350  158.8090  132.5010 C   0  0  0  0  0  0  0  0  0  0  0  0
  148.9330  157.3430  132.6160 C   0  0  0  0  0  0  0  0  0  0  0  0
  147.4880  157.3370  133.1010 C   0  0  0  0  0  0  0  0  0  0  0  0
  146.9930  158.7010  132.9540 N   0  0  0  0  0  0  0  0  0  0  0  0
  145.6570  159.1040  133.3490 C   0  0  0  0  0  0  0  0  0  0  0  0
  145.2900  160.4790  133.3950 C   0  0  0  0  0  0  0  0  0  0  0  0
  143.9930  160.8710  133.7630 C   0  0  0  0  0  0  0  0  0  0  0  0
  143.0800  159.8790  134.0940 C   0  0  0  0  0  0  0  0  0  0  0  0
  141.7580  159.9820  134.4600 C   0  0  0  0  0  0  0  0  0  0  0  0
  141.3290  158.6730  134.6660 C   0  0  0  0  0  0  0  0  0  0  0  0
  139.9800  158.3280  135.1600 C   0  0  0  0  0  0  0  0  0  0  0  0
  139.7150  158.2220  136.5560 N   0  0  0  0  0  0  0  0  0  0  0  0
  139.0360  158.1730  134.3400 O   0  0  0  0  0  0  0  0  0  0  0  0
  142.3440  157.7950  134.4290 N   0  0  0  0  0  0  0  0  0  0  0  0
  142.2830  156.3600  134.4400 C   0  0  0  0  0  0  0  0  0  0  0  0
  143.1050  155.6930  135.1220 O   0  0  0  0  0  0  0  0  0  0  0  0
  141.3330  155.6930  133.6760 O   0  0  0  0  0  0  0  0  0  0  0  0
  143.4110  158.5520  134.0820 C   0  0  0  0  0  0  0  0  0  0  0  0
  144.6890  158.1280  133.7010 C   0  0  0  0  0  0  0  0  0  0  0  0
  150.4665  160.1350  130.4536 H   0  0  0  0  0  0  0  0  0  0  0  0
  149.2828  159.7613  129.1552 H   0  0  0  0  0  0  0  0  0  0  0  0
  150.1490  161.3350  129.1552 H   0  0  0  0  0  0  0  0  0  0  0  0
  148.1130  161.8160  129.9780 H   0  0  0  0  0  0  0  0  0  0  0  0
  146.6686  160.5228  131.0388 H   0  0  0  0  0  0  0  0  0  0  0  0
  147.7593  159.2568  130.3428 H   0  0  0  0  0  0  0  0  0  0  0  0
  148.1121  160.5165  133.0690 H   0  0  0  0  0  0  0  0  0  0  0  0
  149.9150  158.9746  131.5811 H   0  0  0  0  0  0  0  0  0  0  0  0
  149.9660  159.1197  133.3468 H   0  0  0  0  0  0  0  0  0  0  0  0
  149.0088  156.8485  131.6363 H   0  0  0  0  0  0  0  0  0  0  0  0
  149.5915  156.7992  133.3092 H   0  0  0  0  0  0  0  0  0  0  0  0
  146.8860  156.6471  132.4914 H   0  0  0  0  0  0  0  0  0  0  0  0
  147.4221  157.0018  134.1466 H   0  0  0  0  0  0  0  0  0  0  0  0
  146.0348  161.2467  133.1380 H   0  0  0  0  0  0  0  0  0  0  0  0
  143.7085  161.9333  133.7883 H   0  0  0  0  0  0  0  0  0  0  0  0
  141.1655  160.9026  134.5672 H   0  0  0  0  0  0  0  0  0  0  0  0
  139.4270  159.0570  137.1130 H   0  0  0  0  0  0  0  0  0  0  0  0
  144.9388  157.0571  133.6749 H   0  0  0  0  0  0  0  0  0  0  0  0
  1  2  1  0
  2  3  1  0
  3  4  1  0
  4  5  1  0
  5  6  1  0
  6  7  1  0
  7  8  1  0
  8  9  1  0
  9 10  2  0
 10 11  1  0
 11 12  2  0
 12 13  1  0
 13 14  2  0
 14 15  1  0
 15 16  1  0
 15 17  2  0
 14 18  1  0
 18 19  1  0
 19 20  2  0
 19 21  1  0
 18 22  1  0
 22 23  2  0
  8  4  1  0
 23  9  1  0
 22 12  1  0
  1 24  1  0
  1 25  1  0
  1 26  1  0
  2 27  1  0
  3 28  1  0
  3 29  1  0
  4 30  1  1
  5 31  1  0
  5 32  1  0
  6 33  1  0
  6 34  1  0
  7 35  1  0
  7 36  1  0
 10 37  1  0
 11 38  1  0
 13 39  1  0
 16 40  1  0
 23 41  1  0
M  CHG  2  16  -1  21  -1
M  END
>  <UniqueID>  (53) 
53

>  <SMILES>  (53) 
CNC[C@@H]1CCCN1c1ccc2cc(C([NH-])=O)n(C(=O)[O-])c2c1

>  <Energy>  (53) 
81.93376942463492

>  <Genealogy>  (53) 
CNCC1CCCN1c1ccc2cc(C([NH-])=O)n(C(=O)[O-])c2c1 (protonated)
CNC[C@@H]1CCCN1c1ccc2cc(C([NH-])=O)n(C(=O)[O-])c2c1 (chirality)
CNC[C@@H]1CCCN1c1ccc2cc(C([NH-])=O)n(C(=O)[O-])c2c1 (3D coordinates assigned)
CNC[C@@H]1CCCN1c1ccc2cc(C([NH-])=O)n(C(=O)[O-])c2c1 (nonaromatic ring conformer: 81.93376942463492 kcal/mol)

>  <smiles>  (53) 
CNCC1CCCN1c1ccc2cc(C(N)=O)n(C(=O)O)c2c1

>  <score_type>  (53) 
oracle

>  <origin>  (53) 
adg

>  <m_score__min__energy>  (53) 
-7.7699999999999996

>  <m_primary>  (53) 
energy

$$$$
53:0
     RDKit          3D

 57 59  0  0  0  0  0  0  0  0999 V2000
  139.1440  149.2760  129.5550 C   0  0  0  0  0  0  0  0  0  0  0  0
  138.7650  149.1870  130.9280 O   0  0  0  0  0  0  0  0  0  0  0  0
  139.3160  150.0100  131.9150 C   0  0  0  0  0  0  0  0  0  0  0  0
  138.7260  151.0810  132.2180 O   0  0  0  0  0  0  0  0  0  0  0  0
  140.5920  149.6020  132.6470 C   0  0  0  0  0  0  0  0  0  0  0  0
  140.2310  149.1920  134.0900 C   0  0  0  0  0  0  0  0  0  0  0  0
  141.1840  148.3550  131.9480 C   0  0  0  0  0  0  0  0  0  0  0  0
  141.5970  150.7740  132.7080 C   0  0  0  0  0  0  0  0  0  0  0  0
  143.0060  150.5800  132.5720 C   0  0  0  0  0  0  0  0  0  0  0  0
  143.9170  151.6380  132.7430 C   0  0  0  0  0  0  0  0  0  0  0  0
  143.4010  152.8990  133.0180 C   0  0  0  0  0  0  0  0  0  0  0  0
  144.0420  154.1150  133.1810 C   0  0  0  0  0  0  0  0  0  0  0  0
  143.0120  155.0380  133.3580 C   0  0  0  0  0  0  0  0  0  0  0  0
  143.2010  156.4730  133.5640 C   0  0  0  0  0  0  0  0  0  0  0  0
  142.7430  157.3950  132.5780 N   0  0  0  0  0  0  0  0  0  0  0  0
  143.6900  156.8900  134.6430 O   0  0  0  0  0  0  0  0  0  0  0  0
  141.8060  154.4190  133.3480 N   0  0  0  0  0  0  0  0  0  0  0  0
  140.5130  155.0360  133.2990 C   0  0  0  0  0  0  0  0  0  0  0  0
  139.5080  154.3430  132.9740 O   0  0  0  0  0  0  0  0  0  0  0  0
  140.4130  156.4710  133.4290 N   0  0  2  0  0  0  0  0  0  0  0  0
  140.3990  156.9490  134.8170 C   0  0  0  0  0  0  0  0  0  0  0  0
  139.7890  158.3510  134.7650 C   0  0  0  0  0  0  0  0  0  0  0  0
  138.9420  158.3600  133.4730 C   0  0  1  0  0  0  0  0  0  0  0  0
  139.2560  159.4440  132.5060 N   0  0  0  0  0  0  0  0  0  0  0  0
  139.0260  159.1310  131.0810 C   0  0  0  0  0  0  0  0  0  0  0  0
  140.6120  159.9740  132.7000 C   0  0  0  0  0  0  0  0  0  0  0  0
  139.1610  156.9760  132.8560 C   0  0  0  0  0  0  0  0  0  0  0  0
  142.0610  153.1170  133.1390 C   0  0  0  0  0  0  0  0  0  0  0  0
  141.1360  152.0770  133.0330 C   0  0  0  0  0  0  0  0  0  0  0  0
  140.2127  149.5270  129.4851 H   0  0  0  0  0  0  0  0  0  0  0  0
  138.9610  148.3105  129.0608 H   0  0  0  0  0  0  0  0  0  0  0  0
  138.5504  150.0592  129.0608 H   0  0  0  0  0  0  0  0  0  0  0  0
  140.7862  149.8225  134.8001 H   0  0  0  0  0  0  0  0  0  0  0  0
  139.1506  149.3241  134.2493 H   0  0  0  0  0  0  0  0  0  0  0  0
  140.4988  148.1371  134.2493 H   0  0  0  0  0  0  0  0  0  0  0  0
  141.5252  147.6362  132.7076 H   0  0  0  0  0  0  0  0  0  0  0  0
  140.4125  147.8859  131.3197 H   0  0  0  0  0  0  0  0  0  0  0  0
  142.0352  148.6563  131.3197 H   0  0  0  0  0  0  0  0  0  0  0  0
  143.3880  149.5779  132.3274 H   0  0  0  0  0  0  0  0  0  0  0  0
  145.0015  151.4730  132.6618 H   0  0  0  0  0  0  0  0  0  0  0  0
  145.1245  154.3100  133.1727 H   0  0  0  0  0  0  0  0  0  0  0  0
  142.0420  157.1130  131.8540 H   0  0  0  0  0  0  0  0  0  0  0  0
  141.2340  156.9120  132.9440 H   0  0  0  0  0  0  0  0  0  0  0  0
  139.7850  156.2865  135.4448 H   0  0  0  0  0  0  0  0  0  0  0  0
  141.4089  156.9612  135.2527 H   0  0  0  0  0  0  0  0  0  0  0  0
  139.1555  158.5317  135.6459 H   0  0  0  0  0  0  0  0  0  0  0  0
  140.5557  159.1398  134.7666 H   0  0  0  0  0  0  0  0  0  0  0  0
  137.8922  158.5698  133.7258 H   0  0  0  0  0  0  0  0  0  0  0  0
  138.3764  158.2470  131.0000 H   0  0  0  0  0  0  0  0  0  0  0  0
  138.5414  159.9883  130.5909 H   0  0  0  0  0  0  0  0  0  0  0  0
  139.9889  158.9246  130.5909 H   0  0  0  0  0  0  0  0  0  0  0  0
  140.8229  160.0564  133.7764 H   0  0  0  0  0  0  0  0  0  0  0  0
  141.3413  159.2947  132.2344 H   0  0  0  0  0  0  0  0  0  0  0  0
  140.6874  160.9678  132.2344 H   0  0  0  0  0  0  0  0  0  0  0  0
  138.3263  156.3070  133.1122 H   0  0  0  0  0  0  0  0  0  0  0  0
  139.2125  157.0279  131.7584 H   0  0  0  0  0  0  0  0  0  0  0  0
  140.0648  152.2643  133.1990 H   0  0  0  0  0  0  0  0  0  0  0  0
  1  2  1  0
  2  3  1  0
  3  4  2  0
  3  5  1  0
  5  6  1  0
  5  7  1  0
  5  8  1  0
  8  9  2  0
  9 10  1  0
 10 11  2  0
 11 12  1  0
 12 13  2  0
 13 14  1  0
 14 15  1  0
 14 16  2  0
 13 17  1  0
 17 18  1  0
 18 19  2  0
 18 20  1  0
 20 21  1  0
 21 22  1  0
 22 23  1  0
 23 24  1  0
 24 25  1  0
 24 26  1  0
 23 27  1  0
 17 28  1  0
 28 29  2  0
 29  8  1  0
 28 11  1  0
 27 20  1  0
  1 30  1  0
  1 31  1  0
  1 32  1  0
  6 33  1  0
  6 34  1  0
  6 35  1  0
  7 36  1  0
  7 37  1  0
  7 38  1  0
  9 39  1  0
 10 40  1  0
 12 41  1  0
 15 42  1  0
 20 43  1  6
 21 44  1  0
 21 45  1  0
 22 46  1  0
 22 47  1  0
 23 48  1  1
 25 49  1  0
 25 50  1  0
 25 51  1  0
 26 52  1  0
 26 53  1  0
 26 54  1  0
 27 55  1  0
 27 56  1  0
 29 57  1  0
M  CHG  2  15  -1  20   1
M  END
>  <UniqueID>  (54) 
54

>  <SMILES>  (54) 
COC(=O)C(C)(C)c1ccc2cc(C([NH-])=O)n(C(=O)[N@@H+]3CC[C@@H](N(C)C)C3)c2c1

>  <Energy>  (54) 
122.1397808997068

>  <Genealogy>  (54) 
COC(=O)C(C)(C)c1ccc2cc(C([NH-])=O)n(C(=O)[NH+]3CC[C@@H](N(C)C)C3)c2c1 (protonated)
COC(=O)C(C)(C)c1ccc2cc(C([NH-])=O)n(C(=O)[N@@H+]3CC[C@@H](N(C)C)C3)c2c1 (chirality)
COC(=O)C(C)(C)c1ccc2cc(C([NH-])=O)n(C(=O)[N@@H+]3CC[C@@H](N(C)C)C3)c2c1 (3D coordinates assigned)
COC(=O)C(C)(C)c1ccc2cc(C([NH-])=O)n(C(=O)[N@@H+]3CC[C@@H](N(C)C)C3)c2c1 (nonaromatic ring conformer: 122.1397808997068 kcal/mol)

>  <smiles>  (54) 
COC(=O)C(C)(C)c1ccc2cc(C(N)=O)n(C(=O)N3CC[C@@H](N(C)C)C3)c2c1

>  <score_type>  (54) 
oracle

>  <origin>  (54) 
adg

>  <m_score__min__energy>  (54) 
-7.6900000000000004

>  <m_primary>  (54) 
energy

$$$$
54:0
     RDKit          3D

 46 48  0  0  0  0  0  0  0  0999 V2000
  150.3200  160.1240  129.5850 C   0  0  0  0  0  0  0  0  0  0  0  0
  149.8270  160.4620  130.9120 N   0  0  0  0  0  0  0  0  0  0  0  0
  148.4420  160.4960  131.2740 C   0  0  0  0  0  0  0  0  0  0  0  0
  147.5830  160.5950  130.3550 O   0  0  0  0  0  0  0  0  0  0  0  0
  148.0080  160.4770  132.7200 C   0  0  0  0  0  0  0  0  0  0  0  0
  147.2300  159.2330  133.0610 C   0  0  0  0  0  0  0  0  0  0  0  0
  147.8900  157.9830  133.1580 C   0  0  0  0  0  0  0  0  0  0  0  0
  147.1650  156.8080  133.4210 C   0  0  0  0  0  0  0  0  0  0  0  0
  145.7850  156.9140  133.5680 C   0  0  0  0  0  0  0  0  0  0  0  0
  144.8430  155.9450  133.8160 C   0  0  0  0  0  0  0  0  0  0  0  0
  143.6180  156.6130  133.8550 C   0  0  0  0  0  0  0  0  0  0  0  0
  142.3040  155.9440  134.0260 C   0  0  0  0  0  0  0  0  0  0  0  0
  141.2720  156.0820  133.0450 N   0  0  0  0  0  0  0  0  0  0  0  0
  142.0750  155.2480  135.0500 O   0  0  0  0  0  0  0  0  0  0  0  0
  143.8060  157.9480  133.6440 N   0  0  0  0  0  0  0  0  0  0  0  0
  142.8230  158.9920  133.5880 C   0  0  0  0  0  0  0  0  0  0  0  0
  143.0090  160.0590  134.2330 O   0  0  0  0  0  0  0  0  0  0  0  0
  141.6000  158.7890  132.8710 N   0  0  0  0  0  0  0  0  0  0  0  0
  140.3390  159.4390  133.2260 C   0  0  0  0  0  0  0  0  0  0  0  0
  139.5970  158.5920  134.2750 C   0  0  0  0  0  0  0  0  0  0  0  0
  138.7580  157.4710  133.6310 C   0  0  0  0  0  0  0  0  0  0  0  0
  139.1900  157.1990  132.3120 O   0  0  0  0  0  0  0  0  0  0  0  0
  138.8750  158.2950  131.4680 C   0  0  0  0  0  0  0  0  0  0  0  0
  139.4590  159.6330  131.9790 C   0  0  0  0  0  0  0  0  0  0  0  0
  145.1320  158.1130  133.4630 C   0  0  0  0  0  0  0  0  0  0  0  0
  145.8280  159.3000  133.2150 C   0  0  0  0  0  0  0  0  0  0  0  0
  151.2241  159.5041  129.6766 H   0  0  0  0  0  0  0  0  0  0  0  0
  149.5464  159.5654  129.0377 H   0  0  0  0  0  0  0  0  0  0  0  0
  150.5621  161.0469  129.0377 H   0  0  0  0  0  0  0  0  0  0  0  0
  148.9019  160.5229  133.3594 H   0  0  0  0  0  0  0  0  0  0  0  0
  147.3522  161.3439  132.8886 H   0  0  0  0  0  0  0  0  0  0  0  0
  148.9809  157.9316  133.0261 H   0  0  0  0  0  0  0  0  0  0  0  0
  147.6720  155.8357  133.5079 H   0  0  0  0  0  0  0  0  0  0  0  0
  145.0177  154.8679  133.9548 H   0  0  0  0  0  0  0  0  0  0  0  0
  140.3780  155.5550  133.1530 H   0  0  0  0  0  0  0  0  0  0  0  0
  141.3620  156.7340  132.2340 H   0  0  0  0  0  0  0  0  0  0  0  0
  140.5579  160.4301  133.6500 H   0  0  0  0  0  0  0  0  0  0  0  0
  140.3365  158.1373  134.9506 H   0  0  0  0  0  0  0  0  0  0  0  0
  138.9107  159.2561  134.8209 H   0  0  0  0  0  0  0  0  0  0  0  0
  138.8562  156.5574  134.2358 H   0  0  0  0  0  0  0  0  0  0  0  0
  137.7094  157.8009  133.5918 H   0  0  0  0  0  0  0  0  0  0  0  0
  139.2810  158.0945  130.4655 H   0  0  0  0  0  0  0  0  0  0  0  0
  137.7798  158.3965  131.4523 H   0  0  0  0  0  0  0  0  0  0  0  0
  140.0681  160.0825  131.1809 H   0  0  0  0  0  0  0  0  0  0  0  0
  138.6187  160.2872  132.2546 H   0  0  0  0  0  0  0  0  0  0  0  0
  145.2974  160.2608  133.1418 H   0  0  0  0  0  0  0  0  0  0  0  0
  1  2  1  0
  2  3  1  0
  3  4  2  0
  3  5  1  0
  5  6  1  0
  6  7  2  0
  7  8  1  0
  8  9  2  0
  9 10  1  0
 10 11  2  0
 11 12  1  0
 12 13  1  0
 12 14  2  0
 11 15  1  0
 15 16  1  0
 16 17  2  0
 16 18  1  0
 18 19  1  0
 19 20  1  0
 20 21  1  0
 21 22  1  0
 22 23  1  0
 23 24  1  0
 15 25  1  0
 25 26  2  0
 26  6  1  0
 25  9  1  0
 24 19  1  0
  1 27  1  0
  1 28  1  0
  1 29  1  0
  5 30  1  0
  5 31  1  0
  7 32  1  0
  8 33  1  0
 10 34  1  0
 13 35  1  0
 13 36  1  0
 19 37  1  0
 20 38  1  0
 20 39  1  0
 21 40  1  0
 21 41  1  0
 23 42  1  0
 23 43  1  0
 24 44  1  0
 24 45  1  0
 26 46  1  0
M  CHG  2   2  -1  18  -1
M  END
>  <UniqueID>  (55) 
55

>  <SMILES>  (55) 
C[N-]C(=O)Cc1ccc2cc(C(N)=O)n(C(=O)[N-]C3CCOCC3)c2c1

>  <Energy>  (55) 
89.6284048443177

>  <Genealogy>  (55) 
C[N-]C(=O)Cc1ccc2cc(C(N)=O)n(C(=O)[N-]C3CCOCC3)c2c1 (protonated)
C[N-]C(=O)Cc1ccc2cc(C(N)=O)n(C(=O)[N-]C3CCOCC3)c2c1 (3D coordinates assigned)
C[N-]C(=O)Cc1ccc2cc(C(N)=O)n(C(=O)[N-]C3CCOCC3)c2c1 (nonaromatic ring conformer: 89.6284048443177 kcal/mol)

>  <smiles>  (55) 
CNC(=O)Cc1ccc2cc(C(N)=O)n(C(=O)NC3CCOCC3)c2c1

>  <score_type>  (55) 
oracle

>  <origin>  (55) 
adg

>  <m_score__min__energy>  (55) 
-8.0700000000000003

>  <m_primary>  (55) 
energy

$$$$
55:0
     RDKit          3D

 55 57  0  0  0  0  0  0  0  0999 V2000
  144.3520  154.5960  131.8150 C   0  0  0  0  0  0  0  0  0  0  0  0
  144.9870  154.3140  133.1670 C   0  0  0  0  0  0  0  0  0  0  0  0
  145.4160  155.5370  133.7550 O   0  0  0  0  0  0  0  0  0  0  0  0
  146.1560  156.4930  133.0540 C   0  0  0  0  0  0  0  0  0  0  0  0
  147.0920  156.1370  132.2880 O   0  0  0  0  0  0  0  0  0  0  0  0
  145.8340  157.8860  133.1940 N   0  0  0  0  0  0  0  0  0  0  0  0
  146.6850  158.9490  133.1230 C   0  0  0  0  0  0  0  0  0  0  0  0
  148.1030  158.8990  132.7100 C   0  0  0  0  0  0  0  0  0  0  0  0
  148.4710  158.4640  131.4040 N   0  0  0  0  0  0  0  0  0  0  0  0
  148.9980  159.2910  133.5050 O   0  0  0  0  0  0  0  0  0  0  0  0
  146.0140  160.1340  133.4160 C   0  0  0  0  0  0  0  0  0  0  0  0
  144.7110  159.7640  133.6640 C   0  0  0  0  0  0  0  0  0  0  0  0
  143.6100  160.5420  134.0090 C   0  0  0  0  0  0  0  0  0  0  0  0
  142.3860  159.8900  134.2290 C   0  0  0  0  0  0  0  0  0  0  0  0
  142.2900  158.4800  134.1190 C   0  0  0  0  0  0  0  0  0  0  0  0
  140.9670  157.7950  134.3260 C   0  0  0  0  0  0  0  0  0  0  0  0
  141.1230  156.3080  134.1650 C   0  0  0  0  0  0  0  0  0  0  0  0
  141.8620  155.5680  135.1010 C   0  0  0  0  0  0  0  0  0  0  0  0
  141.9710  154.1800  134.9760 C   0  0  0  0  0  0  0  0  0  0  0  0
  141.3390  153.5160  133.9170 C   0  0  0  0  0  0  0  0  0  0  0  0
  141.4550  151.7650  133.7760 S   0  0  0  0  0  0  0  0  0  0  0  0
  142.8520  151.3820  133.3770 O   0  0  0  0  0  0  0  0  0  0  0  0
  141.1410  151.1370  135.1050 O   0  0  0  0  0  0  0  0  0  0  0  0
  140.2920  151.2040  132.5370 C   0  0  0  0  0  0  0  0  0  0  0  0
  140.7860  149.9840  131.8660 N   0  0  0  0  0  0  0  0  0  0  0  0
  139.8360  149.5650  130.8220 C   0  0  0  0  0  0  0  0  0  0  0  0
  140.9660  148.8850  132.8300 C   0  0  0  0  0  0  0  0  0  0  0  0
  140.5850  154.2490  132.9920 C   0  0  0  0  0  0  0  0  0  0  0  0
  140.4750  155.6370  133.1160 C   0  0  0  0  0  0  0  0  0  0  0  0
  143.4280  157.7230  133.7590 C   0  0  0  0  0  0  0  0  0  0  0  0
  144.6300  158.4020  133.5250 C   0  0  0  0  0  0  0  0  0  0  0  0
  143.3558  155.0384  131.9629 H   0  0  0  0  0  0  0  0  0  0  0  0
  144.9849  155.2977  131.2519 H   0  0  0  0  0  0  0  0  0  0  0  0
  144.2558  153.6560  131.2519 H   0  0  0  0  0  0  0  0  0  0  0  0
  144.2497  153.8301  133.8244 H   0  0  0  0  0  0  0  0  0  0  0  0
  145.8525  153.6484  133.0335 H   0  0  0  0  0  0  0  0  0  0  0  0
  148.3160  157.4770  131.1020 H   0  0  0  0  0  0  0  0  0  0  0  0
  146.4355  161.1497  133.4434 H   0  0  0  0  0  0  0  0  0  0  0  0
  143.6959  161.6343  134.1064 H   0  0  0  0  0  0  0  0  0  0  0  0
  141.4938  160.4785  134.4890 H   0  0  0  0  0  0  0  0  0  0  0  0
  140.5985  158.0144  135.3390 H   0  0  0  0  0  0  0  0  0  0  0  0
  140.2499  158.1644  133.5781 H   0  0  0  0  0  0  0  0  0  0  0  0
  142.3579  156.0828  135.9371 H   0  0  0  0  0  0  0  0  0  0  0  0
  142.5549  153.6074  135.7116 H   0  0  0  0  0  0  0  0  0  0  0  0
  139.3285  150.9845  133.0203 H   0  0  0  0  0  0  0  0  0  0  0  0
  140.1714  151.9960  131.7832 H   0  0  0  0  0  0  0  0  0  0  0  0
  138.9266  149.1639  131.2934 H   0  0  0  0  0  0  0  0  0  0  0  0
  139.5734  150.4308  130.1964 H   0  0  0  0  0  0  0  0  0  0  0  0
  140.2983  148.7873  130.1964 H   0  0  0  0  0  0  0  0  0  0  0  0
  140.9011  149.2812  133.8541 H   0  0  0  0  0  0  0  0  0  0  0  0
  140.1793  148.1313  132.6779 H   0  0  0  0  0  0  0  0  0  0  0  0
  141.9520  148.4217  132.6779 H   0  0  0  0  0  0  0  0  0  0  0  0
  140.0776  153.7307  132.1650 H   0  0  0  0  0  0  0  0  0  0  0  0
  139.8779  156.2060  132.3882 H   0  0  0  0  0  0  0  0  0  0  0  0
  143.3708  156.6285  133.6651 H   0  0  0  0  0  0  0  0  0  0  0  0
  1  2  1  0
  2  3  1  0
  3  4  1  0
  4  5  2  0
  4  6  1  0
  6  7  1  0
  7  8  1  0
  8  9  1  0
  8 10  2  0
  7 11  2  0
 11 12  1  0
 12 13  2  0
 13 14  1  0
 14 15  2  0
 15 16  1  0
 16 17  1  0
 17 18  2  0
 18 19  1  0
 19 20  2  0
 20 21  1  0
 21 22  2  0
 21 23  2  0
 21 24  1  0
 24 25  1  0
 25 26  1  0
 25 27  1  0
 20 28  1  0
 28 29  2  0
 15 30  1  0
 30 31  2  0
 31  6  1  0
 31 12  1  0
 29 17  1  0
  1 32  1  0
  1 33  1  0
  1 34  1  0
  2 35  1  0
  2 36  1  0
  9 37  1  0
 11 38  1  0
 13 39  1  0
 14 40  1  0
 16 41  1  0
 16 42  1  0
 18 43  1  0
 19 44  1  0
 24 45  1  0
 24 46  1  0
 26 47  1  0
 26 48  1  0
 26 49  1  0
 27 50  1  0
 27 51  1  0
 27 52  1  0
 28 53  1  0
 29 54  1  0
 30 55  1  0
M  CHG  1   9  -1
M  END
>  <UniqueID>  (56) 
56

>  <SMILES>  (56) 
CCOC(=O)n1c(C([NH-])=O)cc2ccc(Cc3ccc(S(=O)(=O)CN(C)C)cc3)cc21

>  <Energy>  (56) 
87.79018504247358

>  <Genealogy>  (56) 
CCOC(=O)n1c(C([NH-])=O)cc2ccc(Cc3ccc(S(=O)(=O)CN(C)C)cc3)cc21 (protonated)
CCOC(=O)n1c(C([NH-])=O)cc2ccc(Cc3ccc(S(=O)(=O)CN(C)C)cc3)cc21 (3D coordinates assigned)
CCOC(=O)n1c(C([NH-])=O)cc2ccc(Cc3ccc(S(=O)(=O)CN(C)C)cc3)cc21 (optimized conformer: 87.79018504247358 kcal/mol)

>  <smiles>  (56) 
CCOC(=O)n1c(C(N)=O)cc2ccc(Cc3ccc(S(=O)(=O)CN(C)C)cc3)cc21

>  <score_type>  (56) 
oracle

>  <origin>  (56) 
adg

>  <m_score__min__energy>  (56) 
-8.6400000000000006

>  <m_primary>  (56) 
energy

$$$$
56:0
     RDKit          3D

 37 39  0  0  0  0  0  0  0  0999 V2000
  138.8100  158.0740  133.1700 C   0  0  0  0  0  0  0  0  0  0  0  0
  139.8830  158.0260  134.1690 N   0  0  0  0  0  0  0  0  0  0  0  0
  139.5670  158.1280  135.5720 C   0  0  0  0  0  0  0  0  0  0  0  0
  138.3700  158.2410  135.9520 O   0  0  0  0  0  0  0  0  0  0  0  0
  140.6530  158.0500  136.6030 C   0  0  0  0  0  0  0  0  0  0  0  0
  141.9290  158.7040  136.0760 C   0  0  0  0  0  0  0  0  0  0  0  0
  142.3850  158.0470  134.7620 C   0  0  2  0  0  0  0  0  0  0  0  0
  143.6170  158.7540  134.2290 C   0  0  0  0  0  0  0  0  0  0  0  0
  143.6650  160.1710  134.1580 C   0  0  0  0  0  0  0  0  0  0  0  0
  144.8170  160.8290  133.6960 C   0  0  0  0  0  0  0  0  0  0  0  0
  145.9030  160.0500  133.3120 C   0  0  0  0  0  0  0  0  0  0  0  0
  147.1450  160.4280  132.8580 C   0  0  0  0  0  0  0  0  0  0  0  0
  147.8380  159.2390  132.6400 C   0  0  0  0  0  0  0  0  0  0  0  0
  149.1980  159.1860  132.0650 C   0  0  0  0  0  0  0  0  0  0  0  0
  149.7400  160.2970  131.3570 N   0  0  0  0  0  0  0  0  0  0  0  0
  149.9110  158.1620  132.2440 O   0  0  0  0  0  0  0  0  0  0  0  0
  147.0560  158.1670  132.9570 N   0  0  0  0  0  0  0  0  0  0  0  0
  147.4230  156.7770  132.9540 C   0  0  0  0  0  0  0  0  0  0  0  0
  147.3350  156.0980  131.8980 O   0  0  0  0  0  0  0  0  0  0  0  0
  147.9030  156.1760  134.1110 O   0  0  0  0  0  0  0  0  0  0  0  0
  145.8740  158.6810  133.3630 C   0  0  0  0  0  0  0  0  0  0  0  0
  144.7470  157.9990  133.8370 C   0  0  0  0  0  0  0  0  0  0  0  0
  141.2640  158.0240  133.7440 C   0  0  0  0  0  0  0  0  0  0  0  0
  141.5460  157.9260  132.5180 O   0  0  0  0  0  0  0  0  0  0  0  0
  137.8362  158.1176  133.6797 H   0  0  0  0  0  0  0  0  0  0  0  0
  138.9347  158.9675  132.5406 H   0  0  0  0  0  0  0  0  0  0  0  0
  138.8544  157.1730  132.5406 H   0  0  0  0  0  0  0  0  0  0  0  0
  140.3268  158.5723  137.5145 H   0  0  0  0  0  0  0  0  0  0  0  0
  140.8583  156.9932  136.8287 H   0  0  0  0  0  0  0  0  0  0  0  0
  141.7376  159.7722  135.8962 H   0  0  0  0  0  0  0  0  0  0  0  0
  142.7235  158.5749  136.8257 H   0  0  0  0  0  0  0  0  0  0  0  0
  142.6530  156.9994  134.9640 H   0  0  0  0  0  0  0  0  0  0  0  0
  142.7898  160.7607  134.4684 H   0  0  0  0  0  0  0  0  0  0  0  0
  144.8587  161.9268  133.6397 H   0  0  0  0  0  0  0  0  0  0  0  0
  147.5134  161.4524  132.7003 H   0  0  0  0  0  0  0  0  0  0  0  0
  150.7540  160.5350  131.4250 H   0  0  0  0  0  0  0  0  0  0  0  0
  144.7404  156.9010  133.9031 H   0  0  0  0  0  0  0  0  0  0  0  0
  1  2  1  0
  2  3  1  0
  3  4  2  0
  3  5  1  0
  5  6  1  0
  6  7  1  0
  7  8  1  0
  8  9  2  0
  9 10  1  0
 10 11  2  0
 11 12  1  0
 12 13  2  0
 13 14  1  0
 14 15  1  0
 14 16  2  0
 13 17  1  0
 17 18  1  0
 18 19  2  0
 18 20  1  0
 17 21  1  0
 21 22  2  0
  7 23  1  0
 23 24  2  0
 23  2  1  0
 22  8  1  0
 21 11  1  0
  1 25  1  0
  1 26  1  0
  1 27  1  0
  5 28  1  0
  5 29  1  0
  6 30  1  0
  6 31  1  0
  7 32  1  1
  9 33  1  0
 10 34  1  0
 12 35  1  0
 15 36  1  0
 22 37  1  0
M  CHG  2  15  -1  20  -1
M  END
>  <UniqueID>  (57) 
57

>  <SMILES>  (57) 
CN1C(=O)CC[C@H](c2ccc3cc(C([NH-])=O)n(C(=O)[O-])c3c2)C1=O

>  <Energy>  (57) 
78.1434292986725

>  <Genealogy>  (57) 
CN1C(=O)CCC(c2ccc3cc(C([NH-])=O)n(C(=O)[O-])c3c2)C1=O (protonated)
CN1C(=O)CC[C@H](c2ccc3cc(C([NH-])=O)n(C(=O)[O-])c3c2)C1=O (chirality)
CN1C(=O)CC[C@H](c2ccc3cc(C([NH-])=O)n(C(=O)[O-])c3c2)C1=O (3D coordinates assigned)
CN1C(=O)CC[C@H](c2ccc3cc(C([NH-])=O)n(C(=O)[O-])c3c2)C1=O (nonaromatic ring conformer: 78.1434292986725 kcal/mol)

>  <smiles>  (57) 
CN1C(=O)CCC(c2ccc3cc(C(N)=O)n(C(=O)O)c3c2)C1=O

>  <score_type>  (57) 
oracle

>  <origin>  (57) 
adg

>  <m_score__min__energy>  (57) 
-7.4199999999999999

>  <m_primary>  (57) 
energy

$$$$
57:0
     RDKit          3D

 39 40  0  0  0  0  0  0  0  0999 V2000
  147.5920  155.9330  135.1520 C   0  0  0  0  0  0  0  0  0  0  0  0
  146.6710  155.7690  134.0810 O   0  0  0  0  0  0  0  0  0  0  0  0
  146.7150  156.5500  132.9220 C   0  0  0  0  0  0  0  0  0  0  0  0
  146.9540  156.0160  131.8040 O   0  0  0  0  0  0  0  0  0  0  0  0
  146.5120  157.9690  133.0110 N   0  0  0  0  0  0  0  0  0  0  0  0
  147.4440  158.9580  132.9000 C   0  0  0  0  0  0  0  0  0  0  0  0
  148.8550  158.7830  132.4960 C   0  0  0  0  0  0  0  0  0  0  0  0
  149.3880  157.4870  132.2330 N   0  0  0  0  0  0  0  0  0  0  0  0
  149.5870  159.7950  132.3330 O   0  0  0  0  0  0  0  0  0  0  0  0
  146.8670  160.2030  133.1430 C   0  0  0  0  0  0  0  0  0  0  0  0
  145.5400  159.9460  133.4000 C   0  0  0  0  0  0  0  0  0  0  0  0
  144.5050  160.8200  133.7210 C   0  0  0  0  0  0  0  0  0  0  0  0
  143.2350  160.2730  133.9710 C   0  0  0  0  0  0  0  0  0  0  0  0
  143.0240  158.8730  133.8970 C   0  0  0  0  0  0  0  0  0  0  0  0
  141.6700  158.2920  134.2110 C   0  0  0  0  0  0  0  0  0  0  0  0
  141.0380  157.6230  132.9860 C   0  0  0  0  0  0  0  0  0  0  0  0
  140.9470  158.5680  131.8690 N   0  0  0  0  0  0  0  0  0  0  0  0
  139.4940  159.5120  132.0060 S   0  0  0  0  0  0  0  0  0  0  0  0
  138.7250  159.6960  130.4110 C   0  0  0  0  0  0  0  0  0  0  0  0
  138.5330  158.8540  132.9550 O   0  0  0  0  0  0  0  0  0  0  0  0
  139.8460  160.8760  132.5310 O   0  0  0  0  0  0  0  0  0  0  0  0
  144.1010  158.0180  133.5760 C   0  0  0  0  0  0  0  0  0  0  0  0
  145.3510  158.5910  133.3140 C   0  0  0  0  0  0  0  0  0  0  0  0
  147.0605  155.8384  136.1104 H   0  0  0  0  0  0  0  0  0  0  0  0
  148.3714  155.1595  135.0870 H   0  0  0  0  0  0  0  0  0  0  0  0
  148.0565  156.9280  135.0870 H   0  0  0  0  0  0  0  0  0  0  0  0
  148.9280  156.8460  131.5510 H   0  0  0  0  0  0  0  0  0  0  0  0
  147.3664  161.1830  133.1318 H   0  0  0  0  0  0  0  0  0  0  0  0
  144.6761  161.9052  133.7772 H   0  0  0  0  0  0  0  0  0  0  0  0
  142.3964  160.9375  134.2266 H   0  0  0  0  0  0  0  0  0  0  0  0
  141.7808  157.5423  135.0082 H   0  0  0  0  0  0  0  0  0  0  0  0
  141.0114  159.1138  134.5287 H   0  0  0  0  0  0  0  0  0  0  0  0
  141.6565  156.7651  132.6837 H   0  0  0  0  0  0  0  0  0  0  0  0
  140.0239  157.2882  133.2496 H   0  0  0  0  0  0  0  0  0  0  0  0
  141.7430  159.2420  131.9460 H   0  0  0  0  0  0  0  0  0  0  0  0
  137.6630  159.9501  130.5431 H   0  0  0  0  0  0  0  0  0  0  0  0
  139.2275  160.4993  129.8522 H   0  0  0  0  0  0  0  0  0  0  0  0
  138.8094  158.7523  129.8522 H   0  0  0  0  0  0  0  0  0  0  0  0
  143.9610  156.9278  133.5329 H   0  0  0  0  0  0  0  0  0  0  0  0
  1  2  1  0
  2  3  1  0
  3  4  2  0
  3  5  1  0
  5  6  1  0
  6  7  1  0
  7  8  1  0
  7  9  2  0
  6 10  2  0
 10 11  1  0
 11 12  2  0
 12 13  1  0
 13 14  2  0
 14 15  1  0
 15 16  1  0
 16 17  1  0
 17 18  1  0
 18 19  1  0
 18 20  2  0
 18 21  2  0
 14 22  1  0
 22 23  2  0
 23  5  1  0
 23 11  1  0
  1 24  1  0
  1 25  1  0
  1 26  1  0
  8 27  1  0
 10 28  1  0
 12 29  1  0
 13 30  1  0
 15 31  1  0
 15 32  1  0
 16 33  1  0
 16 34  1  0
 17 35  1  0
 19 36  1  0
 19 37  1  0
 19 38  1  0
 22 39  1  0
M  CHG  1   8  -1
M  END
>  <UniqueID>  (58) 
58

>  <SMILES>  (58) 
COC(=O)n1c(C([NH-])=O)cc2ccc(CCNS(C)(=O)=O)cc21

>  <Energy>  (58) 
66.92717552781103

>  <Genealogy>  (58) 
COC(=O)n1c(C([NH-])=O)cc2ccc(CCNS(C)(=O)=O)cc21 (protonated)
COC(=O)n1c(C([NH-])=O)cc2ccc(CCNS(C)(=O)=O)cc21 (3D coordinates assigned)
COC(=O)n1c(C([NH-])=O)cc2ccc(CCNS(C)(=O)=O)cc21 (optimized conformer: 66.92717552781103 kcal/mol)

>  <smiles>  (58) 
COC(=O)n1c(C(N)=O)cc2ccc(CCNS(C)(=O)=O)cc21

>  <score_type>  (58) 
oracle

>  <origin>  (58) 
adg

>  <m_score__min__energy>  (58) 
-7.1500000000000004

>  <m_primary>  (58) 
energy

$$$$
58:0
     RDKit          3D

 41 42  0  0  0  0  0  0  0  0999 V2000
  142.2550  157.4320  135.2810 C   0  0  0  0  0  0  0  0  0  0  0  0
  143.3390  157.0830  134.5920 C   0  0  0  0  0  0  0  0  0  0  0  0
  143.7610  157.7730  133.3600 C   0  0  0  0  0  0  0  0  0  0  0  0
  142.9730  157.8010  132.3780 O   0  0  0  0  0  0  0  0  0  0  0  0
  145.0360  158.4250  133.2580 N   0  0  0  0  0  0  0  0  0  0  0  0
  145.3180  159.7390  133.4730 C   0  0  0  0  0  0  0  0  0  0  0  0
  144.3290  160.8040  133.7390 C   0  0  0  0  0  0  0  0  0  0  0  0
  142.9670  160.6600  133.3390 N   0  0  0  0  0  0  0  0  0  0  0  0
  144.6960  161.8650  134.3120 O   0  0  0  0  0  0  0  0  0  0  0  0
  146.6920  159.9650  133.3680 C   0  0  0  0  0  0  0  0  0  0  0  0
  147.2440  158.7360  133.0890 C   0  0  0  0  0  0  0  0  0  0  0  0
  148.5730  158.3690  132.8980 C   0  0  0  0  0  0  0  0  0  0  0  0
  148.8520  157.0150  132.6410 C   0  0  0  0  0  0  0  0  0  0  0  0
  147.8070  156.0580  132.5960 C   0  0  0  0  0  0  0  0  0  0  0  0
  148.1130  154.6190  132.2710 C   0  0  0  0  0  0  0  0  0  0  0  0
  148.5020  153.8420  133.5270 C   0  0  0  0  0  0  0  0  0  0  0  0
  147.4140  153.8150  134.4470 O   0  0  0  0  0  0  0  0  0  0  0  0
  147.3890  154.6000  135.6050 C   0  0  0  0  0  0  0  0  0  0  0  0
  147.9280  155.7410  135.6220 O   0  0  0  0  0  0  0  0  0  0  0  0
  146.7730  154.0550  136.8490 C   0  0  0  0  0  0  0  0  0  0  0  0
  147.5330  152.9560  137.2840 O   0  0  0  0  0  0  0  0  0  0  0  0
  148.3730  153.4080  138.6860 S   0  0  0  0  0  0  0  0  0  0  0  0
  149.5990  154.1980  138.3160 O   0  0  0  0  0  0  0  0  0  0  0  0
  148.7990  152.1660  139.4130 O   0  0  0  0  0  0  0  0  0  0  0  0
  147.3970  154.3240  139.6980 O   0  0  0  0  0  0  0  0  0  0  0  0
  146.4710  156.4680  132.7960 C   0  0  0  0  0  0  0  0  0  0  0  0
  146.2230  157.8240  133.0320 C   0  0  0  0  0  0  0  0  0  0  0  0
  141.9841  156.8834  136.1952 H   0  0  0  0  0  0  0  0  0  0  0  0
  141.6301  158.2690  134.9363 H   0  0  0  0  0  0  0  0  0  0  0  0
  143.9467  156.2424  134.9583 H   0  0  0  0  0  0  0  0  0  0  0  0
  142.6880  159.9520  132.6270 H   0  0  0  0  0  0  0  0  0  0  0  0
  147.2209  160.9225  133.4838 H   0  0  0  0  0  0  0  0  0  0  0  0
  149.3799  159.1150  132.9466 H   0  0  0  0  0  0  0  0  0  0  0  0
  149.8911  156.6952  132.4733 H   0  0  0  0  0  0  0  0  0  0  0  0
  147.2222  154.1547  131.8229 H   0  0  0  0  0  0  0  0  0  0  0  0
  148.9584  154.5920  131.5678 H   0  0  0  0  0  0  0  0  0  0  0  0
  148.7679  152.8115  133.2487 H   0  0  0  0  0  0  0  0  0  0  0  0
  149.3615  154.3368  134.0028 H   0  0  0  0  0  0  0  0  0  0  0  0
  146.7646  154.8310  137.6286 H   0  0  0  0  0  0  0  0  0  0  0  0
  145.7387  153.7393  136.6478 H   0  0  0  0  0  0  0  0  0  0  0  0
  145.6468  155.7401  132.7670 H   0  0  0  0  0  0  0  0  0  0  0  0
  1  2  2  0
  2  3  1  0
  3  4  2  0
  3  5  1  0
  5  6  1  0
  6  7  1  0
  7  8  1  0
  7  9  2  0
  6 10  2  0
 10 11  1  0
 11 12  2  0
 12 13  1  0
 13 14  2  0
 14 15  1  0
 15 16  1  0
 16 17  1  0
 17 18  1  0
 18 19  2  0
 18 20  1  0
 20 21  1  0
 21 22  1  0
 22 23  2  0
 22 24  2  0
 22 25  1  0
 14 26  1  0
 26 27  2  0
 27  5  1  0
 27 11  1  0
  1 28  1  0
  1 29  1  0
  2 30  1  0
  8 31  1  0
 10 32  1  0
 12 33  1  0
 13 34  1  0
 15 35  1  0
 15 36  1  0
 16 37  1  0
 16 38  1  0
 20 39  1  0
 20 40  1  0
 26 41  1  0
M  CHG  2   8  -1  25  -1
M  END
>  <UniqueID>  (59) 
59

>  <SMILES>  (59) 
C=CC(=O)n1c(C([NH-])=O)cc2ccc(CCOC(=O)COS(=O)(=O)[O-])cc21

>  <Energy>  (59) 
72.16897992364852

>  <Genealogy>  (59) 
C=CC(=O)n1c(C([NH-])=O)cc2ccc(CCOC(=O)COS(=O)(=O)[O-])cc21 (protonated)
C=CC(=O)n1c(C([NH-])=O)cc2ccc(CCOC(=O)COS(=O)(=O)[O-])cc21 (3D coordinates assigned)
C=CC(=O)n1c(C([NH-])=O)cc2ccc(CCOC(=O)COS(=O)(=O)[O-])cc21 (optimized conformer: 72.16897992364852 kcal/mol)

>  <smiles>  (59) 
C=CC(=O)n1c(C(N)=O)cc2ccc(CCOC(=O)COS(=O)(=O)O)cc21

>  <score_type>  (59) 
oracle

>  <origin>  (59) 
adg

>  <m_score__min__energy>  (59) 
-7.75

>  <m_primary>  (59) 
energy

$$$$
59:0
     RDKit          3D

 57 58  0  0  0  0  0  0  0  0999 V2000
  143.2210  157.0940  132.4530 C   0  0  0  0  0  0  0  0  0  0  0  0
  143.6430  156.2160  133.5880 C   0  0  0  0  0  0  0  0  0  0  0  0
  143.0980  156.3650  134.7140 O   0  0  0  0  0  0  0  0  0  0  0  0
  144.6670  155.2240  133.4180 N   0  0  0  0  0  0  0  0  0  0  0  0
  144.4940  153.8790  133.2860 C   0  0  0  0  0  0  0  0  0  0  0  0
  143.2150  153.1520  133.4300 C   0  0  0  0  0  0  0  0  0  0  0  0
  141.9680  153.8470  133.4940 N   0  0  0  0  0  0  0  0  0  0  0  0
  143.2270  151.8970  133.5430 O   0  0  0  0  0  0  0  0  0  0  0  0
  145.7030  153.2530  132.9960 C   0  0  0  0  0  0  0  0  0  0  0  0
  146.6350  154.2640  132.9560 C   0  0  0  0  0  0  0  0  0  0  0  0
  147.9980  154.2140  132.6750 C   0  0  0  0  0  0  0  0  0  0  0  0
  148.7090  155.4230  132.6410 C   0  0  0  0  0  0  0  0  0  0  0  0
  148.0470  156.6550  132.8690 C   0  0  0  0  0  0  0  0  0  0  0  0
  148.8200  157.9480  132.8300 C   0  0  0  0  0  0  0  0  0  0  0  0
  148.1860  159.0290  133.7220 C   0  0  0  0  0  0  0  0  0  0  0  0
  147.4000  160.0860  132.9310 C   0  0  0  0  0  0  0  0  0  0  0  0
  146.2200  160.4670  133.6160 O   0  0  0  0  0  0  0  0  0  0  0  0
  145.1040  159.7040  133.1920 C   0  0  0  0  0  0  0  0  0  0  0  0
  143.9470  159.8560  134.1830 C   0  0  0  0  0  0  0  0  0  0  0  0
  142.8530  160.5060  133.5600 O   0  0  0  0  0  0  0  0  0  0  0  0
  141.6750  159.7230  133.6380 C   0  0  0  0  0  0  0  0  0  0  0  0
  140.5110  160.4440  132.9520 C   0  0  0  0  0  0  0  0  0  0  0  0
  139.7940  159.5430  132.1280 O   0  0  0  0  0  0  0  0  0  0  0  0
  140.2900  158.2220  132.2470 C   0  0  0  0  0  0  0  0  0  0  0  0
  139.3220  157.3630  133.0710 C   0  0  0  0  0  0  0  0  0  0  0  0
  139.9670  156.1000  133.5620 C   0  0  0  0  0  0  0  0  0  0  0  0
  140.5100  156.0540  134.6970 O   0  0  0  0  0  0  0  0  0  0  0  0
  139.9090  154.9500  132.7810 O   0  0  0  0  0  0  0  0  0  0  0  0
  146.6640  156.6680  133.1540 C   0  0  0  0  0  0  0  0  0  0  0  0
  145.9850  155.4450  133.2080 C   0  0  0  0  0  0  0  0  0  0  0  0
  142.7766  158.0185  132.8502 H   0  0  0  0  0  0  0  0  0  0  0  0
  144.0975  157.3437  131.8370 H   0  0  0  0  0  0  0  0  0  0  0  0
  142.4785  156.5655  131.8370 H   0  0  0  0  0  0  0  0  0  0  0  0
  141.0750  153.3100  133.5520 H   0  0  0  0  0  0  0  0  0  0  0  0
  141.9290  154.8850  133.5990 H   0  0  0  0  0  0  0  0  0  0  0  0
  145.8762  152.1790  132.8335 H   0  0  0  0  0  0  0  0  0  0  0  0
  148.5023  153.2550  132.4853 H   0  0  0  0  0  0  0  0  0  0  0  0
  149.7896  155.4145  132.4356 H   0  0  0  0  0  0  0  0  0  0  0  0
  149.8462  157.7583  133.1778 H   0  0  0  0  0  0  0  0  0  0  0  0
  148.8113  158.3164  131.7936 H   0  0  0  0  0  0  0  0  0  0  0  0
  147.4995  158.5399  134.4287 H   0  0  0  0  0  0  0  0  0  0  0  0
  149.0073  159.5505  134.2353 H   0  0  0  0  0  0  0  0  0  0  0  0
  148.0347  160.9732  132.7892 H   0  0  0  0  0  0  0  0  0  0  0  0
  147.1148  159.6535  131.9607 H   0  0  0  0  0  0  0  0  0  0  0  0
  144.7807  160.0544  132.2007 H   0  0  0  0  0  0  0  0  0  0  0  0
  145.3943  158.6442  133.1417 H   0  0  0  0  0  0  0  0  0  0  0  0
  143.6302  158.8605  134.5276 H   0  0  0  0  0  0  0  0  0  0  0  0
  144.2837  160.4594  135.0389 H   0  0  0  0  0  0  0  0  0  0  0  0
  141.8476  158.7573  133.1403 H   0  0  0  0  0  0  0  0  0  0  0  0
  141.4221  159.5617  134.6963 H   0  0  0  0  0  0  0  0  0  0  0  0
  139.8350  160.8525  133.7176 H   0  0  0  0  0  0  0  0  0  0  0  0
  140.9105  161.2585  132.3299 H   0  0  0  0  0  0  0  0  0  0  0  0
  140.4004  157.7839  131.2440 H   0  0  0  0  0  0  0  0  0  0  0  0
  141.2653  158.2500  132.7549 H   0  0  0  0  0  0  0  0  0  0  0  0
  138.9797  157.9469  133.9381 H   0  0  0  0  0  0  0  0  0  0  0  0
  138.4798  157.0831  132.4211 H   0  0  0  0  0  0  0  0  0  0  0  0
  146.1334  157.6155  133.3292 H   0  0  0  0  0  0  0  0  0  0  0  0
  1  2  1  0
  2  3  2  0
  2  4  1  0
  4  5  1  0
  5  6  1  0
  6  7  1  0
  6  8  2  0
  5  9  2  0
  9 10  1  0
 10 11  2  0
 11 12  1  0
 12 13  2  0
 13 14  1  0
 14 15  1  0
 15 16  1  0
 16 17  1  0
 17 18  1  0
 18 19  1  0
 19 20  1  0
 20 21  1  0
 21 22  1  0
 22 23  1  0
 23 24  1  0
 24 25  1  0
 25 26  1  0
 26 27  2  0
 26 28  1  0
 13 29  1  0
 29 30  2  0
 30  4  1  0
 30 10  1  0
  1 31  1  0
  1 32  1  0
  1 33  1  0
  7 34  1  0
  7 35  1  0
  9 36  1  0
 11 37  1  0
 12 38  1  0
 14 39  1  0
 14 40  1  0
 15 41  1  0
 15 42  1  0
 16 43  1  0
 16 44  1  0
 18 45  1  0
 18 46  1  0
 19 47  1  0
 19 48  1  0
 21 49  1  0
 21 50  1  0
 22 51  1  0
 22 52  1  0
 24 53  1  0
 24 54  1  0
 25 55  1  0
 25 56  1  0
 29 57  1  0
M  CHG  1  28  -1
M  END
>  <UniqueID>  (60) 
60

>  <SMILES>  (60) 
CC(=O)n1c(C(N)=O)cc2ccc(CCCOCCOCCOCCC(=O)[O-])cc21

>  <Energy>  (60) 
95.68375906251231

>  <Genealogy>  (60) 
CC(=O)n1c(C(N)=O)cc2ccc(CCCOCCOCCOCCC(=O)[O-])cc21 (protonated)
CC(=O)n1c(C(N)=O)cc2ccc(CCCOCCOCCOCCC(=O)[O-])cc21 (3D coordinates assigned)
CC(=O)n1c(C(N)=O)cc2ccc(CCCOCCOCCOCCC(=O)[O-])cc21 (optimized conformer: 95.68375906251231 kcal/mol)

>  <smiles>  (60) 
CC(=O)n1c(C(N)=O)cc2ccc(CCCOCCOCCOCCC(=O)O)cc21

>  <score_type>  (60) 
oracle

>  <origin>  (60) 
adg

>  <m_score__min__energy>  (60) 
-7.9000000000000004

>  <m_primary>  (60) 
energy

$$$$
60:0
     RDKit          3D

 34 35  0  0  0  0  0  0  0  0999 V2000
  149.8440  159.7190  130.9500 C   0  0  0  0  0  0  0  0  0  0  0  0
  148.4180  160.2530  130.8970 C   0  0  0  0  0  0  0  0  0  0  0  0
  147.9230  160.4990  132.2100 O   0  0  0  0  0  0  0  0  0  0  0  0
  147.9300  159.5390  133.2300 C   0  0  0  0  0  0  0  0  0  0  0  0
  148.8680  159.5100  134.0720 O   0  0  0  0  0  0  0  0  0  0  0  0
  146.8770  158.5660  133.2980 N   0  0  0  0  0  0  0  0  0  0  0  0
  145.5520  158.7790  133.5450 C   0  0  0  0  0  0  0  0  0  0  0  0
  144.8920  160.0960  133.6660 C   0  0  0  0  0  0  0  0  0  0  0  0
  145.6640  161.2490  133.9900 N   0  0  0  0  0  0  0  0  0  0  0  0
  143.6460  160.2080  133.5230 O   0  0  0  0  0  0  0  0  0  0  0  0
  144.8620  157.5690  133.5870 C   0  0  0  0  0  0  0  0  0  0  0  0
  145.8100  156.6000  133.3480 C   0  0  0  0  0  0  0  0  0  0  0  0
  145.6780  155.2150  133.2780 C   0  0  0  0  0  0  0  0  0  0  0  0
  146.8340  154.4550  133.0360 C   0  0  0  0  0  0  0  0  0  0  0  0
  148.0930  155.0860  132.8860 C   0  0  0  0  0  0  0  0  0  0  0  0
  149.3210  154.2580  132.6090 C   0  0  0  0  0  0  0  0  0  0  0  0
  148.9770  152.7730  132.5370 C   0  0  0  0  0  0  0  0  0  0  0  0
  149.9360  152.0240  133.1950 F   0  0  0  0  0  0  0  0  0  0  0  0
  148.1880  156.4930  132.9540 C   0  0  0  0  0  0  0  0  0  0  0  0
  147.0170  157.2270  133.1770 C   0  0  0  0  0  0  0  0  0  0  0  0
  150.1534  159.6031  131.9992 H   0  0  0  0  0  0  0  0  0  0  0  0
  149.8891  158.7431  130.4445 H   0  0  0  0  0  0  0  0  0  0  0  0
  150.5190  160.4253  130.4445 H   0  0  0  0  0  0  0  0  0  0  0  0
  148.4052  161.1922  130.3245 H   0  0  0  0  0  0  0  0  0  0  0  0
  147.7770  159.5018  130.4125 H   0  0  0  0  0  0  0  0  0  0  0  0
  146.4280  161.5790  133.3600 H   0  0  0  0  0  0  0  0  0  0  0  0
  143.7879  157.4199  133.7719 H   0  0  0  0  0  0  0  0  0  0  0  0
  144.6986  154.7315  133.4082 H   0  0  0  0  0  0  0  0  0  0  0  0
  146.7609  153.3599  132.9623 H   0  0  0  0  0  0  0  0  0  0  0  0
  149.7576  154.5726  131.6496 H   0  0  0  0  0  0  0  0  0  0  0  0
  150.0382  154.4113  133.4288 H   0  0  0  0  0  0  0  0  0  0  0  0
  147.9981  152.6043  133.0095 H   0  0  0  0  0  0  0  0  0  0  0  0
  148.9452  152.4646  131.4816 H   0  0  0  0  0  0  0  0  0  0  0  0
  149.1572  156.9994  132.8348 H   0  0  0  0  0  0  0  0  0  0  0  0
  1  2  1  0
  2  3  1  0
  3  4  1  0
  4  5  2  0
  4  6  1  0
  6  7  1  0
  7  8  1  0
  8  9  1  0
  8 10  2  0
  7 11  2  0
 11 12  1  0
 12 13  2  0
 13 14  1  0
 14 15  2  0
 15 16  1  0
 16 17  1  0
 17 18  1  0
 15 19  1  0
 19 20  2  0
 20  6  1  0
 20 12  1  0
  1 21  1  0
  1 22  1  0
  1 23  1  0
  2 24  1  0
  2 25  1  0
  9 26  1  0
 11 27  1  0
 13 28  1  0
 14 29  1  0
 16 30  1  0
 16 31  1  0
 17 32  1  0
 17 33  1  0
 19 34  1  0
M  CHG  1   9  -1
M  END
>  <UniqueID>  (61) 
61

>  <SMILES>  (61) 
CCOC(=O)n1c(C([NH-])=O)cc2ccc(CCF)cc21

>  <Energy>  (61) 
65.73297486841022

>  <Genealogy>  (61) 
CCOC(=O)n1c(C([NH-])=O)cc2ccc(CCF)cc21 (protonated)
CCOC(=O)n1c(C([NH-])=O)cc2ccc(CCF)cc21 (3D coordinates assigned)
CCOC(=O)n1c(C([NH-])=O)cc2ccc(CCF)cc21 (optimized conformer: 65.73297486841022 kcal/mol)

>  <smiles>  (61) 
CCOC(=O)n1c(C(N)=O)cc2ccc(CCF)cc21

>  <score_type>  (61) 
oracle

>  <origin>  (61) 
adg

>  <m_score__min__energy>  (61) 
-5.8200000000000003

>  <m_primary>  (61) 
energy

$$$$
61:0
     RDKit          3D

 32 33  0  0  0  0  0  0  0  0999 V2000
  149.4000  158.9830  133.3250 N   0  0  0  0  0  0  0  0  0  0  0  0
  148.3160  159.7390  132.7830 C   0  0  0  0  0  0  0  0  0  0  0  0
  148.5490  160.6020  131.8950 O   0  0  0  0  0  0  0  0  0  0  0  0
  146.9230  159.4820  133.1980 C   0  0  0  0  0  0  0  0  0  0  0  0
  145.9770  160.4900  133.3640 C   0  0  0  0  0  0  0  0  0  0  0  0
  144.8080  159.8410  133.6820 C   0  0  0  0  0  0  0  0  0  0  0  0
  143.5460  160.3580  133.9590 C   0  0  0  0  0  0  0  0  0  0  0  0
  142.5210  159.4560  134.2880 C   0  0  0  0  0  0  0  0  0  0  0  0
  142.7780  158.0640  134.3470 C   0  0  0  0  0  0  0  0  0  0  0  0
  141.6630  157.1070  134.6870 C   0  0  0  0  0  0  0  0  0  0  0  0
  141.1240  156.3850  133.4430 C   0  0  0  0  0  0  0  0  0  0  0  0
  139.6090  156.5480  133.2580 C   0  0  0  0  0  0  0  0  0  0  0  0
  138.9990  155.3150  132.9860 O   0  0  0  0  0  0  0  0  0  0  0  0
  144.0700  157.5740  134.0560 C   0  0  0  0  0  0  0  0  0  0  0  0
  145.0680  158.4930  133.7090 C   0  0  0  0  0  0  0  0  0  0  0  0
  146.3680  158.2580  133.4160 N   0  0  0  0  0  0  0  0  0  0  0  0
  147.0450  156.9900  133.4570 C   0  0  0  0  0  0  0  0  0  0  0  0
  146.9360  156.1770  132.5010 O   0  0  0  0  0  0  0  0  0  0  0  0
  147.8230  156.6450  134.5550 O   0  0  0  0  0  0  0  0  0  0  0  0
  149.2280  158.1550  133.9350 H   0  0  0  0  0  0  0  0  0  0  0  0
  150.3830  159.2020  133.0470 H   0  0  0  0  0  0  0  0  0  0  0  0
  146.1321  161.5743  133.2623 H   0  0  0  0  0  0  0  0  0  0  0  0
  143.3569  161.4410  133.9214 H   0  0  0  0  0  0  0  0  0  0  0  0
  141.5101  159.8335  134.5017 H   0  0  0  0  0  0  0  0  0  0  0  0
  142.0429  156.3568  135.3961 H   0  0  0  0  0  0  0  0  0  0  0  0
  140.8387  157.6883  135.1259 H   0  0  0  0  0  0  0  0  0  0  0  0
  141.6304  156.7924  132.5555 H   0  0  0  0  0  0  0  0  0  0  0  0
  141.3233  155.3114  133.5762 H   0  0  0  0  0  0  0  0  0  0  0  0
  139.1775  156.9671  134.1789 H   0  0  0  0  0  0  0  0  0  0  0  0
  139.4310  157.2217  132.4068 H   0  0  0  0  0  0  0  0  0  0  0  0
  138.0780  155.5150  132.6770 H   0  0  0  0  0  0  0  0  0  0  0  0
  144.2872  156.4966  134.1008 H   0  0  0  0  0  0  0  0  0  0  0  0
  1  2  1  0
  2  3  2  0
  2  4  1  0
  4  5  2  0
  5  6  1  0
  6  7  2  0
  7  8  1  0
  8  9  2  0
  9 10  1  0
 10 11  1  0
 11 12  1  0
 12 13  1  0
  9 14  1  0
 14 15  2  0
 15 16  1  0
 16 17  1  0
 17 18  2  0
 17 19  1  0
 16  4  1  0
 15  6  1  0
  1 20  1  0
  1 21  1  0
  5 22  1  0
  7 23  1  0
  8 24  1  0
 10 25  1  0
 10 26  1  0
 11 27  1  0
 11 28  1  0
 12 29  1  0
 12 30  1  0
 13 31  1  0
 14 32  1  0
M  CHG  1  19  -1
M  END
>  <UniqueID>  (62) 
62

>  <SMILES>  (62) 
NC(=O)c1cc2ccc(CCCO)cc2n1C(=O)[O-]

>  <Energy>  (62) 
67.86433272828621

>  <Genealogy>  (62) 
NC(=O)c1cc2ccc(CCCO)cc2n1C(=O)[O-] (protonated)
NC(=O)c1cc2ccc(CCCO)cc2n1C(=O)[O-] (3D coordinates assigned)
NC(=O)c1cc2ccc(CCCO)cc2n1C(=O)[O-] (optimized conformer: 67.86433272828621 kcal/mol)

>  <smiles>  (62) 
NC(=O)c1cc2ccc(CCCO)cc2n1C(=O)O

>  <score_type>  (62) 
oracle

>  <origin>  (62) 
adg

>  <m_score__min__energy>  (62) 
-6.3099999999999996

>  <m_primary>  (62) 
energy

$$$$
62:0
     RDKit          3D

 50 51  0  0  0  0  0  0  0  0999 V2000
  149.9750  159.3660  130.9980 C   0  0  0  0  0  0  0  0  0  0  0  0
  148.8430  160.3050  130.9210 N   0  0  0  0  0  0  0  0  0  0  0  0
  149.2710  161.6260  130.4390 C   0  0  0  0  0  0  0  0  0  0  0  0
  148.0340  160.3540  132.1630 C   0  0  0  0  0  0  0  0  0  0  0  0
  147.3000  159.0300  132.5300 C   0  0  1  0  0  0  0  0  0  0  0  0
  148.1130  158.1520  133.4420 C   0  0  0  0  0  0  0  0  0  0  0  0
  148.4350  158.5610  134.5920 O   0  0  0  0  0  0  0  0  0  0  0  0
  148.4730  156.8690  133.0030 O   0  0  0  0  0  0  0  0  0  0  0  0
  147.7410  155.6570  133.2330 C   0  0  0  0  0  0  0  0  0  0  0  0
  148.6950  154.4890  132.9400 C   0  0  0  0  0  0  0  0  0  0  0  0
  147.2840  155.5700  134.7020 C   0  0  0  0  0  0  0  0  0  0  0  0
  146.5330  155.5640  132.2820 C   0  0  0  0  0  0  0  0  0  0  0  0
  145.9530  159.3050  133.1730 C   0  0  0  0  0  0  0  0  0  0  0  0
  145.5630  160.6310  133.5050 C   0  0  0  0  0  0  0  0  0  0  0  0
  144.3200  160.8850  134.1060 C   0  0  0  0  0  0  0  0  0  0  0  0
  143.4930  159.8010  134.3780 C   0  0  0  0  0  0  0  0  0  0  0  0
  142.2340  159.7670  134.9300 C   0  0  0  0  0  0  0  0  0  0  0  0
  141.8800  158.4200  134.9620 C   0  0  0  0  0  0  0  0  0  0  0  0
  140.6240  157.9240  135.5630 C   0  0  0  0  0  0  0  0  0  0  0  0
  140.0790  158.5330  136.7300 N   0  0  0  0  0  0  0  0  0  0  0  0
  139.9990  156.9810  135.0110 O   0  0  0  0  0  0  0  0  0  0  0  0
  142.8790  157.6510  134.4400 N   0  0  0  0  0  0  0  0  0  0  0  0
  142.8740  156.2320  134.2170 C   0  0  0  0  0  0  0  0  0  0  0  0
  142.0840  155.7220  133.3790 O   0  0  0  0  0  0  0  0  0  0  0  0
  143.7590  155.4100  134.9040 O   0  0  0  0  0  0  0  0  0  0  0  0
  143.8600  158.5120  134.0900 C   0  0  0  0  0  0  0  0  0  0  0  0
  145.0850  158.2300  133.4730 C   0  0  0  0  0  0  0  0  0  0  0  0
  150.2151  159.1668  132.0528 H   0  0  0  0  0  0  0  0  0  0  0  0
  149.7043  158.4236  130.4993 H   0  0  0  0  0  0  0  0  0  0  0  0
  150.8511  159.8062  130.4993 H   0  0  0  0  0  0  0  0  0  0  0  0
  149.4826  162.2791  131.2985 H   0  0  0  0  0  0  0  0  0  0  0  0
  150.1798  161.5170  129.8289 H   0  0  0  0  0  0  0  0  0  0  0  0
  148.4709  162.0706  129.8289 H   0  0  0  0  0  0  0  0  0  0  0  0
  148.7044  160.6133  132.9956 H   0  0  0  0  0  0  0  0  0  0  0  0
  147.2458  161.1002  131.9842 H   0  0  0  0  0  0  0  0  0  0  0  0
  147.1517  158.4949  131.5804 H   0  0  0  0  0  0  0  0  0  0  0  0
  149.0478  154.0570  133.8881 H   0  0  0  0  0  0  0  0  0  0  0  0
  148.1645  153.7187  132.3610 H   0  0  0  0  0  0  0  0  0  0  0  0
  149.5557  154.8550  132.3610 H   0  0  0  0  0  0  0  0  0  0  0  0
  148.1465  155.7342  135.3647 H   0  0  0  0  0  0  0  0  0  0  0  0
  146.5217  156.3392  134.8950 H   0  0  0  0  0  0  0  0  0  0  0  0
  146.8576  154.5746  134.8950 H   0  0  0  0  0  0  0  0  0  0  0  0
  145.6070  155.4927  132.8714 H   0  0  0  0  0  0  0  0  0  0  0  0
  146.4957  156.4619  131.6477 H   0  0  0  0  0  0  0  0  0  0  0  0
  146.6336  154.6709  131.6477 H   0  0  0  0  0  0  0  0  0  0  0  0
  146.2432  161.4679  133.2885 H   0  0  0  0  0  0  0  0  0  0  0  0
  144.0097  161.9107  134.3542 H   0  0  0  0  0  0  0  0  0  0  0  0
  141.6336  160.6223  135.2735 H   0  0  0  0  0  0  0  0  0  0  0  0
  139.8570  159.5530  136.7500 H   0  0  0  0  0  0  0  0  0  0  0  0
  145.3657  157.1952  133.2272 H   0  0  0  0  0  0  0  0  0  0  0  0
  1  2  1  0
  2  3  1  0
  2  4  1  0
  4  5  1  0
  5  6  1  0
  6  7  2  0
  6  8  1  0
  8  9  1  0
  9 10  1  0
  9 11  1  0
  9 12  1  0
  5 13  1  0
 13 14  2  0
 14 15  1  0
 15 16  2  0
 16 17  1  0
 17 18  2  0
 18 19  1  0
 19 20  1  0
 19 21  2  0
 18 22  1  0
 22 23  1  0
 23 24  2  0
 23 25  1  0
 22 26  1  0
 26 27  2  0
 27 13  1  0
 26 16  1  0
  1 28  1  0
  1 29  1  0
  1 30  1  0
  3 31  1  0
  3 32  1  0
  3 33  1  0
  4 34  1  0
  4 35  1  0
  5 36  1  6
 10 37  1  0
 10 38  1  0
 10 39  1  0
 11 40  1  0
 11 41  1  0
 11 42  1  0
 12 43  1  0
 12 44  1  0
 12 45  1  0
 14 46  1  0
 15 47  1  0
 17 48  1  0
 20 49  1  0
 27 50  1  0
M  CHG  2  20  -1  25  -1
M  END
>  <UniqueID>  (63) 
63

>  <SMILES>  (63) 
CN(C)C[C@@H](C(=O)OC(C)(C)C)c1ccc2cc(C([NH-])=O)n(C(=O)[O-])c2c1

>  <Energy>  (63) 
88.30614234892303

>  <Genealogy>  (63) 
CN(C)CC(C(=O)OC(C)(C)C)c1ccc2cc(C([NH-])=O)n(C(=O)[O-])c2c1 (protonated)
CN(C)C[C@@H](C(=O)OC(C)(C)C)c1ccc2cc(C([NH-])=O)n(C(=O)[O-])c2c1 (chirality)
CN(C)C[C@@H](C(=O)OC(C)(C)C)c1ccc2cc(C([NH-])=O)n(C(=O)[O-])c2c1 (3D coordinates assigned)
CN(C)C[C@@H](C(=O)OC(C)(C)C)c1ccc2cc(C([NH-])=O)n(C(=O)[O-])c2c1 (optimized conformer: 88.30614234892303 kcal/mol)

>  <smiles>  (63) 
CN(C)CC(C(=O)OC(C)(C)C)c1ccc2cc(C(N)=O)n(C(=O)O)c2c1

>  <score_type>  (63) 
oracle

>  <origin>  (63) 
adg

>  <m_score__min__energy>  (63) 
-7.6399999999999997

>  <m_primary>  (63) 
energy

$$$$
63:0
     RDKit          3D

 59 61  0  0  0  0  0  0  0  0999 V2000
  143.7490  152.0520  139.3850 C   0  0  0  0  0  0  0  0  0  0  0  0
  143.1020  153.4250  139.6660 C   0  0  0  0  0  0  0  0  0  0  0  0
  141.8030  153.2640  140.4780 C   0  0  0  0  0  0  0  0  0  0  0  0
  142.8910  154.2300  138.4300 N   0  0  0  0  0  0  0  0  0  0  0  0
  141.4710  154.3910  138.0420 C   0  0  0  0  0  0  0  0  0  0  0  0
  140.9300  155.7670  138.4830 C   0  0  0  0  0  0  0  0  0  0  0  0
  141.1690  156.8260  137.4420 C   0  0  0  0  0  0  0  0  0  0  0  0
  141.5890  158.1200  137.8110 C   0  0  0  0  0  0  0  0  0  0  0  0
  141.7120  159.1200  136.8500 C   0  0  0  0  0  0  0  0  0  0  0  0
  141.4630  158.8300  135.5010 C   0  0  0  0  0  0  0  0  0  0  0  0
  141.6510  159.7730  134.4820 O   0  0  0  0  0  0  0  0  0  0  0  0
  142.6530  159.7210  133.4530 C   0  0  0  0  0  0  0  0  0  0  0  0
  143.9470  160.4650  133.8380 C   0  0  0  0  0  0  0  0  0  0  0  0
  145.1470  160.0970  132.9410 C   0  0  0  0  0  0  0  0  0  0  0  0
  145.8930  158.8940  133.4680 C   0  0  0  0  0  0  0  0  0  0  0  0
  147.3080  158.8480  133.3880 C   0  0  0  0  0  0  0  0  0  0  0  0
  148.0160  157.7620  133.9180 C   0  0  0  0  0  0  0  0  0  0  0  0
  147.2870  156.7380  134.5210 C   0  0  0  0  0  0  0  0  0  0  0  0
  147.7300  155.6150  135.1650 C   0  0  0  0  0  0  0  0  0  0  0  0
  146.5790  154.9560  135.5900 C   0  0  0  0  0  0  0  0  0  0  0  0
  146.6340  153.7460  136.4320 C   0  0  0  0  0  0  0  0  0  0  0  0
  145.5020  153.3790  137.2160 N   0  0  0  0  0  0  0  0  0  0  0  0
  147.6560  152.9940  136.4300 O   0  0  0  0  0  0  0  0  0  0  0  0
  145.4580  155.6290  135.2030 N   0  0  0  0  0  0  0  0  0  0  0  0
  144.0850  155.2280  135.3690 C   0  0  0  0  0  0  0  0  0  0  0  0
  143.4630  155.4860  136.4300 O   0  0  0  0  0  0  0  0  0  0  0  0
  143.4400  154.4930  134.3910 O   0  0  0  0  0  0  0  0  0  0  0  0
  145.9150  156.7270  134.5520 C   0  0  0  0  0  0  0  0  0  0  0  0
  145.1860  157.8090  134.0300 C   0  0  0  0  0  0  0  0  0  0  0  0
  140.9900  157.5580  135.1460 C   0  0  0  0  0  0  0  0  0  0  0  0
  140.8590  156.5570  136.1010 C   0  0  0  0  0  0  0  0  0  0  0  0
  143.9832  151.5551  140.3380 H   0  0  0  0  0  0  0  0  0  0  0  0
  143.0500  151.4284  138.8084 H   0  0  0  0  0  0  0  0  0  0  0  0
  144.6749  152.1941  138.8084 H   0  0  0  0  0  0  0  0  0  0  0  0
  143.8156  153.9973  140.2770 H   0  0  0  0  0  0  0  0  0  0  0  0
  142.0363  153.2929  141.5526 H   0  0  0  0  0  0  0  0  0  0  0  0
  141.1120  154.0834  140.2306 H   0  0  0  0  0  0  0  0  0  0  0  0
  141.3330  152.3007  140.2306 H   0  0  0  0  0  0  0  0  0  0  0  0
  143.3130  155.1770  138.5860 H   0  0  0  0  0  0  0  0  0  0  0  0
  143.4230  153.7890  137.6400 H   0  0  0  0  0  0  0  0  0  0  0  0
  141.3847  154.3041  136.9489 H   0  0  0  0  0  0  0  0  0  0  0  0
  140.8809  153.6068  138.5387 H   0  0  0  0  0  0  0  0  0  0  0  0
  139.8479  155.6825  138.6618 H   0  0  0  0  0  0  0  0  0  0  0  0
  141.4624  156.0641  139.3986 H   0  0  0  0  0  0  0  0  0  0  0  0
  141.8207  158.3408  138.8634 H   0  0  0  0  0  0  0  0  0  0  0  0
  142.0045  160.1374  137.1491 H   0  0  0  0  0  0  0  0  0  0  0  0
  142.8994  158.6672  133.2559 H   0  0  0  0  0  0  0  0  0  0  0  0
  142.2387  160.2178  132.5633 H   0  0  0  0  0  0  0  0  0  0  0  0
  143.7666  161.5469  133.7548 H   0  0  0  0  0  0  0  0  0  0  0  0
  144.2027  160.1676  134.8657 H   0  0  0  0  0  0  0  0  0  0  0  0
  144.7794  159.8727  131.9288 H   0  0  0  0  0  0  0  0  0  0  0  0
  145.8401  160.9511  132.9296 H   0  0  0  0  0  0  0  0  0  0  0  0
  147.8541  159.6721  132.9057 H   0  0  0  0  0  0  0  0  0  0  0  0
  149.1136  157.7183  133.8602 H   0  0  0  0  0  0  0  0  0  0  0  0
  148.7731  155.2998  135.3151 H   0  0  0  0  0  0  0  0  0  0  0  0
  144.7950  154.1030  137.4800 H   0  0  0  0  0  0  0  0  0  0  0  0
  144.0864  157.8105  134.0587 H   0  0  0  0  0  0  0  0  0  0  0  0
  140.7198  157.3506  134.1001 H   0  0  0  0  0  0  0  0  0  0  0  0
  140.5128  155.5556  135.8057 H   0  0  0  0  0  0  0  0  0  0  0  0
  1  2  1  0
  2  3  1  0
  2  4  1  0
  4  5  1  0
  5  6  1  0
  6  7  1  0
  7  8  2  0
  8  9  1  0
  9 10  2  0
 10 11  1  0
 11 12  1  0
 12 13  1  0
 13 14  1  0
 14 15  1  0
 15 16  2  0
 16 17  1  0
 17 18  2  0
 18 19  1  0
 19 20  2  0
 20 21  1  0
 21 22  1  0
 21 23  2  0
 20 24  1  0
 24 25  1  0
 25 26  2  0
 25 27  1  0
 24 28  1  0
 28 29  2  0
 10 30  1  0
 30 31  2  0
 31  7  1  0
 29 15  1  0
 28 18  1  0
  1 32  1  0
  1 33  1  0
  1 34  1  0
  2 35  1  0
  3 36  1  0
  3 37  1  0
  3 38  1  0
  4 39  1  0
  4 40  1  0
  5 41  1  0
  5 42  1  0
  6 43  1  0
  6 44  1  0
  8 45  1  0
  9 46  1  0
 12 47  1  0
 12 48  1  0
 13 49  1  0
 13 50  1  0
 14 51  1  0
 14 52  1  0
 16 53  1  0
 17 54  1  0
 19 55  1  0
 22 56  1  0
 29 57  1  0
 30 58  1  0
 31 59  1  0
M  CHG  3   4   1  22  -1  27  -1
M  END
>  <UniqueID>  (64) 
64

>  <SMILES>  (64) 
CC(C)[NH2+]CCc1ccc(OCCCc2ccc3cc(C([NH-])=O)n(C(=O)[O-])c3c2)cc1

>  <Energy>  (64) 
106.11954507365466

>  <Genealogy>  (64) 
CC(C)[NH2+]CCc1ccc(OCCCc2ccc3cc(C([NH-])=O)n(C(=O)[O-])c3c2)cc1 (protonated)
CC(C)[NH2+]CCc1ccc(OCCCc2ccc3cc(C([NH-])=O)n(C(=O)[O-])c3c2)cc1 (3D coordinates assigned)
CC(C)[NH2+]CCc1ccc(OCCCc2ccc3cc(C([NH-])=O)n(C(=O)[O-])c3c2)cc1 (optimized conformer: 106.11954507365466 kcal/mol)

>  <smiles>  (64) 
CC(C)NCCc1ccc(OCCCc2ccc3cc(C(N)=O)n(C(=O)O)c3c2)cc1

>  <score_type>  (64) 
oracle

>  <origin>  (64) 
adg

>  <m_score__min__energy>  (64) 
-7.1600000000000001

>  <m_primary>  (64) 
energy

$$$$
64:0
     RDKit          3D

 24 25  0  0  0  0  0  0  0  0999 V2000
  142.7690  160.7180  133.3850 N   0  0  0  0  0  0  0  0  0  0  0  0
  144.1240  161.0030  133.7270 C   0  0  0  0  0  0  0  0  0  0  0  0
  144.4350  162.1700  134.0870 O   0  0  0  0  0  0  0  0  0  0  0  0
  145.1720  159.9690  133.6080 C   0  0  0  0  0  0  0  0  0  0  0  0
  146.5230  160.2660  133.4420 C   0  0  0  0  0  0  0  0  0  0  0  0
  147.1480  159.0500  133.2840 C   0  0  0  0  0  0  0  0  0  0  0  0
  148.4910  158.7550  133.0830 C   0  0  0  0  0  0  0  0  0  0  0  0
  148.8610  157.4040  132.9750 C   0  0  0  0  0  0  0  0  0  0  0  0
  147.8920  156.3750  133.0960 C   0  0  0  0  0  0  0  0  0  0  0  0
  148.2940  154.9300  132.9410 C   0  0  0  0  0  0  0  0  0  0  0  0
  147.3290  154.2270  132.2410 F   0  0  0  0  0  0  0  0  0  0  0  0
  149.4900  154.8620  132.2530 F   0  0  0  0  0  0  0  0  0  0  0  0
  148.4520  154.3310  134.1790 F   0  0  0  0  0  0  0  0  0  0  0  0
  146.5310  156.7170  133.2770 C   0  0  0  0  0  0  0  0  0  0  0  0
  146.1900  158.0730  133.3620 C   0  0  0  0  0  0  0  0  0  0  0  0
  144.9700  158.6200  133.5630 N   0  0  0  0  0  0  0  0  0  0  0  0
  143.7410  157.9060  133.7750 C   0  0  0  0  0  0  0  0  0  0  0  0
  143.5480  157.2760  134.8480 O   0  0  0  0  0  0  0  0  0  0  0  0
  142.7660  157.8820  132.7870 O   0  0  0  0  0  0  0  0  0  0  0  0
  142.5390  160.0480  132.6180 H   0  0  0  0  0  0  0  0  0  0  0  0
  146.9910  161.2615  133.4381 H   0  0  0  0  0  0  0  0  0  0  0  0
  149.2420  159.5555  133.0106 H   0  0  0  0  0  0  0  0  0  0  0  0
  149.9138  157.1412  132.7946 H   0  0  0  0  0  0  0  0  0  0  0  0
  145.7591  155.9366  133.3492 H   0  0  0  0  0  0  0  0  0  0  0  0
  1  2  1  0
  2  3  2  0
  2  4  1  0
  4  5  2  0
  5  6  1  0
  6  7  2  0
  7  8  1  0
  8  9  2  0
  9 10  1  0
 10 11  1  0
 10 12  1  0
 10 13  1  0
  9 14  1  0
 14 15  2  0
 15 16  1  0
 16 17  1  0
 17 18  2  0
 17 19  1  0
 16  4  1  0
 15  6  1  0
  1 20  1  0
  5 21  1  0
  7 22  1  0
  8 23  1  0
 14 24  1  0
M  CHG  2   1  -1  19  -1
M  END
>  <UniqueID>  (65) 
65

>  <SMILES>  (65) 
[NH-]C(=O)c1cc2ccc(C(F)(F)F)cc2n1C(=O)[O-]

>  <Energy>  (65) 
65.27127790004677

>  <Genealogy>  (65) 
[NH-]C(=O)c1cc2ccc(C(F)(F)F)cc2n1C(=O)[O-] (protonated)
[NH-]C(=O)c1cc2ccc(C(F)(F)F)cc2n1C(=O)[O-] (3D coordinates assigned)
[NH-]C(=O)c1cc2ccc(C(F)(F)F)cc2n1C(=O)[O-] (optimized conformer: 65.27127790004677 kcal/mol)

>  <smiles>  (65) 
NC(=O)c1cc2ccc(C(F)(F)F)cc2n1C(=O)O

>  <score_type>  (65) 
oracle

>  <origin>  (65) 
adg

>  <m_score__min__energy>  (65) 
-5.1399999999999997

>  <m_primary>  (65) 
energy

$$$$
65:0
     RDKit          3D

 48 50  0  0  0  0  0  0  0  0999 V2000
  140.2580  158.4410  135.9220 C   0  0  0  0  0  0  0  0  0  0  0  0
  140.9360  158.3740  134.6210 N   0  0  0  0  0  0  0  0  0  0  0  0
  141.3770  159.7120  134.2070 C   0  0  0  0  0  0  0  0  0  0  0  0
  139.8650  157.6960  133.4180 S   0  0  0  0  0  0  0  0  0  0  0  0
  138.4420  157.9520  133.8330 O   0  0  0  0  0  0  0  0  0  0  0  0
  140.1100  158.3750  132.0980 O   0  0  0  0  0  0  0  0  0  0  0  0
  140.1060  155.9330  133.2230 C   0  0  0  0  0  0  0  0  0  0  0  0
  141.1560  155.4390  134.1710 C   0  0  0  0  0  0  0  0  0  0  0  0
  140.9990  155.5990  135.4100 O   0  0  0  0  0  0  0  0  0  0  0  0
  142.3280  154.7680  133.6820 N   0  0  0  0  0  0  0  0  0  0  0  0
  143.5040  155.3320  133.2860 C   0  0  0  0  0  0  0  0  0  0  0  0
  143.8420  156.7680  133.3600 C   0  0  0  0  0  0  0  0  0  0  0  0
  143.0880  157.7150  132.6060 N   0  0  0  0  0  0  0  0  0  0  0  0
  144.8000  157.1710  134.0710 O   0  0  0  0  0  0  0  0  0  0  0  0
  144.3830  154.3520  132.8250 C   0  0  0  0  0  0  0  0  0  0  0  0
  143.6990  153.1620  132.9450 C   0  0  0  0  0  0  0  0  0  0  0  0
  144.0850  151.8690  132.6080 C   0  0  0  0  0  0  0  0  0  0  0  0
  143.1550  150.8330  132.7990 C   0  0  0  0  0  0  0  0  0  0  0  0
  141.8650  151.1070  133.3190 C   0  0  0  0  0  0  0  0  0  0  0  0
  140.8580  150.0000  133.4680 C   0  0  0  0  0  0  0  0  0  0  0  0
  140.4000  149.5280  132.1150 C   0  0  0  0  0  0  0  0  0  0  0  0
  140.5740  148.1870  131.7350 C   0  0  0  0  0  0  0  0  0  0  0  0
  140.1190  147.7440  130.4890 C   0  0  0  0  0  0  0  0  0  0  0  0
  139.4790  148.6320  129.6200 C   0  0  0  0  0  0  0  0  0  0  0  0
  139.2890  149.9640  129.9980 C   0  0  0  0  0  0  0  0  0  0  0  0
  139.7450  150.4120  131.2410 C   0  0  0  0  0  0  0  0  0  0  0  0
  141.5050  152.4340  133.6390 C   0  0  0  0  0  0  0  0  0  0  0  0
  142.4600  153.4420  133.4600 C   0  0  0  0  0  0  0  0  0  0  0  0
  141.0030  158.3674  136.7279 H   0  0  0  0  0  0  0  0  0  0  0  0
  139.7199  159.3967  136.0063 H   0  0  0  0  0  0  0  0  0  0  0  0
  139.5432  157.6091  136.0063 H   0  0  0  0  0  0  0  0  0  0  0  0
  141.5786  160.3238  135.0986 H   0  0  0  0  0  0  0  0  0  0  0  0
  142.2944  159.6261  133.6061 H   0  0  0  0  0  0  0  0  0  0  0  0
  140.5883  160.1884  133.6061 H   0  0  0  0  0  0  0  0  0  0  0  0
  139.1587  155.4131  133.4291 H   0  0  0  0  0  0  0  0  0  0  0  0
  140.4333  155.7304  132.1925 H   0  0  0  0  0  0  0  0  0  0  0  0
  142.1020  157.9400  132.8620 H   0  0  0  0  0  0  0  0  0  0  0  0
  145.4053  154.4982  132.4461 H   0  0  0  0  0  0  0  0  0  0  0  0
  145.0875  151.6637  132.2044 H   0  0  0  0  0  0  0  0  0  0  0  0
  143.4307  149.7994  132.5425 H   0  0  0  0  0  0  0  0  0  0  0  0
  141.3187  149.1602  134.0089 H   0  0  0  0  0  0  0  0  0  0  0  0
  139.9903  150.3775  134.0289 H   0  0  0  0  0  0  0  0  0  0  0  0
  141.0697  147.4830  132.4196 H   0  0  0  0  0  0  0  0  0  0  0  0
  140.2651  146.6949  130.1924 H   0  0  0  0  0  0  0  0  0  0  0  0
  139.1250  148.2826  128.6389 H   0  0  0  0  0  0  0  0  0  0  0  0
  138.7798  150.6610  129.3162 H   0  0  0  0  0  0  0  0  0  0  0  0
  139.5905  151.4604  131.5361 H   0  0  0  0  0  0  0  0  0  0  0  0
  140.5001  152.6699  134.0192 H   0  0  0  0  0  0  0  0  0  0  0  0
  1  2  1  0
  2  3  1  0
  2  4  1  0
  4  5  2  0
  4  6  2  0
  4  7  1  0
  7  8  1  0
  8  9  2  0
  8 10  1  0
 10 11  1  0
 11 12  1  0
 12 13  1  0
 12 14  2  0
 11 15  2  0
 15 16  1  0
 16 17  2  0
 17 18  1  0
 18 19  2  0
 19 20  1  0
 20 21  1  0
 21 22  2  0
 22 23  1  0
 23 24  2  0
 24 25  1  0
 25 26  2  0
 19 27  1  0
 27 28  2  0
 28 10  1  0
 28 16  1  0
 26 21  1  0
  1 29  1  0
  1 30  1  0
  1 31  1  0
  3 32  1  0
  3 33  1  0
  3 34  1  0
  7 35  1  0
  7 36  1  0
 13 37  1  0
 15 38  1  0
 17 39  1  0
 18 40  1  0
 20 41  1  0
 20 42  1  0
 22 43  1  0
 23 44  1  0
 24 45  1  0
 25 46  1  0
 26 47  1  0
 27 48  1  0
M  CHG  1  13  -1
M  END
>  <UniqueID>  (66) 
66

>  <SMILES>  (66) 
CN(C)S(=O)(=O)CC(=O)n1c(C([NH-])=O)cc2ccc(Cc3ccccc3)cc21

>  <Energy>  (66) 
80.35808342711901

>  <Genealogy>  (66) 
CN(C)S(=O)(=O)CC(=O)n1c(C([NH-])=O)cc2ccc(Cc3ccccc3)cc21 (protonated)
CN(C)S(=O)(=O)CC(=O)n1c(C([NH-])=O)cc2ccc(Cc3ccccc3)cc21 (3D coordinates assigned)
CN(C)S(=O)(=O)CC(=O)n1c(C([NH-])=O)cc2ccc(Cc3ccccc3)cc21 (optimized conformer: 80.35808342711901 kcal/mol)

>  <smiles>  (66) 
CN(C)S(=O)(=O)CC(=O)n1c(C(N)=O)cc2ccc(Cc3ccccc3)cc21

>  <score_type>  (66) 
oracle

>  <origin>  (66) 
adg

>  <m_score__min__energy>  (66) 
-8.8200000000000003

>  <m_primary>  (66) 
energy

$$$$
66:0
     RDKit          3D

 40 43  0  0  0  0  0  0  0  0999 V2000
  148.6650  153.9890  132.9860 C   0  0  0  0  0  0  0  0  0  0  0  0
  147.7230  154.6140  133.9660 C   0  0  0  0  0  0  0  0  0  0  0  0
  147.4170  154.1250  135.2200 C   0  0  0  0  0  0  0  0  0  0  0  0
  146.5150  155.0190  135.7600 C   0  0  0  0  0  0  0  0  0  0  0  0
  146.2790  155.9870  134.9040 O   0  0  0  0  0  0  0  0  0  0  0  0
  146.9860  155.7790  133.8160 C   0  0  0  0  0  0  0  0  0  0  0  0
  146.9590  156.6780  132.6490 C   0  0  0  0  0  0  0  0  0  0  0  0
  146.9830  156.2070  131.4800 O   0  0  0  0  0  0  0  0  0  0  0  0
  146.8500  158.0980  132.8330 N   0  0  0  0  0  0  0  0  0  0  0  0
  147.8290  159.0390  132.7170 C   0  0  0  0  0  0  0  0  0  0  0  0
  149.2040  158.8030  132.2290 C   0  0  0  0  0  0  0  0  0  0  0  0
  149.7110  157.4800  132.0740 N   0  0  0  0  0  0  0  0  0  0  0  0
  149.9290  159.7830  131.9100 O   0  0  0  0  0  0  0  0  0  0  0  0
  147.3350  160.2980  133.0560 C   0  0  0  0  0  0  0  0  0  0  0  0
  146.0110  160.0960  133.3750 C   0  0  0  0  0  0  0  0  0  0  0  0
  145.0400  161.0030  133.7890 C   0  0  0  0  0  0  0  0  0  0  0  0
  143.7540  160.5090  134.0690 C   0  0  0  0  0  0  0  0  0  0  0  0
  143.4610  159.1250  133.9370 C   0  0  0  0  0  0  0  0  0  0  0  0
  142.1020  158.6120  134.2430 C   0  0  0  0  0  0  0  0  0  0  0  0
  141.2960  158.0570  133.2340 C   0  0  0  0  0  0  0  0  0  0  0  0
  140.0190  157.5790  133.5370 C   0  0  0  0  0  0  0  0  0  0  0  0
  139.5540  157.6570  134.8500 C   0  0  0  0  0  0  0  0  0  0  0  0
  140.3400  158.1930  135.8200 N   0  0  0  0  0  0  0  0  0  0  0  0
  141.5860  158.6680  135.5510 C   0  0  0  0  0  0  0  0  0  0  0  0
  144.4790  158.2380  133.5120 C   0  0  0  0  0  0  0  0  0  0  0  0
  145.7440  158.7610  133.2290 C   0  0  0  0  0  0  0  0  0  0  0  0
  149.4619  153.4602  133.5294 H   0  0  0  0  0  0  0  0  0  0  0  0
  148.1163  153.2752  132.3540 H   0  0  0  0  0  0  0  0  0  0  0  0
  149.1094  154.7720  132.3540 H   0  0  0  0  0  0  0  0  0  0  0  0
  147.8105  153.2122  135.6911 H   0  0  0  0  0  0  0  0  0  0  0  0
  146.0613  154.9337  136.7584 H   0  0  0  0  0  0  0  0  0  0  0  0
  149.0940  156.7030  131.7510 H   0  0  0  0  0  0  0  0  0  0  0  0
  147.8859  161.2501  133.0664 H   0  0  0  0  0  0  0  0  0  0  0  0
  145.2716  162.0732  133.8939 H   0  0  0  0  0  0  0  0  0  0  0  0
  142.9647  161.2026  134.3944 H   0  0  0  0  0  0  0  0  0  0  0  0
  141.6723  157.9989  132.2020 H   0  0  0  0  0  0  0  0  0  0  0  0
  139.3864  157.1455  132.7484 H   0  0  0  0  0  0  0  0  0  0  0  0
  138.5498  157.2841  135.1002 H   0  0  0  0  0  0  0  0  0  0  0  0
  142.1937  159.0984  136.3606 H   0  0  0  0  0  0  0  0  0  0  0  0
  144.2791  157.1614  133.4068 H   0  0  0  0  0  0  0  0  0  0  0  0
  1  2  1  0
  2  3  1  0
  3  4  2  0
  4  5  1  0
  5  6  1  0
  6  7  1  0
  7  8  2  0
  7  9  1  0
  9 10  1  0
 10 11  1  0
 11 12  1  0
 11 13  2  0
 10 14  2  0
 14 15  1  0
 15 16  2  0
 16 17  1  0
 17 18  2  0
 18 19  1  0
 19 20  2  0
 20 21  1  0
 21 22  2  0
 22 23  1  0
 23 24  2  0
 18 25  1  0
 25 26  2  0
  6  2  2  0
 26  9  1  0
 26 15  1  0
 24 19  1  0
  1 27  1  0
  1 28  1  0
  1 29  1  0
  3 30  1  0
  4 31  1  0
 12 32  1  0
 14 33  1  0
 16 34  1  0
 17 35  1  0
 20 36  1  0
 21 37  1  0
 22 38  1  0
 24 39  1  0
 25 40  1  0
M  CHG  1  12  -1
M  END
>  <UniqueID>  (67) 
67

>  <SMILES>  (67) 
Cc1ccoc1C(=O)n1c(C([NH-])=O)cc2ccc(-c3cccnc3)cc21

>  <Energy>  (67) 
116.01330975699007

>  <Genealogy>  (67) 
Cc1ccoc1C(=O)n1c(C([NH-])=O)cc2ccc(-c3cccnc3)cc21 (protonated)
Cc1ccoc1C(=O)n1c(C([NH-])=O)cc2ccc(-c3cccnc3)cc21 (3D coordinates assigned)
Cc1ccoc1C(=O)n1c(C([NH-])=O)cc2ccc(-c3cccnc3)cc21 (optimized conformer: 116.01330975699007 kcal/mol)

>  <smiles>  (67) 
Cc1ccoc1C(=O)n1c(C(N)=O)cc2ccc(-c3cccnc3)cc21

>  <score_type>  (67) 
oracle

>  <origin>  (67) 
adg

>  <m_score__min__energy>  (67) 
-7.9500000000000002

>  <m_primary>  (67) 
energy

$$$$
67:0
     RDKit          3D

 49 50  0  0  0  0  0  0  0  0999 V2000
  149.2340  161.9180  130.3630 C   0  0  0  0  0  0  0  0  0  0  0  0
  149.9710  160.8990  131.0270 O   0  0  0  0  0  0  0  0  0  0  0  0
  149.4600  159.6140  131.2360 C   0  0  0  0  0  0  0  0  0  0  0  0
  148.9410  158.9650  130.2880 O   0  0  0  0  0  0  0  0  0  0  0  0
  149.4900  159.0280  132.6110 C   0  0  0  0  0  0  0  0  0  0  0  0
  148.1410  158.4620  132.9550 C   0  0  0  0  0  0  0  0  0  0  0  0
  146.9650  159.2030  132.6780 C   0  0  0  0  0  0  0  0  0  0  0  0
  145.7030  158.7050  133.0410 C   0  0  0  0  0  0  0  0  0  0  0  0
  145.6480  157.4710  133.6830 C   0  0  0  0  0  0  0  0  0  0  0  0
  144.5680  156.7770  134.1770 C   0  0  0  0  0  0  0  0  0  0  0  0
  145.0990  155.6200  134.7440 C   0  0  0  0  0  0  0  0  0  0  0  0
  144.2730  154.5440  135.3290 C   0  0  0  0  0  0  0  0  0  0  0  0
  144.5920  154.0270  136.6190 N   0  0  0  0  0  0  0  0  0  0  0  0
  143.2660  154.1000  134.7180 O   0  0  0  0  0  0  0  0  0  0  0  0
  146.4550  155.6020  134.6080 N   0  0  0  0  0  0  0  0  0  0  0  0
  147.3770  154.6340  135.1330 C   0  0  0  0  0  0  0  0  0  0  0  0
  147.3420  154.3320  136.3570 O   0  0  0  0  0  0  0  0  0  0  0  0
  148.2940  154.0140  134.2770 O   0  0  0  0  0  0  0  0  0  0  0  0
  148.1330  153.9540  132.8610 C   0  0  0  0  0  0  0  0  0  0  0  0
  149.3360  153.2640  132.2180 C   0  0  0  0  0  0  0  0  0  0  0  0
  149.2600  151.4010  132.4210 Si  0  0  0  0  0  4  0  0  0  0  0  0
  147.4940  150.8440  132.1880 C   0  0  0  0  0  0  0  0  0  0  0  0
  149.8300  150.9120  134.1320 C   0  0  0  0  0  0  0  0  0  0  0  0
  150.3360  150.5650  131.1430 C   0  0  0  0  0  0  0  0  0  0  0  0
  146.7750  156.7400  133.9550 C   0  0  0  0  0  0  0  0  0  0  0  0
  148.0470  157.2170  133.6170 C   0  0  0  0  0  0  0  0  0  0  0  0
  148.7602  162.5731  131.1089 H   0  0  0  0  0  0  0  0  0  0  0  0
  149.9136  162.5109  129.7333 H   0  0  0  0  0  0  0  0  0  0  0  0
  148.4581  161.4582  129.7333 H   0  0  0  0  0  0  0  0  0  0  0  0
  150.2425  158.2266  132.6496 H   0  0  0  0  0  0  0  0  0  0  0  0
  149.7479  159.8152  133.3347 H   0  0  0  0  0  0  0  0  0  0  0  0
  147.0415  160.1776  132.1738 H   0  0  0  0  0  0  0  0  0  0  0  0
  144.7860  159.2727  132.8246 H   0  0  0  0  0  0  0  0  0  0  0  0
  143.5094  157.0726  134.1337 H   0  0  0  0  0  0  0  0  0  0  0  0
  145.3360  154.4670  137.2040 H   0  0  0  0  0  0  0  0  0  0  0  0
  147.2204  153.3877  132.6234 H   0  0  0  0  0  0  0  0  0  0  0  0
  148.0552  154.9778  132.4664 H   0  0  0  0  0  0  0  0  0  0  0  0
  149.3532  153.5050  131.1449 H   0  0  0  0  0  0  0  0  0  0  0  0
  150.2461  153.6260  132.7188 H   0  0  0  0  0  0  0  0  0  0  0  0
  147.0236  150.6956  133.1712 H   0  0  0  0  0  0  0  0  0  0  0  0
  146.9386  151.6106  131.6277 H   0  0  0  0  0  0  0  0  0  0  0  0
  147.4790  149.8975  131.6277 H   0  0  0  0  0  0  0  0  0  0  0  0
  149.2211  151.4344  134.8846 H   0  0  0  0  0  0  0  0  0  0  0  0
  149.7174  149.8252  134.2593 H   0  0  0  0  0  0  0  0  0  0  0  0
  150.8870  151.1886  134.2593 H   0  0  0  0  0  0  0  0  0  0  0  0
  151.1074  149.9656  131.6486 H   0  0  0  0  0  0  0  0  0  0  0  0
  149.7160  149.9093  130.5139 H   0  0  0  0  0  0  0  0  0  0  0  0
  150.8181  151.3278  130.5139 H   0  0  0  0  0  0  0  0  0  0  0  0
  148.9499  156.6377  133.8604 H   0  0  0  0  0  0  0  0  0  0  0  0
  1  2  1  0
  2  3  1  0
  3  4  2  0
  3  5  1  0
  5  6  1  0
  6  7  2  0
  7  8  1  0
  8  9  2  0
  9 10  1  0
 10 11  2  0
 11 12  1  0
 12 13  1  0
 12 14  2  0
 11 15  1  0
 15 16  1  0
 16 17  2  0
 16 18  1  0
 18 19  1  0
 19 20  1  0
 20 21  1  0
 21 22  1  0
 21 23  1  0
 21 24  1  0
 15 25  1  0
 25 26  2  0
 26  6  1  0
 25  9  1  0
  1 27  1  0
  1 28  1  0
  1 29  1  0
  5 30  1  0
  5 31  1  0
  7 32  1  0
  8 33  1  0
 10 34  1  0
 13 35  1  0
 19 36  1  0
 19 37  1  0
 20 38  1  0
 20 39  1  0
 22 40  1  0
 22 41  1  0
 22 42  1  0
 23 43  1  0
 23 44  1  0
 23 45  1  0
 24 46  1  0
 24 47  1  0
 24 48  1  0
 26 49  1  0
M  CHG  1  13  -1
M  END
>  <UniqueID>  (68) 
68

>  <SMILES>  (68) 
COC(=O)Cc1ccc2cc(C([NH-])=O)n(C(=O)OCC[Si](C)(C)C)c2c1

>  <Energy>  (68) 
63.80887137066344

>  <Genealogy>  (68) 
COC(=O)Cc1ccc2cc(C([NH-])=O)n(C(=O)OCC[Si](C)(C)C)c2c1 (protonated)
COC(=O)Cc1ccc2cc(C([NH-])=O)n(C(=O)OCC[Si](C)(C)C)c2c1 (3D coordinates assigned)
COC(=O)Cc1ccc2cc(C([NH-])=O)n(C(=O)OCC[Si](C)(C)C)c2c1 (optimized conformer: 63.80887137066344 kcal/mol)

>  <smiles>  (68) 
COC(=O)Cc1ccc2cc(C(N)=O)n(C(=O)OCC[Si](C)(C)C)c2c1

>  <score_type>  (68) 
oracle

>  <origin>  (68) 
adg

>  <m_score__min__energy>  (68) 
-7.5300000000000002

>  <m_primary>  (68) 
energy

$$$$
68:0
     RDKit          3D

 43 45  0  0  0  0  0  0  0  0999 V2000
  149.5930  162.1860  129.9780 C   0  0  0  0  0  0  0  0  0  0  0  0
  148.7720  161.5570  131.1000 C   0  0  0  0  0  0  0  0  0  0  0  0
  148.1620  160.2210  130.6560 C   0  0  0  0  0  0  0  0  0  0  0  0
  149.1100  159.0500  130.9360 C   0  0  1  0  0  0  0  0  0  0  0  0
  150.4080  159.4220  130.6290 F   0  0  0  0  0  0  0  0  0  0  0  0
  149.0580  158.6890  132.3150 O   0  0  0  0  0  0  0  0  0  0  0  0
  147.9110  158.8260  133.1060 C   0  0  0  0  0  0  0  0  0  0  0  0
  147.7030  159.8930  133.7470 O   0  0  0  0  0  0  0  0  0  0  0  0
  146.9520  157.7580  133.1630 N   0  0  0  0  0  0  0  0  0  0  0  0
  145.6170  157.8510  133.4240 C   0  0  0  0  0  0  0  0  0  0  0  0
  144.8430  159.1020  133.5500 C   0  0  0  0  0  0  0  0  0  0  0  0
  145.1070  160.1920  132.6690 N   0  0  0  0  0  0  0  0  0  0  0  0
  143.9770  159.2370  134.4540 O   0  0  0  0  0  0  0  0  0  0  0  0
  145.0410  156.5830  133.4770 C   0  0  0  0  0  0  0  0  0  0  0  0
  146.0700  155.7030  133.2320 C   0  0  0  0  0  0  0  0  0  0  0  0
  146.0660  154.3120  133.1860 C   0  0  0  0  0  0  0  0  0  0  0  0
  147.2860  153.6580  132.9470 C   0  0  0  0  0  0  0  0  0  0  0  0
  148.4770  154.4010  132.7540 C   0  0  0  0  0  0  0  0  0  0  0  0
  149.7860  153.6890  132.5560 C   0  0  0  0  0  0  0  0  0  0  0  0
  149.5990  152.2530  132.7270 N   0  0  0  0  0  0  0  0  0  0  0  0
  149.4130  151.3440  131.7570 C   0  0  0  0  0  0  0  0  0  0  0  0
  149.1980  150.1200  132.2750 N   0  0  0  0  0  0  0  0  0  0  0  0
  149.2590  150.3520  133.6050 C   0  0  0  0  0  0  0  0  0  0  0  0
  149.4930  151.6460  133.8940 N   0  0  0  0  0  0  0  0  0  0  0  0
  148.4450  155.8110  132.8210 C   0  0  0  0  0  0  0  0  0  0  0  0
  147.2130  156.4370  133.0450 C   0  0  0  0  0  0  0  0  0  0  0  0
  150.3956  162.8009  130.4113 H   0  0  0  0  0  0  0  0  0  0  0  0
  150.0338  161.3923  129.3569 H   0  0  0  0  0  0  0  0  0  0  0  0
  148.9414  162.8182  129.3569 H   0  0  0  0  0  0  0  0  0  0  0  0
  149.4244  161.3831  131.9685 H   0  0  0  0  0  0  0  0  0  0  0  0
  147.9543  162.2445  131.3622 H   0  0  0  0  0  0  0  0  0  0  0  0
  147.2216  160.0582  131.2029 H   0  0  0  0  0  0  0  0  0  0  0  0
  147.9816  160.2673  129.5719 H   0  0  0  0  0  0  0  0  0  0  0  0
  148.8001  158.1940  130.3186 H   0  0  0  0  0  0  0  0  0  0  0  0
  146.0850  160.5080  132.4830 H   0  0  0  0  0  0  0  0  0  0  0  0
  143.9868  156.3376  133.6732 H   0  0  0  0  0  0  0  0  0  0  0  0
  145.1364  153.7424  133.3323 H   0  0  0  0  0  0  0  0  0  0  0  0
  147.3170  152.5591  132.9093 H   0  0  0  0  0  0  0  0  0  0  0  0
  150.1611  153.8900  131.5416 H   0  0  0  0  0  0  0  0  0  0  0  0
  150.5120  154.0513  133.2987 H   0  0  0  0  0  0  0  0  0  0  0  0
  149.4335  151.5694  130.6805 H   0  0  0  0  0  0  0  0  0  0  0  0
  149.1315  149.5696  134.3676 H   0  0  0  0  0  0  0  0  0  0  0  0
  149.3646  156.4025  132.7003 H   0  0  0  0  0  0  0  0  0  0  0  0
  1  2  1  0
  2  3  1  0
  3  4  1  0
  4  5  1  0
  4  6  1  0
  6  7  1  0
  7  8  2  0
  7  9  1  0
  9 10  1  0
 10 11  1  0
 11 12  1  0
 11 13  2  0
 10 14  2  0
 14 15  1  0
 15 16  2  0
 16 17  1  0
 17 18  2  0
 18 19  1  0
 19 20  1  0
 20 21  1  0
 21 22  2  0
 22 23  1  0
 23 24  2  0
 18 25  1  0
 25 26  2  0
 26  9  1  0
 26 15  1  0
 24 20  1  0
  1 27  1  0
  1 28  1  0
  1 29  1  0
  2 30  1  0
  2 31  1  0
  3 32  1  0
  3 33  1  0
  4 34  1  6
 12 35  1  0
 14 36  1  0
 16 37  1  0
 17 38  1  0
 19 39  1  0
 19 40  1  0
 21 41  1  0
 23 42  1  0
 25 43  1  0
M  CHG  1  12  -1
M  END
>  <UniqueID>  (69) 
69

>  <SMILES>  (69) 
CCC[C@@H](F)OC(=O)n1c(C([NH-])=O)cc2ccc(Cn3cncn3)cc21

>  <Energy>  (69) 
106.57646355959035

>  <Genealogy>  (69) 
CCCC(F)OC(=O)n1c(C([NH-])=O)cc2ccc(Cn3cncn3)cc21 (protonated)
CCC[C@@H](F)OC(=O)n1c(C([NH-])=O)cc2ccc(Cn3cncn3)cc21 (chirality)
CCC[C@@H](F)OC(=O)n1c(C([NH-])=O)cc2ccc(Cn3cncn3)cc21 (3D coordinates assigned)
CCC[C@@H](F)OC(=O)n1c(C([NH-])=O)cc2ccc(Cn3cncn3)cc21 (optimized conformer: 106.57646355959035 kcal/mol)

>  <smiles>  (69) 
CCCC(F)OC(=O)n1c(C(N)=O)cc2ccc(Cn3cncn3)cc21

>  <score_type>  (69) 
oracle

>  <origin>  (69) 
adg

>  <m_score__min__energy>  (69) 
-7.1699999999999999

>  <m_primary>  (69) 
energy

$$$$
69:0
     RDKit          3D

 25 26  0  0  0  0  0  0  0  0999 V2000
  142.7450  160.5780  133.3760 N   0  0  0  0  0  0  0  0  0  0  0  0
  144.0940  160.9200  133.6830 C   0  0  0  0  0  0  0  0  0  0  0  0
  144.3610  162.0840  134.0780 O   0  0  0  0  0  0  0  0  0  0  0  0
  145.1540  159.8960  133.5760 C   0  0  0  0  0  0  0  0  0  0  0  0
  146.5020  160.2020  133.3970 C   0  0  0  0  0  0  0  0  0  0  0  0
  147.1350  158.9890  133.2500 C   0  0  0  0  0  0  0  0  0  0  0  0
  148.4800  158.7020  133.0400 C   0  0  0  0  0  0  0  0  0  0  0  0
  148.8580  157.3520  132.9410 C   0  0  0  0  0  0  0  0  0  0  0  0
  147.8970  156.3180  133.0770 C   0  0  0  0  0  0  0  0  0  0  0  0
  148.3090  154.8750  132.9300 C   0  0  0  0  0  0  0  0  0  0  0  0
  149.5000  154.8120  132.2340 F   0  0  0  0  0  0  0  0  0  0  0  0
  147.3450  154.1590  132.2400 F   0  0  0  0  0  0  0  0  0  0  0  0
  148.4790  154.2860  134.1710 F   0  0  0  0  0  0  0  0  0  0  0  0
  146.5350  156.6520  133.2670 C   0  0  0  0  0  0  0  0  0  0  0  0
  146.1860  158.0060  133.3450 C   0  0  0  0  0  0  0  0  0  0  0  0
  144.9630  158.5460  133.5490 N   0  0  0  0  0  0  0  0  0  0  0  0
  143.7400  157.8240  133.7630 C   0  0  0  0  0  0  0  0  0  0  0  0
  142.7120  157.8420  132.7760 N   0  0  0  0  0  0  0  0  0  0  0  0
  143.5570  157.1950  134.8390 O   0  0  0  0  0  0  0  0  0  0  0  0
  142.5140  160.0040  132.5350 H   0  0  0  0  0  0  0  0  0  0  0  0
  146.9621  161.2010  133.3774 H   0  0  0  0  0  0  0  0  0  0  0  0
  149.2247  159.5070  132.9541 H   0  0  0  0  0  0  0  0  0  0  0  0
  149.9113  157.0945  132.7559 H   0  0  0  0  0  0  0  0  0  0  0  0
  145.7690  155.8671  133.3514 H   0  0  0  0  0  0  0  0  0  0  0  0
  142.4820  158.7170  132.2560 H   0  0  0  0  0  0  0  0  0  0  0  0
  1  2  1  0
  2  3  2  0
  2  4  1  0
  4  5  2  0
  5  6  1  0
  6  7  2  0
  7  8  1  0
  8  9  2  0
  9 10  1  0
 10 11  1  0
 10 12  1  0
 10 13  1  0
  9 14  1  0
 14 15  2  0
 15 16  1  0
 16 17  1  0
 17 18  1  0
 17 19  2  0
 16  4  1  0
 15  6  1  0
  1 20  1  0
  5 21  1  0
  7 22  1  0
  8 23  1  0
 14 24  1  0
 18 25  1  0
M  CHG  2   1  -1  18  -1
M  END
>  <UniqueID>  (70) 
70

>  <SMILES>  (70) 
[NH-]C(=O)c1cc2ccc(C(F)(F)F)cc2n1C([NH-])=O

>  <Energy>  (70) 
65.22480202174859

>  <Genealogy>  (70) 
[NH-]C(=O)c1cc2ccc(C(F)(F)F)cc2n1C([NH-])=O (protonated)
[NH-]C(=O)c1cc2ccc(C(F)(F)F)cc2n1C([NH-])=O (3D coordinates assigned)
[NH-]C(=O)c1cc2ccc(C(F)(F)F)cc2n1C([NH-])=O (optimized conformer: 65.22480202174859 kcal/mol)

>  <smiles>  (70) 
NC(=O)c1cc2ccc(C(F)(F)F)cc2n1C(N)=O

>  <score_type>  (70) 
oracle

>  <origin>  (70) 
adg

>  <m_score__min__energy>  (70) 
-5.46

>  <m_primary>  (70) 
energy

$$$$
70:0
     RDKit          3D

 44 46  0  0  0  0  0  0  0  0999 V2000
  136.3776  158.7353  130.8574 H   0  0  0  0  0  0  0  0  0  0  0  0
  137.3590  159.1190  131.1730 C   0  0  0  0  0  0  0  0  0  0  0  0
  137.6560  160.4360  131.2670 N   0  0  0  0  0  0  0  0  0  0  0  0
  138.9360  160.4150  131.6840 C   0  0  0  0  0  0  0  0  0  0  0  0
  139.5418  161.3125  131.8775 H   0  0  0  0  0  0  0  0  0  0  0  0
  139.3770  159.1540  131.8330 N   0  0  0  0  0  0  0  0  0  0  0  0
  140.7210  158.7370  132.2250 C   0  0  0  0  0  0  0  0  0  0  0  0
  141.4541  159.1747  131.5315 H   0  0  0  0  0  0  0  0  0  0  0  0
  140.7808  157.6392  132.1906 H   0  0  0  0  0  0  0  0  0  0  0  0
  141.0240  159.2060  133.6370 C   0  0  0  0  0  0  0  0  0  0  0  0
  141.9760  160.3460  133.7860 C   0  0  0  0  0  0  0  0  0  0  0  0
  141.5800  161.5270  133.6000 O   0  0  0  0  0  0  0  0  0  0  0  0
  143.3070  160.1450  134.1370 O   0  0  0  0  0  0  0  0  0  0  0  0
  140.4950  158.5850  134.7250 C   0  0  0  0  0  0  0  0  0  0  0  0
  140.8340  159.0030  136.0090 O   0  0  0  0  0  0  0  0  0  0  0  0
  139.5050  157.4500  134.6320 C   0  0  0  0  0  0  0  0  0  0  0  0
  138.9353  157.5441  133.6958 H   0  0  0  0  0  0  0  0  0  0  0  0
  138.8288  157.4999  135.4982 H   0  0  0  0  0  0  0  0  0  0  0  0
  140.1760  156.1900  134.6470 O   0  0  0  0  0  0  0  0  0  0  0  0
  140.3510  155.3990  133.5020 C   0  0  0  0  0  0  0  0  0  0  0  0
  139.4520  155.3550  132.6190 O   0  0  0  0  0  0  0  0  0  0  0  0
  141.5460  154.6110  133.3560 N   0  0  0  0  0  0  0  0  0  0  0  0
  142.8280  155.0120  133.5780 C   0  0  0  0  0  0  0  0  0  0  0  0
  143.2730  156.4030  133.7830 C   0  0  0  0  0  0  0  0  0  0  0  0
  144.0420  156.9370  132.9390 O   0  0  0  0  0  0  0  0  0  0  0  0
  142.7820  157.1790  134.8750 N   0  0  0  0  0  0  0  0  0  0  0  0
  143.0930  158.1690  134.9910 H   0  0  0  0  0  0  0  0  0  0  0  0
  142.0560  156.7990  135.5230 H   0  0  0  0  0  0  0  0  0  0  0  0
  143.7050  153.9350  133.4990 C   0  0  0  0  0  0  0  0  0  0  0  0
  144.7953  153.9508  133.6440 H   0  0  0  0  0  0  0  0  0  0  0  0
  142.9190  152.8460  133.2010 C   0  0  0  0  0  0  0  0  0  0  0  0
  143.2730  151.5130  133.0080 C   0  0  0  0  0  0  0  0  0  0  0  0
  144.3223  151.1897  133.0751 H   0  0  0  0  0  0  0  0  0  0  0  0
  142.2490  150.5940  132.7250 C   0  0  0  0  0  0  0  0  0  0  0  0
  142.4982  149.5370  132.5500 H   0  0  0  0  0  0  0  0  0  0  0  0
  140.8990  151.0160  132.6630 C   0  0  0  0  0  0  0  0  0  0  0  0
  139.8190  150.0330  132.3200 C   0  0  0  0  0  0  0  0  0  0  0  0
  139.3797  149.6331  133.2458 H   0  0  0  0  0  0  0  0  0  0  0  0
  139.0381  150.5367  131.7314 H   0  0  0  0  0  0  0  0  0  0  0  0
  140.2473  149.2083  131.7314 H   0  0  0  0  0  0  0  0  0  0  0  0
  140.5760  152.3780  132.8590 C   0  0  0  0  0  0  0  0  0  0  0  0
  139.5326  152.7225  132.8087 H   0  0  0  0  0  0  0  0  0  0  0  0
  141.6180  153.2790  133.1190 C   0  0  0  0  0  0  0  0  0  0  0  0
  138.3990  158.3290  131.5090 N   0  0  0  0  0  0  0  0  0  0  0  0
  1  2  1  0
  2  3  1  0
  3  4  2  0
  4  5  1  0
  4  6  1  0
  6  7  1  0
  7  8  1  0
  7  9  1  0
  7 10  1  0
 10 11  1  0
 11 12  2  0
 11 13  1  0
 10 14  2  0
 14 15  1  0
 14 16  1  0
 16 17  1  0
 16 18  1  0
 16 19  1  0
 19 20  1  0
 20 21  2  0
 20 22  1  0
 22 23  1  0
 23 24  1  0
 24 25  2  0
 24 26  1  0
 26 27  1  0
 26 28  1  0
 23 29  2  0
 29 30  1  0
 29 31  1  0
 31 32  2  0
 32 33  1  0
 32 34  1  0
 34 35  1  0
 34 36  2  0
 36 37  1  0
 37 38  1  0
 37 39  1  0
 37 40  1  0
 36 41  1  0
 41 42  1  0
 41 43  2  0
  6 44  1  0
 44  2  2  0
 43 22  1  0
 43 31  1  0
M  CHG  2  13  -1  15  -1
M  END
>  <UniqueID>  (71) 
71

>  <SMILES>  (71) 
Cc1ccc2cc(C(N)=O)n(C(=O)OC/C([O-])=C(\Cn3cncn3)C(=O)[O-])c2c1

>  <Energy>  (71) 
118.04457567417165

>  <Genealogy>  (71) 
Cc1ccc2cc(C(N)=O)n(C(=O)OC/C([O-])=C(\Cn3cncn3)C(=O)[O-])c2c1 (protonated)
Cc1ccc2cc(C(N)=O)n(C(=O)OC/C([O-])=C(\Cn3cncn3)C(=O)[O-])c2c1 (cis-trans isomerization)
Cc1ccc2cc(C(N)=O)n(C(=O)OC/C([O-])=C(\Cn3cncn3)C(=O)[O-])c2c1 (3D coordinates assigned)
Cc1ccc2cc(C(N)=O)n(C(=O)OC/C([O-])=C(\Cn3cncn3)C(=O)[O-])c2c1 (optimized conformer: 118.04457567417165 kcal/mol)

>  <smiles>  (71) 
Cc1ccc2cc(C(N)=O)n(C(=O)OC/C(O)=C(\Cn3cncn3)C(=O)O)c2c1

>  <score_type>  (71) 
oracle

>  <origin>  (71) 
adg

>  <m_score__min__energy>  (71) 
-7.9800000000000004

>  <m_primary>  (71) 
energy

$$$$
71:0
     RDKit          3D

 56 59  0  0  0  0  0  0  0  0999 V2000
  139.0700  149.9280  131.4730 C   0  0  0  0  0  0  0  0  0  0  0  0
  139.6440  149.0410  130.3800 C   0  0  0  0  0  0  0  0  0  0  0  0
  141.0200  148.7860  130.6460 O   0  0  0  0  0  0  0  0  0  0  0  0
  141.5490  148.7930  131.9420 C   0  0  0  0  0  0  0  0  0  0  0  0
  141.0180  148.1090  132.8590 O   0  0  0  0  0  0  0  0  0  0  0  0
  142.7610  149.6180  132.2380 C   0  0  0  0  0  0  0  0  0  0  0  0
  142.4040  151.0310  132.3220 N   0  0  0  0  0  0  0  0  0  0  0  0
  141.7180  151.5830  133.4590 C   0  0  0  0  0  0  0  0  0  0  0  0
  141.4090  150.8350  134.4270 O   0  0  0  0  0  0  0  0  0  0  0  0
  141.3640  153.0190  133.4990 C   0  0  0  0  0  0  0  0  0  0  0  0
  140.1410  153.4790  132.9870 C   0  0  0  0  0  0  0  0  0  0  0  0
  139.8390  154.8410  133.0400 C   0  0  0  0  0  0  0  0  0  0  0  0
  140.7500  155.7470  133.6040 C   0  0  0  0  0  0  0  0  0  0  0  0
  140.4360  157.1960  133.6660 C   0  0  0  0  0  0  0  0  0  0  0  0
  139.8080  157.7460  132.7210 O   0  0  0  0  0  0  0  0  0  0  0  0
  140.8650  158.0000  134.7770 N   0  0  0  0  0  0  0  0  0  0  0  0
  141.1870  159.3240  134.7830 C   0  0  0  0  0  0  0  0  0  0  0  0
  141.2400  160.2090  133.6010 C   0  0  0  0  0  0  0  0  0  0  0  0
  140.1080  160.3690  132.7500 N   0  0  0  0  0  0  0  0  0  0  0  0
  142.3090  160.8160  133.3230 O   0  0  0  0  0  0  0  0  0  0  0  0
  141.5180  159.7360  136.0740 C   0  0  0  0  0  0  0  0  0  0  0  0
  141.3990  158.6100  136.8570 C   0  0  0  0  0  0  0  0  0  0  0  0
  141.6060  158.4400  138.2220 C   0  0  0  0  0  0  0  0  0  0  0  0
  141.4000  157.1600  138.7660 C   0  0  0  0  0  0  0  0  0  0  0  0
  140.9860  156.0740  137.9450 C   0  0  0  0  0  0  0  0  0  0  0  0
  140.7720  154.7260  138.5310 C   0  0  0  0  0  0  0  0  0  0  0  0
  140.2390  154.4150  139.7740 C   0  0  0  0  0  0  0  0  0  0  0  0
  140.2140  153.0770  139.9300 N   0  0  0  0  0  0  0  0  0  0  0  0
  140.7190  152.5340  138.8330 N   0  0  0  0  0  0  0  0  0  0  0  0
  140.8390  151.0990  138.6050 C   0  0  0  0  0  0  0  0  0  0  0  0
  140.6230  150.8190  137.2680 F   0  0  0  0  0  0  0  0  0  0  0  0
  142.1040  150.6610  138.9600 F   0  0  0  0  0  0  0  0  0  0  0  0
  141.0600  153.4990  137.9580 C   0  0  0  0  0  0  0  0  0  0  0  0
  140.7840  156.2950  136.5600 C   0  0  0  0  0  0  0  0  0  0  0  0
  141.0080  157.5760  136.0490 C   0  0  0  0  0  0  0  0  0  0  0  0
  141.9660  155.2470  134.0990 C   0  0  0  0  0  0  0  0  0  0  0  0
  142.2370  153.9160  134.0370 N   0  0  0  0  0  0  0  0  0  0  0  0
  139.3367  149.5159  132.4574 H   0  0  0  0  0  0  0  0  0  0  0  0
  139.4830  150.9429  131.3763 H   0  0  0  0  0  0  0  0  0  0  0  0
  137.9750  149.9670  131.3763 H   0  0  0  0  0  0  0  0  0  0  0  0
  139.0935  148.0890  130.3541 H   0  0  0  0  0  0  0  0  0  0  0  0
  139.5472  149.5484  129.4089 H   0  0  0  0  0  0  0  0  0  0  0  0
  143.1942  149.2956  133.1963 H   0  0  0  0  0  0  0  0  0  0  0  0
  143.4932  149.4815  131.4285 H   0  0  0  0  0  0  0  0  0  0  0  0
  142.6450  151.6470  131.5140 H   0  0  0  0  0  0  0  0  0  0  0  0
  139.4243  152.7703  132.5464 H   0  0  0  0  0  0  0  0  0  0  0  0
  138.8823  155.2056  132.6377 H   0  0  0  0  0  0  0  0  0  0  0  0
  139.9610  159.7420  131.9280 H   0  0  0  0  0  0  0  0  0  0  0  0
  141.8116  160.7455  136.3975 H   0  0  0  0  0  0  0  0  0  0  0  0
  141.9213  159.2814  138.8565 H   0  0  0  0  0  0  0  0  0  0  0  0
  141.5612  156.9957  139.8417 H   0  0  0  0  0  0  0  0  0  0  0  0
  139.8908  155.1476  140.5170 H   0  0  0  0  0  0  0  0  0  0  0  0
  140.0888  150.5815  139.2209 H   0  0  0  0  0  0  0  0  0  0  0  0
  141.4930  153.3398  136.9594 H   0  0  0  0  0  0  0  0  0  0  0  0
  140.4581  155.4762  135.9017 H   0  0  0  0  0  0  0  0  0  0  0  0
  142.7024  155.9356  134.5389 H   0  0  0  0  0  0  0  0  0  0  0  0
  1  2  1  0
  2  3  1  0
  3  4  1  0
  4  5  2  0
  4  6  1  0
  6  7  1  0
  7  8  1  0
  8  9  2  0
  8 10  1  0
 10 11  2  0
 11 12  1  0
 12 13  2  0
 13 14  1  0
 14 15  2  0
 14 16  1  0
 16 17  1  0
 17 18  1  0
 18 19  1  0
 18 20  2  0
 17 21  2  0
 21 22  1  0
 22 23  2  0
 23 24  1  0
 24 25  2  0
 25 26  1  0
 26 27  1  0
 27 28  2  0
 28 29  1  0
 29 30  1  0
 30 31  1  0
 30 32  1  0
 29 33  1  0
 25 34  1  0
 34 35  2  0
 13 36  1  0
 36 37  2  0
 37 10  1  0
 35 16  1  0
 35 22  1  0
 33 26  2  0
  1 38  1  0
  1 39  1  0
  1 40  1  0
  2 41  1  0
  2 42  1  0
  6 43  1  0
  6 44  1  0
  7 45  1  0
 11 46  1  0
 12 47  1  0
 19 48  1  0
 21 49  1  0
 23 50  1  0
 24 51  1  0
 27 52  1  0
 30 53  1  0
 33 54  1  0
 34 55  1  0
 36 56  1  0
M  CHG  1  19  -1
M  END
>  <UniqueID>  (72) 
72

>  <SMILES>  (72) 
CCOC(=O)CNC(=O)c1ccc(C(=O)n2c(C([NH-])=O)cc3ccc(-c4cnn(C(F)F)c4)cc32)cn1

>  <Energy>  (72) 
125.47608026862868

>  <Genealogy>  (72) 
CCOC(=O)CNC(=O)c1ccc(C(=O)n2c(C([NH-])=O)cc3ccc(-c4cnn(C(F)F)c4)cc32)cn1 (protonated)
CCOC(=O)CNC(=O)c1ccc(C(=O)n2c(C([NH-])=O)cc3ccc(-c4cnn(C(F)F)c4)cc32)cn1 (3D coordinates assigned)
CCOC(=O)CNC(=O)c1ccc(C(=O)n2c(C([NH-])=O)cc3ccc(-c4cnn(C(F)F)c4)cc32)cn1 (optimized conformer: 125.47608026862868 kcal/mol)

>  <smiles>  (72) 
CCOC(=O)CNC(=O)c1ccc(C(=O)n2c(C(N)=O)cc3ccc(-c4cnn(C(F)F)c4)cc32)cn1

>  <score_type>  (72) 
oracle

>  <origin>  (72) 
adg

>  <m_score__min__energy>  (72) 
-10.08

>  <m_primary>  (72) 
energy

$$$$
72:0
     RDKit          3D

 37 39  0  0  0  0  0  0  0  0999 V2000
  141.3750  155.0480  134.5410 C   0  0  0  0  0  0  0  0  0  0  0  0
  141.3080  154.0730  133.4070 C   0  0  0  0  0  0  0  0  0  0  0  0
  140.2960  154.0730  132.6560 O   0  0  0  0  0  0  0  0  0  0  0  0
  142.3530  153.1090  133.1980 N   0  0  0  0  0  0  0  0  0  0  0  0
  142.2320  151.7580  133.0510 C   0  0  0  0  0  0  0  0  0  0  0  0
  140.9830  150.9860  133.2330 C   0  0  0  0  0  0  0  0  0  0  0  0
  139.8090  151.3090  132.4850 N   0  0  0  0  0  0  0  0  0  0  0  0
  140.9520  150.0160  134.0350 O   0  0  0  0  0  0  0  0  0  0  0  0
  143.4780  151.1840  132.8030 C   0  0  0  0  0  0  0  0  0  0  0  0
  144.3710  152.2320  132.8080 C   0  0  0  0  0  0  0  0  0  0  0  0
  145.7480  152.2360  132.6130 C   0  0  0  0  0  0  0  0  0  0  0  0
  146.4170  153.4710  132.6590 C   0  0  0  0  0  0  0  0  0  0  0  0
  145.7020  154.6770  132.8940 C   0  0  0  0  0  0  0  0  0  0  0  0
  146.4180  155.9770  132.9320 C   0  0  0  0  0  0  0  0  0  0  0  0
  145.7450  157.1530  133.3100 C   0  0  0  0  0  0  0  0  0  0  0  0
  146.4190  158.3770  133.3460 C   0  0  0  0  0  0  0  0  0  0  0  0
  147.7800  158.4490  133.0040 C   0  0  0  0  0  0  0  0  0  0  0  0
  148.5080  159.7300  133.0370 C   0  0  0  0  0  0  0  0  0  0  0  0
  149.3630  160.0160  132.1580 O   0  0  0  0  0  0  0  0  0  0  0  0
  148.4540  157.2780  132.6280 C   0  0  0  0  0  0  0  0  0  0  0  0
  147.7790  156.0540  132.5900 C   0  0  0  0  0  0  0  0  0  0  0  0
  144.3020  154.6270  133.0890 C   0  0  0  0  0  0  0  0  0  0  0  0
  143.6670  153.3810  133.0500 C   0  0  0  0  0  0  0  0  0  0  0  0
  141.3376  154.5031  135.4958 H   0  0  0  0  0  0  0  0  0  0  0  0
  142.3144  155.6171  134.4802 H   0  0  0  0  0  0  0  0  0  0  0  0
  140.5223  155.7403  134.4802 H   0  0  0  0  0  0  0  0  0  0  0  0
  139.7770  152.1410  131.8560 H   0  0  0  0  0  0  0  0  0  0  0  0
  138.9440  150.7350  132.5950 H   0  0  0  0  0  0  0  0  0  0  0  0
  143.7006  150.1194  132.6382 H   0  0  0  0  0  0  0  0  0  0  0  0
  146.2969  151.3008  132.4284 H   0  0  0  0  0  0  0  0  0  0  0  0
  147.5065  153.5049  132.5114 H   0  0  0  0  0  0  0  0  0  0  0  0
  144.6794  157.1090  133.5795 H   0  0  0  0  0  0  0  0  0  0  0  0
  145.8809  159.2891  133.6437 H   0  0  0  0  0  0  0  0  0  0  0  0
  148.3008  160.4487  133.8435 H   0  0  0  0  0  0  0  0  0  0  0  0
  149.5202  157.3227  132.3613 H   0  0  0  0  0  0  0  0  0  0  0  0
  148.3180  155.1433  132.2898 H   0  0  0  0  0  0  0  0  0  0  0  0
  143.7256  155.5468  133.2673 H   0  0  0  0  0  0  0  0  0  0  0  0
  1  2  1  0
  2  3  2  0
  2  4  1  0
  4  5  1  0
  5  6  1  0
  6  7  1  0
  6  8  2  0
  5  9  2  0
  9 10  1  0
 10 11  2  0
 11 12  1  0
 12 13  2  0
 13 14  1  0
 14 15  2  0
 15 16  1  0
 16 17  2  0
 17 18  1  0
 18 19  2  0
 17 20  1  0
 20 21  2  0
 13 22  1  0
 22 23  2  0
 23  4  1  0
 23 10  1  0
 21 14  1  0
  1 24  1  0
  1 25  1  0
  1 26  1  0
  7 27  1  0
  7 28  1  0
  9 29  1  0
 11 30  1  0
 12 31  1  0
 15 32  1  0
 16 33  1  0
 18 34  1  0
 20 35  1  0
 21 36  1  0
 22 37  1  0
M  END
>  <UniqueID>  (73) 
73

>  <SMILES>  (73) 
CC(=O)n1c(C(N)=O)cc2ccc(-c3ccc(C=O)cc3)cc21

>  <Energy>  (73) 
83.32150638174461

>  <Genealogy>  (73) 
CC(=O)n1c(C(N)=O)cc2ccc(-c3ccc(C=O)cc3)cc21 (3D coordinates assigned)
CC(=O)n1c(C(N)=O)cc2ccc(-c3ccc(C=O)cc3)cc21 (optimized conformer: 83.32150638174461 kcal/mol)

>  <smiles>  (73) 
CC(=O)n1c(C(N)=O)cc2ccc(-c3ccc(C=O)cc3)cc21

>  <score_type>  (73) 
oracle

>  <origin>  (73) 
adg

>  <m_score__min__energy>  (73) 
-7.6399999999999997

>  <m_primary>  (73) 
energy

$$$$
73:0
     RDKit          3D

 35 36  0  0  0  0  0  0  0  0999 V2000
  137.5000  160.0960  130.9940 C   0  0  0  0  0  0  0  0  0  0  0  0
  138.4860  159.2240  130.7670 C   0  0  0  0  0  0  0  0  0  0  0  0
  139.8320  159.3780  131.4180 C   0  0  0  0  0  0  0  0  0  0  0  0
  140.0720  158.3030  132.3220 O   0  0  0  0  0  0  0  0  0  0  0  0
  139.5350  158.2530  133.6130 C   0  0  0  0  0  0  0  0  0  0  0  0
  138.3750  157.8000  133.8120 O   0  0  0  0  0  0  0  0  0  0  0  0
  140.3840  158.6610  134.7730 C   0  0  0  0  0  0  0  0  0  0  0  0
  141.7320  159.0980  134.2730 C   0  0  0  0  0  0  0  0  0  0  0  0
  142.0250  160.4750  134.1190 C   0  0  0  0  0  0  0  0  0  0  0  0
  143.3060  160.8950  133.7270 C   0  0  0  0  0  0  0  0  0  0  0  0
  144.2720  159.9180  133.5000 C   0  0  0  0  0  0  0  0  0  0  0  0
  145.6000  160.0520  133.1660 C   0  0  0  0  0  0  0  0  0  0  0  0
  146.0960  158.7530  133.1070 C   0  0  0  0  0  0  0  0  0  0  0  0
  147.4850  158.4310  132.7230 C   0  0  0  0  0  0  0  0  0  0  0  0
  147.7760  157.3350  131.8560 N   0  0  0  0  0  0  0  0  0  0  0  0
  148.4240  159.1700  133.1200 O   0  0  0  0  0  0  0  0  0  0  0  0
  145.1190  157.8490  133.4030 N   0  0  0  0  0  0  0  0  0  0  0  0
  145.2720  156.4300  133.5810 C   0  0  0  0  0  0  0  0  0  0  0  0
  145.6280  155.7010  132.6180 O   0  0  0  0  0  0  0  0  0  0  0  0
  145.0190  155.8470  134.8160 O   0  0  0  0  0  0  0  0  0  0  0  0
  144.0050  158.5810  133.6360 C   0  0  0  0  0  0  0  0  0  0  0  0
  142.7400  158.1360  134.0360 C   0  0  0  0  0  0  0  0  0  0  0  0
  136.5236  159.9616  130.5055 H   0  0  0  0  0  0  0  0  0  0  0  0
  137.6644  160.9485  131.6694 H   0  0  0  0  0  0  0  0  0  0  0  0
  138.3093  158.3756  130.0896 H   0  0  0  0  0  0  0  0  0  0  0  0
  140.6118  159.3802  130.6422 H   0  0  0  0  0  0  0  0  0  0  0  0
  139.8521  160.3254  131.9766 H   0  0  0  0  0  0  0  0  0  0  0  0
  139.9021  159.4939  135.3060 H   0  0  0  0  0  0  0  0  0  0  0  0
  140.5039  157.8096  135.4591 H   0  0  0  0  0  0  0  0  0  0  0  0
  141.2410  161.2230  134.3084 H   0  0  0  0  0  0  0  0  0  0  0  0
  143.5394  161.9628  133.6030 H   0  0  0  0  0  0  0  0  0  0  0  0
  146.1517  160.9861  132.9844 H   0  0  0  0  0  0  0  0  0  0  0  0
  147.0120  156.8060  131.3790 H   0  0  0  0  0  0  0  0  0  0  0  0
  148.7660  157.1000  131.6230 H   0  0  0  0  0  0  0  0  0  0  0  0
  142.5350  157.0628  134.1630 H   0  0  0  0  0  0  0  0  0  0  0  0
  1  2  2  0
  2  3  1  0
  3  4  1  0
  4  5  1  0
  5  6  2  0
  5  7  1  0
  7  8  1  0
  8  9  2  0
  9 10  1  0
 10 11  2  0
 11 12  1  0
 12 13  2  0
 13 14  1  0
 14 15  1  0
 14 16  2  0
 13 17  1  0
 17 18  1  0
 18 19  2  0
 18 20  1  0
 17 21  1  0
 21 22  2  0
 22  8  1  0
 21 11  1  0
  1 23  1  0
  1 24  1  0
  2 25  1  0
  3 26  1  0
  3 27  1  0
  7 28  1  0
  7 29  1  0
  9 30  1  0
 10 31  1  0
 12 32  1  0
 15 33  1  0
 15 34  1  0
 22 35  1  0
M  CHG  1  20  -1
M  END
>  <UniqueID>  (74) 
74

>  <SMILES>  (74) 
C=CCOC(=O)Cc1ccc2cc(C(N)=O)n(C(=O)[O-])c2c1

>  <Energy>  (74) 
67.78894692535086

>  <Genealogy>  (74) 
C=CCOC(=O)Cc1ccc2cc(C(N)=O)n(C(=O)[O-])c2c1 (protonated)
C=CCOC(=O)Cc1ccc2cc(C(N)=O)n(C(=O)[O-])c2c1 (3D coordinates assigned)
C=CCOC(=O)Cc1ccc2cc(C(N)=O)n(C(=O)[O-])c2c1 (optimized conformer: 67.78894692535086 kcal/mol)

>  <smiles>  (74) 
C=CCOC(=O)Cc1ccc2cc(C(N)=O)n(C(=O)O)c2c1

>  <score_type>  (74) 
oracle

>  <origin>  (74) 
adg

>  <m_score__min__energy>  (74) 
-6.4900000000000002

>  <m_primary>  (74) 
energy

$$$$
74:0
     RDKit          3D

 48 50  0  0  0  0  0  0  0  0999 V2000
  139.6020  159.5920  131.9720 C   0  0  0  0  0  0  0  0  0  0  0  0
  138.7380  158.3790  131.6440 C   0  0  0  0  0  0  0  0  0  0  0  0
  138.9470  157.3420  132.6000 O   0  0  0  0  0  0  0  0  0  0  0  0
  139.3300  157.5830  133.9250 C   0  0  0  0  0  0  0  0  0  0  0  0
  138.5620  158.2070  134.7070 O   0  0  0  0  0  0  0  0  0  0  0  0
  140.5890  157.0870  134.4040 N   0  0  0  0  0  0  0  0  0  0  0  0
  141.5760  157.7830  135.0340 C   0  0  0  0  0  0  0  0  0  0  0  0
  141.4800  159.1770  135.5130 C   0  0  0  0  0  0  0  0  0  0  0  0
  140.5010  159.5270  136.4890 N   0  0  0  0  0  0  0  0  0  0  0  0
  142.2320  160.0720  135.0460 O   0  0  0  0  0  0  0  0  0  0  0  0
  142.6940  156.9740  135.2300 C   0  0  0  0  0  0  0  0  0  0  0  0
  142.3580  155.7510  134.6940 C   0  0  0  0  0  0  0  0  0  0  0  0
  143.1120  154.5860  134.5760 C   0  0  0  0  0  0  0  0  0  0  0  0
  142.5300  153.4900  133.9170 C   0  0  0  0  0  0  0  0  0  0  0  0
  141.2160  153.5770  133.3930 C   0  0  0  0  0  0  0  0  0  0  0  0
  140.6290  152.4170  132.6300 C   0  0  0  0  0  0  0  0  0  0  0  0
  141.0480  151.0610  133.2280 C   0  0  0  0  0  0  0  0  0  0  0  0
  140.4010  149.8420  132.5300 C   0  0  0  0  0  0  0  0  0  0  0  0
  141.3460  149.1890  131.4950 C   0  0  0  0  0  0  0  0  0  0  0  0
  140.5680  148.3580  130.4590 C   0  0  0  0  0  0  0  0  0  0  0  0
  139.3240  147.9360  130.9830 O   0  0  0  0  0  0  0  0  0  0  0  0
  138.4490  149.0460  131.1110 C   0  0  0  0  0  0  0  0  0  0  0  0
  139.0860  150.2490  131.8460 C   0  0  0  0  0  0  0  0  0  0  0  0
  140.4800  154.7730  133.5390 C   0  0  0  0  0  0  0  0  0  0  0  0
  141.0820  155.8460  134.2060 C   0  0  0  0  0  0  0  0  0  0  0  0
  139.6803  159.7020  133.0637 H   0  0  0  0  0  0  0  0  0  0  0  0
  140.6060  159.4534  131.5445 H   0  0  0  0  0  0  0  0  0  0  0  0
  139.1429  160.4956  131.5445 H   0  0  0  0  0  0  0  0  0  0  0  0
  137.6787  158.6752  131.6574 H   0  0  0  0  0  0  0  0  0  0  0  0
  139.0153  158.0045  130.6476 H   0  0  0  0  0  0  0  0  0  0  0  0
  139.4850  159.3620  136.3120 H   0  0  0  0  0  0  0  0  0  0  0  0
  143.6431  157.2533  135.7108 H   0  0  0  0  0  0  0  0  0  0  0  0
  144.1310  154.5258  134.9858 H   0  0  0  0  0  0  0  0  0  0  0  0
  143.0997  152.5555  133.8067 H   0  0  0  0  0  0  0  0  0  0  0  0
  139.5320  152.4931  132.6569 H   0  0  0  0  0  0  0  0  0  0  0  0
  141.0062  152.4639  131.5978 H   0  0  0  0  0  0  0  0  0  0  0  0
  142.1409  150.9684  133.1443 H   0  0  0  0  0  0  0  0  0  0  0  0
  140.7023  151.0519  134.2722 H   0  0  0  0  0  0  0  0  0  0  0  0
  140.1955  149.0972  133.3130 H   0  0  0  0  0  0  0  0  0  0  0  0
  141.9030  149.9802  130.9718 H   0  0  0  0  0  0  0  0  0  0  0  0
  142.0296  148.5150  132.0320 H   0  0  0  0  0  0  0  0  0  0  0  0
  140.3921  148.9719  129.5634 H   0  0  0  0  0  0  0  0  0  0  0  0
  141.1623  147.4682  130.2038 H   0  0  0  0  0  0  0  0  0  0  0  0
  138.1493  149.3716  130.1040 H   0  0  0  0  0  0  0  0  0  0  0  0
  137.5904  148.7149  131.7137 H   0  0  0  0  0  0  0  0  0  0  0  0
  139.2912  151.0478  131.1182 H   0  0  0  0  0  0  0  0  0  0  0  0
  138.3842  150.6011  132.6164 H   0  0  0  0  0  0  0  0  0  0  0  0
  139.4591  154.8593  133.1386 H   0  0  0  0  0  0  0  0  0  0  0  0
  1  2  1  0
  2  3  1  0
  3  4  1  0
  4  5  2  0
  4  6  1  0
  6  7  1  0
  7  8  1  0
  8  9  1  0
  8 10  2  0
  7 11  2  0
 11 12  1  0
 12 13  2  0
 13 14  1  0
 14 15  2  0
 15 16  1  0
 16 17  1  0
 17 18  1  0
 18 19  1  0
 19 20  1  0
 20 21  1  0
 21 22  1  0
 22 23  1  0
 15 24  1  0
 24 25  2  0
 25  6  1  0
 25 12  1  0
 23 18  1  0
  1 26  1  0
  1 27  1  0
  1 28  1  0
  2 29  1  0
  2 30  1  0
  9 31  1  0
 11 32  1  0
 13 33  1  0
 14 34  1  0
 16 35  1  0
 16 36  1  0
 17 37  1  0
 17 38  1  0
 18 39  1  0
 19 40  1  0
 19 41  1  0
 20 42  1  0
 20 43  1  0
 22 44  1  0
 22 45  1  0
 23 46  1  0
 23 47  1  0
 24 48  1  0
M  CHG  1   9  -1
M  END
>  <UniqueID>  (75) 
75

>  <SMILES>  (75) 
CCOC(=O)n1c(C([NH-])=O)cc2ccc(CCC3CCOCC3)cc21

>  <Energy>  (75) 
85.62063856133443

>  <Genealogy>  (75) 
CCOC(=O)n1c(C([NH-])=O)cc2ccc(CCC3CCOCC3)cc21 (protonated)
CCOC(=O)n1c(C([NH-])=O)cc2ccc(CCC3CCOCC3)cc21 (3D coordinates assigned)
CCOC(=O)n1c(C([NH-])=O)cc2ccc(CCC3CCOCC3)cc21 (nonaromatic ring conformer: 85.62063856133443 kcal/mol)

>  <smiles>  (75) 
CCOC(=O)n1c(C(N)=O)cc2ccc(CCC3CCOCC3)cc21

>  <score_type>  (75) 
oracle

>  <origin>  (75) 
adg

>  <m_score__min__energy>  (75) 
-7.8799999999999999

>  <m_primary>  (75) 
energy

$$$$
75:0
     RDKit          3D

 29 30  0  0  0  0  0  0  0  0999 V2000
  145.1700  154.0670  134.9140 C   0  0  0  0  0  0  0  0  0  0  0  0
  146.2310  154.9580  135.5740 C   0  0  1  0  0  0  0  0  0  0  0  0
  147.1350  154.1710  136.4850 C   0  0  0  0  0  0  0  0  0  0  0  0
  146.8340  153.0020  136.8440 O   0  0  0  0  0  0  0  0  0  0  0  0
  148.3450  154.7190  136.8930 O   0  0  0  0  0  0  0  0  0  0  0  0
  147.0390  155.7100  134.5380 C   0  0  0  0  0  0  0  0  0  0  0  0
  148.1070  155.0760  133.8460 C   0  0  0  0  0  0  0  0  0  0  0  0
  148.8460  155.7700  132.8740 C   0  0  0  0  0  0  0  0  0  0  0  0
  148.5040  157.0940  132.6150 C   0  0  0  0  0  0  0  0  0  0  0  0
  149.0350  157.9820  131.7090 C   0  0  0  0  0  0  0  0  0  0  0  0
  148.3040  159.1570  131.8730 C   0  0  0  0  0  0  0  0  0  0  0  0
  148.6060  160.4080  131.1480 C   0  0  0  0  0  0  0  0  0  0  0  0
  149.8750  161.0430  131.2800 N   0  0  0  0  0  0  0  0  0  0  0  0
  147.7510  160.8970  130.3630 O   0  0  0  0  0  0  0  0  0  0  0  0
  147.3500  158.9980  132.8350 N   0  0  0  0  0  0  0  0  0  0  0  0
  146.3370  159.9360  133.2290 C   0  0  0  0  0  0  0  0  0  0  0  0
  146.6560  161.0290  133.7670 O   0  0  0  0  0  0  0  0  0  0  0  0
  144.9930  159.6330  133.0470 O   0  0  0  0  0  0  0  0  0  0  0  0
  147.4890  157.7290  133.2820 C   0  0  0  0  0  0  0  0  0  0  0  0
  146.7230  157.0570  134.2420 C   0  0  0  0  0  0  0  0  0  0  0  0
  144.5749  153.5673  135.6926 H   0  0  0  0  0  0  0  0  0  0  0  0
  144.5097  154.6853  134.2882 H   0  0  0  0  0  0  0  0  0  0  0  0
  145.6649  153.3097  134.2882 H   0  0  0  0  0  0  0  0  0  0  0  0
  145.6942  155.6933  136.1914 H   0  0  0  0  0  0  0  0  0  0  0  0
  148.3574  154.0296  134.0746 H   0  0  0  0  0  0  0  0  0  0  0  0
  149.6704  155.2818  132.3336 H   0  0  0  0  0  0  0  0  0  0  0  0
  149.8609  157.8029  131.0048 H   0  0  0  0  0  0  0  0  0  0  0  0
  150.7580  160.4860  131.2720 H   0  0  0  0  0  0  0  0  0  0  0  0
  145.8933  157.5653  134.7551 H   0  0  0  0  0  0  0  0  0  0  0  0
  1  2  1  0
  2  3  1  0
  3  4  2  0
  3  5  1  0
  2  6  1  0
  6  7  2  0
  7  8  1  0
  8  9  2  0
  9 10  1  0
 10 11  2  0
 11 12  1  0
 12 13  1  0
 12 14  2  0
 11 15  1  0
 15 16  1  0
 16 17  2  0
 16 18  1  0
 15 19  1  0
 19 20  2  0
 20  6  1  0
 19  9  1  0
  1 21  1  0
  1 22  1  0
  1 23  1  0
  2 24  1  1
  7 25  1  0
  8 26  1  0
 10 27  1  0
 13 28  1  0
 20 29  1  0
M  CHG  3   5  -1  13  -1  18  -1
M  END
>  <UniqueID>  (76) 
76

>  <SMILES>  (76) 
C[C@@H](C(=O)[O-])c1ccc2cc(C([NH-])=O)n(C(=O)[O-])c2c1

>  <Energy>  (76) 
68.15280213789137

>  <Genealogy>  (76) 
CC(C(=O)[O-])c1ccc2cc(C([NH-])=O)n(C(=O)[O-])c2c1 (protonated)
C[C@@H](C(=O)[O-])c1ccc2cc(C([NH-])=O)n(C(=O)[O-])c2c1 (chirality)
C[C@@H](C(=O)[O-])c1ccc2cc(C([NH-])=O)n(C(=O)[O-])c2c1 (3D coordinates assigned)
C[C@@H](C(=O)[O-])c1ccc2cc(C([NH-])=O)n(C(=O)[O-])c2c1 (optimized conformer: 68.15280213789137 kcal/mol)

>  <smiles>  (76) 
CC(C(=O)O)c1ccc2cc(C(N)=O)n(C(=O)O)c2c1

>  <score_type>  (76) 
oracle

>  <origin>  (76) 
adg

>  <m_score__min__energy>  (76) 
-6.6200000000000001

>  <m_primary>  (76) 
energy

$$$$
76:0
     RDKit          3D

 58 61  0  0  0  0  0  0  0  0999 V2000
  146.1630  160.1500  133.0860 C   0  0  0  0  0  0  0  0  0  0  0  0
  147.4780  159.9140  132.4210 C   0  0  0  0  0  0  0  0  0  0  0  0
  147.7520  160.2400  131.1780 O   0  0  0  0  0  0  0  0  0  0  0  0
  149.0010  159.8840  130.9790 C   0  0  0  0  0  0  0  0  0  0  0  0
  149.6060  160.0470  129.8880 O   0  0  0  0  0  0  0  0  0  0  0  0
  149.5480  159.3440  132.0430 O   0  0  0  0  0  0  0  0  0  0  0  0
  148.6170  159.3470  132.9690 C   0  0  0  0  0  0  0  0  0  0  0  0
  148.8220  158.8460  134.3650 C   0  0  0  0  0  0  0  0  0  0  0  0
  148.4030  157.4870  134.4480 O   0  0  0  0  0  0  0  0  0  0  0  0
  148.3690  156.6220  133.3490 C   0  0  0  0  0  0  0  0  0  0  0  0
  149.2640  156.6840  132.4630 O   0  0  0  0  0  0  0  0  0  0  0  0
  147.3080  155.6590  133.2310 N   0  0  0  0  0  0  0  0  0  0  0  0
  147.4230  154.3180  133.0250 C   0  0  0  0  0  0  0  0  0  0  0  0
  148.6800  153.5840  132.7720 C   0  0  0  0  0  0  0  0  0  0  0  0
  149.8250  154.2440  132.2290 N   0  0  0  0  0  0  0  0  0  0  0  0
  148.7260  152.3420  132.9860 O   0  0  0  0  0  0  0  0  0  0  0  0
  146.1660  153.7160  132.9990 C   0  0  0  0  0  0  0  0  0  0  0  0
  145.2680  154.7440  133.1740 C   0  0  0  0  0  0  0  0  0  0  0  0
  143.8750  154.7220  133.1950 C   0  0  0  0  0  0  0  0  0  0  0  0
  143.2020  155.9420  133.3770 C   0  0  0  0  0  0  0  0  0  0  0  0
  143.9270  157.1450  133.5640 C   0  0  0  0  0  0  0  0  0  0  0  0
  143.2010  158.4570  133.7090 C   0  0  0  0  0  0  0  0  0  0  0  0
  142.2740  158.4450  134.9330 C   0  0  0  0  0  0  0  0  0  0  0  0
  140.9620  159.0570  134.6200 N   0  0  0  0  0  0  0  0  0  0  0  0
  140.8230  159.3680  133.1830 C   0  0  0  0  0  0  0  0  0  0  0  0
  140.4950  158.1090  132.3660 C   0  0  0  0  0  0  0  0  0  0  0  0
  139.3270  157.3560  132.8900 N   0  0  0  0  0  0  0  0  0  0  0  0
  139.6330  155.9250  133.0530 C   0  0  0  0  0  0  0  0  0  0  0  0
  138.7450  157.9310  134.1210 C   0  0  0  0  0  0  0  0  0  0  0  0
  139.8220  158.2720  135.1670 C   0  0  0  0  0  0  0  0  0  0  0  0
  145.3380  157.1230  133.5480 C   0  0  0  0  0  0  0  0  0  0  0  0
  145.9820  155.9040  133.3200 C   0  0  0  0  0  0  0  0  0  0  0  0
  146.2948  160.1263  134.1778 H   0  0  0  0  0  0  0  0  0  0  0  0
  145.7711  161.1328  132.7852 H   0  0  0  0  0  0  0  0  0  0  0  0
  145.4538  159.3648  132.7852 H   0  0  0  0  0  0  0  0  0  0  0  0
  149.8878  158.9178  134.6276 H   0  0  0  0  0  0  0  0  0  0  0  0
  148.2304  159.4555  135.0639 H   0  0  0  0  0  0  0  0  0  0  0  0
  149.7630  155.2200  131.8620 H   0  0  0  0  0  0  0  0  0  0  0  0
  150.7240  153.7220  132.1140 H   0  0  0  0  0  0  0  0  0  0  0  0
  145.9401  152.6476  132.8668 H   0  0  0  0  0  0  0  0  0  0  0  0
  143.3201  153.7801  133.0731 H   0  0  0  0  0  0  0  0  0  0  0  0
  142.1022  155.9634  133.3743 H   0  0  0  0  0  0  0  0  0  0  0  0
  143.9387  159.2646  133.8253 H   0  0  0  0  0  0  0  0  0  0  0  0
  142.5889  158.6182  132.8094 H   0  0  0  0  0  0  0  0  0  0  0  0
  142.1168  157.4045  135.2533 H   0  0  0  0  0  0  0  0  0  0  0  0
  142.7485  159.0311  135.7338 H   0  0  0  0  0  0  0  0  0  0  0  0
  140.0130  160.1006  133.0521 H   0  0  0  0  0  0  0  0  0  0  0  0
  141.7794  159.7749  132.8228 H   0  0  0  0  0  0  0  0  0  0  0  0
  140.2795  158.4111  131.3305 H   0  0  0  0  0  0  0  0  0  0  0  0
  141.3677  157.4425  132.4304 H   0  0  0  0  0  0  0  0  0  0  0  0
  139.6852  155.6809  134.1243 H   0  0  0  0  0  0  0  0  0  0  0  0
  138.8429  155.3247  132.5782 H   0  0  0  0  0  0  0  0  0  0  0  0
  140.5995  155.7003  132.5782 H   0  0  0  0  0  0  0  0  0  0  0  0
  138.2006  158.8505  133.8599 H   0  0  0  0  0  0  0  0  0  0  0  0
  138.0723  157.1797  134.5603 H   0  0  0  0  0  0  0  0  0  0  0  0
  139.3518  158.8572  135.9711 H   0  0  0  0  0  0  0  0  0  0  0  0
  140.2333  157.3174  135.5270 H   0  0  0  0  0  0  0  0  0  0  0  0
  145.9172  158.0438  133.7112 H   0  0  0  0  0  0  0  0  0  0  0  0
  1  2  1  0
  2  3  1  0
  3  4  1  0
  4  5  2  0
  4  6  1  0
  6  7  1  0
  7  8  1  0
  8  9  1  0
  9 10  1  0
 10 11  2  0
 10 12  1  0
 12 13  1  0
 13 14  1  0
 14 15  1  0
 14 16  2  0
 13 17  2  0
 17 18  1  0
 18 19  2  0
 19 20  1  0
 20 21  2  0
 21 22  1  0
 22 23  1  0
 23 24  1  0
 24 25  1  0
 25 26  1  0
 26 27  1  0
 27 28  1  0
 27 29  1  0
 29 30  1  0
 21 31  1  0
 31 32  2  0
  7  2  2  0
 32 12  1  0
 32 18  1  0
 30 24  1  0
  1 33  1  0
  1 34  1  0
  1 35  1  0
  8 36  1  0
  8 37  1  0
 15 38  1  0
 15 39  1  0
 17 40  1  0
 19 41  1  0
 20 42  1  0
 22 43  1  0
 22 44  1  0
 23 45  1  0
 23 46  1  0
 25 47  1  0
 25 48  1  0
 26 49  1  0
 26 50  1  0
 28 51  1  0
 28 52  1  0
 28 53  1  0
 29 54  1  0
 29 55  1  0
 30 56  1  0
 30 57  1  0
 31 58  1  0
M  END
>  <UniqueID>  (77) 
77

>  <SMILES>  (77) 
Cc1oc(=O)oc1COC(=O)n1c(C(N)=O)cc2ccc(CCN3CCN(C)CC3)cc21

>  <Energy>  (77) 
140.9724298653273

>  <Genealogy>  (77) 
Cc1oc(=O)oc1COC(=O)n1c(C(N)=O)cc2ccc(CCN3CCN(C)CC3)cc21 (3D coordinates assigned)
Cc1oc(=O)oc1COC(=O)n1c(C(N)=O)cc2ccc(CCN3CCN(C)CC3)cc21 (nonaromatic ring conformer: 140.9724298653273 kcal/mol)

>  <smiles>  (77) 
Cc1oc(=O)oc1COC(=O)n1c(C(N)=O)cc2ccc(CCN3CCN(C)CC3)cc21

>  <score_type>  (77) 
oracle

>  <origin>  (77) 
adg

>  <m_score__min__energy>  (77) 
-8.5600000000000005

>  <m_primary>  (77) 
energy

$$$$
77:0
     RDKit          3D

 49 52  0  0  0  0  0  0  0  0999 V2000
  146.5880  162.2760  134.2930 N   0  0  0  0  0  0  0  0  0  0  0  0
  145.1820  162.1270  134.0940 C   0  0  0  0  0  0  0  0  0  0  0  0
  144.4540  163.1560  134.0520 O   0  0  0  0  0  0  0  0  0  0  0  0
  144.5750  160.8020  133.8650 C   0  0  0  0  0  0  0  0  0  0  0  0
  143.2170  160.5340  134.0280 C   0  0  0  0  0  0  0  0  0  0  0  0
  143.0710  159.2010  133.7300 C   0  0  0  0  0  0  0  0  0  0  0  0
  141.9450  158.3870  133.7870 C   0  0  0  0  0  0  0  0  0  0  0  0
  142.1090  157.0180  133.5240 C   0  0  0  0  0  0  0  0  0  0  0  0
  143.3860  156.4850  133.2030 C   0  0  0  0  0  0  0  0  0  0  0  0
  143.5640  155.0630  133.0090 N   0  0  0  0  0  0  0  0  0  0  0  0
  144.3290  154.5680  131.8550 C   0  0  0  0  0  0  0  0  0  0  0  0
  144.8730  153.1590  132.1230 C   0  0  0  0  0  0  0  0  0  0  0  0
  145.3010  153.0590  133.5240 N   0  0  0  0  0  0  0  0  0  0  0  0
  144.1610  153.1420  134.4610 C   0  0  0  0  0  0  0  0  0  0  0  0
  143.0390  154.0830  133.9740 C   0  0  0  0  0  0  0  0  0  0  0  0
  144.5040  157.3490  133.1470 C   0  0  0  0  0  0  0  0  0  0  0  0
  144.3080  158.7100  133.4040 C   0  0  0  0  0  0  0  0  0  0  0  0
  145.2390  159.6820  133.4750 N   0  0  0  0  0  0  0  0  0  0  0  0
  146.6550  159.5080  133.3360 C   0  0  0  0  0  0  0  0  0  0  0  0
  147.2640  160.1320  132.4200 O   0  0  0  0  0  0  0  0  0  0  0  0
  147.3350  158.6460  134.2060 O   0  0  0  0  0  0  0  0  0  0  0  0
  147.6160  157.2850  133.9810 C   0  0  0  0  0  0  0  0  0  0  0  0
  147.2410  156.3670  134.9690 C   0  0  0  0  0  0  0  0  0  0  0  0
  147.4580  154.9970  134.7930 C   0  0  0  0  0  0  0  0  0  0  0  0
  148.0610  154.5170  133.6140 C   0  0  0  0  0  0  0  0  0  0  0  0
  148.2740  153.1080  133.4170 N   0  0  0  0  0  0  0  0  0  0  0  0
  147.6430  152.4850  132.5330 O   0  0  0  0  0  0  0  0  0  0  0  0
  149.2490  152.4440  134.1260 O   0  0  0  0  0  0  0  0  0  0  0  0
  148.4380  155.4370  132.6220 C   0  0  0  0  0  0  0  0  0  0  0  0
  148.2090  156.8050  132.7960 C   0  0  0  0  0  0  0  0  0  0  0  0
  147.2490  161.4870  134.1170 H   0  0  0  0  0  0  0  0  0  0  0  0
  146.9820  163.2110  134.5460 H   0  0  0  0  0  0  0  0  0  0  0  0
  142.4295  161.2398  134.3309 H   0  0  0  0  0  0  0  0  0  0  0  0
  140.9563  158.8031  134.0307 H   0  0  0  0  0  0  0  0  0  0  0  0
  141.2369  156.3489  133.5670 H   0  0  0  0  0  0  0  0  0  0  0  0
  143.6721  154.5388  130.9731 H   0  0  0  0  0  0  0  0  0  0  0  0
  145.1779  155.2451  131.6793 H   0  0  0  0  0  0  0  0  0  0  0  0
  144.0844  152.4177  131.9265 H   0  0  0  0  0  0  0  0  0  0  0  0
  145.7308  152.9648  131.4623 H   0  0  0  0  0  0  0  0  0  0  0  0
  145.7670  152.1310  133.6580 H   0  0  0  0  0  0  0  0  0  0  0  0
  143.7402  152.1338  134.5893 H   0  0  0  0  0  0  0  0  0  0  0  0
  144.5448  153.5538  135.4060 H   0  0  0  0  0  0  0  0  0  0  0  0
  142.2517  153.4861  133.4904 H   0  0  0  0  0  0  0  0  0  0  0  0
  142.6302  154.6238  134.8403 H   0  0  0  0  0  0  0  0  0  0  0  0
  145.5045  156.9599  132.9069 H   0  0  0  0  0  0  0  0  0  0  0  0
  146.7698  156.7279  135.8952 H   0  0  0  0  0  0  0  0  0  0  0  0
  147.1561  154.2900  135.5798 H   0  0  0  0  0  0  0  0  0  0  0  0
  148.9179  155.0778  131.6997 H   0  0  0  0  0  0  0  0  0  0  0  0
  148.4936  157.5117  132.0026 H   0  0  0  0  0  0  0  0  0  0  0  0
  1  2  1  0
  2  3  2  0
  2  4  1  0
  4  5  2  0
  5  6  1  0
  6  7  2  0
  7  8  1  0
  8  9  2  0
  9 10  1  0
 10 11  1  0
 11 12  1  0
 12 13  1  0
 13 14  1  0
 14 15  1  0
  9 16  1  0
 16 17  2  0
 17 18  1  0
 18 19  1  0
 19 20  2  0
 19 21  1  0
 21 22  1  0
 22 23  2  0
 23 24  1  0
 24 25  2  0
 25 26  1  0
 26 27  2  0
 26 28  1  0
 25 29  1  0
 29 30  2  0
 18  4  1  0
 30 22  1  0
 17  6  1  0
 15 10  1  0
  1 31  1  0
  1 32  1  0
  5 33  1  0
  7 34  1  0
  8 35  1  0
 11 36  1  0
 11 37  1  0
 12 38  1  0
 12 39  1  0
 13 40  1  0
 14 41  1  0
 14 42  1  0
 15 43  1  0
 15 44  1  0
 16 45  1  0
 23 46  1  0
 24 47  1  0
 29 48  1  0
 30 49  1  0
M  CHG  2  26   1  28  -1
M  END
>  <UniqueID>  (78) 
78

>  <SMILES>  (78) 
NC(=O)c1cc2ccc(N3CCNCC3)cc2n1C(=O)Oc1ccc([N+](=O)[O-])cc1

>  <Energy>  (78) 
107.1320759518864

>  <Genealogy>  (78) 
NC(=O)c1cc2ccc(N3CCNCC3)cc2n1C(=O)Oc1ccc([N+](=O)[O-])cc1 (3D coordinates assigned)
NC(=O)c1cc2ccc(N3CCNCC3)cc2n1C(=O)Oc1ccc([N+](=O)[O-])cc1 (nonaromatic ring conformer: 107.1320759518864 kcal/mol)

>  <smiles>  (78) 
NC(=O)c1cc2ccc(N3CCNCC3)cc2n1C(=O)Oc1ccc([N+](=O)[O-])cc1

>  <score_type>  (78) 
oracle

>  <origin>  (78) 
adg

>  <m_score__min__energy>  (78) 
-9.6699999999999999

>  <m_primary>  (78) 
energy

$$$$
78:0
     RDKit          3D

 25 26  0  0  0  0  0  0  0  0999 V2000
  149.9330  160.1430  131.2950 C   0  0  0  0  0  0  0  0  0  0  0  0
  148.9960  159.2650  132.0690 C   0  0  0  0  0  0  0  0  0  0  0  0
  147.8540  159.8230  132.6960 C   0  0  0  0  0  0  0  0  0  0  0  0
  146.9530  159.0070  133.3970 C   0  0  0  0  0  0  0  0  0  0  0  0
  147.2080  157.6400  133.4410 C   0  0  0  0  0  0  0  0  0  0  0  0
  146.5090  156.6270  134.0580 C   0  0  0  0  0  0  0  0  0  0  0  0
  147.2130  155.4630  133.7650 C   0  0  0  0  0  0  0  0  0  0  0  0
  146.7580  154.1190  134.1690 C   0  0  0  0  0  0  0  0  0  0  0  0
  146.7640  153.0310  133.2440 N   0  0  0  0  0  0  0  0  0  0  0  0
  146.2950  153.9440  135.3270 O   0  0  0  0  0  0  0  0  0  0  0  0
  148.3170  155.7430  133.0140 N   0  0  0  0  0  0  0  0  0  0  0  0
  149.3680  154.8500  132.6060 C   0  0  0  0  0  0  0  0  0  0  0  0
  149.1040  153.7190  132.1200 O   0  0  0  0  0  0  0  0  0  0  0  0
  148.2940  157.0790  132.8180 C   0  0  0  0  0  0  0  0  0  0  0  0
  149.2150  157.8710  132.1210 C   0  0  0  0  0  0  0  0  0  0  0  0
  150.5528  160.7238  131.9939 H   0  0  0  0  0  0  0  0  0  0  0  0
  150.5809  159.5193  130.6616 H   0  0  0  0  0  0  0  0  0  0  0  0
  149.3527  160.8301  130.6616 H   0  0  0  0  0  0  0  0  0  0  0  0
  147.6722  160.9060  132.6325 H   0  0  0  0  0  0  0  0  0  0  0  0
  146.0716  159.4353  133.8967 H   0  0  0  0  0  0  0  0  0  0  0  0
  145.5898  156.7183  134.6553 H   0  0  0  0  0  0  0  0  0  0  0  0
  146.4640  152.0790  133.5520 H   0  0  0  0  0  0  0  0  0  0  0  0
  146.9950  153.1830  132.2370 H   0  0  0  0  0  0  0  0  0  0  0  0
  150.4173  155.1596  132.7202 H   0  0  0  0  0  0  0  0  0  0  0  0
  150.0871  157.4185  131.6264 H   0  0  0  0  0  0  0  0  0  0  0  0
  1  2  1  0
  2  3  2  0
  3  4  1  0
  4  5  2  0
  5  6  1  0
  6  7  2  0
  7  8  1  0
  8  9  1  0
  8 10  2  0
  7 11  1  0
 11 12  1  0
 12 13  2  0
 11 14  1  0
 14 15  2  0
 15  2  1  0
 14  5  1  0
  1 16  1  0
  1 17  1  0
  1 18  1  0
  3 19  1  0
  4 20  1  0
  6 21  1  0
  9 22  1  0
  9 23  1  0
 12 24  1  0
 15 25  1  0
M  END
>  <UniqueID>  (79) 
79

>  <SMILES>  (79) 
Cc1ccc2cc(C(N)=O)n(C=O)c2c1

>  <Energy>  (79) 
63.39049048681898

>  <Genealogy>  (79) 
Cc1ccc2cc(C(N)=O)n(C=O)c2c1 (3D coordinates assigned)
Cc1ccc2cc(C(N)=O)n(C=O)c2c1 (optimized conformer: 63.39049048681898 kcal/mol)

>  <smiles>  (79) 
Cc1ccc2cc(C(N)=O)n(C=O)c2c1

>  <score_type>  (79) 
oracle

>  <origin>  (79) 
adg

>  <m_score__min__energy>  (79) 
-6.0199999999999996

>  <m_primary>  (79) 
energy

$$$$
79:0
     RDKit          3D

 44 46  0  0  0  0  0  0  0  0999 V2000
  142.1820  158.6240  133.1850 N   0  0  0  0  0  0  0  0  0  0  0  0
  141.6440  157.7070  134.1330 C   0  0  0  0  0  0  0  0  0  0  0  0
  140.9820  158.1460  135.1100 O   0  0  0  0  0  0  0  0  0  0  0  0
  141.8340  156.2550  133.9420 C   0  0  0  0  0  0  0  0  0  0  0  0
  143.0500  155.6030  134.1480 C   0  0  0  0  0  0  0  0  0  0  0  0
  142.8310  154.2970  133.7720 C   0  0  0  0  0  0  0  0  0  0  0  0
  143.6940  153.2050  133.7810 C   0  0  0  0  0  0  0  0  0  0  0  0
  143.1890  151.9630  133.3600 C   0  0  0  0  0  0  0  0  0  0  0  0
  141.8420  151.8370  132.9350 C   0  0  0  0  0  0  0  0  0  0  0  0
  141.3020  150.4920  132.5310 C   0  0  0  0  0  0  0  0  0  0  0  0
  139.9220  150.6380  131.8750 C   0  0  0  0  0  0  0  0  0  0  0  0
  139.4860  149.3700  131.2500 N   0  0  0  0  0  0  0  0  0  0  0  0
  140.6340  148.4520  131.1020 C   0  0  0  0  0  0  0  0  0  0  0  0
  140.1540  147.0440  130.7050 C   0  0  0  0  0  0  0  0  0  0  0  0
  138.8330  147.0730  129.9200 C   0  0  0  0  0  0  0  0  0  0  0  0
  138.7350  148.3380  129.0670 C   0  0  0  0  0  0  0  0  0  0  0  0
  138.8290  149.6100  129.9380 C   0  0  0  0  0  0  0  0  0  0  0  0
  140.9940  152.9650  132.9510 C   0  0  0  0  0  0  0  0  0  0  0  0
  141.5270  154.1910  133.3630 C   0  0  0  0  0  0  0  0  0  0  0  0
  140.9000  155.3830  133.4680 N   0  0  0  0  0  0  0  0  0  0  0  0
  139.5150  155.6390  133.1870 C   0  0  0  0  0  0  0  0  0  0  0  0
  139.0120  156.9760  133.1890 N   0  0  0  0  0  0  0  0  0  0  0  0
  138.7290  154.6790  132.9720 O   0  0  0  0  0  0  0  0  0  0  0  0
  142.1630  158.4130  132.1620 H   0  0  0  0  0  0  0  0  0  0  0  0
  143.9848  156.0395  134.5296 H   0  0  0  0  0  0  0  0  0  0  0  0
  144.7391  153.3109  134.1076 H   0  0  0  0  0  0  0  0  0  0  0  0
  143.8449  151.0800  133.3601 H   0  0  0  0  0  0  0  0  0  0  0  0
  141.9946  150.0246  131.8156 H   0  0  0  0  0  0  0  0  0  0  0  0
  141.2026  149.8656  133.4297 H   0  0  0  0  0  0  0  0  0  0  0  0
  139.1897  150.9294  132.6424 H   0  0  0  0  0  0  0  0  0  0  0  0
  139.9906  151.4058  131.0903 H   0  0  0  0  0  0  0  0  0  0  0  0
  141.3072  148.8377  130.3222 H   0  0  0  0  0  0  0  0  0  0  0  0
  141.1634  148.3881  132.0641 H   0  0  0  0  0  0  0  0  0  0  0  0
  140.9258  146.5713  130.0798 H   0  0  0  0  0  0  0  0  0  0  0  0
  139.9805  146.4762  131.6310 H   0  0  0  0  0  0  0  0  0  0  0  0
  138.7840  146.1913  129.2641 H   0  0  0  0  0  0  0  0  0  0  0  0
  137.9977  147.0652  130.6357 H   0  0  0  0  0  0  0  0  0  0  0  0
  139.5573  148.3423  128.3364 H   0  0  0  0  0  0  0  0  0  0  0  0
  137.7609  148.3379  128.5560 H   0  0  0  0  0  0  0  0  0  0  0  0
  139.4079  150.3679  129.3898 H   0  0  0  0  0  0  0  0  0  0  0  0
  137.8013  149.9453  130.1417 H   0  0  0  0  0  0  0  0  0  0  0  0
  139.9401  152.8822  132.6470 H   0  0  0  0  0  0  0  0  0  0  0  0
  139.6310  157.7750  133.4490 H   0  0  0  0  0  0  0  0  0  0  0  0
  138.0090  157.1610  132.9700 H   0  0  0  0  0  0  0  0  0  0  0  0
  1  2  1  0
  2  3  2  0
  2  4  1  0
  4  5  2  0
  5  6  1  0
  6  7  2  0
  7  8  1  0
  8  9  2  0
  9 10  1  0
 10 11  1  0
 11 12  1  0
 12 13  1  0
 13 14  1  0
 14 15  1  0
 15 16  1  0
 16 17  1  0
  9 18  1  0
 18 19  2  0
 19 20  1  0
 20 21  1  0
 21 22  1  0
 21 23  2  0
 20  4  1  0
 19  6  1  0
 17 12  1  0
  1 24  1  0
  5 25  1  0
  7 26  1  0
  8 27  1  0
 10 28  1  0
 10 29  1  0
 11 30  1  0
 11 31  1  0
 13 32  1  0
 13 33  1  0
 14 34  1  0
 14 35  1  0
 15 36  1  0
 15 37  1  0
 16 38  1  0
 16 39  1  0
 17 40  1  0
 17 41  1  0
 18 42  1  0
 22 43  1  0
 22 44  1  0
M  CHG  1   1  -1
M  END
>  <UniqueID>  (80) 
80

>  <SMILES>  (80) 
[NH-]C(=O)c1cc2ccc(CCN3CCCCC3)cc2n1C(N)=O

>  <Energy>  (80) 
86.2400200802093

>  <Genealogy>  (80) 
[NH-]C(=O)c1cc2ccc(CCN3CCCCC3)cc2n1C(N)=O (protonated)
[NH-]C(=O)c1cc2ccc(CCN3CCCCC3)cc2n1C(N)=O (3D coordinates assigned)
[NH-]C(=O)c1cc2ccc(CCN3CCCCC3)cc2n1C(N)=O (nonaromatic ring conformer: 86.2400200802093 kcal/mol)

>  <smiles>  (80) 
NC(=O)c1cc2ccc(CCN3CCCCC3)cc2n1C(N)=O

>  <score_type>  (80) 
oracle

>  <origin>  (80) 
adg

>  <m_score__min__energy>  (80) 
-8.3800000000000008

>  <m_primary>  (80) 
energy

$$$$
80:0
     RDKit          3D

 27 28  0  0  0  0  0  0  0  0999 V2000
  149.5230  160.0990  131.1550 C   0  0  0  0  0  0  0  0  0  0  0  0
  149.3710  159.4850  132.5430 C   0  0  0  0  0  0  0  0  0  0  0  0
  147.9330  159.1360  132.8160 C   0  0  0  0  0  0  0  0  0  0  0  0
  147.4950  157.7930  132.7080 C   0  0  0  0  0  0  0  0  0  0  0  0
  146.1590  157.4520  132.9810 C   0  0  0  0  0  0  0  0  0  0  0  0
  145.2950  158.4690  133.3760 C   0  0  0  0  0  0  0  0  0  0  0  0
  143.9530  158.4200  133.6800 C   0  0  0  0  0  0  0  0  0  0  0  0
  143.6010  159.7280  134.0050 C   0  0  0  0  0  0  0  0  0  0  0  0
  142.2560  160.1110  134.4840 C   0  0  0  0  0  0  0  0  0  0  0  0
  141.4320  160.9920  133.7280 N   0  0  0  0  0  0  0  0  0  0  0  0
  141.8500  159.6920  135.6010 O   0  0  0  0  0  0  0  0  0  0  0  0
  144.6790  160.5560  133.8990 N   0  0  0  0  0  0  0  0  0  0  0  0
  144.7090  161.9840  134.0560 C   0  0  0  0  0  0  0  0  0  0  0  0
  145.5770  162.5250  134.7870 O   0  0  0  0  0  0  0  0  0  0  0  0
  143.7950  162.7830  133.3780 O   0  0  0  0  0  0  0  0  0  0  0  0
  145.7090  159.7680  133.5150 C   0  0  0  0  0  0  0  0  0  0  0  0
  147.0290  160.1390  133.2320 C   0  0  0  0  0  0  0  0  0  0  0  0
  149.7863  161.1627  131.2514 H   0  0  0  0  0  0  0  0  0  0  0  0
  150.3180  159.5727  130.6063 H   0  0  0  0  0  0  0  0  0  0  0  0
  148.5743  160.0044  130.6063 H   0  0  0  0  0  0  0  0  0  0  0  0
  149.9817  158.5721  132.6028 H   0  0  0  0  0  0  0  0  0  0  0  0
  149.7053  160.2177  133.2922 H   0  0  0  0  0  0  0  0  0  0  0  0
  148.2069  157.0100  132.4078 H   0  0  0  0  0  0  0  0  0  0  0  0
  145.8075  156.4141  132.8855 H   0  0  0  0  0  0  0  0  0  0  0  0
  143.2982  157.5362  133.6686 H   0  0  0  0  0  0  0  0  0  0  0  0
  141.8020  161.9010  133.3700 H   0  0  0  0  0  0  0  0  0  0  0  0
  147.3542  161.1852  133.3310 H   0  0  0  0  0  0  0  0  0  0  0  0
  1  2  1  0
  2  3  1  0
  3  4  2  0
  4  5  1  0
  5  6  2  0
  6  7  1  0
  7  8  2  0
  8  9  1  0
  9 10  1  0
  9 11  2  0
  8 12  1  0
 12 13  1  0
 13 14  2  0
 13 15  1  0
 12 16  1  0
 16 17  2  0
 17  3  1  0
 16  6  1  0
  1 18  1  0
  1 19  1  0
  1 20  1  0
  2 21  1  0
  2 22  1  0
  4 23  1  0
  5 24  1  0
  7 25  1  0
 10 26  1  0
 17 27  1  0
M  CHG  2  10  -1  15  -1
M  END
>  <UniqueID>  (81) 
81

>  <SMILES>  (81) 
CCc1ccc2cc(C([NH-])=O)n(C(=O)[O-])c2c1

>  <Energy>  (81) 
63.989797694851866

>  <Genealogy>  (81) 
CCc1ccc2cc(C([NH-])=O)n(C(=O)[O-])c2c1 (protonated)
CCc1ccc2cc(C([NH-])=O)n(C(=O)[O-])c2c1 (3D coordinates assigned)
CCc1ccc2cc(C([NH-])=O)n(C(=O)[O-])c2c1 (optimized conformer: 63.989797694851866 kcal/mol)

>  <smiles>  (81) 
CCc1ccc2cc(C(N)=O)n(C(=O)O)c2c1

>  <score_type>  (81) 
oracle

>  <origin>  (81) 
adg

>  <m_score__min__energy>  (81) 
-5.9900000000000002

>  <m_primary>  (81) 
energy

$$$$
81:0
     RDKit          3D

 42 44  0  0  0  0  0  0  0  0999 V2000
  146.2240  151.7240  131.9090 N   0  0  0  0  0  0  0  0  0  0  0  0
  145.1860  152.4240  132.5970 C   0  0  0  0  0  0  0  0  0  0  0  0
  144.1570  151.7980  132.9640 O   0  0  0  0  0  0  0  0  0  0  0  0
  145.2700  153.8810  132.8260 C   0  0  0  0  0  0  0  0  0  0  0  0
  144.1610  154.7210  132.8110 C   0  0  0  0  0  0  0  0  0  0  0  0
  144.6640  155.9880  132.9930 C   0  0  0  0  0  0  0  0  0  0  0  0
  144.0010  157.2100  133.0670 C   0  0  0  0  0  0  0  0  0  0  0  0
  144.7700  158.3630  133.2930 C   0  0  0  0  0  0  0  0  0  0  0  0
  146.1730  158.2740  133.4600 C   0  0  0  0  0  0  0  0  0  0  0  0
  146.9870  159.5210  133.6790 C   0  0  0  0  0  0  0  0  0  0  0  0
  148.4870  159.2160  133.5130 C   0  0  0  0  0  0  0  0  0  0  0  0
  149.1130  159.7200  132.1920 C   0  0  0  0  0  0  0  0  0  0  0  0
  149.1030  158.6520  131.0750 C   0  0  0  0  0  0  0  0  0  0  0  0
  149.3110  159.2940  129.6900 C   0  0  0  0  0  0  0  0  0  0  0  0
  150.0350  160.5040  129.7990 O   0  0  0  0  0  0  0  0  0  0  0  0
  149.2290  161.5090  130.3980 C   0  0  0  0  0  0  0  0  0  0  0  0
  148.5020  161.0350  131.6800 C   0  0  0  0  0  0  0  0  0  0  0  0
  146.8140  157.0180  133.3690 C   0  0  0  0  0  0  0  0  0  0  0  0
  146.0270  155.8860  133.1210 C   0  0  0  0  0  0  0  0  0  0  0  0
  146.4150  154.5940  133.0230 N   0  0  0  0  0  0  0  0  0  0  0  0
  147.7410  154.0740  133.2180 C   0  0  0  0  0  0  0  0  0  0  0  0
  148.4220  153.6720  132.2390 O   0  0  0  0  0  0  0  0  0  0  0  0
  148.2900  154.0170  134.4940 O   0  0  0  0  0  0  0  0  0  0  0  0
  147.0070  152.2370  131.4500 H   0  0  0  0  0  0  0  0  0  0  0  0
  146.1640  150.6890  131.7870 H   0  0  0  0  0  0  0  0  0  0  0  0
  143.1072  154.4333  132.6813 H   0  0  0  0  0  0  0  0  0  0  0  0
  142.9087  157.2704  132.9520 H   0  0  0  0  0  0  0  0  0  0  0  0
  144.2773  159.3453  133.3408 H   0  0  0  0  0  0  0  0  0  0  0  0
  146.6882  160.2831  132.9442 H   0  0  0  0  0  0  0  0  0  0  0  0
  146.8078  159.8906  134.6994 H   0  0  0  0  0  0  0  0  0  0  0  0
  149.0258  159.6878  134.3480 H   0  0  0  0  0  0  0  0  0  0  0  0
  148.5785  158.1199  133.4986 H   0  0  0  0  0  0  0  0  0  0  0  0
  150.1608  159.9297  132.4530 H   0  0  0  0  0  0  0  0  0  0  0  0
  149.9119  157.9301  131.2612 H   0  0  0  0  0  0  0  0  0  0  0  0
  148.1251  158.1484  131.0827 H   0  0  0  0  0  0  0  0  0  0  0  0
  149.8702  158.5960  129.0496 H   0  0  0  0  0  0  0  0  0  0  0  0
  148.3259  159.5118  129.2517 H   0  0  0  0  0  0  0  0  0  0  0  0
  149.8726  162.3623  130.6580 H   0  0  0  0  0  0  0  0  0  0  0  0
  148.4527  161.7794  129.6671 H   0  0  0  0  0  0  0  0  0  0  0  0
  148.6002  161.8066  132.4578 H   0  0  0  0  0  0  0  0  0  0  0  0
  147.4409  160.8658  131.4447 H   0  0  0  0  0  0  0  0  0  0  0  0
  147.9039  156.9313  133.4899 H   0  0  0  0  0  0  0  0  0  0  0  0
  1  2  1  0
  2  3  2  0
  2  4  1  0
  4  5  2  0
  5  6  1  0
  6  7  2  0
  7  8  1  0
  8  9  2  0
  9 10  1  0
 10 11  1  0
 11 12  1  0
 12 13  1  0
 13 14  1  0
 14 15  1  0
 15 16  1  0
 16 17  1  0
  9 18  1  0
 18 19  2  0
 19 20  1  0
 20 21  1  0
 21 22  2  0
 21 23  1  0
 20  4  1  0
 19  6  1  0
 17 12  1  0
  1 24  1  0
  1 25  1  0
  5 26  1  0
  7 27  1  0
  8 28  1  0
 10 29  1  0
 10 30  1  0
 11 31  1  0
 11 32  1  0
 12 33  1  0
 13 34  1  0
 13 35  1  0
 14 36  1  0
 14 37  1  0
 16 38  1  0
 16 39  1  0
 17 40  1  0
 17 41  1  0
 18 42  1  0
M  CHG  1  23  -1
M  END
>  <UniqueID>  (82) 
82

>  <SMILES>  (82) 
NC(=O)c1cc2ccc(CCC3CCOCC3)cc2n1C(=O)[O-]

>  <Energy>  (82) 
87.97281148750453

>  <Genealogy>  (82) 
NC(=O)c1cc2ccc(CCC3CCOCC3)cc2n1C(=O)[O-] (protonated)
NC(=O)c1cc2ccc(CCC3CCOCC3)cc2n1C(=O)[O-] (3D coordinates assigned)
NC(=O)c1cc2ccc(CCC3CCOCC3)cc2n1C(=O)[O-] (nonaromatic ring conformer: 87.97281148750453 kcal/mol)

>  <smiles>  (82) 
NC(=O)c1cc2ccc(CCC3CCOCC3)cc2n1C(=O)O

>  <score_type>  (82) 
oracle

>  <origin>  (82) 
adg

>  <m_score__min__energy>  (82) 
-8.1999999999999993

>  <m_primary>  (82) 
energy

$$$$
82:0
     RDKit          3D

 36 38  0  0  0  0  0  0  0  0999 V2000
  141.7120  157.3880  137.0060 C   0  0  0  0  0  0  0  0  0  0  0  0
  141.1540  158.5650  136.2660 C   0  0  0  0  0  0  0  0  0  0  0  0
  141.2770  159.7130  136.7730 O   0  0  0  0  0  0  0  0  0  0  0  0
  140.5020  158.4210  134.9420 C   0  0  0  0  0  0  0  0  0  0  0  0
  139.2080  157.8710  134.8970 C   0  0  0  0  0  0  0  0  0  0  0  0
  138.5150  157.7780  133.6890 C   0  0  0  0  0  0  0  0  0  0  0  0
  139.1030  158.2300  132.5090 C   0  0  0  0  0  0  0  0  0  0  0  0
  140.3950  158.7570  132.5280 C   0  0  0  0  0  0  0  0  0  0  0  0
  141.1150  158.8460  133.7320 C   0  0  0  0  0  0  0  0  0  0  0  0
  142.5190  159.3150  133.6790 C   0  0  0  0  0  0  0  0  0  0  0  0
  142.8110  160.6960  133.7990 C   0  0  0  0  0  0  0  0  0  0  0  0
  144.1370  161.1560  133.7340 C   0  0  0  0  0  0  0  0  0  0  0  0
  145.1440  160.2140  133.5480 C   0  0  0  0  0  0  0  0  0  0  0  0
  146.5040  160.3870  133.4290 C   0  0  0  0  0  0  0  0  0  0  0  0
  147.0250  159.1060  133.2490 C   0  0  0  0  0  0  0  0  0  0  0  0
  148.4730  158.8230  133.1630 C   0  0  0  0  0  0  0  0  0  0  0  0
  149.0400  158.4000  131.9260 N   0  0  0  0  0  0  0  0  0  0  0  0
  149.2230  158.9840  134.1620 O   0  0  0  0  0  0  0  0  0  0  0  0
  146.0240  158.1790  133.2490 N   0  0  0  0  0  0  0  0  0  0  0  0
  146.1330  156.7610  133.0400 C   0  0  0  0  0  0  0  0  0  0  0  0
  145.3530  155.9680  133.6300 O   0  0  0  0  0  0  0  0  0  0  0  0
  147.1190  156.2500  132.2040 O   0  0  0  0  0  0  0  0  0  0  0  0
  144.8810  158.8740  133.4350 C   0  0  0  0  0  0  0  0  0  0  0  0
  143.5670  158.3900  133.4740 C   0  0  0  0  0  0  0  0  0  0  0  0
  141.6291  157.5628  138.0888 H   0  0  0  0  0  0  0  0  0  0  0  0
  141.1467  156.4837  136.7362 H   0  0  0  0  0  0  0  0  0  0  0  0
  142.7699  157.2532  136.7362 H   0  0  0  0  0  0  0  0  0  0  0  0
  138.7374  157.5104  135.8236 H   0  0  0  0  0  0  0  0  0  0  0  0
  137.5031  157.3472  133.6683 H   0  0  0  0  0  0  0  0  0  0  0  0
  138.5478  158.1712  131.5612 H   0  0  0  0  0  0  0  0  0  0  0  0
  140.8545  159.1062  131.5916 H   0  0  0  0  0  0  0  0  0  0  0  0
  141.9916  161.4153  133.9445 H   0  0  0  0  0  0  0  0  0  0  0  0
  144.3715  162.2267  133.8272 H   0  0  0  0  0  0  0  0  0  0  0  0
  147.0617  161.3344  133.4676 H   0  0  0  0  0  0  0  0  0  0  0  0
  148.7660  157.4910  131.4930 H   0  0  0  0  0  0  0  0  0  0  0  0
  143.3566  157.3176  133.3483 H   0  0  0  0  0  0  0  0  0  0  0  0
  1  2  1  0
  2  3  2  0
  2  4  1  0
  4  5  2  0
  5  6  1  0
  6  7  2  0
  7  8  1  0
  8  9  2  0
  9 10  1  0
 10 11  2  0
 11 12  1  0
 12 13  2  0
 13 14  1  0
 14 15  2  0
 15 16  1  0
 16 17  1  0
 16 18  2  0
 15 19  1  0
 19 20  1  0
 20 21  2  0
 20 22  1  0
 19 23  1  0
 23 24  2  0
  9  4  1  0
 24 10  1  0
 23 13  1  0
  1 25  1  0
  1 26  1  0
  1 27  1  0
  5 28  1  0
  6 29  1  0
  7 30  1  0
  8 31  1  0
 11 32  1  0
 12 33  1  0
 14 34  1  0
 17 35  1  0
 24 36  1  0
M  CHG  2  17  -1  22  -1
M  END
>  <UniqueID>  (83) 
83

>  <SMILES>  (83) 
CC(=O)c1ccccc1-c1ccc2cc(C([NH-])=O)n(C(=O)[O-])c2c1

>  <Energy>  (83) 
88.57046839546155

>  <Genealogy>  (83) 
CC(=O)c1ccccc1-c1ccc2cc(C([NH-])=O)n(C(=O)[O-])c2c1 (protonated)
CC(=O)c1ccccc1-c1ccc2cc(C([NH-])=O)n(C(=O)[O-])c2c1 (3D coordinates assigned)
CC(=O)c1ccccc1-c1ccc2cc(C([NH-])=O)n(C(=O)[O-])c2c1 (optimized conformer: 88.57046839546155 kcal/mol)

>  <smiles>  (83) 
CC(=O)c1ccccc1-c1ccc2cc(C(N)=O)n(C(=O)O)c2c1

>  <score_type>  (83) 
oracle

>  <origin>  (83) 
adg

>  <m_score__min__energy>  (83) 
-7.9299999999999997

>  <m_primary>  (83) 
energy

$$$$
83:0
     RDKit          3D

 40 42  0  0  0  0  0  0  0  0999 V2000
  148.9200  161.9270  130.7340 C   0  0  0  0  0  0  0  0  0  0  0  0
  149.2370  160.5060  130.9170 N   0  0  0  0  0  0  0  0  0  0  0  0
  150.2690  159.8790  130.0820 C   0  0  0  0  0  0  0  0  0  0  0  0
  148.5170  159.7490  131.9200 C   0  0  0  0  0  0  0  0  0  0  0  0
  147.1320  159.9170  132.1260 C   0  0  0  0  0  0  0  0  0  0  0  0
  146.4690  159.1610  133.1090 C   0  0  0  0  0  0  0  0  0  0  0  0
  145.0120  159.3310  133.3360 C   0  0  0  0  0  0  0  0  0  0  0  0
  144.4720  160.6180  133.5900 C   0  0  0  0  0  0  0  0  0  0  0  0
  143.0970  160.7870  133.8230 C   0  0  0  0  0  0  0  0  0  0  0  0
  142.2840  159.6600  133.7840 C   0  0  0  0  0  0  0  0  0  0  0  0
  140.9320  159.5390  134.0100 C   0  0  0  0  0  0  0  0  0  0  0  0
  140.6550  158.1830  133.8580 C   0  0  0  0  0  0  0  0  0  0  0  0
  139.2960  157.6150  133.9660 C   0  0  0  0  0  0  0  0  0  0  0  0
  138.9250  156.4390  133.2470 N   0  0  0  0  0  0  0  0  0  0  0  0
  138.4310  158.2090  134.6650 O   0  0  0  0  0  0  0  0  0  0  0  0
  141.7900  157.4890  133.5610 N   0  0  0  0  0  0  0  0  0  0  0  0
  141.9330  156.0630  133.4460 C   0  0  0  0  0  0  0  0  0  0  0  0
  143.0510  155.5020  132.7630 N   0  0  0  0  0  0  0  0  0  0  0  0
  141.0620  155.2980  133.9420 O   0  0  0  0  0  0  0  0  0  0  0  0
  142.7810  158.4090  133.5190 C   0  0  0  0  0  0  0  0  0  0  0  0
  144.1500  158.2070  133.3090 C   0  0  0  0  0  0  0  0  0  0  0  0
  147.2090  158.2450  133.8710 C   0  0  0  0  0  0  0  0  0  0  0  0
  148.5760  158.1020  133.6440 C   0  0  0  0  0  0  0  0  0  0  0  0
  149.1900  158.8460  132.6890 N   0  0  0  0  0  0  0  0  0  0  0  0
  148.8126  162.4083  131.7173 H   0  0  0  0  0  0  0  0  0  0  0  0
  149.7315  162.4145  130.1738 H   0  0  0  0  0  0  0  0  0  0  0  0
  147.9783  162.0234  130.1738 H   0  0  0  0  0  0  0  0  0  0  0  0
  151.0308  159.4161  130.7265 H   0  0  0  0  0  0  0  0  0  0  0  0
  149.8083  159.1080  129.4469 H   0  0  0  0  0  0  0  0  0  0  0  0
  150.7410  160.6431  129.4469 H   0  0  0  0  0  0  0  0  0  0  0  0
  146.5697  160.6402  131.5171 H   0  0  0  0  0  0  0  0  0  0  0  0
  145.1376  161.4937  133.6047 H   0  0  0  0  0  0  0  0  0  0  0  0
  142.6760  161.7819  134.0302 H   0  0  0  0  0  0  0  0  0  0  0  0
  140.2220  160.3418  134.2577 H   0  0  0  0  0  0  0  0  0  0  0  0
  137.9740  156.0290  133.3690 H   0  0  0  0  0  0  0  0  0  0  0  0
  139.5580  156.0240  132.5270 H   0  0  0  0  0  0  0  0  0  0  0  0
  143.2370  155.7310  131.7620 H   0  0  0  0  0  0  0  0  0  0  0  0
  144.5479  157.1977  133.1270 H   0  0  0  0  0  0  0  0  0  0  0  0
  146.7118  157.6418  134.6449 H   0  0  0  0  0  0  0  0  0  0  0  0
  149.1592  157.3846  134.2400 H   0  0  0  0  0  0  0  0  0  0  0  0
  1  2  1  0
  2  3  1  0
  2  4  1  0
  4  5  2  0
  5  6  1  0
  6  7  1  0
  7  8  2  0
  8  9  1  0
  9 10  2  0
 10 11  1  0
 11 12  2  0
 12 13  1  0
 13 14  1  0
 13 15  2  0
 12 16  1  0
 16 17  1  0
 17 18  1  0
 17 19  2  0
 16 20  1  0
 20 21  2  0
  6 22  2  0
 22 23  1  0
 23 24  2  0
 24  4  1  0
 21  7  1  0
 20 10  1  0
  1 25  1  0
  1 26  1  0
  1 27  1  0
  3 28  1  0
  3 29  1  0
  3 30  1  0
  5 31  1  0
  8 32  1  0
  9 33  1  0
 11 34  1  0
 14 35  1  0
 14 36  1  0
 18 37  1  0
 21 38  1  0
 22 39  1  0
 23 40  1  0
M  CHG  1  18  -1
M  END
>  <UniqueID>  (84) 
84

>  <SMILES>  (84) 
CN(C)c1cc(-c2ccc3cc(C(N)=O)n(C([NH-])=O)c3c2)ccn1

>  <Energy>  (84) 
87.12656169357692

>  <Genealogy>  (84) 
CN(C)c1cc(-c2ccc3cc(C(N)=O)n(C([NH-])=O)c3c2)ccn1 (protonated)
CN(C)c1cc(-c2ccc3cc(C(N)=O)n(C([NH-])=O)c3c2)ccn1 (3D coordinates assigned)
CN(C)c1cc(-c2ccc3cc(C(N)=O)n(C([NH-])=O)c3c2)ccn1 (optimized conformer: 87.12656169357692 kcal/mol)

>  <smiles>  (84) 
CN(C)c1cc(-c2ccc3cc(C(N)=O)n(C(N)=O)c3c2)ccn1

>  <score_type>  (84) 
oracle

>  <origin>  (84) 
adg

>  <m_score__min__energy>  (84) 
-8.1600000000000001

>  <m_primary>  (84) 
energy

$$$$
84:0
     RDKit          3D

 34 35  0  0  0  0  0  0  0  0999 V2000
  139.1330  149.3500  130.1190 C   0  0  0  0  0  0  0  0  0  0  0  0
  139.8410  150.3130  130.8660 O   0  0  0  0  0  0  0  0  0  0  0  0
  140.3450  149.7160  132.0410 C   0  0  0  0  0  0  0  0  0  0  0  0
  141.1120  150.7570  132.8610 C   0  0  0  0  0  0  0  0  0  0  0  0
  141.0460  152.0850  132.2330 N   0  0  0  0  0  0  0  0  0  0  0  0
  141.3010  153.1070  133.2170 C   0  0  0  0  0  0  0  0  0  0  0  0
  142.2740  152.8960  134.2290 C   0  0  0  0  0  0  0  0  0  0  0  0
  142.5460  153.8910  135.1820 C   0  0  0  0  0  0  0  0  0  0  0  0
  141.8450  155.0900  135.0920 C   0  0  0  0  0  0  0  0  0  0  0  0
  141.8990  156.2080  135.8910 C   0  0  0  0  0  0  0  0  0  0  0  0
  140.9830  157.1020  135.3390 C   0  0  0  0  0  0  0  0  0  0  0  0
  140.7860  158.4770  135.8430 C   0  0  0  0  0  0  0  0  0  0  0  0
  140.4400  158.6890  137.2100 N   0  0  0  0  0  0  0  0  0  0  0  0
  140.9560  159.4710  135.0890 O   0  0  0  0  0  0  0  0  0  0  0  0
  140.3810  156.5560  134.2450 N   0  0  0  0  0  0  0  0  0  0  0  0
  139.3330  157.1250  133.4430 C   0  0  0  0  0  0  0  0  0  0  0  0
  139.2940  156.9110  132.2020 O   0  0  0  0  0  0  0  0  0  0  0  0
  138.3380  157.8950  134.0300 O   0  0  0  0  0  0  0  0  0  0  0  0
  140.9220  155.3240  134.1050 C   0  0  0  0  0  0  0  0  0  0  0  0
  140.6180  154.3440  133.1530 C   0  0  0  0  0  0  0  0  0  0  0  0
  138.6232  148.6567  130.8041 H   0  0  0  0  0  0  0  0  0  0  0  0
  138.3880  149.8529  129.4849 H   0  0  0  0  0  0  0  0  0  0  0  0
  139.8352  148.7889  129.4849 H   0  0  0  0  0  0  0  0  0  0  0  0
  139.5094  149.3231  132.6388 H   0  0  0  0  0  0  0  0  0  0  0  0
  141.0238  148.8941  131.7696 H   0  0  0  0  0  0  0  0  0  0  0  0
  140.6731  150.8145  133.8680 H   0  0  0  0  0  0  0  0  0  0  0  0
  142.1668  150.4495  132.9136 H   0  0  0  0  0  0  0  0  0  0  0  0
  141.7560  152.1510  131.4660 H   0  0  0  0  0  0  0  0  0  0  0  0
  140.1000  152.2350  131.8100 H   0  0  0  0  0  0  0  0  0  0  0  0
  142.8210  151.9424  134.2671 H   0  0  0  0  0  0  0  0  0  0  0  0
  143.2903  153.7277  135.9753 H   0  0  0  0  0  0  0  0  0  0  0  0
  142.5310  156.3637  136.7777 H   0  0  0  0  0  0  0  0  0  0  0  0
  139.4810  159.0010  137.4790 H   0  0  0  0  0  0  0  0  0  0  0  0
  139.8653  154.5315  132.3731 H   0  0  0  0  0  0  0  0  0  0  0  0
  1  2  1  0
  2  3  1  0
  3  4  1  0
  4  5  1  0
  5  6  1  0
  6  7  2  0
  7  8  1  0
  8  9  2  0
  9 10  1  0
 10 11  2  0
 11 12  1  0
 12 13  1  0
 12 14  2  0
 11 15  1  0
 15 16  1  0
 16 17  2  0
 16 18  1  0
 15 19  1  0
 19 20  2  0
 20  6  1  0
 19  9  1  0
  1 21  1  0
  1 22  1  0
  1 23  1  0
  3 24  1  0
  3 25  1  0
  4 26  1  0
  4 27  1  0
  5 28  1  0
  5 29  1  0
  7 30  1  0
  8 31  1  0
 10 32  1  0
 13 33  1  0
 20 34  1  0
M  CHG  3   5   1  13  -1  18  -1
M  END
>  <UniqueID>  (85) 
85

>  <SMILES>  (85) 
COCC[NH2+]c1ccc2cc(C([NH-])=O)n(C(=O)[O-])c2c1

>  <Energy>  (85) 
72.6154108204742

>  <Genealogy>  (85) 
COCC[NH2+]c1ccc2cc(C([NH-])=O)n(C(=O)[O-])c2c1 (protonated)
COCC[NH2+]c1ccc2cc(C([NH-])=O)n(C(=O)[O-])c2c1 (3D coordinates assigned)
COCC[NH2+]c1ccc2cc(C([NH-])=O)n(C(=O)[O-])c2c1 (optimized conformer: 72.6154108204742 kcal/mol)

>  <smiles>  (85) 
COCCNc1ccc2cc(C(N)=O)n(C(=O)O)c2c1

>  <score_type>  (85) 
oracle

>  <origin>  (85) 
adg

>  <m_score__min__energy>  (85) 
-5.7800000000000002

>  <m_primary>  (85) 
energy

$$$$
85:0
     RDKit          3D

 41 42  0  0  0  0  0  0  0  0999 V2000
  144.9240  154.4850  135.3020 C   0  0  0  0  0  0  0  0  0  0  0  0
  144.1430  154.3610  134.0690 N   0  0  0  0  0  0  0  0  0  0  0  0
  144.8180  153.9350  132.8400 C   0  0  0  0  0  0  0  0  0  0  0  0
  142.7330  154.6660  134.0740 C   0  0  0  0  0  0  0  0  0  0  0  0
  141.9840  154.2260  133.1590 O   0  0  0  0  0  0  0  0  0  0  0  0
  142.1590  155.4640  135.1210 N   0  0  0  0  0  0  0  0  0  0  0  0
  141.9650  156.8120  135.1270 C   0  0  0  0  0  0  0  0  0  0  0  0
  142.2190  157.7140  133.9780 C   0  0  0  0  0  0  0  0  0  0  0  0
  142.1860  157.2230  132.6340 N   0  0  0  0  0  0  0  0  0  0  0  0
  142.4850  158.9300  134.1770 O   0  0  0  0  0  0  0  0  0  0  0  0
  141.4310  157.2130  136.3520 C   0  0  0  0  0  0  0  0  0  0  0  0
  141.3170  156.0600  137.0970 C   0  0  0  0  0  0  0  0  0  0  0  0
  140.8430  155.8710  138.3900 C   0  0  0  0  0  0  0  0  0  0  0  0
  140.8420  154.5650  138.9070 C   0  0  0  0  0  0  0  0  0  0  0  0
  141.3120  153.4620  138.1340 C   0  0  0  0  0  0  0  0  0  0  0  0
  141.2950  152.0530  138.7550 C   0  0  0  0  0  0  0  0  0  0  0  0
  142.7050  151.4630  138.9700 C   0  0  0  0  0  0  0  0  0  0  0  0
  140.5940  152.1350  140.1270 C   0  0  0  0  0  0  0  0  0  0  0  0
  140.5490  151.0960  137.8440 C   0  0  0  0  0  0  0  0  0  0  0  0
  139.6020  150.3980  138.2940 O   0  0  0  0  0  0  0  0  0  0  0  0
  140.8360  151.0420  136.4850 O   0  0  0  0  0  0  0  0  0  0  0  0
  141.8020  153.7140  136.8220 C   0  0  0  0  0  0  0  0  0  0  0  0
  141.7690  155.0220  136.3320 C   0  0  0  0  0  0  0  0  0  0  0  0
  144.2573  154.3791  136.1705 H   0  0  0  0  0  0  0  0  0  0  0  0
  145.6914  153.6975  135.3307 H   0  0  0  0  0  0  0  0  0  0  0  0
  145.4097  155.4715  135.3307 H   0  0  0  0  0  0  0  0  0  0  0  0
  145.7224  153.3642  133.0974 H   0  0  0  0  0  0  0  0  0  0  0  0
  144.1398  153.3010  132.2501 H   0  0  0  0  0  0  0  0  0  0  0  0
  145.0985  154.8200  132.2501 H   0  0  0  0  0  0  0  0  0  0  0  0
  142.4200  157.8600  131.8420 H   0  0  0  0  0  0  0  0  0  0  0  0
  141.8930  156.2460  132.4110 H   0  0  0  0  0  0  0  0  0  0  0  0
  141.1587  158.2338  136.6581 H   0  0  0  0  0  0  0  0  0  0  0  0
  140.4798  156.7184  138.9900 H   0  0  0  0  0  0  0  0  0  0  0  0
  140.4716  154.3893  139.9278 H   0  0  0  0  0  0  0  0  0  0  0  0
  142.9067  151.3786  140.0481 H   0  0  0  0  0  0  0  0  0  0  0  0
  142.7599  150.4664  138.5076 H   0  0  0  0  0  0  0  0  0  0  0  0
  143.4533  152.1235  138.5076 H   0  0  0  0  0  0  0  0  0  0  0  0
  141.3434  152.0473  140.9275 H   0  0  0  0  0  0  0  0  0  0  0  0
  140.0738  153.1001  140.2158 H   0  0  0  0  0  0  0  0  0  0  0  0
  139.8651  151.3160  140.2158 H   0  0  0  0  0  0  0  0  0  0  0  0
  142.1993  152.8944  136.2052 H   0  0  0  0  0  0  0  0  0  0  0  0
  1  2  1  0
  2  3  1  0
  2  4  1  0
  4  5  2  0
  4  6  1  0
  6  7  1  0
  7  8  1  0
  8  9  1  0
  8 10  2  0
  7 11  2  0
 11 12  1  0
 12 13  2  0
 13 14  1  0
 14 15  2  0
 15 16  1  0
 16 17  1  0
 16 18  1  0
 16 19  1  0
 19 20  2  0
 19 21  1  0
 15 22  1  0
 22 23  2  0
 23  6  1  0
 23 12  1  0
  1 24  1  0
  1 25  1  0
  1 26  1  0
  3 27  1  0
  3 28  1  0
  3 29  1  0
  9 30  1  0
  9 31  1  0
 11 32  1  0
 13 33  1  0
 14 34  1  0
 17 35  1  0
 17 36  1  0
 17 37  1  0
 18 38  1  0
 18 39  1  0
 18 40  1  0
 22 41  1  0
M  CHG  1  21  -1
M  END
>  <UniqueID>  (86) 
86

>  <SMILES>  (86) 
CN(C)C(=O)n1c(C(N)=O)cc2ccc(C(C)(C)C(=O)[O-])cc21

>  <Energy>  (86) 
82.09425703148845

>  <Genealogy>  (86) 
CN(C)C(=O)n1c(C(N)=O)cc2ccc(C(C)(C)C(=O)[O-])cc21 (protonated)
CN(C)C(=O)n1c(C(N)=O)cc2ccc(C(C)(C)C(=O)[O-])cc21 (3D coordinates assigned)
CN(C)C(=O)n1c(C(N)=O)cc2ccc(C(C)(C)C(=O)[O-])cc21 (optimized conformer: 82.09425703148845 kcal/mol)

>  <smiles>  (86) 
CN(C)C(=O)n1c(C(N)=O)cc2ccc(C(C)(C)C(=O)O)cc21

>  <score_type>  (86) 
oracle

>  <origin>  (86) 
adg

>  <m_score__min__energy>  (86) 
-6.9800000000000004

>  <m_primary>  (86) 
energy

$$$$
86:0
     RDKit          3D

 30 31  0  0  0  0  0  0  0  0999 V2000
  149.2480  161.4220  130.3760 C   0  0  0  0  0  0  0  0  0  0  0  0
  149.4980  159.9640  130.7580 C   0  0  0  0  0  0  0  0  0  0  0  0
  149.3830  159.7250  132.2700 C   0  0  0  0  0  0  0  0  0  0  0  0
  147.9900  159.3150  132.6710 C   0  0  0  0  0  0  0  0  0  0  0  0
  147.6040  157.9520  132.6200 C   0  0  0  0  0  0  0  0  0  0  0  0
  146.3040  157.5620  132.9800 C   0  0  0  0  0  0  0  0  0  0  0  0
  145.4110  158.5540  133.3750 C   0  0  0  0  0  0  0  0  0  0  0  0
  144.1050  158.4520  133.7950 C   0  0  0  0  0  0  0  0  0  0  0  0
  143.7010  159.7580  134.0680 C   0  0  0  0  0  0  0  0  0  0  0  0
  142.3240  160.1130  134.4700 C   0  0  0  0  0  0  0  0  0  0  0  0
  141.5290  160.9860  133.6720 N   0  0  0  0  0  0  0  0  0  0  0  0
  141.8260  159.5990  135.5060 O   0  0  0  0  0  0  0  0  0  0  0  0
  144.7210  160.6330  133.8340 N   0  0  0  0  0  0  0  0  0  0  0  0
  144.7400  162.0500  134.0710 C   0  0  0  0  0  0  0  0  0  0  0  0
  145.5890  162.5530  134.8530 O   0  0  0  0  0  0  0  0  0  0  0  0
  143.8380  162.8820  133.4200 O   0  0  0  0  0  0  0  0  0  0  0  0
  145.7600  159.8800  133.4070 C   0  0  0  0  0  0  0  0  0  0  0  0
  147.0540  160.2940  133.0720 C   0  0  0  0  0  0  0  0  0  0  0  0
  149.1442  162.0275  131.2885 H   0  0  0  0  0  0  0  0  0  0  0  0
  150.0951  161.7959  129.7823 H   0  0  0  0  0  0  0  0  0  0  0  0
  148.3247  161.4923  129.7823 H   0  0  0  0  0  0  0  0  0  0  0  0
  148.7584  159.3327  130.2437 H   0  0  0  0  0  0  0  0  0  0  0  0
  150.5251  159.7106  130.4565 H   0  0  0  0  0  0  0  0  0  0  0  0
  150.0847  158.9285  132.5582 H   0  0  0  0  0  0  0  0  0  0  0  0
  149.6208  160.6687  132.7827 H   0  0  0  0  0  0  0  0  0  0  0  0
  148.3301  157.1922  132.2952 H   0  0  0  0  0  0  0  0  0  0  0  0
  146.0006  156.5051  132.9508 H   0  0  0  0  0  0  0  0  0  0  0  0
  143.5064  157.5345  133.8944 H   0  0  0  0  0  0  0  0  0  0  0  0
  141.9060  161.9010  133.3390 H   0  0  0  0  0  0  0  0  0  0  0  0
  147.3356  161.3563  133.1198 H   0  0  0  0  0  0  0  0  0  0  0  0
  1  2  1  0
  2  3  1  0
  3  4  1  0
  4  5  2  0
  5  6  1  0
  6  7  2  0
  7  8  1  0
  8  9  2  0
  9 10  1  0
 10 11  1  0
 10 12  2  0
  9 13  1  0
 13 14  1  0
 14 15  2  0
 14 16  1  0
 13 17  1  0
 17 18  2  0
 18  4  1  0
 17  7  1  0
  1 19  1  0
  1 20  1  0
  1 21  1  0
  2 22  1  0
  2 23  1  0
  3 24  1  0
  3 25  1  0
  5 26  1  0
  6 27  1  0
  8 28  1  0
 11 29  1  0
 18 30  1  0
M  CHG  2  11  -1  16  -1
M  END
>  <UniqueID>  (87) 
87

>  <SMILES>  (87) 
CCCc1ccc2cc(C([NH-])=O)n(C(=O)[O-])c2c1

>  <Energy>  (87) 
65.21369741837057

>  <Genealogy>  (87) 
CCCc1ccc2cc(C([NH-])=O)n(C(=O)[O-])c2c1 (protonated)
CCCc1ccc2cc(C([NH-])=O)n(C(=O)[O-])c2c1 (3D coordinates assigned)
CCCc1ccc2cc(C([NH-])=O)n(C(=O)[O-])c2c1 (optimized conformer: 65.21369741837057 kcal/mol)

>  <smiles>  (87) 
CCCc1ccc2cc(C(N)=O)n(C(=O)O)c2c1

>  <score_type>  (87) 
oracle

>  <origin>  (87) 
adg

>  <m_score__min__energy>  (87) 
-6.5800000000000001

>  <m_primary>  (87) 
energy

$$$$
87:0
     RDKit          3D

 30 31  0  0  0  0  0  0  0  0999 V2000
  149.2730  161.9230  130.3370 C   0  0  0  0  0  0  0  0  0  0  0  0
  149.9410  160.9540  131.1350 O   0  0  0  0  0  0  0  0  0  0  0  0
  149.4050  159.6870  131.3860 C   0  0  0  0  0  0  0  0  0  0  0  0
  149.0380  158.9440  130.4360 O   0  0  0  0  0  0  0  0  0  0  0  0
  149.2220  159.2350  132.7990 C   0  0  0  0  0  0  0  0  0  0  0  0
  147.7640  158.9910  133.0740 C   0  0  0  0  0  0  0  0  0  0  0  0
  147.2360  157.6780  133.0010 C   0  0  0  0  0  0  0  0  0  0  0  0
  145.8700  157.4420  133.2280 C   0  0  0  0  0  0  0  0  0  0  0  0
  145.0580  158.5370  133.5140 C   0  0  0  0  0  0  0  0  0  0  0  0
  143.7100  158.5930  133.7820 C   0  0  0  0  0  0  0  0  0  0  0  0
  143.4290  159.9420  133.9830 C   0  0  0  0  0  0  0  0  0  0  0  0
  142.0610  160.4580  134.1950 C   0  0  0  0  0  0  0  0  0  0  0  0
  141.1270  159.7450  135.0000 N   0  0  0  0  0  0  0  0  0  0  0  0
  141.7350  161.5740  133.7100 O   0  0  0  0  0  0  0  0  0  0  0  0
  144.5630  160.6910  133.8610 N   0  0  0  0  0  0  0  0  0  0  0  0
  144.7390  162.0990  134.0920 C   0  0  0  0  0  0  0  0  0  0  0  0
  145.5750  162.5180  134.9350 O   0  0  0  0  0  0  0  0  0  0  0  0
  145.5490  159.8150  133.5640 C   0  0  0  0  0  0  0  0  0  0  0  0
  146.9070  160.0790  133.3530 C   0  0  0  0  0  0  0  0  0  0  0  0
  148.7704  162.6520  130.9896 H   0  0  0  0  0  0  0  0  0  0  0  0
  150.0054  162.4430  129.7020 H   0  0  0  0  0  0  0  0  0  0  0  0
  148.5264  161.4235  129.7020 H   0  0  0  0  0  0  0  0  0  0  0  0
  149.7843  158.3033  132.9595 H   0  0  0  0  0  0  0  0  0  0  0  0
  149.5930  160.0155  133.4796 H   0  0  0  0  0  0  0  0  0  0  0  0
  147.9023  156.8354  132.7643 H   0  0  0  0  0  0  0  0  0  0  0  0
  145.4546  156.4245  133.1814 H   0  0  0  0  0  0  0  0  0  0  0  0
  143.0038  157.7509  133.8278 H   0  0  0  0  0  0  0  0  0  0  0  0
  140.2770  159.3090  134.5780 H   0  0  0  0  0  0  0  0  0  0  0  0
  144.1342  162.8210  133.5237 H   0  0  0  0  0  0  0  0  0  0  0  0
  147.2968  161.1064  133.4030 H   0  0  0  0  0  0  0  0  0  0  0  0
  1  2  1  0
  2  3  1  0
  3  4  2  0
  3  5  1  0
  5  6  1  0
  6  7  2  0
  7  8  1  0
  8  9  2  0
  9 10  1  0
 10 11  2  0
 11 12  1  0
 12 13  1  0
 12 14  2  0
 11 15  1  0
 15 16  1  0
 16 17  2  0
 15 18  1  0
 18 19  2  0
 19  6  1  0
 18  9  1  0
  1 20  1  0
  1 21  1  0
  1 22  1  0
  5 23  1  0
  5 24  1  0
  7 25  1  0
  8 26  1  0
 10 27  1  0
 13 28  1  0
 16 29  1  0
 19 30  1  0
M  CHG  1  13  -1
M  END
>  <UniqueID>  (88) 
88

>  <SMILES>  (88) 
COC(=O)Cc1ccc2cc(C([NH-])=O)n(C=O)c2c1

>  <Energy>  (88) 
64.87032549945394

>  <Genealogy>  (88) 
COC(=O)Cc1ccc2cc(C([NH-])=O)n(C=O)c2c1 (protonated)
COC(=O)Cc1ccc2cc(C([NH-])=O)n(C=O)c2c1 (3D coordinates assigned)
COC(=O)Cc1ccc2cc(C([NH-])=O)n(C=O)c2c1 (optimized conformer: 64.87032549945394 kcal/mol)

>  <smiles>  (88) 
COC(=O)Cc1ccc2cc(C(N)=O)n(C=O)c2c1

>  <score_type>  (88) 
oracle

>  <origin>  (88) 
adg

>  <m_score__min__energy>  (88) 
-6.0899999999999999

>  <m_primary>  (88) 
energy

$$$$
88:0
     RDKit          3D

 35 37  0  0  0  0  0  0  0  0999 V2000
  144.3340  155.0650  132.6270 C   0  0  0  0  0  0  0  0  0  0  0  0
  145.0870  155.9240  133.4730 O   0  0  0  0  0  0  0  0  0  0  0  0
  146.0900  156.7710  132.9900 C   0  0  0  0  0  0  0  0  0  0  0  0
  147.1070  156.2890  132.4190 O   0  0  0  0  0  0  0  0  0  0  0  0
  145.9470  158.1940  133.1220 N   0  0  0  0  0  0  0  0  0  0  0  0
  146.9380  159.1270  133.1910 C   0  0  0  0  0  0  0  0  0  0  0  0
  148.3760  158.8830  132.9610 C   0  0  0  0  0  0  0  0  0  0  0  0
  148.8490  158.4030  131.7050 N   0  0  0  0  0  0  0  0  0  0  0  0
  149.2070  159.1490  133.8710 O   0  0  0  0  0  0  0  0  0  0  0  0
  146.4030  160.3910  133.4300 C   0  0  0  0  0  0  0  0  0  0  0  0
  145.0410  160.2050  133.4970 C   0  0  0  0  0  0  0  0  0  0  0  0
  144.0220  161.1240  133.7270 C   0  0  0  0  0  0  0  0  0  0  0  0
  142.7020  160.6470  133.7760 C   0  0  0  0  0  0  0  0  0  0  0  0
  142.4280  159.2660  133.6080 C   0  0  0  0  0  0  0  0  0  0  0  0
  141.0330  158.7760  133.6670 C   0  0  0  0  0  0  0  0  0  0  0  0
  140.2530  158.7590  132.4950 C   0  0  0  0  0  0  0  0  0  0  0  0
  140.7730  159.1750  131.3120 F   0  0  0  0  0  0  0  0  0  0  0  0
  138.9370  158.2900  132.5310 C   0  0  0  0  0  0  0  0  0  0  0  0
  138.3850  157.8380  133.7300 C   0  0  0  0  0  0  0  0  0  0  0  0
  139.1460  157.8570  134.9010 C   0  0  0  0  0  0  0  0  0  0  0  0
  140.4650  158.3250  134.8800 C   0  0  0  0  0  0  0  0  0  0  0  0
  141.3550  158.3790  136.3990 Cl  0  0  0  0  0  0  0  0  0  0  0  0
  143.4880  158.3630  133.3690 C   0  0  0  0  0  0  0  0  0  0  0  0
  144.7910  158.8700  133.3090 C   0  0  0  0  0  0  0  0  0  0  0  0
  143.7329  154.3793  133.2422 H   0  0  0  0  0  0  0  0  0  0  0  0
  143.6678  155.6675  131.9921 H   0  0  0  0  0  0  0  0  0  0  0  0
  145.0186  154.4834  131.9921 H   0  0  0  0  0  0  0  0  0  0  0  0
  148.6290  157.4360  131.3820 H   0  0  0  0  0  0  0  0  0  0  0  0
  146.9527  161.3372  133.5415 H   0  0  0  0  0  0  0  0  0  0  0  0
  144.2437  162.1924  133.8663 H   0  0  0  0  0  0  0  0  0  0  0  0
  141.8738  161.3506  133.9461 H   0  0  0  0  0  0  0  0  0  0  0  0
  138.3343  158.2772  131.6109 H   0  0  0  0  0  0  0  0  0  0  0  0
  137.3499  157.4665  133.7531 H   0  0  0  0  0  0  0  0  0  0  0  0
  138.7064  157.5022  135.8449 H   0  0  0  0  0  0  0  0  0  0  0  0
  143.2940  157.2888  133.2335 H   0  0  0  0  0  0  0  0  0  0  0  0
  1  2  1  0
  2  3  1  0
  3  4  2  0
  3  5  1  0
  5  6  1  0
  6  7  1  0
  7  8  1  0
  7  9  2  0
  6 10  2  0
 10 11  1  0
 11 12  2  0
 12 13  1  0
 13 14  2  0
 14 15  1  0
 15 16  2  0
 16 17  1  0
 16 18  1  0
 18 19  2  0
 19 20  1  0
 20 21  2  0
 21 22  1  0
 14 23  1  0
 23 24  2  0
 24  5  1  0
 24 11  1  0
 21 15  1  0
  1 25  1  0
  1 26  1  0
  1 27  1  0
  8 28  1  0
 10 29  1  0
 12 30  1  0
 13 31  1  0
 18 32  1  0
 19 33  1  0
 20 34  1  0
 23 35  1  0
M  CHG  1   8  -1
M  END
>  <UniqueID>  (89) 
89

>  <SMILES>  (89) 
COC(=O)n1c(C([NH-])=O)cc2ccc(-c3c(F)cccc3Cl)cc21

>  <Energy>  (89) 
83.01755388956094

>  <Genealogy>  (89) 
COC(=O)n1c(C([NH-])=O)cc2ccc(-c3c(F)cccc3Cl)cc21 (protonated)
COC(=O)n1c(C([NH-])=O)cc2ccc(-c3c(F)cccc3Cl)cc21 (3D coordinates assigned)
COC(=O)n1c(C([NH-])=O)cc2ccc(-c3c(F)cccc3Cl)cc21 (optimized conformer: 83.01755388956094 kcal/mol)

>  <smiles>  (89) 
COC(=O)n1c(C(N)=O)cc2ccc(-c3c(F)cccc3Cl)cc21

>  <score_type>  (89) 
oracle

>  <origin>  (89) 
adg

>  <m_score__min__energy>  (89) 
-7.3899999999999997

>  <m_primary>  (89) 
energy

$$$$
89:0
     RDKit          3D

 32 33  0  0  0  0  0  0  0  0999 V2000
  148.8570  152.2310  132.9900 C   0  0  0  0  0  0  0  0  0  0  0  0
  148.0810  153.4220  132.9740 O   0  0  0  0  0  0  0  0  0  0  0  0
  148.6560  154.6970  132.9760 C   0  0  0  0  0  0  0  0  0  0  0  0
  149.8380  154.8620  132.5700 O   0  0  0  0  0  0  0  0  0  0  0  0
  147.9020  155.8170  133.4660 N   0  0  0  0  0  0  0  0  0  0  0  0
  146.8310  155.8010  134.3100 C   0  0  0  0  0  0  0  0  0  0  0  0
  146.3120  154.6240  135.0370 C   0  0  0  0  0  0  0  0  0  0  0  0
  147.1970  153.6900  135.6500 N   0  0  0  0  0  0  0  0  0  0  0  0
  145.0690  154.4650  135.1590 O   0  0  0  0  0  0  0  0  0  0  0  0
  146.3220  157.0880  134.4760 C   0  0  0  0  0  0  0  0  0  0  0  0
  147.1240  157.9000  133.7080 C   0  0  0  0  0  0  0  0  0  0  0  0
  147.0680  159.2750  133.5010 C   0  0  0  0  0  0  0  0  0  0  0  0
  148.0140  159.8490  132.6350 C   0  0  0  0  0  0  0  0  0  0  0  0
  148.9800  159.0420  131.9840 C   0  0  0  0  0  0  0  0  0  0  0  0
  149.9990  159.6730  131.0720 C   0  0  0  0  0  0  0  0  0  0  0  0
  149.3220  160.4860  129.9630 C   0  0  0  0  0  0  0  0  0  0  0  0
  149.2150  161.8370  130.3250 O   0  0  0  0  0  0  0  0  0  0  0  0
  149.0100  157.6510  132.2250 C   0  0  0  0  0  0  0  0  0  0  0  0
  148.0690  157.1090  133.1080 C   0  0  0  0  0  0  0  0  0  0  0  0
  149.0508  151.9336  134.0312 H   0  0  0  0  0  0  0  0  0  0  0  0
  148.3078  151.4286  132.4756 H   0  0  0  0  0  0  0  0  0  0  0  0
  149.8128  152.4092  132.4756 H   0  0  0  0  0  0  0  0  0  0  0  0
  147.7170  152.9880  135.0800 H   0  0  0  0  0  0  0  0  0  0  0  0
  145.4614  157.3903  135.0908 H   0  0  0  0  0  0  0  0  0  0  0  0
  146.3070  159.8931  133.9997 H   0  0  0  0  0  0  0  0  0  0  0  0
  148.0047  160.9351  132.4607 H   0  0  0  0  0  0  0  0  0  0  0  0
  150.6449  160.3396  131.6623 H   0  0  0  0  0  0  0  0  0  0  0  0
  150.5916  158.8725  130.6050 H   0  0  0  0  0  0  0  0  0  0  0  0
  149.9192  160.4062  129.0427 H   0  0  0  0  0  0  0  0  0  0  0  0
  148.3105  160.0849  129.8016 H   0  0  0  0  0  0  0  0  0  0  0  0
  148.3560  162.1630  129.9530 H   0  0  0  0  0  0  0  0  0  0  0  0
  149.7544  157.0093  131.7310 H   0  0  0  0  0  0  0  0  0  0  0  0
  1  2  1  0
  2  3  1  0
  3  4  2  0
  3  5  1  0
  5  6  1  0
  6  7  1  0
  7  8  1  0
  7  9  2  0
  6 10  2  0
 10 11  1  0
 11 12  2  0
 12 13  1  0
 13 14  2  0
 14 15  1  0
 15 16  1  0
 16 17  1  0
 14 18  1  0
 18 19  2  0
 19  5  1  0
 19 11  1  0
  1 20  1  0
  1 21  1  0
  1 22  1  0
  8 23  1  0
 10 24  1  0
 12 25  1  0
 13 26  1  0
 15 27  1  0
 15 28  1  0
 16 29  1  0
 16 30  1  0
 17 31  1  0
 18 32  1  0
M  CHG  1   8  -1
M  END
>  <UniqueID>  (90) 
90

>  <SMILES>  (90) 
COC(=O)n1c(C([NH-])=O)cc2ccc(CCO)cc21

>  <Energy>  (90) 
66.61229801217492

>  <Genealogy>  (90) 
COC(=O)n1c(C([NH-])=O)cc2ccc(CCO)cc21 (protonated)
COC(=O)n1c(C([NH-])=O)cc2ccc(CCO)cc21 (3D coordinates assigned)
COC(=O)n1c(C([NH-])=O)cc2ccc(CCO)cc21 (optimized conformer: 66.61229801217492 kcal/mol)

>  <smiles>  (90) 
COC(=O)n1c(C(N)=O)cc2ccc(CCO)cc21

>  <score_type>  (90) 
oracle

>  <origin>  (90) 
adg

>  <m_score__min__energy>  (90) 
-5.9000000000000004

>  <m_primary>  (90) 
energy

$$$$
90:0
     RDKit          3D

 37 38  0  0  0  0  0  0  0  0999 V2000
  148.0730  154.1230  133.3820 C   0  0  0  0  0  0  0  0  0  0  0  0
  147.5200  154.8640  132.2470 N   0  0  0  0  0  0  0  0  0  0  0  0
  147.4710  156.2720  132.5490 C   0  0  0  0  0  0  0  0  0  0  0  0
  148.6670  157.0340  132.6010 C   0  0  0  0  0  0  0  0  0  0  0  0
  148.6350  158.3990  132.9340 C   0  0  0  0  0  0  0  0  0  0  0  0
  147.3990  158.9740  133.2100 C   0  0  0  0  0  0  0  0  0  0  0  0
  147.0860  160.2590  133.5900 C   0  0  0  0  0  0  0  0  0  0  0  0
  145.7020  160.2710  133.7520 C   0  0  0  0  0  0  0  0  0  0  0  0
  144.9320  161.4900  134.0780 C   0  0  0  0  0  0  0  0  0  0  0  0
  143.5560  161.6020  133.7300 N   0  0  0  0  0  0  0  0  0  0  0  0
  145.5120  162.4640  134.6270 O   0  0  0  0  0  0  0  0  0  0  0  0
  145.1810  159.0380  133.4920 N   0  0  0  0  0  0  0  0  0  0  0  0
  143.8180  158.6070  133.6270 C   0  0  0  0  0  0  0  0  0  0  0  0
  143.2680  157.9600  132.6950 O   0  0  0  0  0  0  0  0  0  0  0  0
  143.1020  158.9300  134.7850 O   0  0  0  0  0  0  0  0  0  0  0  0
  141.6880  158.7790  134.9090 C   0  0  0  0  0  0  0  0  0  0  0  0
  140.9760  159.5950  133.8260 C   0  0  0  0  0  0  0  0  0  0  0  0
  141.2610  159.2480  136.2990 C   0  0  0  0  0  0  0  0  0  0  0  0
  146.2320  158.2570  133.1590 C   0  0  0  0  0  0  0  0  0  0  0  0
  146.2350  156.8920  132.8480 C   0  0  0  0  0  0  0  0  0  0  0  0
  147.7306  154.5818  134.3213 H   0  0  0  0  0  0  0  0  0  0  0  0
  147.7322  153.0780  133.3388 H   0  0  0  0  0  0  0  0  0  0  0  0
  149.1718  154.1524  133.3388 H   0  0  0  0  0  0  0  0  0  0  0  0
  146.5580  154.5070  132.0380 H   0  0  0  0  0  0  0  0  0  0  0  0
  148.1160  154.6970  131.4030 H   0  0  0  0  0  0  0  0  0  0  0  0
  149.6298  156.5509  132.3782 H   0  0  0  0  0  0  0  0  0  0  0  0
  149.5591  158.9943  132.9751 H   0  0  0  0  0  0  0  0  0  0  0  0
  147.7812  161.0990  133.7352 H   0  0  0  0  0  0  0  0  0  0  0  0
  142.9560  160.7530  133.6300 H   0  0  0  0  0  0  0  0  0  0  0  0
  141.4127  157.7219  134.7796 H   0  0  0  0  0  0  0  0  0  0  0  0
  140.3234  160.3429  134.3001 H   0  0  0  0  0  0  0  0  0  0  0  0
  141.7234  160.1046  133.2001 H   0  0  0  0  0  0  0  0  0  0  0  0
  140.3699  158.9236  133.2001 H   0  0  0  0  0  0  0  0  0  0  0  0
  141.7937  158.6629  137.0631 H   0  0  0  0  0  0  0  0  0  0  0  0
  141.5050  160.3140  136.4173 H   0  0  0  0  0  0  0  0  0  0  0  0
  140.1768  159.1047  136.4173 H   0  0  0  0  0  0  0  0  0  0  0  0
  145.2984  156.3152  132.8364 H   0  0  0  0  0  0  0  0  0  0  0  0
  1  2  1  0
  2  3  1  0
  3  4  2  0
  4  5  1  0
  5  6  2  0
  6  7  1  0
  7  8  2  0
  8  9  1  0
  9 10  1  0
  9 11  2  0
  8 12  1  0
 12 13  1  0
 13 14  2  0
 13 15  1  0
 15 16  1  0
 16 17  1  0
 16 18  1  0
 12 19  1  0
 19 20  2  0
 20  3  1  0
 19  6  1  0
  1 21  1  0
  1 22  1  0
  1 23  1  0
  2 24  1  0
  2 25  1  0
  4 26  1  0
  5 27  1  0
  7 28  1  0
 10 29  1  0
 16 30  1  0
 17 31  1  0
 17 32  1  0
 17 33  1  0
 18 34  1  0
 18 35  1  0
 18 36  1  0
 20 37  1  0
M  CHG  2   2   1  10  -1
M  END
>  <UniqueID>  (91) 
91

>  <SMILES>  (91) 
C[NH2+]c1ccc2cc(C([NH-])=O)n(C(=O)OC(C)C)c2c1

>  <Energy>  (91) 
69.56322029405162

>  <Genealogy>  (91) 
C[NH2+]c1ccc2cc(C([NH-])=O)n(C(=O)OC(C)C)c2c1 (protonated)
C[NH2+]c1ccc2cc(C([NH-])=O)n(C(=O)OC(C)C)c2c1 (3D coordinates assigned)
C[NH2+]c1ccc2cc(C([NH-])=O)n(C(=O)OC(C)C)c2c1 (optimized conformer: 69.56322029405162 kcal/mol)

>  <smiles>  (91) 
CNc1ccc2cc(C(N)=O)n(C(=O)OC(C)C)c2c1

>  <score_type>  (91) 
oracle

>  <origin>  (91) 
adg

>  <m_score__min__energy>  (91) 
-6.4199999999999999

>  <m_primary>  (91) 
energy

$$$$
91:0
     RDKit          3D

 35 36  0  0  0  0  0  0  0  0999 V2000
  140.9810  159.4730  137.2630 C   0  0  0  0  0  0  0  0  0  0  0  0
  141.4140  158.2140  137.1590 C   0  0  0  0  0  0  0  0  0  0  0  0
  140.5250  157.1060  136.6670 C   0  0  0  0  0  0  0  0  0  0  0  0
  139.4020  157.6490  135.9790 O   0  0  0  0  0  0  0  0  0  0  0  0
  139.3650  157.8240  134.5900 C   0  0  0  0  0  0  0  0  0  0  0  0
  138.7320  157.0190  133.8550 O   0  0  0  0  0  0  0  0  0  0  0  0
  140.0390  159.0110  133.9840 C   0  0  0  0  0  0  0  0  0  0  0  0
  141.4870  158.6990  133.7310 C   0  0  0  0  0  0  0  0  0  0  0  0
  141.8850  157.3730  133.4260 C   0  0  0  0  0  0  0  0  0  0  0  0
  143.2390  157.0640  133.2160 C   0  0  0  0  0  0  0  0  0  0  0  0
  144.1700  158.0910  133.3360 C   0  0  0  0  0  0  0  0  0  0  0  0
  145.5350  158.0730  133.1660 C   0  0  0  0  0  0  0  0  0  0  0  0
  145.9550  159.3800  133.4070 C   0  0  0  0  0  0  0  0  0  0  0  0
  147.3750  159.7890  133.4070 C   0  0  0  0  0  0  0  0  0  0  0  0
  147.8200  160.9000  132.6320 N   0  0  0  0  0  0  0  0  0  0  0  0
  148.2010  159.1770  134.1360 O   0  0  0  0  0  0  0  0  0  0  0  0
  144.8910  160.1770  133.7090 N   0  0  0  0  0  0  0  0  0  0  0  0
  144.8900  161.5940  133.9420 C   0  0  0  0  0  0  0  0  0  0  0  0
  146.0470  162.2350  134.4730 N   0  0  0  0  0  0  0  0  0  0  0  0
  143.8620  162.2770  133.6890 O   0  0  0  0  0  0  0  0  0  0  0  0
  143.8050  159.3730  133.6620 C   0  0  0  0  0  0  0  0  0  0  0  0
  142.4610  159.7140  133.8560 C   0  0  0  0  0  0  0  0  0  0  0  0
  141.6586  160.2594  137.6269 H   0  0  0  0  0  0  0  0  0  0  0  0
  139.9467  159.7237  136.9848 H   0  0  0  0  0  0  0  0  0  0  0  0
  142.4512  157.9809  137.4415 H   0  0  0  0  0  0  0  0  0  0  0  0
  141.0938  156.4599  135.9821 H   0  0  0  0  0  0  0  0  0  0  0  0
  140.1711  156.5191  137.5274 H   0  0  0  0  0  0  0  0  0  0  0  0
  139.5481  159.2637  133.0326 H   0  0  0  0  0  0  0  0  0  0  0  0
  139.9662  159.8630  134.6759 H   0  0  0  0  0  0  0  0  0  0  0  0
  141.1269  156.5793  133.3532 H   0  0  0  0  0  0  0  0  0  0  0  0
  143.5539  156.0406  132.9642 H   0  0  0  0  0  0  0  0  0  0  0  0
  146.1620  157.2102  132.8970 H   0  0  0  0  0  0  0  0  0  0  0  0
  147.4140  161.8510  132.7750 H   0  0  0  0  0  0  0  0  0  0  0  0
  146.9860  161.7850  134.4120 H   0  0  0  0  0  0  0  0  0  0  0  0
  142.1709  160.7467  134.0997 H   0  0  0  0  0  0  0  0  0  0  0  0
  1  2  2  0
  2  3  1  0
  3  4  1  0
  4  5  1  0
  5  6  2  0
  5  7  1  0
  7  8  1  0
  8  9  2  0
  9 10  1  0
 10 11  2  0
 11 12  1  0
 12 13  2  0
 13 14  1  0
 14 15  1  0
 14 16  2  0
 13 17  1  0
 17 18  1  0
 18 19  1  0
 18 20  2  0
 17 21  1  0
 21 22  2  0
 22  8  1  0
 21 11  1  0
  1 23  1  0
  1 24  1  0
  2 25  1  0
  3 26  1  0
  3 27  1  0
  7 28  1  0
  7 29  1  0
  9 30  1  0
 10 31  1  0
 12 32  1  0
 15 33  1  0
 19 34  1  0
 22 35  1  0
M  CHG  2  15  -1  19  -1
M  END
>  <UniqueID>  (92) 
92

>  <SMILES>  (92) 
C=CCOC(=O)Cc1ccc2cc(C([NH-])=O)n(C([NH-])=O)c2c1

>  <Energy>  (92) 
68.80925639055985

>  <Genealogy>  (92) 
C=CCOC(=O)Cc1ccc2cc(C([NH-])=O)n(C([NH-])=O)c2c1 (protonated)
C=CCOC(=O)Cc1ccc2cc(C([NH-])=O)n(C([NH-])=O)c2c1 (3D coordinates assigned)
C=CCOC(=O)Cc1ccc2cc(C([NH-])=O)n(C([NH-])=O)c2c1 (optimized conformer: 68.80925639055985 kcal/mol)

>  <smiles>  (92) 
C=CCOC(=O)Cc1ccc2cc(C(N)=O)n(C(N)=O)c2c1

>  <score_type>  (92) 
oracle

>  <origin>  (92) 
adg

>  <m_score__min__energy>  (92) 
-6.4400000000000004

>  <m_primary>  (92) 
energy

$$$$
92:0
     RDKit          3D

 51 52  0  0  0  0  0  0  0  0999 V2000
  149.2420  159.2460  130.8770 C   0  0  0  0  0  0  0  0  0  0  0  0
  148.5130  160.3530  131.6320 C   0  0  0  0  0  0  0  0  0  0  0  0
  147.3190  159.8510  132.2290 O   0  0  0  0  0  0  0  0  0  0  0  0
  147.3090  158.8770  133.2340 C   0  0  0  0  0  0  0  0  0  0  0  0
  148.3260  158.7000  133.9590 O   0  0  0  0  0  0  0  0  0  0  0  0
  146.1320  158.0770  133.4380 N   0  0  0  0  0  0  0  0  0  0  0  0
  144.8670  158.5210  133.6780 C   0  0  0  0  0  0  0  0  0  0  0  0
  144.4770  159.9170  133.9580 C   0  0  0  0  0  0  0  0  0  0  0  0
  145.1410  161.0120  133.3250 N   0  0  0  0  0  0  0  0  0  0  0  0
  143.5800  160.1500  134.8100 O   0  0  0  0  0  0  0  0  0  0  0  0
  143.9640  157.4610  133.6700 C   0  0  0  0  0  0  0  0  0  0  0  0
  144.7240  156.3400  133.4260 C   0  0  0  0  0  0  0  0  0  0  0  0
  144.3360  155.0120  133.2880 C   0  0  0  0  0  0  0  0  0  0  0  0
  145.3270  154.0630  132.9850 C   0  0  0  0  0  0  0  0  0  0  0  0
  146.6810  154.4580  132.8160 C   0  0  0  0  0  0  0  0  0  0  0  0
  147.7100  153.5100  132.4730 N   0  0  0  0  0  0  0  0  0  0  0  0
  148.7540  153.0450  133.3880 C   0  0  0  0  0  0  0  0  0  0  0  0
  149.9610  152.4910  132.6240 C   0  0  0  0  0  0  0  0  0  0  0  0
  149.6280  151.1630  132.0480 N   0  0  0  0  0  0  0  0  0  0  0  0
  149.9520  151.0890  130.6040 C   0  0  0  0  0  0  0  0  0  0  0  0
  150.8000  149.8540  130.3190 C   0  0  0  0  0  0  0  0  0  0  0  0
  148.2190  150.7880  132.3020 C   0  0  0  0  0  0  0  0  0  0  0  0
  148.1130  149.2990  132.6240 C   0  0  0  0  0  0  0  0  0  0  0  0
  147.0330  155.8160  132.9710 C   0  0  0  0  0  0  0  0  0  0  0  0
  146.0280  156.7380  133.2890 C   0  0  0  0  0  0  0  0  0  0  0  0
  149.6995  158.5512  131.5967 H   0  0  0  0  0  0  0  0  0  0  0  0
  148.5260  158.7003  130.2449 H   0  0  0  0  0  0  0  0  0  0  0  0
  150.0262  159.6882  130.2449 H   0  0  0  0  0  0  0  0  0  0  0  0
  149.1720  160.7485  132.4189 H   0  0  0  0  0  0  0  0  0  0  0  0
  148.2467  161.1503  130.9225 H   0  0  0  0  0  0  0  0  0  0  0  0
  145.9950  160.8620  132.7430 H   0  0  0  0  0  0  0  0  0  0  0  0
  144.8240  161.9910  133.5020 H   0  0  0  0  0  0  0  0  0  0  0  0
  142.8761  157.5094  133.8254 H   0  0  0  0  0  0  0  0  0  0  0  0
  143.2847  154.7132  133.4123 H   0  0  0  0  0  0  0  0  0  0  0  0
  145.0515  153.0035  132.8776 H   0  0  0  0  0  0  0  0  0  0  0  0
  147.6980  153.0890  131.5150 H   0  0  0  0  0  0  0  0  0  0  0  0
  149.0827  153.8878  134.0138 H   0  0  0  0  0  0  0  0  0  0  0  0
  148.3366  152.2379  134.0079 H   0  0  0  0  0  0  0  0  0  0  0  0
  150.2285  153.1839  131.8126 H   0  0  0  0  0  0  0  0  0  0  0  0
  150.8095  152.3835  133.3157 H   0  0  0  0  0  0  0  0  0  0  0  0
  149.0189  151.0311  130.0244 H   0  0  0  0  0  0  0  0  0  0  0  0
  150.5170  151.9877  130.3156 H   0  0  0  0  0  0  0  0  0  0  0  0
  151.1136  149.3973  131.2693 H   0  0  0  0  0  0  0  0  0  0  0  0
  150.2086  149.1286  129.7411 H   0  0  0  0  0  0  0  0  0  0  0  0
  151.6894  150.1453  129.7411 H   0  0  0  0  0  0  0  0  0  0  0  0
  147.8368  151.3708  133.1531 H   0  0  0  0  0  0  0  0  0  0  0  0
  147.6256  151.0008  131.4006 H   0  0  0  0  0  0  0  0  0  0  0  0
  148.1031  149.1596  133.7151 H   0  0  0  0  0  0  0  0  0  0  0  0
  147.1839  148.8962  132.1944 H   0  0  0  0  0  0  0  0  0  0  0  0
  148.9757  148.7686  132.1944 H   0  0  0  0  0  0  0  0  0  0  0  0
  148.0755  156.1435  132.8446 H   0  0  0  0  0  0  0  0  0  0  0  0
  1  2  1  0
  2  3  1  0
  3  4  1  0
  4  5  2  0
  4  6  1  0
  6  7  1  0
  7  8  1  0
  8  9  1  0
  8 10  2  0
  7 11  2  0
 11 12  1  0
 12 13  2  0
 13 14  1  0
 14 15  2  0
 15 16  1  0
 16 17  1  0
 17 18  1  0
 18 19  1  0
 19 20  1  0
 20 21  1  0
 19 22  1  0
 22 23  1  0
 15 24  1  0
 24 25  2  0
 25  6  1  0
 25 12  1  0
  1 26  1  0
  1 27  1  0
  1 28  1  0
  2 29  1  0
  2 30  1  0
  9 31  1  0
  9 32  1  0
 11 33  1  0
 13 34  1  0
 14 35  1  0
 16 36  1  0
 17 37  1  0
 17 38  1  0
 18 39  1  0
 18 40  1  0
 20 41  1  0
 20 42  1  0
 21 43  1  0
 21 44  1  0
 21 45  1  0
 22 46  1  0
 22 47  1  0
 23 48  1  0
 23 49  1  0
 23 50  1  0
 24 51  1  0
M  END
>  <UniqueID>  (93) 
93

>  <SMILES>  (93) 
CCOC(=O)n1c(C(N)=O)cc2ccc(NCCN(CC)CC)cc21

>  <Energy>  (93) 
82.55610449044214

>  <Genealogy>  (93) 
CCOC(=O)n1c(C(N)=O)cc2ccc(NCCN(CC)CC)cc21 (3D coordinates assigned)
CCOC(=O)n1c(C(N)=O)cc2ccc(NCCN(CC)CC)cc21 (optimized conformer: 82.55610449044214 kcal/mol)

>  <smiles>  (93) 
CCOC(=O)n1c(C(N)=O)cc2ccc(NCCN(CC)CC)cc21

>  <score_type>  (93) 
oracle

>  <origin>  (93) 
adg

>  <m_score__min__energy>  (93) 
-7.8300000000000001

>  <m_primary>  (93) 
energy

$$$$
93:0
     RDKit          3D

 30 31  0  0  0  0  0  0  0  0999 V2000
  143.9220  160.2790  134.0990 C   0  0  0  0  0  0  0  0  0  0  0  0
  145.1880  160.4890  133.4040 N   0  0  0  0  0  0  0  0  0  0  0  0
  146.1980  159.4740  133.2660 C   0  0  0  0  0  0  0  0  0  0  0  0
  147.5750  159.8070  133.1340 C   0  0  0  0  0  0  0  0  0  0  0  0
  148.5470  158.8010  133.0070 C   0  0  0  0  0  0  0  0  0  0  0  0
  148.1220  157.4770  133.0120 C   0  0  0  0  0  0  0  0  0  0  0  0
  148.8490  156.3110  132.9200 C   0  0  0  0  0  0  0  0  0  0  0  0
  147.9090  155.2830  132.9800 C   0  0  0  0  0  0  0  0  0  0  0  0
  148.2360  153.8500  132.8150 C   0  0  0  0  0  0  0  0  0  0  0  0
  147.4680  152.8430  133.4760 N   0  0  0  0  0  0  0  0  0  0  0  0
  149.2190  153.5050  132.1070 O   0  0  0  0  0  0  0  0  0  0  0  0
  146.6530  155.7960  133.1100 N   0  0  0  0  0  0  0  0  0  0  0  0
  145.4160  155.0800  133.2620 C   0  0  0  0  0  0  0  0  0  0  0  0
  144.4990  154.8700  132.0980 C   0  0  0  0  0  0  0  0  0  0  0  0
  145.1140  154.5820  134.3790 O   0  0  0  0  0  0  0  0  0  0  0  0
  146.8000  157.1380  133.1240 C   0  0  0  0  0  0  0  0  0  0  0  0
  145.8110  158.1160  133.2630 C   0  0  0  0  0  0  0  0  0  0  0  0
  144.0911  160.3071  135.1856 H   0  0  0  0  0  0  0  0  0  0  0  0
  143.2133  161.0719  133.8176 H   0  0  0  0  0  0  0  0  0  0  0  0
  143.5073  159.2998  133.8176 H   0  0  0  0  0  0  0  0  0  0  0  0
  145.3610  161.4330  132.9890 H   0  0  0  0  0  0  0  0  0  0  0  0
  147.8816  160.8634  133.1314 H   0  0  0  0  0  0  0  0  0  0  0  0
  149.6130  159.0531  132.9066 H   0  0  0  0  0  0  0  0  0  0  0  0
  149.9400  156.2117  132.8203 H   0  0  0  0  0  0  0  0  0  0  0  0
  146.6130  153.0840  134.0240 H   0  0  0  0  0  0  0  0  0  0  0  0
  147.7310  151.8370  133.3820 H   0  0  0  0  0  0  0  0  0  0  0  0
  143.4881  154.6385  132.4647 H   0  0  0  0  0  0  0  0  0  0  0  0
  144.4669  155.7841  131.4869 H   0  0  0  0  0  0  0  0  0  0  0  0
  144.8679  154.0331  131.4869 H   0  0  0  0  0  0  0  0  0  0  0  0
  144.7531  157.8336  133.3679 H   0  0  0  0  0  0  0  0  0  0  0  0
  1  2  1  0
  2  3  1  0
  3  4  2  0
  4  5  1  0
  5  6  2  0
  6  7  1  0
  7  8  2  0
  8  9  1  0
  9 10  1  0
  9 11  2  0
  8 12  1  0
 12 13  1  0
 13 14  1  0
 13 15  2  0
 12 16  1  0
 16 17  2  0
 17  3  1  0
 16  6  1  0
  1 18  1  0
  1 19  1  0
  1 20  1  0
  2 21  1  0
  4 22  1  0
  5 23  1  0
  7 24  1  0
 10 25  1  0
 10 26  1  0
 14 27  1  0
 14 28  1  0
 14 29  1  0
 17 30  1  0
M  END
>  <UniqueID>  (94) 
94

>  <SMILES>  (94) 
CNc1ccc2cc(C(N)=O)n(C(C)=O)c2c1

>  <Energy>  (94) 
67.36224033114962

>  <Genealogy>  (94) 
CNc1ccc2cc(C(N)=O)n(C(C)=O)c2c1 (3D coordinates assigned)
CNc1ccc2cc(C(N)=O)n(C(C)=O)c2c1 (optimized conformer: 67.36224033114962 kcal/mol)

>  <smiles>  (94) 
CNc1ccc2cc(C(N)=O)n(C(C)=O)c2c1

>  <score_type>  (94) 
oracle

>  <origin>  (94) 
adg

>  <m_score__min__energy>  (94) 
-6.0199999999999996

>  <m_primary>  (94) 
energy

$$$$
94:0
     RDKit          3D

 40 41  0  0  0  0  0  0  0  0999 V2000
  146.6810  153.0320  133.1340 N   0  0  0  0  0  0  0  0  0  0  0  0
  146.3410  154.1060  134.0160 C   0  0  0  0  0  0  0  0  0  0  0  0
  145.9590  153.8460  135.1880 O   0  0  0  0  0  0  0  0  0  0  0  0
  146.4920  155.5150  133.5970 C   0  0  0  0  0  0  0  0  0  0  0  0
  145.4790  156.4610  133.7230 C   0  0  0  0  0  0  0  0  0  0  0  0
  146.0390  157.6490  133.3090 C   0  0  0  0  0  0  0  0  0  0  0  0
  145.4760  158.9200  133.2230 C   0  0  0  0  0  0  0  0  0  0  0  0
  146.2770  159.9640  132.7320 C   0  0  0  0  0  0  0  0  0  0  0  0
  147.6170  159.7210  132.3360 C   0  0  0  0  0  0  0  0  0  0  0  0
  148.4480  160.8380  131.7680 C   0  0  0  0  0  0  0  0  0  0  0  0
  149.2000  160.3670  130.5620 C   0  0  0  0  0  0  0  0  0  0  0  0
  150.2990  159.8540  130.6810 O   0  0  0  0  0  0  0  0  0  0  0  0
  148.1520  158.4150  132.4240 C   0  0  0  0  0  0  0  0  0  0  0  0
  147.3380  157.3960  132.9390 C   0  0  0  0  0  0  0  0  0  0  0  0
  147.6290  156.0850  133.1060 N   0  0  0  0  0  0  0  0  0  0  0  0
  148.8580  155.4230  132.7600 C   0  0  0  0  0  0  0  0  0  0  0  0
  149.8000  156.0770  132.2330 O   0  0  0  0  0  0  0  0  0  0  0  0
  149.0040  154.0520  133.0020 O   0  0  0  0  0  0  0  0  0  0  0  0
  149.8800  153.2130  132.2510 C   0  0  0  0  0  0  0  0  0  0  0  0
  149.8310  151.7740  132.7720 C   0  0  0  0  0  0  0  0  0  0  0  0
  148.9780  150.9200  131.8850 C   0  0  0  0  0  0  0  0  0  0  0  0
  147.7250  151.0650  131.8870 O   0  0  0  0  0  0  0  0  0  0  0  0
  149.5880  150.0180  131.0080 O   0  0  0  0  0  0  0  0  0  0  0  0
  150.7340  150.3430  130.2260 C   0  0  0  0  0  0  0  0  0  0  0  0
  151.2080  148.9540  129.2160 Cl  0  0  0  0  0  0  0  0  0  0  0  0
  147.1380  153.2150  132.2130 H   0  0  0  0  0  0  0  0  0  0  0  0
  146.5630  152.0420  133.4440 H   0  0  0  0  0  0  0  0  0  0  0  0
  144.4510  156.2952  134.0775 H   0  0  0  0  0  0  0  0  0  0  0  0
  144.4354  159.1007  133.5304 H   0  0  0  0  0  0  0  0  0  0  0  0
  145.8612  160.9794  132.6539 H   0  0  0  0  0  0  0  0  0  0  0  0
  147.7889  161.6709  131.4819 H   0  0  0  0  0  0  0  0  0  0  0  0
  149.1679  161.1708  132.5303 H   0  0  0  0  0  0  0  0  0  0  0  0
  148.7575  160.4848  129.5618 H   0  0  0  0  0  0  0  0  0  0  0  0
  149.1807  158.2038  132.0967 H   0  0  0  0  0  0  0  0  0  0  0  0
  149.5737  153.2250  131.1946 H   0  0  0  0  0  0  0  0  0  0  0  0
  150.9075  153.5917  132.3552 H   0  0  0  0  0  0  0  0  0  0  0  0
  150.8513  151.3635  132.7963 H   0  0  0  0  0  0  0  0  0  0  0  0
  149.3978  151.7779  133.7831 H   0  0  0  0  0  0  0  0  0  0  0  0
  150.4995  151.2000  129.5774 H   0  0  0  0  0  0  0  0  0  0  0  0
  151.5663  150.5963  130.8992 H   0  0  0  0  0  0  0  0  0  0  0  0
  1  2  1  0
  2  3  2  0
  2  4  1  0
  4  5  2  0
  5  6  1  0
  6  7  2  0
  7  8  1  0
  8  9  2  0
  9 10  1  0
 10 11  1  0
 11 12  2  0
  9 13  1  0
 13 14  2  0
 14 15  1  0
 15 16  1  0
 16 17  2  0
 16 18  1  0
 18 19  1  0
 19 20  1  0
 20 21  1  0
 21 22  2  0
 21 23  1  0
 23 24  1  0
 24 25  1  0
 15  4  1  0
 14  6  1  0
  1 26  1  0
  1 27  1  0
  5 28  1  0
  7 29  1  0
  8 30  1  0
 10 31  1  0
 10 32  1  0
 11 33  1  0
 13 34  1  0
 19 35  1  0
 19 36  1  0
 20 37  1  0
 20 38  1  0
 24 39  1  0
 24 40  1  0
M  END
>  <UniqueID>  (95) 
95

>  <SMILES>  (95) 
NC(=O)c1cc2ccc(CC=O)cc2n1C(=O)OCCC(=O)OCCl

>  <Energy>  (95) 
69.68030878602487

>  <Genealogy>  (95) 
NC(=O)c1cc2ccc(CC=O)cc2n1C(=O)OCCC(=O)OCCl (3D coordinates assigned)
NC(=O)c1cc2ccc(CC=O)cc2n1C(=O)OCCC(=O)OCCl (optimized conformer: 69.68030878602487 kcal/mol)

>  <smiles>  (95) 
NC(=O)c1cc2ccc(CC=O)cc2n1C(=O)OCCC(=O)OCCl

>  <score_type>  (95) 
oracle

>  <origin>  (95) 
adg

>  <m_score__min__energy>  (95) 
-6.9500000000000002

>  <m_primary>  (95) 
energy

$$$$
95:0
     RDKit          3D

 52 54  0  0  0  0  0  0  0  0999 V2000
  138.3750  157.5520  133.7090 C   0  0  0  0  0  0  0  0  0  0  0  0
  139.4490  158.5550  133.8050 N   0  0  0  0  0  0  0  0  0  0  0  0
  140.4710  158.3620  132.7410 C   0  0  0  0  0  0  0  0  0  0  0  0
  141.6950  157.5620  133.2190 C   0  0  0  0  0  0  0  0  0  0  0  0
  142.3700  158.2000  134.4610 C   0  0  0  0  0  0  0  0  0  0  0  0
  143.6870  158.8730  134.1080 C   0  0  0  0  0  0  0  0  0  0  0  0
  143.7940  160.2880  134.0600 C   0  0  0  0  0  0  0  0  0  0  0  0
  145.0010  160.9060  133.6970 C   0  0  0  0  0  0  0  0  0  0  0  0
  146.0790  160.0910  133.3660 C   0  0  0  0  0  0  0  0  0  0  0  0
  147.3510  160.4300  132.9720 C   0  0  0  0  0  0  0  0  0  0  0  0
  147.9990  159.2210  132.7390 C   0  0  0  0  0  0  0  0  0  0  0  0
  149.3620  159.1310  132.1750 C   0  0  0  0  0  0  0  0  0  0  0  0
  149.9590  157.8630  131.9110 N   0  0  0  0  0  0  0  0  0  0  0  0
  149.9840  160.1830  131.8700 O   0  0  0  0  0  0  0  0  0  0  0  0
  147.1690  158.1710  132.9990 N   0  0  0  0  0  0  0  0  0  0  0  0
  147.4980  156.7720  132.9660 C   0  0  0  0  0  0  0  0  0  0  0  0
  147.5100  156.1570  131.8690 O   0  0  0  0  0  0  0  0  0  0  0  0
  147.7950  156.1030  134.1680 O   0  0  0  0  0  0  0  0  0  0  0  0
  147.3480  154.7940  134.5510 C   0  0  0  0  0  0  0  0  0  0  0  0
  148.0970  153.7830  133.6640 C   0  0  0  0  0  0  0  0  0  0  0  0
  145.8310  154.6330  134.3090 C   0  0  0  0  0  0  0  0  0  0  0  0
  147.7000  154.5250  136.0240 C   0  0  0  0  0  0  0  0  0  0  0  0
  145.9930  158.7230  133.3800 C   0  0  0  0  0  0  0  0  0  0  0  0
  144.8100  158.0810  133.7690 C   0  0  0  0  0  0  0  0  0  0  0  0
  141.4230  159.1560  135.2190 C   0  0  0  0  0  0  0  0  0  0  0  0
  139.9940  158.6050  135.1840 C   0  0  0  0  0  0  0  0  0  0  0  0
  138.0582  157.2561  134.7200 H   0  0  0  0  0  0  0  0  0  0  0  0
  137.5193  157.9818  133.1677 H   0  0  0  0  0  0  0  0  0  0  0  0
  138.7453  156.6689  133.1677 H   0  0  0  0  0  0  0  0  0  0  0  0
  140.0060  157.8230  131.9024 H   0  0  0  0  0  0  0  0  0  0  0  0
  140.8266  159.3592  132.4426 H   0  0  0  0  0  0  0  0  0  0  0  0
  141.3720  156.5426  133.4770 H   0  0  0  0  0  0  0  0  0  0  0  0
  142.4320  157.5567  132.4024 H   0  0  0  0  0  0  0  0  0  0  0  0
  142.6015  157.3741  135.1497 H   0  0  0  0  0  0  0  0  0  0  0  0
  142.9203  160.9076  134.3103 H   0  0  0  0  0  0  0  0  0  0  0  0
  145.0919  162.0020  133.6749 H   0  0  0  0  0  0  0  0  0  0  0  0
  147.7683  161.4420  132.8638 H   0  0  0  0  0  0  0  0  0  0  0  0
  149.4160  157.0970  131.4510 H   0  0  0  0  0  0  0  0  0  0  0  0
  148.6311  153.0621  134.3004 H   0  0  0  0  0  0  0  0  0  0  0  0
  147.3759  153.2476  133.0289 H   0  0  0  0  0  0  0  0  0  0  0  0
  148.8192  154.3169  133.0289 H   0  0  0  0  0  0  0  0  0  0  0  0
  145.3093  154.5776  135.2758 H   0  0  0  0  0  0  0  0  0  0  0  0
  145.4569  155.4965  133.7394 H   0  0  0  0  0  0  0  0  0  0  0  0
  145.6465  153.7102  133.7394 H   0  0  0  0  0  0  0  0  0  0  0  0
  146.9948  155.0639  136.6738 H   0  0  0  0  0  0  0  0  0  0  0  0
  147.6331  153.4457  136.2258 H   0  0  0  0  0  0  0  0  0  0  0  0
  148.7238  154.8729  136.2258 H   0  0  0  0  0  0  0  0  0  0  0  0
  144.7551  156.9831  133.8101 H   0  0  0  0  0  0  0  0  0  0  0  0
  141.7544  159.2459  136.2640 H   0  0  0  0  0  0  0  0  0  0  0  0
  141.4432  160.1450  134.7378 H   0  0  0  0  0  0  0  0  0  0  0  0
  139.9958  157.5874  135.6018 H   0  0  0  0  0  0  0  0  0  0  0  0
  139.3566  159.2783  135.7760 H   0  0  0  0  0  0  0  0  0  0  0  0
  1  2  1  0
  2  3  1  0
  3  4  1  0
  4  5  1  0
  5  6  1  0
  6  7  2  0
  7  8  1  0
  8  9  2  0
  9 10  1  0
 10 11  2  0
 11 12  1  0
 12 13  1  0
 12 14  2  0
 11 15  1  0
 15 16  1  0
 16 17  2  0
 16 18  1  0
 18 19  1  0
 19 20  1  0
 19 21  1  0
 19 22  1  0
 15 23  1  0
 23 24  2  0
  5 25  1  0
 25 26  1  0
 26  2  1  0
 24  6  1  0
 23  9  1  0
  1 27  1  0
  1 28  1  0
  1 29  1  0
  3 30  1  0
  3 31  1  0
  4 32  1  0
  4 33  1  0
  5 34  1  0
  7 35  1  0
  8 36  1  0
 10 37  1  0
 13 38  1  0
 20 39  1  0
 20 40  1  0
 20 41  1  0
 21 42  1  0
 21 43  1  0
 21 44  1  0
 22 45  1  0
 22 46  1  0
 22 47  1  0
 24 48  1  0
 25 49  1  0
 25 50  1  0
 26 51  1  0
 26 52  1  0
M  CHG  1  13  -1
M  END
>  <UniqueID>  (96) 
96

>  <SMILES>  (96) 
CN1CCC(c2ccc3cc(C([NH-])=O)n(C(=O)OC(C)(C)C)c3c2)CC1

>  <Energy>  (96) 
96.4882803246031

>  <Genealogy>  (96) 
CN1CCC(c2ccc3cc(C([NH-])=O)n(C(=O)OC(C)(C)C)c3c2)CC1 (protonated)
CN1CCC(c2ccc3cc(C([NH-])=O)n(C(=O)OC(C)(C)C)c3c2)CC1 (3D coordinates assigned)
CN1CCC(c2ccc3cc(C([NH-])=O)n(C(=O)OC(C)(C)C)c3c2)CC1 (nonaromatic ring conformer: 96.4882803246031 kcal/mol)

>  <smiles>  (96) 
CN1CCC(c2ccc3cc(C(N)=O)n(C(=O)OC(C)(C)C)c3c2)CC1

>  <score_type>  (96) 
oracle

>  <origin>  (96) 
adg

>  <m_score__min__energy>  (96) 
-8.7799999999999994

>  <m_primary>  (96) 
energy

$$$$
96:0
     RDKit          3D

 67 71  0  0  0  0  0  0  0  0999 V2000
  144.5520  153.9540  131.5220 C   0  0  0  0  0  0  0  0  0  0  0  0
  145.5000  154.5570  132.5520 C   0  0  0  0  0  0  0  0  0  0  0  0
  146.4120  153.5740  133.0400 O   0  0  0  0  0  0  0  0  0  0  0  0
  147.8030  153.7050  132.9650 C   0  0  0  0  0  0  0  0  0  0  0  0
  148.3330  154.4610  132.1040 O   0  0  0  0  0  0  0  0  0  0  0  0
  148.6550  152.9690  133.9530 C   0  0  0  0  0  0  0  0  0  0  0  0
  148.4570  153.4590  135.2770 O   0  0  0  0  0  0  0  0  0  0  0  0
  147.2970  154.1310  135.6850 C   0  0  0  0  0  0  0  0  0  0  0  0
  146.8830  155.1340  135.0430 O   0  0  0  0  0  0  0  0  0  0  0  0
  146.5630  153.6530  136.8230 N   0  0  0  0  0  0  0  0  0  0  0  0
  147.0390  152.9210  137.8700 C   0  0  0  0  0  0  0  0  0  0  0  0
  148.4610  152.6270  138.1430 C   0  0  0  0  0  0  0  0  0  0  0  0
  149.1970  151.7990  137.2450 N   0  0  0  0  0  0  0  0  0  0  0  0
  149.0230  153.0670  139.1800 O   0  0  0  0  0  0  0  0  0  0  0  0
  145.9990  152.5450  138.7160 C   0  0  0  0  0  0  0  0  0  0  0  0
  144.8610  153.0760  138.1530 C   0  0  0  0  0  0  0  0  0  0  0  0
  143.5360  153.0000  138.5710 C   0  0  0  0  0  0  0  0  0  0  0  0
  142.5580  153.6210  137.7780 C   0  0  0  0  0  0  0  0  0  0  0  0
  142.9120  154.2960  136.5810 C   0  0  0  0  0  0  0  0  0  0  0  0
  141.8340  154.9740  135.7550 C   0  0  2  0  0  0  0  0  0  0  0  0
  141.5620  154.2270  134.4380 C   0  0  0  0  0  0  0  0  0  0  0  0
  140.3540  154.8400  133.7220 C   0  0  0  0  0  0  0  0  0  0  0  0
  140.4320  156.3430  133.6340 C   0  0  0  0  0  0  0  0  0  0  0  0
  139.6220  156.9830  132.7510 N   0  0  0  0  0  0  0  0  0  0  0  0
  139.5920  158.3390  132.6590 C   0  0  0  0  0  0  0  0  0  0  0  0
  138.7030  159.0060  131.6760 C   0  0  0  0  0  0  0  0  0  0  0  0
  137.3080  158.8200  131.7280 C   0  0  0  0  0  0  0  0  0  0  0  0
  136.4720  159.4520  130.8010 C   0  0  0  0  0  0  0  0  0  0  0  0
  137.0150  160.2730  129.8100 C   0  0  0  0  0  0  0  0  0  0  0  0
  136.1700  160.9000  128.8960 O   0  0  0  0  0  0  0  0  0  0  0  0
  138.4010  160.4630  129.7470 C   0  0  0  0  0  0  0  0  0  0  0  0
  139.2400  159.8350  130.6730 C   0  0  0  0  0  0  0  0  0  0  0  0
  140.3850  159.0780  133.4780 N   0  0  0  0  0  0  0  0  0  0  0  0
  141.2090  158.4970  134.3910 C   0  0  0  0  0  0  0  0  0  0  0  0
  142.0210  159.2880  135.2110 O   0  0  0  0  0  0  0  0  0  0  0  0
  143.1950  159.9370  134.7410 C   0  0  0  0  0  0  0  0  0  0  0  0
  141.2430  157.0990  134.5060 C   0  0  0  0  0  0  0  0  0  0  0  0
  142.2070  156.4380  135.4670 C   0  0  0  0  0  0  0  0  0  0  0  0
  144.2740  154.3570  136.1950 C   0  0  0  0  0  0  0  0  0  0  0  0
  145.2280  153.7410  137.0130 C   0  0  0  0  0  0  0  0  0  0  0  0
  143.7326  153.4328  132.0387 H   0  0  0  0  0  0  0  0  0  0  0  0
  144.1376  154.7548  130.8920 H   0  0  0  0  0  0  0  0  0  0  0  0
  145.1017  153.2392  130.8920 H   0  0  0  0  0  0  0  0  0  0  0  0
  146.0679  155.3746  132.0840 H   0  0  0  0  0  0  0  0  0  0  0  0
  144.9065  154.9367  133.3968 H   0  0  0  0  0  0  0  0  0  0  0  0
  148.3949  151.9006  133.9241 H   0  0  0  0  0  0  0  0  0  0  0  0
  149.7101  153.1212  133.6816 H   0  0  0  0  0  0  0  0  0  0  0  0
  148.8280  151.5830  136.2920 H   0  0  0  0  0  0  0  0  0  0  0  0
  146.0715  151.9500  139.6383 H   0  0  0  0  0  0  0  0  0  0  0  0
  143.2630  152.4693  139.4950 H   0  0  0  0  0  0  0  0  0  0  0  0
  141.5034  153.5839  138.0886 H   0  0  0  0  0  0  0  0  0  0  0  0
  140.9091  154.9506  136.3501 H   0  0  0  0  0  0  0  0  0  0  0  0
  142.4463  154.3023  133.7882 H   0  0  0  0  0  0  0  0  0  0  0  0
  141.3491  153.1712  134.6615 H   0  0  0  0  0  0  0  0  0  0  0  0
  140.3035  154.4298  132.7026 H   0  0  0  0  0  0  0  0  0  0  0  0
  139.4572  154.5871  134.3067 H   0  0  0  0  0  0  0  0  0  0  0  0
  136.8723  158.1728  132.5034 H   0  0  0  0  0  0  0  0  0  0  0  0
  135.3835  159.3018  130.8528 H   0  0  0  0  0  0  0  0  0  0  0  0
  135.1790  161.0070  129.0790 H   0  0  0  0  0  0  0  0  0  0  0  0
  138.8311  161.1082  128.9668 H   0  0  0  0  0  0  0  0  0  0  0  0
  140.3276  159.9900  130.6172 H   0  0  0  0  0  0  0  0  0  0  0  0
  143.7980  160.2703  135.5985 H   0  0  0  0  0  0  0  0  0  0  0  0
  143.7823  159.2354  134.1304 H   0  0  0  0  0  0  0  0  0  0  0  0
  142.9133  160.8075  134.1304 H   0  0  0  0  0  0  0  0  0  0  0  0
  143.2164  156.4664  135.0307 H   0  0  0  0  0  0  0  0  0  0  0  0
  142.1642  156.9890  136.4181 H   0  0  0  0  0  0  0  0  0  0  0  0
  144.5747  154.8767  135.2733 H   0  0  0  0  0  0  0  0  0  0  0  0
  1  2  1  0
  2  3  1  0
  3  4  1  0
  4  5  2  0
  4  6  1  0
  6  7  1  0
  7  8  1  0
  8  9  2  0
  8 10  1  0
 10 11  1  0
 11 12  1  0
 12 13  1  0
 12 14  2  0
 11 15  2  0
 15 16  1  0
 16 17  2  0
 17 18  1  0
 18 19  2  0
 19 20  1  0
 20 21  1  0
 21 22  1  0
 22 23  1  0
 23 24  2  0
 24 25  1  0
 25 26  1  0
 26 27  2  0
 27 28  1  0
 28 29  2  0
 29 30  1  0
 29 31  1  0
 31 32  2  0
 25 33  2  0
 33 34  1  0
 34 35  1  0
 35 36  1  0
 34 37  2  0
 37 38  1  0
 19 39  1  0
 39 40  2  0
 40 10  1  0
 40 16  1  0
 38 20  1  0
 37 23  1  0
 32 26  1  0
  1 41  1  0
  1 42  1  0
  1 43  1  0
  2 44  1  0
  2 45  1  0
  6 46  1  0
  6 47  1  0
 13 48  1  0
 15 49  1  0
 17 50  1  0
 18 51  1  0
 20 52  1  1
 21 53  1  0
 21 54  1  0
 22 55  1  0
 22 56  1  0
 27 57  1  0
 28 58  1  0
 30 59  1  0
 31 60  1  0
 32 61  1  0
 36 62  1  0
 36 63  1  0
 36 64  1  0
 38 65  1  0
 38 66  1  0
 39 67  1  0
M  CHG  1  13  -1
M  END
>  <UniqueID>  (97) 
97

>  <SMILES>  (97) 
CCOC(=O)COC(=O)n1c(C([NH-])=O)cc2ccc([C@@H]3CCc4nc(-c5ccc(O)cc5)nc(OC)c4C3)cc21

>  <Energy>  (97) 
105.76682451954072

>  <Genealogy>  (97) 
CCOC(=O)COC(=O)n1c(C([NH-])=O)cc2ccc(C3CCc4nc(-c5ccc(O)cc5)nc(OC)c4C3)cc21 (protonated)
CCOC(=O)COC(=O)n1c(C([NH-])=O)cc2ccc([C@@H]3CCc4nc(-c5ccc(O)cc5)nc(OC)c4C3)cc21 (chirality)
CCOC(=O)COC(=O)n1c(C([NH-])=O)cc2ccc([C@@H]3CCc4nc(-c5ccc(O)cc5)nc(OC)c4C3)cc21 (3D coordinates assigned)
CCOC(=O)COC(=O)n1c(C([NH-])=O)cc2ccc([C@@H]3CCc4nc(-c5ccc(O)cc5)nc(OC)c4C3)cc21 (nonaromatic ring conformer: 105.76682451954072 kcal/mol)

>  <smiles>  (97) 
CCOC(=O)COC(=O)n1c(C(N)=O)cc2ccc(C3CCc4nc(-c5ccc(O)cc5)nc(OC)c4C3)cc21

>  <score_type>  (97) 
oracle

>  <origin>  (97) 
adg

>  <m_score__min__energy>  (97) 
-8.5099999999999998

>  <m_primary>  (97) 
energy

$$$$
97:0
     RDKit          3D

 28 29  0  0  0  0  0  0  0  0999 V2000
  141.6550  158.5550  134.9000 C   0  0  0  0  0  0  0  0  0  0  0  0
  143.0690  158.4120  134.8340 O   0  0  0  0  0  0  0  0  0  0  0  0
  143.7670  158.3880  133.6240 C   0  0  0  0  0  0  0  0  0  0  0  0
  143.2670  157.8240  132.6110 O   0  0  0  0  0  0  0  0  0  0  0  0
  145.0710  158.9870  133.5400 N   0  0  0  0  0  0  0  0  0  0  0  0
  145.3840  160.3130  133.5420 C   0  0  0  0  0  0  0  0  0  0  0  0
  144.4490  161.4290  133.7930 C   0  0  0  0  0  0  0  0  0  0  0  0
  143.0390  161.2320  133.7320 N   0  0  0  0  0  0  0  0  0  0  0  0
  144.9000  162.5600  134.1140 O   0  0  0  0  0  0  0  0  0  0  0  0
  146.7540  160.4910  133.3530 C   0  0  0  0  0  0  0  0  0  0  0  0
  147.2750  159.2220  133.2430 C   0  0  0  0  0  0  0  0  0  0  0  0
  148.5880  158.8080  133.0480 C   0  0  0  0  0  0  0  0  0  0  0  0
  148.8380  157.4290  132.9510 C   0  0  0  0  0  0  0  0  0  0  0  0
  147.7730  156.4920  133.0240 C   0  0  0  0  0  0  0  0  0  0  0  0
  148.0570  155.0130  132.9560 C   0  0  0  0  0  0  0  0  0  0  0  0
  147.0250  154.3820  132.2880 F   0  0  0  0  0  0  0  0  0  0  0  0
  149.2430  154.7740  132.2840 F   0  0  0  0  0  0  0  0  0  0  0  0
  148.1660  154.4780  134.2280 F   0  0  0  0  0  0  0  0  0  0  0  0
  146.4540  156.9520  133.2470 C   0  0  0  0  0  0  0  0  0  0  0  0
  146.2380  158.3320  133.3580 C   0  0  0  0  0  0  0  0  0  0  0  0
  141.3385  158.5870  135.9530 H   0  0  0  0  0  0  0  0  0  0  0  0
  141.3570  159.4879  134.3990 H   0  0  0  0  0  0  0  0  0  0  0  0
  141.1763  157.7007  134.3990 H   0  0  0  0  0  0  0  0  0  0  0  0
  142.6280  160.2740  133.7840 H   0  0  0  0  0  0  0  0  0  0  0  0
  147.3020  161.4435  133.3025 H   0  0  0  0  0  0  0  0  0  0  0  0
  149.4068  159.5387  132.9719 H   0  0  0  0  0  0  0  0  0  0  0  0
  149.8695  157.0711  132.8171 H   0  0  0  0  0  0  0  0  0  0  0  0
  145.6173  156.2428  133.3313 H   0  0  0  0  0  0  0  0  0  0  0  0
  1  2  1  0
  2  3  1  0
  3  4  2  0
  3  5  1  0
  5  6  1  0
  6  7  1  0
  7  8  1  0
  7  9  2  0
  6 10  2  0
 10 11  1  0
 11 12  2  0
 12 13  1  0
 13 14  2  0
 14 15  1  0
 15 16  1  0
 15 17  1  0
 15 18  1  0
 14 19  1  0
 19 20  2  0
 20  5  1  0
 20 11  1  0
  1 21  1  0
  1 22  1  0
  1 23  1  0
  8 24  1  0
 10 25  1  0
 12 26  1  0
 13 27  1  0
 19 28  1  0
M  CHG  1   8  -1
M  END
>  <UniqueID>  (98) 
98

>  <SMILES>  (98) 
COC(=O)n1c(C([NH-])=O)cc2ccc(C(F)(F)F)cc21

>  <Energy>  (98) 
66.37600693030927

>  <Genealogy>  (98) 
COC(=O)n1c(C([NH-])=O)cc2ccc(C(F)(F)F)cc21 (protonated)
COC(=O)n1c(C([NH-])=O)cc2ccc(C(F)(F)F)cc21 (3D coordinates assigned)
COC(=O)n1c(C([NH-])=O)cc2ccc(C(F)(F)F)cc21 (optimized conformer: 66.37600693030927 kcal/mol)

>  <smiles>  (98) 
COC(=O)n1c(C(N)=O)cc2ccc(C(F)(F)F)cc21

>  <score_type>  (98) 
oracle

>  <origin>  (98) 
adg

>  <m_score__min__energy>  (98) 
-5.1299999999999999

>  <m_primary>  (98) 
energy

$$$$
98:0
     RDKit          3D

 48 50  0  0  0  0  0  0  0  0999 V2000
  144.9530  154.9890  134.5470 C   0  0  0  0  0  0  0  0  0  0  0  0
  144.7050  154.9630  133.0280 C   0  0  0  0  0  0  0  0  0  0  0  0
  144.1930  153.5790  132.5820 C   0  0  0  0  0  0  0  0  0  0  0  0
  146.0240  155.2600  132.3010 C   0  0  0  0  0  0  0  0  0  0  0  0
  143.7750  155.9870  132.6500 O   0  0  0  0  0  0  0  0  0  0  0  0
  142.7070  156.4720  133.4200 C   0  0  0  0  0  0  0  0  0  0  0  0
  141.7810  155.7050  133.7980 O   0  0  0  0  0  0  0  0  0  0  0  0
  142.6570  157.8690  133.7490 N   0  0  0  0  0  0  0  0  0  0  0  0
  141.5710  158.6120  134.1020 C   0  0  0  0  0  0  0  0  0  0  0  0
  140.2100  158.0960  134.3570 C   0  0  0  0  0  0  0  0  0  0  0  0
  139.5380  157.3410  133.3520 N   0  0  0  0  0  0  0  0  0  0  0  0
  139.6190  158.3430  135.4420 O   0  0  0  0  0  0  0  0  0  0  0  0
  141.9310  159.9480  134.2800 C   0  0  0  0  0  0  0  0  0  0  0  0
  143.2830  159.9980  134.0290 C   0  0  0  0  0  0  0  0  0  0  0  0
  144.1630  161.0760  134.0590 C   0  0  0  0  0  0  0  0  0  0  0  0
  145.5100  160.8380  133.7380 C   0  0  0  0  0  0  0  0  0  0  0  0
  145.9510  159.5390  133.3790 C   0  0  0  0  0  0  0  0  0  0  0  0
  147.3350  159.3040  133.0570 N   0  0  0  0  0  0  0  0  0  0  0  0
  148.1380  160.3170  132.3630 C   0  0  0  0  0  0  0  0  0  0  0  0
  148.7640  159.7200  131.0860 C   0  0  0  0  0  0  0  0  0  0  0  0
  149.0090  158.2650  131.1660 N   0  0  0  0  0  0  0  0  0  0  0  0
  149.2240  157.8000  132.5430 C   0  0  0  0  0  0  0  0  0  0  0  0
  147.9600  158.0180  133.3880 C   0  0  0  0  0  0  0  0  0  0  0  0
  145.0270  158.4690  133.3650 C   0  0  0  0  0  0  0  0  0  0  0  0
  143.6970  158.7300  133.7100 C   0  0  0  0  0  0  0  0  0  0  0  0
  143.9943  154.8885  135.0768 H   0  0  0  0  0  0  0  0  0  0  0  0
  145.6146  154.1553  134.8248 H   0  0  0  0  0  0  0  0  0  0  0  0
  145.4273  155.9418  134.8248 H   0  0  0  0  0  0  0  0  0  0  0  0
  143.9671  152.9684  133.4687 H   0  0  0  0  0  0  0  0  0  0  0  0
  143.2809  153.7021  131.9795 H   0  0  0  0  0  0  0  0  0  0  0  0
  144.9656  153.0789  131.9795 H   0  0  0  0  0  0  0  0  0  0  0  0
  146.8182  155.4388  133.0408 H   0  0  0  0  0  0  0  0  0  0  0  0
  146.2968  154.4008  131.6706 H   0  0  0  0  0  0  0  0  0  0  0  0
  145.9022  156.1532  131.6706 H   0  0  0  0  0  0  0  0  0  0  0  0
  139.8420  156.3700  133.1150 H   0  0  0  0  0  0  0  0  0  0  0  0
  141.2737  160.7839  134.5613 H   0  0  0  0  0  0  0  0  0  0  0  0
  143.8142  162.0845  134.3261 H   0  0  0  0  0  0  0  0  0  0  0  0
  146.2306  161.6687  133.7655 H   0  0  0  0  0  0  0  0  0  0  0  0
  147.4940  161.1656  132.0890 H   0  0  0  0  0  0  0  0  0  0  0  0
  148.9429  160.6559  133.0318 H   0  0  0  0  0  0  0  0  0  0  0  0
  148.0828  159.9112  130.2438 H   0  0  0  0  0  0  0  0  0  0  0  0
  149.7434  160.2030  130.9533 H   0  0  0  0  0  0  0  0  0  0  0  0
  148.1780  157.7600  130.7730 H   0  0  0  0  0  0  0  0  0  0  0  0
  149.4695  156.7278  132.5288 H   0  0  0  0  0  0  0  0  0  0  0  0
  150.0517  158.3727  132.9867 H   0  0  0  0  0  0  0  0  0  0  0  0
  147.2457  157.2061  133.1867 H   0  0  0  0  0  0  0  0  0  0  0  0
  148.2400  158.0222  134.4518 H   0  0  0  0  0  0  0  0  0  0  0  0
  145.3471  157.4535  133.0888 H   0  0  0  0  0  0  0  0  0  0  0  0
  1  2  1  0
  2  3  1  0
  2  4  1  0
  2  5  1  0
  5  6  1  0
  6  7  2  0
  6  8  1  0
  8  9  1  0
  9 10  1  0
 10 11  1  0
 10 12  2  0
  9 13  2  0
 13 14  1  0
 14 15  2  0
 15 16  1  0
 16 17  2  0
 17 18  1  0
 18 19  1  0
 19 20  1  0
 20 21  1  0
 21 22  1  0
 22 23  1  0
 17 24  1  0
 24 25  2  0
 25  8  1  0
 25 14  1  0
 23 18  1  0
  1 26  1  0
  1 27  1  0
  1 28  1  0
  3 29  1  0
  3 30  1  0
  3 31  1  0
  4 32  1  0
  4 33  1  0
  4 34  1  0
 11 35  1  0
 13 36  1  0
 15 37  1  0
 16 38  1  0
 19 39  1  0
 19 40  1  0
 20 41  1  0
 20 42  1  0
 21 43  1  0
 22 44  1  0
 22 45  1  0
 23 46  1  0
 23 47  1  0
 24 48  1  0
M  CHG  1  11  -1
M  END
>  <UniqueID>  (99) 
99

>  <SMILES>  (99) 
CC(C)(C)OC(=O)n1c(C([NH-])=O)cc2ccc(N3CCNCC3)cc21

>  <Energy>  (99) 
90.4152256926242

>  <Genealogy>  (99) 
CC(C)(C)OC(=O)n1c(C([NH-])=O)cc2ccc(N3CCNCC3)cc21 (protonated)
CC(C)(C)OC(=O)n1c(C([NH-])=O)cc2ccc(N3CCNCC3)cc21 (3D coordinates assigned)
CC(C)(C)OC(=O)n1c(C([NH-])=O)cc2ccc(N3CCNCC3)cc21 (nonaromatic ring conformer: 90.4152256926242 kcal/mol)

>  <smiles>  (99) 
CC(C)(C)OC(=O)n1c(C(N)=O)cc2ccc(N3CCNCC3)cc21

>  <score_type>  (99) 
oracle

>  <origin>  (99) 
adg

>  <m_score__min__energy>  (99) 
-7.2599999999999998

>  <m_primary>  (99) 
energy

$$$$
