0:0
     RDKit          3D

 37 38  0  0  0  0  0  0  0  0999 V2000
  140.3620  157.9750  133.5230 C   0  0  0  0  0  0  0  0  0  0  0  0
  141.6390  158.2580  134.2040 N   0  0  1  0  0  0  0  0  0  0  0  0
  141.6640  157.7630  135.6000 C   0  0  0  0  0  0  0  0  0  0  0  0
  141.3290  158.8160  136.6230 C   0  0  0  0  0  0  0  0  0  0  0  0
  141.3690  158.5420  137.8510 O   0  0  0  0  0  0  0  0  0  0  0  0
  140.9770  160.0980  136.2180 O   0  0  0  0  0  0  0  0  0  0  0  0
  142.7650  157.7520  133.4410 C   0  0  0  0  0  0  0  0  0  0  0  0
  142.6360  157.5020  132.2100 O   0  0  0  0  0  0  0  0  0  0  0  0
  144.0750  157.4990  134.0830 C   0  0  0  0  0  0  0  0  0  0  0  0
  144.1800  156.6390  134.9980 O   0  0  0  0  0  0  0  0  0  0  0  0
  145.2280  158.2640  133.7030 N   0  0  0  0  0  0  0  0  0  0  0  0
  145.3640  159.6180  133.6790 C   0  0  0  0  0  0  0  0  0  0  0  0
  144.2870  160.5940  133.9410 C   0  0  0  0  0  0  0  0  0  0  0  0
  143.0080  160.4210  133.3360 N   0  0  0  0  0  0  0  0  0  0  0  0
  144.4790  161.5670  134.7160 O   0  0  0  0  0  0  0  0  0  0  0  0
  146.6600  159.9690  133.3020 C   0  0  0  0  0  0  0  0  0  0  0  0
  147.3120  158.7760  133.0850 C   0  0  0  0  0  0  0  0  0  0  0  0
  148.6220  158.5260  132.6850 C   0  0  0  0  0  0  0  0  0  0  0  0
  149.0250  157.1860  132.5480 C   0  0  0  0  0  0  0  0  0  0  0  0
  148.1210  156.1290  132.8230 C   0  0  0  0  0  0  0  0  0  0  0  0
  148.5530  154.7040  132.6400 C   0  0  0  0  0  0  0  0  0  0  0  0
  148.4780  154.0400  133.8500 F   0  0  0  0  0  0  0  0  0  0  0  0
  146.7950  156.4210  133.2110 C   0  0  0  0  0  0  0  0  0  0  0  0
  146.4230  157.7620  133.3320 C   0  0  0  0  0  0  0  0  0  0  0  0
  139.5769  157.8010  134.2735 H   0  0  0  0  0  0  0  0  0  0  0  0
  140.0840  158.8333  132.8937 H   0  0  0  0  0  0  0  0  0  0  0  0
  140.4726  157.0796  132.8937 H   0  0  0  0  0  0  0  0  0  0  0  0
  141.7090  159.3010  134.2550 H   0  0  0  0  0  0  0  0  0  0  0  0
  140.9337  156.9455  135.6915 H   0  0  0  0  0  0  0  0  0  0  0  0
  142.6929  157.4324  135.8049 H   0  0  0  0  0  0  0  0  0  0  0  0
  142.8530  159.6850  132.6120 H   0  0  0  0  0  0  0  0  0  0  0  0
  147.0733  160.9832  133.1998 H   0  0  0  0  0  0  0  0  0  0  0  0
  149.3202  159.3515  132.4824 H   0  0  0  0  0  0  0  0  0  0  0  0
  150.0508  156.9557  132.2246 H   0  0  0  0  0  0  0  0  0  0  0  0
  147.8932  154.2118  131.9103 H   0  0  0  0  0  0  0  0  0  0  0  0
  149.5895  154.6798  132.2725 H   0  0  0  0  0  0  0  0  0  0  0  0
  146.0747  155.6145  133.4125 H   0  0  0  0  0  0  0  0  0  0  0  0
  1  2  1  0
  2  3  1  0
  3  4  1  0
  4  5  2  0
  4  6  1  0
  2  7  1  0
  7  8  2  0
  7  9  1  0
  9 10  2  0
  9 11  1  0
 11 12  1  0
 12 13  1  0
 13 14  1  0
 13 15  2  0
 12 16  2  0
 16 17  1  0
 17 18  2  0
 18 19  1  0
 19 20  2  0
 20 21  1  0
 21 22  1  0
 20 23  1  0
 23 24  2  0
 24 11  1  0
 24 17  1  0
  1 25  1  0
  1 26  1  0
  1 27  1  0
  2 28  1  1
  3 29  1  0
  3 30  1  0
 14 31  1  0
 16 32  1  0
 18 33  1  0
 19 34  1  0
 21 35  1  0
 21 36  1  0
 23 37  1  0
M  CHG  3   2   1   6  -1  14  -1
M  END
>  <UniqueID>  (1) 
1

>  <SMILES>  (1) 
C[N@@H+](CC(=O)[O-])C(=O)C(=O)n1c(C([NH-])=O)cc2ccc(CF)cc21

>  <Energy>  (1) 
79.93377964891181

>  <Genealogy>  (1) 
C[NH+](CC(=O)[O-])C(=O)C(=O)n1c(C([NH-])=O)cc2ccc(CF)cc21 (protonated)
C[N@@H+](CC(=O)[O-])C(=O)C(=O)n1c(C([NH-])=O)cc2ccc(CF)cc21 (chirality)
C[N@@H+](CC(=O)[O-])C(=O)C(=O)n1c(C([NH-])=O)cc2ccc(CF)cc21 (3D coordinates assigned)
C[N@@H+](CC(=O)[O-])C(=O)C(=O)n1c(C([NH-])=O)cc2ccc(CF)cc21 (optimized conformer: 79.93377964891181 kcal/mol)

>  <smiles>  (1) 
CN(CC(=O)O)C(=O)C(=O)n1c(C(N)=O)cc2ccc(CF)cc21

>  <score_type>  (1) 
oracle

>  <origin>  (1) 
adg

>  <m_score__min__energy>  (1) 
-5.7199999999999998

>  <m_primary>  (1) 
energy

$$$$
3:0
     RDKit          3D

 59 62  0  0  0  0  0  0  0  0999 V2000
  138.8660  158.6210  132.9170 C   0  0  0  0  0  0  0  0  0  0  0  0
  140.3310  158.4600  132.8930 N   0  0  0  0  0  0  0  0  0  0  0  0
  141.0410  159.7560  133.0000 C   0  0  0  0  0  0  0  0  0  0  0  0
  141.7890  159.9280  134.3350 C   0  0  1  0  0  0  0  0  0  0  0  0
  140.9610  159.3920  135.5060 C   0  0  0  0  0  0  0  0  0  0  0  0
  140.6660  157.9000  135.3370 C   0  0  0  0  0  0  0  0  0  0  0  0
  140.7960  157.4450  133.8660 C   0  0  2  0  0  0  0  0  0  0  0  0
  142.2230  156.9910  133.5120 C   0  0  0  0  0  0  0  0  0  0  0  0
  143.3410  157.9230  133.8100 N   0  0  0  0  0  0  0  0  0  0  0  0
  144.7020  157.4240  133.5970 C   0  0  0  0  0  0  0  0  0  0  0  0
  145.8180  158.3160  133.5310 C   0  0  0  0  0  0  0  0  0  0  0  0
  147.1240  157.8420  133.3320 C   0  0  0  0  0  0  0  0  0  0  0  0
  147.3110  156.4750  133.1950 C   0  0  0  0  0  0  0  0  0  0  0  0
  148.4680  155.7500  133.0150 C   0  0  0  0  0  0  0  0  0  0  0  0
  148.0630  154.4170  132.9640 C   0  0  0  0  0  0  0  0  0  0  0  0
  148.9850  153.2810  132.7440 C   0  0  0  0  0  0  0  0  0  0  0  0
  148.8260  152.0820  133.4980 N   0  0  0  0  0  0  0  0  0  0  0  0
  149.9200  153.3630  131.9050 O   0  0  0  0  0  0  0  0  0  0  0  0
  146.7110  154.3270  133.1030 N   0  0  0  0  0  0  0  0  0  0  0  0
  145.9160  153.1340  133.1350 C   0  0  0  0  0  0  0  0  0  0  0  0
  146.1940  152.1920  132.3480 O   0  0  0  0  0  0  0  0  0  0  0  0
  144.6740  153.0870  133.9950 C   0  0  0  0  0  0  0  0  0  0  0  0
  143.3040  152.9720  133.2510 C   0  0  0  0  0  0  0  0  0  0  0  0
  142.9480  151.4920  132.9890 C   0  0  0  0  0  0  0  0  0  0  0  0
  143.3220  153.7440  131.9150 C   0  0  0  0  0  0  0  0  0  0  0  0
  142.2300  153.6020  134.1250 C   0  0  0  0  0  0  0  0  0  0  0  0
  142.5420  154.1660  135.2080 O   0  0  0  0  0  0  0  0  0  0  0  0
  140.9040  153.6360  133.7080 O   0  0  0  0  0  0  0  0  0  0  0  0
  146.2680  155.5940  133.2440 C   0  0  0  0  0  0  0  0  0  0  0  0
  144.9580  156.0300  133.4530 C   0  0  0  0  0  0  0  0  0  0  0  0
  143.1980  159.3160  134.3080 C   0  0  0  0  0  0  0  0  0  0  0  0
  138.5184  158.6592  133.9599 H   0  0  0  0  0  0  0  0  0  0  0  0
  138.5913  159.5547  132.4045 H   0  0  0  0  0  0  0  0  0  0  0  0
  138.3951  157.7692  132.4045 H   0  0  0  0  0  0  0  0  0  0  0  0
  141.7701  159.8243  132.1792 H   0  0  0  0  0  0  0  0  0  0  0  0
  140.2823  160.5506  132.9450 H   0  0  0  0  0  0  0  0  0  0  0  0
  141.9266  161.0089  134.4854 H   0  0  0  0  0  0  0  0  0  0  0  0
  141.5209  159.5436  136.4406 H   0  0  0  0  0  0  0  0  0  0  0  0
  140.0050  159.9354  135.5346 H   0  0  0  0  0  0  0  0  0  0  0  0
  141.3767  157.3262  135.9499 H   0  0  0  0  0  0  0  0  0  0  0  0
  139.6287  157.7214  135.6565 H   0  0  0  0  0  0  0  0  0  0  0  0
  140.1252  156.5771  133.7838 H   0  0  0  0  0  0  0  0  0  0  0  0
  142.4170  156.0592  134.0634 H   0  0  0  0  0  0  0  0  0  0  0  0
  142.2213  156.9025  132.4156 H   0  0  0  0  0  0  0  0  0  0  0  0
  145.6490  159.3976  133.6386 H   0  0  0  0  0  0  0  0  0  0  0  0
  147.9760  158.5362  133.2860 H   0  0  0  0  0  0  0  0  0  0  0  0
  149.4931  156.1396  132.9297 H   0  0  0  0  0  0  0  0  0  0  0  0
  147.9390  151.5340  133.4550 H   0  0  0  0  0  0  0  0  0  0  0  0
  144.7642  152.2171  134.6621 H   0  0  0  0  0  0  0  0  0  0  0  0
  144.6421  154.0601  134.5070 H   0  0  0  0  0  0  0  0  0  0  0  0
  142.8223  150.9696  133.9489 H   0  0  0  0  0  0  0  0  0  0  0  0
  142.0108  151.4362  132.4158 H   0  0  0  0  0  0  0  0  0  0  0  0
  143.7573  151.0161  132.4158 H   0  0  0  0  0  0  0  0  0  0  0  0
  143.3472  154.8251  132.1165 H   0  0  0  0  0  0  0  0  0  0  0  0
  144.2137  153.4577  131.3380 H   0  0  0  0  0  0  0  0  0  0  0  0
  142.4179  153.4996  131.3380 H   0  0  0  0  0  0  0  0  0  0  0  0
  144.1325  155.3049  133.5059 H   0  0  0  0  0  0  0  0  0  0  0  0
  143.5843  159.3372  135.3377 H   0  0  0  0  0  0  0  0  0  0  0  0
  143.7508  159.9277  133.5799 H   0  0  0  0  0  0  0  0  0  0  0  0
  1  2  1  0
  2  3  1  0
  3  4  1  0
  4  5  1  0
  5  6  1  0
  6  7  1  0
  7  8  1  0
  8  9  1  0
  9 10  1  0
 10 11  2  0
 11 12  1  0
 12 13  2  0
 13 14  1  0
 14 15  2  0
 15 16  1  0
 16 17  1  0
 16 18  2  0
 15 19  1  0
 19 20  1  0
 20 21  2  0
 20 22  1  0
 22 23  1  0
 23 24  1  0
 23 25  1  0
 23 26  1  0
 26 27  2  0
 26 28  1  0
 19 29  1  0
 29 30  2  0
  9 31  1  0
  7  2  1  0
 30 10  1  0
 31  4  1  0
 29 13  1  0
  1 32  1  0
  1 33  1  0
  1 34  1  0
  3 35  1  0
  3 36  1  0
  4 37  1  1
  5 38  1  0
  5 39  1  0
  6 40  1  0
  6 41  1  0
  7 42  1  1
  8 43  1  0
  8 44  1  0
 11 45  1  0
 12 46  1  0
 14 47  1  0
 17 48  1  0
 22 49  1  0
 22 50  1  0
 24 51  1  0
 24 52  1  0
 24 53  1  0
 25 54  1  0
 25 55  1  0
 25 56  1  0
 30 57  1  0
 31 58  1  0
 31 59  1  0
M  CHG  2  17  -1  28  -1
M  END
>  <UniqueID>  (2) 
2

>  <SMILES>  (2) 
CN1C[C@H]2CC[C@@H]1CN(c1ccc3cc(C([NH-])=O)n(C(=O)CC(C)(C)C(=O)[O-])c3c1)C2

>  <Energy>  (2) 
125.55859262815683

>  <Genealogy>  (2) 
CN1CC2CCC1CN(c1ccc3cc(C([NH-])=O)n(C(=O)CC(C)(C)C(=O)[O-])c3c1)C2 (protonated)
CN1C[C@H]2CC[C@@H]1CN(c1ccc3cc(C([NH-])=O)n(C(=O)CC(C)(C)C(=O)[O-])c3c1)C2 (chirality)
CN1C[C@H]2CC[C@@H]1CN(c1ccc3cc(C([NH-])=O)n(C(=O)CC(C)(C)C(=O)[O-])c3c1)C2 (3D coordinates assigned)
CN1C[C@H]2CC[C@@H]1CN(c1ccc3cc(C([NH-])=O)n(C(=O)CC(C)(C)C(=O)[O-])c3c1)C2 (nonaromatic ring conformer: 125.55859262815683 kcal/mol)

>  <smiles>  (2) 
CN1CC2CCC1CN(c1ccc3cc(C(N)=O)n(C(=O)CC(C)(C)C(=O)O)c3c1)C2

>  <score_type>  (2) 
oracle

>  <origin>  (2) 
adg

>  <m_score__min__energy>  (2) 
-7.9400000000000004

>  <m_primary>  (2) 
energy

$$$$
4:0
     RDKit          3D

 35 36  0  0  0  0  0  0  0  0999 V2000
  141.4120  158.7340  135.5510 C   0  0  0  0  0  0  0  0  0  0  0  0
  142.2760  158.1160  134.5420 N   0  0  0  0  0  0  0  0  0  0  0  0
  141.8470  156.8980  133.9800 C   0  0  0  0  0  0  0  0  0  0  0  0
  141.4930  155.8970  133.5170 N   0  0  0  0  0  0  0  0  0  0  0  0
  143.5290  158.7230  134.1310 C   0  0  0  0  0  0  0  0  0  0  0  0
  143.6880  160.1390  134.1290 C   0  0  0  0  0  0  0  0  0  0  0  0
  144.8920  160.7350  133.7190 C   0  0  0  0  0  0  0  0  0  0  0  0
  145.9320  159.9030  133.3230 C   0  0  0  0  0  0  0  0  0  0  0  0
  147.1870  160.2180  132.8570 C   0  0  0  0  0  0  0  0  0  0  0  0
  147.8020  158.9950  132.5970 C   0  0  0  0  0  0  0  0  0  0  0  0
  149.2040  158.8640  132.1490 C   0  0  0  0  0  0  0  0  0  0  0  0
  149.7380  157.5740  131.8570 N   0  0  0  0  0  0  0  0  0  0  0  0
  149.9260  159.8820  131.9860 O   0  0  0  0  0  0  0  0  0  0  0  0
  146.9560  157.9670  132.8870 N   0  0  0  0  0  0  0  0  0  0  0  0
  147.1820  156.5620  132.6890 C   0  0  0  0  0  0  0  0  0  0  0  0
  146.9890  156.0510  131.5520 O   0  0  0  0  0  0  0  0  0  0  0  0
  147.6290  155.7730  133.7550 O   0  0  0  0  0  0  0  0  0  0  0  0
  147.6090  154.3460  133.7460 C   0  0  0  0  0  0  0  0  0  0  0  0
  148.7590  153.7920  132.9080 C   0  0  0  0  0  0  0  0  0  0  0  0
  149.6020  154.8310  132.4930 O   0  0  0  0  0  0  0  0  0  0  0  0
  145.8160  158.5410  133.3320 C   0  0  0  0  0  0  0  0  0  0  0  0
  144.6230  157.9170  133.7150 C   0  0  0  0  0  0  0  0  0  0  0  0
  141.7767  158.4731  136.5555 H   0  0  0  0  0  0  0  0  0  0  0  0
  141.4278  159.8269  135.4275 H   0  0  0  0  0  0  0  0  0  0  0  0
  140.3828  158.3659  135.4275 H   0  0  0  0  0  0  0  0  0  0  0  0
  142.8529  160.7768  134.4544 H   0  0  0  0  0  0  0  0  0  0  0  0
  145.0082  161.8288  133.7116 H   0  0  0  0  0  0  0  0  0  0  0  0
  147.6145  161.2221  132.7189 H   0  0  0  0  0  0  0  0  0  0  0  0
  149.1090  156.7600  131.6840 H   0  0  0  0  0  0  0  0  0  0  0  0
  147.7049  153.9776  134.7780 H   0  0  0  0  0  0  0  0  0  0  0  0
  146.6586  154.0098  133.3058 H   0  0  0  0  0  0  0  0  0  0  0  0
  149.3358  153.0758  133.5116 H   0  0  0  0  0  0  0  0  0  0  0  0
  148.3460  153.2900  132.0207 H   0  0  0  0  0  0  0  0  0  0  0  0
  149.0100  155.5280  132.1090 H   0  0  0  0  0  0  0  0  0  0  0  0
  144.5338  156.8208  133.6943 H   0  0  0  0  0  0  0  0  0  0  0  0
  1  2  1  0
  2  3  1  0
  3  4  3  0
  2  5  1  0
  5  6  2  0
  6  7  1  0
  7  8  2  0
  8  9  1  0
  9 10  2  0
 10 11  1  0
 11 12  1  0
 11 13  2  0
 10 14  1  0
 14 15  1  0
 15 16  2  0
 15 17  1  0
 17 18  1  0
 18 19  1  0
 19 20  1  0
 14 21  1  0
 21 22  2  0
 22  5  1  0
 21  8  1  0
  1 23  1  0
  1 24  1  0
  1 25  1  0
  6 26  1  0
  7 27  1  0
  9 28  1  0
 12 29  1  0
 18 30  1  0
 18 31  1  0
 19 32  1  0
 19 33  1  0
 20 34  1  0
 22 35  1  0
M  CHG  1  12  -1
M  END
>  <UniqueID>  (3) 
3

>  <SMILES>  (3) 
CN(C#N)c1ccc2cc(C([NH-])=O)n(C(=O)OCCO)c2c1

>  <Energy>  (3) 
71.88447833728883

>  <Genealogy>  (3) 
CN(C#N)c1ccc2cc(C([NH-])=O)n(C(=O)OCCO)c2c1 (protonated)
CN(C#N)c1ccc2cc(C([NH-])=O)n(C(=O)OCCO)c2c1 (3D coordinates assigned)
CN(C#N)c1ccc2cc(C([NH-])=O)n(C(=O)OCCO)c2c1 (optimized conformer: 71.88447833728883 kcal/mol)

>  <smiles>  (3) 
CN(C#N)c1ccc2cc(C(N)=O)n(C(=O)OCCO)c2c1

>  <score_type>  (3) 
oracle

>  <origin>  (3) 
adg

>  <m_score__min__energy>  (3) 
-5.4800000000000004

>  <m_primary>  (3) 
energy

$$$$
5:0
     RDKit          3D

 43 44  0  0  0  0  0  0  0  0999 V2000
  148.2330  154.7130  132.6890 C   0  0  0  0  0  0  0  0  0  0  0  0
  147.8540  156.1500  132.8890 C   0  0  0  0  0  0  0  0  0  0  0  0
  148.8440  157.1620  132.8280 C   0  0  0  0  0  0  0  0  0  0  0  0
  148.4930  158.5170  132.9620 C   0  0  0  0  0  0  0  0  0  0  0  0
  147.1490  158.8280  133.1450 C   0  0  0  0  0  0  0  0  0  0  0  0
  146.5290  160.0500  133.2810 C   0  0  0  0  0  0  0  0  0  0  0  0
  145.1730  159.7620  133.4240 C   0  0  0  0  0  0  0  0  0  0  0  0
  144.1400  160.7860  133.6770 C   0  0  0  0  0  0  0  0  0  0  0  0
  142.7770  160.5140  133.3570 N   0  0  0  0  0  0  0  0  0  0  0  0
  144.4520  161.9130  134.1440 O   0  0  0  0  0  0  0  0  0  0  0  0
  144.9620  158.4170  133.3710 N   0  0  0  0  0  0  0  0  0  0  0  0
  143.7090  157.7160  133.3900 C   0  0  0  0  0  0  0  0  0  0  0  0
  143.1080  157.4790  132.3060 O   0  0  0  0  0  0  0  0  0  0  0  0
  143.0880  157.3010  134.6940 C   0  0  0  0  0  0  0  0  0  0  0  0
  142.9450  155.8080  134.7820 C   0  0  0  0  0  0  0  0  0  0  0  0
  143.2140  155.2270  135.8690 O   0  0  0  0  0  0  0  0  0  0  0  0
  142.4500  155.0560  133.6610 N   0  0  0  0  0  0  0  0  0  0  0  0
  142.3620  153.5900  133.6720 C   0  0  1  0  0  0  0  0  0  0  0  0
  141.0770  153.1310  133.0230 C   0  0  0  0  0  0  0  0  0  0  0  0
  140.2350  153.9790  132.6270 O   0  0  0  0  0  0  0  0  0  0  0  0
  140.8050  151.7780  132.8690 O   0  0  0  0  0  0  0  0  0  0  0  0
  143.6190  152.9530  133.0190 C   0  0  2  0  0  0  0  0  0  0  0  0
  144.2470  153.8140  131.9110 C   0  0  0  0  0  0  0  0  0  0  0  0
  143.3400  151.6570  132.5470 O   0  0  0  0  0  0  0  0  0  0  0  0
  146.1800  157.8580  133.2040 C   0  0  0  0  0  0  0  0  0  0  0  0
  146.4980  156.5040  133.0670 C   0  0  0  0  0  0  0  0  0  0  0  0
  148.3610  154.2279  133.6679 H   0  0  0  0  0  0  0  0  0  0  0  0
  147.4396  154.1995  132.1262 H   0  0  0  0  0  0  0  0  0  0  0  0
  149.1765  154.6575  132.1262 H   0  0  0  0  0  0  0  0  0  0  0  0
  149.8974  156.8849  132.6743 H   0  0  0  0  0  0  0  0  0  0  0  0
  149.2574  159.3070  132.9234 H   0  0  0  0  0  0  0  0  0  0  0  0
  147.0032  161.0425  133.2775 H   0  0  0  0  0  0  0  0  0  0  0  0
  142.5230  159.7340  132.7090 H   0  0  0  0  0  0  0  0  0  0  0  0
  143.7249  157.6489  135.5206 H   0  0  0  0  0  0  0  0  0  0  0  0
  142.0856  157.7494  134.7585 H   0  0  0  0  0  0  0  0  0  0  0  0
  142.1500  155.5860  132.8120 H   0  0  0  0  0  0  0  0  0  0  0  0
  142.3391  153.2439  134.7159 H   0  0  0  0  0  0  0  0  0  0  0  0
  144.3722  152.8911  133.8183 H   0  0  0  0  0  0  0  0  0  0  0  0
  144.8372  154.6232  132.3656 H   0  0  0  0  0  0  0  0  0  0  0  0
  144.9022  153.1881  131.2873 H   0  0  0  0  0  0  0  0  0  0  0  0
  143.4509  154.2467  131.2873 H   0  0  0  0  0  0  0  0  0  0  0  0
  142.6220  151.7270  131.8660 H   0  0  0  0  0  0  0  0  0  0  0  0
  145.7130  155.7341  133.0970 H   0  0  0  0  0  0  0  0  0  0  0  0
  1  2  1  0
  2  3  2  0
  3  4  1  0
  4  5  2  0
  5  6  1  0
  6  7  2  0
  7  8  1  0
  8  9  1  0
  8 10  2  0
  7 11  1  0
 11 12  1  0
 12 13  2  0
 12 14  1  0
 14 15  1  0
 15 16  2  0
 15 17  1  0
 17 18  1  0
 18 19  1  0
 19 20  2  0
 19 21  1  0
 18 22  1  0
 22 23  1  0
 22 24  1  0
 11 25  1  0
 25 26  2  0
 26  2  1  0
 25  5  1  0
  1 27  1  0
  1 28  1  0
  1 29  1  0
  3 30  1  0
  4 31  1  0
  6 32  1  0
  9 33  1  0
 14 34  1  0
 14 35  1  0
 17 36  1  0
 18 37  1  1
 22 38  1  1
 23 39  1  0
 23 40  1  0
 23 41  1  0
 24 42  1  0
 26 43  1  0
M  CHG  2   9  -1  21  -1
M  END
>  <UniqueID>  (4) 
4

>  <SMILES>  (4) 
Cc1ccc2cc(C([NH-])=O)n(C(=O)CC(=O)N[C@@H](C(=O)[O-])[C@H](C)O)c2c1

>  <Energy>  (4) 
76.11058340619924

>  <Genealogy>  (4) 
Cc1ccc2cc(C([NH-])=O)n(C(=O)CC(=O)NC(C(=O)[O-])C(C)O)c2c1 (protonated)
Cc1ccc2cc(C([NH-])=O)n(C(=O)CC(=O)N[C@@H](C(=O)[O-])[C@H](C)O)c2c1 (chirality)
Cc1ccc2cc(C([NH-])=O)n(C(=O)CC(=O)N[C@@H](C(=O)[O-])[C@H](C)O)c2c1 (3D coordinates assigned)
Cc1ccc2cc(C([NH-])=O)n(C(=O)CC(=O)N[C@@H](C(=O)[O-])[C@H](C)O)c2c1 (optimized conformer: 76.11058340619924 kcal/mol)

>  <smiles>  (4) 
Cc1ccc2cc(C(N)=O)n(C(=O)CC(=O)NC(C(=O)O)C(C)O)c2c1

>  <score_type>  (4) 
oracle

>  <origin>  (4) 
adg

>  <m_score__min__energy>  (4) 
-7.1399999999999997

>  <m_primary>  (4) 
energy

$$$$
6:0
     RDKit          3D

 40 41  0  0  0  0  0  0  0  0999 V2000
  139.5180  157.8810  136.0730 C   0  0  0  0  0  0  0  0  0  0  0  0
  140.4730  157.8310  134.8760 C   0  0  2  0  0  0  0  0  0  0  0  0
  141.4730  158.9580  134.9430 C   0  0  0  0  0  0  0  0  0  0  0  0
  141.2250  159.9540  135.6780 O   0  0  0  0  0  0  0  0  0  0  0  0
  142.7090  158.9180  134.1990 N   0  0  0  0  0  0  0  0  0  0  0  0
  143.5420  160.1200  134.0880 C   0  0  0  0  0  0  0  0  0  0  0  0
  142.9770  157.7890  133.3450 C   0  0  0  0  0  0  0  0  0  0  0  0
  142.3930  157.6850  132.2330 O   0  0  0  0  0  0  0  0  0  0  0  0
  143.9250  156.7840  133.7430 N   0  0  0  0  0  0  0  0  0  0  0  0
  143.6690  155.4960  134.1060 C   0  0  0  0  0  0  0  0  0  0  0  0
  142.3210  154.9070  134.2710 C   0  0  0  0  0  0  0  0  0  0  0  0
  141.2690  155.2140  133.3540 N   0  0  0  0  0  0  0  0  0  0  0  0
  142.0930  154.1070  135.2150 O   0  0  0  0  0  0  0  0  0  0  0  0
  144.8610  154.8250  134.3810 C   0  0  0  0  0  0  0  0  0  0  0  0
  145.8580  155.7500  134.1680 C   0  0  0  0  0  0  0  0  0  0  0  0
  147.2400  155.6200  134.2730 C   0  0  0  0  0  0  0  0  0  0  0  0
  148.0330  156.7370  133.9580 C   0  0  0  0  0  0  0  0  0  0  0  0
  147.4380  157.9610  133.5550 C   0  0  0  0  0  0  0  0  0  0  0  0
  148.3090  159.1260  133.1620 C   0  0  0  0  0  0  0  0  0  0  0  0
  149.0360  158.8390  132.0190 F   0  0  0  0  0  0  0  0  0  0  0  0
  149.1860  159.4070  134.1930 F   0  0  0  0  0  0  0  0  0  0  0  0
  147.5320  160.2440  132.9120 F   0  0  0  0  0  0  0  0  0  0  0  0
  146.0310  158.0450  133.4400 C   0  0  0  0  0  0  0  0  0  0  0  0
  145.2670  156.9230  133.7790 C   0  0  0  0  0  0  0  0  0  0  0  0
  139.7260  157.8880  133.6160 N   0  0  0  0  0  0  0  0  0  0  0  0
  139.5730  158.9710  133.0140 O   0  0  0  0  0  0  0  0  0  0  0  0
  139.3630  156.7170  132.9910 O   0  0  0  0  0  0  0  0  0  0  0  0
  140.0986  157.8506  137.0068 H   0  0  0  0  0  0  0  0  0  0  0  0
  138.9318  158.8111  136.0358 H   0  0  0  0  0  0  0  0  0  0  0  0
  138.8379  157.0172  136.0358 H   0  0  0  0  0  0  0  0  0  0  0  0
  141.0202  156.8775  134.9154 H   0  0  0  0  0  0  0  0  0  0  0  0
  143.7950  160.4850  135.0944 H   0  0  0  0  0  0  0  0  0  0  0  0
  144.4661  159.8767  133.5432 H   0  0  0  0  0  0  0  0  0  0  0  0
  142.9897  160.8998  133.5432 H   0  0  0  0  0  0  0  0  0  0  0  0
  140.3340  154.7610  133.4600 H   0  0  0  0  0  0  0  0  0  0  0  0
  141.3940  155.9210  132.5960 H   0  0  0  0  0  0  0  0  0  0  0  0
  144.9790  153.7790  134.7002 H   0  0  0  0  0  0  0  0  0  0  0  0
  147.6975  154.6721  134.5927 H   0  0  0  0  0  0  0  0  0  0  0  0
  149.1284  156.6616  134.0246 H   0  0  0  0  0  0  0  0  0  0  0  0
  145.5487  158.9705  133.0923 H   0  0  0  0  0  0  0  0  0  0  0  0
  1  2  1  0
  2  3  1  0
  3  4  2  0
  3  5  1  0
  5  6  1  0
  5  7  1  0
  7  8  2  0
  7  9  1  0
  9 10  1  0
 10 11  1  0
 11 12  1  0
 11 13  2  0
 10 14  2  0
 14 15  1  0
 15 16  2  0
 16 17  1  0
 17 18  2  0
 18 19  1  0
 19 20  1  0
 19 21  1  0
 19 22  1  0
 18 23  1  0
 23 24  2  0
  2 25  1  0
 25 26  2  0
 25 27  1  0
 24  9  1  0
 24 15  1  0
  1 28  1  0
  1 29  1  0
  1 30  1  0
  2 31  1  6
  6 32  1  0
  6 33  1  0
  6 34  1  0
 12 35  1  0
 12 36  1  0
 14 37  1  0
 16 38  1  0
 17 39  1  0
 23 40  1  0
M  CHG  2  25   1  27  -1
M  END
>  <UniqueID>  (5) 
5

>  <SMILES>  (5) 
C[C@H](C(=O)N(C)C(=O)n1c(C(N)=O)cc2ccc(C(F)(F)F)cc21)[N+](=O)[O-]

>  <Energy>  (5) 
79.21614886405438

>  <Genealogy>  (5) 
CC(C(=O)N(C)C(=O)n1c(C(N)=O)cc2ccc(C(F)(F)F)cc21)[N+](=O)[O-] (protonated)
C[C@H](C(=O)N(C)C(=O)n1c(C(N)=O)cc2ccc(C(F)(F)F)cc21)[N+](=O)[O-] (chirality)
C[C@H](C(=O)N(C)C(=O)n1c(C(N)=O)cc2ccc(C(F)(F)F)cc21)[N+](=O)[O-] (3D coordinates assigned)
C[C@H](C(=O)N(C)C(=O)n1c(C(N)=O)cc2ccc(C(F)(F)F)cc21)[N+](=O)[O-] (optimized conformer: 79.21614886405438 kcal/mol)

>  <smiles>  (5) 
CC(C(=O)N(C)C(=O)n1c(C(N)=O)cc2ccc(C(F)(F)F)cc21)[N+](=O)O

>  <score_type>  (5) 
oracle

>  <origin>  (5) 
adg

>  <m_score__min__energy>  (5) 
-6.6500000000000004

>  <m_primary>  (5) 
energy

$$$$
7:0
     RDKit          3D

 39 40  0  0  0  0  0  0  0  0999 V2000
  140.7690  156.6870  134.9000 C   0  0  0  0  0  0  0  0  0  0  0  0
  141.3470  157.8150  134.1460 N   0  0  0  0  0  0  0  0  0  0  0  0
  140.5290  159.0430  134.2660 C   0  0  0  0  0  0  0  0  0  0  0  0
  140.0710  159.5410  132.8910 C   0  0  0  0  0  0  0  0  0  0  0  0
  140.9740  159.1430  131.8930 O   0  0  0  0  0  0  0  0  0  0  0  0
  142.7660  158.0440  134.4980 C   0  0  0  0  0  0  0  0  0  0  0  0
  143.6880  158.0450  133.3010 C   0  0  0  0  0  0  0  0  0  0  0  0
  143.3190  157.4860  132.2340 O   0  0  0  0  0  0  0  0  0  0  0  0
  144.9500  158.7300  133.3410 N   0  0  0  0  0  0  0  0  0  0  0  0
  145.1780  160.0710  133.4080 C   0  0  0  0  0  0  0  0  0  0  0  0
  144.1570  161.1110  133.6430 C   0  0  0  0  0  0  0  0  0  0  0  0
  142.7820  160.8630  133.3590 N   0  0  0  0  0  0  0  0  0  0  0  0
  144.4940  162.2170  134.1430 O   0  0  0  0  0  0  0  0  0  0  0  0
  146.5450  160.3370  133.3380 C   0  0  0  0  0  0  0  0  0  0  0  0
  147.1520  159.1050  133.2460 C   0  0  0  0  0  0  0  0  0  0  0  0
  148.5000  158.7720  133.1640 C   0  0  0  0  0  0  0  0  0  0  0  0
  148.8390  157.4110  133.0760 C   0  0  0  0  0  0  0  0  0  0  0  0
  147.8310  156.4120  133.0510 C   0  0  0  0  0  0  0  0  0  0  0  0
  148.2080  154.9530  132.9980 C   0  0  0  0  0  0  0  0  0  0  0  0
  149.4510  154.8250  132.4080 F   0  0  0  0  0  0  0  0  0  0  0  0
  147.2810  154.2370  132.2590 F   0  0  0  0  0  0  0  0  0  0  0  0
  148.2540  154.4140  134.2720 F   0  0  0  0  0  0  0  0  0  0  0  0
  146.4740  156.7900  133.1650 C   0  0  0  0  0  0  0  0  0  0  0  0
  146.1670  158.1520  133.2570 C   0  0  0  0  0  0  0  0  0  0  0  0
  140.8671  156.8784  135.9788 H   0  0  0  0  0  0  0  0  0  0  0  0
  139.7051  156.5802  134.6418 H   0  0  0  0  0  0  0  0  0  0  0  0
  141.3037  155.7610  134.6418 H   0  0  0  0  0  0  0  0  0  0  0  0
  139.6439  158.8256  134.8819 H   0  0  0  0  0  0  0  0  0  0  0  0
  141.1438  159.8265  134.7329 H   0  0  0  0  0  0  0  0  0  0  0  0
  139.0785  159.1226  132.6676 H   0  0  0  0  0  0  0  0  0  0  0  0
  140.0265  160.6399  132.9098 H   0  0  0  0  0  0  0  0  0  0  0  0
  141.8680  159.0970  132.3210 H   0  0  0  0  0  0  0  0  0  0  0  0
  142.8475  159.0184  135.0018 H   0  0  0  0  0  0  0  0  0  0  0  0
  143.0779  157.2130  135.1477 H   0  0  0  0  0  0  0  0  0  0  0  0
  142.5010  160.2080  132.5960 H   0  0  0  0  0  0  0  0  0  0  0  0
  147.0343  161.3221  133.3531 H   0  0  0  0  0  0  0  0  0  0  0  0
  149.2772  159.5504  133.1679 H   0  0  0  0  0  0  0  0  0  0  0  0
  149.8977  157.1165  133.0259 H   0  0  0  0  0  0  0  0  0  0  0  0
  145.6778  156.0312  133.1810 H   0  0  0  0  0  0  0  0  0  0  0  0
  1  2  1  0
  2  3  1  0
  3  4  1  0
  4  5  1  0
  2  6  1  0
  6  7  1  0
  7  8  2  0
  7  9  1  0
  9 10  1  0
 10 11  1  0
 11 12  1  0
 11 13  2  0
 10 14  2  0
 14 15  1  0
 15 16  2  0
 16 17  1  0
 17 18  2  0
 18 19  1  0
 19 20  1  0
 19 21  1  0
 19 22  1  0
 18 23  1  0
 23 24  2  0
 24  9  1  0
 24 15  1  0
  1 25  1  0
  1 26  1  0
  1 27  1  0
  3 28  1  0
  3 29  1  0
  4 30  1  0
  4 31  1  0
  5 32  1  0
  6 33  1  0
  6 34  1  0
 12 35  1  0
 14 36  1  0
 16 37  1  0
 17 38  1  0
 23 39  1  0
M  CHG  1  12  -1
M  END
>  <UniqueID>  (6) 
6

>  <SMILES>  (6) 
CN(CCO)CC(=O)n1c(C([NH-])=O)cc2ccc(C(F)(F)F)cc21

>  <Energy>  (6) 
79.88173184204727

>  <Genealogy>  (6) 
CN(CCO)CC(=O)n1c(C([NH-])=O)cc2ccc(C(F)(F)F)cc21 (protonated)
CN(CCO)CC(=O)n1c(C([NH-])=O)cc2ccc(C(F)(F)F)cc21 (3D coordinates assigned)
CN(CCO)CC(=O)n1c(C([NH-])=O)cc2ccc(C(F)(F)F)cc21 (optimized conformer: 79.88173184204727 kcal/mol)

>  <smiles>  (6) 
CN(CCO)CC(=O)n1c(C(N)=O)cc2ccc(C(F)(F)F)cc21

>  <score_type>  (6) 
oracle

>  <origin>  (6) 
adg

>  <m_score__min__energy>  (6) 
-5.2599999999999998

>  <m_primary>  (6) 
energy

$$$$
8:0
     RDKit          3D

 43 44  0  0  0  0  0  0  0  0999 V2000
  139.5700  160.0200  132.1180 C   0  0  0  0  0  0  0  0  0  0  0  0
  139.8150  159.1560  133.2790 N   0  0  0  0  0  0  0  0  0  0  0  0
  138.8710  158.0660  133.5660 C   0  0  0  0  0  0  0  0  0  0  0  0
  139.4290  156.7220  133.0930 C   0  0  0  0  0  0  0  0  0  0  0  0
  140.5300  156.3320  133.8700 O   0  0  0  0  0  0  0  0  0  0  0  0
  140.9700  159.3630  134.1250 C   0  0  0  0  0  0  0  0  0  0  0  0
  141.1060  158.6880  135.1820 O   0  0  0  0  0  0  0  0  0  0  0  0
  142.0520  160.3380  133.7610 C   0  0  0  0  0  0  0  0  0  0  0  0
  143.3500  159.6980  133.9070 N   0  0  0  0  0  0  0  0  0  0  0  0
  143.6530  158.4120  133.3640 C   0  0  0  0  0  0  0  0  0  0  0  0
  142.8140  157.8570  132.6050 O   0  0  0  0  0  0  0  0  0  0  0  0
  144.9220  157.7730  133.6460 N   0  0  0  0  0  0  0  0  0  0  0  0
  145.1280  156.6430  134.3830 C   0  0  0  0  0  0  0  0  0  0  0  0
  144.0860  155.7390  134.8930 C   0  0  0  0  0  0  0  0  0  0  0  0
  142.7230  156.1630  134.9420 N   0  0  0  0  0  0  0  0  0  0  0  0
  144.3900  154.5670  135.2380 O   0  0  0  0  0  0  0  0  0  0  0  0
  146.4830  156.4100  134.5820 C   0  0  0  0  0  0  0  0  0  0  0  0
  147.1220  157.4260  133.9180 C   0  0  0  0  0  0  0  0  0  0  0  0
  148.4860  157.6670  133.7720 C   0  0  0  0  0  0  0  0  0  0  0  0
  148.8810  158.7810  133.0140 C   0  0  0  0  0  0  0  0  0  0  0  0
  147.9140  159.6240  132.4180 C   0  0  0  0  0  0  0  0  0  0  0  0
  148.3400  160.8070  131.5940 C   0  0  0  0  0  0  0  0  0  0  0  0
  149.7180  160.8110  131.4640 F   0  0  0  0  0  0  0  0  0  0  0  0
  147.7630  160.7320  130.3380 F   0  0  0  0  0  0  0  0  0  0  0  0
  146.5380  159.3490  132.5860 C   0  0  0  0  0  0  0  0  0  0  0  0
  146.1660  158.2360  133.3560 C   0  0  0  0  0  0  0  0  0  0  0  0
  139.2850  161.0250  132.4625 H   0  0  0  0  0  0  0  0  0  0  0  0
  140.4848  160.0863  131.5107 H   0  0  0  0  0  0  0  0  0  0  0  0
  138.7566  159.5962  131.5107 H   0  0  0  0  0  0  0  0  0  0  0  0
  138.6925  158.0203  134.6504 H   0  0  0  0  0  0  0  0  0  0  0  0
  137.9312  158.2647  133.0300 H   0  0  0  0  0  0  0  0  0  0  0  0
  138.6424  155.9574  133.1747 H   0  0  0  0  0  0  0  0  0  0  0  0
  139.7576  156.8276  132.0486 H   0  0  0  0  0  0  0  0  0  0  0  0
  141.2070  157.0530  133.7840 H   0  0  0  0  0  0  0  0  0  0  0  0
  141.9181  160.6621  132.7184 H   0  0  0  0  0  0  0  0  0  0  0  0
  141.9971  161.2122  134.4264 H   0  0  0  0  0  0  0  0  0  0  0  0
  142.4470  157.1080  134.5930 H   0  0  0  0  0  0  0  0  0  0  0  0
  141.9820  155.5160  135.2900 H   0  0  0  0  0  0  0  0  0  0  0  0
  146.9440  155.5882  135.1495 H   0  0  0  0  0  0  0  0  0  0  0  0
  149.2313  157.0046  134.2365 H   0  0  0  0  0  0  0  0  0  0  0  0
  149.9510  158.9999  132.8826 H   0  0  0  0  0  0  0  0  0  0  0  0
  148.0143  161.7313  132.0937 H   0  0  0  0  0  0  0  0  0  0  0  0
  145.7754  159.9929  132.1236 H   0  0  0  0  0  0  0  0  0  0  0  0
  1  2  1  0
  2  3  1  0
  3  4  1  0
  4  5  1  0
  2  6  1  0
  6  7  2  0
  6  8  1  0
  8  9  1  0
  9 10  1  0
 10 11  2  0
 10 12  1  0
 12 13  1  0
 13 14  1  0
 14 15  1  0
 14 16  2  0
 13 17  2  0
 17 18  1  0
 18 19  2  0
 19 20  1  0
 20 21  2  0
 21 22  1  0
 22 23  1  0
 22 24  1  0
 21 25  1  0
 25 26  2  0
 26 12  1  0
 26 18  1  0
  1 27  1  0
  1 28  1  0
  1 29  1  0
  3 30  1  0
  3 31  1  0
  4 32  1  0
  4 33  1  0
  5 34  1  0
  8 35  1  0
  8 36  1  0
 15 37  1  0
 15 38  1  0
 17 39  1  0
 19 40  1  0
 20 41  1  0
 22 42  1  0
 25 43  1  0
M  CHG  1   9  -1
M  END
>  <UniqueID>  (7) 
7

>  <SMILES>  (7) 
CN(CCO)C(=O)C[N-]C(=O)n1c(C(N)=O)cc2ccc(C(F)F)cc21

>  <Energy>  (7) 
76.97705052497676

>  <Genealogy>  (7) 
CN(CCO)C(=O)C[N-]C(=O)n1c(C(N)=O)cc2ccc(C(F)F)cc21 (protonated)
CN(CCO)C(=O)C[N-]C(=O)n1c(C(N)=O)cc2ccc(C(F)F)cc21 (3D coordinates assigned)
CN(CCO)C(=O)C[N-]C(=O)n1c(C(N)=O)cc2ccc(C(F)F)cc21 (optimized conformer: 76.97705052497676 kcal/mol)

>  <smiles>  (7) 
CN(CCO)C(=O)CNC(=O)n1c(C(N)=O)cc2ccc(C(F)F)cc21

>  <score_type>  (7) 
oracle

>  <origin>  (7) 
adg

>  <m_score__min__energy>  (7) 
-6.3799999999999999

>  <m_primary>  (7) 
energy

$$$$
9:0
     RDKit          3D

 40 41  0  0  0  0  0  0  0  0999 V2000
  145.1590  152.8230  135.0230 H   0  0  0  0  0  0  0  0  0  0  0  0
  144.7890  153.7260  135.3920 N   0  0  0  0  0  0  0  0  0  0  0  0
  143.4700  153.8150  135.9250 C   0  0  0  0  0  0  0  0  0  0  0  0
  143.0900  152.9630  136.7730 O   0  0  0  0  0  0  0  0  0  0  0  0
  142.5310  154.8620  135.4690 C   0  0  0  0  0  0  0  0  0  0  0  0
  142.2890  156.0350  136.1810 C   0  0  0  0  0  0  0  0  0  0  0  0
  142.7604  156.3532  137.1225 H   0  0  0  0  0  0  0  0  0  0  0  0
  141.3340  156.7110  135.4550 C   0  0  0  0  0  0  0  0  0  0  0  0
  140.7520  157.9540  135.6840 C   0  0  0  0  0  0  0  0  0  0  0  0
  141.0057  158.5426  136.5780 H   0  0  0  0  0  0  0  0  0  0  0  0
  139.8310  158.4340  134.7390 C   0  0  0  0  0  0  0  0  0  0  0  0
  139.3535  159.4130  134.8921 H   0  0  0  0  0  0  0  0  0  0  0  0
  139.5110  157.6690  133.5900 C   0  0  0  0  0  0  0  0  0  0  0  0
  138.5600  158.2120  132.5630 C   0  0  0  0  0  0  0  0  0  0  0  0
  138.1318  157.3800  131.9846 H   0  0  0  0  0  0  0  0  0  0  0  0
  137.7533  158.7634  133.0681 H   0  0  0  0  0  0  0  0  0  0  0  0
  139.4290  159.3110  131.4650 Cl  0  0  0  0  0  0  0  0  0  0  0  0
  140.1380  156.4200  133.3800 C   0  0  0  0  0  0  0  0  0  0  0  0
  139.9291  155.8289  132.4761 H   0  0  0  0  0  0  0  0  0  0  0  0
  141.0320  155.9540  134.3520 C   0  0  0  0  0  0  0  0  0  0  0  0
  141.7560  154.8110  134.3480 N   0  0  0  0  0  0  0  0  0  0  0  0
  141.7820  153.8220  133.3050 C   0  0  0  0  0  0  0  0  0  0  0  0
  140.7270  153.1890  133.0230 O   0  0  0  0  0  0  0  0  0  0  0  0
  143.0390  153.5300  132.5890 C   0  0  0  0  0  0  0  0  0  0  0  0
  143.3481  154.1946  131.7688 H   0  0  0  0  0  0  0  0  0  0  0  0
  143.8170  152.4860  132.9010 C   0  0  0  0  0  0  0  0  0  0  0  0
  143.4775  151.7610  133.6554 H   0  0  0  0  0  0  0  0  0  0  0  0
  145.1530  152.2930  132.2300 C   0  0  0  0  0  0  0  0  0  0  0  0
  145.1372  152.8023  131.2551 H   0  0  0  0  0  0  0  0  0  0  0  0
  145.3204  151.2121  132.1128 H   0  0  0  0  0  0  0  0  0  0  0  0
  146.2680  152.8430  133.0390 N   0  0  0  0  0  0  0  0  0  0  0  0
  146.1130  152.6080  134.0490 H   0  0  0  0  0  0  0  0  0  0  0  0
  146.3640  154.3110  132.9030 C   0  0  0  0  0  0  0  0  0  0  0  0
  146.3941  154.7706  133.9019 H   0  0  0  0  0  0  0  0  0  0  0  0
  147.2809  154.5691  132.3529 H   0  0  0  0  0  0  0  0  0  0  0  0
  145.4885  154.6863  132.3529 H   0  0  0  0  0  0  0  0  0  0  0  0
  147.5420  152.2270  132.6270 C   0  0  0  0  0  0  0  0  0  0  0  0
  148.1199  151.9476  133.5202 H   0  0  0  0  0  0  0  0  0  0  0  0
  147.3375  151.3283  132.0266 H   0  0  0  0  0  0  0  0  0  0  0  0
  148.1194  152.9454  132.0266 H   0  0  0  0  0  0  0  0  0  0  0  0
  1  2  1  0
  2  3  1  0
  3  4  2  0
  3  5  1  0
  5  6  2  0
  6  7  1  0
  6  8  1  0
  8  9  2  0
  9 10  1  0
  9 11  1  0
 11 12  1  0
 11 13  2  0
 13 14  1  0
 14 15  1  0
 14 16  1  0
 14 17  1  0
 13 18  1  0
 18 19  1  0
 18 20  2  0
 20 21  1  0
 21 22  1  0
 22 23  2  0
 22 24  1  0
 24 25  1  0
 24 26  2  0
 26 27  1  0
 26 28  1  0
 28 29  1  0
 28 30  1  0
 28 31  1  0
 31 32  1  0
 31 33  1  0
 33 34  1  0
 33 35  1  0
 33 36  1  0
 31 37  1  0
 37 38  1  0
 37 39  1  0
 37 40  1  0
 21  5  1  0
 20  8  1  0
M  CHG  2   2  -1  31   1
M  END
>  <UniqueID>  (8) 
8

>  <SMILES>  (8) 
C[NH+](C)C/C=C/C(=O)n1c(C([NH-])=O)cc2ccc(CCl)cc21

>  <Energy>  (8) 
76.96390793321487

>  <Genealogy>  (8) 
C[NH+](C)C/C=C/C(=O)n1c(C([NH-])=O)cc2ccc(CCl)cc21 (protonated)
C[NH+](C)C/C=C/C(=O)n1c(C([NH-])=O)cc2ccc(CCl)cc21 (cis-trans isomerization)
C[NH+](C)C/C=C/C(=O)n1c(C([NH-])=O)cc2ccc(CCl)cc21 (3D coordinates assigned)
C[NH+](C)C/C=C/C(=O)n1c(C([NH-])=O)cc2ccc(CCl)cc21 (optimized conformer: 76.96390793321487 kcal/mol)

>  <smiles>  (8) 
CN(C)C/C=C/C(=O)n1c(C(N)=O)cc2ccc(CCl)cc21

>  <score_type>  (8) 
oracle

>  <origin>  (8) 
adg

>  <m_score__min__energy>  (8) 
-6.4800000000000004

>  <m_primary>  (8) 
energy

$$$$
10:0
     RDKit          3D

 36 37  0  0  0  0  0  0  0  0999 V2000
  148.6460  157.2640  131.4750 H   0  0  0  0  0  0  0  0  0  0  0  0
  148.9010  158.2200  131.8080 N   0  0  0  0  0  0  0  0  0  0  0  0
  148.4070  158.7190  133.0500 C   0  0  0  0  0  0  0  0  0  0  0  0
  149.2200  158.9860  133.9730 O   0  0  0  0  0  0  0  0  0  0  0  0
  146.9570  158.9450  133.2270 C   0  0  0  0  0  0  0  0  0  0  0  0
  146.3870  160.2080  133.3570 C   0  0  0  0  0  0  0  0  0  0  0  0
  146.9002  161.1795  133.3045 H   0  0  0  0  0  0  0  0  0  0  0  0
  145.0460  159.9840  133.5650 C   0  0  0  0  0  0  0  0  0  0  0  0
  144.0050  160.8880  133.7420 C   0  0  0  0  0  0  0  0  0  0  0  0
  144.1922  161.9719  133.7526 H   0  0  0  0  0  0  0  0  0  0  0  0
  142.7070  160.3770  133.9070 C   0  0  0  0  0  0  0  0  0  0  0  0
  141.8664  161.0705  134.0569 H   0  0  0  0  0  0  0  0  0  0  0  0
  142.4640  158.9760  133.8830 C   0  0  0  0  0  0  0  0  0  0  0  0
  141.1210  158.4610  134.0470 N   0  0  0  0  0  0  0  0  0  0  0  0
  140.4960  158.4410  135.3750 C   0  0  0  0  0  0  0  0  0  0  0  0
  141.2777  158.4660  136.1485 H   0  0  0  0  0  0  0  0  0  0  0  0
  139.8422  159.3187  135.4858 H   0  0  0  0  0  0  0  0  0  0  0  0
  139.8997  157.5233  135.4858 H   0  0  0  0  0  0  0  0  0  0  0  0
  140.3370  158.0070  132.8910 C   0  0  0  0  0  0  0  0  0  0  0  0
  140.9852  157.4271  132.2175 H   0  0  0  0  0  0  0  0  0  0  0  0
  139.5060  157.3793  133.2452 H   0  0  0  0  0  0  0  0  0  0  0  0
  139.7910  159.1590  132.1650 C   0  0  0  0  0  0  0  0  0  0  0  0
  139.3600  160.0680  131.5920 N   0  0  0  0  0  0  0  0  0  0  0  0
  143.5550  158.0940  133.6900 C   0  0  0  0  0  0  0  0  0  0  0  0
  143.3942  157.0067  133.6462 H   0  0  0  0  0  0  0  0  0  0  0  0
  144.8410  158.6290  133.5560 C   0  0  0  0  0  0  0  0  0  0  0  0
  146.0080  157.9740  133.3590 N   0  0  0  0  0  0  0  0  0  0  0  0
  146.1850  156.5520  133.2150 C   0  0  0  0  0  0  0  0  0  0  0  0
  147.1170  156.1180  132.4860 O   0  0  0  0  0  0  0  0  0  0  0  0
  145.2460  155.5750  133.8050 C   0  0  0  0  0  0  0  0  0  0  0  0
  144.2893  155.4243  133.2835 H   0  0  0  0  0  0  0  0  0  0  0  0
  145.4530  154.8550  134.9180 C   0  0  0  0  0  0  0  0  0  0  0  0
  144.5929  154.3025  135.3241 H   0  0  0  0  0  0  0  0  0  0  0  0
  146.7290  154.7380  135.6450 C   0  0  0  0  0  0  0  0  0  0  0  0
  147.6140  155.6300  135.5610 O   0  0  0  0  0  0  0  0  0  0  0  0
  146.9970  153.5820  136.3650 O   0  0  0  0  0  0  0  0  0  0  0  0
  1  2  1  0
  2  3  1  0
  3  4  2  0
  3  5  1  0
  5  6  2  0
  6  7  1  0
  6  8  1  0
  8  9  2  0
  9 10  1  0
  9 11  1  0
 11 12  1  0
 11 13  2  0
 13 14  1  0
 14 15  1  0
 15 16  1  0
 15 17  1  0
 15 18  1  0
 14 19  1  0
 19 20  1  0
 19 21  1  0
 19 22  1  0
 22 23  3  0
 13 24  1  0
 24 25  1  0
 24 26  2  0
 26 27  1  0
 27 28  1  0
 28 29  2  0
 28 30  1  0
 30 31  1  0
 30 32  2  0
 32 33  1  0
 32 34  1  0
 34 35  2  0
 34 36  1  0
 27  5  1  0
 26  8  1  0
M  CHG  2   2  -1  36  -1
M  END
>  <UniqueID>  (9) 
9

>  <SMILES>  (9) 
CN(CC#N)c1ccc2cc(C([NH-])=O)n(C(=O)/C=C\C(=O)[O-])c2c1

>  <Energy>  (9) 
81.15296152555186

>  <Genealogy>  (9) 
CN(CC#N)c1ccc2cc(C([NH-])=O)n(C(=O)/C=C\C(=O)[O-])c2c1 (protonated)
CN(CC#N)c1ccc2cc(C([NH-])=O)n(C(=O)/C=C\C(=O)[O-])c2c1 (cis-trans isomerization)
CN(CC#N)c1ccc2cc(C([NH-])=O)n(C(=O)/C=C\C(=O)[O-])c2c1 (3D coordinates assigned)
CN(CC#N)c1ccc2cc(C([NH-])=O)n(C(=O)/C=C\C(=O)[O-])c2c1 (optimized conformer: 81.15296152555186 kcal/mol)

>  <smiles>  (9) 
CN(CC#N)c1ccc2cc(C(N)=O)n(C(=O)/C=C\C(=O)O)c2c1

>  <score_type>  (9) 
oracle

>  <origin>  (9) 
adg

>  <m_score__min__energy>  (9) 
-6.96

>  <m_primary>  (9) 
energy

$$$$
11:0
     RDKit          3D

 43 44  0  0  0  0  0  0  0  0999 V2000
  144.7480  152.9320  132.2530 C   0  0  0  0  0  0  0  0  0  0  0  0
  145.3990  153.9750  133.0680 N   0  0  2  0  0  0  0  0  0  0  0  0
  145.0860  155.3480  132.6080 C   0  0  0  0  0  0  0  0  0  0  0  0
  144.1040  156.0830  133.4910 C   0  0  0  0  0  0  0  0  0  0  0  0
  143.2980  155.4210  134.2010 O   0  0  0  0  0  0  0  0  0  0  0  0
  144.0300  157.5190  133.4900 N   0  0  0  0  0  0  0  0  0  0  0  0
  142.9310  158.3070  133.6480 C   0  0  0  0  0  0  0  0  0  0  0  0
  141.5280  157.8470  133.6280 C   0  0  0  0  0  0  0  0  0  0  0  0
  141.1690  156.6280  132.9820 N   0  0  0  0  0  0  0  0  0  0  0  0
  140.6280  158.5620  134.1460 O   0  0  0  0  0  0  0  0  0  0  0  0
  143.2950  159.6510  133.7040 C   0  0  0  0  0  0  0  0  0  0  0  0
  144.6630  159.6630  133.5490 C   0  0  0  0  0  0  0  0  0  0  0  0
  145.5540  160.7340  133.5200 C   0  0  0  0  0  0  0  0  0  0  0  0
  146.9200  160.4490  133.3580 C   0  0  0  0  0  0  0  0  0  0  0  0
  147.3690  159.1100  133.2270 C   0  0  0  0  0  0  0  0  0  0  0  0
  148.8310  158.8080  133.0670 C   0  0  0  0  0  0  0  0  0  0  0  0
  148.9900  157.5630  132.4850 F   0  0  0  0  0  0  0  0  0  0  0  0
  149.4180  159.7660  132.2610 F   0  0  0  0  0  0  0  0  0  0  0  0
  146.4350  158.0520  133.2510 C   0  0  0  0  0  0  0  0  0  0  0  0
  145.0800  158.3650  133.4100 C   0  0  0  0  0  0  0  0  0  0  0  0
  146.8320  153.7630  133.1720 C   0  0  0  0  0  0  0  0  0  0  0  0
  147.3410  152.7370  132.7430 O   0  0  0  0  0  0  0  0  0  0  0  0
  147.7220  154.8230  133.7720 C   0  0  0  0  0  0  0  0  0  0  0  0
  147.2610  155.2240  135.1780 C   0  0  0  0  0  0  0  0  0  0  0  0
  146.5560  154.1010  135.8750 C   0  0  0  0  0  0  0  0  0  0  0  0
  147.1920  153.3330  136.6430 O   0  0  0  0  0  0  0  0  0  0  0  0
  145.2030  153.8780  135.6460 O   0  0  0  0  0  0  0  0  0  0  0  0
  144.2828  152.1867  132.9148 H   0  0  0  0  0  0  0  0  0  0  0  0
  143.9760  153.3913  131.6182 H   0  0  0  0  0  0  0  0  0  0  0  0
  145.4998  152.4402  131.6182 H   0  0  0  0  0  0  0  0  0  0  0  0
  144.9920  153.8830  134.0290 H   0  0  0  0  0  0  0  0  0  0  0  0
  146.0223  155.9245  132.5774 H   0  0  0  0  0  0  0  0  0  0  0  0
  144.6149  155.2526  131.6186 H   0  0  0  0  0  0  0  0  0  0  0  0
  141.9000  155.9850  132.6070 H   0  0  0  0  0  0  0  0  0  0  0  0
  142.6312  160.5172  133.8424 H   0  0  0  0  0  0  0  0  0  0  0  0
  145.1988  161.7702  133.6208 H   0  0  0  0  0  0  0  0  0  0  0  0
  147.6487  161.2726  133.3325 H   0  0  0  0  0  0  0  0  0  0  0  0
  149.3103  158.8145  134.0570 H   0  0  0  0  0  0  0  0  0  0  0  0
  146.7638  157.0074  133.1473 H   0  0  0  0  0  0  0  0  0  0  0  0
  148.7491  154.4337  133.8315 H   0  0  0  0  0  0  0  0  0  0  0  0
  147.6737  155.7142  133.1291 H   0  0  0  0  0  0  0  0  0  0  0  0
  148.1404  155.5149  135.7714 H   0  0  0  0  0  0  0  0  0  0  0  0
  146.5549  156.0617  135.0798 H   0  0  0  0  0  0  0  0  0  0  0  0
  1  2  1  0
  2  3  1  0
  3  4  1  0
  4  5  2  0
  4  6  1  0
  6  7  1  0
  7  8  1  0
  8  9  1  0
  8 10  2  0
  7 11  2  0
 11 12  1  0
 12 13  2  0
 13 14  1  0
 14 15  2  0
 15 16  1  0
 16 17  1  0
 16 18  1  0
 15 19  1  0
 19 20  2  0
  2 21  1  0
 21 22  2  0
 21 23  1  0
 23 24  1  0
 24 25  1  0
 25 26  2  0
 25 27  1  0
 20  6  1  0
 20 12  1  0
  1 28  1  0
  1 29  1  0
  1 30  1  0
  2 31  1  1
  3 32  1  0
  3 33  1  0
  9 34  1  0
 11 35  1  0
 13 36  1  0
 14 37  1  0
 16 38  1  0
 19 39  1  0
 23 40  1  0
 23 41  1  0
 24 42  1  0
 24 43  1  0
M  CHG  3   2   1   9  -1  27  -1
M  END
>  <UniqueID>  (10) 
10

>  <SMILES>  (10) 
C[N@H+](CC(=O)n1c(C([NH-])=O)cc2ccc(C(F)F)cc21)C(=O)CCC(=O)[O-]

>  <Energy>  (10) 
81.20935712304069

>  <Genealogy>  (10) 
C[NH+](CC(=O)n1c(C([NH-])=O)cc2ccc(C(F)F)cc21)C(=O)CCC(=O)[O-] (protonated)
C[N@H+](CC(=O)n1c(C([NH-])=O)cc2ccc(C(F)F)cc21)C(=O)CCC(=O)[O-] (chirality)
C[N@H+](CC(=O)n1c(C([NH-])=O)cc2ccc(C(F)F)cc21)C(=O)CCC(=O)[O-] (3D coordinates assigned)
C[N@H+](CC(=O)n1c(C([NH-])=O)cc2ccc(C(F)F)cc21)C(=O)CCC(=O)[O-] (optimized conformer: 81.20935712304069 kcal/mol)

>  <smiles>  (10) 
CN(CC(=O)n1c(C(N)=O)cc2ccc(C(F)F)cc21)C(=O)CCC(=O)O

>  <score_type>  (10) 
oracle

>  <origin>  (10) 
adg

>  <m_score__min__energy>  (10) 
-5.7199999999999998

>  <m_primary>  (10) 
energy

$$$$
12:0
     RDKit          3D

 45 46  0  0  0  0  0  0  0  0999 V2000
  146.6450  155.2400  132.9290 C   0  0  0  0  0  0  0  0  0  0  0  0
  146.7050  156.5800  133.5150 N   0  0  0  0  0  0  0  0  0  0  0  0
  148.0040  157.1760  133.8630 C   0  0  0  0  0  0  0  0  0  0  0  0
  148.7780  157.6140  132.6080 C   0  0  0  0  0  0  0  0  0  0  0  0
  148.9930  159.1400  132.5330 C   0  0  2  0  0  0  0  0  0  0  0  0
  148.2330  159.7810  133.5270 O   0  0  0  0  0  0  0  0  0  0  0  0
  148.5660  159.6840  131.1660 C   0  0  0  0  0  0  0  0  0  0  0  0
  147.8200  160.8600  131.3230 O   0  0  0  0  0  0  0  0  0  0  0  0
  145.4740  157.2350  133.8650 C   0  0  0  0  0  0  0  0  0  0  0  0
  144.7520  156.7460  134.7750 O   0  0  0  0  0  0  0  0  0  0  0  0
  145.0310  158.4580  133.1670 C   0  0  0  0  0  0  0  0  0  0  0  0
  145.7490  158.9650  132.2650 O   0  0  0  0  0  0  0  0  0  0  0  0
  143.7730  159.0680  133.4900 N   0  0  0  0  0  0  0  0  0  0  0  0
  143.5290  160.3860  133.7290 C   0  0  0  0  0  0  0  0  0  0  0  0
  144.5460  161.4590  133.7660 C   0  0  0  0  0  0  0  0  0  0  0  0
  145.9300  161.1230  133.8070 N   0  0  0  0  0  0  0  0  0  0  0  0
  144.2060  162.6710  133.7530 O   0  0  0  0  0  0  0  0  0  0  0  0
  142.1720  160.5930  133.9730 C   0  0  0  0  0  0  0  0  0  0  0  0
  141.5880  159.3490  133.8670 C   0  0  0  0  0  0  0  0  0  0  0  0
  140.2570  158.9680  134.0010 C   0  0  0  0  0  0  0  0  0  0  0  0
  139.9380  157.6120  133.8130 C   0  0  0  0  0  0  0  0  0  0  0  0
  140.9460  156.6750  133.4750 C   0  0  0  0  0  0  0  0  0  0  0  0
  140.5960  155.2250  133.3040 C   0  0  0  0  0  0  0  0  0  0  0  0
  139.2690  155.1120  132.9350 F   0  0  0  0  0  0  0  0  0  0  0  0
  142.2880  157.0960  133.3590 C   0  0  0  0  0  0  0  0  0  0  0  0
  142.5770  158.4480  133.5700 C   0  0  0  0  0  0  0  0  0  0  0  0
  146.6114  154.4896  133.7326 H   0  0  0  0  0  0  0  0  0  0  0  0
  145.7420  155.1519  132.3070 H   0  0  0  0  0  0  0  0  0  0  0  0
  147.5365  155.0716  132.3070 H   0  0  0  0  0  0  0  0  0  0  0  0
  147.8342  158.0545  134.5029 H   0  0  0  0  0  0  0  0  0  0  0  0
  148.6016  156.4174  134.3896 H   0  0  0  0  0  0  0  0  0  0  0  0
  149.7616  157.1215  132.6133 H   0  0  0  0  0  0  0  0  0  0  0  0
  148.1774  157.3234  131.7335 H   0  0  0  0  0  0  0  0  0  0  0  0
  150.0640  159.3389  132.6857 H   0  0  0  0  0  0  0  0  0  0  0  0
  147.3120  159.8820  133.1700 H   0  0  0  0  0  0  0  0  0  0  0  0
  149.4618  159.8998  130.5652 H   0  0  0  0  0  0  0  0  0  0  0  0
  147.9451  158.9309  130.6588 H   0  0  0  0  0  0  0  0  0  0  0  0
  147.0740  160.6320  131.9360 H   0  0  0  0  0  0  0  0  0  0  0  0
  146.4530  160.8940  132.9320 H   0  0  0  0  0  0  0  0  0  0  0  0
  141.6734  161.5465  134.2016 H   0  0  0  0  0  0  0  0  0  0  0  0
  139.4782  159.7050  134.2465 H   0  0  0  0  0  0  0  0  0  0  0  0
  138.8973  157.2754  133.9292 H   0  0  0  0  0  0  0  0  0  0  0  0
  141.2326  154.7837  132.5230 H   0  0  0  0  0  0  0  0  0  0  0  0
  140.7591  154.6939  134.2534 H   0  0  0  0  0  0  0  0  0  0  0  0
  143.0851  156.3802  133.1094 H   0  0  0  0  0  0  0  0  0  0  0  0
  1  2  1  0
  2  3  1  0
  3  4  1  0
  4  5  1  0
  5  6  1  0
  5  7  1  0
  7  8  1  0
  2  9  1  0
  9 10  2  0
  9 11  1  0
 11 12  2  0
 11 13  1  0
 13 14  1  0
 14 15  1  0
 15 16  1  0
 15 17  2  0
 14 18  2  0
 18 19  1  0
 19 20  2  0
 20 21  1  0
 21 22  2  0
 22 23  1  0
 23 24  1  0
 22 25  1  0
 25 26  2  0
 26 13  1  0
 26 19  1  0
  1 27  1  0
  1 28  1  0
  1 29  1  0
  3 30  1  0
  3 31  1  0
  4 32  1  0
  4 33  1  0
  5 34  1  1
  6 35  1  0
  7 36  1  0
  7 37  1  0
  8 38  1  0
 16 39  1  0
 18 40  1  0
 20 41  1  0
 21 42  1  0
 23 43  1  0
 23 44  1  0
 25 45  1  0
M  CHG  1  16  -1
M  END
>  <UniqueID>  (11) 
11

>  <SMILES>  (11) 
CN(CC[C@H](O)CO)C(=O)C(=O)n1c(C([NH-])=O)cc2ccc(CF)cc21

>  <Energy>  (11) 
79.53107362389059

>  <Genealogy>  (11) 
CN(CC[C@H](O)CO)C(=O)C(=O)n1c(C([NH-])=O)cc2ccc(CF)cc21 (protonated)
CN(CC[C@H](O)CO)C(=O)C(=O)n1c(C([NH-])=O)cc2ccc(CF)cc21 (3D coordinates assigned)
CN(CC[C@H](O)CO)C(=O)C(=O)n1c(C([NH-])=O)cc2ccc(CF)cc21 (optimized conformer: 79.53107362389059 kcal/mol)

>  <smiles>  (11) 
CN(CC[C@H](O)CO)C(=O)C(=O)n1c(C(N)=O)cc2ccc(CF)cc21

>  <score_type>  (11) 
oracle

>  <origin>  (11) 
adg

>  <m_score__min__energy>  (11) 
-5.6299999999999999

>  <m_primary>  (11) 
energy

$$$$
13:0
     RDKit          3D

 38 39  0  0  0  0  0  0  0  0999 V2000
  141.7840  159.4040  135.0860 N   0  0  0  0  0  0  0  0  0  0  0  0
  142.4500  160.1340  134.0580 C   0  0  0  0  0  0  0  0  0  0  0  0
  141.8120  161.0040  133.4070 O   0  0  0  0  0  0  0  0  0  0  0  0
  143.8710  159.8580  133.7610 C   0  0  0  0  0  0  0  0  0  0  0  0
  144.8570  160.8420  133.6990 C   0  0  0  0  0  0  0  0  0  0  0  0
  146.0310  160.1670  133.4470 C   0  0  0  0  0  0  0  0  0  0  0  0
  147.3250  160.6500  133.2800 C   0  0  0  0  0  0  0  0  0  0  0  0
  148.3460  159.7210  133.0090 C   0  0  0  0  0  0  0  0  0  0  0  0
  148.0530  158.3380  132.9040 C   0  0  0  0  0  0  0  0  0  0  0  0
  149.1420  157.3510  132.5960 C   0  0  0  0  0  0  0  0  0  0  0  0
  149.8940  157.8060  131.5290 F   0  0  0  0  0  0  0  0  0  0  0  0
  148.5840  156.1260  132.2720 F   0  0  0  0  0  0  0  0  0  0  0  0
  146.7260  157.8860  133.0730 C   0  0  0  0  0  0  0  0  0  0  0  0
  145.7360  158.8310  133.3620 C   0  0  0  0  0  0  0  0  0  0  0  0
  144.4160  158.6270  133.5550 N   0  0  0  0  0  0  0  0  0  0  0  0
  143.7420  157.3590  133.5650 C   0  0  0  0  0  0  0  0  0  0  0  0
  144.3310  156.3420  134.0180 O   0  0  0  0  0  0  0  0  0  0  0  0
  142.3760  157.2250  132.9620 C   0  0  0  0  0  0  0  0  0  0  0  0
  141.4630  156.4220  133.8960 C   0  0  0  0  0  0  0  0  0  0  0  0
  139.9970  156.4300  133.4440 C   0  0  0  0  0  0  0  0  0  0  0  0
  139.1170  157.9230  133.9090 S   0  0  0  0  0  0  0  0  0  0  0  0
  139.8920  159.3350  133.2740 N   0  0  0  0  0  0  0  0  0  0  0  0
  139.0430  158.0250  135.4060 O   0  0  0  0  0  0  0  0  0  0  0  0
  137.7200  157.8490  133.3590 O   0  0  0  0  0  0  0  0  0  0  0  0
  140.7460  159.2970  135.0810 H   0  0  0  0  0  0  0  0  0  0  0  0
  144.7253  161.9268  133.8246 H   0  0  0  0  0  0  0  0  0  0  0  0
  147.5431  161.7254  133.3575 H   0  0  0  0  0  0  0  0  0  0  0  0
  149.3806  160.0707  132.8774 H   0  0  0  0  0  0  0  0  0  0  0  0
  149.7870  157.2388  133.4800 H   0  0  0  0  0  0  0  0  0  0  0  0
  146.4772  156.8186  132.9798 H   0  0  0  0  0  0  0  0  0  0  0  0
  141.9473  158.2261  132.8067 H   0  0  0  0  0  0  0  0  0  0  0  0
  142.4579  156.6989  131.9995 H   0  0  0  0  0  0  0  0  0  0  0  0
  141.8167  155.3808  133.9238 H   0  0  0  0  0  0  0  0  0  0  0  0
  141.5066  156.8939  134.8887 H   0  0  0  0  0  0  0  0  0  0  0  0
  139.9692  156.3356  132.3484 H   0  0  0  0  0  0  0  0  0  0  0  0
  139.4974  155.5884  133.9462 H   0  0  0  0  0  0  0  0  0  0  0  0
  140.8680  159.0650  133.0180 H   0  0  0  0  0  0  0  0  0  0  0  0
  139.9550  160.0340  134.0480 H   0  0  0  0  0  0  0  0  0  0  0  0
  1  2  1  0
  2  3  2  0
  2  4  1  0
  4  5  2  0
  5  6  1  0
  6  7  2  0
  7  8  1  0
  8  9  2  0
  9 10  1  0
 10 11  1  0
 10 12  1  0
  9 13  1  0
 13 14  2  0
 14 15  1  0
 15 16  1  0
 16 17  2  0
 16 18  1  0
 18 19  1  0
 19 20  1  0
 20 21  1  0
 21 22  1  0
 21 23  2  0
 21 24  2  0
 15  4  1  0
 14  6  1  0
  1 25  1  0
  5 26  1  0
  7 27  1  0
  8 28  1  0
 10 29  1  0
 13 30  1  0
 18 31  1  0
 18 32  1  0
 19 33  1  0
 19 34  1  0
 20 35  1  0
 20 36  1  0
 22 37  1  0
 22 38  1  0
M  CHG  1   1  -1
M  END
>  <UniqueID>  (12) 
12

>  <SMILES>  (12) 
[NH-]C(=O)c1cc2ccc(C(F)F)cc2n1C(=O)CCCS(N)(=O)=O

>  <Energy>  (12) 
66.44102786020542

>  <Genealogy>  (12) 
[NH-]C(=O)c1cc2ccc(C(F)F)cc2n1C(=O)CCCS(N)(=O)=O (protonated)
[NH-]C(=O)c1cc2ccc(C(F)F)cc2n1C(=O)CCCS(N)(=O)=O (3D coordinates assigned)
[NH-]C(=O)c1cc2ccc(C(F)F)cc2n1C(=O)CCCS(N)(=O)=O (optimized conformer: 66.44102786020542 kcal/mol)

>  <smiles>  (12) 
NC(=O)c1cc2ccc(C(F)F)cc2n1C(=O)CCCS(N)(=O)=O

>  <score_type>  (12) 
oracle

>  <origin>  (12) 
adg

>  <m_score__min__energy>  (12) 
-6.6600000000000001

>  <m_primary>  (12) 
energy

$$$$
14:0
     RDKit          3D

 60 63  0  0  0  0  0  0  0  0999 V2000
  142.3250  159.7160  134.0650 C   0  0  0  0  0  0  0  0  0  0  0  0
  142.6140  158.2130  134.1910 C   0  0  0  0  0  0  0  0  0  0  0  0
  141.8760  157.6670  135.4290 C   0  0  0  0  0  0  0  0  0  0  0  0
  142.1330  157.5030  132.9110 C   0  0  0  0  0  0  0  0  0  0  0  0
  144.0330  158.0670  134.3450 O   0  0  0  0  0  0  0  0  0  0  0  0
  145.0110  158.3710  133.3870 C   0  0  0  0  0  0  0  0  0  0  0  0
  144.8790  159.3610  132.6170 O   0  0  0  0  0  0  0  0  0  0  0  0
  146.1640  157.5230  133.2660 N   0  0  0  0  0  0  0  0  0  0  0  0
  147.4750  157.8930  133.1860 C   0  0  0  0  0  0  0  0  0  0  0  0
  148.0030  159.2640  133.3440 C   0  0  0  0  0  0  0  0  0  0  0  0
  147.6320  160.2780  132.4120 N   0  0  0  0  0  0  0  0  0  0  0  0
  148.8070  159.5440  134.2710 O   0  0  0  0  0  0  0  0  0  0  0  0
  148.2860  156.7730  133.0160 C   0  0  0  0  0  0  0  0  0  0  0  0
  147.4280  155.6980  133.0030 C   0  0  0  0  0  0  0  0  0  0  0  0
  147.6950  154.3400  132.8590 C   0  0  0  0  0  0  0  0  0  0  0  0
  146.6080  153.4500  132.8620 C   0  0  0  0  0  0  0  0  0  0  0  0
  145.2780  153.9270  133.0000 C   0  0  0  0  0  0  0  0  0  0  0  0
  144.1350  152.9790  132.9960 C   0  0  0  0  0  0  0  0  0  0  0  0
  142.8470  153.4120  133.3580 C   0  0  0  0  0  0  0  0  0  0  0  0
  141.7700  152.5240  133.3420 C   0  0  0  0  0  0  0  0  0  0  0  0
  141.9570  151.1860  132.9650 C   0  0  0  0  0  0  0  0  0  0  0  0
  140.7900  150.2310  132.9280 C   0  0  0  0  0  0  0  0  0  0  0  0
  140.6500  149.6380  131.5820 N   0  0  0  0  0  0  0  0  0  0  0  0
  140.6180  148.1640  131.6670 C   0  0  0  0  0  0  0  0  0  0  0  0
  140.0780  147.5600  130.3600 C   0  0  0  0  0  0  0  0  0  0  0  0
  138.7680  147.9920  130.0050 O   0  0  0  0  0  0  0  0  0  0  0  0
  138.3560  149.1750  130.6700 C   0  0  0  0  0  0  0  0  0  0  0  0
  139.4940  150.1960  130.8360 C   0  0  0  0  0  0  0  0  0  0  0  0
  143.2430  150.7470  132.6070 C   0  0  0  0  0  0  0  0  0  0  0  0
  143.4540  149.4560  132.2430 F   0  0  0  0  0  0  0  0  0  0  0  0
  144.3210  151.6370  132.6220 C   0  0  0  0  0  0  0  0  0  0  0  0
  145.0500  155.3160  133.1410 C   0  0  0  0  0  0  0  0  0  0  0  0
  146.1530  156.1780  133.1540 C   0  0  0  0  0  0  0  0  0  0  0  0
  142.2399  160.1584  135.0685 H   0  0  0  0  0  0  0  0  0  0  0  0
  143.1460  160.2027  133.5181 H   0  0  0  0  0  0  0  0  0  0  0  0
  141.3820  159.8635  133.5181 H   0  0  0  0  0  0  0  0  0  0  0  0
  142.3701  158.0326  136.3412 H   0  0  0  0  0  0  0  0  0  0  0  0
  140.8314  158.0114  135.4147 H   0  0  0  0  0  0  0  0  0  0  0  0
  141.8998  156.5674  135.4147 H   0  0  0  0  0  0  0  0  0  0  0  0
  141.5353  156.6207  133.1836 H   0  0  0  0  0  0  0  0  0  0  0  0
  141.5166  158.1944  132.3177 H   0  0  0  0  0  0  0  0  0  0  0  0
  143.0037  157.1869  132.3177 H   0  0  0  0  0  0  0  0  0  0  0  0
  146.6310  160.5370  132.2700 H   0  0  0  0  0  0  0  0  0  0  0  0
  149.3810  156.7527  132.9138 H   0  0  0  0  0  0  0  0  0  0  0  0
  148.7263  153.9743  132.7462 H   0  0  0  0  0  0  0  0  0  0  0  0
  146.7896  152.3703  132.7561 H   0  0  0  0  0  0  0  0  0  0  0  0
  142.6869  154.4587  133.6561 H   0  0  0  0  0  0  0  0  0  0  0  0
  140.7676  152.8761  133.6271 H   0  0  0  0  0  0  0  0  0  0  0  0
  140.9554  149.4285  133.6619 H   0  0  0  0  0  0  0  0  0  0  0  0
  139.8702  150.7831  133.1712 H   0  0  0  0  0  0  0  0  0  0  0  0
  141.6369  147.7896  131.8448 H   0  0  0  0  0  0  0  0  0  0  0  0
  139.9558  147.8700  132.4947 H   0  0  0  0  0  0  0  0  0  0  0  0
  140.7633  147.8366  129.5452 H   0  0  0  0  0  0  0  0  0  0  0  0
  140.0156  146.4736  130.5206 H   0  0  0  0  0  0  0  0  0  0  0  0
  137.5480  149.6417  130.0875 H   0  0  0  0  0  0  0  0  0  0  0  0
  138.0211  148.8875  131.6776 H   0  0  0  0  0  0  0  0  0  0  0  0
  139.8354  150.5099  129.8385 H   0  0  0  0  0  0  0  0  0  0  0  0
  139.1008  151.0459  131.4131 H   0  0  0  0  0  0  0  0  0  0  0  0
  145.3235  151.2839  132.3386 H   0  0  0  0  0  0  0  0  0  0  0  0
  144.0278  155.7104  133.2384 H   0  0  0  0  0  0  0  0  0  0  0  0
  1  2  1  0
  2  3  1  0
  2  4  1  0
  2  5  1  0
  5  6  1  0
  6  7  2  0
  6  8  1  0
  8  9  1  0
  9 10  1  0
 10 11  1  0
 10 12  2  0
  9 13  2  0
 13 14  1  0
 14 15  2  0
 15 16  1  0
 16 17  2  0
 17 18  1  0
 18 19  2  0
 19 20  1  0
 20 21  2  0
 21 22  1  0
 22 23  1  0
 23 24  1  0
 24 25  1  0
 25 26  1  0
 26 27  1  0
 27 28  1  0
 21 29  1  0
 29 30  1  0
 29 31  2  0
 17 32  1  0
 32 33  2  0
 33  8  1  0
 33 14  1  0
 31 18  1  0
 28 23  1  0
  1 34  1  0
  1 35  1  0
  1 36  1  0
  3 37  1  0
  3 38  1  0
  3 39  1  0
  4 40  1  0
  4 41  1  0
  4 42  1  0
 11 43  1  0
 13 44  1  0
 15 45  1  0
 16 46  1  0
 19 47  1  0
 20 48  1  0
 22 49  1  0
 22 50  1  0
 24 51  1  0
 24 52  1  0
 25 53  1  0
 25 54  1  0
 27 55  1  0
 27 56  1  0
 28 57  1  0
 28 58  1  0
 31 59  1  0
 32 60  1  0
M  CHG  1  11  -1
M  END
>  <UniqueID>  (13) 
13

>  <SMILES>  (13) 
CC(C)(C)OC(=O)n1c(C([NH-])=O)cc2ccc(-c3ccc(CN4CCOCC4)c(F)c3)cc21

>  <Energy>  (13) 
115.92178011181126

>  <Genealogy>  (13) 
CC(C)(C)OC(=O)n1c(C([NH-])=O)cc2ccc(-c3ccc(CN4CCOCC4)c(F)c3)cc21 (protonated)
CC(C)(C)OC(=O)n1c(C([NH-])=O)cc2ccc(-c3ccc(CN4CCOCC4)c(F)c3)cc21 (3D coordinates assigned)
CC(C)(C)OC(=O)n1c(C([NH-])=O)cc2ccc(-c3ccc(CN4CCOCC4)c(F)c3)cc21 (nonaromatic ring conformer: 115.92178011181126 kcal/mol)

>  <smiles>  (13) 
CC(C)(C)OC(=O)n1c(C(N)=O)cc2ccc(-c3ccc(CN4CCOCC4)c(F)c3)cc21

>  <score_type>  (13) 
oracle

>  <origin>  (13) 
adg

>  <m_score__min__energy>  (13) 
-10.19

>  <m_primary>  (13) 
energy

$$$$
15:0
     RDKit          3D

 42 43  0  0  0  0  0  0  0  0999 V2000
  142.2500  156.9390  135.5470 C   0  0  0  0  0  0  0  0  0  0  0  0
  142.0220  157.0630  134.1020 N   0  0  0  0  0  0  0  0  0  0  0  0
  143.0980  157.5440  133.2610 C   0  0  0  0  0  0  0  0  0  0  0  0
  143.4410  156.8970  132.2360 O   0  0  0  0  0  0  0  0  0  0  0  0
  143.7630  158.7790  133.5420 N   0  0  0  0  0  0  0  0  0  0  0  0
  143.1950  159.9520  133.9340 C   0  0  0  0  0  0  0  0  0  0  0  0
  141.7550  160.1630  134.1690 C   0  0  0  0  0  0  0  0  0  0  0  0
  140.9610  160.8450  133.1940 N   0  0  0  0  0  0  0  0  0  0  0  0
  141.2160  159.7490  135.2310 O   0  0  0  0  0  0  0  0  0  0  0  0
  144.1710  160.9370  134.0780 C   0  0  0  0  0  0  0  0  0  0  0  0
  145.3590  160.3240  133.7450 C   0  0  0  0  0  0  0  0  0  0  0  0
  146.6520  160.8320  133.7140 C   0  0  0  0  0  0  0  0  0  0  0  0
  147.6960  159.9590  133.3580 C   0  0  0  0  0  0  0  0  0  0  0  0
  147.4220  158.6130  133.0110 C   0  0  0  0  0  0  0  0  0  0  0  0
  148.5590  157.6740  132.7070 C   0  0  0  0  0  0  0  0  0  0  0  0
  148.0470  156.4570  132.2940 F   0  0  0  0  0  0  0  0  0  0  0  0
  149.3760  158.1850  131.7140 F   0  0  0  0  0  0  0  0  0  0  0  0
  146.0940  158.1340  133.0380 C   0  0  0  0  0  0  0  0  0  0  0  0
  145.0830  159.0230  133.4160 C   0  0  0  0  0  0  0  0  0  0  0  0
  140.6950  156.8290  133.5630 C   0  0  0  0  0  0  0  0  0  0  0  0
  140.3900  155.6770  133.1460 O   0  0  0  0  0  0  0  0  0  0  0  0
  139.7380  157.9180  133.4340 N   0  0  2  0  0  0  0  0  0  0  0  0
  138.7350  157.9130  134.5210 C   0  0  0  0  0  0  0  0  0  0  0  0
  139.1090  157.9100  132.0940 C   0  0  0  0  0  0  0  0  0  0  0  0
  139.2260  159.2200  131.3530 C   0  0  0  0  0  0  0  0  0  0  0  0
  138.4800  160.1820  131.6560 O   0  0  0  0  0  0  0  0  0  0  0  0
  140.1990  159.3940  130.3860 O   0  0  0  0  0  0  0  0  0  0  0  0
  141.4102  157.3957  136.0912 H   0  0  0  0  0  0  0  0  0  0  0  0
  142.3262  155.8752  135.8162 H   0  0  0  0  0  0  0  0  0  0  0  0
  143.1844  157.4532  135.8162 H   0  0  0  0  0  0  0  0  0  0  0  0
  140.6020  160.3350  132.3540 H   0  0  0  0  0  0  0  0  0  0  0  0
  144.0239  161.9812  134.3909 H   0  0  0  0  0  0  0  0  0  0  0  0
  146.8531  161.8850  133.9604 H   0  0  0  0  0  0  0  0  0  0  0  0
  148.7335  160.3244  133.3490 H   0  0  0  0  0  0  0  0  0  0  0  0
  149.1589  157.5470  133.6203 H   0  0  0  0  0  0  0  0  0  0  0  0
  145.8617  157.0928  132.7697 H   0  0  0  0  0  0  0  0  0  0  0  0
  140.2470  158.8290  133.5330 H   0  0  0  0  0  0  0  0  0  0  0  0
  139.2485  157.9156  135.4938 H   0  0  0  0  0  0  0  0  0  0  0  0
  138.1008  158.8080  134.4388 H   0  0  0  0  0  0  0  0  0  0  0  0
  138.1097  157.0117  134.4388 H   0  0  0  0  0  0  0  0  0  0  0  0
  139.5910  157.1269  131.4903 H   0  0  0  0  0  0  0  0  0  0  0  0
  138.0354  157.7259  132.2475 H   0  0  0  0  0  0  0  0  0  0  0  0
  1  2  1  0
  2  3  1  0
  3  4  2  0
  3  5  1  0
  5  6  1  0
  6  7  1  0
  7  8  1  0
  7  9  2  0
  6 10  2  0
 10 11  1  0
 11 12  2  0
 12 13  1  0
 13 14  2  0
 14 15  1  0
 15 16  1  0
 15 17  1  0
 14 18  1  0
 18 19  2  0
  2 20  1  0
 20 21  2  0
 20 22  1  0
 22 23  1  0
 22 24  1  0
 24 25  1  0
 25 26  2  0
 25 27  1  0
 19  5  1  0
 19 11  1  0
  1 28  1  0
  1 29  1  0
  1 30  1  0
  8 31  1  0
 10 32  1  0
 12 33  1  0
 13 34  1  0
 15 35  1  0
 18 36  1  0
 22 37  1  6
 23 38  1  0
 23 39  1  0
 23 40  1  0
 24 41  1  0
 24 42  1  0
M  CHG  3   8  -1  22   1  27  -1
M  END
>  <UniqueID>  (14) 
14

>  <SMILES>  (14) 
CN(C(=O)n1c(C([NH-])=O)cc2ccc(C(F)F)cc21)C(=O)[N@H+](C)CC(=O)[O-]

>  <Energy>  (14) 
90.31172554272608

>  <Genealogy>  (14) 
CN(C(=O)n1c(C([NH-])=O)cc2ccc(C(F)F)cc21)C(=O)[NH+](C)CC(=O)[O-] (protonated)
CN(C(=O)n1c(C([NH-])=O)cc2ccc(C(F)F)cc21)C(=O)[N@H+](C)CC(=O)[O-] (chirality)
CN(C(=O)n1c(C([NH-])=O)cc2ccc(C(F)F)cc21)C(=O)[N@H+](C)CC(=O)[O-] (3D coordinates assigned)
CN(C(=O)n1c(C([NH-])=O)cc2ccc(C(F)F)cc21)C(=O)[N@H+](C)CC(=O)[O-] (optimized conformer: 90.31172554272608 kcal/mol)

>  <smiles>  (14) 
CN(CC(=O)O)C(=O)N(C)C(=O)n1c(C(N)=O)cc2ccc(C(F)F)cc21

>  <score_type>  (14) 
oracle

>  <origin>  (14) 
adg

>  <m_score__min__energy>  (14) 
-5.6299999999999999

>  <m_primary>  (14) 
energy

$$$$
16:0
     RDKit          3D

 57 58  0  0  0  0  0  0  0  0999 V2000
  149.8470  151.1050  131.0780 C   0  0  0  0  0  0  0  0  0  0  0  0
  148.8140  151.8920  131.7720 N   0  0  0  0  0  0  0  0  0  0  0  0
  147.5660  151.1120  131.8450 C   0  0  0  0  0  0  0  0  0  0  0  0
  149.2760  152.2810  133.1220 C   0  0  0  0  0  0  0  0  0  0  0  0
  148.4340  153.4360  133.6710 C   0  0  0  0  0  0  0  0  0  0  0  0
  148.0710  154.3590  132.5940 N   0  0  0  0  0  0  0  0  0  0  0  0
  147.8250  155.7680  132.7570 C   0  0  0  0  0  0  0  0  0  0  0  0
  148.8610  156.7330  132.6160 C   0  0  0  0  0  0  0  0  0  0  0  0
  148.5880  158.1020  132.7610 C   0  0  0  0  0  0  0  0  0  0  0  0
  147.2830  158.4830  133.0540 C   0  0  0  0  0  0  0  0  0  0  0  0
  146.7490  159.7340  133.2550 C   0  0  0  0  0  0  0  0  0  0  0  0
  145.3980  159.5230  133.5260 C   0  0  0  0  0  0  0  0  0  0  0  0
  144.4230  160.6170  133.7350 C   0  0  0  0  0  0  0  0  0  0  0  0
  143.0580  160.4290  133.3670 N   0  0  0  0  0  0  0  0  0  0  0  0
  144.7770  161.7150  134.2490 O   0  0  0  0  0  0  0  0  0  0  0  0
  145.1120  158.1900  133.4950 N   0  0  0  0  0  0  0  0  0  0  0  0
  143.8500  157.5500  133.7430 C   0  0  0  0  0  0  0  0  0  0  0  0
  143.7470  156.7080  134.6730 O   0  0  0  0  0  0  0  0  0  0  0  0
  142.7220  157.8400  132.9030 N   0  0  0  0  0  0  0  0  0  0  0  0
  141.4510  157.1230  133.0150 C   0  0  0  0  0  0  0  0  0  0  0  0
  140.4060  157.9750  133.6720 C   0  0  0  0  0  0  0  0  0  0  0  0
  139.2270  157.9580  133.2240 O   0  0  0  0  0  0  0  0  0  0  0  0
  140.7510  158.7590  134.7860 O   0  0  0  0  0  0  0  0  0  0  0  0
  140.5630  158.4080  136.1640 C   0  0  0  0  0  0  0  0  0  0  0  0
  141.5810  157.3040  136.4930 C   0  0  0  0  0  0  0  0  0  0  0  0
  140.8350  159.6230  137.0680 C   0  0  0  0  0  0  0  0  0  0  0  0
  139.1420  157.8620  136.3970 C   0  0  0  0  0  0  0  0  0  0  0  0
  146.2750  157.5700  133.2020 C   0  0  0  0  0  0  0  0  0  0  0  0
  146.5200  156.1990  133.0790 C   0  0  0  0  0  0  0  0  0  0  0  0
  150.4931  150.6128  131.8199 H   0  0  0  0  0  0  0  0  0  0  0  0
  149.3655  150.3427  130.4478 H   0  0  0  0  0  0  0  0  0  0  0  0
  150.4541  151.7716  130.4478 H   0  0  0  0  0  0  0  0  0  0  0  0
  147.2990  150.9451  132.8990 H   0  0  0  0  0  0  0  0  0  0  0  0
  146.7576  151.6659  131.3453 H   0  0  0  0  0  0  0  0  0  0  0  0
  147.7097  150.1427  131.3453 H   0  0  0  0  0  0  0  0  0  0  0  0
  149.1871  151.4169  133.7968 H   0  0  0  0  0  0  0  0  0  0  0  0
  150.3242  152.6080  133.0561 H   0  0  0  0  0  0  0  0  0  0  0  0
  147.5178  153.0322  134.1266 H   0  0  0  0  0  0  0  0  0  0  0  0
  149.0223  153.9801  134.4245 H   0  0  0  0  0  0  0  0  0  0  0  0
  148.0790  153.9680  131.6240 H   0  0  0  0  0  0  0  0  0  0  0  0
  149.8859  156.4029  132.3911 H   0  0  0  0  0  0  0  0  0  0  0  0
  149.3839  158.8526  132.6461 H   0  0  0  0  0  0  0  0  0  0  0  0
  147.2767  160.6982  133.2112 H   0  0  0  0  0  0  0  0  0  0  0  0
  142.4120  159.8750  133.9780 H   0  0  0  0  0  0  0  0  0  0  0  0
  142.7950  158.6210  132.2130 H   0  0  0  0  0  0  0  0  0  0  0  0
  141.1061  156.8439  132.0084 H   0  0  0  0  0  0  0  0  0  0  0  0
  141.6091  156.2263  133.6322 H   0  0  0  0  0  0  0  0  0  0  0  0
  141.6733  157.2039  137.5845 H   0  0  0  0  0  0  0  0  0  0  0  0
  141.2387  156.3503  136.0649 H   0  0  0  0  0  0  0  0  0  0  0  0
  142.5593  157.5679  136.0649 H   0  0  0  0  0  0  0  0  0  0  0  0
  140.7667  159.3179  138.1226 H   0  0  0  0  0  0  0  0  0  0  0  0
  141.8428  160.0136  136.8638 H   0  0  0  0  0  0  0  0  0  0  0  0
  140.0899  160.4061  136.8638 H   0  0  0  0  0  0  0  0  0  0  0  0
  138.9501  157.7883  137.4776 H   0  0  0  0  0  0  0  0  0  0  0  0
  138.4083  158.5422  135.9399 H   0  0  0  0  0  0  0  0  0  0  0  0
  139.0526  156.8655  135.9399 H   0  0  0  0  0  0  0  0  0  0  0  0
  145.7106  155.4696  133.2304 H   0  0  0  0  0  0  0  0  0  0  0  0
  1  2  1  0
  2  3  1  0
  2  4  1  0
  4  5  1  0
  5  6  1  0
  6  7  1  0
  7  8  2  0
  8  9  1  0
  9 10  2  0
 10 11  1  0
 11 12  2  0
 12 13  1  0
 13 14  1  0
 13 15  2  0
 12 16  1  0
 16 17  1  0
 17 18  2  0
 17 19  1  0
 19 20  1  0
 20 21  1  0
 21 22  2  0
 21 23  1  0
 23 24  1  0
 24 25  1  0
 24 26  1  0
 24 27  1  0
 16 28  1  0
 28 29  2  0
 29  7  1  0
 28 10  1  0
  1 30  1  0
  1 31  1  0
  1 32  1  0
  3 33  1  0
  3 34  1  0
  3 35  1  0
  4 36  1  0
  4 37  1  0
  5 38  1  0
  5 39  1  0
  6 40  1  0
  8 41  1  0
  9 42  1  0
 11 43  1  0
 14 44  1  0
 19 45  1  0
 20 46  1  0
 20 47  1  0
 25 48  1  0
 25 49  1  0
 25 50  1  0
 26 51  1  0
 26 52  1  0
 26 53  1  0
 27 54  1  0
 27 55  1  0
 27 56  1  0
 29 57  1  0
M  CHG  1  14  -1
M  END
>  <UniqueID>  (15) 
15

>  <SMILES>  (15) 
CN(C)CCNc1ccc2cc(C([NH-])=O)n(C(=O)NCC(=O)OC(C)(C)C)c2c1

>  <Energy>  (15) 
85.63219861544044

>  <Genealogy>  (15) 
CN(C)CCNc1ccc2cc(C([NH-])=O)n(C(=O)NCC(=O)OC(C)(C)C)c2c1 (protonated)
CN(C)CCNc1ccc2cc(C([NH-])=O)n(C(=O)NCC(=O)OC(C)(C)C)c2c1 (3D coordinates assigned)
CN(C)CCNc1ccc2cc(C([NH-])=O)n(C(=O)NCC(=O)OC(C)(C)C)c2c1 (optimized conformer: 85.63219861544044 kcal/mol)

>  <smiles>  (15) 
CN(C)CCNc1ccc2cc(C(N)=O)n(C(=O)NCC(=O)OC(C)(C)C)c2c1

>  <score_type>  (15) 
oracle

>  <origin>  (15) 
adg

>  <m_score__min__energy>  (15) 
-8.3000000000000007

>  <m_primary>  (15) 
energy

$$$$
17:0
     RDKit          3D

 53 55  0  0  0  0  0  0  0  0999 V2000
  138.4030  157.5070  133.7600 C   0  0  0  0  0  0  0  0  0  0  0  0
  139.6850  157.5000  134.4740 N   0  0  0  0  0  0  0  0  0  0  0  0
  139.8720  158.3520  135.6540 C   0  0  0  0  0  0  0  0  0  0  0  0
  140.7480  156.6460  134.0000 C   0  0  0  0  0  0  0  0  0  0  0  0
  140.5580  155.9310  132.9750 O   0  0  0  0  0  0  0  0  0  0  0  0
  142.0540  156.5350  134.7520 C   0  0  0  0  0  0  0  0  0  0  0  0
  143.0640  157.5650  134.3170 C   0  0  0  0  0  0  0  0  0  0  0  0
  142.6880  158.9260  134.1870 C   0  0  0  0  0  0  0  0  0  0  0  0
  143.6270  159.8930  133.7880 C   0  0  0  0  0  0  0  0  0  0  0  0
  144.9290  159.4700  133.5280 C   0  0  0  0  0  0  0  0  0  0  0  0
  146.0250  160.1870  133.1060 C   0  0  0  0  0  0  0  0  0  0  0  0
  147.0540  159.2540  132.9830 C   0  0  0  0  0  0  0  0  0  0  0  0
  148.4440  159.5880  132.6000 C   0  0  0  0  0  0  0  0  0  0  0  0
  149.5230  158.7040  132.9130 N   0  0  0  0  0  0  0  0  0  0  0  0
  148.6880  160.6530  131.9730 O   0  0  0  0  0  0  0  0  0  0  0  0
  146.6110  158.0110  133.3240 N   0  0  0  0  0  0  0  0  0  0  0  0
  147.3400  156.7740  133.2490 C   0  0  0  0  0  0  0  0  0  0  0  0
  148.1150  156.5670  132.2760 O   0  0  0  0  0  0  0  0  0  0  0  0
  147.1780  155.7360  134.2760 C   0  0  0  0  0  0  0  0  0  0  0  0
  147.4580  155.9890  135.4780 O   0  0  0  0  0  0  0  0  0  0  0  0
  146.6920  154.4420  133.9070 N   0  0  0  0  0  0  0  0  0  0  0  0
  145.4550  154.2420  133.1630 C   0  0  0  0  0  0  0  0  0  0  0  0
  144.3840  153.7290  134.0860 C   0  0  0  0  0  0  0  0  0  0  0  0
  143.3680  152.8860  133.6080 C   0  0  0  0  0  0  0  0  0  0  0  0
  142.3870  152.3970  134.4780 C   0  0  0  0  0  0  0  0  0  0  0  0
  142.4140  152.7320  135.8430 C   0  0  0  0  0  0  0  0  0  0  0  0
  141.3640  152.2350  136.7580 C   0  0  0  0  0  0  0  0  0  0  0  0
  141.0880  152.8590  137.8170 O   0  0  0  0  0  0  0  0  0  0  0  0
  140.6540  151.0780  136.4540 O   0  0  0  0  0  0  0  0  0  0  0  0
  143.4500  153.5540  136.3230 C   0  0  0  0  0  0  0  0  0  0  0  0
  144.4250  154.0470  135.4500 C   0  0  0  0  0  0  0  0  0  0  0  0
  145.3060  158.1580  133.6480 C   0  0  0  0  0  0  0  0  0  0  0  0
  144.3860  157.1710  134.0180 C   0  0  0  0  0  0  0  0  0  0  0  0
  137.5781  157.5115  134.4876 H   0  0  0  0  0  0  0  0  0  0  0  0
  138.3399  158.4055  133.1286 H   0  0  0  0  0  0  0  0  0  0  0  0
  138.3301  156.6092  133.1286 H   0  0  0  0  0  0  0  0  0  0  0  0
  139.7399  157.7503  136.5653 H   0  0  0  0  0  0  0  0  0  0  0  0
  140.8854  158.7796  135.6406 H   0  0  0  0  0  0  0  0  0  0  0  0
  139.1308  159.1647  135.6406 H   0  0  0  0  0  0  0  0  0  0  0  0
  141.8546  156.6689  135.8255 H   0  0  0  0  0  0  0  0  0  0  0  0
  142.4777  155.5427  134.5380 H   0  0  0  0  0  0  0  0  0  0  0  0
  141.6520  159.2279  134.4003 H   0  0  0  0  0  0  0  0  0  0  0  0
  143.3429  160.9506  133.6842 H   0  0  0  0  0  0  0  0  0  0  0  0
  146.0782  161.2677  132.9076 H   0  0  0  0  0  0  0  0  0  0  0  0
  149.3780  157.8540  133.5000 H   0  0  0  0  0  0  0  0  0  0  0  0
  150.4940  158.9360  132.6090 H   0  0  0  0  0  0  0  0  0  0  0  0
  145.1330  155.1985  132.7256 H   0  0  0  0  0  0  0  0  0  0  0  0
  145.6270  153.5080  132.3619 H   0  0  0  0  0  0  0  0  0  0  0  0
  143.3430  152.6084  132.5439 H   0  0  0  0  0  0  0  0  0  0  0  0
  141.5892  151.7460  134.0911 H   0  0  0  0  0  0  0  0  0  0  0  0
  143.4934  153.8106  137.3918 H   0  0  0  0  0  0  0  0  0  0  0  0
  145.2300  154.6891  135.8370 H   0  0  0  0  0  0  0  0  0  0  0  0
  144.6855  156.1141  134.0745 H   0  0  0  0  0  0  0  0  0  0  0  0
  1  2  1  0
  2  3  1  0
  2  4  1  0
  4  5  2  0
  4  6  1  0
  6  7  1  0
  7  8  2  0
  8  9  1  0
  9 10  2  0
 10 11  1  0
 11 12  2  0
 12 13  1  0
 13 14  1  0
 13 15  2  0
 12 16  1  0
 16 17  1  0
 17 18  2  0
 17 19  1  0
 19 20  2  0
 19 21  1  0
 21 22  1  0
 22 23  1  0
 23 24  2  0
 24 25  1  0
 25 26  2  0
 26 27  1  0
 27 28  2  0
 27 29  1  0
 26 30  1  0
 30 31  2  0
 16 32  1  0
 32 33  2  0
 33  7  1  0
 32 10  1  0
 31 23  1  0
  1 34  1  0
  1 35  1  0
  1 36  1  0
  3 37  1  0
  3 38  1  0
  3 39  1  0
  6 40  1  0
  6 41  1  0
  8 42  1  0
  9 43  1  0
 11 44  1  0
 14 45  1  0
 14 46  1  0
 22 47  1  0
 22 48  1  0
 24 49  1  0
 25 50  1  0
 30 51  1  0
 31 52  1  0
 33 53  1  0
M  CHG  2  21  -1  29  -1
M  END
>  <UniqueID>  (16) 
16

>  <SMILES>  (16) 
CN(C)C(=O)Cc1ccc2cc(C(N)=O)n(C(=O)C(=O)[N-]Cc3ccc(C(=O)[O-])cc3)c2c1

>  <Energy>  (16) 
86.55135898622329

>  <Genealogy>  (16) 
CN(C)C(=O)Cc1ccc2cc(C(N)=O)n(C(=O)C(=O)[N-]Cc3ccc(C(=O)[O-])cc3)c2c1 (protonated)
CN(C)C(=O)Cc1ccc2cc(C(N)=O)n(C(=O)C(=O)[N-]Cc3ccc(C(=O)[O-])cc3)c2c1 (3D coordinates assigned)
CN(C)C(=O)Cc1ccc2cc(C(N)=O)n(C(=O)C(=O)[N-]Cc3ccc(C(=O)[O-])cc3)c2c1 (optimized conformer: 86.55135898622329 kcal/mol)

>  <smiles>  (16) 
CN(C)C(=O)Cc1ccc2cc(C(N)=O)n(C(=O)C(=O)NCc3ccc(C(=O)O)cc3)c2c1

>  <score_type>  (16) 
oracle

>  <origin>  (16) 
adg

>  <m_score__min__energy>  (16) 
-10.08

>  <m_primary>  (16) 
energy

$$$$
18:0
     RDKit          3D

 45 47  0  0  0  0  0  0  0  0999 V2000
  138.8070  158.4060  132.6470 C   0  0  0  0  0  0  0  0  0  0  0  0
  140.2090  158.4410  133.0970 N   0  0  0  0  0  0  0  0  0  0  0  0
  140.7570  159.8090  133.0080 C   0  0  0  0  0  0  0  0  0  0  0  0
  140.4520  157.7020  134.3720 C   0  0  0  0  0  0  0  0  0  0  0  0
  141.0340  156.2480  134.2470 C   0  0  0  0  0  0  0  0  0  0  0  0
  141.7400  155.9350  132.9880 N   0  0  0  0  0  0  0  0  0  0  0  0
  143.1610  156.1930  133.0490 C   0  0  0  0  0  0  0  0  0  0  0  0
  144.0900  155.1300  132.8980 C   0  0  0  0  0  0  0  0  0  0  0  0
  145.4720  155.3680  132.9660 C   0  0  0  0  0  0  0  0  0  0  0  0
  145.9020  156.6770  133.1540 C   0  0  0  0  0  0  0  0  0  0  0  0
  147.1760  157.1810  133.2750 C   0  0  0  0  0  0  0  0  0  0  0  0
  147.0170  158.5550  133.4400 C   0  0  0  0  0  0  0  0  0  0  0  0
  148.1490  159.5000  133.5250 C   0  0  0  0  0  0  0  0  0  0  0  0
  148.2180  160.6050  132.6270 N   0  0  0  0  0  0  0  0  0  0  0  0
  149.0390  159.3640  134.4050 O   0  0  0  0  0  0  0  0  0  0  0  0
  145.6940  158.8870  133.4260 N   0  0  0  0  0  0  0  0  0  0  0  0
  145.1070  160.1840  133.6280 C   0  0  0  0  0  0  0  0  0  0  0  0
  143.8890  160.3790  133.3750 O   0  0  0  0  0  0  0  0  0  0  0  0
  145.8860  161.2420  134.0810 O   0  0  0  0  0  0  0  0  0  0  0  0
  145.0250  157.7260  133.2480 C   0  0  0  0  0  0  0  0  0  0  0  0
  143.6430  157.5180  133.2000 C   0  0  0  0  0  0  0  0  0  0  0  0
  141.3610  158.5500  135.2900 C   0  0  0  0  0  0  0  0  0  0  0  0
  140.2560  158.6610  136.3230 C   0  0  0  0  0  0  0  0  0  0  0  0
  139.3280  157.8650  135.4220 C   0  0  0  0  0  0  0  0  0  0  0  0
  138.1412  158.3894  133.5225 H   0  0  0  0  0  0  0  0  0  0  0  0
  138.5940  159.2991  132.0412 H   0  0  0  0  0  0  0  0  0  0  0  0
  138.6388  157.5034  132.0412 H   0  0  0  0  0  0  0  0  0  0  0  0
  140.9164  160.2068  134.0211 H   0  0  0  0  0  0  0  0  0  0  0  0
  141.7152  159.7858  132.4683 H   0  0  0  0  0  0  0  0  0  0  0  0
  140.0477  160.4537  132.4683 H   0  0  0  0  0  0  0  0  0  0  0  0
  141.7419  156.0974  135.0753 H   0  0  0  0  0  0  0  0  0  0  0  0
  140.1616  155.5784  134.2700 H   0  0  0  0  0  0  0  0  0  0  0  0
  141.5400  154.9590  132.6870 H   0  0  0  0  0  0  0  0  0  0  0  0
  141.3470  156.5510  132.2390 H   0  0  0  0  0  0  0  0  0  0  0  0
  143.7225  154.1076  132.7256 H   0  0  0  0  0  0  0  0  0  0  0  0
  146.1936  154.5430  132.8733 H   0  0  0  0  0  0  0  0  0  0  0  0
  148.1207  156.6181  133.2473 H   0  0  0  0  0  0  0  0  0  0  0  0
  147.4280  161.2830  132.5480 H   0  0  0  0  0  0  0  0  0  0  0  0
  142.9446  158.3643  133.2777 H   0  0  0  0  0  0  0  0  0  0  0  0
  142.2538  158.0167  135.6484 H   0  0  0  0  0  0  0  0  0  0  0  0
  141.8395  159.4599  134.8988 H   0  0  0  0  0  0  0  0  0  0  0  0
  140.4848  158.1676  137.2792 H   0  0  0  0  0  0  0  0  0  0  0  0
  139.9494  159.6461  136.7046 H   0  0  0  0  0  0  0  0  0  0  0  0
  138.9865  156.9158  135.8606 H   0  0  0  0  0  0  0  0  0  0  0  0
  138.3557  158.2854  135.1256 H   0  0  0  0  0  0  0  0  0  0  0  0
  1  2  1  0
  2  3  1  0
  2  4  1  0
  4  5  1  0
  5  6  1  0
  6  7  1  0
  7  8  2  0
  8  9  1  0
  9 10  2  0
 10 11  1  0
 11 12  2  0
 12 13  1  0
 13 14  1  0
 13 15  2  0
 12 16  1  0
 16 17  1  0
 17 18  2  0
 17 19  1  0
 16 20  1  0
 20 21  2  0
  4 22  1  0
 22 23  1  0
 23 24  1  0
 24  4  1  0
 21  7  1  0
 20 10  1  0
  1 25  1  0
  1 26  1  0
  1 27  1  0
  3 28  1  0
  3 29  1  0
  3 30  1  0
  5 31  1  0
  5 32  1  0
  6 33  1  0
  6 34  1  0
  8 35  1  0
  9 36  1  0
 11 37  1  0
 14 38  1  0
 21 39  1  0
 22 40  1  0
 22 41  1  0
 23 42  1  0
 23 43  1  0
 24 44  1  0
 24 45  1  0
M  CHG  3   6   1  14  -1  19  -1
M  END
>  <UniqueID>  (17) 
17

>  <SMILES>  (17) 
CN(C)C1(C[NH2+]c2ccc3cc(C([NH-])=O)n(C(=O)[O-])c3c2)CCC1

>  <Energy>  (17) 
159.6674394534464

>  <Genealogy>  (17) 
CN(C)C1(C[NH2+]c2ccc3cc(C([NH-])=O)n(C(=O)[O-])c3c2)CCC1 (protonated)
CN(C)C1(C[NH2+]c2ccc3cc(C([NH-])=O)n(C(=O)[O-])c3c2)CCC1 (3D coordinates assigned)
CN(C)C1(C[NH2+]c2ccc3cc(C([NH-])=O)n(C(=O)[O-])c3c2)CCC1 (nonaromatic ring conformer: 159.6674394534464 kcal/mol)

>  <smiles>  (17) 
CN(C)C1(CNc2ccc3cc(C(N)=O)n(C(=O)O)c3c2)CCC1

>  <score_type>  (17) 
oracle

>  <origin>  (17) 
adg

>  <m_score__min__energy>  (17) 
-7.46

>  <m_primary>  (17) 
energy

$$$$
19:0
     RDKit          3D

 48 50  0  0  0  0  0  0  0  0999 V2000
  149.5370  161.1130  130.6760 C   0  0  0  0  0  0  0  0  0  0  0  0
  148.7800  159.8870  130.9720 N   0  0  0  0  0  0  0  0  0  0  0  0
  149.6060  158.8900  131.6620 C   0  0  0  0  0  0  0  0  0  0  0  0
  148.6590  158.0270  132.4770 C   0  0  0  0  0  0  0  0  0  0  0  0
  147.4970  158.9560  132.7960 C   0  0  2  0  0  0  0  0  0  0  0  0
  146.1880  158.2840  132.7280 N   0  0  0  0  0  0  0  0  0  0  0  0
  144.9460  158.6940  133.3470 C   0  0  0  0  0  0  0  0  0  0  0  0
  144.5160  160.0510  133.3840 C   0  0  0  0  0  0  0  0  0  0  0  0
  143.3150  160.4110  134.0170 C   0  0  0  0  0  0  0  0  0  0  0  0
  142.5520  159.4040  134.5940 C   0  0  0  0  0  0  0  0  0  0  0  0
  141.3620  159.4730  135.2870 C   0  0  0  0  0  0  0  0  0  0  0  0
  141.0710  158.1590  135.6490 C   0  0  0  0  0  0  0  0  0  0  0  0
  139.8610  157.7530  136.3920 C   0  0  0  0  0  0  0  0  0  0  0  0
  139.9680  156.8440  137.4840 N   0  0  0  0  0  0  0  0  0  0  0  0
  138.7300  158.2120  136.0790 O   0  0  0  0  0  0  0  0  0  0  0  0
  142.0380  157.3170  135.1910 N   0  0  0  0  0  0  0  0  0  0  0  0
  142.1360  155.9010  135.4020 C   0  0  0  0  0  0  0  0  0  0  0  0
  142.4220  155.4710  136.5520 O   0  0  0  0  0  0  0  0  0  0  0  0
  141.8900  154.9790  134.3200 N   0  0  0  0  0  0  0  0  0  0  0  0
  140.8180  155.2550  133.3600 C   0  0  0  0  0  0  0  0  0  0  0  0
  142.5880  153.6870  134.2700 C   0  0  0  0  0  0  0  0  0  0  0  0
  141.6100  152.5570  134.1700 C   0  0  0  0  0  0  0  0  0  0  0  0
  141.0980  152.2650  133.0570 O   0  0  0  0  0  0  0  0  0  0  0  0
  141.3070  151.7850  135.2850 O   0  0  0  0  0  0  0  0  0  0  0  0
  142.9380  158.0920  134.5540 C   0  0  0  0  0  0  0  0  0  0  0  0
  144.1340  157.7030  133.9460 C   0  0  0  0  0  0  0  0  0  0  0  0
  147.6220  160.1470  131.8400 C   0  0  0  0  0  0  0  0  0  0  0  0
  149.8353  161.5962  131.6181 H   0  0  0  0  0  0  0  0  0  0  0  0
  150.4351  160.8580  130.0943 H   0  0  0  0  0  0  0  0  0  0  0  0
  148.9067  161.8017  130.0943 H   0  0  0  0  0  0  0  0  0  0  0  0
  150.1460  158.2724  130.9292 H   0  0  0  0  0  0  0  0  0  0  0  0
  150.3542  159.3741  132.3069 H   0  0  0  0  0  0  0  0  0  0  0  0
  148.3176  157.1606  131.8915 H   0  0  0  0  0  0  0  0  0  0  0  0
  149.1326  157.6156  133.3806 H   0  0  0  0  0  0  0  0  0  0  0  0
  147.5485  159.2995  133.8397 H   0  0  0  0  0  0  0  0  0  0  0  0
  146.1770  157.3800  132.2020 H   0  0  0  0  0  0  0  0  0  0  0  0
  145.1333  160.8284  132.9101 H   0  0  0  0  0  0  0  0  0  0  0  0
  142.9880  161.4606  134.0547 H   0  0  0  0  0  0  0  0  0  0  0  0
  140.7690  160.3729  135.5071 H   0  0  0  0  0  0  0  0  0  0  0  0
  140.8860  156.4130  137.7370 H   0  0  0  0  0  0  0  0  0  0  0  0
  139.8917  155.4935  133.9033 H   0  0  0  0  0  0  0  0  0  0  0  0
  141.1027  156.1091  132.7280 H   0  0  0  0  0  0  0  0  0  0  0  0
  140.6548  154.3696  132.7280 H   0  0  0  0  0  0  0  0  0  0  0  0
  143.2507  153.6690  133.3922 H   0  0  0  0  0  0  0  0  0  0  0  0
  143.1725  153.5663  135.1940 H   0  0  0  0  0  0  0  0  0  0  0  0
  144.4384  156.6460  133.9334 H   0  0  0  0  0  0  0  0  0  0  0  0
  146.7094  160.2407  131.2331 H   0  0  0  0  0  0  0  0  0  0  0  0
  147.7555  161.0848  132.3993 H   0  0  0  0  0  0  0  0  0  0  0  0
  1  2  1  0
  2  3  1  0
  3  4  1  0
  4  5  1  0
  5  6  1  0
  6  7  1  0
  7  8  2  0
  8  9  1  0
  9 10  2  0
 10 11  1  0
 11 12  2  0
 12 13  1  0
 13 14  1  0
 13 15  2  0
 12 16  1  0
 16 17  1  0
 17 18  2  0
 17 19  1  0
 19 20  1  0
 19 21  1  0
 21 22  1  0
 22 23  2  0
 22 24  1  0
 16 25  1  0
 25 26  2  0
  5 27  1  0
 27  2  1  0
 26  7  1  0
 25 10  1  0
  1 28  1  0
  1 29  1  0
  1 30  1  0
  3 31  1  0
  3 32  1  0
  4 33  1  0
  4 34  1  0
  5 35  1  1
  6 36  1  0
  8 37  1  0
  9 38  1  0
 11 39  1  0
 14 40  1  0
 20 41  1  0
 20 42  1  0
 20 43  1  0
 21 44  1  0
 21 45  1  0
 26 46  1  0
 27 47  1  0
 27 48  1  0
M  CHG  2  14  -1  24  -1
M  END
>  <UniqueID>  (18) 
18

>  <SMILES>  (18) 
CN1CC[C@H](Nc2ccc3cc(C([NH-])=O)n(C(=O)N(C)CC(=O)[O-])c3c2)C1

>  <Energy>  (18) 
91.54256496111512

>  <Genealogy>  (18) 
CN1CCC(Nc2ccc3cc(C([NH-])=O)n(C(=O)N(C)CC(=O)[O-])c3c2)C1 (protonated)
CN1CC[C@H](Nc2ccc3cc(C([NH-])=O)n(C(=O)N(C)CC(=O)[O-])c3c2)C1 (chirality)
CN1CC[C@H](Nc2ccc3cc(C([NH-])=O)n(C(=O)N(C)CC(=O)[O-])c3c2)C1 (3D coordinates assigned)
CN1CC[C@H](Nc2ccc3cc(C([NH-])=O)n(C(=O)N(C)CC(=O)[O-])c3c2)C1 (nonaromatic ring conformer: 91.54256496111512 kcal/mol)

>  <smiles>  (18) 
CN1CCC(Nc2ccc3cc(C(N)=O)n(C(=O)N(C)CC(=O)O)c3c2)C1

>  <score_type>  (18) 
oracle

>  <origin>  (18) 
adg

>  <m_score__min__energy>  (18) 
-8.4199999999999999

>  <m_primary>  (18) 
energy

$$$$
20:0
     RDKit          3D

 42 43  0  0  0  0  0  0  0  0999 V2000
  142.7030  161.0750  133.6650 N   0  0  0  0  0  0  0  0  0  0  0  0
  144.1130  161.2730  133.7310 C   0  0  0  0  0  0  0  0  0  0  0  0
  144.5620  162.4450  133.8450 O   0  0  0  0  0  0  0  0  0  0  0  0
  145.0520  160.1340  133.6430 C   0  0  0  0  0  0  0  0  0  0  0  0
  146.4350  160.2850  133.5390 C   0  0  0  0  0  0  0  0  0  0  0  0
  146.9330  159.0080  133.4070 C   0  0  0  0  0  0  0  0  0  0  0  0
  148.2440  158.5690  133.2510 C   0  0  0  0  0  0  0  0  0  0  0  0
  148.4660  157.1860  133.1420 C   0  0  0  0  0  0  0  0  0  0  0  0
  147.3850  156.2690  133.2150 C   0  0  0  0  0  0  0  0  0  0  0  0
  147.6320  154.7910  133.0520 C   0  0  0  0  0  0  0  0  0  0  0  0
  147.9880  154.2160  134.2590 F   0  0  0  0  0  0  0  0  0  0  0  0
  146.4790  154.1870  132.5890 F   0  0  0  0  0  0  0  0  0  0  0  0
  148.6550  154.5660  132.1470 F   0  0  0  0  0  0  0  0  0  0  0  0
  146.0650  156.7590  133.3490 C   0  0  0  0  0  0  0  0  0  0  0  0
  145.8740  158.1410  133.4380 C   0  0  0  0  0  0  0  0  0  0  0  0
  144.7140  158.8160  133.5810 N   0  0  0  0  0  0  0  0  0  0  0  0
  143.4000  158.2420  133.6420 C   0  0  0  0  0  0  0  0  0  0  0  0
  142.6850  158.2160  132.6050 O   0  0  0  0  0  0  0  0  0  0  0  0
  142.9230  157.5850  134.9110 C   0  0  2  0  0  0  0  0  0  0  0  0
  143.0640  156.0870  134.7850 C   0  0  0  0  0  0  0  0  0  0  0  0
  142.6920  155.5130  133.7280 O   0  0  0  0  0  0  0  0  0  0  0  0
  143.6960  155.2990  135.8020 N   0  0  0  0  0  0  0  0  0  0  0  0
  145.0570  154.7780  135.7330 C   0  0  0  0  0  0  0  0  0  0  0  0
  145.2770  153.7340  136.8270 C   0  0  0  0  0  0  0  0  0  0  0  0
  146.9980  153.7510  137.4300 P   0  0  0  0  0  0  0  0  0  0  0  0
  147.7820  154.8240  136.7100 O   0  0  0  0  0  0  0  0  0  0  0  0
  146.9990  154.0810  139.0890 O   0  0  0  0  0  0  0  0  0  0  0  0
  147.7230  152.2470  137.1610 O   0  0  0  0  0  0  0  0  0  0  0  0
  141.2370  158.0610  135.3080 S   0  0  0  0  0  0  0  0  0  0  0  0
  140.3350  156.8700  135.1500 O   0  0  0  0  0  0  0  0  0  0  0  0
  140.7690  159.1620  134.3980 O   0  0  0  0  0  0  0  0  0  0  0  0
  141.1660  158.5960  136.8990 O   0  0  0  0  0  0  0  0  0  0  0  0
  142.2990  160.2070  133.2480 H   0  0  0  0  0  0  0  0  0  0  0  0
  147.0064  161.2248  133.5583 H   0  0  0  0  0  0  0  0  0  0  0  0
  149.0805  159.2824  133.2142 H   0  0  0  0  0  0  0  0  0  0  0  0
  149.4895  156.8094  132.9984 H   0  0  0  0  0  0  0  0  0  0  0  0
  145.2090  156.0690  133.3824 H   0  0  0  0  0  0  0  0  0  0  0  0
  143.5497  157.9301  135.7466 H   0  0  0  0  0  0  0  0  0  0  0  0
  145.2191  154.3134  134.7492 H   0  0  0  0  0  0  0  0  0  0  0  0
  145.7667  155.6058  135.8781 H   0  0  0  0  0  0  0  0  0  0  0  0
  144.6014  153.9495  137.6679 H   0  0  0  0  0  0  0  0  0  0  0  0
  145.0695  152.7405  136.4029 H   0  0  0  0  0  0  0  0  0  0  0  0
  1  2  1  0
  2  3  2  0
  2  4  1  0
  4  5  2  0
  5  6  1  0
  6  7  2  0
  7  8  1  0
  8  9  2  0
  9 10  1  0
 10 11  1  0
 10 12  1  0
 10 13  1  0
  9 14  1  0
 14 15  2  0
 15 16  1  0
 16 17  1  0
 17 18  2  0
 17 19  1  0
 19 20  1  0
 20 21  2  0
 20 22  1  0
 22 23  1  0
 23 24  1  0
 24 25  1  0
 25 26  2  0
 25 27  1  0
 25 28  1  0
 19 29  1  0
 29 30  2  0
 29 31  2  0
 29 32  1  0
 16  4  1  0
 15  6  1  0
  1 33  1  0
  5 34  1  0
  7 35  1  0
  8 36  1  0
 14 37  1  0
 19 38  1  1
 23 39  1  0
 23 40  1  0
 24 41  1  0
 24 42  1  0
M  CHG  5   1  -1  22  -1  27  -1  28  -1  32  -1
M  END
>  <UniqueID>  (19) 
19

>  <SMILES>  (19) 
[NH-]C(=O)c1cc2ccc(C(F)(F)F)cc2n1C(=O)[C@H](C(=O)[N-]CCP(=O)([O-])[O-])S(=O)(=O)[O-]

>  <Energy>  (19) 
67.98502704039436

>  <Genealogy>  (19) 
[NH-]C(=O)c1cc2ccc(C(F)(F)F)cc2n1C(=O)C(C(=O)[N-]CCP(=O)([O-])[O-])S(=O)(=O)[O-] (protonated)
[NH-]C(=O)c1cc2ccc(C(F)(F)F)cc2n1C(=O)[C@H](C(=O)[N-]CCP(=O)([O-])[O-])S(=O)(=O)[O-] (chirality)
[NH-]C(=O)c1cc2ccc(C(F)(F)F)cc2n1C(=O)[C@H](C(=O)[N-]CCP(=O)([O-])[O-])S(=O)(=O)[O-] (3D coordinates assigned)
[NH-]C(=O)c1cc2ccc(C(F)(F)F)cc2n1C(=O)[C@H](C(=O)[N-]CCP(=O)([O-])[O-])S(=O)(=O)[O-] (optimized conformer: 67.98502704039436 kcal/mol)

>  <smiles>  (19) 
NC(=O)c1cc2ccc(C(F)(F)F)cc2n1C(=O)C(C(=O)NCCP(=O)(O)O)S(=O)(=O)O

>  <score_type>  (19) 
oracle

>  <origin>  (19) 
adg

>  <m_score__min__energy>  (19) 
-7.21

>  <m_primary>  (19) 
energy

$$$$
21:0
     RDKit          3D

 39 40  0  0  0  0  0  0  0  0999 V2000
  146.2810  155.7530  135.2270 C   0  0  0  0  0  0  0  0  0  0  0  0
  146.6780  155.0900  133.9090 C   0  0  2  0  0  0  0  0  0  0  0  0
  148.0020  154.5990  134.0410 O   0  0  0  0  0  0  0  0  0  0  0  0
  148.1730  153.4140  133.2920 C   0  0  0  0  0  0  0  0  0  0  0  0
  149.2630  153.6380  132.2480 C   0  0  0  0  0  0  0  0  0  0  0  0
  149.6710  154.9780  132.2510 O   0  0  0  0  0  0  0  0  0  0  0  0
  146.5910  156.1090  132.7990 C   0  0  0  0  0  0  0  0  0  0  0  0
  146.9410  155.7990  131.6280 O   0  0  0  0  0  0  0  0  0  0  0  0
  146.2430  157.4710  133.0920 N   0  0  0  0  0  0  0  0  0  0  0  0
  147.0600  158.5600  133.1230 C   0  0  0  0  0  0  0  0  0  0  0  0
  148.5350  158.5240  133.0210 C   0  0  0  0  0  0  0  0  0  0  0  0
  149.1880  157.5640  132.1890 N   0  0  0  0  0  0  0  0  0  0  0  0
  149.2300  159.3610  133.6530 O   0  0  0  0  0  0  0  0  0  0  0  0
  146.3170  159.7180  133.3530 C   0  0  0  0  0  0  0  0  0  0  0  0
  145.0110  159.2980  133.4630 C   0  0  0  0  0  0  0  0  0  0  0  0
  143.8470  160.0290  133.6830 C   0  0  0  0  0  0  0  0  0  0  0  0
  142.6280  159.3300  133.7270 C   0  0  0  0  0  0  0  0  0  0  0  0
  142.5950  157.9240  133.5480 C   0  0  0  0  0  0  0  0  0  0  0  0
  141.2900  157.1810  133.5840 C   0  0  0  0  0  0  0  0  0  0  0  0
  140.7180  157.3060  134.8370 F   0  0  0  0  0  0  0  0  0  0  0  0
  140.4300  157.7040  132.6350 F   0  0  0  0  0  0  0  0  0  0  0  0
  143.7970  157.2150  133.3290 C   0  0  0  0  0  0  0  0  0  0  0  0
  144.9950  157.9370  133.3030 C   0  0  0  0  0  0  0  0  0  0  0  0
  146.6453  155.1445  136.0679 H   0  0  0  0  0  0  0  0  0  0  0  0
  146.7265  156.7573  135.2810 H   0  0  0  0  0  0  0  0  0  0  0  0
  145.1854  155.8345  135.2810 H   0  0  0  0  0  0  0  0  0  0  0  0
  146.0037  154.2550  133.6679 H   0  0  0  0  0  0  0  0  0  0  0  0
  148.4679  152.5934  133.9626 H   0  0  0  0  0  0  0  0  0  0  0  0
  147.2289  153.1511  132.7925 H   0  0  0  0  0  0  0  0  0  0  0  0
  150.1253  152.9956  132.4801 H   0  0  0  0  0  0  0  0  0  0  0  0
  148.8634  153.3879  131.2541 H   0  0  0  0  0  0  0  0  0  0  0  0
  148.8440  155.5270  132.2750 H   0  0  0  0  0  0  0  0  0  0  0  0
  148.6520  156.8160  131.6970 H   0  0  0  0  0  0  0  0  0  0  0  0
  150.2290  157.5730  132.0970 H   0  0  0  0  0  0  0  0  0  0  0  0
  146.6948  160.7482  133.4301 H   0  0  0  0  0  0  0  0  0  0  0  0
  143.8799  161.1202  133.8183 H   0  0  0  0  0  0  0  0  0  0  0  0
  141.6911  159.8791  133.9020 H   0  0  0  0  0  0  0  0  0  0  0  0
  141.4737  156.1182  133.3677 H   0  0  0  0  0  0  0  0  0  0  0  0
  143.7912  156.1248  133.1829 H   0  0  0  0  0  0  0  0  0  0  0  0
  1  2  1  0
  2  3  1  0
  3  4  1  0
  4  5  1  0
  5  6  1  0
  2  7  1  0
  7  8  2  0
  7  9  1  0
  9 10  1  0
 10 11  1  0
 11 12  1  0
 11 13  2  0
 10 14  2  0
 14 15  1  0
 15 16  2  0
 16 17  1  0
 17 18  2  0
 18 19  1  0
 19 20  1  0
 19 21  1  0
 18 22  1  0
 22 23  2  0
 23  9  1  0
 23 15  1  0
  1 24  1  0
  1 25  1  0
  1 26  1  0
  2 27  1  6
  4 28  1  0
  4 29  1  0
  5 30  1  0
  5 31  1  0
  6 32  1  0
 12 33  1  0
 12 34  1  0
 14 35  1  0
 16 36  1  0
 17 37  1  0
 19 38  1  0
 22 39  1  0
M  END
>  <UniqueID>  (20) 
20

>  <SMILES>  (20) 
C[C@H](OCCO)C(=O)n1c(C(N)=O)cc2ccc(C(F)F)cc21

>  <Energy>  (20) 
74.93834024021446

>  <Genealogy>  (20) 
C[C@H](OCCO)C(=O)n1c(C(N)=O)cc2ccc(C(F)F)cc21 (3D coordinates assigned)
C[C@H](OCCO)C(=O)n1c(C(N)=O)cc2ccc(C(F)F)cc21 (optimized conformer: 74.93834024021446 kcal/mol)

>  <smiles>  (20) 
C[C@H](OCCO)C(=O)n1c(C(N)=O)cc2ccc(C(F)F)cc21

>  <score_type>  (20) 
oracle

>  <origin>  (20) 
adg

>  <m_score__min__energy>  (20) 
-5.3200000000000003

>  <m_primary>  (20) 
energy

$$$$
22:0
     RDKit          3D

 34 35  0  0  0  0  0  0  0  0999 V2000
  141.0340  160.3470  133.8670 N   0  0  0  0  0  0  0  0  0  0  0  0
  141.9090  159.2730  134.2030 C   0  0  0  0  0  0  0  0  0  0  0  0
  142.8710  158.9990  133.4380 O   0  0  0  0  0  0  0  0  0  0  0  0
  141.6930  158.5100  135.4500 C   0  0  0  0  0  0  0  0  0  0  0  0
  141.9490  159.0160  136.7240 C   0  0  0  0  0  0  0  0  0  0  0  0
  141.6640  157.9850  137.5900 C   0  0  0  0  0  0  0  0  0  0  0  0
  141.7360  157.9340  138.9780 C   0  0  0  0  0  0  0  0  0  0  0  0
  141.3580  156.7390  139.6150 C   0  0  0  0  0  0  0  0  0  0  0  0
  140.8940  155.6300  138.8600 C   0  0  0  0  0  0  0  0  0  0  0  0
  140.5290  154.3400  139.5510 C   0  0  0  0  0  0  0  0  0  0  0  0
  139.3160  154.4960  140.1930 F   0  0  0  0  0  0  0  0  0  0  0  0
  141.4930  153.9960  140.4840 F   0  0  0  0  0  0  0  0  0  0  0  0
  140.4270  153.3080  138.6350 F   0  0  0  0  0  0  0  0  0  0  0  0
  140.8570  155.7150  137.4490 C   0  0  0  0  0  0  0  0  0  0  0  0
  141.2550  156.9120  136.8430 C   0  0  0  0  0  0  0  0  0  0  0  0
  141.2740  157.2160  135.5280 N   0  0  0  0  0  0  0  0  0  0  0  0
  140.8610  156.3620  134.4490 C   0  0  0  0  0  0  0  0  0  0  0  0
  141.4720  155.2780  134.2580 O   0  0  0  0  0  0  0  0  0  0  0  0
  139.7170  156.7490  133.5930 C   0  0  0  0  0  0  0  0  0  0  0  0
  139.0890  155.8470  132.9780 O   0  0  0  0  0  0  0  0  0  0  0  0
  139.2860  158.1080  133.4250 N   0  0  0  0  0  0  0  0  0  0  0  0
  138.3630  158.5970  132.4110 C   0  0  0  0  0  0  0  0  0  0  0  0
  139.1410  159.2140  131.2940 C   0  0  0  0  0  0  0  0  0  0  0  0
  140.5640  159.3040  131.3690 N   0  0  0  0  0  0  0  0  0  0  0  0
  138.5420  159.6210  130.2630 O   0  0  0  0  0  0  0  0  0  0  0  0
  140.0360  160.1660  133.6110 H   0  0  0  0  0  0  0  0  0  0  0  0
  142.3034  160.0249  136.9820 H   0  0  0  0  0  0  0  0  0  0  0  0
  142.0784  158.8025  139.5599 H   0  0  0  0  0  0  0  0  0  0  0  0
  141.4225  156.6625  140.7104 H   0  0  0  0  0  0  0  0  0  0  0  0
  140.5233  154.8605  136.8421 H   0  0  0  0  0  0  0  0  0  0  0  0
  137.7647  157.7592  132.0236 H   0  0  0  0  0  0  0  0  0  0  0  0
  137.6927  159.3486  132.8534 H   0  0  0  0  0  0  0  0  0  0  0  0
  141.1080  159.7240  130.5820 H   0  0  0  0  0  0  0  0  0  0  0  0
  141.0750  158.9490  132.2070 H   0  0  0  0  0  0  0  0  0  0  0  0
  1  2  1  0
  2  3  2  0
  2  4  1  0
  4  5  2  0
  5  6  1  0
  6  7  2  0
  7  8  1  0
  8  9  2  0
  9 10  1  0
 10 11  1  0
 10 12  1  0
 10 13  1  0
  9 14  1  0
 14 15  2  0
 15 16  1  0
 16 17  1  0
 17 18  2  0
 17 19  1  0
 19 20  2  0
 19 21  1  0
 21 22  1  0
 22 23  1  0
 23 24  1  0
 23 25  2  0
 16  4  1  0
 15  6  1  0
  1 26  1  0
  5 27  1  0
  7 28  1  0
  8 29  1  0
 14 30  1  0
 22 31  1  0
 22 32  1  0
 24 33  1  0
 24 34  1  0
M  CHG  2   1  -1  21  -1
M  END
>  <UniqueID>  (21) 
21

>  <SMILES>  (21) 
[NH-]C(=O)c1cc2ccc(C(F)(F)F)cc2n1C(=O)C(=O)[N-]CC(N)=O

>  <Energy>  (21) 
71.3952499523332

>  <Genealogy>  (21) 
[NH-]C(=O)c1cc2ccc(C(F)(F)F)cc2n1C(=O)C(=O)[N-]CC(N)=O (protonated)
[NH-]C(=O)c1cc2ccc(C(F)(F)F)cc2n1C(=O)C(=O)[N-]CC(N)=O (3D coordinates assigned)
[NH-]C(=O)c1cc2ccc(C(F)(F)F)cc2n1C(=O)C(=O)[N-]CC(N)=O (optimized conformer: 71.3952499523332 kcal/mol)

>  <smiles>  (21) 
NC(=O)CNC(=O)C(=O)n1c(C(N)=O)cc2ccc(C(F)(F)F)cc21

>  <score_type>  (21) 
oracle

>  <origin>  (21) 
adg

>  <m_score__min__energy>  (21) 
-6.5999999999999996

>  <m_primary>  (21) 
energy

$$$$
23:0
     RDKit          3D

 41 42  0  0  0  0  0  0  0  0999 V2000
  141.1860  159.2560  135.2150 H   0  0  0  0  0  0  0  0  0  0  0  0
  141.9580  159.9540  135.2870 N   0  0  0  0  0  0  0  0  0  0  0  0
  142.6590  160.3970  134.1280 C   0  0  0  0  0  0  0  0  0  0  0  0
  142.1040  161.2170  133.3500 O   0  0  0  0  0  0  0  0  0  0  0  0
  144.0110  159.8890  133.8130 C   0  0  0  0  0  0  0  0  0  0  0  0
  145.1220  160.7120  133.6270 C   0  0  0  0  0  0  0  0  0  0  0  0
  145.1606  161.8084  133.7070 H   0  0  0  0  0  0  0  0  0  0  0  0
  146.1600  159.8600  133.3220 C   0  0  0  0  0  0  0  0  0  0  0  0
  147.4990  160.1350  133.0630 C   0  0  0  0  0  0  0  0  0  0  0  0
  147.8734  161.1693  133.0526 H   0  0  0  0  0  0  0  0  0  0  0  0
  148.3590  159.0510  132.8150 C   0  0  0  0  0  0  0  0  0  0  0  0
  149.4211  159.2379  132.5984 H   0  0  0  0  0  0  0  0  0  0  0  0
  147.8720  157.7180  132.8410 C   0  0  0  0  0  0  0  0  0  0  0  0
  148.7680  156.6100  132.6140 N   0  0  0  0  0  0  0  0  0  0  0  0
  149.5660  156.6310  133.2920 H   0  0  0  0  0  0  0  0  0  0  0  0
  149.1800  156.7070  131.6560 H   0  0  0  0  0  0  0  0  0  0  0  0
  148.0740  155.3130  132.6930 C   0  0  0  0  0  0  0  0  0  0  0  0
  147.5275  155.2644  133.6464 H   0  0  0  0  0  0  0  0  0  0  0  0
  147.3954  155.2475  131.8297 H   0  0  0  0  0  0  0  0  0  0  0  0
  149.0360  154.1170  132.6170 C   0  0  0  0  0  0  0  0  0  0  0  0
  149.0959  153.6362  133.6045 H   0  0  0  0  0  0  0  0  0  0  0  0
  148.6589  153.4013  131.8716 H   0  0  0  0  0  0  0  0  0  0  0  0
  150.3130  154.5440  132.2330 O   0  0  0  0  0  0  0  0  0  0  0  0
  150.7550  153.7560  131.8230 H   0  0  0  0  0  0  0  0  0  0  0  0
  146.5030  157.4810  133.1090 C   0  0  0  0  0  0  0  0  0  0  0  0
  146.1049  156.4561  133.1420 H   0  0  0  0  0  0  0  0  0  0  0  0
  145.6680  158.5810  133.3310 C   0  0  0  0  0  0  0  0  0  0  0  0
  144.3510  158.5830  133.6260 N   0  0  0  0  0  0  0  0  0  0  0  0
  143.5140  157.4300  133.7860 C   0  0  0  0  0  0  0  0  0  0  0  0
  143.7190  156.6540  134.7570 O   0  0  0  0  0  0  0  0  0  0  0  0
  142.4820  157.1280  132.7690 C   0  0  0  0  0  0  0  0  0  0  0  0
  142.8381  156.8653  131.7619 H   0  0  0  0  0  0  0  0  0  0  0  0
  141.1520  157.1440  132.9580 C   0  0  0  0  0  0  0  0  0  0  0  0
  140.5304  156.7328  132.1490 H   0  0  0  0  0  0  0  0  0  0  0  0
  140.4450  157.6590  134.1440 C   0  0  0  0  0  0  0  0  0  0  0  0
  139.5180  158.5080  134.0300 O   0  0  0  0  0  0  0  0  0  0  0  0
  140.7590  157.1250  135.3960 O   0  0  0  0  0  0  0  0  0  0  0  0
  140.2550  157.6670  136.6100 C   0  0  0  0  0  0  0  0  0  0  0  0
  140.7280  157.1583  137.4629 H   0  0  0  0  0  0  0  0  0  0  0  0
  140.4813  158.7426  136.6531 H   0  0  0  0  0  0  0  0  0  0  0  0
  139.1658  157.5194  136.6531 H   0  0  0  0  0  0  0  0  0  0  0  0
  1  2  1  0
  2  3  1  0
  3  4  2  0
  3  5  1  0
  5  6  2  0
  6  7  1  0
  6  8  1  0
  8  9  2  0
  9 10  1  0
  9 11  1  0
 11 12  1  0
 11 13  2  0
 13 14  1  0
 14 15  1  0
 14 16  1  0
 14 17  1  0
 17 18  1  0
 17 19  1  0
 17 20  1  0
 20 21  1  0
 20 22  1  0
 20 23  1  0
 23 24  1  0
 13 25  1  0
 25 26  1  0
 25 27  2  0
 27 28  1  0
 28 29  1  0
 29 30  2  0
 29 31  1  0
 31 32  1  0
 31 33  2  0
 33 34  1  0
 33 35  1  0
 35 36  2  0
 35 37  1  0
 37 38  1  0
 38 39  1  0
 38 40  1  0
 38 41  1  0
 28  5  1  0
 27  8  1  0
M  CHG  2   2  -1  14   1
M  END
>  <UniqueID>  (22) 
22

>  <SMILES>  (22) 
COC(=O)/C=C\C(=O)n1c(C([NH-])=O)cc2ccc([NH2+]CCO)cc21

>  <Energy>  (22) 
84.15510437604992

>  <Genealogy>  (22) 
COC(=O)/C=C\C(=O)n1c(C([NH-])=O)cc2ccc([NH2+]CCO)cc21 (protonated)
COC(=O)/C=C\C(=O)n1c(C([NH-])=O)cc2ccc([NH2+]CCO)cc21 (cis-trans isomerization)
COC(=O)/C=C\C(=O)n1c(C([NH-])=O)cc2ccc([NH2+]CCO)cc21 (3D coordinates assigned)
COC(=O)/C=C\C(=O)n1c(C([NH-])=O)cc2ccc([NH2+]CCO)cc21 (optimized conformer: 84.15510437604992 kcal/mol)

>  <smiles>  (22) 
COC(=O)/C=C\C(=O)n1c(C(N)=O)cc2ccc(NCCO)cc21

>  <score_type>  (22) 
oracle

>  <origin>  (22) 
adg

>  <m_score__min__energy>  (22) 
-6.3700000000000001

>  <m_primary>  (22) 
energy

$$$$
25:0
     RDKit          3D

 39 40  0  0  0  0  0  0  0  0999 V2000
  140.8860  153.5650  133.0580 C   0  0  0  0  0  0  0  0  0  0  0  0
  141.1720  154.8820  133.6470 N   0  0  0  0  0  0  0  0  0  0  0  0
  140.1450  155.8960  133.5910 C   0  0  0  0  0  0  0  0  0  0  0  0
  139.0550  155.6670  133.0000 O   0  0  0  0  0  0  0  0  0  0  0  0
  140.3310  157.1620  134.2380 N   0  0  0  0  0  0  0  0  0  0  0  0
  140.2380  158.4050  133.6930 C   0  0  0  0  0  0  0  0  0  0  0  0
  139.8500  158.7110  132.2990 C   0  0  0  0  0  0  0  0  0  0  0  0
  138.6210  158.2350  131.7580 N   0  0  0  0  0  0  0  0  0  0  0  0
  140.6090  159.4140  131.5800 O   0  0  0  0  0  0  0  0  0  0  0  0
  140.5320  159.3760  134.6500 C   0  0  0  0  0  0  0  0  0  0  0  0
  140.8030  158.6770  135.8070 C   0  0  0  0  0  0  0  0  0  0  0  0
  141.1770  159.1340  137.0670 C   0  0  0  0  0  0  0  0  0  0  0  0
  141.4190  158.1780  138.0690 C   0  0  0  0  0  0  0  0  0  0  0  0
  141.2720  156.7910  137.8020 C   0  0  0  0  0  0  0  0  0  0  0  0
  141.5910  155.7750  138.8680 C   0  0  0  0  0  0  0  0  0  0  0  0
  140.4190  155.1750  139.2900 F   0  0  0  0  0  0  0  0  0  0  0  0
  142.2050  156.3780  139.9510 F   0  0  0  0  0  0  0  0  0  0  0  0
  142.4430  154.8010  138.3740 F   0  0  0  0  0  0  0  0  0  0  0  0
  140.9130  156.3680  136.5000 C   0  0  0  0  0  0  0  0  0  0  0  0
  140.6720  157.3430  135.5290 C   0  0  0  0  0  0  0  0  0  0  0  0
  142.5200  155.2320  134.1430 C   0  0  2  0  0  0  0  0  0  0  0  0
  143.3000  156.0570  133.0930 C   0  0  0  0  0  0  0  0  0  0  0  0
  143.6250  157.4490  133.5460 C   0  0  0  0  0  0  0  0  0  0  0  0
  143.5940  157.7380  134.7720 O   0  0  0  0  0  0  0  0  0  0  0  0
  143.9420  158.4310  132.6170 O   0  0  0  0  0  0  0  0  0  0  0  0
  143.2710  154.0210  134.6490 C   0  0  0  0  0  0  0  0  0  0  0  0
  144.4750  153.8270  134.3340 O   0  0  0  0  0  0  0  0  0  0  0  0
  142.6660  153.1640  135.5610 O   0  0  0  0  0  0  0  0  0  0  0  0
  140.7266  152.8308  133.8615 H   0  0  0  0  0  0  0  0  0  0  0  0
  139.9811  153.6302  132.4360 H   0  0  0  0  0  0  0  0  0  0  0  0
  141.7365  153.2490  132.4360 H   0  0  0  0  0  0  0  0  0  0  0  0
  138.1090  157.4400  132.2010 H   0  0  0  0  0  0  0  0  0  0  0  0
  140.5449  160.4671  134.5112 H   0  0  0  0  0  0  0  0  0  0  0  0
  141.2801  160.2097  137.2726 H   0  0  0  0  0  0  0  0  0  0  0  0
  141.7260  158.5085  139.0723 H   0  0  0  0  0  0  0  0  0  0  0  0
  140.8259  155.2983  136.2587 H   0  0  0  0  0  0  0  0  0  0  0  0
  142.4047  155.8836  135.0217 H   0  0  0  0  0  0  0  0  0  0  0  0
  144.2421  155.5348  132.8699 H   0  0  0  0  0  0  0  0  0  0  0  0
  142.6532  156.1479  132.2079 H   0  0  0  0  0  0  0  0  0  0  0  0
  1  2  1  0
  2  3  1  0
  3  4  2  0
  3  5  1  0
  5  6  1  0
  6  7  1  0
  7  8  1  0
  7  9  2  0
  6 10  2  0
 10 11  1  0
 11 12  2  0
 12 13  1  0
 13 14  2  0
 14 15  1  0
 15 16  1  0
 15 17  1  0
 15 18  1  0
 14 19  1  0
 19 20  2  0
  2 21  1  0
 21 22  1  0
 22 23  1  0
 23 24  2  0
 23 25  1  0
 21 26  1  0
 26 27  2  0
 26 28  1  0
 20  5  1  0
 20 11  1  0
  1 29  1  0
  1 30  1  0
  1 31  1  0
  8 32  1  0
 10 33  1  0
 12 34  1  0
 13 35  1  0
 19 36  1  0
 21 37  1  1
 22 38  1  0
 22 39  1  0
M  CHG  3   8  -1  25  -1  28  -1
M  END
>  <UniqueID>  (23) 
23

>  <SMILES>  (23) 
CN(C(=O)n1c(C([NH-])=O)cc2ccc(C(F)(F)F)cc21)[C@H](CC(=O)[O-])C(=O)[O-]

>  <Energy>  (23) 
79.2746408136947

>  <Genealogy>  (23) 
CN(C(=O)n1c(C([NH-])=O)cc2ccc(C(F)(F)F)cc21)C(CC(=O)[O-])C(=O)[O-] (protonated)
CN(C(=O)n1c(C([NH-])=O)cc2ccc(C(F)(F)F)cc21)[C@H](CC(=O)[O-])C(=O)[O-] (chirality)
CN(C(=O)n1c(C([NH-])=O)cc2ccc(C(F)(F)F)cc21)[C@H](CC(=O)[O-])C(=O)[O-] (3D coordinates assigned)
CN(C(=O)n1c(C([NH-])=O)cc2ccc(C(F)(F)F)cc21)[C@H](CC(=O)[O-])C(=O)[O-] (optimized conformer: 79.2746408136947 kcal/mol)

>  <smiles>  (23) 
CN(C(=O)n1c(C(N)=O)cc2ccc(C(F)(F)F)cc21)C(CC(=O)O)C(=O)O

>  <score_type>  (23) 
oracle

>  <origin>  (23) 
adg

>  <m_score__min__energy>  (23) 
-6.4500000000000002

>  <m_primary>  (23) 
energy

$$$$
26:0
     RDKit          3D

 44 45  0  0  0  0  0  0  0  0999 V2000
  145.7730  151.7060  131.8860 N   0  0  0  0  0  0  0  0  0  0  0  0
  144.9150  152.6070  132.5900 C   0  0  0  0  0  0  0  0  0  0  0  0
  143.7860  152.2030  132.9760 O   0  0  0  0  0  0  0  0  0  0  0  0
  145.3550  153.9860  132.8940 C   0  0  0  0  0  0  0  0  0  0  0  0
  144.5090  155.0950  132.8830 C   0  0  0  0  0  0  0  0  0  0  0  0
  145.3230  156.1770  133.1310 C   0  0  0  0  0  0  0  0  0  0  0  0
  145.0040  157.5260  133.2540 C   0  0  0  0  0  0  0  0  0  0  0  0
  146.0430  158.4230  133.5540 C   0  0  0  0  0  0  0  0  0  0  0  0
  147.3720  157.9600  133.7220 C   0  0  0  0  0  0  0  0  0  0  0  0
  148.4650  158.9230  134.0940 C   0  0  0  0  0  0  0  0  0  0  0  0
  148.8640  159.7760  132.8830 C   0  0  0  0  0  0  0  0  0  0  0  0
  149.6160  158.9530  131.8330 C   0  0  0  0  0  0  0  0  0  0  0  0
  148.7540  158.5410  130.8070 O   0  0  0  0  0  0  0  0  0  0  0  0
  147.6550  156.5810  133.5990 C   0  0  0  0  0  0  0  0  0  0  0  0
  146.6040  155.7130  133.2820 C   0  0  0  0  0  0  0  0  0  0  0  0
  146.6400  154.3700  133.1370 N   0  0  0  0  0  0  0  0  0  0  0  0
  147.7860  153.5210  133.3080 C   0  0  0  0  0  0  0  0  0  0  0  0
  148.1300  153.1540  134.4660 O   0  0  0  0  0  0  0  0  0  0  0  0
  148.5060  153.0940  132.1870 O   0  0  0  0  0  0  0  0  0  0  0  0
  149.8570  152.6320  132.2390 C   0  0  0  0  0  0  0  0  0  0  0  0
  149.9480  151.2080  132.8160 C   0  0  1  0  0  0  0  0  0  0  0  0
  149.8080  151.2200  134.2160 O   0  0  0  0  0  0  0  0  0  0  0  0
  148.9350  150.2550  132.1530 C   0  0  0  0  0  0  0  0  0  0  0  0
  147.6550  150.4500  132.6930 O   0  0  0  0  0  0  0  0  0  0  0  0
  146.6910  152.0190  131.5010 H   0  0  0  0  0  0  0  0  0  0  0  0
  145.4680  150.7230  131.7090 H   0  0  0  0  0  0  0  0  0  0  0  0
  143.4223  155.1032  132.7124 H   0  0  0  0  0  0  0  0  0  0  0  0
  143.9708  157.8790  133.1205 H   0  0  0  0  0  0  0  0  0  0  0  0
  145.8227  159.4955  133.6596 H   0  0  0  0  0  0  0  0  0  0  0  0
  148.1084  159.5820  134.8993 H   0  0  0  0  0  0  0  0  0  0  0  0
  149.3425  158.3522  134.4320 H   0  0  0  0  0  0  0  0  0  0  0  0
  147.9546  160.1924  132.4252 H   0  0  0  0  0  0  0  0  0  0  0  0
  149.5316  160.5771  133.2331 H   0  0  0  0  0  0  0  0  0  0  0  0
  150.4202  159.5676  131.4023 H   0  0  0  0  0  0  0  0  0  0  0  0
  150.0334  158.0596  132.3205 H   0  0  0  0  0  0  0  0  0  0  0  0
  148.7320  157.5490  130.8350 H   0  0  0  0  0  0  0  0  0  0  0  0
  148.6758  156.1994  133.7487 H   0  0  0  0  0  0  0  0  0  0  0  0
  150.2734  152.6317  131.2209 H   0  0  0  0  0  0  0  0  0  0  0  0
  150.4257  153.3062  132.8964 H   0  0  0  0  0  0  0  0  0  0  0  0
  150.9508  150.8207  132.5828 H   0  0  0  0  0  0  0  0  0  0  0  0
  148.8440  151.1160  134.4280 H   0  0  0  0  0  0  0  0  0  0  0  0
  148.9060  150.4523  131.0712 H   0  0  0  0  0  0  0  0  0  0  0  0
  149.2468  149.2167  132.3394 H   0  0  0  0  0  0  0  0  0  0  0  0
  147.7180  151.2370  133.2950 H   0  0  0  0  0  0  0  0  0  0  0  0
  1  2  1  0
  2  3  2  0
  2  4  1  0
  4  5  2  0
  5  6  1  0
  6  7  2  0
  7  8  1  0
  8  9  2  0
  9 10  1  0
 10 11  1  0
 11 12  1  0
 12 13  1  0
  9 14  1  0
 14 15  2  0
 15 16  1  0
 16 17  1  0
 17 18  2  0
 17 19  1  0
 19 20  1  0
 20 21  1  0
 21 22  1  0
 21 23  1  0
 23 24  1  0
 16  4  1  0
 15  6  1  0
  1 25  1  0
  1 26  1  0
  5 27  1  0
  7 28  1  0
  8 29  1  0
 10 30  1  0
 10 31  1  0
 11 32  1  0
 11 33  1  0
 12 34  1  0
 12 35  1  0
 13 36  1  0
 14 37  1  0
 20 38  1  0
 20 39  1  0
 21 40  1  1
 22 41  1  0
 23 42  1  0
 23 43  1  0
 24 44  1  0
M  END
>  <UniqueID>  (24) 
24

>  <SMILES>  (24) 
NC(=O)c1cc2ccc(CCCO)cc2n1C(=O)OC[C@@H](O)CO

>  <Energy>  (24) 
74.31562572140044

>  <Genealogy>  (24) 
NC(=O)c1cc2ccc(CCCO)cc2n1C(=O)OC[C@@H](O)CO (chirality)
NC(=O)c1cc2ccc(CCCO)cc2n1C(=O)OC[C@@H](O)CO (3D coordinates assigned)
NC(=O)c1cc2ccc(CCCO)cc2n1C(=O)OC[C@@H](O)CO (optimized conformer: 74.31562572140044 kcal/mol)

>  <smiles>  (24) 
NC(=O)c1cc2ccc(CCCO)cc2n1C(=O)OCC(O)CO

>  <score_type>  (24) 
oracle

>  <origin>  (24) 
adg

>  <m_score__min__energy>  (24) 
-6.3399999999999999

>  <m_primary>  (24) 
energy

$$$$
27:0
     RDKit          3D

 38 39  0  0  0  0  0  0  0  0999 V2000
  148.8200  157.3860  133.3430 N   0  0  0  0  0  0  0  0  0  0  0  0
  148.3000  158.7130  133.2410 C   0  0  0  0  0  0  0  0  0  0  0  0
  149.0830  159.6580  132.9590 O   0  0  0  0  0  0  0  0  0  0  0  0
  146.8680  158.9830  133.4980 C   0  0  0  0  0  0  0  0  0  0  0  0
  146.3030  160.2580  133.4720 C   0  0  0  0  0  0  0  0  0  0  0  0
  144.9540  160.0640  133.6620 C   0  0  0  0  0  0  0  0  0  0  0  0
  143.9190  160.9910  133.7240 C   0  0  0  0  0  0  0  0  0  0  0  0
  142.6170  160.5110  133.9490 C   0  0  0  0  0  0  0  0  0  0  0  0
  142.3800  159.1250  134.1230 C   0  0  0  0  0  0  0  0  0  0  0  0
  140.9820  158.6210  134.3410 C   0  0  0  0  0  0  0  0  0  0  0  0
  140.5970  158.5850  136.1180 P   0  0  0  0  0  0  0  0  0  0  0  0
  140.6090  159.9920  136.6720 O   0  0  0  0  0  0  0  0  0  0  0  0
  139.0700  157.8990  136.3570 O   0  0  0  0  0  0  0  0  0  0  0  0
  141.7590  157.6570  136.9230 O   0  0  0  0  0  0  0  0  0  0  0  0
  143.4560  158.2130  134.0430 C   0  0  0  0  0  0  0  0  0  0  0  0
  144.7380  158.7170  133.7970 C   0  0  0  0  0  0  0  0  0  0  0  0
  145.9040  158.0390  133.6960 N   0  0  0  0  0  0  0  0  0  0  0  0
  146.0800  156.6180  133.8310 C   0  0  0  0  0  0  0  0  0  0  0  0
  145.8510  156.0580  134.9370 O   0  0  0  0  0  0  0  0  0  0  0  0
  146.4820  155.8610  132.7240 O   0  0  0  0  0  0  0  0  0  0  0  0
  146.5300  154.4340  132.7090 C   0  0  0  0  0  0  0  0  0  0  0  0
  147.7700  153.9200  133.4470 C   0  0  2  0  0  0  0  0  0  0  0  0
  147.9310  154.6480  134.6360 O   0  0  0  0  0  0  0  0  0  0  0  0
  149.0020  154.0640  132.5990 C   0  0  0  0  0  0  0  0  0  0  0  0
  149.6150  155.1630  132.5560 O   0  0  0  0  0  0  0  0  0  0  0  0
  149.4810  152.9810  131.8720 O   0  0  0  0  0  0  0  0  0  0  0  0
  148.1960  156.5700  133.5190 H   0  0  0  0  0  0  0  0  0  0  0  0
  149.8400  157.2120  133.1990 H   0  0  0  0  0  0  0  0  0  0  0  0
  146.8251  161.2157  133.3298 H   0  0  0  0  0  0  0  0  0  0  0  0
  144.1133  162.0667  133.6008 H   0  0  0  0  0  0  0  0  0  0  0  0
  141.7749  161.2176  133.9903 H   0  0  0  0  0  0  0  0  0  0  0  0
  140.2718  159.2868  133.8288 H   0  0  0  0  0  0  0  0  0  0  0  0
  140.9007  157.6017  133.9355 H   0  0  0  0  0  0  0  0  0  0  0  0
  143.2901  157.1331  134.1710 H   0  0  0  0  0  0  0  0  0  0  0  0
  145.6289  154.0383  133.2004 H   0  0  0  0  0  0  0  0  0  0  0  0
  146.5782  154.0954  131.6635 H   0  0  0  0  0  0  0  0  0  0  0  0
  147.6293  152.8522  133.6706 H   0  0  0  0  0  0  0  0  0  0  0  0
  147.9100  155.6090  134.3880 H   0  0  0  0  0  0  0  0  0  0  0  0
  1  2  1  0
  2  3  2  0
  2  4  1  0
  4  5  2  0
  5  6  1  0
  6  7  2  0
  7  8  1  0
  8  9  2  0
  9 10  1  0
 10 11  1  0
 11 12  2  0
 11 13  1  0
 11 14  1  0
  9 15  1  0
 15 16  2  0
 16 17  1  0
 17 18  1  0
 18 19  2  0
 18 20  1  0
 20 21  1  0
 21 22  1  0
 22 23  1  0
 22 24  1  0
 24 25  2  0
 24 26  1  0
 17  4  1  0
 16  6  1  0
  1 27  1  0
  1 28  1  0
  5 29  1  0
  7 30  1  0
  8 31  1  0
 10 32  1  0
 10 33  1  0
 15 34  1  0
 21 35  1  0
 21 36  1  0
 22 37  1  1
 23 38  1  0
M  CHG  3  13  -1  14  -1  26  -1
M  END
>  <UniqueID>  (25) 
25

>  <SMILES>  (25) 
NC(=O)c1cc2ccc(CP(=O)([O-])[O-])cc2n1C(=O)OC[C@H](O)C(=O)[O-]

>  <Energy>  (25) 
68.96699858828167

>  <Genealogy>  (25) 
NC(=O)c1cc2ccc(CP(=O)([O-])[O-])cc2n1C(=O)OCC(O)C(=O)[O-] (protonated)
NC(=O)c1cc2ccc(CP(=O)([O-])[O-])cc2n1C(=O)OC[C@H](O)C(=O)[O-] (chirality)
NC(=O)c1cc2ccc(CP(=O)([O-])[O-])cc2n1C(=O)OC[C@H](O)C(=O)[O-] (3D coordinates assigned)
NC(=O)c1cc2ccc(CP(=O)([O-])[O-])cc2n1C(=O)OC[C@H](O)C(=O)[O-] (optimized conformer: 68.96699858828167 kcal/mol)

>  <smiles>  (25) 
NC(=O)c1cc2ccc(CP(=O)(O)O)cc2n1C(=O)OCC(O)C(=O)O

>  <score_type>  (25) 
oracle

>  <origin>  (25) 
adg

>  <m_score__min__energy>  (25) 
-7.1699999999999999

>  <m_primary>  (25) 
energy

$$$$
28:0
     RDKit          3D

 40 42  0  0  0  0  0  0  0  0999 V2000
  141.7390  155.9450  132.6090 H   0  0  0  0  0  0  0  0  0  0  0  0
  141.2810  156.4630  133.3920 N   0  0  0  0  0  0  0  0  0  0  0  0
  142.0500  157.2450  134.3010 C   0  0  0  0  0  0  0  0  0  0  0  0
  141.5210  157.6420  135.3740 O   0  0  0  0  0  0  0  0  0  0  0  0
  143.4440  157.6290  133.9880 C   0  0  0  0  0  0  0  0  0  0  0  0
  143.8920  158.9490  133.9640 C   0  0  0  0  0  0  0  0  0  0  0  0
  143.3149  159.8535  134.2065 H   0  0  0  0  0  0  0  0  0  0  0  0
  145.2110  158.8800  133.5720 C   0  0  0  0  0  0  0  0  0  0  0  0
  146.1450  159.8940  133.3860 C   0  0  0  0  0  0  0  0  0  0  0  0
  145.8737  160.9491  133.5382 H   0  0  0  0  0  0  0  0  0  0  0  0
  147.4450  159.5300  132.9980 C   0  0  0  0  0  0  0  0  0  0  0  0
  148.2018  160.3105  132.8304 H   0  0  0  0  0  0  0  0  0  0  0  0
  147.7920  158.1650  132.8200 C   0  0  0  0  0  0  0  0  0  0  0  0
  149.1220  157.8030  132.4000 N   0  0  0  0  0  0  0  0  0  0  0  0
  149.6550  157.4060  133.2100 H   0  0  0  0  0  0  0  0  0  0  0  0
  149.0680  157.0660  131.6580 H   0  0  0  0  0  0  0  0  0  0  0  0
  149.8220  158.9820  131.8750 C   0  0  0  0  0  0  0  0  0  0  0  0
  149.6830  159.8251  132.5677 H   0  0  0  0  0  0  0  0  0  0  0  0
  150.8924  158.7484  131.7762 H   0  0  0  0  0  0  0  0  0  0  0  0
  149.2640  159.3620  130.4960 C   0  0  0  0  0  0  0  0  0  0  0  0
  148.6321  158.4681  130.3885 H   0  0  0  0  0  0  0  0  0  0  0  0
  150.2270  160.1190  129.5950 C   0  0  0  0  0  0  0  0  0  0  0  0
  151.2586  160.3068  129.9274 H   0  0  0  0  0  0  0  0  0  0  0  0
  150.5819  159.9985  128.5608 H   0  0  0  0  0  0  0  0  0  0  0  0
  149.0700  160.8520  130.2560 C   0  0  0  0  0  0  0  0  0  0  0  0
  149.2647  161.5697  131.0666 H   0  0  0  0  0  0  0  0  0  0  0  0
  148.2415  161.4810  129.8983 H   0  0  0  0  0  0  0  0  0  0  0  0
  146.8120  157.1650  133.0130 C   0  0  0  0  0  0  0  0  0  0  0  0
  147.0597  156.1014  132.8808 H   0  0  0  0  0  0  0  0  0  0  0  0
  145.5200  157.5590  133.3760 C   0  0  0  0  0  0  0  0  0  0  0  0
  144.4460  156.7790  133.6240 N   0  0  0  0  0  0  0  0  0  0  0  0
  144.4090  155.3430  133.5840 C   0  0  0  0  0  0  0  0  0  0  0  0
  143.5240  154.7640  132.8970 O   0  0  0  0  0  0  0  0  0  0  0  0
  145.4030  154.5600  134.3430 C   0  0  0  0  0  0  0  0  0  0  0  0
  145.6822  153.5609  133.9771 H   0  0  0  0  0  0  0  0  0  0  0  0
  145.9770  155.0210  135.4600 C   0  0  0  0  0  0  0  0  0  0  0  0
  145.6947  156.0179  135.8293 H   0  0  0  0  0  0  0  0  0  0  0  0
  146.9730  154.2410  136.2120 C   0  0  0  0  0  0  0  0  0  0  0  0
  148.1540  154.6580  136.3570 O   0  0  0  0  0  0  0  0  0  0  0  0
  146.6060  153.0250  136.7730 O   0  0  0  0  0  0  0  0  0  0  0  0
  1  2  1  0
  2  3  1  0
  3  4  2  0
  3  5  1  0
  5  6  2  0
  6  7  1  0
  6  8  1  0
  8  9  2  0
  9 10  1  0
  9 11  1  0
 11 12  1  0
 11 13  2  0
 13 14  1  0
 14 15  1  0
 14 16  1  0
 14 17  1  0
 17 18  1  0
 17 19  1  0
 17 20  1  0
 20 21  1  0
 20 22  1  0
 22 23  1  0
 22 24  1  0
 22 25  1  0
 25 26  1  0
 25 27  1  0
 13 28  1  0
 28 29  1  0
 28 30  2  0
 30 31  1  0
 31 32  1  0
 32 33  2  0
 32 34  1  0
 34 35  1  0
 34 36  2  0
 36 37  1  0
 36 38  1  0
 38 39  2  0
 38 40  1  0
 31  5  1  0
 30  8  1  0
 25 20  1  0
M  CHG  3   2  -1  14   1  40  -1
M  END
>  <UniqueID>  (26) 
26

>  <SMILES>  (26) 
[NH-]C(=O)c1cc2ccc([NH2+]CC3CC3)cc2n1C(=O)/C=C/C(=O)[O-]

>  <Energy>  (26) 
342.0369940403187

>  <Genealogy>  (26) 
[NH-]C(=O)c1cc2ccc([NH2+]CC3CC3)cc2n1C(=O)/C=C/C(=O)[O-] (protonated)
[NH-]C(=O)c1cc2ccc([NH2+]CC3CC3)cc2n1C(=O)/C=C/C(=O)[O-] (cis-trans isomerization)
[NH-]C(=O)c1cc2ccc([NH2+]CC3CC3)cc2n1C(=O)/C=C/C(=O)[O-] (3D coordinates assigned)
[NH-]C(=O)c1cc2ccc([NH2+]CC3CC3)cc2n1C(=O)/C=C/C(=O)[O-] (nonaromatic ring conformer: 342.0369940403187 kcal/mol)

>  <smiles>  (26) 
NC(=O)c1cc2ccc(NCC3CC3)cc2n1C(=O)/C=C/C(=O)O

>  <score_type>  (26) 
oracle

>  <origin>  (26) 
adg

>  <m_score__min__energy>  (26) 
-8.0999999999999996

>  <m_primary>  (26) 
energy

$$$$
29:0
     RDKit          3D

 48 49  0  0  0  0  0  0  0  0999 V2000
  140.9470  157.5170  134.9500 N   0  0  0  0  0  0  0  0  0  0  0  0
  141.3060  157.6030  136.3260 C   0  0  0  0  0  0  0  0  0  0  0  0
  141.8370  158.6600  136.7640 O   0  0  0  0  0  0  0  0  0  0  0  0
  141.1230  156.4570  137.2360 C   0  0  0  0  0  0  0  0  0  0  0  0
  140.6590  156.5780  138.5430 C   0  0  0  0  0  0  0  0  0  0  0  0
  140.6900  155.3020  139.0620 C   0  0  0  0  0  0  0  0  0  0  0  0
  140.2910  154.8310  140.3080 C   0  0  0  0  0  0  0  0  0  0  0  0
  140.3650  153.4480  140.5450 C   0  0  0  0  0  0  0  0  0  0  0  0
  140.8570  152.5670  139.5460 C   0  0  0  0  0  0  0  0  0  0  0  0
  140.8880  151.0770  139.7790 C   0  0  0  0  0  0  0  0  0  0  0  0
  140.5610  150.7660  141.0910 F   0  0  0  0  0  0  0  0  0  0  0  0
  139.9840  150.4650  138.9340 F   0  0  0  0  0  0  0  0  0  0  0  0
  142.1570  150.5830  139.5240 F   0  0  0  0  0  0  0  0  0  0  0  0
  141.2440  153.0850  138.2910 C   0  0  0  0  0  0  0  0  0  0  0  0
  141.1580  154.4670  138.0840 C   0  0  0  0  0  0  0  0  0  0  0  0
  141.4160  155.1590  136.9510 N   0  0  0  0  0  0  0  0  0  0  0  0
  141.7420  154.5770  135.6750 C   0  0  0  0  0  0  0  0  0  0  0  0
  141.2450  155.0680  134.6260 O   0  0  0  0  0  0  0  0  0  0  0  0
  142.6810  153.4040  135.5540 C   0  0  0  0  0  0  0  0  0  0  0  0
  144.0770  153.8060  135.7010 N   0  0  0  0  0  0  0  0  0  0  0  0
  144.7660  154.6790  134.8000 C   0  0  0  0  0  0  0  0  0  0  0  0
  145.6760  155.4420  135.2220 O   0  0  0  0  0  0  0  0  0  0  0  0
  144.4430  154.6260  133.3380 C   0  0  0  0  0  0  0  0  0  0  0  0
  144.6140  155.9790  132.6370 C   0  0  0  0  0  0  0  0  0  0  0  0
  143.5350  157.2430  133.3000 S   0  0  0  0  0  0  0  0  0  0  0  0
  142.1200  156.9430  132.8870 O   0  0  0  0  0  0  0  0  0  0  0  0
  143.6240  157.2500  134.8050 O   0  0  0  0  0  0  0  0  0  0  0  0
  144.0030  158.7320  132.6300 O   0  0  0  0  0  0  0  0  0  0  0  0
  143.7290  159.7610  133.5440 C   0  0  0  0  0  0  0  0  0  0  0  0
  142.2440  159.9080  133.6730 C   0  0  0  0  0  0  0  0  0  0  0  0
  141.7560  160.4870  134.6820 O   0  0  0  0  0  0  0  0  0  0  0  0
  141.3780  159.3710  132.6700 N   0  0  0  0  0  0  0  0  0  0  0  0
  140.0370  159.5060  132.7770 O   0  0  0  0  0  0  0  0  0  0  0  0
  141.0320  158.3480  134.3280 H   0  0  0  0  0  0  0  0  0  0  0  0
  140.6760  156.6040  134.5210 H   0  0  0  0  0  0  0  0  0  0  0  0
  140.3361  157.4974  139.0532 H   0  0  0  0  0  0  0  0  0  0  0  0
  139.9284  155.5203  141.0847 H   0  0  0  0  0  0  0  0  0  0  0  0
  140.0384  153.0436  141.5144 H   0  0  0  0  0  0  0  0  0  0  0  0
  141.6048  152.4181  137.4941 H   0  0  0  0  0  0  0  0  0  0  0  0
  142.4376  152.6714  136.3376 H   0  0  0  0  0  0  0  0  0  0  0  0
  142.5555  152.9691  134.5514 H   0  0  0  0  0  0  0  0  0  0  0  0
  145.1107  153.8956  132.8578 H   0  0  0  0  0  0  0  0  0  0  0  0
  143.3852  154.3387  133.2450 H   0  0  0  0  0  0  0  0  0  0  0  0
  145.6567  156.3081  132.7573 H   0  0  0  0  0  0  0  0  0  0  0  0
  144.3503  155.8397  131.5782 H   0  0  0  0  0  0  0  0  0  0  0  0
  144.1624  159.5107  134.5236 H   0  0  0  0  0  0  0  0  0  0  0  0
  144.1689  160.7044  133.1882 H   0  0  0  0  0  0  0  0  0  0  0  0
  141.7730  158.8560  131.8600 H   0  0  0  0  0  0  0  0  0  0  0  0
  1  2  1  0
  2  3  2  0
  2  4  1  0
  4  5  2  0
  5  6  1  0
  6  7  2  0
  7  8  1  0
  8  9  2  0
  9 10  1  0
 10 11  1  0
 10 12  1  0
 10 13  1  0
  9 14  1  0
 14 15  2  0
 15 16  1  0
 16 17  1  0
 17 18  2  0
 17 19  1  0
 19 20  1  0
 20 21  1  0
 21 22  2  0
 21 23  1  0
 23 24  1  0
 24 25  1  0
 25 26  2  0
 25 27  2  0
 25 28  1  0
 28 29  1  0
 29 30  1  0
 30 31  2  0
 30 32  1  0
 32 33  1  0
 16  4  1  0
 15  6  1  0
  1 34  1  0
  1 35  1  0
  5 36  1  0
  7 37  1  0
  8 38  1  0
 14 39  1  0
 19 40  1  0
 19 41  1  0
 23 42  1  0
 23 43  1  0
 24 44  1  0
 24 45  1  0
 29 46  1  0
 29 47  1  0
 32 48  1  0
M  CHG  2  20  -1  33  -1
M  END
>  <UniqueID>  (27) 
27

>  <SMILES>  (27) 
NC(=O)c1cc2ccc(C(F)(F)F)cc2n1C(=O)C[N-]C(=O)CCS(=O)(=O)OCC(=O)N[O-]

>  <Energy>  (27) 
78.60120430684458

>  <Genealogy>  (27) 
NC(=O)c1cc2ccc(C(F)(F)F)cc2n1C(=O)C[N-]C(=O)CCS(=O)(=O)OCC(=O)N[O-] (protonated)
NC(=O)c1cc2ccc(C(F)(F)F)cc2n1C(=O)C[N-]C(=O)CCS(=O)(=O)OCC(=O)N[O-] (3D coordinates assigned)
NC(=O)c1cc2ccc(C(F)(F)F)cc2n1C(=O)C[N-]C(=O)CCS(=O)(=O)OCC(=O)N[O-] (optimized conformer: 78.60120430684458 kcal/mol)

>  <smiles>  (27) 
NC(=O)c1cc2ccc(C(F)(F)F)cc2n1C(=O)CNC(=O)CCS(=O)(=O)OCC(=O)NO

>  <score_type>  (27) 
oracle

>  <origin>  (27) 
adg

>  <m_score__min__energy>  (27) 
-6.9199999999999999

>  <m_primary>  (27) 
energy

$$$$
30:0
     RDKit          3D

 45 47  0  0  0  0  0  0  0  0999 V2000
  145.8190  154.9200  135.7800 N   0  0  0  0  0  0  0  0  0  0  0  0
  145.0280  154.9880  134.5960 C   0  0  0  0  0  0  0  0  0  0  0  0
  145.0470  156.0410  133.9030 O   0  0  0  0  0  0  0  0  0  0  0  0
  144.2220  153.8320  134.1500 C   0  0  0  0  0  0  0  0  0  0  0  0
  144.6850  152.8720  133.2530 C   0  0  0  0  0  0  0  0  0  0  0  0
  143.6730  151.9440  133.1560 C   0  0  0  0  0  0  0  0  0  0  0  0
  143.5930  150.7820  132.3990 C   0  0  0  0  0  0  0  0  0  0  0  0
  142.4150  150.0220  132.4810 C   0  0  0  0  0  0  0  0  0  0  0  0
  141.3310  150.4330  133.3000 C   0  0  0  0  0  0  0  0  0  0  0  0
  140.1510  149.6000  133.3520 N   0  0  0  0  0  0  0  0  0  0  0  0
  139.4560  148.9590  132.2250 C   0  0  0  0  0  0  0  0  0  0  0  0
  140.3760  147.9890  131.4610 C   0  0  0  0  0  0  0  0  0  0  0  0
  139.6370  147.3070  130.2870 C   0  0  0  0  0  0  0  0  0  0  0  0
  138.5430  148.1140  129.7090 N   0  0  0  0  0  0  0  0  0  0  0  0
  138.7790  149.5580  129.8350 C   0  0  0  0  0  0  0  0  0  0  0  0
  138.7530  149.9910  131.3100 C   0  0  0  0  0  0  0  0  0  0  0  0
  141.4550  151.6310  134.0500 C   0  0  0  0  0  0  0  0  0  0  0  0
  142.6500  152.3540  133.9680 C   0  0  0  0  0  0  0  0  0  0  0  0
  142.9730  153.5100  134.5900 N   0  0  0  0  0  0  0  0  0  0  0  0
  142.1260  154.2800  135.4590 C   0  0  0  0  0  0  0  0  0  0  0  0
  141.4520  155.2360  134.9880 O   0  0  0  0  0  0  0  0  0  0  0  0
  142.0150  153.9520  136.9150 C   0  0  0  0  0  0  0  0  0  0  0  0
  142.4930  152.6480  137.1340 O   0  0  0  0  0  0  0  0  0  0  0  0
  141.2500  151.7440  137.8710 P   0  0  0  0  0  0  0  0  0  0  0  0
  140.2120  152.6940  138.4250 O   0  0  0  0  0  0  0  0  0  0  0  0
  140.5160  150.7270  136.7340 O   0  0  0  0  0  0  0  0  0  0  0  0
  141.8780  150.8130  139.1360 O   0  0  0  0  0  0  0  0  0  0  0  0
  145.4280  155.2050  136.7050 H   0  0  0  0  0  0  0  0  0  0  0  0
  145.6540  152.8584  132.7325 H   0  0  0  0  0  0  0  0  0  0  0  0
  144.4271  150.4667  131.7549 H   0  0  0  0  0  0  0  0  0  0  0  0
  142.3308  149.0916  131.9002 H   0  0  0  0  0  0  0  0  0  0  0  0
  139.7570  149.3960  134.2990 H   0  0  0  0  0  0  0  0  0  0  0  0
  138.6495  148.3403  132.6455 H   0  0  0  0  0  0  0  0  0  0  0  0
  141.2349  148.5500  131.0641 H   0  0  0  0  0  0  0  0  0  0  0  0
  140.7061  147.2064  132.1600 H   0  0  0  0  0  0  0  0  0  0  0  0
  140.3691  147.0993  129.4927 H   0  0  0  0  0  0  0  0  0  0  0  0
  139.1761  146.3938  130.6916 H   0  0  0  0  0  0  0  0  0  0  0  0
  137.6480  147.8770  130.2010 H   0  0  0  0  0  0  0  0  0  0  0  0
  139.7620  149.8012  129.4055 H   0  0  0  0  0  0  0  0  0  0  0  0
  137.9821  150.0928  129.2974 H   0  0  0  0  0  0  0  0  0  0  0  0
  139.2659  150.9594  131.4058 H   0  0  0  0  0  0  0  0  0  0  0  0
  137.7019  150.0672  131.6253 H   0  0  0  0  0  0  0  0  0  0  0  0
  140.6280  151.9843  134.6834 H   0  0  0  0  0  0  0  0  0  0  0  0
  142.6137  154.6661  137.4995 H   0  0  0  0  0  0  0  0  0  0  0  0
  140.9627  154.0169  137.2287 H   0  0  0  0  0  0  0  0  0  0  0  0
  1  2  1  0
  2  3  2  0
  2  4  1  0
  4  5  2  0
  5  6  1  0
  6  7  2  0
  7  8  1  0
  8  9  2  0
  9 10  1  0
 10 11  1  0
 11 12  1  0
 12 13  1  0
 13 14  1  0
 14 15  1  0
 15 16  1  0
  9 17  1  0
 17 18  2  0
 18 19  1  0
 19 20  1  0
 20 21  2  0
 20 22  1  0
 22 23  1  0
 23 24  1  0
 24 25  2  0
 24 26  1  0
 24 27  1  0
 19  4  1  0
 18  6  1  0
 16 11  1  0
  1 28  1  0
  5 29  1  0
  7 30  1  0
  8 31  1  0
 10 32  1  0
 11 33  1  0
 12 34  1  0
 12 35  1  0
 13 36  1  0
 13 37  1  0
 14 38  1  0
 15 39  1  0
 15 40  1  0
 16 41  1  0
 16 42  1  0
 17 43  1  0
 22 44  1  0
 22 45  1  0
M  CHG  3   1  -1  26  -1  27  -1
M  END
>  <UniqueID>  (28) 
28

>  <SMILES>  (28) 
[NH-]C(=O)c1cc2ccc(NC3CCNCC3)cc2n1C(=O)COP(=O)([O-])[O-]

>  <Energy>  (28) 
90.27715981731416

>  <Genealogy>  (28) 
[NH-]C(=O)c1cc2ccc(NC3CCNCC3)cc2n1C(=O)COP(=O)([O-])[O-] (protonated)
[NH-]C(=O)c1cc2ccc(NC3CCNCC3)cc2n1C(=O)COP(=O)([O-])[O-] (3D coordinates assigned)
[NH-]C(=O)c1cc2ccc(NC3CCNCC3)cc2n1C(=O)COP(=O)([O-])[O-] (nonaromatic ring conformer: 90.27715981731416 kcal/mol)

>  <smiles>  (28) 
NC(=O)c1cc2ccc(NC3CCNCC3)cc2n1C(=O)COP(=O)(O)O

>  <score_type>  (28) 
oracle

>  <origin>  (28) 
adg

>  <m_score__min__energy>  (28) 
-8.5

>  <m_primary>  (28) 
energy

$$$$
31:0
     RDKit          3D

 33 34  0  0  0  0  0  0  0  0999 V2000
  146.9830  160.8900  133.3730 N   0  0  0  0  0  0  0  0  0  0  0  0
  145.9280  159.9350  133.2480 C   0  0  0  0  0  0  0  0  0  0  0  0
  144.7460  160.3440  133.0940 O   0  0  0  0  0  0  0  0  0  0  0  0
  146.2060  158.4820  133.3180 C   0  0  0  0  0  0  0  0  0  0  0  0
  145.2450  157.5060  133.5820 C   0  0  0  0  0  0  0  0  0  0  0  0
  145.9040  156.3020  133.4670 C   0  0  0  0  0  0  0  0  0  0  0  0
  145.4360  155.0000  133.6300 C   0  0  0  0  0  0  0  0  0  0  0  0
  146.3520  153.9460  133.4650 C   0  0  0  0  0  0  0  0  0  0  0  0
  147.7040  154.2140  133.1460 C   0  0  0  0  0  0  0  0  0  0  0  0
  148.6320  153.1270  132.9880 C   0  0  0  0  0  0  0  0  0  0  0  0
  149.4110  152.2160  132.8560 C   0  0  0  0  0  0  0  0  0  0  0  0
  150.3570  151.1080  132.6950 C   0  0  0  0  0  0  0  0  0  0  0  0
  150.6010  150.8810  131.3340 O   0  0  0  0  0  0  0  0  0  0  0  0
  148.1450  155.5430  132.9850 C   0  0  0  0  0  0  0  0  0  0  0  0
  147.2100  156.5690  133.1450 C   0  0  0  0  0  0  0  0  0  0  0  0
  147.4090  157.9000  133.0530 N   0  0  0  0  0  0  0  0  0  0  0  0
  148.6630  158.5470  132.7880 C   0  0  0  0  0  0  0  0  0  0  0  0
  149.2180  159.2260  133.6930 O   0  0  0  0  0  0  0  0  0  0  0  0
  149.2610  158.5150  131.4160 C   0  0  0  0  0  0  0  0  0  0  0  0
  149.5310  159.9080  130.9500 C   0  0  0  0  0  0  0  0  0  0  0  0
  150.3880  160.1210  130.0520 O   0  0  0  0  0  0  0  0  0  0  0  0
  148.7990  160.9690  131.4690 O   0  0  0  0  0  0  0  0  0  0  0  0
  147.9820  160.5950  133.4370 H   0  0  0  0  0  0  0  0  0  0  0  0
  146.7670  161.9110  133.3570 H   0  0  0  0  0  0  0  0  0  0  0  0
  144.1850  157.6644  133.8297 H   0  0  0  0  0  0  0  0  0  0  0  0
  144.3831  154.8027  133.8799 H   0  0  0  0  0  0  0  0  0  0  0  0
  146.0150  152.9058  133.5848 H   0  0  0  0  0  0  0  0  0  0  0  0
  151.3024  151.3601  133.1976 H   0  0  0  0  0  0  0  0  0  0  0  0
  149.9282  150.1989  133.1418 H   0  0  0  0  0  0  0  0  0  0  0  0
  151.4420  151.3610  131.1100 H   0  0  0  0  0  0  0  0  0  0  0  0
  149.1941  155.7659  132.7406 H   0  0  0  0  0  0  0  0  0  0  0  0
  150.2039  157.9491  131.4416 H   0  0  0  0  0  0  0  0  0  0  0  0
  148.5569  158.0302  130.7238 H   0  0  0  0  0  0  0  0  0  0  0  0
  1  2  1  0
  2  3  2  0
  2  4  1  0
  4  5  2  0
  5  6  1  0
  6  7  2  0
  7  8  1  0
  8  9  2  0
  9 10  1  0
 10 11  3  0
 11 12  1  0
 12 13  1  0
  9 14  1  0
 14 15  2  0
 15 16  1  0
 16 17  1  0
 17 18  2  0
 17 19  1  0
 19 20  1  0
 20 21  2  0
 20 22  1  0
 16  4  1  0
 15  6  1  0
  1 23  1  0
  1 24  1  0
  5 25  1  0
  7 26  1  0
  8 27  1  0
 12 28  1  0
 12 29  1  0
 13 30  1  0
 14 31  1  0
 19 32  1  0
 19 33  1  0
M  CHG  1  22  -1
M  END
>  <UniqueID>  (29) 
29

>  <SMILES>  (29) 
NC(=O)c1cc2ccc(C#CCO)cc2n1C(=O)CC(=O)[O-]

>  <Energy>  (29) 
65.94876556547317

>  <Genealogy>  (29) 
NC(=O)c1cc2ccc(C#CCO)cc2n1C(=O)CC(=O)[O-] (protonated)
NC(=O)c1cc2ccc(C#CCO)cc2n1C(=O)CC(=O)[O-] (3D coordinates assigned)
NC(=O)c1cc2ccc(C#CCO)cc2n1C(=O)CC(=O)[O-] (optimized conformer: 65.94876556547317 kcal/mol)

>  <smiles>  (29) 
NC(=O)c1cc2ccc(C#CCO)cc2n1C(=O)CC(=O)O

>  <score_type>  (29) 
oracle

>  <origin>  (29) 
adg

>  <m_score__min__energy>  (29) 
-7.0999999999999996

>  <m_primary>  (29) 
energy

$$$$
32:0
     RDKit          3D

 43 44  0  0  0  0  0  0  0  0999 V2000
  140.2320  149.2110  133.3440 C   0  0  0  0  0  0  0  0  0  0  0  0
  140.8540  149.6340  131.9970 C   0  0  0  0  0  0  0  0  0  0  0  0
  142.2970  149.1040  131.9300 C   0  0  0  0  0  0  0  0  0  0  0  0
  140.8690  151.1040  131.9060 N   0  0  0  0  0  0  0  0  0  0  0  0
  141.5180  151.9650  132.8590 C   0  0  0  0  0  0  0  0  0  0  0  0
  142.1360  151.4840  133.8460 O   0  0  0  0  0  0  0  0  0  0  0  0
  141.4390  153.4520  132.6940 C   0  0  0  0  0  0  0  0  0  0  0  0
  140.4200  153.9880  133.5340 O   0  0  0  0  0  0  0  0  0  0  0  0
  139.8530  155.2530  133.3410 C   0  0  0  0  0  0  0  0  0  0  0  0
  138.8360  155.3890  132.6070 O   0  0  0  0  0  0  0  0  0  0  0  0
  140.4500  156.4040  133.9570 N   0  0  0  0  0  0  0  0  0  0  0  0
  141.2670  156.4360  135.0480 C   0  0  0  0  0  0  0  0  0  0  0  0
  141.5780  155.2930  135.9310 C   0  0  0  0  0  0  0  0  0  0  0  0
  142.4110  154.2380  135.4580 N   0  0  0  0  0  0  0  0  0  0  0  0
  141.1450  155.2550  137.1120 O   0  0  0  0  0  0  0  0  0  0  0  0
  141.7260  157.7320  135.2760 C   0  0  0  0  0  0  0  0  0  0  0  0
  141.1580  158.5000  134.2870 C   0  0  0  0  0  0  0  0  0  0  0  0
  141.2820  159.8620  134.0280 C   0  0  0  0  0  0  0  0  0  0  0  0
  140.6040  160.3850  132.9130 C   0  0  0  0  0  0  0  0  0  0  0  0
  139.8350  159.5410  132.0760 C   0  0  0  0  0  0  0  0  0  0  0  0
  139.0990  160.1140  130.8990 C   0  0  0  0  0  0  0  0  0  0  0  0
  137.3550  159.8050  131.0720 Cl  0  0  0  0  0  0  0  0  0  0  0  0
  139.7180  158.1670  132.3780 C   0  0  0  0  0  0  0  0  0  0  0  0
  140.3920  157.6760  133.5030 C   0  0  0  0  0  0  0  0  0  0  0  0
  140.0870  149.0510  130.8290 C   0  0  0  0  0  0  0  0  0  0  0  0
  139.9880  147.8030  130.6780 O   0  0  0  0  0  0  0  0  0  0  0  0
  139.5540  149.8930  129.8600 O   0  0  0  0  0  0  0  0  0  0  0  0
  140.8329  149.6197  134.1698 H   0  0  0  0  0  0  0  0  0  0  0  0
  139.2047  149.5986  133.4113 H   0  0  0  0  0  0  0  0  0  0  0  0
  140.2149  148.1132  133.4113 H   0  0  0  0  0  0  0  0  0  0  0  0
  142.6832  148.9621  132.9501 H   0  0  0  0  0  0  0  0  0  0  0  0
  142.3100  148.1424  131.3960 H   0  0  0  0  0  0  0  0  0  0  0  0
  142.9293  149.8286  131.3960 H   0  0  0  0  0  0  0  0  0  0  0  0
  140.3720  151.5680  131.1110 H   0  0  0  0  0  0  0  0  0  0  0  0
  142.4064  153.8994  132.9659 H   0  0  0  0  0  0  0  0  0  0  0  0
  141.1985  153.6841  131.6460 H   0  0  0  0  0  0  0  0  0  0  0  0
  142.0130  153.4440  134.9080 H   0  0  0  0  0  0  0  0  0  0  0  0
  142.3999  158.0691  136.0774 H   0  0  0  0  0  0  0  0  0  0  0  0
  141.8916  160.5091  134.6757 H   0  0  0  0  0  0  0  0  0  0  0  0
  140.6716  161.4598  132.6889 H   0  0  0  0  0  0  0  0  0  0  0  0
  139.2749  161.1988  130.8508 H   0  0  0  0  0  0  0  0  0  0  0  0
  139.4628  159.6389  129.9760 H   0  0  0  0  0  0  0  0  0  0  0  0
  139.1134  157.4997  131.7463 H   0  0  0  0  0  0  0  0  0  0  0  0
  1  2  1  0
  2  3  1  0
  2  4  1  0
  4  5  1  0
  5  6  2  0
  5  7  1  0
  7  8  1  0
  8  9  1  0
  9 10  2  0
  9 11  1  0
 11 12  1  0
 12 13  1  0
 13 14  1  0
 13 15  2  0
 12 16  2  0
 16 17  1  0
 17 18  2  0
 18 19  1  0
 19 20  2  0
 20 21  1  0
 21 22  1  0
 20 23  1  0
 23 24  2  0
  2 25  1  0
 25 26  2  0
 25 27  1  0
 24 11  1  0
 24 17  1  0
  1 28  1  0
  1 29  1  0
  1 30  1  0
  3 31  1  0
  3 32  1  0
  3 33  1  0
  4 34  1  0
  7 35  1  0
  7 36  1  0
 14 37  1  0
 16 38  1  0
 18 39  1  0
 19 40  1  0
 21 41  1  0
 21 42  1  0
 23 43  1  0
M  CHG  2  14  -1  27  -1
M  END
>  <UniqueID>  (30) 
30

>  <SMILES>  (30) 
CC(C)(NC(=O)COC(=O)n1c(C([NH-])=O)cc2ccc(CCl)cc21)C(=O)[O-]

>  <Energy>  (30) 
74.71840574925352

>  <Genealogy>  (30) 
CC(C)(NC(=O)COC(=O)n1c(C([NH-])=O)cc2ccc(CCl)cc21)C(=O)[O-] (protonated)
CC(C)(NC(=O)COC(=O)n1c(C([NH-])=O)cc2ccc(CCl)cc21)C(=O)[O-] (3D coordinates assigned)
CC(C)(NC(=O)COC(=O)n1c(C([NH-])=O)cc2ccc(CCl)cc21)C(=O)[O-] (optimized conformer: 74.71840574925352 kcal/mol)

>  <smiles>  (30) 
CC(C)(NC(=O)COC(=O)n1c(C(N)=O)cc2ccc(CCl)cc21)C(=O)O

>  <score_type>  (30) 
oracle

>  <origin>  (30) 
adg

>  <m_score__min__energy>  (30) 
-7.8300000000000001

>  <m_primary>  (30) 
energy

$$$$
33:0
     RDKit          3D

 33 35  0  0  0  0  0  0  0  0999 V2000
  146.0280  161.1860  133.7530 N   0  0  0  0  0  0  0  0  0  0  0  0
  145.0580  160.1420  133.7250 C   0  0  0  0  0  0  0  0  0  0  0  0
  143.8480  160.4180  133.9380 O   0  0  0  0  0  0  0  0  0  0  0  0
  145.4610  158.7370  133.5050 C   0  0  0  0  0  0  0  0  0  0  0  0
  144.5550  157.6790  133.4550 C   0  0  0  0  0  0  0  0  0  0  0  0
  145.3250  156.5460  133.3270 C   0  0  0  0  0  0  0  0  0  0  0  0
  144.9420  155.2120  133.2180 C   0  0  0  0  0  0  0  0  0  0  0  0
  145.9540  154.2480  133.0630 C   0  0  0  0  0  0  0  0  0  0  0  0
  147.3140  154.6360  133.0140 C   0  0  0  0  0  0  0  0  0  0  0  0
  148.3310  153.6480  132.8440 N   0  0  0  0  0  0  0  0  0  0  0  0
  148.5740  152.2540  133.1980 C   0  0  0  0  0  0  0  0  0  0  0  0
  149.9170  152.1110  132.5770 C   0  0  0  0  0  0  0  0  0  0  0  0
  150.7870  151.2680  132.4310 O   0  0  0  0  0  0  0  0  0  0  0  0
  149.6490  153.5310  132.2270 C   0  0  0  0  0  0  0  0  0  0  0  0
  147.6650  155.9960  133.1270 C   0  0  0  0  0  0  0  0  0  0  0  0
  146.6400  156.9340  133.2990 C   0  0  0  0  0  0  0  0  0  0  0  0
  146.7400  158.2770  133.4050 N   0  0  0  0  0  0  0  0  0  0  0  0
  147.9460  159.0500  133.3170 C   0  0  0  0  0  0  0  0  0  0  0  0
  148.7940  159.0010  134.2490 O   0  0  0  0  0  0  0  0  0  0  0  0
  148.1850  159.8390  132.1840 O   0  0  0  0  0  0  0  0  0  0  0  0
  148.9070  159.3720  131.0490 C   0  0  0  0  0  0  0  0  0  0  0  0
  149.5900  160.8700  130.0230 Br  0  0  0  0  0  0  0  0  0  0  0  0
  146.7570  161.2620  133.0100 H   0  0  0  0  0  0  0  0  0  0  0  0
  143.4578  157.7374  133.5069 H   0  0  0  0  0  0  0  0  0  0  0  0
  143.8816  154.9213  133.2520 H   0  0  0  0  0  0  0  0  0  0  0  0
  145.6864  153.1843  132.9792 H   0  0  0  0  0  0  0  0  0  0  0  0
  148.6003  152.0996  134.2868 H   0  0  0  0  0  0  0  0  0  0  0  0
  147.8114  151.5332  132.8679 H   0  0  0  0  0  0  0  0  0  0  0  0
  150.3820  154.2165  132.6773 H   0  0  0  0  0  0  0  0  0  0  0  0
  149.7052  153.7832  131.1578 H   0  0  0  0  0  0  0  0  0  0  0  0
  148.7175  156.3126  133.0812 H   0  0  0  0  0  0  0  0  0  0  0  0
  149.7486  158.7487  131.3855 H   0  0  0  0  0  0  0  0  0  0  0  0
  148.2313  158.7811  130.4132 H   0  0  0  0  0  0  0  0  0  0  0  0
  1  2  1  0
  2  3  2  0
  2  4  1  0
  4  5  2  0
  5  6  1  0
  6  7  2  0
  7  8  1  0
  8  9  2  0
  9 10  1  0
 10 11  1  0
 11 12  1  0
 12 13  2  0
 12 14  1  0
  9 15  1  0
 15 16  2  0
 16 17  1  0
 17 18  1  0
 18 19  2  0
 18 20  1  0
 20 21  1  0
 21 22  1  0
 17  4  1  0
 16  6  1  0
 14 10  1  0
  1 23  1  0
  5 24  1  0
  7 25  1  0
  8 26  1  0
 11 27  1  0
 11 28  1  0
 14 29  1  0
 14 30  1  0
 15 31  1  0
 21 32  1  0
 21 33  1  0
M  CHG  1   1  -1
M  END
>  <UniqueID>  (31) 
31

>  <SMILES>  (31) 
[NH-]C(=O)c1cc2ccc(N3CC(=O)C3)cc2n1C(=O)OCBr

>  <Energy>  (31) 
88.24319011594764

>  <Genealogy>  (31) 
[NH-]C(=O)c1cc2ccc(N3CC(=O)C3)cc2n1C(=O)OCBr (protonated)
[NH-]C(=O)c1cc2ccc(N3CC(=O)C3)cc2n1C(=O)OCBr (3D coordinates assigned)
[NH-]C(=O)c1cc2ccc(N3CC(=O)C3)cc2n1C(=O)OCBr (nonaromatic ring conformer: 88.24319011594764 kcal/mol)

>  <smiles>  (31) 
NC(=O)c1cc2ccc(N3CC(=O)C3)cc2n1C(=O)OCBr

>  <score_type>  (31) 
oracle

>  <origin>  (31) 
adg

>  <m_score__min__energy>  (31) 
-6.8600000000000003

>  <m_primary>  (31) 
energy

$$$$
34:0
     RDKit          3D

 43 44  0  0  0  0  0  0  0  0999 V2000
  145.4320  155.6780  135.1580 C   0  0  0  0  0  0  0  0  0  0  0  0
  146.4770  155.4590  134.1540 N   0  0  0  0  0  0  0  0  0  0  0  0
  146.4110  156.2270  132.9310 C   0  0  0  0  0  0  0  0  0  0  0  0
  146.4250  155.6270  131.8220 O   0  0  0  0  0  0  0  0  0  0  0  0
  146.4180  157.6650  132.9500 N   0  0  0  0  0  0  0  0  0  0  0  0
  147.4830  158.5120  132.8170 C   0  0  0  0  0  0  0  0  0  0  0  0
  148.9070  158.1420  132.6050 C   0  0  0  0  0  0  0  0  0  0  0  0
  149.3210  156.8240  132.2420 N   0  0  0  0  0  0  0  0  0  0  0  0
  149.7890  159.0360  132.7250 O   0  0  0  0  0  0  0  0  0  0  0  0
  147.0870  159.8290  133.0430 C   0  0  0  0  0  0  0  0  0  0  0  0
  145.7530  159.7660  133.3630 C   0  0  0  0  0  0  0  0  0  0  0  0
  144.8800  160.7760  133.7580 C   0  0  0  0  0  0  0  0  0  0  0  0
  143.5760  160.4090  134.1350 C   0  0  0  0  0  0  0  0  0  0  0  0
  143.1900  159.0490  134.1380 C   0  0  0  0  0  0  0  0  0  0  0  0
  141.8640  158.6800  134.5570 C   0  0  0  0  0  0  0  0  0  0  0  0
  140.7540  158.3670  134.9070 C   0  0  0  0  0  0  0  0  0  0  0  0
  139.4020  157.9890  135.3340 C   0  0  0  0  0  0  0  0  0  0  0  0
  139.3480  157.8990  136.7300 O   0  0  0  0  0  0  0  0  0  0  0  0
  144.1030  158.0510  133.7470 C   0  0  0  0  0  0  0  0  0  0  0  0
  145.3790  158.4480  133.3250 C   0  0  0  0  0  0  0  0  0  0  0  0
  147.6530  154.6360  134.5290 C   0  0  2  0  0  0  0  0  0  0  0  0
  147.7880  153.3650  133.6690 C   0  0  0  0  0  0  0  0  0  0  0  0
  149.1200  153.2860  132.9830 C   0  0  0  0  0  0  0  0  0  0  0  0
  149.6650  152.1730  132.7640 O   0  0  0  0  0  0  0  0  0  0  0  0
  149.7670  154.4520  132.5900 O   0  0  0  0  0  0  0  0  0  0  0  0
  147.6420  154.3100  135.9970 C   0  0  0  0  0  0  0  0  0  0  0  0
  146.9500  153.3450  136.4180 O   0  0  0  0  0  0  0  0  0  0  0  0
  148.3990  155.0490  136.9000 O   0  0  0  0  0  0  0  0  0  0  0  0
  145.8659  155.5871  136.1647 H   0  0  0  0  0  0  0  0  0  0  0  0
  145.0071  156.6847  135.0314 H   0  0  0  0  0  0  0  0  0  0  0  0
  144.6387  154.9266  135.0314 H   0  0  0  0  0  0  0  0  0  0  0  0
  150.3390  156.6060  132.1630 H   0  0  0  0  0  0  0  0  0  0  0  0
  148.6460  156.0850  131.9700 H   0  0  0  0  0  0  0  0  0  0  0  0
  147.7129  160.7313  132.9785 H   0  0  0  0  0  0  0  0  0  0  0  0
  145.2003  161.8282  133.7746 H   0  0  0  0  0  0  0  0  0  0  0  0
  142.8527  161.1839  134.4290 H   0  0  0  0  0  0  0  0  0  0  0  0
  138.6855  158.7495  134.9901 H   0  0  0  0  0  0  0  0  0  0  0  0
  139.1463  157.0115  134.8992 H   0  0  0  0  0  0  0  0  0  0  0  0
  138.8970  158.7250  137.0510 H   0  0  0  0  0  0  0  0  0  0  0  0
  143.8221  156.9878  133.7721 H   0  0  0  0  0  0  0  0  0  0  0  0
  148.5449  155.2458  134.3222 H   0  0  0  0  0  0  0  0  0  0  0  0
  147.6701  152.4841  134.3172 H   0  0  0  0  0  0  0  0  0  0  0  0
  147.0090  153.3970  132.8931 H   0  0  0  0  0  0  0  0  0  0  0  0
  1  2  1  0
  2  3  1  0
  3  4  2  0
  3  5  1  0
  5  6  1  0
  6  7  1  0
  7  8  1  0
  7  9  2  0
  6 10  2  0
 10 11  1  0
 11 12  2  0
 12 13  1  0
 13 14  2  0
 14 15  1  0
 15 16  3  0
 16 17  1  0
 17 18  1  0
 14 19  1  0
 19 20  2  0
  2 21  1  0
 21 22  1  0
 22 23  1  0
 23 24  2  0
 23 25  1  0
 21 26  1  0
 26 27  2  0
 26 28  1  0
 20  5  1  0
 20 11  1  0
  1 29  1  0
  1 30  1  0
  1 31  1  0
  8 32  1  0
  8 33  1  0
 10 34  1  0
 12 35  1  0
 13 36  1  0
 17 37  1  0
 17 38  1  0
 18 39  1  0
 19 40  1  0
 21 41  1  1
 22 42  1  0
 22 43  1  0
M  CHG  2  25  -1  28  -1
M  END
>  <UniqueID>  (32) 
32

>  <SMILES>  (32) 
CN(C(=O)n1c(C(N)=O)cc2ccc(C#CCO)cc21)[C@H](CC(=O)[O-])C(=O)[O-]

>  <Energy>  (32) 
80.53626048966262

>  <Genealogy>  (32) 
CN(C(=O)n1c(C(N)=O)cc2ccc(C#CCO)cc21)[C@H](CC(=O)[O-])C(=O)[O-] (protonated)
CN(C(=O)n1c(C(N)=O)cc2ccc(C#CCO)cc21)[C@H](CC(=O)[O-])C(=O)[O-] (3D coordinates assigned)
CN(C(=O)n1c(C(N)=O)cc2ccc(C#CCO)cc21)[C@H](CC(=O)[O-])C(=O)[O-] (optimized conformer: 80.53626048966262 kcal/mol)

>  <smiles>  (32) 
CN(C(=O)n1c(C(N)=O)cc2ccc(C#CCO)cc21)[C@H](CC(=O)O)C(=O)O

>  <score_type>  (32) 
oracle

>  <origin>  (32) 
adg

>  <m_score__min__energy>  (32) 
-7.6200000000000001

>  <m_primary>  (32) 
energy

$$$$
35:0
     RDKit          3D

 45 46  0  0  0  0  0  0  0  0999 V2000
  144.6260  154.4520  131.3830 C   0  0  0  0  0  0  0  0  0  0  0  0
  145.3470  153.8030  132.4880 N   0  0  0  0  0  0  0  0  0  0  0  0
  145.4550  152.3530  132.2630 C   0  0  0  0  0  0  0  0  0  0  0  0
  144.6780  154.0670  133.7460 C   0  0  0  0  0  0  0  0  0  0  0  0
  143.9830  153.2050  134.2690 O   0  0  0  0  0  0  0  0  0  0  0  0
  144.7880  155.4130  134.4110 C   0  0  0  0  0  0  0  0  0  0  0  0
  146.1530  155.9320  134.2590 N   0  0  0  0  0  0  0  0  0  0  0  0
  147.1790  155.5490  135.2390 C   0  0  0  0  0  0  0  0  0  0  0  0
  147.4050  154.0710  135.2110 C   0  0  0  0  0  0  0  0  0  0  0  0
  147.6160  153.4850  134.1170 O   0  0  0  0  0  0  0  0  0  0  0  0
  147.3860  153.3410  136.3910 O   0  0  0  0  0  0  0  0  0  0  0  0
  146.4910  156.7530  133.1200 C   0  0  0  0  0  0  0  0  0  0  0  0
  146.9520  156.2260  132.0710 O   0  0  0  0  0  0  0  0  0  0  0  0
  146.3130  158.1750  133.1610 N   0  0  0  0  0  0  0  0  0  0  0  0
  147.2580  159.1400  132.9960 C   0  0  0  0  0  0  0  0  0  0  0  0
  148.6760  158.9100  132.6450 C   0  0  0  0  0  0  0  0  0  0  0  0
  149.0360  158.2320  131.4430 N   0  0  0  0  0  0  0  0  0  0  0  0
  149.5850  159.3270  133.4110 O   0  0  0  0  0  0  0  0  0  0  0  0
  146.6970  160.4040  133.1760 C   0  0  0  0  0  0  0  0  0  0  0  0
  145.3700  160.1750  133.4690 C   0  0  0  0  0  0  0  0  0  0  0  0
  144.3480  161.0710  133.7650 C   0  0  0  0  0  0  0  0  0  0  0  0
  143.0780  160.5470  134.0590 C   0  0  0  0  0  0  0  0  0  0  0  0
  142.8470  159.1460  134.0410 C   0  0  0  0  0  0  0  0  0  0  0  0
  141.4960  158.5940  134.4190 C   0  0  0  0  0  0  0  0  0  0  0  0
  141.4570  157.2250  134.2270 F   0  0  0  0  0  0  0  0  0  0  0  0
  141.2500  158.8700  135.7510 F   0  0  0  0  0  0  0  0  0  0  0  0
  140.5000  159.1670  133.6480 F   0  0  0  0  0  0  0  0  0  0  0  0
  143.9190  158.2680  133.7590 C   0  0  0  0  0  0  0  0  0  0  0  0
  145.1670  158.8210  133.4590 C   0  0  0  0  0  0  0  0  0  0  0  0
  143.8670  155.1353  131.7916 H   0  0  0  0  0  0  0  0  0  0  0  0
  145.3367  155.0207  130.7653 H   0  0  0  0  0  0  0  0  0  0  0  0
  144.1350  153.6856  130.7653 H   0  0  0  0  0  0  0  0  0  0  0  0
  146.3170  154.1980  132.5110 H   0  0  0  0  0  0  0  0  0  0  0  0
  145.4937  151.8335  133.2318 H   0  0  0  0  0  0  0  0  0  0  0  0
  144.5804  152.0040  131.6945 H   0  0  0  0  0  0  0  0  0  0  0  0
  146.3717  152.1374  131.6945 H   0  0  0  0  0  0  0  0  0  0  0  0
  144.0777  156.1107  133.9433 H   0  0  0  0  0  0  0  0  0  0  0  0
  144.5554  155.3098  135.4812 H   0  0  0  0  0  0  0  0  0  0  0  0
  148.1206  156.0637  134.9971 H   0  0  0  0  0  0  0  0  0  0  0  0
  146.8362  155.8373  136.2437 H   0  0  0  0  0  0  0  0  0  0  0  0
  148.4660  157.4360  131.0830 H   0  0  0  0  0  0  0  0  0  0  0  0
  147.2054  161.3765  133.1002 H   0  0  0  0  0  0  0  0  0  0  0  0
  144.5285  162.1561  133.7688 H   0  0  0  0  0  0  0  0  0  0  0  0
  142.2523  161.2305  134.3062 H   0  0  0  0  0  0  0  0  0  0  0  0
  143.7744  157.1777  133.7753 H   0  0  0  0  0  0  0  0  0  0  0  0
  1  2  1  0
  2  3  1  0
  2  4  1  0
  4  5  2  0
  4  6  1  0
  6  7  1  0
  7  8  1  0
  8  9  1  0
  9 10  2  0
  9 11  1  0
  7 12  1  0
 12 13  2  0
 12 14  1  0
 14 15  1  0
 15 16  1  0
 16 17  1  0
 16 18  2  0
 15 19  2  0
 19 20  1  0
 20 21  2  0
 21 22  1  0
 22 23  2  0
 23 24  1  0
 24 25  1  0
 24 26  1  0
 24 27  1  0
 23 28  1  0
 28 29  2  0
 29 14  1  0
 29 20  1  0
  1 30  1  0
  1 31  1  0
  1 32  1  0
  2 33  1  0
  3 34  1  0
  3 35  1  0
  3 36  1  0
  6 37  1  0
  6 38  1  0
  8 39  1  0
  8 40  1  0
 17 41  1  0
 19 42  1  0
 21 43  1  0
 22 44  1  0
 28 45  1  0
M  CHG  3   2   1  11  -1  17  -1
M  END
>  <UniqueID>  (33) 
33

>  <SMILES>  (33) 
C[NH+](C)C(=O)CN(CC(=O)[O-])C(=O)n1c(C([NH-])=O)cc2ccc(C(F)(F)F)cc21

>  <Energy>  (33) 
78.85721581718433

>  <Genealogy>  (33) 
C[NH+](C)C(=O)CN(CC(=O)[O-])C(=O)n1c(C([NH-])=O)cc2ccc(C(F)(F)F)cc21 (protonated)
C[NH+](C)C(=O)CN(CC(=O)[O-])C(=O)n1c(C([NH-])=O)cc2ccc(C(F)(F)F)cc21 (3D coordinates assigned)
C[NH+](C)C(=O)CN(CC(=O)[O-])C(=O)n1c(C([NH-])=O)cc2ccc(C(F)(F)F)cc21 (optimized conformer: 78.85721581718433 kcal/mol)

>  <smiles>  (33) 
CN(C)C(=O)CN(CC(=O)O)C(=O)n1c(C(N)=O)cc2ccc(C(F)(F)F)cc21

>  <score_type>  (33) 
oracle

>  <origin>  (33) 
adg

>  <m_score__min__energy>  (33) 
-5.6100000000000003

>  <m_primary>  (33) 
energy

$$$$
36:0
     RDKit          3D

 42 43  0  0  0  0  0  0  0  0999 V2000
  141.3760  158.9580  137.5900 C   0  0  0  0  0  0  0  0  0  0  0  0
  140.8580  157.9000  136.7150 N   0  0  0  0  0  0  0  0  0  0  0  0
  139.9540  158.2350  135.6100 C   0  0  0  0  0  0  0  0  0  0  0  0
  140.6090  159.2150  134.6900 C   0  0  0  0  0  0  0  0  0  0  0  0
  140.7240  158.9520  133.4650 O   0  0  0  0  0  0  0  0  0  0  0  0
  141.0510  160.4400  135.1750 O   0  0  0  0  0  0  0  0  0  0  0  0
  141.2630  156.5360  136.9290 C   0  0  0  0  0  0  0  0  0  0  0  0
  140.7090  155.8450  137.8280 O   0  0  0  0  0  0  0  0  0  0  0  0
  142.2680  155.9740  136.1320 O   0  0  0  0  0  0  0  0  0  0  0  0
  142.5060  156.3730  134.7870 C   0  0  0  0  0  0  0  0  0  0  0  0
  143.5150  157.3760  134.7580 O   0  0  0  0  0  0  0  0  0  0  0  0
  143.8720  158.0640  133.5940 C   0  0  0  0  0  0  0  0  0  0  0  0
  143.0640  158.1350  132.6290 O   0  0  0  0  0  0  0  0  0  0  0  0
  145.1670  158.6860  133.5050 N   0  0  0  0  0  0  0  0  0  0  0  0
  145.4390  160.0210  133.5130 C   0  0  0  0  0  0  0  0  0  0  0  0
  144.4690  161.1010  133.7850 C   0  0  0  0  0  0  0  0  0  0  0  0
  143.0650  160.8450  133.8110 N   0  0  0  0  0  0  0  0  0  0  0  0
  144.8910  162.2590  134.0510 O   0  0  0  0  0  0  0  0  0  0  0  0
  146.7870  160.2520  133.2600 C   0  0  0  0  0  0  0  0  0  0  0  0
  147.3460  159.0050  133.1050 C   0  0  0  0  0  0  0  0  0  0  0  0
  148.6590  158.6460  132.8140 C   0  0  0  0  0  0  0  0  0  0  0  0
  148.9510  157.2800  132.6650 C   0  0  0  0  0  0  0  0  0  0  0  0
  147.9310  156.3050  132.7980 C   0  0  0  0  0  0  0  0  0  0  0  0
  148.2630  154.8510  132.6180 C   0  0  0  0  0  0  0  0  0  0  0  0
  149.5940  154.7180  132.2640 F   0  0  0  0  0  0  0  0  0  0  0  0
  148.0350  154.1720  133.8000 F   0  0  0  0  0  0  0  0  0  0  0  0
  146.6090  156.7070  133.0890 C   0  0  0  0  0  0  0  0  0  0  0  0
  146.3490  158.0740  133.2550 C   0  0  0  0  0  0  0  0  0  0  0  0
  141.2335  158.6669  138.6412 H   0  0  0  0  0  0  0  0  0  0  0  0
  142.4481  159.1051  137.3924 H   0  0  0  0  0  0  0  0  0  0  0  0
  140.8348  159.8950  137.3924 H   0  0  0  0  0  0  0  0  0  0  0  0
  139.7075  157.3201  135.0513 H   0  0  0  0  0  0  0  0  0  0  0  0
  139.0360  158.6825  136.0186 H   0  0  0  0  0  0  0  0  0  0  0  0
  142.8372  155.5034  134.2004 H   0  0  0  0  0  0  0  0  0  0  0  0
  141.5777  156.7761  134.3559 H   0  0  0  0  0  0  0  0  0  0  0  0
  142.3910  161.6270  133.9650 H   0  0  0  0  0  0  0  0  0  0  0  0
  142.6940  159.8690  133.7650 H   0  0  0  0  0  0  0  0  0  0  0  0
  147.2972  161.2245  133.1973 H   0  0  0  0  0  0  0  0  0  0  0  0
  149.4440  159.4087  132.7041 H   0  0  0  0  0  0  0  0  0  0  0  0
  149.9810  156.9641  132.4430 H   0  0  0  0  0  0  0  0  0  0  0  0
  147.6275  154.4312  131.8244 H   0  0  0  0  0  0  0  0  0  0  0  0
  145.8025  155.9649  133.1831 H   0  0  0  0  0  0  0  0  0  0  0  0
  1  2  1  0
  2  3  1  0
  3  4  1  0
  4  5  2  0
  4  6  1  0
  2  7  1  0
  7  8  2  0
  7  9  1  0
  9 10  1  0
 10 11  1  0
 11 12  1  0
 12 13  2  0
 12 14  1  0
 14 15  1  0
 15 16  1  0
 16 17  1  0
 16 18  2  0
 15 19  2  0
 19 20  1  0
 20 21  2  0
 21 22  1  0
 22 23  2  0
 23 24  1  0
 24 25  1  0
 24 26  1  0
 23 27  1  0
 27 28  2  0
 28 14  1  0
 28 20  1  0
  1 29  1  0
  1 30  1  0
  1 31  1  0
  3 32  1  0
  3 33  1  0
 10 34  1  0
 10 35  1  0
 17 36  1  0
 17 37  1  0
 19 38  1  0
 21 39  1  0
 22 40  1  0
 24 41  1  0
 27 42  1  0
M  CHG  1   6  -1
M  END
>  <UniqueID>  (34) 
34

>  <SMILES>  (34) 
CN(CC(=O)[O-])C(=O)OCOC(=O)n1c(C(N)=O)cc2ccc(C(F)F)cc21

>  <Energy>  (34) 
73.52216256690565

>  <Genealogy>  (34) 
CN(CC(=O)[O-])C(=O)OCOC(=O)n1c(C(N)=O)cc2ccc(C(F)F)cc21 (protonated)
CN(CC(=O)[O-])C(=O)OCOC(=O)n1c(C(N)=O)cc2ccc(C(F)F)cc21 (3D coordinates assigned)
CN(CC(=O)[O-])C(=O)OCOC(=O)n1c(C(N)=O)cc2ccc(C(F)F)cc21 (optimized conformer: 73.52216256690565 kcal/mol)

>  <smiles>  (34) 
CN(CC(=O)O)C(=O)OCOC(=O)n1c(C(N)=O)cc2ccc(C(F)F)cc21

>  <score_type>  (34) 
oracle

>  <origin>  (34) 
adg

>  <m_score__min__energy>  (34) 
-6.5499999999999998

>  <m_primary>  (34) 
energy

$$$$
37:0
     RDKit          3D

 68 72  0  0  0  0  0  0  0  0999 V2000
  140.7210  151.7290  138.1950 C   0  0  0  0  0  0  0  0  0  0  0  0
  141.3880  152.8050  137.4650 N   0  0  0  0  0  0  0  0  0  0  0  0
  141.7150  154.0740  138.1230 C   0  0  0  0  0  0  0  0  0  0  0  0
  140.4900  154.6900  138.7430 C   0  0  0  0  0  0  0  0  0  0  0  0
  139.9150  154.0960  139.6910 O   0  0  0  0  0  0  0  0  0  0  0  0
  139.9350  155.9290  138.2840 N   0  0  0  0  0  0  0  0  0  0  0  0
  140.5540  156.8860  137.4170 C   0  0  0  0  0  0  0  0  0  0  0  0
  141.2970  157.9650  137.9190 C   0  0  0  0  0  0  0  0  0  0  0  0
  141.8760  158.8920  137.0460 C   0  0  0  0  0  0  0  0  0  0  0  0
  141.7140  158.7490  135.6600 C   0  0  0  0  0  0  0  0  0  0  0  0
  142.3200  159.7180  134.7230 C   0  0  0  0  0  0  0  0  0  0  0  0
  141.6510  160.7350  134.4090 O   0  0  0  0  0  0  0  0  0  0  0  0
  143.6460  159.5500  134.1840 N   0  0  0  0  0  0  0  0  0  0  0  0
  144.2390  158.1950  134.1360 C   0  0  0  0  0  0  0  0  0  0  0  0
  145.5930  158.1200  133.4140 C   0  0  0  0  0  0  0  0  0  0  0  0
  146.3610  159.3610  133.5770 N   0  0  0  0  0  0  0  0  0  0  0  0
  147.6660  159.2200  132.9170 C   0  0  0  0  0  0  0  0  0  0  0  0
  148.2590  157.8230  133.0370 C   0  0  0  0  0  0  0  0  0  0  0  0
  148.8070  158.9530  133.8910 C   0  0  0  0  0  0  0  0  0  0  0  0
  145.6170  160.4530  132.9350 C   0  0  0  0  0  0  0  0  0  0  0  0
  144.3630  160.7600  133.7490 C   0  0  0  0  0  0  0  0  0  0  0  0
  140.9180  157.7050  135.1640 C   0  0  0  0  0  0  0  0  0  0  0  0
  140.3450  156.7820  136.0390 C   0  0  0  0  0  0  0  0  0  0  0  0
  141.7350  152.6020  136.0900 C   0  0  0  0  0  0  0  0  0  0  0  0
  141.3710  151.5480  135.4960 O   0  0  0  0  0  0  0  0  0  0  0  0
  142.5370  153.5620  135.3960 N   0  0  0  0  0  0  0  0  0  0  0  0
  142.2110  154.2810  134.2850 C   0  0  0  0  0  0  0  0  0  0  0  0
  140.9340  154.1990  133.5450 C   0  0  0  0  0  0  0  0  0  0  0  0
  140.4660  152.9570  133.0190 N   0  0  0  0  0  0  0  0  0  0  0  0
  140.2400  155.2350  133.3890 O   0  0  0  0  0  0  0  0  0  0  0  0
  143.2700  155.1020  133.9110 C   0  0  0  0  0  0  0  0  0  0  0  0
  144.2780  154.8270  134.8070 C   0  0  0  0  0  0  0  0  0  0  0  0
  145.5850  155.2970  134.8510 C   0  0  0  0  0  0  0  0  0  0  0  0
  146.4360  154.7790  135.8390 C   0  0  0  0  0  0  0  0  0  0  0  0
  145.9780  153.7940  136.7540 C   0  0  0  0  0  0  0  0  0  0  0  0
  146.9390  153.2410  137.7750 C   0  0  0  0  0  0  0  0  0  0  0  0
  147.9350  152.4920  137.1730 F   0  0  0  0  0  0  0  0  0  0  0  0
  146.2450  152.4440  138.6690 F   0  0  0  0  0  0  0  0  0  0  0  0
  147.5370  154.2760  138.4730 F   0  0  0  0  0  0  0  0  0  0  0  0
  144.6320  153.3570  136.6910 C   0  0  0  0  0  0  0  0  0  0  0  0
  143.8100  153.8930  135.6930 C   0  0  0  0  0  0  0  0  0  0  0  0
  140.8266  151.8994  139.2766 H   0  0  0  0  0  0  0  0  0  0  0  0
  139.6538  151.7121  137.9290 H   0  0  0  0  0  0  0  0  0  0  0  0
  141.1805  150.7656  137.9290 H   0  0  0  0  0  0  0  0  0  0  0  0
  142.4623  153.8899  138.9089 H   0  0  0  0  0  0  0  0  0  0  0  0
  142.1133  154.7682  137.3684 H   0  0  0  0  0  0  0  0  0  0  0  0
  141.4249  158.0827  139.0052 H   0  0  0  0  0  0  0  0  0  0  0  0
  142.4591  159.7342  137.4469 H   0  0  0  0  0  0  0  0  0  0  0  0
  144.3801  157.8444  135.1690 H   0  0  0  0  0  0  0  0  0  0  0  0
  143.5418  157.5674  133.5616 H   0  0  0  0  0  0  0  0  0  0  0  0
  146.1737  157.2834  133.8299 H   0  0  0  0  0  0  0  0  0  0  0  0
  145.4033  157.9707  132.3408 H   0  0  0  0  0  0  0  0  0  0  0  0
  147.4891  159.9251  132.0914 H   0  0  0  0  0  0  0  0  0  0  0  0
  147.6744  157.0159  133.5027 H   0  0  0  0  0  0  0  0  0  0  0  0
  148.6950  157.1007  132.3312 H   0  0  0  0  0  0  0  0  0  0  0  0
  148.6189  158.9642  134.9747 H   0  0  0  0  0  0  0  0  0  0  0  0
  149.8034  159.3876  134.0593 H   0  0  0  0  0  0  0  0  0  0  0  0
  146.2515  161.3502  132.8863 H   0  0  0  0  0  0  0  0  0  0  0  0
  145.3293  160.1523  131.9168 H   0  0  0  0  0  0  0  0  0  0  0  0
  144.6563  161.3328  134.6411 H   0  0  0  0  0  0  0  0  0  0  0  0
  143.6817  161.3292  133.0995 H   0  0  0  0  0  0  0  0  0  0  0  0
  140.7453  157.6142  134.0814 H   0  0  0  0  0  0  0  0  0  0  0  0
  139.7238  155.9659  135.6413 H   0  0  0  0  0  0  0  0  0  0  0  0
  140.6360  152.0620  133.5280 H   0  0  0  0  0  0  0  0  0  0  0  0
  143.2962  155.8185  133.0767 H   0  0  0  0  0  0  0  0  0  0  0  0
  145.9412  156.0513  134.1339 H   0  0  0  0  0  0  0  0  0  0  0  0
  147.4726  155.1409  135.9059 H   0  0  0  0  0  0  0  0  0  0  0  0
  144.2437  152.6171  137.4064 H   0  0  0  0  0  0  0  0  0  0  0  0
  1  2  1  0
  2  3  1  0
  3  4  1  0
  4  5  2  0
  4  6  1  0
  6  7  1  0
  7  8  2  0
  8  9  1  0
  9 10  2  0
 10 11  1  0
 11 12  2  0
 11 13  1  0
 13 14  1  0
 14 15  1  0
 15 16  1  0
 16 17  1  0
 17 18  1  0
 18 19  1  0
 16 20  1  0
 20 21  1  0
 10 22  1  0
 22 23  2  0
  2 24  1  0
 24 25  2  0
 24 26  1  0
 26 27  1  0
 27 28  1  0
 28 29  1  0
 28 30  2  0
 27 31  2  0
 31 32  1  0
 32 33  2  0
 33 34  1  0
 34 35  2  0
 35 36  1  0
 36 37  1  0
 36 38  1  0
 36 39  1  0
 35 40  1  0
 40 41  2  0
 23  7  1  0
 41 26  1  0
 21 13  1  0
 41 32  1  0
 19 17  1  0
  1 42  1  0
  1 43  1  0
  1 44  1  0
  3 45  1  0
  3 46  1  0
  8 47  1  0
  9 48  1  0
 14 49  1  0
 14 50  1  0
 15 51  1  0
 15 52  1  0
 17 53  1  0
 18 54  1  0
 18 55  1  0
 19 56  1  0
 19 57  1  0
 20 58  1  0
 20 59  1  0
 21 60  1  0
 21 61  1  0
 22 62  1  0
 23 63  1  0
 29 64  1  0
 31 65  1  0
 33 66  1  0
 34 67  1  0
 40 68  1  0
M  CHG  2   6  -1  29  -1
M  END
>  <UniqueID>  (35) 
35

>  <SMILES>  (35) 
CN(CC(=O)[N-]c1ccc(C(=O)N2CCN(C3CC3)CC2)cc1)C(=O)n1c(C([NH-])=O)cc2ccc(C(F)(F)F)cc21

>  <Energy>  (35) 
393.1530928489466

>  <Genealogy>  (35) 
CN(CC(=O)[N-]c1ccc(C(=O)N2CCN(C3CC3)CC2)cc1)C(=O)n1c(C([NH-])=O)cc2ccc(C(F)(F)F)cc21 (protonated)
CN(CC(=O)[N-]c1ccc(C(=O)N2CCN(C3CC3)CC2)cc1)C(=O)n1c(C([NH-])=O)cc2ccc(C(F)(F)F)cc21 (3D coordinates assigned)
CN(CC(=O)[N-]c1ccc(C(=O)N2CCN(C3CC3)CC2)cc1)C(=O)n1c(C([NH-])=O)cc2ccc(C(F)(F)F)cc21 (nonaromatic ring conformer: 393.1530928489466 kcal/mol)

>  <smiles>  (35) 
CN(CC(=O)Nc1ccc(C(=O)N2CCN(C3CC3)CC2)cc1)C(=O)n1c(C(N)=O)cc2ccc(C(F)(F)F)cc21

>  <score_type>  (35) 
oracle

>  <origin>  (35) 
adg

>  <m_score__min__energy>  (35) 
-10.67

>  <m_primary>  (35) 
energy

$$$$
38:0
     RDKit          3D

 45 46  0  0  0  0  0  0  0  0999 V2000
  144.4200  154.3010  131.2760 C   0  0  0  0  0  0  0  0  0  0  0  0
  145.1700  153.8650  132.4680 N   0  0  2  0  0  0  0  0  0  0  0  0
  145.2540  152.3900  132.5990 C   0  0  0  0  0  0  0  0  0  0  0  0
  146.5380  151.7590  132.0290 C   0  0  0  0  0  0  0  0  0  0  0  0
  147.6210  152.6070  132.2950 O   0  0  0  0  0  0  0  0  0  0  0  0
  144.6570  154.4900  133.6750 C   0  0  0  0  0  0  0  0  0  0  0  0
  145.3250  154.5050  134.7000 O   0  0  0  0  0  0  0  0  0  0  0  0
  143.2850  155.1100  133.7010 C   0  0  0  0  0  0  0  0  0  0  0  0
  143.3440  156.4510  133.2210 O   0  0  0  0  0  0  0  0  0  0  0  0
  143.0160  157.5620  134.0090 C   0  0  0  0  0  0  0  0  0  0  0  0
  142.0500  157.5060  134.8170 O   0  0  0  0  0  0  0  0  0  0  0  0
  143.8010  158.7610  133.9140 N   0  0  0  0  0  0  0  0  0  0  0  0
  143.3590  160.0500  133.9270 C   0  0  0  0  0  0  0  0  0  0  0  0
  141.9760  160.4890  134.2060 C   0  0  0  0  0  0  0  0  0  0  0  0
  141.3340  160.0880  135.4140 N   0  0  0  0  0  0  0  0  0  0  0  0
  141.3410  161.1860  133.3720 O   0  0  0  0  0  0  0  0  0  0  0  0
  144.4180  160.9310  133.7190 C   0  0  0  0  0  0  0  0  0  0  0  0
  145.5320  160.1350  133.5800 C   0  0  0  0  0  0  0  0  0  0  0  0
  146.8600  160.4850  133.3450 C   0  0  0  0  0  0  0  0  0  0  0  0
  147.8010  159.4510  133.2170 C   0  0  0  0  0  0  0  0  0  0  0  0
  147.3990  158.0940  133.3080 C   0  0  0  0  0  0  0  0  0  0  0  0
  148.4180  156.9960  133.1860 C   0  0  0  0  0  0  0  0  0  0  0  0
  147.7450  155.7060  132.8450 C   0  0  0  0  0  0  0  0  0  0  0  0
  147.8870  154.7000  133.5900 O   0  0  0  0  0  0  0  0  0  0  0  0
  146.9940  155.6000  131.6800 O   0  0  0  0  0  0  0  0  0  0  0  0
  146.0450  157.7780  133.5590 C   0  0  0  0  0  0  0  0  0  0  0  0
  145.1320  158.8300  133.7000 C   0  0  0  0  0  0  0  0  0  0  0  0
  143.5085  154.8309  131.5898 H   0  0  0  0  0  0  0  0  0  0  0  0
  145.0473  154.9752  130.6744 H   0  0  0  0  0  0  0  0  0  0  0  0
  144.1446  153.4222  130.6744 H   0  0  0  0  0  0  0  0  0  0  0  0
  146.1530  154.1970  132.3240 H   0  0  0  0  0  0  0  0  0  0  0  0
  145.1955  152.1383  133.6682 H   0  0  0  0  0  0  0  0  0  0  0  0
  144.4213  151.9806  132.0082 H   0  0  0  0  0  0  0  0  0  0  0  0
  146.7102  150.7814  132.5031 H   0  0  0  0  0  0  0  0  0  0  0  0
  146.4330  151.6205  130.9428 H   0  0  0  0  0  0  0  0  0  0  0  0
  147.4010  153.4770  131.8680 H   0  0  0  0  0  0  0  0  0  0  0  0
  142.6088  154.5240  133.0612 H   0  0  0  0  0  0  0  0  0  0  0  0
  142.9115  155.1142  134.7356 H   0  0  0  0  0  0  0  0  0  0  0  0
  141.6960  159.2820  135.9730 H   0  0  0  0  0  0  0  0  0  0  0  0
  144.3733  162.0292  133.6752 H   0  0  0  0  0  0  0  0  0  0  0  0
  147.1620  161.5395  133.2623 H   0  0  0  0  0  0  0  0  0  0  0  0
  148.8595  159.6956  133.0446 H   0  0  0  0  0  0  0  0  0  0  0  0
  149.1360  157.2525  132.3931 H   0  0  0  0  0  0  0  0  0  0  0  0
  148.9440  156.8849  134.1457 H   0  0  0  0  0  0  0  0  0  0  0  0
  145.7163  156.7315  133.6416 H   0  0  0  0  0  0  0  0  0  0  0  0
  1  2  1  0
  2  3  1  0
  3  4  1  0
  4  5  1  0
  2  6  1  0
  6  7  2  0
  6  8  1  0
  8  9  1  0
  9 10  1  0
 10 11  2  0
 10 12  1  0
 12 13  1  0
 13 14  1  0
 14 15  1  0
 14 16  2  0
 13 17  2  0
 17 18  1  0
 18 19  2  0
 19 20  1  0
 20 21  2  0
 21 22  1  0
 22 23  1  0
 23 24  2  0
 23 25  1  0
 21 26  1  0
 26 27  2  0
 27 12  1  0
 27 18  1  0
  1 28  1  0
  1 29  1  0
  1 30  1  0
  2 31  1  6
  3 32  1  0
  3 33  1  0
  4 34  1  0
  4 35  1  0
  5 36  1  0
  8 37  1  0
  8 38  1  0
 15 39  1  0
 17 40  1  0
 19 41  1  0
 20 42  1  0
 22 43  1  0
 22 44  1  0
 26 45  1  0
M  CHG  3   2   1  15  -1  25  -1
M  END
>  <UniqueID>  (36) 
36

>  <SMILES>  (36) 
C[N@H+](CCO)C(=O)COC(=O)n1c(C([NH-])=O)cc2ccc(CC(=O)[O-])cc21

>  <Energy>  (36) 
81.13815146789277

>  <Genealogy>  (36) 
C[NH+](CCO)C(=O)COC(=O)n1c(C([NH-])=O)cc2ccc(CC(=O)[O-])cc21 (protonated)
C[N@H+](CCO)C(=O)COC(=O)n1c(C([NH-])=O)cc2ccc(CC(=O)[O-])cc21 (chirality)
C[N@H+](CCO)C(=O)COC(=O)n1c(C([NH-])=O)cc2ccc(CC(=O)[O-])cc21 (3D coordinates assigned)
C[N@H+](CCO)C(=O)COC(=O)n1c(C([NH-])=O)cc2ccc(CC(=O)[O-])cc21 (optimized conformer: 81.13815146789277 kcal/mol)

>  <smiles>  (36) 
CN(CCO)C(=O)COC(=O)n1c(C(N)=O)cc2ccc(CC(=O)O)cc21

>  <score_type>  (36) 
oracle

>  <origin>  (36) 
adg

>  <m_score__min__energy>  (36) 
-5.8799999999999999

>  <m_primary>  (36) 
energy

$$$$
39:0
     RDKit          3D

 40 41  0  0  0  0  0  0  0  0999 V2000
  143.7780  155.2000  135.1970 C   0  0  0  0  0  0  0  0  0  0  0  0
  145.0770  154.9150  135.0650 C   0  0  0  0  0  0  0  0  0  0  0  0
  145.8790  154.7580  136.2480 N   0  0  0  0  0  0  0  0  0  0  0  0
  147.3270  154.5660  136.2020 C   0  0  0  0  0  0  0  0  0  0  0  0
  147.7060  153.3960  137.0500 C   0  0  0  0  0  0  0  0  0  0  0  0
  146.8090  152.6400  137.5140 O   0  0  0  0  0  0  0  0  0  0  0  0
  149.0520  153.1820  137.3640 O   0  0  0  0  0  0  0  0  0  0  0  0
  149.6690  153.7500  138.5120 C   0  0  0  0  0  0  0  0  0  0  0  0
  145.6840  154.8190  133.7120 C   0  0  0  0  0  0  0  0  0  0  0  0
  145.1610  154.0700  132.8430 O   0  0  0  0  0  0  0  0  0  0  0  0
  146.8600  155.5720  133.3690 N   0  0  0  0  0  0  0  0  0  0  0  0
  148.0720  155.0790  132.9870 C   0  0  0  0  0  0  0  0  0  0  0  0
  148.4630  153.6540  132.9620 C   0  0  0  0  0  0  0  0  0  0  0  0
  147.5610  152.6240  133.3710 N   0  0  0  0  0  0  0  0  0  0  0  0
  149.6330  153.3420  132.6130 O   0  0  0  0  0  0  0  0  0  0  0  0
  148.9290  156.1140  132.6180 C   0  0  0  0  0  0  0  0  0  0  0  0
  148.2000  157.2690  132.7900 C   0  0  0  0  0  0  0  0  0  0  0  0
  148.5540  158.5920  132.5460 C   0  0  0  0  0  0  0  0  0  0  0  0
  147.5800  159.5830  132.7590 C   0  0  0  0  0  0  0  0  0  0  0  0
  146.2790  159.2350  133.1970 C   0  0  0  0  0  0  0  0  0  0  0  0
  145.2460  160.3080  133.3940 C   0  0  0  0  0  0  0  0  0  0  0  0
  144.1650  159.7940  134.0870 F   0  0  0  0  0  0  0  0  0  0  0  0
  145.7930  161.3540  134.1120 F   0  0  0  0  0  0  0  0  0  0  0  0
  145.9540  157.8790  133.4250 C   0  0  0  0  0  0  0  0  0  0  0  0
  146.9520  156.9150  133.2340 C   0  0  0  0  0  0  0  0  0  0  0  0
  143.1485  155.3238  134.3035 H   0  0  0  0  0  0  0  0  0  0  0  0
  143.3383  155.3108  136.1992 H   0  0  0  0  0  0  0  0  0  0  0  0
  145.4010  154.4750  137.1350 H   0  0  0  0  0  0  0  0  0  0  0  0
  147.6387  154.3813  135.1634 H   0  0  0  0  0  0  0  0  0  0  0  0
  147.8269  155.4691  136.5821 H   0  0  0  0  0  0  0  0  0  0  0  0
  149.2120  153.3293  139.4198 H   0  0  0  0  0  0  0  0  0  0  0  0
  150.7445  153.5193  138.5022 H   0  0  0  0  0  0  0  0  0  0  0  0
  149.5279  154.8409  138.5022 H   0  0  0  0  0  0  0  0  0  0  0  0
  146.6540  152.8480  133.8350 H   0  0  0  0  0  0  0  0  0  0  0  0
  147.8440  151.6220  133.2960 H   0  0  0  0  0  0  0  0  0  0  0  0
  149.9670  156.0267  132.2645 H   0  0  0  0  0  0  0  0  0  0  0  0
  149.5638  158.8543  132.1975 H   0  0  0  0  0  0  0  0  0  0  0  0
  147.8309  160.6395  132.5837 H   0  0  0  0  0  0  0  0  0  0  0  0
  144.9123  160.6713  132.4108 H   0  0  0  0  0  0  0  0  0  0  0  0
  144.9425  157.5877  133.7445 H   0  0  0  0  0  0  0  0  0  0  0  0
  1  2  2  0
  2  3  1  0
  3  4  1  0
  4  5  1  0
  5  6  2  0
  5  7  1  0
  7  8  1  0
  2  9  1  0
  9 10  2  0
  9 11  1  0
 11 12  1  0
 12 13  1  0
 13 14  1  0
 13 15  2  0
 12 16  2  0
 16 17  1  0
 17 18  2  0
 18 19  1  0
 19 20  2  0
 20 21  1  0
 21 22  1  0
 21 23  1  0
 20 24  1  0
 24 25  2  0
 25 11  1  0
 25 17  1  0
  1 26  1  0
  1 27  1  0
  3 28  1  0
  4 29  1  0
  4 30  1  0
  8 31  1  0
  8 32  1  0
  8 33  1  0
 14 34  1  0
 14 35  1  0
 16 36  1  0
 18 37  1  0
 19 38  1  0
 21 39  1  0
 24 40  1  0
M  END
>  <UniqueID>  (37) 
37

>  <SMILES>  (37) 
C=C(NCC(=O)OC)C(=O)n1c(C(N)=O)cc2ccc(C(F)F)cc21

>  <Energy>  (37) 
76.97316265673868

>  <Genealogy>  (37) 
C=C(NCC(=O)OC)C(=O)n1c(C(N)=O)cc2ccc(C(F)F)cc21 (3D coordinates assigned)
C=C(NCC(=O)OC)C(=O)n1c(C(N)=O)cc2ccc(C(F)F)cc21 (optimized conformer: 76.97316265673868 kcal/mol)

>  <smiles>  (37) 
C=C(NCC(=O)OC)C(=O)n1c(C(N)=O)cc2ccc(C(F)F)cc21

>  <score_type>  (37) 
oracle

>  <origin>  (37) 
adg

>  <m_score__min__energy>  (37) 
-6.3399999999999999

>  <m_primary>  (37) 
energy

$$$$
40:0
     RDKit          3D

 41 42  0  0  0  0  0  0  0  0999 V2000
  140.3230  153.9540  139.0010 C   0  0  0  0  0  0  0  0  0  0  0  0
  141.2060  153.1050  138.1980 N   0  0  0  0  0  0  0  0  0  0  0  0
  141.2910  151.6630  138.4680 C   0  0  0  0  0  0  0  0  0  0  0  0
  140.3460  150.9150  137.5840 C   0  0  0  0  0  0  0  0  0  0  0  0
  140.6130  150.7570  136.3650 O   0  0  0  0  0  0  0  0  0  0  0  0
  139.1860  150.3650  138.1140 O   0  0  0  0  0  0  0  0  0  0  0  0
  142.1020  153.7130  137.2460 C   0  0  0  0  0  0  0  0  0  0  0  0
  143.3190  153.3790  137.2290 O   0  0  0  0  0  0  0  0  0  0  0  0
  141.6450  154.7370  136.3440 N   0  0  0  0  0  0  0  0  0  0  0  0
  141.3470  156.0630  136.8880 C   0  0  0  0  0  0  0  0  0  0  0  0
  141.7050  154.5530  134.9130 C   0  0  0  0  0  0  0  0  0  0  0  0
  140.9190  155.1970  134.1650 O   0  0  0  0  0  0  0  0  0  0  0  0
  142.6880  153.6920  134.3140 N   0  0  0  0  0  0  0  0  0  0  0  0
  144.0470  153.7940  134.3700 C   0  0  0  0  0  0  0  0  0  0  0  0
  144.8240  154.8660  135.0370 C   0  0  0  0  0  0  0  0  0  0  0  0
  145.6110  154.6040  136.1950 N   0  0  0  0  0  0  0  0  0  0  0  0
  144.7880  156.0380  134.5740 O   0  0  0  0  0  0  0  0  0  0  0  0
  144.6430  152.7290  133.6960 C   0  0  0  0  0  0  0  0  0  0  0  0
  143.6010  151.9510  133.2470 C   0  0  0  0  0  0  0  0  0  0  0  0
  143.6170  150.7570  132.5350 C   0  0  0  0  0  0  0  0  0  0  0  0
  142.3840  150.1500  132.2390 C   0  0  0  0  0  0  0  0  0  0  0  0
  141.1670  150.7240  132.6880 C   0  0  0  0  0  0  0  0  0  0  0  0
  139.8480  150.0870  132.3320 C   0  0  0  0  0  0  0  0  0  0  0  0
  139.9350  149.4220  131.1210 F   0  0  0  0  0  0  0  0  0  0  0  0
  139.4710  149.1730  133.3010 F   0  0  0  0  0  0  0  0  0  0  0  0
  138.8800  151.0690  132.2380 F   0  0  0  0  0  0  0  0  0  0  0  0
  141.1940  151.9470  133.3960 C   0  0  0  0  0  0  0  0  0  0  0  0
  142.4330  152.5470  133.6440 C   0  0  0  0  0  0  0  0  0  0  0  0
  140.5118  153.7724  140.0694 H   0  0  0  0  0  0  0  0  0  0  0  0
  140.5195  155.0110  138.7684 H   0  0  0  0  0  0  0  0  0  0  0  0
  139.2745  153.7161  138.7684 H   0  0  0  0  0  0  0  0  0  0  0  0
  142.3177  151.3176  138.2768 H   0  0  0  0  0  0  0  0  0  0  0  0
  141.0217  151.4784  139.5184 H   0  0  0  0  0  0  0  0  0  0  0  0
  141.3569  156.0191  137.9871 H   0  0  0  0  0  0  0  0  0  0  0  0
  142.1064  156.7801  136.5428 H   0  0  0  0  0  0  0  0  0  0  0  0
  140.3538  156.3862  136.5428 H   0  0  0  0  0  0  0  0  0  0  0  0
  145.1660  154.4900  137.1330 H   0  0  0  0  0  0  0  0  0  0  0  0
  145.7188  152.5489  133.5534 H   0  0  0  0  0  0  0  0  0  0  0  0
  144.5651  150.3014  132.2132 H   0  0  0  0  0  0  0  0  0  0  0  0
  142.3627  149.2195  131.6527 H   0  0  0  0  0  0  0  0  0  0  0  0
  140.2620  152.4163  133.7440 H   0  0  0  0  0  0  0  0  0  0  0  0
  1  2  1  0
  2  3  1  0
  3  4  1  0
  4  5  2  0
  4  6  1  0
  2  7  1  0
  7  8  2  0
  7  9  1  0
  9 10  1  0
  9 11  1  0
 11 12  2  0
 11 13  1  0
 13 14  1  0
 14 15  1  0
 15 16  1  0
 15 17  2  0
 14 18  2  0
 18 19  1  0
 19 20  2  0
 20 21  1  0
 21 22  2  0
 22 23  1  0
 23 24  1  0
 23 25  1  0
 23 26  1  0
 22 27  1  0
 27 28  2  0
 28 13  1  0
 28 19  1  0
  1 29  1  0
  1 30  1  0
  1 31  1  0
  3 32  1  0
  3 33  1  0
 10 34  1  0
 10 35  1  0
 10 36  1  0
 16 37  1  0
 18 38  1  0
 20 39  1  0
 21 40  1  0
 27 41  1  0
M  CHG  2   6  -1  16  -1
M  END
>  <UniqueID>  (38) 
38

>  <SMILES>  (38) 
CN(CC(=O)[O-])C(=O)N(C)C(=O)n1c(C([NH-])=O)cc2ccc(C(F)(F)F)cc21

>  <Energy>  (38) 
80.69190087957716

>  <Genealogy>  (38) 
CN(CC(=O)[O-])C(=O)N(C)C(=O)n1c(C([NH-])=O)cc2ccc(C(F)(F)F)cc21 (protonated)
CN(CC(=O)[O-])C(=O)N(C)C(=O)n1c(C([NH-])=O)cc2ccc(C(F)(F)F)cc21 (3D coordinates assigned)
CN(CC(=O)[O-])C(=O)N(C)C(=O)n1c(C([NH-])=O)cc2ccc(C(F)(F)F)cc21 (optimized conformer: 80.69190087957716 kcal/mol)

>  <smiles>  (38) 
CN(CC(=O)O)C(=O)N(C)C(=O)n1c(C(N)=O)cc2ccc(C(F)(F)F)cc21

>  <score_type>  (38) 
oracle

>  <origin>  (38) 
adg

>  <m_score__min__energy>  (38) 
-6.4500000000000002

>  <m_primary>  (38) 
energy

$$$$
41:0
     RDKit          3D

 40 42  0  0  0  0  0  0  0  0999 V2000
  142.8020  160.7610  133.6250 N   0  0  0  0  0  0  0  0  0  0  0  0
  144.2000  161.0210  133.7190 C   0  0  0  0  0  0  0  0  0  0  0  0
  144.5950  162.1880  133.9760 O   0  0  0  0  0  0  0  0  0  0  0  0
  145.1680  159.9310  133.4760 C   0  0  0  0  0  0  0  0  0  0  0  0
  146.5050  160.1480  133.1470 C   0  0  0  0  0  0  0  0  0  0  0  0
  147.0740  158.8970  133.0880 C   0  0  0  0  0  0  0  0  0  0  0  0
  148.3800  158.5220  132.7880 C   0  0  0  0  0  0  0  0  0  0  0  0
  148.6830  157.1500  132.7690 C   0  0  0  0  0  0  0  0  0  0  0  0
  147.6840  156.1810  133.0420 C   0  0  0  0  0  0  0  0  0  0  0  0
  148.0350  154.7440  133.0000 C   0  0  0  0  0  0  0  0  0  0  0  0
  147.2800  153.6720  133.4420 C   0  0  0  0  0  0  0  0  0  0  0  0
  147.9840  152.5510  133.2110 N   0  0  0  0  0  0  0  0  0  0  0  0
  149.1310  152.9650  132.6430 C   0  0  0  0  0  0  0  0  0  0  0  0
  149.1640  154.2730  132.5170 O   0  0  0  0  0  0  0  0  0  0  0  0
  146.3670  156.6050  133.3440 C   0  0  0  0  0  0  0  0  0  0  0  0
  146.0990  157.9780  133.3730 C   0  0  0  0  0  0  0  0  0  0  0  0
  144.9220  158.5970  133.6120 N   0  0  0  0  0  0  0  0  0  0  0  0
  143.6620  157.9590  133.8710 C   0  0  0  0  0  0  0  0  0  0  0  0
  143.3400  157.6640  135.0550 O   0  0  0  0  0  0  0  0  0  0  0  0
  142.8060  157.6560  132.8060 O   0  0  0  0  0  0  0  0  0  0  0  0
  141.5840  156.9330  132.9540 C   0  0  0  0  0  0  0  0  0  0  0  0
  140.4450  157.8750  133.3720 C   0  0  1  0  0  0  0  0  0  0  0  0
  140.8970  158.7330  134.3880 O   0  0  0  0  0  0  0  0  0  0  0  0
  139.9540  158.7120  132.1790 C   0  0  0  0  0  0  0  0  0  0  0  0
  140.8670  159.7300  131.8690 O   0  0  0  0  0  0  0  0  0  0  0  0
  142.4490  159.8200  133.3430 H   0  0  0  0  0  0  0  0  0  0  0  0
  147.0001  161.1145  132.9717 H   0  0  0  0  0  0  0  0  0  0  0  0
  149.1512  159.2761  132.5724 H   0  0  0  0  0  0  0  0  0  0  0  0
  149.7080  156.8234  132.5395 H   0  0  0  0  0  0  0  0  0  0  0  0
  146.2817  153.7275  133.9006 H   0  0  0  0  0  0  0  0  0  0  0  0
  147.7010  151.5690  133.4260 H   0  0  0  0  0  0  0  0  0  0  0  0
  149.9407  152.2924  132.3237 H   0  0  0  0  0  0  0  0  0  0  0  0
  145.5733  155.8721  133.5509 H   0  0  0  0  0  0  0  0  0  0  0  0
  141.3268  156.4579  131.9958 H   0  0  0  0  0  0  0  0  0  0  0  0
  141.7165  156.1691  133.7343 H   0  0  0  0  0  0  0  0  0  0  0  0
  139.6064  157.2643  133.7378 H   0  0  0  0  0  0  0  0  0  0  0  0
  141.8120  159.0240  134.1320 H   0  0  0  0  0  0  0  0  0  0  0  0
  139.8359  158.0561  131.3039 H   0  0  0  0  0  0  0  0  0  0  0  0
  138.9924  159.1738  132.4474 H   0  0  0  0  0  0  0  0  0  0  0  0
  141.7350  159.4650  132.2730 H   0  0  0  0  0  0  0  0  0  0  0  0
  1  2  1  0
  2  3  2  0
  2  4  1  0
  4  5  2  0
  5  6  1  0
  6  7  2  0
  7  8  1  0
  8  9  2  0
  9 10  1  0
 10 11  2  0
 11 12  1  0
 12 13  2  0
 13 14  1  0
  9 15  1  0
 15 16  2  0
 16 17  1  0
 17 18  1  0
 18 19  2  0
 18 20  1  0
 20 21  1  0
 21 22  1  0
 22 23  1  0
 22 24  1  0
 24 25  1  0
 17  4  1  0
 16  6  1  0
 14 10  1  0
  1 26  1  0
  5 27  1  0
  7 28  1  0
  8 29  1  0
 11 30  1  0
 12 31  1  0
 13 32  1  0
 15 33  1  0
 21 34  1  0
 21 35  1  0
 22 36  1  1
 23 37  1  0
 24 38  1  0
 24 39  1  0
 25 40  1  0
M  CHG  2   1  -1  12   1
M  END
>  <UniqueID>  (39) 
39

>  <SMILES>  (39) 
[NH-]C(=O)c1cc2ccc(-c3c[nH+]co3)cc2n1C(=O)OC[C@@H](O)CO

>  <Energy>  (39) 
108.64537454007416

>  <Genealogy>  (39) 
[NH-]C(=O)c1cc2ccc(-c3c[nH+]co3)cc2n1C(=O)OCC(O)CO (protonated)
[NH-]C(=O)c1cc2ccc(-c3c[nH+]co3)cc2n1C(=O)OC[C@@H](O)CO (chirality)
[NH-]C(=O)c1cc2ccc(-c3c[nH+]co3)cc2n1C(=O)OC[C@@H](O)CO (3D coordinates assigned)
[NH-]C(=O)c1cc2ccc(-c3c[nH+]co3)cc2n1C(=O)OC[C@@H](O)CO (optimized conformer: 108.64537454007416 kcal/mol)

>  <smiles>  (39) 
NC(=O)c1cc2ccc(-c3cnco3)cc2n1C(=O)OCC(O)CO

>  <score_type>  (39) 
oracle

>  <origin>  (39) 
adg

>  <m_score__min__energy>  (39) 
-5.5999999999999996

>  <m_primary>  (39) 
energy

$$$$
42:0
     RDKit          3D

 42 43  0  0  0  0  0  0  0  0999 V2000
  141.3460  158.9590  137.3640 C   0  0  0  0  0  0  0  0  0  0  0  0
  140.8080  158.8430  136.0070 N   0  0  0  0  0  0  0  0  0  0  0  0
  139.5010  158.2130  135.7830 C   0  0  0  0  0  0  0  0  0  0  0  0
  139.5400  157.3810  134.5420 C   0  0  0  0  0  0  0  0  0  0  0  0
  138.7010  157.5750  133.6230 O   0  0  0  0  0  0  0  0  0  0  0  0
  140.4740  156.3600  134.4160 O   0  0  0  0  0  0  0  0  0  0  0  0
  141.6040  159.2960  134.8960 C   0  0  0  0  0  0  0  0  0  0  0  0
  141.0690  159.9550  133.9630 O   0  0  0  0  0  0  0  0  0  0  0  0
  142.9750  159.0000  134.8660 O   0  0  0  0  0  0  0  0  0  0  0  0
  143.7210  158.7380  133.7090 C   0  0  0  0  0  0  0  0  0  0  0  0
  143.2170  158.0940  132.7490 O   0  0  0  0  0  0  0  0  0  0  0  0
  145.0850  159.1810  133.6340 N   0  0  0  0  0  0  0  0  0  0  0  0
  145.5540  160.4610  133.6720 C   0  0  0  0  0  0  0  0  0  0  0  0
  144.7570  161.6710  133.9660 C   0  0  0  0  0  0  0  0  0  0  0  0
  143.3530  161.7030  133.7230 N   0  0  0  0  0  0  0  0  0  0  0  0
  145.3160  162.6740  134.4860 O   0  0  0  0  0  0  0  0  0  0  0  0
  146.9330  160.4830  133.4800 C   0  0  0  0  0  0  0  0  0  0  0  0
  147.3010  159.1650  133.3330 C   0  0  0  0  0  0  0  0  0  0  0  0
  148.5530  158.6070  133.1080 C   0  0  0  0  0  0  0  0  0  0  0  0
  148.6400  157.2130  132.9670 C   0  0  0  0  0  0  0  0  0  0  0  0
  147.4790  156.3930  133.0460 C   0  0  0  0  0  0  0  0  0  0  0  0
  147.5770  154.9530  132.8930 N   0  0  0  0  0  0  0  0  0  0  0  0
  148.8760  154.3190  132.6330 C   0  0  0  0  0  0  0  0  0  0  0  0
  146.3820  154.1090  133.0030 C   0  0  0  0  0  0  0  0  0  0  0  0
  146.2210  157.0090  133.2730 C   0  0  0  0  0  0  0  0  0  0  0  0
  146.1700  158.3990  133.4290 C   0  0  0  0  0  0  0  0  0  0  0  0
  140.5412  158.7855  138.0936 H   0  0  0  0  0  0  0  0  0  0  0  0
  142.1397  158.2114  137.5089 H   0  0  0  0  0  0  0  0  0  0  0  0
  141.7611  159.9673  137.5089 H   0  0  0  0  0  0  0  0  0  0  0  0
  139.2530  157.5732  136.6427 H   0  0  0  0  0  0  0  0  0  0  0  0
  138.7376  158.9966  135.6683 H   0  0  0  0  0  0  0  0  0  0  0  0
  142.7940  160.8220  133.6860 H   0  0  0  0  0  0  0  0  0  0  0  0
  147.5886  161.3658  133.4518 H   0  0  0  0  0  0  0  0  0  0  0  0
  149.4506  159.2394  133.0422 H   0  0  0  0  0  0  0  0  0  0  0  0
  149.6210  156.7468  132.7927 H   0  0  0  0  0  0  0  0  0  0  0  0
  149.3653  154.0802  133.5888 H   0  0  0  0  0  0  0  0  0  0  0  0
  148.7239  153.3938  132.0577 H   0  0  0  0  0  0  0  0  0  0  0  0
  149.5118  155.0081  132.0577 H   0  0  0  0  0  0  0  0  0  0  0  0
  146.1469  153.9429  134.0647 H   0  0  0  0  0  0  0  0  0  0  0  0
  145.5334  154.6092  132.5134 H   0  0  0  0  0  0  0  0  0  0  0  0
  146.5697  153.1420  132.5134 H   0  0  0  0  0  0  0  0  0  0  0  0
  145.3029  156.4053  133.3254 H   0  0  0  0  0  0  0  0  0  0  0  0
  1  2  1  0
  2  3  1  0
  3  4  1  0
  4  5  2  0
  4  6  1  0
  2  7  1  0
  7  8  2  0
  7  9  1  0
  9 10  1  0
 10 11  2  0
 10 12  1  0
 12 13  1  0
 13 14  1  0
 14 15  1  0
 14 16  2  0
 13 17  2  0
 17 18  1  0
 18 19  2  0
 19 20  1  0
 20 21  2  0
 21 22  1  0
 22 23  1  0
 22 24  1  0
 21 25  1  0
 25 26  2  0
 26 12  1  0
 26 18  1  0
  1 27  1  0
  1 28  1  0
  1 29  1  0
  3 30  1  0
  3 31  1  0
 15 32  1  0
 17 33  1  0
 19 34  1  0
 20 35  1  0
 23 36  1  0
 23 37  1  0
 23 38  1  0
 24 39  1  0
 24 40  1  0
 24 41  1  0
 25 42  1  0
M  CHG  2   6  -1  15  -1
M  END
>  <UniqueID>  (40) 
40

>  <SMILES>  (40) 
CN(CC(=O)[O-])C(=O)OC(=O)n1c(C([NH-])=O)cc2ccc(N(C)C)cc21

>  <Energy>  (40) 
78.98823348886485

>  <Genealogy>  (40) 
CN(CC(=O)[O-])C(=O)OC(=O)n1c(C([NH-])=O)cc2ccc(N(C)C)cc21 (protonated)
CN(CC(=O)[O-])C(=O)OC(=O)n1c(C([NH-])=O)cc2ccc(N(C)C)cc21 (3D coordinates assigned)
CN(CC(=O)[O-])C(=O)OC(=O)n1c(C([NH-])=O)cc2ccc(N(C)C)cc21 (optimized conformer: 78.98823348886485 kcal/mol)

>  <smiles>  (40) 
CN(CC(=O)O)C(=O)OC(=O)n1c(C(N)=O)cc2ccc(N(C)C)cc21

>  <score_type>  (40) 
oracle

>  <origin>  (40) 
adg

>  <m_score__min__energy>  (40) 
-6.5300000000000002

>  <m_primary>  (40) 
energy

$$$$
43:0
     RDKit          3D

 36 38  0  0  0  0  0  0  0  0999 V2000
  142.2280  159.8580  133.2800 N   0  0  0  0  0  0  0  0  0  0  0  0
  141.6960  159.0040  134.2890 C   0  0  0  0  0  0  0  0  0  0  0  0
  141.2720  159.5070  135.3620 O   0  0  0  0  0  0  0  0  0  0  0  0
  141.6270  157.5460  134.0590 C   0  0  0  0  0  0  0  0  0  0  0  0
  142.6610  156.6620  134.3610 C   0  0  0  0  0  0  0  0  0  0  0  0
  142.2110  155.4230  133.9610 C   0  0  0  0  0  0  0  0  0  0  0  0
  142.8230  154.1760  134.0490 C   0  0  0  0  0  0  0  0  0  0  0  0
  142.1060  153.0570  133.5920 C   0  0  0  0  0  0  0  0  0  0  0  0
  140.7980  153.2020  133.0610 C   0  0  0  0  0  0  0  0  0  0  0  0
  140.0590  152.0400  132.6270 N   0  0  0  0  0  0  0  0  0  0  0  0
  140.9250  150.8550  132.5260 C   0  0  0  0  0  0  0  0  0  0  0  0
  140.1030  149.5650  132.3380 C   0  0  0  0  0  0  0  0  0  0  0  0
  140.3690  148.8070  131.0470 C   0  0  0  0  0  0  0  0  0  0  0  0
  139.0820  149.6000  131.2120 C   0  0  0  0  0  0  0  0  0  0  0  0
  140.2110  154.4870  132.9920 C   0  0  0  0  0  0  0  0  0  0  0  0
  140.9550  155.5830  133.4400 C   0  0  0  0  0  0  0  0  0  0  0  0
  140.5830  156.8800  133.4890 N   0  0  0  0  0  0  0  0  0  0  0  0
  139.3130  157.4180  133.0920 C   0  0  0  0  0  0  0  0  0  0  0  0
  138.2740  157.1040  133.7340 O   0  0  0  0  0  0  0  0  0  0  0  0
  139.2050  158.3390  131.9520 C   0  0  0  0  0  0  0  0  0  0  0  0
  140.2420  158.8070  131.4110 O   0  0  0  0  0  0  0  0  0  0  0  0
  137.9560  158.7120  131.4730 O   0  0  0  0  0  0  0  0  0  0  0  0
  142.0460  159.6720  132.2680 H   0  0  0  0  0  0  0  0  0  0  0  0
  143.6308  156.9025  134.8211 H   0  0  0  0  0  0  0  0  0  0  0  0
  143.8364  154.0696  134.4634 H   0  0  0  0  0  0  0  0  0  0  0  0
  142.5635  152.0582  133.6465 H   0  0  0  0  0  0  0  0  0  0  0  0
  139.6430  152.2340  131.6850 H   0  0  0  0  0  0  0  0  0  0  0  0
  139.2630  151.8450  133.2800 H   0  0  0  0  0  0  0  0  0  0  0  0
  141.5985  150.9776  131.6650 H   0  0  0  0  0  0  0  0  0  0  0  0
  141.4957  150.7655  133.4621 H   0  0  0  0  0  0  0  0  0  0  0  0
  140.0762  149.3020  133.4058 H   0  0  0  0  0  0  0  0  0  0  0  0
  141.1466  149.1586  130.3529 H   0  0  0  0  0  0  0  0  0  0  0  0
  140.6135  147.7650  130.7930 H   0  0  0  0  0  0  0  0  0  0  0  0
  138.9286  150.5253  130.6373 H   0  0  0  0  0  0  0  0  0  0  0  0
  138.0099  149.3693  131.1268 H   0  0  0  0  0  0  0  0  0  0  0  0
  139.1937  154.6210  132.5955 H   0  0  0  0  0  0  0  0  0  0  0  0
  1  2  1  0
  2  3  2  0
  2  4  1  0
  4  5  2  0
  5  6  1  0
  6  7  2  0
  7  8  1  0
  8  9  2  0
  9 10  1  0
 10 11  1  0
 11 12  1  0
 12 13  1  0
 13 14  1  0
  9 15  1  0
 15 16  2  0
 16 17  1  0
 17 18  1  0
 18 19  2  0
 18 20  1  0
 20 21  2  0
 20 22  1  0
 17  4  1  0
 16  6  1  0
 14 12  1  0
  1 23  1  0
  5 24  1  0
  7 25  1  0
  8 26  1  0
 10 27  1  0
 10 28  1  0
 11 29  1  0
 11 30  1  0
 12 31  1  0
 13 32  1  0
 13 33  1  0
 14 34  1  0
 14 35  1  0
 15 36  1  0
M  CHG  3   1  -1  10   1  22  -1
M  END
>  <UniqueID>  (41) 
41

>  <SMILES>  (41) 
[NH-]C(=O)c1cc2ccc([NH2+]CC3CC3)cc2n1C(=O)C(=O)[O-]

>  <Energy>  (41) 
339.96573970496416

>  <Genealogy>  (41) 
[NH-]C(=O)c1cc2ccc([NH2+]CC3CC3)cc2n1C(=O)C(=O)[O-] (protonated)
[NH-]C(=O)c1cc2ccc([NH2+]CC3CC3)cc2n1C(=O)C(=O)[O-] (3D coordinates assigned)
[NH-]C(=O)c1cc2ccc([NH2+]CC3CC3)cc2n1C(=O)C(=O)[O-] (nonaromatic ring conformer: 339.96573970496416 kcal/mol)

>  <smiles>  (41) 
NC(=O)c1cc2ccc(NCC3CC3)cc2n1C(=O)C(=O)O

>  <score_type>  (41) 
oracle

>  <origin>  (41) 
adg

>  <m_score__min__energy>  (41) 
-6.7599999999999998

>  <m_primary>  (41) 
energy

$$$$
44:0
     RDKit          3D

 48 49  0  0  0  0  0  0  0  0999 V2000
  148.8600  159.0130  130.0610 C   0  0  0  0  0  0  0  0  0  0  0  0
  148.6310  159.8770  131.3160 C   0  0  0  0  0  0  0  0  0  0  0  0
  149.4120  159.3120  132.5170 C   0  0  0  0  0  0  0  0  0  0  0  0
  149.1220  161.3050  131.0310 C   0  0  0  0  0  0  0  0  0  0  0  0
  147.2310  159.9640  131.6190 O   0  0  0  0  0  0  0  0  0  0  0  0
  146.6600  160.0450  132.8980 C   0  0  0  0  0  0  0  0  0  0  0  0
  147.0250  160.9330  133.7150 O   0  0  0  0  0  0  0  0  0  0  0  0
  145.6540  159.0930  133.2830 N   0  0  0  0  0  0  0  0  0  0  0  0
  144.3550  159.3480  133.6040 C   0  0  0  0  0  0  0  0  0  0  0  0
  143.7620  160.6920  133.7790 C   0  0  0  0  0  0  0  0  0  0  0  0
  144.5460  161.8690  133.5710 N   0  0  0  0  0  0  0  0  0  0  0  0
  142.5460  160.8120  134.0820 O   0  0  0  0  0  0  0  0  0  0  0  0
  143.6680  158.1590  133.8420 C   0  0  0  0  0  0  0  0  0  0  0  0
  144.5960  157.1600  133.6550 C   0  0  0  0  0  0  0  0  0  0  0  0
  144.4530  155.7790  133.7500 C   0  0  0  0  0  0  0  0  0  0  0  0
  145.5740  154.9790  133.4750 C   0  0  0  0  0  0  0  0  0  0  0  0
  146.8150  155.5680  133.1100 C   0  0  0  0  0  0  0  0  0  0  0  0
  147.9760  154.7700  132.8070 N   0  0  0  0  0  0  0  0  0  0  0  0
  148.0300  153.3080  132.8930 C   0  0  0  0  0  0  0  0  0  0  0  0
  149.3060  152.7530  132.2300 C   0  0  1  0  0  0  0  0  0  0  0  0
  150.3150  153.7310  132.2320 O   0  0  0  0  0  0  0  0  0  0  0  0
  149.7950  151.4680  132.9230 C   0  0  0  0  0  0  0  0  0  0  0  0
  151.0740  151.1210  132.4650 O   0  0  0  0  0  0  0  0  0  0  0  0
  146.9140  156.9750  133.0210 C   0  0  0  0  0  0  0  0  0  0  0  0
  145.7850  157.7470  133.3180 C   0  0  0  0  0  0  0  0  0  0  0  0
  149.1309  157.9908  130.3640 H   0  0  0  0  0  0  0  0  0  0  0  0
  147.9381  158.9855  129.4615 H   0  0  0  0  0  0  0  0  0  0  0  0
  149.6745  159.4458  129.4615 H   0  0  0  0  0  0  0  0  0  0  0  0
  148.9427  159.6515  133.4521 H   0  0  0  0  0  0  0  0  0  0  0  0
  149.3992  158.2127  132.4784 H   0  0  0  0  0  0  0  0  0  0  0  0
  150.4520  159.6681  132.4784 H   0  0  0  0  0  0  0  0  0  0  0  0
  149.3017  161.8276  131.9821 H   0  0  0  0  0  0  0  0  0  0  0  0
  150.0572  161.2627  130.4535 H   0  0  0  0  0  0  0  0  0  0  0  0
  148.3585  161.8468  130.4535 H   0  0  0  0  0  0  0  0  0  0  0  0
  145.5680  161.8110  133.3700 H   0  0  0  0  0  0  0  0  0  0  0  0
  144.1080  162.8120  133.6610 H   0  0  0  0  0  0  0  0  0  0  0  0
  142.6100  158.0436  134.1199 H   0  0  0  0  0  0  0  0  0  0  0  0
  143.4905  155.3274  134.0321 H   0  0  0  0  0  0  0  0  0  0  0  0
  145.4907  153.8843  133.5429 H   0  0  0  0  0  0  0  0  0  0  0  0
  148.8490  155.2580  132.5070 H   0  0  0  0  0  0  0  0  0  0  0  0
  148.0187  153.0110  133.9521 H   0  0  0  0  0  0  0  0  0  0  0  0
  147.1577  152.8973  132.3634 H   0  0  0  0  0  0  0  0  0  0  0  0
  149.0609  152.4918  131.1900 H   0  0  0  0  0  0  0  0  0  0  0  0
  151.1900  153.2600  132.2430 H   0  0  0  0  0  0  0  0  0  0  0  0
  149.8321  151.6341  134.0098 H   0  0  0  0  0  0  0  0  0  0  0  0
  149.0984  150.6496  132.6888 H   0  0  0  0  0  0  0  0  0  0  0  0
  151.3830  151.8670  131.8860 H   0  0  0  0  0  0  0  0  0  0  0  0
  147.8590  157.4535  132.7244 H   0  0  0  0  0  0  0  0  0  0  0  0
  1  2  1  0
  2  3  1  0
  2  4  1  0
  2  5  1  0
  5  6  1  0
  6  7  2  0
  6  8  1  0
  8  9  1  0
  9 10  1  0
 10 11  1  0
 10 12  2  0
  9 13  2  0
 13 14  1  0
 14 15  2  0
 15 16  1  0
 16 17  2  0
 17 18  1  0
 18 19  1  0
 19 20  1  0
 20 21  1  0
 20 22  1  0
 22 23  1  0
 17 24  1  0
 24 25  2  0
 25  8  1  0
 25 14  1  0
  1 26  1  0
  1 27  1  0
  1 28  1  0
  3 29  1  0
  3 30  1  0
  3 31  1  0
  4 32  1  0
  4 33  1  0
  4 34  1  0
 11 35  1  0
 11 36  1  0
 13 37  1  0
 15 38  1  0
 16 39  1  0
 18 40  1  0
 19 41  1  0
 19 42  1  0
 20 43  1  6
 21 44  1  0
 22 45  1  0
 22 46  1  0
 23 47  1  0
 24 48  1  0
M  END
>  <UniqueID>  (42) 
42

>  <SMILES>  (42) 
CC(C)(C)OC(=O)n1c(C(N)=O)cc2ccc(NC[C@@H](O)CO)cc21

>  <Energy>  (42) 
78.35680522180468

>  <Genealogy>  (42) 
CC(C)(C)OC(=O)n1c(C(N)=O)cc2ccc(NC[C@@H](O)CO)cc21 (chirality)
CC(C)(C)OC(=O)n1c(C(N)=O)cc2ccc(NC[C@@H](O)CO)cc21 (3D coordinates assigned)
CC(C)(C)OC(=O)n1c(C(N)=O)cc2ccc(NC[C@@H](O)CO)cc21 (optimized conformer: 78.35680522180468 kcal/mol)

>  <smiles>  (42) 
CC(C)(C)OC(=O)n1c(C(N)=O)cc2ccc(NCC(O)CO)cc21

>  <score_type>  (42) 
oracle

>  <origin>  (42) 
adg

>  <m_score__min__energy>  (42) 
-7.96

>  <m_primary>  (42) 
energy

$$$$
45:0
     RDKit          3D

 44 45  0  0  0  0  0  0  0  0999 V2000
  139.5870  149.4010  132.3410 C   0  0  0  0  0  0  0  0  0  0  0  0
  140.7790  150.2850  132.5610 C   0  0  0  0  0  0  0  0  0  0  0  0
  142.0830  149.7460  132.4340 C   0  0  0  0  0  0  0  0  0  0  0  0
  143.2130  150.5650  132.5930 C   0  0  0  0  0  0  0  0  0  0  0  0
  143.0080  151.9120  132.8760 C   0  0  0  0  0  0  0  0  0  0  0  0
  143.9200  152.9270  133.0540 C   0  0  0  0  0  0  0  0  0  0  0  0
  143.1600  154.0680  133.3050 C   0  0  0  0  0  0  0  0  0  0  0  0
  143.7530  155.3750  133.6530 C   0  0  0  0  0  0  0  0  0  0  0  0
  143.0180  156.5840  133.4810 N   0  0  0  0  0  0  0  0  0  0  0  0
  144.9060  155.4220  134.1600 O   0  0  0  0  0  0  0  0  0  0  0  0
  141.8280  153.7730  133.2690 N   0  0  0  0  0  0  0  0  0  0  0  0
  140.7190  154.6730  133.4140 C   0  0  0  0  0  0  0  0  0  0  0  0
  139.7630  154.6390  132.5920 O   0  0  0  0  0  0  0  0  0  0  0  0
  140.6920  155.5650  134.4880 O   0  0  0  0  0  0  0  0  0  0  0  0
  141.3710  155.3290  135.7160 C   0  0  0  0  0  0  0  0  0  0  0  0
  141.4520  156.5490  136.4440 O   0  0  0  0  0  0  0  0  0  0  0  0
  140.6770  157.6710  136.1280 C   0  0  0  0  0  0  0  0  0  0  0  0
  139.8490  158.1260  136.9680 O   0  0  0  0  0  0  0  0  0  0  0  0
  140.7800  158.2470  134.8070 N   0  0  2  0  0  0  0  0  0  0  0  0
  141.4520  159.5590  134.8210 C   0  0  0  0  0  0  0  0  0  0  0  0
  139.4620  158.2780  134.1300 C   0  0  0  0  0  0  0  0  0  0  0  0
  139.4600  157.6790  132.7090 C   0  0  0  0  0  0  0  0  0  0  0  0
  140.7770  157.4580  132.2820 O   0  0  0  0  0  0  0  0  0  0  0  0
  141.7530  152.4480  133.0100 C   0  0  0  0  0  0  0  0  0  0  0  0
  140.6090  151.6580  132.8380 C   0  0  0  0  0  0  0  0  0  0  0  0
  139.1735  149.0944  133.3131 H   0  0  0  0  0  0  0  0  0  0  0  0
  138.8217  149.9517  131.7743 H   0  0  0  0  0  0  0  0  0  0  0  0
  139.8918  148.5088  131.7743 H   0  0  0  0  0  0  0  0  0  0  0  0
  142.2116  148.6770  132.2090 H   0  0  0  0  0  0  0  0  0  0  0  0
  144.2289  150.1542  132.4968 H   0  0  0  0  0  0  0  0  0  0  0  0
  145.0166  152.8534  133.0079 H   0  0  0  0  0  0  0  0  0  0  0  0
  142.0400  156.6730  133.8360 H   0  0  0  0  0  0  0  0  0  0  0  0
  140.8173  154.5838  136.3060 H   0  0  0  0  0  0  0  0  0  0  0  0
  142.3835  154.9500  135.5133 H   0  0  0  0  0  0  0  0  0  0  0  0
  141.3920  157.6060  134.2460 H   0  0  0  0  0  0  0  0  0  0  0  0
  141.6147  159.8766  135.8615 H   0  0  0  0  0  0  0  0  0  0  0  0
  142.4208  159.4803  134.3060 H   0  0  0  0  0  0  0  0  0  0  0  0
  140.8220  160.2992  134.3060 H   0  0  0  0  0  0  0  0  0  0  0  0
  138.7470  157.7102  134.7434 H   0  0  0  0  0  0  0  0  0  0  0  0
  139.1893  159.3383  134.0235 H   0  0  0  0  0  0  0  0  0  0  0  0
  138.9140  156.7241  132.7166 H   0  0  0  0  0  0  0  0  0  0  0  0
  138.9695  158.3826  132.0203 H   0  0  0  0  0  0  0  0  0  0  0  0
  141.0180  156.5380  132.5650 H   0  0  0  0  0  0  0  0  0  0  0  0
  139.6035  152.0970  132.9169 H   0  0  0  0  0  0  0  0  0  0  0  0
  1  2  1  0
  2  3  2  0
  3  4  1  0
  4  5  2  0
  5  6  1  0
  6  7  2  0
  7  8  1  0
  8  9  1  0
  8 10  2  0
  7 11  1  0
 11 12  1  0
 12 13  2  0
 12 14  1  0
 14 15  1  0
 15 16  1  0
 16 17  1  0
 17 18  2  0
 17 19  1  0
 19 20  1  0
 19 21  1  0
 21 22  1  0
 22 23  1  0
 11 24  1  0
 24 25  2  0
 25  2  1  0
 24  5  1  0
  1 26  1  0
  1 27  1  0
  1 28  1  0
  3 29  1  0
  4 30  1  0
  6 31  1  0
  9 32  1  0
 15 33  1  0
 15 34  1  0
 19 35  1  6
 20 36  1  0
 20 37  1  0
 20 38  1  0
 21 39  1  0
 21 40  1  0
 22 41  1  0
 22 42  1  0
 23 43  1  0
 25 44  1  0
M  CHG  2   9  -1  19   1
M  END
>  <UniqueID>  (43) 
43

>  <SMILES>  (43) 
Cc1ccc2cc(C([NH-])=O)n(C(=O)OCOC(=O)[N@H+](C)CCO)c2c1

>  <Energy>  (43) 
80.47345598687794

>  <Genealogy>  (43) 
Cc1ccc2cc(C([NH-])=O)n(C(=O)OCOC(=O)[NH+](C)CCO)c2c1 (protonated)
Cc1ccc2cc(C([NH-])=O)n(C(=O)OCOC(=O)[N@H+](C)CCO)c2c1 (chirality)
Cc1ccc2cc(C([NH-])=O)n(C(=O)OCOC(=O)[N@H+](C)CCO)c2c1 (3D coordinates assigned)
Cc1ccc2cc(C([NH-])=O)n(C(=O)OCOC(=O)[N@H+](C)CCO)c2c1 (optimized conformer: 80.47345598687794 kcal/mol)

>  <smiles>  (43) 
Cc1ccc2cc(C(N)=O)n(C(=O)OCOC(=O)N(C)CCO)c2c1

>  <score_type>  (43) 
oracle

>  <origin>  (43) 
adg

>  <m_score__min__energy>  (43) 
-4.4900000000000002

>  <m_primary>  (43) 
energy

$$$$
46:0
     RDKit          3D

 54 55  0  0  0  0  0  0  0  0999 V2000
  139.6890  158.1660  132.4610 C   0  0  0  0  0  0  0  0  0  0  0  0
  140.7790  157.3560  133.0190 N   0  0  0  0  0  0  0  0  0  0  0  0
  140.5220  155.9520  133.3580 C   0  0  0  0  0  0  0  0  0  0  0  0
  142.0950  157.9310  133.2190 C   0  0  0  0  0  0  0  0  0  0  0  0
  142.2400  159.2900  133.6150 C   0  0  0  0  0  0  0  0  0  0  0  0
  143.5100  159.8590  133.7980 C   0  0  0  0  0  0  0  0  0  0  0  0
  144.6230  159.0580  133.5730 C   0  0  0  0  0  0  0  0  0  0  0  0
  145.9610  159.3640  133.6570 C   0  0  0  0  0  0  0  0  0  0  0  0
  146.6300  158.2020  133.2820 C   0  0  0  0  0  0  0  0  0  0  0  0
  148.0950  158.1410  133.1040 C   0  0  0  0  0  0  0  0  0  0  0  0
  148.6660  157.7160  131.8690 N   0  0  0  0  0  0  0  0  0  0  0  0
  148.8520  158.5250  134.0340 O   0  0  0  0  0  0  0  0  0  0  0  0
  145.7410  157.2060  133.0030 N   0  0  0  0  0  0  0  0  0  0  0  0
  146.0300  155.8550  132.6040 C   0  0  0  0  0  0  0  0  0  0  0  0
  146.7710  155.6350  131.6070 O   0  0  0  0  0  0  0  0  0  0  0  0
  145.4950  154.7860  133.3310 O   0  0  0  0  0  0  0  0  0  0  0  0
  144.3530  154.0440  132.9140 C   0  0  0  0  0  0  0  0  0  0  0  0
  144.5190  152.5640  133.2610 C   0  0  0  0  0  0  0  0  0  0  0  0
  145.1850  151.8790  132.2010 O   0  0  0  0  0  0  0  0  0  0  0  0
  146.5500  151.5670  132.2210 C   0  0  0  0  0  0  0  0  0  0  0  0
  146.9260  150.3650  132.1820 O   0  0  0  0  0  0  0  0  0  0  0  0
  147.5080  152.6350  132.2830 N   0  0  0  0  0  0  0  0  0  0  0  0
  148.9640  152.4610  132.4650 C   0  0  0  0  0  0  0  0  0  0  0  0
  149.2610  151.9540  133.8910 C   0  0  0  0  0  0  0  0  0  0  0  0
  149.5160  151.4610  131.4260 C   0  0  0  0  0  0  0  0  0  0  0  0
  149.6680  153.8270  132.2790 C   0  0  0  0  0  0  0  0  0  0  0  0
  148.8380  154.8730  132.7060 O   0  0  0  0  0  0  0  0  0  0  0  0
  144.5150  157.7510  133.1790 C   0  0  0  0  0  0  0  0  0  0  0  0
  143.2600  157.1510  133.0110 C   0  0  0  0  0  0  0  0  0  0  0  0
  139.1004  158.6034  133.2809 H   0  0  0  0  0  0  0  0  0  0  0  0
  140.1107  158.9716  131.8420 H   0  0  0  0  0  0  0  0  0  0  0  0
  139.0393  157.5298  131.8420 H   0  0  0  0  0  0  0  0  0  0  0  0
  140.5009  155.8368  134.4518 H   0  0  0  0  0  0  0  0  0  0  0  0
  139.5527  155.6449  132.9382 H   0  0  0  0  0  0  0  0  0  0  0  0
  141.3197  155.3215  132.9382 H   0  0  0  0  0  0  0  0  0  0  0  0
  141.3427  159.9043  133.7803 H   0  0  0  0  0  0  0  0  0  0  0  0
  143.6209  160.9079  134.1103 H   0  0  0  0  0  0  0  0  0  0  0  0
  146.4079  160.3233  133.9569 H   0  0  0  0  0  0  0  0  0  0  0  0
  148.5960  156.7210  131.5590 H   0  0  0  0  0  0  0  0  0  0  0  0
  143.4605  154.4371  133.4229 H   0  0  0  0  0  0  0  0  0  0  0  0
  144.2431  154.1434  131.8240 H   0  0  0  0  0  0  0  0  0  0  0  0
  145.1127  152.4716  134.1824 H   0  0  0  0  0  0  0  0  0  0  0  0
  143.5247  152.1168  133.4073 H   0  0  0  0  0  0  0  0  0  0  0  0
  147.1130  153.6020  132.2570 H   0  0  0  0  0  0  0  0  0  0  0  0
  148.8469  152.6608  134.6251 H   0  0  0  0  0  0  0  0  0  0  0  0
  148.7990  150.9658  134.0325 H   0  0  0  0  0  0  0  0  0  0  0  0
  150.3489  151.8737  134.0325 H   0  0  0  0  0  0  0  0  0  0  0  0
  149.9843  150.6126  131.9465 H   0  0  0  0  0  0  0  0  0  0  0  0
  148.6922  151.0950  130.7957 H   0  0  0  0  0  0  0  0  0  0  0  0
  150.2648  151.9630  130.7957 H   0  0  0  0  0  0  0  0  0  0  0  0
  150.5963  153.8384  132.8691 H   0  0  0  0  0  0  0  0  0  0  0  0
  149.8934  153.9669  131.2115 H   0  0  0  0  0  0  0  0  0  0  0  0
  148.8700  155.5600  131.9910 H   0  0  0  0  0  0  0  0  0  0  0  0
  143.1802  156.0925  132.7226 H   0  0  0  0  0  0  0  0  0  0  0  0
  1  2  1  0
  2  3  1  0
  2  4  1  0
  4  5  2  0
  5  6  1  0
  6  7  2  0
  7  8  1  0
  8  9  2  0
  9 10  1  0
 10 11  1  0
 10 12  2  0
  9 13  1  0
 13 14  1  0
 14 15  2  0
 14 16  1  0
 16 17  1  0
 17 18  1  0
 18 19  1  0
 19 20  1  0
 20 21  2  0
 20 22  1  0
 22 23  1  0
 23 24  1  0
 23 25  1  0
 23 26  1  0
 26 27  1  0
 13 28  1  0
 28 29  2  0
 29  4  1  0
 28  7  1  0
  1 30  1  0
  1 31  1  0
  1 32  1  0
  3 33  1  0
  3 34  1  0
  3 35  1  0
  5 36  1  0
  6 37  1  0
  8 38  1  0
 11 39  1  0
 17 40  1  0
 17 41  1  0
 18 42  1  0
 18 43  1  0
 22 44  1  0
 24 45  1  0
 24 46  1  0
 24 47  1  0
 25 48  1  0
 25 49  1  0
 25 50  1  0
 26 51  1  0
 26 52  1  0
 27 53  1  0
 29 54  1  0
M  CHG  1  11  -1
M  END
>  <UniqueID>  (44) 
44

>  <SMILES>  (44) 
CN(C)c1ccc2cc(C([NH-])=O)n(C(=O)OCCOC(=O)NC(C)(C)CO)c2c1

>  <Energy>  (44) 
82.58514477223801

>  <Genealogy>  (44) 
CN(C)c1ccc2cc(C([NH-])=O)n(C(=O)OCCOC(=O)NC(C)(C)CO)c2c1 (protonated)
CN(C)c1ccc2cc(C([NH-])=O)n(C(=O)OCCOC(=O)NC(C)(C)CO)c2c1 (3D coordinates assigned)
CN(C)c1ccc2cc(C([NH-])=O)n(C(=O)OCCOC(=O)NC(C)(C)CO)c2c1 (optimized conformer: 82.58514477223801 kcal/mol)

>  <smiles>  (44) 
CN(C)c1ccc2cc(C(N)=O)n(C(=O)OCCOC(=O)NC(C)(C)CO)c2c1

>  <score_type>  (44) 
oracle

>  <origin>  (44) 
adg

>  <m_score__min__energy>  (44) 
-6.5099999999999998

>  <m_primary>  (44) 
energy

$$$$
47:0
     RDKit          3D

 45 46  0  0  0  0  0  0  0  0999 V2000
  143.7140  154.0450  133.2130 C   0  0  0  0  0  0  0  0  0  0  0  0
  144.1910  154.9750  134.2850 C   0  0  0  0  0  0  0  0  0  0  0  0
  143.3820  155.3300  135.1840 O   0  0  0  0  0  0  0  0  0  0  0  0
  145.5520  155.4470  134.3190 N   0  0  0  0  0  0  0  0  0  0  0  0
  146.3520  155.2130  135.5310 C   0  0  0  0  0  0  0  0  0  0  0  0
  147.2510  154.0270  135.3520 C   0  0  0  0  0  0  0  0  0  0  0  0
  147.4190  153.2290  136.3130 O   0  0  0  0  0  0  0  0  0  0  0  0
  147.9010  153.7950  134.0940 N   0  0  0  0  0  0  0  0  0  0  0  0
  148.8580  152.7100  133.8880 C   0  0  0  0  0  0  0  0  0  0  0  0
  149.1250  152.5000  132.4000 C   0  0  0  0  0  0  0  0  0  0  0  0
  149.1170  153.7380  131.7470 O   0  0  0  0  0  0  0  0  0  0  0  0
  146.1490  156.1110  133.1820 C   0  0  0  0  0  0  0  0  0  0  0  0
  146.4400  155.4480  132.1490 O   0  0  0  0  0  0  0  0  0  0  0  0
  146.4070  157.5240  133.1930 N   0  0  0  0  0  0  0  0  0  0  0  0
  147.5830  158.1700  132.9500 C   0  0  0  0  0  0  0  0  0  0  0  0
  148.8470  157.5300  132.5380 C   0  0  0  0  0  0  0  0  0  0  0  0
  148.9830  156.1120  132.6060 N   0  0  0  0  0  0  0  0  0  0  0  0
  149.8180  158.2250  132.1440 O   0  0  0  0  0  0  0  0  0  0  0  0
  147.4220  159.5470  133.0950 C   0  0  0  0  0  0  0  0  0  0  0  0
  146.0970  159.7260  133.4220 C   0  0  0  0  0  0  0  0  0  0  0  0
  145.3910  160.8930  133.7000 C   0  0  0  0  0  0  0  0  0  0  0  0
  144.0330  160.7750  134.0380 C   0  0  0  0  0  0  0  0  0  0  0  0
  143.4010  159.5040  134.0810 C   0  0  0  0  0  0  0  0  0  0  0  0
  141.9600  159.3920  134.5090 C   0  0  0  0  0  0  0  0  0  0  0  0
  141.4140  158.1990  134.0660 F   0  0  0  0  0  0  0  0  0  0  0  0
  141.8520  159.4310  135.8880 F   0  0  0  0  0  0  0  0  0  0  0  0
  141.2420  160.4430  133.9710 F   0  0  0  0  0  0  0  0  0  0  0  0
  144.1600  158.3410  133.8150 C   0  0  0  0  0  0  0  0  0  0  0  0
  145.5070  158.4910  133.4690 C   0  0  0  0  0  0  0  0  0  0  0  0
  143.2583  153.1565  133.6745 H   0  0  0  0  0  0  0  0  0  0  0  0
  142.9675  154.5575  132.5885 H   0  0  0  0  0  0  0  0  0  0  0  0
  144.5658  153.7377  132.5885 H   0  0  0  0  0  0  0  0  0  0  0  0
  146.9650  156.1030  135.7364 H   0  0  0  0  0  0  0  0  0  0  0  0
  145.6706  155.0164  136.3719 H   0  0  0  0  0  0  0  0  0  0  0  0
  147.7640  154.4840  133.3200 H   0  0  0  0  0  0  0  0  0  0  0  0
  149.8027  152.9615  134.3922 H   0  0  0  0  0  0  0  0  0  0  0  0
  148.4368  151.7835  134.3055 H   0  0  0  0  0  0  0  0  0  0  0  0
  150.1065  152.0214  132.2672 H   0  0  0  0  0  0  0  0  0  0  0  0
  148.3427  151.8547  131.9738 H   0  0  0  0  0  0  0  0  0  0  0  0
  148.2260  154.1370  131.9250 H   0  0  0  0  0  0  0  0  0  0  0  0
  148.5750  155.4980  131.8670 H   0  0  0  0  0  0  0  0  0  0  0  0
  148.1902  160.3249  132.9739 H   0  0  0  0  0  0  0  0  0  0  0  0
  145.8813  161.8767  133.6563 H   0  0  0  0  0  0  0  0  0  0  0  0
  143.4514  161.6787  134.2725 H   0  0  0  0  0  0  0  0  0  0  0  0
  143.7024  157.3427  133.8786 H   0  0  0  0  0  0  0  0  0  0  0  0
  1  2  1  0
  2  3  2  0
  2  4  1  0
  4  5  1  0
  5  6  1  0
  6  7  2  0
  6  8  1  0
  8  9  1  0
  9 10  1  0
 10 11  1  0
  4 12  1  0
 12 13  2  0
 12 14  1  0
 14 15  1  0
 15 16  1  0
 16 17  1  0
 16 18  2  0
 15 19  2  0
 19 20  1  0
 20 21  2  0
 21 22  1  0
 22 23  2  0
 23 24  1  0
 24 25  1  0
 24 26  1  0
 24 27  1  0
 23 28  1  0
 28 29  2  0
 29 14  1  0
 29 20  1  0
  1 30  1  0
  1 31  1  0
  1 32  1  0
  5 33  1  0
  5 34  1  0
  8 35  1  0
  9 36  1  0
  9 37  1  0
 10 38  1  0
 10 39  1  0
 11 40  1  0
 17 41  1  0
 19 42  1  0
 21 43  1  0
 22 44  1  0
 28 45  1  0
M  CHG  1  17  -1
M  END
>  <UniqueID>  (45) 
45

>  <SMILES>  (45) 
CC(=O)N(CC(=O)NCCO)C(=O)n1c(C([NH-])=O)cc2ccc(C(F)(F)F)cc21

>  <Energy>  (45) 
78.96236680119371

>  <Genealogy>  (45) 
CC(=O)N(CC(=O)NCCO)C(=O)n1c(C([NH-])=O)cc2ccc(C(F)(F)F)cc21 (protonated)
CC(=O)N(CC(=O)NCCO)C(=O)n1c(C([NH-])=O)cc2ccc(C(F)(F)F)cc21 (3D coordinates assigned)
CC(=O)N(CC(=O)NCCO)C(=O)n1c(C([NH-])=O)cc2ccc(C(F)(F)F)cc21 (optimized conformer: 78.96236680119371 kcal/mol)

>  <smiles>  (45) 
CC(=O)N(CC(=O)NCCO)C(=O)n1c(C(N)=O)cc2ccc(C(F)(F)F)cc21

>  <score_type>  (45) 
oracle

>  <origin>  (45) 
adg

>  <m_score__min__energy>  (45) 
-5.75

>  <m_primary>  (45) 
energy

$$$$
48:0
     RDKit          3D

 45 47  0  0  0  0  0  0  0  0999 V2000
  149.4100  153.5630  132.2470 C   0  0  0  0  0  0  0  0  0  0  0  0
  148.0910  154.1720  132.5260 N   0  0  2  0  0  0  0  0  0  0  0  0
  148.2530  155.3810  133.3190 C   0  0  0  0  0  0  0  0  0  0  0  0
  148.0980  155.3480  134.5340 O   0  0  0  0  0  0  0  0  0  0  0  0
  148.6400  156.6880  132.6740 C   0  0  0  0  0  0  0  0  0  0  0  0
  147.6260  157.7530  132.9930 C   0  0  0  0  0  0  0  0  0  0  0  0
  148.0450  159.0890  133.2140 C   0  0  0  0  0  0  0  0  0  0  0  0
  147.1030  160.1060  133.4480 C   0  0  0  0  0  0  0  0  0  0  0  0
  145.7550  159.7570  133.4520 C   0  0  0  0  0  0  0  0  0  0  0  0
  144.6380  160.5450  133.6120 C   0  0  0  0  0  0  0  0  0  0  0  0
  143.5540  159.6760  133.5010 C   0  0  0  0  0  0  0  0  0  0  0  0
  142.1510  160.0990  133.6920 C   0  0  0  0  0  0  0  0  0  0  0  0
  141.2090  160.0150  132.6250 N   0  0  0  0  0  0  0  0  0  0  0  0
  141.7680  160.4980  134.8230 O   0  0  0  0  0  0  0  0  0  0  0  0
  143.9830  158.4020  133.2740 N   0  0  0  0  0  0  0  0  0  0  0  0
  143.1820  157.2400  133.0070 C   0  0  0  0  0  0  0  0  0  0  0  0
  142.1470  157.3300  132.2950 O   0  0  0  0  0  0  0  0  0  0  0  0
  143.5290  156.0090  133.5510 O   0  0  0  0  0  0  0  0  0  0  0  0
  145.3340  158.4680  133.2500 C   0  0  0  0  0  0  0  0  0  0  0  0
  146.2480  157.4390  132.9990 C   0  0  0  0  0  0  0  0  0  0  0  0
  147.0860  153.2590  133.1450 C   0  0  0  0  0  0  0  0  0  0  0  0
  145.7220  153.9370  133.3660 C   0  0  0  0  0  0  0  0  0  0  0  0
  144.7610  153.2840  132.3900 C   0  0  0  0  0  0  0  0  0  0  0  0
  145.2890  151.8770  132.1820 C   0  0  0  0  0  0  0  0  0  0  0  0
  146.8000  151.9620  132.3550 C   0  0  0  0  0  0  0  0  0  0  0  0
  149.9145  153.3301  133.1963 H   0  0  0  0  0  0  0  0  0  0  0  0
  149.2716  152.6376  131.6686 H   0  0  0  0  0  0  0  0  0  0  0  0
  150.0246  154.2685  131.6686 H   0  0  0  0  0  0  0  0  0  0  0  0
  147.7000  154.4510  131.5950 H   0  0  0  0  0  0  0  0  0  0  0  0
  149.6246  157.0007  133.0518 H   0  0  0  0  0  0  0  0  0  0  0  0
  148.6793  156.5490  131.5835 H   0  0  0  0  0  0  0  0  0  0  0  0
  149.1177  159.3324  133.2023 H   0  0  0  0  0  0  0  0  0  0  0  0
  147.4208  161.1446  133.6224 H   0  0  0  0  0  0  0  0  0  0  0  0
  144.6073  161.6301  133.7897 H   0  0  0  0  0  0  0  0  0  0  0  0
  141.3500  159.3450  131.8370 H   0  0  0  0  0  0  0  0  0  0  0  0
  145.9029  156.4116  132.8111 H   0  0  0  0  0  0  0  0  0  0  0  0
  147.5704  152.9996  134.0979 H   0  0  0  0  0  0  0  0  0  0  0  0
  145.3810  153.7794  134.3999 H   0  0  0  0  0  0  0  0  0  0  0  0
  145.7832  155.0230  133.2020 H   0  0  0  0  0  0  0  0  0  0  0  0
  143.7454  153.2552  132.8115 H   0  0  0  0  0  0  0  0  0  0  0  0
  144.6992  153.8410  131.4434 H   0  0  0  0  0  0  0  0  0  0  0  0
  144.8574  151.1933  132.9278 H   0  0  0  0  0  0  0  0  0  0  0  0
  145.0198  151.4900  131.1882 H   0  0  0  0  0  0  0  0  0  0  0  0
  147.1669  151.0889  132.9146 H   0  0  0  0  0  0  0  0  0  0  0  0
  147.3092  151.9730  131.3800 H   0  0  0  0  0  0  0  0  0  0  0  0
  1  2  1  0
  2  3  1  0
  3  4  2  0
  3  5  1  0
  5  6  1  0
  6  7  2  0
  7  8  1  0
  8  9  2  0
  9 10  1  0
 10 11  2  0
 11 12  1  0
 12 13  1  0
 12 14  2  0
 11 15  1  0
 15 16  1  0
 16 17  2  0
 16 18  1  0
 15 19  1  0
 19 20  2  0
  2 21  1  0
 21 22  1  0
 22 23  1  0
 23 24  1  0
 24 25  1  0
 20  6  1  0
 25 21  1  0
 19  9  1  0
  1 26  1  0
  1 27  1  0
  1 28  1  0
  2 29  1  6
  5 30  1  0
  5 31  1  0
  7 32  1  0
  8 33  1  0
 10 34  1  0
 13 35  1  0
 20 36  1  0
 21 37  1  0
 22 38  1  0
 22 39  1  0
 23 40  1  0
 23 41  1  0
 24 42  1  0
 24 43  1  0
 25 44  1  0
 25 45  1  0
M  CHG  3   2   1  13  -1  18  -1
M  END
>  <UniqueID>  (46) 
46

>  <SMILES>  (46) 
C[N@H+](C(=O)Cc1ccc2cc(C([NH-])=O)n(C(=O)[O-])c2c1)C1CCCC1

>  <Energy>  (46) 
91.86118195499395

>  <Genealogy>  (46) 
C[NH+](C(=O)Cc1ccc2cc(C([NH-])=O)n(C(=O)[O-])c2c1)C1CCCC1 (protonated)
C[N@H+](C(=O)Cc1ccc2cc(C([NH-])=O)n(C(=O)[O-])c2c1)C1CCCC1 (chirality)
C[N@H+](C(=O)Cc1ccc2cc(C([NH-])=O)n(C(=O)[O-])c2c1)C1CCCC1 (3D coordinates assigned)
C[N@H+](C(=O)Cc1ccc2cc(C([NH-])=O)n(C(=O)[O-])c2c1)C1CCCC1 (nonaromatic ring conformer: 91.86118195499395 kcal/mol)

>  <smiles>  (46) 
CN(C(=O)Cc1ccc2cc(C(N)=O)n(C(=O)O)c2c1)C1CCCC1

>  <score_type>  (46) 
oracle

>  <origin>  (46) 
adg

>  <m_score__min__energy>  (46) 
-8.2100000000000009

>  <m_primary>  (46) 
energy

$$$$
49:0
     RDKit          3D

 33 34  0  0  0  0  0  0  0  0999 V2000
  149.7250  157.9070  131.8620 C   0  0  0  0  0  0  0  0  0  0  0  0
  148.9300  158.9750  132.0090 C   0  0  0  0  0  0  0  0  0  0  0  0
  148.8850  160.0200  130.9550 C   0  0  0  0  0  0  0  0  0  0  0  0
  149.2010  159.7480  129.7640 O   0  0  0  0  0  0  0  0  0  0  0  0
  148.4810  161.3140  131.2600 O   0  0  0  0  0  0  0  0  0  0  0  0
  148.1060  159.1170  133.2370 C   0  0  0  0  0  0  0  0  0  0  0  0
  148.5190  159.8280  134.1930 O   0  0  0  0  0  0  0  0  0  0  0  0
  146.8370  158.4540  133.3610 N   0  0  0  0  0  0  0  0  0  0  0  0
  145.6050  159.0250  133.4690 C   0  0  0  0  0  0  0  0  0  0  0  0
  145.3350  160.4730  133.5920 C   0  0  0  0  0  0  0  0  0  0  0  0
  146.4210  161.3880  133.7290 N   0  0  0  0  0  0  0  0  0  0  0  0
  144.1570  160.9140  133.5580 O   0  0  0  0  0  0  0  0  0  0  0  0
  144.6140  158.0450  133.5030 C   0  0  0  0  0  0  0  0  0  0  0  0
  145.2830  156.8450  133.4080 C   0  0  0  0  0  0  0  0  0  0  0  0
  144.7930  155.5430  133.3800 C   0  0  0  0  0  0  0  0  0  0  0  0
  145.7190  154.4930  133.2490 C   0  0  0  0  0  0  0  0  0  0  0  0
  147.1020  154.7680  133.1430 C   0  0  0  0  0  0  0  0  0  0  0  0
  148.0390  153.6850  133.0010 C   0  0  0  0  0  0  0  0  0  0  0  0
  148.8260  152.7800  132.8830 C   0  0  0  0  0  0  0  0  0  0  0  0
  149.7840  151.6790  132.7400 C   0  0  0  0  0  0  0  0  0  0  0  0
  149.4530  150.6390  133.6180 O   0  0  0  0  0  0  0  0  0  0  0  0
  147.5670  156.0970  133.1730 C   0  0  0  0  0  0  0  0  0  0  0  0
  146.6230  157.1200  133.3190 C   0  0  0  0  0  0  0  0  0  0  0  0
  149.7573  157.1337  132.6436 H   0  0  0  0  0  0  0  0  0  0  0  0
  150.3455  157.8033  130.9597 H   0  0  0  0  0  0  0  0  0  0  0  0
  147.2510  161.3330  133.0980 H   0  0  0  0  0  0  0  0  0  0  0  0
  143.5280  158.1978  133.5878 H   0  0  0  0  0  0  0  0  0  0  0  0
  143.7145  155.3413  133.4580 H   0  0  0  0  0  0  0  0  0  0  0  0
  145.3655  153.4515  133.2288 H   0  0  0  0  0  0  0  0  0  0  0  0
  149.7575  151.3050  131.7059 H   0  0  0  0  0  0  0  0  0  0  0  0
  150.7934  152.0454  132.9784 H   0  0  0  0  0  0  0  0  0  0  0  0
  148.4850  150.7340  133.8220 H   0  0  0  0  0  0  0  0  0  0  0  0
  148.6396  156.3242  133.0844 H   0  0  0  0  0  0  0  0  0  0  0  0
  1  2  2  0
  2  3  1  0
  3  4  2  0
  3  5  1  0
  2  6  1  0
  6  7  2  0
  6  8  1  0
  8  9  1  0
  9 10  1  0
 10 11  1  0
 10 12  2  0
  9 13  2  0
 13 14  1  0
 14 15  2  0
 15 16  1  0
 16 17  2  0
 17 18  1  0
 18 19  3  0
 19 20  1  0
 20 21  1  0
 17 22  1  0
 22 23  2  0
 23  8  1  0
 23 14  1  0
  1 24  1  0
  1 25  1  0
 11 26  1  0
 13 27  1  0
 15 28  1  0
 16 29  1  0
 20 30  1  0
 20 31  1  0
 21 32  1  0
 22 33  1  0
M  CHG  2   5  -1  11  -1
M  END
>  <UniqueID>  (47) 
47

>  <SMILES>  (47) 
C=C(C(=O)[O-])C(=O)n1c(C([NH-])=O)cc2ccc(C#CCO)cc21

>  <Energy>  (47) 
69.3980344322793

>  <Genealogy>  (47) 
C=C(C(=O)[O-])C(=O)n1c(C([NH-])=O)cc2ccc(C#CCO)cc21 (protonated)
C=C(C(=O)[O-])C(=O)n1c(C([NH-])=O)cc2ccc(C#CCO)cc21 (3D coordinates assigned)
C=C(C(=O)[O-])C(=O)n1c(C([NH-])=O)cc2ccc(C#CCO)cc21 (optimized conformer: 69.3980344322793 kcal/mol)

>  <smiles>  (47) 
C=C(C(=O)O)C(=O)n1c(C(N)=O)cc2ccc(C#CCO)cc21

>  <score_type>  (47) 
oracle

>  <origin>  (47) 
adg

>  <m_score__min__energy>  (47) 
-6.9400000000000004

>  <m_primary>  (47) 
energy

$$$$
50:0
     RDKit          3D

 35 36  0  0  0  0  0  0  0  0999 V2000
  139.3430  157.1440  133.3320 C   0  0  0  0  0  0  0  0  0  0  0  0
  140.2350  158.3540  133.0380 C   0  0  2  0  0  0  0  0  0  0  0  0
  140.4700  159.1230  134.2580 N   0  0  0  0  0  0  0  0  0  0  0  0
  141.7110  159.6560  134.7480 C   0  0  0  0  0  0  0  0  0  0  0  0
  142.0550  159.3610  135.9230 O   0  0  0  0  0  0  0  0  0  0  0  0
  142.6000  160.5390  133.9550 C   0  0  0  0  0  0  0  0  0  0  0  0
  142.1700  161.6030  133.4370 O   0  0  0  0  0  0  0  0  0  0  0  0
  143.9800  160.1870  133.7710 N   0  0  0  0  0  0  0  0  0  0  0  0
  145.0680  161.0000  133.8830 C   0  0  0  0  0  0  0  0  0  0  0  0
  145.0380  162.4610  134.1070 C   0  0  0  0  0  0  0  0  0  0  0  0
  145.9590  163.0880  134.9950 N   0  0  0  0  0  0  0  0  0  0  0  0
  144.1690  163.1640  133.5250 O   0  0  0  0  0  0  0  0  0  0  0  0
  146.2420  160.2660  133.7160 C   0  0  0  0  0  0  0  0  0  0  0  0
  145.8340  158.9690  133.5000 C   0  0  0  0  0  0  0  0  0  0  0  0
  146.5830  157.8140  133.3050 C   0  0  0  0  0  0  0  0  0  0  0  0
  145.8940  156.5980  133.1490 C   0  0  0  0  0  0  0  0  0  0  0  0
  144.4750  156.5590  133.1810 C   0  0  0  0  0  0  0  0  0  0  0  0
  143.7500  155.2430  133.0720 C   0  0  0  0  0  0  0  0  0  0  0  0
  144.0350  154.6250  131.8670 F   0  0  0  0  0  0  0  0  0  0  0  0
  142.3880  155.4660  133.1520 F   0  0  0  0  0  0  0  0  0  0  0  0
  144.1280  154.3910  134.0960 F   0  0  0  0  0  0  0  0  0  0  0  0
  143.7520  157.7530  133.4080 C   0  0  0  0  0  0  0  0  0  0  0  0
  144.4640  158.9490  133.5420 C   0  0  0  0  0  0  0  0  0  0  0  0
  139.5710  159.2350  132.0220 C   0  0  0  0  0  0  0  0  0  0  0  0
  139.5360  160.4840  132.1850 O   0  0  0  0  0  0  0  0  0  0  0  0
  138.9570  158.6730  130.9100 O   0  0  0  0  0  0  0  0  0  0  0  0
  139.2476  157.0146  134.4202 H   0  0  0  0  0  0  0  0  0  0  0  0
  138.3475  157.3072  132.8935 H   0  0  0  0  0  0  0  0  0  0  0  0
  139.7934  156.2413  132.8935 H   0  0  0  0  0  0  0  0  0  0  0  0
  141.1983  157.9931  132.6485 H   0  0  0  0  0  0  0  0  0  0  0  0
  146.9860  163.0630  134.8110 H   0  0  0  0  0  0  0  0  0  0  0  0
  147.2747  160.6433  133.7497 H   0  0  0  0  0  0  0  0  0  0  0  0
  147.6819  157.8503  133.2737 H   0  0  0  0  0  0  0  0  0  0  0  0
  146.4606  155.6669  133.0006 H   0  0  0  0  0  0  0  0  0  0  0  0
  142.6543  157.7412  133.4776 H   0  0  0  0  0  0  0  0  0  0  0  0
  1  2  1  0
  2  3  1  0
  3  4  1  0
  4  5  2  0
  4  6  1  0
  6  7  2  0
  6  8  1  0
  8  9  1  0
  9 10  1  0
 10 11  1  0
 10 12  2  0
  9 13  2  0
 13 14  1  0
 14 15  2  0
 15 16  1  0
 16 17  2  0
 17 18  1  0
 18 19  1  0
 18 20  1  0
 18 21  1  0
 17 22  1  0
 22 23  2  0
  2 24  1  0
 24 25  2  0
 24 26  1  0
 23  8  1  0
 23 14  1  0
  1 27  1  0
  1 28  1  0
  1 29  1  0
  2 30  1  6
 11 31  1  0
 13 32  1  0
 15 33  1  0
 16 34  1  0
 22 35  1  0
M  CHG  3   3  -1  11  -1  26  -1
M  END
>  <UniqueID>  (48) 
48

>  <SMILES>  (48) 
C[C@H]([N-]C(=O)C(=O)n1c(C([NH-])=O)cc2ccc(C(F)(F)F)cc21)C(=O)[O-]

>  <Energy>  (48) 
74.36883879232269

>  <Genealogy>  (48) 
CC([N-]C(=O)C(=O)n1c(C([NH-])=O)cc2ccc(C(F)(F)F)cc21)C(=O)[O-] (protonated)
C[C@H]([N-]C(=O)C(=O)n1c(C([NH-])=O)cc2ccc(C(F)(F)F)cc21)C(=O)[O-] (chirality)
C[C@H]([N-]C(=O)C(=O)n1c(C([NH-])=O)cc2ccc(C(F)(F)F)cc21)C(=O)[O-] (3D coordinates assigned)
C[C@H]([N-]C(=O)C(=O)n1c(C([NH-])=O)cc2ccc(C(F)(F)F)cc21)C(=O)[O-] (optimized conformer: 74.36883879232269 kcal/mol)

>  <smiles>  (48) 
CC(NC(=O)C(=O)n1c(C(N)=O)cc2ccc(C(F)(F)F)cc21)C(=O)O

>  <score_type>  (48) 
oracle

>  <origin>  (48) 
adg

>  <m_score__min__energy>  (48) 
-7.1699999999999999

>  <m_primary>  (48) 
energy

$$$$
51:0
     RDKit          3D

 43 44  0  0  0  0  0  0  0  0999 V2000
  138.9700  148.7750  129.1350 C   0  0  0  0  0  0  0  0  0  0  0  0
  139.0820  147.7270  130.2370 C   0  0  0  0  0  0  0  0  0  0  0  0
  139.6990  148.2790  131.3970 O   0  0  0  0  0  0  0  0  0  0  0  0
  139.5130  149.6020  131.8140 C   0  0  0  0  0  0  0  0  0  0  0  0
  138.3580  150.1080  131.8620 O   0  0  0  0  0  0  0  0  0  0  0  0
  140.6980  150.4250  132.2080 C   0  0  0  0  0  0  0  0  0  0  0  0
  140.2690  151.7190  132.7390 N   0  0  0  0  0  0  0  0  0  0  0  0
  141.1450  152.8420  132.9600 C   0  0  0  0  0  0  0  0  0  0  0  0
  142.5600  152.6970  132.9800 C   0  0  0  0  0  0  0  0  0  0  0  0
  143.3930  153.8100  133.1890 C   0  0  0  0  0  0  0  0  0  0  0  0
  142.7930  155.0500  133.3780 C   0  0  0  0  0  0  0  0  0  0  0  0
  143.3580  156.2880  133.5860 C   0  0  0  0  0  0  0  0  0  0  0  0
  142.2850  157.1700  133.7020 C   0  0  0  0  0  0  0  0  0  0  0  0
  142.4170  158.6090  134.0220 C   0  0  0  0  0  0  0  0  0  0  0  0
  142.0870  159.6080  133.0550 N   0  0  0  0  0  0  0  0  0  0  0  0
  142.8450  158.9680  135.1510 O   0  0  0  0  0  0  0  0  0  0  0  0
  141.1050  156.5000  133.5670 N   0  0  0  0  0  0  0  0  0  0  0  0
  139.7750  157.0420  133.5740 C   0  0  0  0  0  0  0  0  0  0  0  0
  139.1370  157.1170  134.6580 O   0  0  0  0  0  0  0  0  0  0  0  0
  139.1030  157.4440  132.2980 C   0  0  0  0  0  0  0  0  0  0  0  0
  138.4510  158.6740  132.4990 O   0  0  0  0  0  0  0  0  0  0  0  0
  139.2390  159.8610  131.5620 P   0  0  0  0  0  0  0  0  0  0  0  0
  140.1890  159.2030  130.5870 O   0  0  0  0  0  0  0  0  0  0  0  0
  138.1060  160.7880  130.7110 O   0  0  0  0  0  0  0  0  0  0  0  0
  140.1180  160.8760  132.5890 O   0  0  0  0  0  0  0  0  0  0  0  0
  141.4330  155.2060  133.3730 C   0  0  0  0  0  0  0  0  0  0  0  0
  140.5780  154.1220  133.1560 C   0  0  0  0  0  0  0  0  0  0  0  0
  138.8634  149.7722  129.5868 H   0  0  0  0  0  0  0  0  0  0  0  0
  139.8760  148.7498  128.5116 H   0  0  0  0  0  0  0  0  0  0  0  0
  138.0898  148.5589  128.5116 H   0  0  0  0  0  0  0  0  0  0  0  0
  138.0752  147.3697  130.4991 H   0  0  0  0  0  0  0  0  0  0  0  0
  139.6997  146.8937  129.8708 H   0  0  0  0  0  0  0  0  0  0  0  0
  141.2708  149.8891  132.9792 H   0  0  0  0  0  0  0  0  0  0  0  0
  141.3246  150.5947  131.3200 H   0  0  0  0  0  0  0  0  0  0  0  0
  139.2560  151.8230  132.9790 H   0  0  0  0  0  0  0  0  0  0  0  0
  143.0072  151.7032  132.8303 H   0  0  0  0  0  0  0  0  0  0  0  0
  144.4877  153.7030  133.2026 H   0  0  0  0  0  0  0  0  0  0  0  0
  144.4293  156.5299  133.6476 H   0  0  0  0  0  0  0  0  0  0  0  0
  141.6710  159.3560  132.1320 H   0  0  0  0  0  0  0  0  0  0  0  0
  142.2150  160.6190  133.2820 H   0  0  0  0  0  0  0  0  0  0  0  0
  139.8542  157.5492  131.5014 H   0  0  0  0  0  0  0  0  0  0  0  0
  138.3724  156.6769  132.0017 H   0  0  0  0  0  0  0  0  0  0  0  0
  139.4871  154.2618  133.1381 H   0  0  0  0  0  0  0  0  0  0  0  0
  1  2  1  0
  2  3  1  0
  3  4  1  0
  4  5  2  0
  4  6  1  0
  6  7  1  0
  7  8  1  0
  8  9  2  0
  9 10  1  0
 10 11  2  0
 11 12  1  0
 12 13  2  0
 13 14  1  0
 14 15  1  0
 14 16  2  0
 13 17  1  0
 17 18  1  0
 18 19  2  0
 18 20  1  0
 20 21  1  0
 21 22  1  0
 22 23  2  0
 22 24  1  0
 22 25  1  0
 17 26  1  0
 26 27  2  0
 27  8  1  0
 26 11  1  0
  1 28  1  0
  1 29  1  0
  1 30  1  0
  2 31  1  0
  2 32  1  0
  6 33  1  0
  6 34  1  0
  7 35  1  0
  9 36  1  0
 10 37  1  0
 12 38  1  0
 15 39  1  0
 15 40  1  0
 20 41  1  0
 20 42  1  0
 27 43  1  0
M  CHG  2  24  -1  25  -1
M  END
>  <UniqueID>  (49) 
49

>  <SMILES>  (49) 
CCOC(=O)CNc1ccc2cc(C(N)=O)n(C(=O)COP(=O)([O-])[O-])c2c1

>  <Energy>  (49) 
74.89598880850193

>  <Genealogy>  (49) 
CCOC(=O)CNc1ccc2cc(C(N)=O)n(C(=O)COP(=O)([O-])[O-])c2c1 (protonated)
CCOC(=O)CNc1ccc2cc(C(N)=O)n(C(=O)COP(=O)([O-])[O-])c2c1 (3D coordinates assigned)
CCOC(=O)CNc1ccc2cc(C(N)=O)n(C(=O)COP(=O)([O-])[O-])c2c1 (optimized conformer: 74.89598880850193 kcal/mol)

>  <smiles>  (49) 
CCOC(=O)CNc1ccc2cc(C(N)=O)n(C(=O)COP(=O)(O)O)c2c1

>  <score_type>  (49) 
oracle

>  <origin>  (49) 
adg

>  <m_score__min__energy>  (49) 
-6.9000000000000004

>  <m_primary>  (49) 
energy

$$$$
52:0
     RDKit          3D

 52 53  0  0  0  0  0  0  0  0999 V2000
  143.3630  155.3740  134.3320 C   0  0  0  0  0  0  0  0  0  0  0  0
  143.5150  156.8190  134.8170 C   0  0  2  0  0  0  0  0  0  0  0  0
  142.3940  157.1610  135.6910 N   0  0  0  0  0  0  0  0  0  0  0  0
  141.1690  156.4240  135.7370 C   0  0  0  0  0  0  0  0  0  0  0  0
  141.0130  155.4940  136.5750 O   0  0  0  0  0  0  0  0  0  0  0  0
  140.0610  156.7700  134.7810 C   0  0  2  0  0  0  0  0  0  0  0  0
  139.9230  155.6880  133.7030 C   0  0  0  0  0  0  0  0  0  0  0  0
  140.0240  156.2610  132.4280 O   0  0  0  0  0  0  0  0  0  0  0  0
  140.3210  158.0780  134.1680 N   0  0  0  0  0  0  0  0  0  0  0  0
  139.3210  158.7890  133.4290 C   0  0  0  0  0  0  0  0  0  0  0  0
  138.1780  158.2860  133.2580 O   0  0  0  0  0  0  0  0  0  0  0  0
  139.6270  160.0490  132.9030 O   0  0  0  0  0  0  0  0  0  0  0  0
  139.3290  160.4330  131.5630 C   0  0  0  0  0  0  0  0  0  0  0  0
  139.9330  159.4360  130.5750 C   0  0  0  0  0  0  0  0  0  0  0  0
  140.8940  158.6560  131.2260 O   0  0  0  0  0  0  0  0  0  0  0  0
  143.5600  157.7660  133.6410 C   0  0  0  0  0  0  0  0  0  0  0  0
  142.6380  157.7580  132.7800 O   0  0  0  0  0  0  0  0  0  0  0  0
  144.6750  158.6500  133.4650 N   0  0  0  0  0  0  0  0  0  0  0  0
  144.6930  160.0080  133.5520 C   0  0  0  0  0  0  0  0  0  0  0  0
  143.5070  160.8820  133.6470 C   0  0  0  0  0  0  0  0  0  0  0  0
  142.1910  160.3320  133.6020 N   0  0  0  0  0  0  0  0  0  0  0  0
  143.6550  162.1290  133.7310 O   0  0  0  0  0  0  0  0  0  0  0  0
  146.0000  160.4850  133.4600 C   0  0  0  0  0  0  0  0  0  0  0  0
  146.7840  159.3650  133.3040 C   0  0  0  0  0  0  0  0  0  0  0  0
  148.1640  159.2440  133.1890 C   0  0  0  0  0  0  0  0  0  0  0  0
  148.7060  157.9500  133.0790 C   0  0  0  0  0  0  0  0  0  0  0  0
  147.8640  156.8070  133.0700 C   0  0  0  0  0  0  0  0  0  0  0  0
  148.4640  155.4240  133.0150 C   0  0  0  0  0  0  0  0  0  0  0  0
  148.4890  154.8900  134.2900 F   0  0  0  0  0  0  0  0  0  0  0  0
  149.7550  155.4740  132.5200 F   0  0  0  0  0  0  0  0  0  0  0  0
  147.7170  154.5980  132.1940 F   0  0  0  0  0  0  0  0  0  0  0  0
  146.4670  156.9730  133.2110 C   0  0  0  0  0  0  0  0  0  0  0  0
  145.9580  158.2730  133.3080 C   0  0  0  0  0  0  0  0  0  0  0  0
  143.2923  154.7015  135.1996 H   0  0  0  0  0  0  0  0  0  0  0  0
  142.4506  155.2853  133.7240 H   0  0  0  0  0  0  0  0  0  0  0  0
  144.2370  155.0974  133.7240 H   0  0  0  0  0  0  0  0  0  0  0  0
  144.4570  156.9119  135.3773 H   0  0  0  0  0  0  0  0  0  0  0  0
  139.1140  156.8211  135.3383 H   0  0  0  0  0  0  0  0  0  0  0  0
  140.7222  154.9431  133.8312 H   0  0  0  0  0  0  0  0  0  0  0  0
  138.9401  155.2044  133.8029 H   0  0  0  0  0  0  0  0  0  0  0  0
  140.8180  156.8520  132.4560 H   0  0  0  0  0  0  0  0  0  0  0  0
  141.2630  158.5230  134.2640 H   0  0  0  0  0  0  0  0  0  0  0  0
  138.2376  160.4605  131.4283 H   0  0  0  0  0  0  0  0  0  0  0  0
  139.7590  161.4275  131.3734 H   0  0  0  0  0  0  0  0  0  0  0  0
  139.1391  158.7850  130.1800 H   0  0  0  0  0  0  0  0  0  0  0  0
  140.4061  159.9831  129.7462 H   0  0  0  0  0  0  0  0  0  0  0  0
  141.3640  159.2650  131.8530 H   0  0  0  0  0  0  0  0  0  0  0  0
  141.8640  159.7910  132.7690 H   0  0  0  0  0  0  0  0  0  0  0  0
  146.3331  161.5325  133.5030 H   0  0  0  0  0  0  0  0  0  0  0  0
  148.8125  160.1325  133.1841 H   0  0  0  0  0  0  0  0  0  0  0  0
  149.7956  157.8225  132.9990 H   0  0  0  0  0  0  0  0  0  0  0  0
  145.7965  156.1016  133.2437 H   0  0  0  0  0  0  0  0  0  0  0  0
  1  2  1  0
  2  3  1  0
  3  4  1  0
  4  5  2  0
  4  6  1  0
  6  7  1  0
  7  8  1  0
  6  9  1  0
  9 10  1  0
 10 11  2  0
 10 12  1  0
 12 13  1  0
 13 14  1  0
 14 15  1  0
  2 16  1  0
 16 17  2  0
 16 18  1  0
 18 19  1  0
 19 20  1  0
 20 21  1  0
 20 22  2  0
 19 23  2  0
 23 24  1  0
 24 25  2  0
 25 26  1  0
 26 27  2  0
 27 28  1  0
 28 29  1  0
 28 30  1  0
 28 31  1  0
 27 32  1  0
 32 33  2  0
 33 18  1  0
 33 24  1  0
  1 34  1  0
  1 35  1  0
  1 36  1  0
  2 37  1  1
  6 38  1  1
  7 39  1  0
  7 40  1  0
  8 41  1  0
  9 42  1  0
 13 43  1  0
 13 44  1  0
 14 45  1  0
 14 46  1  0
 15 47  1  0
 21 48  1  0
 23 49  1  0
 25 50  1  0
 26 51  1  0
 32 52  1  0
M  CHG  2   3  -1  21  -1
M  END
>  <UniqueID>  (50) 
50

>  <SMILES>  (50) 
C[C@H]([N-]C(=O)[C@H](CO)NC(=O)OCCO)C(=O)n1c(C([NH-])=O)cc2ccc(C(F)(F)F)cc21

>  <Energy>  (50) 
80.04375890251244

>  <Genealogy>  (50) 
C[C@H]([N-]C(=O)[C@H](CO)NC(=O)OCCO)C(=O)n1c(C([NH-])=O)cc2ccc(C(F)(F)F)cc21 (protonated)
C[C@H]([N-]C(=O)[C@H](CO)NC(=O)OCCO)C(=O)n1c(C([NH-])=O)cc2ccc(C(F)(F)F)cc21 (3D coordinates assigned)
C[C@H]([N-]C(=O)[C@H](CO)NC(=O)OCCO)C(=O)n1c(C([NH-])=O)cc2ccc(C(F)(F)F)cc21 (optimized conformer: 80.04375890251244 kcal/mol)

>  <smiles>  (50) 
C[C@H](NC(=O)[C@H](CO)NC(=O)OCCO)C(=O)n1c(C(N)=O)cc2ccc(C(F)(F)F)cc21

>  <score_type>  (50) 
oracle

>  <origin>  (50) 
adg

>  <m_score__min__energy>  (50) 
-5.4100000000000001

>  <m_primary>  (50) 
energy

$$$$
53:0
     RDKit          3D

 38 40  0  0  0  0  0  0  0  0999 V2000
  144.9450  153.5620  132.9680 C   0  0  0  0  0  0  0  0  0  0  0  0
  143.8960  154.0300  133.9790 C   0  0  1  0  0  0  0  0  0  0  0  0
  143.9330  155.4500  134.1110 O   0  0  0  0  0  0  0  0  0  0  0  0
  143.7760  156.3360  133.0390 C   0  0  0  0  0  0  0  0  0  0  0  0
  143.6070  155.8980  131.8680 O   0  0  0  0  0  0  0  0  0  0  0  0
  143.7820  157.7520  133.2820 N   0  0  0  0  0  0  0  0  0  0  0  0
  142.7220  158.5590  133.5750 C   0  0  0  0  0  0  0  0  0  0  0  0
  141.2980  158.1610  133.5730 C   0  0  0  0  0  0  0  0  0  0  0  0
  140.9000  156.9620  132.9110 N   0  0  0  0  0  0  0  0  0  0  0  0
  140.4350  158.8450  134.1810 O   0  0  0  0  0  0  0  0  0  0  0  0
  143.1520  159.8650  133.8020 C   0  0  0  0  0  0  0  0  0  0  0  0
  144.5170  159.8360  133.6300 C   0  0  0  0  0  0  0  0  0  0  0  0
  145.4540  160.8590  133.7320 C   0  0  0  0  0  0  0  0  0  0  0  0
  146.8060  160.5380  133.5190 C   0  0  0  0  0  0  0  0  0  0  0  0
  147.1940  159.2060  133.2290 C   0  0  0  0  0  0  0  0  0  0  0  0
  148.6360  158.8800  132.9780 C   0  0  0  0  0  0  0  0  0  0  0  0
  149.1700  159.8000  132.0950 F   0  0  0  0  0  0  0  0  0  0  0  0
  146.2130  158.1970  133.1190 C   0  0  0  0  0  0  0  0  0  0  0  0
  144.8720  158.5480  133.3170 C   0  0  0  0  0  0  0  0  0  0  0  0
  142.5290  153.6230  133.5160 C   0  0  0  0  0  0  0  0  0  0  0  0
  142.0210  152.3400  133.4940 C   0  0  0  0  0  0  0  0  0  0  0  0
  140.7690  152.4840  132.9260 C   0  0  0  0  0  0  0  0  0  0  0  0
  140.5830  153.7530  132.6370 O   0  0  0  0  0  0  0  0  0  0  0  0
  141.6210  154.4560  132.9750 N   0  0  0  0  0  0  0  0  0  0  0  0
  145.8221  153.1707  133.5043 H   0  0  0  0  0  0  0  0  0  0  0  0
  144.5176  152.7692  132.3365 H   0  0  0  0  0  0  0  0  0  0  0  0
  145.2494  154.4097  132.3365 H   0  0  0  0  0  0  0  0  0  0  0  0
  144.1179  153.5663  134.9515 H   0  0  0  0  0  0  0  0  0  0  0  0
  141.5310  156.4940  132.2230 H   0  0  0  0  0  0  0  0  0  0  0  0
  142.5316  160.7349  134.0634 H   0  0  0  0  0  0  0  0  0  0  0  0
  145.1465  161.8875  133.9719 H   0  0  0  0  0  0  0  0  0  0  0  0
  147.5696  161.3276  133.5779 H   0  0  0  0  0  0  0  0  0  0  0  0
  149.1910  158.9179  133.9270 H   0  0  0  0  0  0  0  0  0  0  0  0
  148.7140  157.8708  132.5474 H   0  0  0  0  0  0  0  0  0  0  0  0
  146.4951  157.1602  132.8835 H   0  0  0  0  0  0  0  0  0  0  0  0
  142.5016  151.4157  133.8471 H   0  0  0  0  0  0  0  0  0  0  0  0
  140.0487  151.6724  132.7459 H   0  0  0  0  0  0  0  0  0  0  0  0
  141.7190  155.4860  132.8330 H   0  0  0  0  0  0  0  0  0  0  0  0
  1  2  1  0
  2  3  1  0
  3  4  1  0
  4  5  2  0
  4  6  1  0
  6  7  1  0
  7  8  1  0
  8  9  1  0
  8 10  2  0
  7 11  2  0
 11 12  1  0
 12 13  2  0
 13 14  1  0
 14 15  2  0
 15 16  1  0
 16 17  1  0
 15 18  1  0
 18 19  2  0
  2 20  1  0
 20 21  1  0
 21 22  2  0
 22 23  1  0
 23 24  1  0
 19  6  1  0
 24 20  2  0
 19 12  1  0
  1 25  1  0
  1 26  1  0
  1 27  1  0
  2 28  1  1
  9 29  1  0
 11 30  1  0
 13 31  1  0
 14 32  1  0
 16 33  1  0
 16 34  1  0
 18 35  1  0
 21 36  1  0
 22 37  1  0
 24 38  1  0
M  CHG  2   9  -1  24   1
M  END
>  <UniqueID>  (51) 
51

>  <SMILES>  (51) 
C[C@@H](OC(=O)n1c(C([NH-])=O)cc2ccc(CF)cc21)c1cco[nH+]1

>  <Energy>  (51) 
103.91056955944325

>  <Genealogy>  (51) 
CC(OC(=O)n1c(C([NH-])=O)cc2ccc(CF)cc21)c1cco[nH+]1 (protonated)
C[C@@H](OC(=O)n1c(C([NH-])=O)cc2ccc(CF)cc21)c1cco[nH+]1 (chirality)
C[C@@H](OC(=O)n1c(C([NH-])=O)cc2ccc(CF)cc21)c1cco[nH+]1 (3D coordinates assigned)
C[C@@H](OC(=O)n1c(C([NH-])=O)cc2ccc(CF)cc21)c1cco[nH+]1 (optimized conformer: 103.91056955944325 kcal/mol)

>  <smiles>  (51) 
CC(OC(=O)n1c(C(N)=O)cc2ccc(CF)cc21)c1ccon1

>  <score_type>  (51) 
oracle

>  <origin>  (51) 
adg

>  <m_score__min__energy>  (51) 
-6.4100000000000001

>  <m_primary>  (51) 
energy

$$$$
54:0
     RDKit          3D

 45 47  0  0  0  0  0  0  0  0999 V2000
  138.3320  160.3820  131.4950 N   0  0  0  0  0  0  0  0  0  0  0  0
  139.4870  160.1210  132.2880 C   0  0  0  0  0  0  0  0  0  0  0  0
  140.2350  161.0780  132.6220 O   0  0  0  0  0  0  0  0  0  0  0  0
  139.8190  158.7330  132.6700 C   0  0  0  0  0  0  0  0  0  0  0  0
  138.9800  157.6480  132.4210 C   0  0  0  0  0  0  0  0  0  0  0  0
  139.6820  156.5410  132.8370 C   0  0  0  0  0  0  0  0  0  0  0  0
  139.3210  155.1970  132.8240 C   0  0  0  0  0  0  0  0  0  0  0  0
  140.2370  154.2640  133.3380 C   0  0  0  0  0  0  0  0  0  0  0  0
  141.4820  154.6900  133.8650 C   0  0  0  0  0  0  0  0  0  0  0  0
  142.4670  153.6820  134.3950 C   0  0  0  0  0  0  0  0  0  0  0  0
  143.4320  153.2180  133.2900 C   0  0  2  0  0  0  0  0  0  0  0  0
  142.9520  153.6540  132.0430 O   0  0  0  0  0  0  0  0  0  0  0  0
  143.5610  151.6840  133.2780 C   0  0  0  0  0  0  0  0  0  0  0  0
  142.6280  151.1020  132.3840 O   0  0  0  0  0  0  0  0  0  0  0  0
  141.4350  150.7350  133.0490 C   0  0  0  0  0  0  0  0  0  0  0  0
  140.5450  149.9440  132.1280 C   0  0  0  0  0  0  0  0  0  0  0  0
  141.0690  148.8610  131.4030 C   0  0  0  0  0  0  0  0  0  0  0  0
  140.2430  148.1130  130.5600 C   0  0  0  0  0  0  0  0  0  0  0  0
  138.8890  148.4360  130.4380 C   0  0  0  0  0  0  0  0  0  0  0  0
  138.3580  149.5080  131.1610 C   0  0  0  0  0  0  0  0  0  0  0  0
  139.1800  150.2600  132.0050 C   0  0  0  0  0  0  0  0  0  0  0  0
  141.8170  156.0630  133.8530 C   0  0  0  0  0  0  0  0  0  0  0  0
  140.8920  156.9680  133.3190 C   0  0  0  0  0  0  0  0  0  0  0  0
  140.9910  158.3140  133.2250 N   0  0  0  0  0  0  0  0  0  0  0  0
  142.0830  159.1240  133.6910 C   0  0  0  0  0  0  0  0  0  0  0  0
  141.9280  159.8940  134.6760 O   0  0  0  0  0  0  0  0  0  0  0  0
  143.3120  159.0880  133.0440 O   0  0  0  0  0  0  0  0  0  0  0  0
  137.9100  161.3370  131.4580 H   0  0  0  0  0  0  0  0  0  0  0  0
  137.9706  157.6721  131.9844 H   0  0  0  0  0  0  0  0  0  0  0  0
  138.3483  154.8751  132.4236 H   0  0  0  0  0  0  0  0  0  0  0  0
  139.9858  153.1931  133.3314 H   0  0  0  0  0  0  0  0  0  0  0  0
  143.0470  154.1402  135.2096 H   0  0  0  0  0  0  0  0  0  0  0  0
  141.9095  152.8078  134.7623 H   0  0  0  0  0  0  0  0  0  0  0  0
  144.4243  153.6494  133.4883 H   0  0  0  0  0  0  0  0  0  0  0  0
  142.7470  152.8390  131.5140 H   0  0  0  0  0  0  0  0  0  0  0  0
  144.5791  151.4112  132.9631 H   0  0  0  0  0  0  0  0  0  0  0  0
  143.3567  151.3076  134.2912 H   0  0  0  0  0  0  0  0  0  0  0  0
  141.6835  150.1223  133.9281 H   0  0  0  0  0  0  0  0  0  0  0  0
  140.9053  151.6467  133.3623 H   0  0  0  0  0  0  0  0  0  0  0  0
  142.1334  148.6008  131.4992 H   0  0  0  0  0  0  0  0  0  0  0  0
  140.6594  147.2684  129.9914 H   0  0  0  0  0  0  0  0  0  0  0  0
  138.2408  147.8465  129.7729 H   0  0  0  0  0  0  0  0  0  0  0  0
  137.2916  149.7602  131.0656 H   0  0  0  0  0  0  0  0  0  0  0  0
  138.7582  151.1012  132.5746 H   0  0  0  0  0  0  0  0  0  0  0  0
  142.7804  156.4118  134.2532 H   0  0  0  0  0  0  0  0  0  0  0  0
  1  2  1  0
  2  3  2  0
  2  4  1  0
  4  5  2  0
  5  6  1  0
  6  7  2  0
  7  8  1  0
  8  9  2  0
  9 10  1  0
 10 11  1  0
 11 12  1  0
 11 13  1  0
 13 14  1  0
 14 15  1  0
 15 16  1  0
 16 17  2  0
 17 18  1  0
 18 19  2  0
 19 20  1  0
 20 21  2  0
  9 22  1  0
 22 23  2  0
 23 24  1  0
 24 25  1  0
 25 26  2  0
 25 27  1  0
 24  4  1  0
 23  6  1  0
 21 16  1  0
  1 28  1  0
  5 29  1  0
  7 30  1  0
  8 31  1  0
 10 32  1  0
 10 33  1  0
 11 34  1  1
 12 35  1  0
 13 36  1  0
 13 37  1  0
 15 38  1  0
 15 39  1  0
 17 40  1  0
 18 41  1  0
 19 42  1  0
 20 43  1  0
 21 44  1  0
 22 45  1  0
M  CHG  2   1  -1  27  -1
M  END
>  <UniqueID>  (52) 
52

>  <SMILES>  (52) 
[NH-]C(=O)c1cc2ccc(C[C@H](O)COCc3ccccc3)cc2n1C(=O)[O-]

>  <Energy>  (52) 
85.99831878506448

>  <Genealogy>  (52) 
[NH-]C(=O)c1cc2ccc(CC(O)COCc3ccccc3)cc2n1C(=O)[O-] (protonated)
[NH-]C(=O)c1cc2ccc(C[C@H](O)COCc3ccccc3)cc2n1C(=O)[O-] (chirality)
[NH-]C(=O)c1cc2ccc(C[C@H](O)COCc3ccccc3)cc2n1C(=O)[O-] (3D coordinates assigned)
[NH-]C(=O)c1cc2ccc(C[C@H](O)COCc3ccccc3)cc2n1C(=O)[O-] (optimized conformer: 85.99831878506448 kcal/mol)

>  <smiles>  (52) 
NC(=O)c1cc2ccc(CC(O)COCc3ccccc3)cc2n1C(=O)O

>  <score_type>  (52) 
oracle

>  <origin>  (52) 
adg

>  <m_score__min__energy>  (52) 
-8.4399999999999995

>  <m_primary>  (52) 
energy

$$$$
55:0
     RDKit          3D

 33 34  0  0  0  0  0  0  0  0999 V2000
  143.2180  160.5290  133.4270 N   0  0  0  0  0  0  0  0  0  0  0  0
  144.5980  160.7750  133.6880 C   0  0  0  0  0  0  0  0  0  0  0  0
  144.9480  161.8960  134.1440 O   0  0  0  0  0  0  0  0  0  0  0  0
  145.6010  159.7330  133.3840 C   0  0  0  0  0  0  0  0  0  0  0  0
  146.9390  160.0110  133.1140 C   0  0  0  0  0  0  0  0  0  0  0  0
  147.5470  158.7840  132.9770 C   0  0  0  0  0  0  0  0  0  0  0  0
  148.8750  158.4690  132.6940 C   0  0  0  0  0  0  0  0  0  0  0  0
  149.2190  157.1120  132.5850 C   0  0  0  0  0  0  0  0  0  0  0  0
  148.2370  156.1080  132.7530 C   0  0  0  0  0  0  0  0  0  0  0  0
  148.6000  154.7220  132.6260 C   0  0  0  0  0  0  0  0  0  0  0  0
  148.9030  153.5590  132.5200 C   0  0  0  0  0  0  0  0  0  0  0  0
  149.2730  152.1470  132.3920 C   0  0  0  0  0  0  0  0  0  0  0  0
  150.6480  151.9900  132.6050 O   0  0  0  0  0  0  0  0  0  0  0  0
  146.9030  156.4600  133.0380 C   0  0  0  0  0  0  0  0  0  0  0  0
  146.5900  157.8200  133.1590 C   0  0  0  0  0  0  0  0  0  0  0  0
  145.3880  158.3860  133.4070 N   0  0  0  0  0  0  0  0  0  0  0  0
  144.1440  157.6910  133.5920 C   0  0  0  0  0  0  0  0  0  0  0  0
  143.2020  157.8570  132.7720 O   0  0  0  0  0  0  0  0  0  0  0  0
  143.9960  156.8120  134.6730 O   0  0  0  0  0  0  0  0  0  0  0  0
  143.8500  155.4020  134.5200 C   0  0  0  0  0  0  0  0  0  0  0  0
  144.9890  154.6860  135.1740 C   0  0  0  0  0  0  0  0  0  0  0  0
  144.9510  153.4360  135.3110 O   0  0  0  0  0  0  0  0  0  0  0  0
  146.1020  155.3960  135.6040 O   0  0  0  0  0  0  0  0  0  0  0  0
  142.9210  159.9690  132.5970 H   0  0  0  0  0  0  0  0  0  0  0  0
  147.4098  161.0014  133.0284 H   0  0  0  0  0  0  0  0  0  0  0  0
  149.6294  159.2583  132.5603 H   0  0  0  0  0  0  0  0  0  0  0  0
  150.2592  156.8279  132.3675 H   0  0  0  0  0  0  0  0  0  0  0  0
  148.7194  151.5566  133.1370 H   0  0  0  0  0  0  0  0  0  0  0  0
  149.0230  151.7991  131.3789 H   0  0  0  0  0  0  0  0  0  0  0  0
  151.1040  152.6510  132.0210 H   0  0  0  0  0  0  0  0  0  0  0  0
  146.1288  155.6885  133.1620 H   0  0  0  0  0  0  0  0  0  0  0  0
  142.9059  155.0827  134.9856 H   0  0  0  0  0  0  0  0  0  0  0  0
  143.8439  155.1581  133.4474 H   0  0  0  0  0  0  0  0  0  0  0  0
  1  2  1  0
  2  3  2  0
  2  4  1  0
  4  5  2  0
  5  6  1  0
  6  7  2  0
  7  8  1  0
  8  9  2  0
  9 10  1  0
 10 11  3  0
 11 12  1  0
 12 13  1  0
  9 14  1  0
 14 15  2  0
 15 16  1  0
 16 17  1  0
 17 18  2  0
 17 19  1  0
 19 20  1  0
 20 21  1  0
 21 22  2  0
 21 23  1  0
 16  4  1  0
 15  6  1  0
  1 24  1  0
  5 25  1  0
  7 26  1  0
  8 27  1  0
 12 28  1  0
 12 29  1  0
 13 30  1  0
 14 31  1  0
 20 32  1  0
 20 33  1  0
M  CHG  2   1  -1  23  -1
M  END
>  <UniqueID>  (53) 
53

>  <SMILES>  (53) 
[NH-]C(=O)c1cc2ccc(C#CCO)cc2n1C(=O)OCC(=O)[O-]

>  <Energy>  (53) 
65.08160624637961

>  <Genealogy>  (53) 
[NH-]C(=O)c1cc2ccc(C#CCO)cc2n1C(=O)OCC(=O)[O-] (protonated)
[NH-]C(=O)c1cc2ccc(C#CCO)cc2n1C(=O)OCC(=O)[O-] (3D coordinates assigned)
[NH-]C(=O)c1cc2ccc(C#CCO)cc2n1C(=O)OCC(=O)[O-] (optimized conformer: 65.08160624637961 kcal/mol)

>  <smiles>  (53) 
NC(=O)c1cc2ccc(C#CCO)cc2n1C(=O)OCC(=O)O

>  <score_type>  (53) 
oracle

>  <origin>  (53) 
adg

>  <m_score__min__energy>  (53) 
-6.8200000000000003

>  <m_primary>  (53) 
energy

$$$$
56:0
     RDKit          3D

 35 36  0  0  0  0  0  0  0  0999 V2000
  145.5140  154.6470  132.9580 C   0  0  0  0  0  0  0  0  0  0  0  0
  144.7830  154.9470  134.1940 N   0  0  0  0  0  0  0  0  0  0  0  0
  145.0250  154.1090  135.3760 C   0  0  0  0  0  0  0  0  0  0  0  0
  146.4350  154.2710  135.8490 C   0  0  0  0  0  0  0  0  0  0  0  0
  146.9740  153.3790  136.5560 O   0  0  0  0  0  0  0  0  0  0  0  0
  147.1420  155.4270  135.5440 O   0  0  0  0  0  0  0  0  0  0  0  0
  143.9640  156.1340  134.3210 C   0  0  0  0  0  0  0  0  0  0  0  0
  143.3510  156.3450  135.4030 O   0  0  0  0  0  0  0  0  0  0  0  0
  143.8090  157.1260  133.2290 C   0  0  0  0  0  0  0  0  0  0  0  0
  143.1020  156.8740  132.2190 O   0  0  0  0  0  0  0  0  0  0  0  0
  144.4600  158.4030  133.3190 N   0  0  0  0  0  0  0  0  0  0  0  0
  143.8920  159.6050  133.6130 C   0  0  0  0  0  0  0  0  0  0  0  0
  142.4480  159.8460  133.8140 C   0  0  0  0  0  0  0  0  0  0  0  0
  141.5060  159.3510  132.8640 N   0  0  0  0  0  0  0  0  0  0  0  0
  142.0330  160.4760  134.8230 O   0  0  0  0  0  0  0  0  0  0  0  0
  144.8640  160.6030  133.6620 C   0  0  0  0  0  0  0  0  0  0  0  0
  146.0550  159.9670  133.3930 C   0  0  0  0  0  0  0  0  0  0  0  0
  147.3510  160.4730  133.3320 C   0  0  0  0  0  0  0  0  0  0  0  0
  148.3960  159.5730  133.0630 C   0  0  0  0  0  0  0  0  0  0  0  0
  148.1310  158.1960  132.8690 C   0  0  0  0  0  0  0  0  0  0  0  0
  149.2050  157.2900  132.6060 N   0  0  0  0  0  0  0  0  0  0  0  0
  146.8050  157.7180  132.9410 C   0  0  0  0  0  0  0  0  0  0  0  0
  145.7830  158.6380  133.1940 C   0  0  0  0  0  0  0  0  0  0  0  0
  146.5051  154.2403  133.2077 H   0  0  0  0  0  0  0  0  0  0  0  0
  144.9515  153.9070  132.3698 H   0  0  0  0  0  0  0  0  0  0  0  0
  145.6335  155.5688  132.3698 H   0  0  0  0  0  0  0  0  0  0  0  0
  144.3362  154.4081  136.1798 H   0  0  0  0  0  0  0  0  0  0  0  0
  144.8570  153.0556  135.1076 H   0  0  0  0  0  0  0  0  0  0  0  0
  141.7910  158.6560  132.1390 H   0  0  0  0  0  0  0  0  0  0  0  0
  144.7117  161.6721  133.8713 H   0  0  0  0  0  0  0  0  0  0  0  0
  147.5503  161.5433  133.4894 H   0  0  0  0  0  0  0  0  0  0  0  0
  149.4304  159.9422  133.0026 H   0  0  0  0  0  0  0  0  0  0  0  0
  149.9830  157.1700  133.2930 H   0  0  0  0  0  0  0  0  0  0  0  0
  149.2300  156.7340  131.7220 H   0  0  0  0  0  0  0  0  0  0  0  0
  146.5815  156.6500  132.8017 H   0  0  0  0  0  0  0  0  0  0  0  0
  1  2  1  0
  2  3  1  0
  3  4  1  0
  4  5  2  0
  4  6  1  0
  2  7  1  0
  7  8  2  0
  7  9  1  0
  9 10  2  0
  9 11  1  0
 11 12  1  0
 12 13  1  0
 13 14  1  0
 13 15  2  0
 12 16  2  0
 16 17  1  0
 17 18  2  0
 18 19  1  0
 19 20  2  0
 20 21  1  0
 20 22  1  0
 22 23  2  0
 23 11  1  0
 23 17  1  0
  1 24  1  0
  1 25  1  0
  1 26  1  0
  3 27  1  0
  3 28  1  0
 14 29  1  0
 16 30  1  0
 18 31  1  0
 19 32  1  0
 21 33  1  0
 21 34  1  0
 22 35  1  0
M  CHG  2   6  -1  14  -1
M  END
>  <UniqueID>  (54) 
54

>  <SMILES>  (54) 
CN(CC(=O)[O-])C(=O)C(=O)n1c(C([NH-])=O)cc2ccc(N)cc21

>  <Energy>  (54) 
74.00569383359765

>  <Genealogy>  (54) 
CN(CC(=O)[O-])C(=O)C(=O)n1c(C([NH-])=O)cc2ccc(N)cc21 (protonated)
CN(CC(=O)[O-])C(=O)C(=O)n1c(C([NH-])=O)cc2ccc(N)cc21 (3D coordinates assigned)
CN(CC(=O)[O-])C(=O)C(=O)n1c(C([NH-])=O)cc2ccc(N)cc21 (optimized conformer: 74.00569383359765 kcal/mol)

>  <smiles>  (54) 
CN(CC(=O)O)C(=O)C(=O)n1c(C(N)=O)cc2ccc(N)cc21

>  <score_type>  (54) 
oracle

>  <origin>  (54) 
adg

>  <m_score__min__energy>  (54) 
-6.4100000000000001

>  <m_primary>  (54) 
energy

$$$$
57:0
     RDKit          3D

 43 44  0  0  0  0  0  0  0  0999 V2000
  140.9570  158.3370  137.2080 C   0  0  0  0  0  0  0  0  0  0  0  0
  140.2620  159.0070  136.0130 C   0  0  1  0  0  0  0  0  0  0  0  0
  141.0770  160.0290  135.4960 O   0  0  0  0  0  0  0  0  0  0  0  0
  139.8990  157.9840  134.9050 C   0  0  2  0  0  0  0  0  0  0  0  0
  140.8640  156.8820  134.8600 N   0  0  0  0  0  0  0  0  0  0  0  0
  141.2470  156.1420  133.6940 C   0  0  0  0  0  0  0  0  0  0  0  0
  140.3890  155.5140  133.0190 O   0  0  0  0  0  0  0  0  0  0  0  0
  142.6790  156.1360  133.2610 C   0  0  0  0  0  0  0  0  0  0  0  0
  143.1170  157.4670  133.0010 O   0  0  0  0  0  0  0  0  0  0  0  0
  143.7240  158.2830  133.9630 C   0  0  0  0  0  0  0  0  0  0  0  0
  143.1890  158.4380  135.0950 O   0  0  0  0  0  0  0  0  0  0  0  0
  144.9770  158.9200  133.6680 N   0  0  0  0  0  0  0  0  0  0  0  0
  145.2530  160.2570  133.6380 C   0  0  0  0  0  0  0  0  0  0  0  0
  144.2730  161.3530  133.7930 C   0  0  0  0  0  0  0  0  0  0  0  0
  142.8770  161.0690  133.7300 N   0  0  0  0  0  0  0  0  0  0  0  0
  144.6510  162.5340  134.0140 O   0  0  0  0  0  0  0  0  0  0  0  0
  146.6010  160.4690  133.3550 C   0  0  0  0  0  0  0  0  0  0  0  0
  147.1460  159.2160  133.2050 C   0  0  0  0  0  0  0  0  0  0  0  0
  148.4520  158.8380  132.9120 C   0  0  0  0  0  0  0  0  0  0  0  0
  148.7390  157.4650  132.8340 C   0  0  0  0  0  0  0  0  0  0  0  0
  147.7290  156.4980  133.0730 C   0  0  0  0  0  0  0  0  0  0  0  0
  148.0400  155.0280  132.9490 C   0  0  0  0  0  0  0  0  0  0  0  0
  147.0380  154.3710  132.2550 F   0  0  0  0  0  0  0  0  0  0  0  0
  149.2310  154.8350  132.2720 F   0  0  0  0  0  0  0  0  0  0  0  0
  148.1470  154.4780  134.2130 F   0  0  0  0  0  0  0  0  0  0  0  0
  146.4070  156.9240  133.3450 C   0  0  0  0  0  0  0  0  0  0  0  0
  146.1460  158.2980  133.3980 C   0  0  0  0  0  0  0  0  0  0  0  0
  139.7640  158.6080  133.5420 C   0  0  0  0  0  0  0  0  0  0  0  0
  140.7380  159.1910  132.9960 O   0  0  0  0  0  0  0  0  0  0  0  0
  138.5620  158.5010  132.8530 O   0  0  0  0  0  0  0  0  0  0  0  0
  140.5421  158.7370  138.1449 H   0  0  0  0  0  0  0  0  0  0  0  0
  140.7899  157.2505  137.1674 H   0  0  0  0  0  0  0  0  0  0  0  0
  142.0366  158.5437  137.1674 H   0  0  0  0  0  0  0  0  0  0  0  0
  139.3183  159.4429  136.3727 H   0  0  0  0  0  0  0  0  0  0  0  0
  141.5020  159.6820  134.6680 H   0  0  0  0  0  0  0  0  0  0  0  0
  138.9102  157.5872  135.1784 H   0  0  0  0  0  0  0  0  0  0  0  0
  143.2983  155.6982  134.0577 H   0  0  0  0  0  0  0  0  0  0  0  0
  142.7750  155.5391  132.3420 H   0  0  0  0  0  0  0  0  0  0  0  0
  142.5190  160.1010  133.8900 H   0  0  0  0  0  0  0  0  0  0  0  0
  147.1196  161.4353  133.2696 H   0  0  0  0  0  0  0  0  0  0  0  0
  149.2364  159.5912  132.7464 H   0  0  0  0  0  0  0  0  0  0  0  0
  149.7586  157.1360  132.5847 H   0  0  0  0  0  0  0  0  0  0  0  0
  145.6030  156.1919  133.5110 H   0  0  0  0  0  0  0  0  0  0  0  0
  1  2  1  0
  2  3  1  0
  2  4  1  0
  4  5  1  0
  5  6  1  0
  6  7  2  0
  6  8  1  0
  8  9  1  0
  9 10  1  0
 10 11  2  0
 10 12  1  0
 12 13  1  0
 13 14  1  0
 14 15  1  0
 14 16  2  0
 13 17  2  0
 17 18  1  0
 18 19  2  0
 19 20  1  0
 20 21  2  0
 21 22  1  0
 22 23  1  0
 22 24  1  0
 22 25  1  0
 21 26  1  0
 26 27  2  0
  4 28  1  0
 28 29  2  0
 28 30  1  0
 27 12  1  0
 27 18  1  0
  1 31  1  0
  1 32  1  0
  1 33  1  0
  2 34  1  1
  3 35  1  0
  4 36  1  1
  8 37  1  0
  8 38  1  0
 15 39  1  0
 17 40  1  0
 19 41  1  0
 20 42  1  0
 26 43  1  0
M  CHG  3   5  -1  15  -1  30  -1
M  END
>  <UniqueID>  (55) 
55

>  <SMILES>  (55) 
C[C@@H](O)[C@H]([N-]C(=O)COC(=O)n1c(C([NH-])=O)cc2ccc(C(F)(F)F)cc21)C(=O)[O-]

>  <Energy>  (55) 
77.35304640378897

>  <Genealogy>  (55) 
CC(O)C([N-]C(=O)COC(=O)n1c(C([NH-])=O)cc2ccc(C(F)(F)F)cc21)C(=O)[O-] (protonated)
C[C@@H](O)[C@H]([N-]C(=O)COC(=O)n1c(C([NH-])=O)cc2ccc(C(F)(F)F)cc21)C(=O)[O-] (chirality)
C[C@@H](O)[C@H]([N-]C(=O)COC(=O)n1c(C([NH-])=O)cc2ccc(C(F)(F)F)cc21)C(=O)[O-] (3D coordinates assigned)
C[C@@H](O)[C@H]([N-]C(=O)COC(=O)n1c(C([NH-])=O)cc2ccc(C(F)(F)F)cc21)C(=O)[O-] (optimized conformer: 77.35304640378897 kcal/mol)

>  <smiles>  (55) 
CC(O)C(NC(=O)COC(=O)n1c(C(N)=O)cc2ccc(C(F)(F)F)cc21)C(=O)O

>  <score_type>  (55) 
oracle

>  <origin>  (55) 
adg

>  <m_score__min__energy>  (55) 
-6.9500000000000002

>  <m_primary>  (55) 
energy

$$$$
58:0
     RDKit          3D

 45 46  0  0  0  0  0  0  0  0999 V2000
  140.6220  149.9610  132.9280 C   0  0  0  0  0  0  0  0  0  0  0  0
  142.0050  150.5000  132.5980 C   0  0  0  0  0  0  0  0  0  0  0  0
  142.3180  151.5750  133.4770 O   0  0  0  0  0  0  0  0  0  0  0  0
  142.1680  152.9160  133.1110 C   0  0  0  0  0  0  0  0  0  0  0  0
  141.0700  153.3410  132.6620 O   0  0  0  0  0  0  0  0  0  0  0  0
  143.3170  153.8590  133.2730 C   0  0  0  0  0  0  0  0  0  0  0  0
  142.9000  155.2260  132.9670 N   0  0  0  0  0  0  0  0  0  0  0  0
  143.7250  156.3940  133.1510 C   0  0  0  0  0  0  0  0  0  0  0  0
  145.1440  156.3260  133.0800 C   0  0  0  0  0  0  0  0  0  0  0  0
  145.9300  157.4790  133.2620 C   0  0  0  0  0  0  0  0  0  0  0  0
  145.2760  158.6810  133.5070 C   0  0  0  0  0  0  0  0  0  0  0  0
  145.7830  159.9470  133.7070 C   0  0  0  0  0  0  0  0  0  0  0  0
  144.6690  160.7650  133.8950 C   0  0  0  0  0  0  0  0  0  0  0  0
  144.7410  162.2130  134.1790 C   0  0  0  0  0  0  0  0  0  0  0  0
  144.0000  163.1330  133.3810 N   0  0  0  0  0  0  0  0  0  0  0  0
  145.4570  162.6480  135.1200 O   0  0  0  0  0  0  0  0  0  0  0  0
  143.5250  160.0320  133.8060 N   0  0  0  0  0  0  0  0  0  0  0  0
  142.1740  160.4930  133.9380 C   0  0  0  0  0  0  0  0  0  0  0  0
  141.8840  161.6560  133.5450 O   0  0  0  0  0  0  0  0  0  0  0  0
  141.1610  159.6580  134.5360 N   0  0  0  0  0  0  0  0  0  0  0  0
  141.2260  159.3780  135.9740 C   0  0  0  0  0  0  0  0  0  0  0  0
  140.1050  159.0520  133.7110 C   0  0  0  0  0  0  0  0  0  0  0  0
  139.8130  157.6620  134.1790 C   0  0  0  0  0  0  0  0  0  0  0  0
  139.1140  157.4740  135.2100 O   0  0  0  0  0  0  0  0  0  0  0  0
  140.3280  156.5720  133.4900 O   0  0  0  0  0  0  0  0  0  0  0  0
  143.9110  158.7620  133.5780 C   0  0  0  0  0  0  0  0  0  0  0  0
  143.1040  157.6370  133.3990 C   0  0  0  0  0  0  0  0  0  0  0  0
  140.4982  149.9128  134.0199 H   0  0  0  0  0  0  0  0  0  0  0  0
  139.8575  150.6270  132.5014 H   0  0  0  0  0  0  0  0  0  0  0  0
  140.5098  148.9533  132.5014 H   0  0  0  0  0  0  0  0  0  0  0  0
  142.7491  149.6990  132.7191 H   0  0  0  0  0  0  0  0  0  0  0  0
  142.0195  150.8603  131.5588 H   0  0  0  0  0  0  0  0  0  0  0  0
  143.6794  153.8141  134.3106 H   0  0  0  0  0  0  0  0  0  0  0  0
  144.1195  153.5667  132.5798 H   0  0  0  0  0  0  0  0  0  0  0  0
  141.9200  155.3590  132.6250 H   0  0  0  0  0  0  0  0  0  0  0  0
  145.6327  155.3609  132.8805 H   0  0  0  0  0  0  0  0  0  0  0  0
  147.0278  157.4307  133.2119 H   0  0  0  0  0  0  0  0  0  0  0  0
  146.8409  160.2481  133.7164 H   0  0  0  0  0  0  0  0  0  0  0  0
  143.0540  163.4600  133.6770 H   0  0  0  0  0  0  0  0  0  0  0  0
  141.0123  160.2986  136.5368 H   0  0  0  0  0  0  0  0  0  0  0  0
  140.4824  158.6096  136.2319 H   0  0  0  0  0  0  0  0  0  0  0  0
  142.2321  159.0158  136.2319 H   0  0  0  0  0  0  0  0  0  0  0  0
  139.1914  159.6599  133.7873 H   0  0  0  0  0  0  0  0  0  0  0  0
  140.4460  159.0131  132.6659 H   0  0  0  0  0  0  0  0  0  0  0  0
  142.0081  157.7175  133.4501 H   0  0  0  0  0  0  0  0  0  0  0  0
  1  2  1  0
  2  3  1  0
  3  4  1  0
  4  5  2  0
  4  6  1  0
  6  7  1  0
  7  8  1  0
  8  9  2  0
  9 10  1  0
 10 11  2  0
 11 12  1  0
 12 13  2  0
 13 14  1  0
 14 15  1  0
 14 16  2  0
 13 17  1  0
 17 18  1  0
 18 19  2  0
 18 20  1  0
 20 21  1  0
 20 22  1  0
 22 23  1  0
 23 24  2  0
 23 25  1  0
 17 26  1  0
 26 27  2  0
 27  8  1  0
 26 11  1  0
  1 28  1  0
  1 29  1  0
  1 30  1  0
  2 31  1  0
  2 32  1  0
  6 33  1  0
  6 34  1  0
  7 35  1  0
  9 36  1  0
 10 37  1  0
 12 38  1  0
 15 39  1  0
 21 40  1  0
 21 41  1  0
 21 42  1  0
 22 43  1  0
 22 44  1  0
 27 45  1  0
M  CHG  2  15  -1  25  -1
M  END
>  <UniqueID>  (56) 
56

>  <SMILES>  (56) 
CCOC(=O)CNc1ccc2cc(C([NH-])=O)n(C(=O)N(C)CC(=O)[O-])c2c1

>  <Energy>  (56) 
73.91502143992369

>  <Genealogy>  (56) 
CCOC(=O)CNc1ccc2cc(C([NH-])=O)n(C(=O)N(C)CC(=O)[O-])c2c1 (protonated)
CCOC(=O)CNc1ccc2cc(C([NH-])=O)n(C(=O)N(C)CC(=O)[O-])c2c1 (3D coordinates assigned)
CCOC(=O)CNc1ccc2cc(C([NH-])=O)n(C(=O)N(C)CC(=O)[O-])c2c1 (optimized conformer: 73.91502143992369 kcal/mol)

>  <smiles>  (56) 
CCOC(=O)CNc1ccc2cc(C(N)=O)n(C(=O)N(C)CC(=O)O)c2c1

>  <score_type>  (56) 
oracle

>  <origin>  (56) 
adg

>  <m_score__min__energy>  (56) 
-7.1399999999999997

>  <m_primary>  (56) 
energy

$$$$
59:0
     RDKit          3D

 45 46  0  0  0  0  0  0  0  0999 V2000
  139.6610  157.3300  135.4800 C   0  0  0  0  0  0  0  0  0  0  0  0
  140.8100  158.1990  135.2120 N   0  0  0  0  0  0  0  0  0  0  0  0
  142.0970  157.9490  135.8800 C   0  0  0  0  0  0  0  0  0  0  0  0
  142.4250  156.4520  135.8690 C   0  0  0  0  0  0  0  0  0  0  0  0
  143.3260  156.1130  134.7550 N   0  0  0  0  0  0  0  0  0  0  0  0
  143.9130  154.7700  134.6790 C   0  0  0  0  0  0  0  0  0  0  0  0
  143.6350  157.0630  133.7100 C   0  0  0  0  0  0  0  0  0  0  0  0
  142.7740  157.3290  132.8280 O   0  0  0  0  0  0  0  0  0  0  0  0
  144.9040  157.7340  133.6630 N   0  0  0  0  0  0  0  0  0  0  0  0
  145.1300  159.0770  133.6130 C   0  0  0  0  0  0  0  0  0  0  0  0
  144.1040  160.1430  133.6980 C   0  0  0  0  0  0  0  0  0  0  0  0
  142.8690  160.0710  132.9810 N   0  0  0  0  0  0  0  0  0  0  0  0
  144.3120  161.1330  134.4500 O   0  0  0  0  0  0  0  0  0  0  0  0
  146.4830  159.3340  133.4040 C   0  0  0  0  0  0  0  0  0  0  0  0
  147.0810  158.0980  133.3120 C   0  0  0  0  0  0  0  0  0  0  0  0
  148.4060  157.7610  133.0560 C   0  0  0  0  0  0  0  0  0  0  0  0
  148.7280  156.3990  132.9390 C   0  0  0  0  0  0  0  0  0  0  0  0
  147.7270  155.4010  133.0770 C   0  0  0  0  0  0  0  0  0  0  0  0
  148.0730  153.9470  132.8850 C   0  0  0  0  0  0  0  0  0  0  0  0
  148.9950  153.7930  131.8640 F   0  0  0  0  0  0  0  0  0  0  0  0
  146.9260  153.2450  132.5660 F   0  0  0  0  0  0  0  0  0  0  0  0
  148.6180  153.4180  134.0420 F   0  0  0  0  0  0  0  0  0  0  0  0
  146.3860  155.7890  133.3020 C   0  0  0  0  0  0  0  0  0  0  0  0
  146.1030  157.1500  133.4530 C   0  0  0  0  0  0  0  0  0  0  0  0
  140.6070  159.3700  134.3920 C   0  0  0  0  0  0  0  0  0  0  0  0
  140.9990  160.4940  134.8080 O   0  0  0  0  0  0  0  0  0  0  0  0
  139.9430  159.3020  133.0790 C   0  0  0  0  0  0  0  0  0  0  0  0
  140.4800  159.8010  132.0570 O   0  0  0  0  0  0  0  0  0  0  0  0
  138.7320  158.6340  132.9520 O   0  0  0  0  0  0  0  0  0  0  0  0
  139.5248  157.2270  136.5667 H   0  0  0  0  0  0  0  0  0  0  0  0
  138.7561  157.7717  135.0373 H   0  0  0  0  0  0  0  0  0  0  0  0
  139.8396  156.3390  135.0373 H   0  0  0  0  0  0  0  0  0  0  0  0
  142.8913  158.4976  135.3526 H   0  0  0  0  0  0  0  0  0  0  0  0
  142.0289  158.2908  136.9233 H   0  0  0  0  0  0  0  0  0  0  0  0
  142.9117  156.1842  136.8184 H   0  0  0  0  0  0  0  0  0  0  0  0
  141.4875  155.8907  135.7422 H   0  0  0  0  0  0  0  0  0  0  0  0
  144.0812  154.3853  135.6957 H   0  0  0  0  0  0  0  0  0  0  0  0
  143.2259  154.0994  134.1422 H   0  0  0  0  0  0  0  0  0  0  0  0
  144.8719  154.8188  134.1422 H   0  0  0  0  0  0  0  0  0  0  0  0
  142.2020  160.8730  133.0170 H   0  0  0  0  0  0  0  0  0  0  0  0
  142.5590  159.2030  132.4970 H   0  0  0  0  0  0  0  0  0  0  0  0
  146.9705  160.3172  133.3285 H   0  0  0  0  0  0  0  0  0  0  0  0
  149.1779  158.5373  132.9485 H   0  0  0  0  0  0  0  0  0  0  0  0
  149.7678  156.1017  132.7381 H   0  0  0  0  0  0  0  0  0  0  0  0
  145.5843  155.0378  133.3570 H   0  0  0  0  0  0  0  0  0  0  0  0
  1  2  1  0
  2  3  1  0
  3  4  1  0
  4  5  1  0
  5  6  1  0
  5  7  1  0
  7  8  2  0
  7  9  1  0
  9 10  1  0
 10 11  1  0
 11 12  1  0
 11 13  2  0
 10 14  2  0
 14 15  1  0
 15 16  2  0
 16 17  1  0
 17 18  2  0
 18 19  1  0
 19 20  1  0
 19 21  1  0
 19 22  1  0
 18 23  1  0
 23 24  2  0
  2 25  1  0
 25 26  2  0
 25 27  1  0
 27 28  2  0
 27 29  1  0
 24  9  1  0
 24 15  1  0
  1 30  1  0
  1 31  1  0
  1 32  1  0
  3 33  1  0
  3 34  1  0
  4 35  1  0
  4 36  1  0
  6 37  1  0
  6 38  1  0
  6 39  1  0
 12 40  1  0
 12 41  1  0
 14 42  1  0
 16 43  1  0
 17 44  1  0
 23 45  1  0
M  CHG  1  29  -1
M  END
>  <UniqueID>  (57) 
57

>  <SMILES>  (57) 
CN(CCN(C)C(=O)n1c(C(N)=O)cc2ccc(C(F)(F)F)cc21)C(=O)C(=O)[O-]

>  <Energy>  (57) 
80.66961097215996

>  <Genealogy>  (57) 
CN(CCN(C)C(=O)n1c(C(N)=O)cc2ccc(C(F)(F)F)cc21)C(=O)C(=O)[O-] (protonated)
CN(CCN(C)C(=O)n1c(C(N)=O)cc2ccc(C(F)(F)F)cc21)C(=O)C(=O)[O-] (3D coordinates assigned)
CN(CCN(C)C(=O)n1c(C(N)=O)cc2ccc(C(F)(F)F)cc21)C(=O)C(=O)[O-] (optimized conformer: 80.66961097215996 kcal/mol)

>  <smiles>  (57) 
CN(CCN(C)C(=O)n1c(C(N)=O)cc2ccc(C(F)(F)F)cc21)C(=O)C(=O)O

>  <score_type>  (57) 
oracle

>  <origin>  (57) 
adg

>  <m_score__min__energy>  (57) 
-6.3200000000000003

>  <m_primary>  (57) 
energy

$$$$
60:0
     RDKit          3D

 47 48  0  0  0  0  0  0  0  0999 V2000
  145.9780  152.8610  132.9780 C   0  0  0  0  0  0  0  0  0  0  0  0
  146.9740  153.9190  133.1970 N   0  0  0  0  0  0  0  0  0  0  0  0
  148.3520  153.5930  132.9160 C   0  0  0  0  0  0  0  0  0  0  0  0
  149.1340  154.4970  132.5130 O   0  0  0  0  0  0  0  0  0  0  0  0
  148.9070  152.2120  133.1360 C   0  0  0  0  0  0  0  0  0  0  0  0
  149.9230  151.8960  132.1360 N   0  0  0  0  0  0  0  0  0  0  0  0
  150.0620  150.5930  131.5600 C   0  0  0  0  0  0  0  0  0  0  0  0
  149.3400  149.6380  131.9470 O   0  0  0  0  0  0  0  0  0  0  0  0
  150.9960  150.3780  130.5570 O   0  0  0  0  0  0  0  0  0  0  0  0
  146.5890  155.2500  133.7210 C   0  0  1  0  0  0  0  0  0  0  0  0
  147.4560  155.6800  134.9230 C   0  0  0  0  0  0  0  0  0  0  0  0
  147.4730  154.6420  136.0000 C   0  0  0  0  0  0  0  0  0  0  0  0
  146.6200  153.7140  135.9970 O   0  0  0  0  0  0  0  0  0  0  0  0
  148.4530  154.6750  136.9820 O   0  0  0  0  0  0  0  0  0  0  0  0
  146.6520  156.3060  132.6410 C   0  0  0  0  0  0  0  0  0  0  0  0
  146.9750  155.9980  131.4630 O   0  0  0  0  0  0  0  0  0  0  0  0
  146.4810  157.6890  132.9770 N   0  0  0  0  0  0  0  0  0  0  0  0
  147.3870  158.6980  132.8780 C   0  0  0  0  0  0  0  0  0  0  0  0
  148.8150  158.5510  132.5270 C   0  0  0  0  0  0  0  0  0  0  0  0
  149.3110  157.3720  131.8920 N   0  0  0  0  0  0  0  0  0  0  0  0
  149.6230  159.4660  132.8390 O   0  0  0  0  0  0  0  0  0  0  0  0
  146.7930  159.9190  133.1940 C   0  0  0  0  0  0  0  0  0  0  0  0
  145.4850  159.6180  133.5030 C   0  0  0  0  0  0  0  0  0  0  0  0
  144.4370  160.4500  133.8880 C   0  0  0  0  0  0  0  0  0  0  0  0
  143.1830  159.8610  134.1230 C   0  0  0  0  0  0  0  0  0  0  0  0
  142.9970  158.4650  133.9630 C   0  0  0  0  0  0  0  0  0  0  0  0
  141.6480  157.8560  134.2230 C   0  0  0  0  0  0  0  0  0  0  0  0
  141.2440  157.1250  133.1200 F   0  0  0  0  0  0  0  0  0  0  0  0
  140.7280  158.8560  134.4740 F   0  0  0  0  0  0  0  0  0  0  0  0
  144.0860  157.6520  133.5770 C   0  0  0  0  0  0  0  0  0  0  0  0
  145.3240  158.2650  133.3630 C   0  0  0  0  0  0  0  0  0  0  0  0
  145.6235  152.4845  133.9489 H   0  0  0  0  0  0  0  0  0  0  0  0
  145.1285  153.2689  132.4106 H   0  0  0  0  0  0  0  0  0  0  0  0
  146.4364  152.0376  132.4106 H   0  0  0  0  0  0  0  0  0  0  0  0
  149.3585  152.1602  134.1377 H   0  0  0  0  0  0  0  0  0  0  0  0
  148.0869  151.4843  133.0475 H   0  0  0  0  0  0  0  0  0  0  0  0
  150.5420  152.6620  131.7900 H   0  0  0  0  0  0  0  0  0  0  0  0
  145.5498  155.1553  134.0691 H   0  0  0  0  0  0  0  0  0  0  0  0
  148.4860  155.8488  134.5759 H   0  0  0  0  0  0  0  0  0  0  0  0
  147.0227  156.5995  135.3434 H   0  0  0  0  0  0  0  0  0  0  0  0
  150.3120  157.3190  131.5990 H   0  0  0  0  0  0  0  0  0  0  0  0
  148.7280  156.5120  131.8060 H   0  0  0  0  0  0  0  0  0  0  0  0
  147.2678  160.9113  133.1961 H   0  0  0  0  0  0  0  0  0  0  0  0
  144.5859  161.5336  134.0045 H   0  0  0  0  0  0  0  0  0  0  0  0
  142.3363  160.4903  134.4346 H   0  0  0  0  0  0  0  0  0  0  0  0
  141.7146  157.1908  135.0965 H   0  0  0  0  0  0  0  0  0  0  0  0
  143.9631  156.5665  133.4484 H   0  0  0  0  0  0  0  0  0  0  0  0
  1  2  1  0
  2  3  1  0
  3  4  2  0
  3  5  1  0
  5  6  1  0
  6  7  1  0
  7  8  2  0
  7  9  1  0
  2 10  1  0
 10 11  1  0
 11 12  1  0
 12 13  2  0
 12 14  1  0
 10 15  1  0
 15 16  2  0
 15 17  1  0
 17 18  1  0
 18 19  1  0
 19 20  1  0
 19 21  2  0
 18 22  2  0
 22 23  1  0
 23 24  2  0
 24 25  1  0
 25 26  2  0
 26 27  1  0
 27 28  1  0
 27 29  1  0
 26 30  1  0
 30 31  2  0
 31 17  1  0
 31 23  1  0
  1 32  1  0
  1 33  1  0
  1 34  1  0
  5 35  1  0
  5 36  1  0
  6 37  1  0
 10 38  1  1
 11 39  1  0
 11 40  1  0
 20 41  1  0
 20 42  1  0
 22 43  1  0
 24 44  1  0
 25 45  1  0
 27 46  1  0
 30 47  1  0
M  CHG  2   9  -1  14  -1
M  END
>  <UniqueID>  (58) 
58

>  <SMILES>  (58) 
CN(C(=O)CNC(=O)[O-])[C@@H](CC(=O)[O-])C(=O)n1c(C(N)=O)cc2ccc(C(F)F)cc21

>  <Energy>  (58) 
82.37372939126709

>  <Genealogy>  (58) 
CN(C(=O)CNC(=O)[O-])[C@@H](CC(=O)[O-])C(=O)n1c(C(N)=O)cc2ccc(C(F)F)cc21 (protonated)
CN(C(=O)CNC(=O)[O-])[C@@H](CC(=O)[O-])C(=O)n1c(C(N)=O)cc2ccc(C(F)F)cc21 (3D coordinates assigned)
CN(C(=O)CNC(=O)[O-])[C@@H](CC(=O)[O-])C(=O)n1c(C(N)=O)cc2ccc(C(F)F)cc21 (optimized conformer: 82.37372939126709 kcal/mol)

>  <smiles>  (58) 
CN(C(=O)CNC(=O)O)[C@@H](CC(=O)O)C(=O)n1c(C(N)=O)cc2ccc(C(F)F)cc21

>  <score_type>  (58) 
oracle

>  <origin>  (58) 
adg

>  <m_score__min__energy>  (58) 
-7.4400000000000004

>  <m_primary>  (58) 
energy

$$$$
61:0
     RDKit          3D

 42 44  0  0  0  0  0  0  0  0999 V2000
  148.5740  156.5130  131.8400 H   0  0  0  0  0  0  0  0  0  0  0  0
  149.2140  157.1230  132.3930 N   0  0  0  0  0  0  0  0  0  0  0  0
  148.8820  158.4860  132.6550 C   0  0  0  0  0  0  0  0  0  0  0  0
  149.7730  159.3680  132.5410 O   0  0  0  0  0  0  0  0  0  0  0  0
  147.5130  158.8410  133.0830 C   0  0  0  0  0  0  0  0  0  0  0  0
  147.0360  160.1500  133.1380 C   0  0  0  0  0  0  0  0  0  0  0  0
  147.5962  161.0731  132.9280 H   0  0  0  0  0  0  0  0  0  0  0  0
  145.7150  160.0420  133.5110 C   0  0  0  0  0  0  0  0  0  0  0  0
  144.7570  161.0300  133.7180 C   0  0  0  0  0  0  0  0  0  0  0  0
  145.0013  162.0937  133.5805 H   0  0  0  0  0  0  0  0  0  0  0  0
  143.4680  160.6280  134.1080 C   0  0  0  0  0  0  0  0  0  0  0  0
  142.6874  161.3866  134.2668 H   0  0  0  0  0  0  0  0  0  0  0  0
  143.1600  159.2530  134.3000 C   0  0  0  0  0  0  0  0  0  0  0  0
  141.8330  158.8330  134.6980 N   0  0  0  0  0  0  0  0  0  0  0  0
  140.7360  158.9290  133.7670 C   0  0  0  0  0  0  0  0  0  0  0  0
  140.5540  160.0900  132.9980 C   0  0  0  0  0  0  0  0  0  0  0  0
  141.2695  160.9212  133.0834 H   0  0  0  0  0  0  0  0  0  0  0  0
  139.4670  160.1940  132.1240 C   0  0  0  0  0  0  0  0  0  0  0  0
  139.3332  161.1038  131.5203 H   0  0  0  0  0  0  0  0  0  0  0  0
  138.5500  159.1440  132.0160 C   0  0  0  0  0  0  0  0  0  0  0  0
  137.4680  159.2520  131.1510 O   0  0  0  0  0  0  0  0  0  0  0  0
  138.7230  157.9850  132.7790 C   0  0  0  0  0  0  0  0  0  0  0  0
  138.0026  157.1581  132.6933 H   0  0  0  0  0  0  0  0  0  0  0  0
  139.8110  157.8760  133.6510 C   0  0  0  0  0  0  0  0  0  0  0  0
  139.9439  156.9623  134.2490 H   0  0  0  0  0  0  0  0  0  0  0  0
  141.5570  158.4420  136.0850 C   0  0  0  0  0  0  0  0  0  0  0  0
  142.0534  159.1452  136.7699 H   0  0  0  0  0  0  0  0  0  0  0  0
  140.4716  158.4618  136.2625 H   0  0  0  0  0  0  0  0  0  0  0  0
  141.9391  157.4259  136.2625 H   0  0  0  0  0  0  0  0  0  0  0  0
  144.1730  158.2860  134.0960 C   0  0  0  0  0  0  0  0  0  0  0  0
  143.9709  157.2181  134.2655 H   0  0  0  0  0  0  0  0  0  0  0  0
  145.4350  158.7140  133.6750 C   0  0  0  0  0  0  0  0  0  0  0  0
  146.5260  157.9610  133.4110 N   0  0  0  0  0  0  0  0  0  0  0  0
  146.6140  156.5290  133.4980 C   0  0  0  0  0  0  0  0  0  0  0  0
  146.6080  155.8390  132.4410 O   0  0  0  0  0  0  0  0  0  0  0  0
  146.7180  155.8740  134.8170 C   0  0  0  0  0  0  0  0  0  0  0  0
  146.0378  156.1906  135.6214 H   0  0  0  0  0  0  0  0  0  0  0  0
  147.6100  154.9090  135.0690 C   0  0  0  0  0  0  0  0  0  0  0  0
  148.2769  154.5735  134.2612 H   0  0  0  0  0  0  0  0  0  0  0  0
  147.7240  154.2840  136.3960 C   0  0  0  0  0  0  0  0  0  0  0  0
  148.5210  154.7660  137.2420 O   0  0  0  0  0  0  0  0  0  0  0  0
  146.9650  153.1690  136.7310 O   0  0  0  0  0  0  0  0  0  0  0  0
  1  2  1  0
  2  3  1  0
  3  4  2  0
  3  5  1  0
  5  6  2  0
  6  7  1  0
  6  8  1  0
  8  9  2  0
  9 10  1  0
  9 11  1  0
 11 12  1  0
 11 13  2  0
 13 14  1  0
 14 15  1  0
 15 16  2  0
 16 17  1  0
 16 18  1  0
 18 19  1  0
 18 20  2  0
 20 21  1  0
 20 22  1  0
 22 23  1  0
 22 24  2  0
 24 25  1  0
 14 26  1  0
 26 27  1  0
 26 28  1  0
 26 29  1  0
 13 30  1  0
 30 31  1  0
 30 32  2  0
 32 33  1  0
 33 34  1  0
 34 35  2  0
 34 36  1  0
 36 37  1  0
 36 38  2  0
 38 39  1  0
 38 40  1  0
 40 41  2  0
 40 42  1  0
 33  5  1  0
 32  8  1  0
 24 15  1  0
M  CHG  3   2  -1  21  -1  42  -1
M  END
>  <UniqueID>  (59) 
59

>  <SMILES>  (59) 
CN(c1ccc([O-])cc1)c1ccc2cc(C([NH-])=O)n(C(=O)/C=C/C(=O)[O-])c2c1

>  <Energy>  (59) 
89.29366254800574

>  <Genealogy>  (59) 
CN(c1ccc([O-])cc1)c1ccc2cc(C([NH-])=O)n(C(=O)/C=C/C(=O)[O-])c2c1 (protonated)
CN(c1ccc([O-])cc1)c1ccc2cc(C([NH-])=O)n(C(=O)/C=C/C(=O)[O-])c2c1 (cis-trans isomerization)
CN(c1ccc([O-])cc1)c1ccc2cc(C([NH-])=O)n(C(=O)/C=C/C(=O)[O-])c2c1 (3D coordinates assigned)
CN(c1ccc([O-])cc1)c1ccc2cc(C([NH-])=O)n(C(=O)/C=C/C(=O)[O-])c2c1 (optimized conformer: 89.29366254800574 kcal/mol)

>  <smiles>  (59) 
CN(c1ccc(O)cc1)c1ccc2cc(C(N)=O)n(C(=O)/C=C/C(=O)O)c2c1

>  <score_type>  (59) 
oracle

>  <origin>  (59) 
adg

>  <m_score__min__energy>  (59) 
-8.7599999999999998

>  <m_primary>  (59) 
energy

$$$$
62:0
     RDKit          3D

 39 40  0  0  0  0  0  0  0  0999 V2000
  144.6680  154.7890  131.7820 C   0  0  0  0  0  0  0  0  0  0  0  0
  144.2980  155.1450  133.1570 N   0  0  0  0  0  0  0  0  0  0  0  0
  144.3100  154.1080  134.2030 C   0  0  0  0  0  0  0  0  0  0  0  0
  145.0290  154.5990  135.4630 C   0  0  0  0  0  0  0  0  0  0  0  0
  146.3810  154.2260  135.4370 O   0  0  0  0  0  0  0  0  0  0  0  0
  143.9560  156.5150  133.4690 C   0  0  0  0  0  0  0  0  0  0  0  0
  142.6440  156.8550  133.8970 C   0  0  0  0  0  0  0  0  0  0  0  0
  142.3120  158.1810  134.2180 C   0  0  0  0  0  0  0  0  0  0  0  0
  143.3010  159.1510  134.0950 C   0  0  0  0  0  0  0  0  0  0  0  0
  143.2560  160.5000  134.3650 C   0  0  0  0  0  0  0  0  0  0  0  0
  144.5320  160.9760  134.0740 C   0  0  0  0  0  0  0  0  0  0  0  0
  144.9020  162.4060  134.1420 C   0  0  0  0  0  0  0  0  0  0  0  0
  145.9900  162.8450  134.9500 N   0  0  0  0  0  0  0  0  0  0  0  0
  144.2770  163.2450  133.4390 O   0  0  0  0  0  0  0  0  0  0  0  0
  145.3370  159.9590  133.6510 N   0  0  0  0  0  0  0  0  0  0  0  0
  146.7350  160.0160  133.3320 C   0  0  0  0  0  0  0  0  0  0  0  0
  147.3320  161.1280  133.3100 O   0  0  0  0  0  0  0  0  0  0  0  0
  147.4360  158.8320  133.0730 O   0  0  0  0  0  0  0  0  0  0  0  0
  148.3820  158.2680  133.9780 C   0  0  0  0  0  0  0  0  0  0  0  0
  148.0440  156.8400  134.2600 C   0  0  0  0  0  0  0  0  0  0  0  0
  147.6900  156.0740  133.3250 O   0  0  0  0  0  0  0  0  0  0  0  0
  148.0890  156.3610  135.5630 O   0  0  0  0  0  0  0  0  0  0  0  0
  144.5660  158.8500  133.6670 C   0  0  0  0  0  0  0  0  0  0  0  0
  144.9310  157.5350  133.3580 C   0  0  0  0  0  0  0  0  0  0  0  0
  145.4605  154.0264  131.8013 H   0  0  0  0  0  0  0  0  0  0  0  0
  143.7876  154.3897  131.2571 H   0  0  0  0  0  0  0  0  0  0  0  0
  145.0331  155.6841  131.2571 H   0  0  0  0  0  0  0  0  0  0  0  0
  143.2731  153.8466  134.4607 H   0  0  0  0  0  0  0  0  0  0  0  0
  144.8472  153.2296  133.8159 H   0  0  0  0  0  0  0  0  0  0  0  0
  144.9574  155.6954  135.5160 H   0  0  0  0  0  0  0  0  0  0  0  0
  144.5524  154.1435  136.3435 H   0  0  0  0  0  0  0  0  0  0  0  0
  146.8710  154.9590  134.9810 H   0  0  0  0  0  0  0  0  0  0  0  0
  141.8787  156.0690  133.9778 H   0  0  0  0  0  0  0  0  0  0  0  0
  141.2993  158.4449  134.5568 H   0  0  0  0  0  0  0  0  0  0  0  0
  142.3956  161.0787  134.7323 H   0  0  0  0  0  0  0  0  0  0  0  0
  146.9700  162.8230  134.5900 H   0  0  0  0  0  0  0  0  0  0  0  0
  149.3865  158.3219  133.5328 H   0  0  0  0  0  0  0  0  0  0  0  0
  148.3562  158.8342  134.9207 H   0  0  0  0  0  0  0  0  0  0  0  0
  145.9556  157.2986  133.0351 H   0  0  0  0  0  0  0  0  0  0  0  0
  1  2  1  0
  2  3  1  0
  3  4  1  0
  4  5  1  0
  2  6  1  0
  6  7  2  0
  7  8  1  0
  8  9  2  0
  9 10  1  0
 10 11  2  0
 11 12  1  0
 12 13  1  0
 12 14  2  0
 11 15  1  0
 15 16  1  0
 16 17  2  0
 16 18  1  0
 18 19  1  0
 19 20  1  0
 20 21  2  0
 20 22  1  0
 15 23  1  0
 23 24  2  0
 24  6  1  0
 23  9  1  0
  1 25  1  0
  1 26  1  0
  1 27  1  0
  3 28  1  0
  3 29  1  0
  4 30  1  0
  4 31  1  0
  5 32  1  0
  7 33  1  0
  8 34  1  0
 10 35  1  0
 13 36  1  0
 19 37  1  0
 19 38  1  0
 24 39  1  0
M  CHG  2  13  -1  22  -1
M  END
>  <UniqueID>  (60) 
60

>  <SMILES>  (60) 
CN(CCO)c1ccc2cc(C([NH-])=O)n(C(=O)OCC(=O)[O-])c2c1

>  <Energy>  (60) 
75.86305666288995

>  <Genealogy>  (60) 
CN(CCO)c1ccc2cc(C([NH-])=O)n(C(=O)OCC(=O)[O-])c2c1 (protonated)
CN(CCO)c1ccc2cc(C([NH-])=O)n(C(=O)OCC(=O)[O-])c2c1 (3D coordinates assigned)
CN(CCO)c1ccc2cc(C([NH-])=O)n(C(=O)OCC(=O)[O-])c2c1 (optimized conformer: 75.86305666288995 kcal/mol)

>  <smiles>  (60) 
CN(CCO)c1ccc2cc(C(N)=O)n(C(=O)OCC(=O)O)c2c1

>  <score_type>  (60) 
oracle

>  <origin>  (60) 
adg

>  <m_score__min__energy>  (60) 
-5.4699999999999998

>  <m_primary>  (60) 
energy

$$$$
63:0
     RDKit          3D

 46 47  0  0  0  0  0  0  0  0999 V2000
  147.1080  151.1390  132.2010 C   0  0  0  0  0  0  0  0  0  0  0  0
  147.2790  152.4290  132.7720 O   0  0  0  0  0  0  0  0  0  0  0  0
  148.5300  152.9170  133.1650 C   0  0  0  0  0  0  0  0  0  0  0  0
  149.3680  152.1620  133.7280 O   0  0  0  0  0  0  0  0  0  0  0  0
  148.8470  154.3720  132.9750 C   0  0  0  0  0  0  0  0  0  0  0  0
  147.7980  155.0590  132.2040 N   0  0  0  0  0  0  0  0  0  0  0  0
  147.7030  156.4510  132.5750 C   0  0  0  0  0  0  0  0  0  0  0  0
  148.8500  157.2850  132.5140 C   0  0  0  0  0  0  0  0  0  0  0  0
  148.7580  158.6540  132.8150 C   0  0  0  0  0  0  0  0  0  0  0  0
  147.5120  159.1630  133.1680 C   0  0  0  0  0  0  0  0  0  0  0  0
  147.1330  160.4540  133.4550 C   0  0  0  0  0  0  0  0  0  0  0  0
  145.7620  160.3930  133.6920 C   0  0  0  0  0  0  0  0  0  0  0  0
  144.9540  161.5570  134.1100 C   0  0  0  0  0  0  0  0  0  0  0  0
  143.5870  161.6510  133.7170 N   0  0  0  0  0  0  0  0  0  0  0  0
  145.4690  162.4900  134.7810 O   0  0  0  0  0  0  0  0  0  0  0  0
  145.3090  159.1150  133.5540 N   0  0  0  0  0  0  0  0  0  0  0  0
  143.9480  158.6570  133.6030 C   0  0  0  0  0  0  0  0  0  0  0  0
  143.4670  158.0250  132.6260 O   0  0  0  0  0  0  0  0  0  0  0  0
  143.1660  158.9430  134.7330 O   0  0  0  0  0  0  0  0  0  0  0  0
  141.7490  158.7580  134.8570 C   0  0  0  0  0  0  0  0  0  0  0  0
  141.0900  159.5190  133.6960 C   0  0  0  0  0  0  0  0  0  0  0  0
  141.2370  159.3410  136.1870 C   0  0  0  0  0  0  0  0  0  0  0  0
  141.3880  157.2650  134.7400 C   0  0  0  0  0  0  0  0  0  0  0  0
  146.3940  158.3720  133.2380 C   0  0  0  0  0  0  0  0  0  0  0  0
  146.4550  157.0070  132.9410 C   0  0  0  0  0  0  0  0  0  0  0  0
  147.0091  150.3931  133.0034 H   0  0  0  0  0  0  0  0  0  0  0  0
  146.2009  151.1307  131.5788 H   0  0  0  0  0  0  0  0  0  0  0  0
  147.9816  150.8947  131.5788 H   0  0  0  0  0  0  0  0  0  0  0  0
  148.9356  154.8499  133.9618 H   0  0  0  0  0  0  0  0  0  0  0  0
  149.7910  154.4482  132.4154 H   0  0  0  0  0  0  0  0  0  0  0  0
  146.8820  154.5880  132.3910 H   0  0  0  0  0  0  0  0  0  0  0  0
  147.9870  154.9670  131.1780 H   0  0  0  0  0  0  0  0  0  0  0  0
  149.8211  156.8547  132.2280 H   0  0  0  0  0  0  0  0  0  0  0  0
  149.6443  159.3041  132.7729 H   0  0  0  0  0  0  0  0  0  0  0  0
  147.7765  161.3455  133.4899 H   0  0  0  0  0  0  0  0  0  0  0  0
  143.0050  160.7930  133.5950 H   0  0  0  0  0  0  0  0  0  0  0  0
  140.4198  160.2929  134.0984 H   0  0  0  0  0  0  0  0  0  0  0  0
  141.8682  159.9924  133.0793 H   0  0  0  0  0  0  0  0  0  0  0  0
  140.5103  158.8165  133.0793 H   0  0  0  0  0  0  0  0  0  0  0  0
  141.7062  158.8067  137.0263 H   0  0  0  0  0  0  0  0  0  0  0  0
  141.4944  160.4090  136.2424 H   0  0  0  0  0  0  0  0  0  0  0  0
  140.1447  159.2237  136.2424 H   0  0  0  0  0  0  0  0  0  0  0  0
  141.2836  156.8331  135.7463 H   0  0  0  0  0  0  0  0  0  0  0  0
  140.4383  157.1590  134.1951 H   0  0  0  0  0  0  0  0  0  0  0  0
  142.1843  156.7368  134.1951 H   0  0  0  0  0  0  0  0  0  0  0  0
  145.5528  156.3797  132.9908 H   0  0  0  0  0  0  0  0  0  0  0  0
  1  2  1  0
  2  3  1  0
  3  4  2  0
  3  5  1  0
  5  6  1  0
  6  7  1  0
  7  8  2  0
  8  9  1  0
  9 10  2  0
 10 11  1  0
 11 12  2  0
 12 13  1  0
 13 14  1  0
 13 15  2  0
 12 16  1  0
 16 17  1  0
 17 18  2  0
 17 19  1  0
 19 20  1  0
 20 21  1  0
 20 22  1  0
 20 23  1  0
 16 24  1  0
 24 25  2  0
 25  7  1  0
 24 10  1  0
  1 26  1  0
  1 27  1  0
  1 28  1  0
  5 29  1  0
  5 30  1  0
  6 31  1  0
  6 32  1  0
  8 33  1  0
  9 34  1  0
 11 35  1  0
 14 36  1  0
 21 37  1  0
 21 38  1  0
 21 39  1  0
 22 40  1  0
 22 41  1  0
 22 42  1  0
 23 43  1  0
 23 44  1  0
 23 45  1  0
 25 46  1  0
M  CHG  2   6   1  14  -1
M  END
>  <UniqueID>  (61) 
61

>  <SMILES>  (61) 
COC(=O)C[NH2+]c1ccc2cc(C([NH-])=O)n(C(=O)OC(C)(C)C)c2c1

>  <Energy>  (61) 
75.87623365339

>  <Genealogy>  (61) 
COC(=O)C[NH2+]c1ccc2cc(C([NH-])=O)n(C(=O)OC(C)(C)C)c2c1 (protonated)
COC(=O)C[NH2+]c1ccc2cc(C([NH-])=O)n(C(=O)OC(C)(C)C)c2c1 (3D coordinates assigned)
COC(=O)C[NH2+]c1ccc2cc(C([NH-])=O)n(C(=O)OC(C)(C)C)c2c1 (optimized conformer: 75.87623365339 kcal/mol)

>  <smiles>  (61) 
COC(=O)CNc1ccc2cc(C(N)=O)n(C(=O)OC(C)(C)C)c2c1

>  <score_type>  (61) 
oracle

>  <origin>  (61) 
adg

>  <m_score__min__energy>  (61) 
-6.9299999999999997

>  <m_primary>  (61) 
energy

$$$$
65:0
     RDKit          3D

 42 43  0  0  0  0  0  0  0  0999 V2000
  145.4930  156.7950  133.4300 N   0  0  0  0  0  0  0  0  0  0  0  0
  144.2930  156.4800  134.1390 C   0  0  0  0  0  0  0  0  0  0  0  0
  144.3400  155.6680  135.1010 O   0  0  0  0  0  0  0  0  0  0  0  0
  142.9900  157.0380  133.7240 C   0  0  0  0  0  0  0  0  0  0  0  0
  141.8380  156.2700  133.5790 C   0  0  0  0  0  0  0  0  0  0  0  0
  140.8770  157.1400  133.1190 C   0  0  0  0  0  0  0  0  0  0  0  0
  139.5400  156.9130  132.8080 C   0  0  0  0  0  0  0  0  0  0  0  0
  138.7670  158.0070  132.3820 C   0  0  0  0  0  0  0  0  0  0  0  0
  139.3370  159.3020  132.2960 C   0  0  0  0  0  0  0  0  0  0  0  0
  138.5040  160.4610  131.8190 C   0  0  0  0  0  0  0  0  0  0  0  0
  137.5320  160.0130  130.7260 C   0  0  0  0  0  0  0  0  0  0  0  0
  138.1210  160.1640  129.4620 O   0  0  0  0  0  0  0  0  0  0  0  0
  140.6990  159.4930  132.6110 C   0  0  0  0  0  0  0  0  0  0  0  0
  141.4520  158.3810  133.0110 C   0  0  0  0  0  0  0  0  0  0  0  0
  142.7500  158.3350  133.3830 N   0  0  0  0  0  0  0  0  0  0  0  0
  143.6510  159.4490  133.4970 C   0  0  0  0  0  0  0  0  0  0  0  0
  143.3040  160.4730  134.1480 O   0  0  0  0  0  0  0  0  0  0  0  0
  144.9070  159.3940  132.8830 O   0  0  0  0  0  0  0  0  0  0  0  0
  146.1150  159.7890  133.5300 C   0  0  0  0  0  0  0  0  0  0  0  0
  147.2110  160.0620  132.4960 C   0  0  0  0  0  0  0  0  0  0  0  0
  148.1450  158.8550  132.3510 C   0  0  0  0  0  0  0  0  0  0  0  0
  149.5600  159.2700  131.9420 C   0  0  0  0  0  0  0  0  0  0  0  0
  149.6070  160.1270  129.9780 I   0  0  0  0  0  0  0  0  0  0  0  0
  145.4650  157.3200  132.5290 H   0  0  0  0  0  0  0  0  0  0  0  0
  146.4110  156.4260  133.7640 H   0  0  0  0  0  0  0  0  0  0  0  0
  141.7211  155.1963  133.7878 H   0  0  0  0  0  0  0  0  0  0  0  0
  139.1012  155.9079  132.8929 H   0  0  0  0  0  0  0  0  0  0  0  0
  137.7110  157.8569  132.1131 H   0  0  0  0  0  0  0  0  0  0  0  0
  137.9324  160.8680  132.6661 H   0  0  0  0  0  0  0  0  0  0  0  0
  139.1720  161.2307  131.4051 H   0  0  0  0  0  0  0  0  0  0  0  0
  137.2724  158.9555  130.8818 H   0  0  0  0  0  0  0  0  0  0  0  0
  136.6252  160.6337  130.7758 H   0  0  0  0  0  0  0  0  0  0  0  0
  138.0300  159.2900  129.0010 H   0  0  0  0  0  0  0  0  0  0  0  0
  141.1584  160.4902  132.5442 H   0  0  0  0  0  0  0  0  0  0  0  0
  145.9313  160.7034  134.1132 H   0  0  0  0  0  0  0  0  0  0  0  0
  146.4458  158.9767  134.1939 H   0  0  0  0  0  0  0  0  0  0  0  0
  146.7428  160.2730  131.5232 H   0  0  0  0  0  0  0  0  0  0  0  0
  147.8041  160.9244  132.8345 H   0  0  0  0  0  0  0  0  0  0  0  0
  148.1946  158.3267  133.3146 H   0  0  0  0  0  0  0  0  0  0  0  0
  147.7401  158.2054  131.5610 H   0  0  0  0  0  0  0  0  0  0  0  0
  149.9351  160.0117  132.6625 H   0  0  0  0  0  0  0  0  0  0  0  0
  150.1906  158.3687  131.9353 H   0  0  0  0  0  0  0  0  0  0  0  0
  1  2  1  0
  2  3  2  0
  2  4  1  0
  4  5  2  0
  5  6  1  0
  6  7  2  0
  7  8  1  0
  8  9  2  0
  9 10  1  0
 10 11  1  0
 11 12  1  0
  9 13  1  0
 13 14  2  0
 14 15  1  0
 15 16  1  0
 16 17  2  0
 16 18  1  0
 18 19  1  0
 19 20  1  0
 20 21  1  0
 21 22  1  0
 22 23  1  0
 15  4  1  0
 14  6  1  0
  1 24  1  0
  1 25  1  0
  5 26  1  0
  7 27  1  0
  8 28  1  0
 10 29  1  0
 10 30  1  0
 11 31  1  0
 11 32  1  0
 12 33  1  0
 13 34  1  0
 19 35  1  0
 19 36  1  0
 20 37  1  0
 20 38  1  0
 21 39  1  0
 21 40  1  0
 22 41  1  0
 22 42  1  0
M  END
>  <UniqueID>  (62) 
62

>  <SMILES>  (62) 
NC(=O)c1cc2ccc(CCO)cc2n1C(=O)OCCCCI

>  <Energy>  (62) 
70.2286619458651

>  <Genealogy>  (62) 
NC(=O)c1cc2ccc(CCO)cc2n1C(=O)OCCCCI (3D coordinates assigned)
NC(=O)c1cc2ccc(CCO)cc2n1C(=O)OCCCCI (optimized conformer: 70.2286619458651 kcal/mol)

>  <smiles>  (62) 
NC(=O)c1cc2ccc(CCO)cc2n1C(=O)OCCCCI

>  <score_type>  (62) 
oracle

>  <origin>  (62) 
adg

>  <m_score__min__energy>  (62) 
-8.0399999999999991

>  <m_primary>  (62) 
energy

$$$$
66:0
     RDKit          3D

 28 29  0  0  0  0  0  0  0  0999 V2000
  144.2750  157.7930  133.9710 H   0  0  0  0  0  0  0  0  0  0  0  0
  145.0100  157.0830  133.7610 N   0  0  0  0  0  0  0  0  0  0  0  0
  146.3740  157.3150  134.1060 C   0  0  0  0  0  0  0  0  0  0  0  0
  146.8640  156.7290  135.1070 O   0  0  0  0  0  0  0  0  0  0  0  0
  147.2300  158.1840  133.2740 C   0  0  0  0  0  0  0  0  0  0  0  0
  148.4050  157.7470  132.6670 C   0  0  0  0  0  0  0  0  0  0  0  0
  148.8787  156.7592  132.7660 H   0  0  0  0  0  0  0  0  0  0  0  0
  148.8480  158.8130  131.9170 C   0  0  0  0  0  0  0  0  0  0  0  0
  149.9790  158.9360  131.1150 C   0  0  0  0  0  0  0  0  0  0  0  0
  150.6754  158.0948  130.9835 H   0  0  0  0  0  0  0  0  0  0  0  0
  150.2030  160.1680  130.4790 C   0  0  0  0  0  0  0  0  0  0  0  0
  151.0853  160.2959  129.8347 H   0  0  0  0  0  0  0  0  0  0  0  0
  149.3050  161.2460  130.6590 C   0  0  0  0  0  0  0  0  0  0  0  0
  149.5510  162.4990  130.0150 N   0  0  0  0  0  0  0  0  0  0  0  0
  148.9210  162.8410  129.2550 H   0  0  0  0  0  0  0  0  0  0  0  0
  150.3630  163.0920  130.2940 H   0  0  0  0  0  0  0  0  0  0  0  0
  148.1680  161.0860  131.4800 C   0  0  0  0  0  0  0  0  0  0  0  0
  147.4645  161.9168  131.6381 H   0  0  0  0  0  0  0  0  0  0  0  0
  147.9590  159.8420  132.0880 C   0  0  0  0  0  0  0  0  0  0  0  0
  146.9610  159.4740  132.9220 N   0  0  0  0  0  0  0  0  0  0  0  0
  145.9040  160.3170  133.4070 C   0  0  0  0  0  0  0  0  0  0  0  0
  146.1780  161.4480  133.8950 O   0  0  0  0  0  0  0  0  0  0  0  0
  144.5490  159.8520  133.3650 N   0  0  0  0  0  0  0  0  0  0  0  0
  143.6230  160.2400  134.1860 C   0  0  0  0  0  0  0  0  0  0  0  0
  143.8623  160.9663  134.9768 H   0  0  0  0  0  0  0  0  0  0  0  0
  142.2590  159.7160  134.0660 C   0  0  0  0  0  0  0  0  0  0  0  0
  141.2700  160.4970  134.0640 O   0  0  0  0  0  0  0  0  0  0  0  0
  142.0540  158.3470  133.9540 O   0  0  0  0  0  0  0  0  0  0  0  0
  1  2  1  0
  2  3  1  0
  3  4  2  0
  3  5  1  0
  5  6  2  0
  6  7  1  0
  6  8  1  0
  8  9  2  0
  9 10  1  0
  9 11  1  0
 11 12  1  0
 11 13  2  0
 13 14  1  0
 14 15  1  0
 14 16  1  0
 13 17  1  0
 17 18  1  0
 17 19  2  0
 19 20  1  0
 20 21  1  0
 21 22  2  0
 21 23  1  0
 23 24  2  0
 24 25  1  0
 24 26  1  0
 26 27  2  0
 26 28  1  0
 20  5  1  0
 19  8  1  0
M  CHG  2   2  -1  28  -1
M  END
>  <UniqueID>  (63) 
63

>  <SMILES>  (63) 
[NH-]C(=O)c1cc2ccc(N)cc2n1C(=O)/N=C/C(=O)[O-]

>  <Energy>  (63) 
65.68619871187288

>  <Genealogy>  (63) 
[NH-]C(=O)c1cc2ccc(N)cc2n1C(=O)/N=C/C(=O)[O-] (protonated)
[NH-]C(=O)c1cc2ccc(N)cc2n1C(=O)/N=C/C(=O)[O-] (cis-trans isomerization)
[NH-]C(=O)c1cc2ccc(N)cc2n1C(=O)/N=C/C(=O)[O-] (3D coordinates assigned)
[NH-]C(=O)c1cc2ccc(N)cc2n1C(=O)/N=C/C(=O)[O-] (optimized conformer: 65.68619871187288 kcal/mol)

>  <smiles>  (63) 
NC(=O)c1cc2ccc(N)cc2n1C(=O)/N=C/C(=O)O

>  <score_type>  (63) 
oracle

>  <origin>  (63) 
adg

>  <m_score__min__energy>  (63) 
-6.5599999999999996

>  <m_primary>  (63) 
energy

$$$$
67:0
     RDKit          3D

 46 47  0  0  0  0  0  0  0  0999 V2000
  140.2690  158.9040  136.9900 N   0  0  0  0  0  0  0  0  0  0  0  0
  141.1610  157.8540  136.6280 C   0  0  0  0  0  0  0  0  0  0  0  0
  141.9610  158.0250  135.6700 O   0  0  0  0  0  0  0  0  0  0  0  0
  141.1350  156.5760  137.3720 C   0  0  0  0  0  0  0  0  0  0  0  0
  140.6020  156.4270  138.6510 C   0  0  0  0  0  0  0  0  0  0  0  0
  140.7680  155.0940  138.9610 C   0  0  0  0  0  0  0  0  0  0  0  0
  140.3950  154.3830  140.0960 C   0  0  0  0  0  0  0  0  0  0  0  0
  140.6590  153.0030  140.1240 C   0  0  0  0  0  0  0  0  0  0  0  0
  141.2640  152.3550  139.0150 C   0  0  0  0  0  0  0  0  0  0  0  0
  141.5780  150.8810  139.0750 C   0  0  0  0  0  0  0  0  0  0  0  0
  142.9420  150.6660  138.9810 F   0  0  0  0  0  0  0  0  0  0  0  0
  140.9620  150.2090  138.0330 F   0  0  0  0  0  0  0  0  0  0  0  0
  141.1210  150.3640  140.2750 F   0  0  0  0  0  0  0  0  0  0  0  0
  141.6490  153.1170  137.8880 C   0  0  0  0  0  0  0  0  0  0  0  0
  141.3830  154.4910  137.8950 C   0  0  0  0  0  0  0  0  0  0  0  0
  141.6190  155.3890  136.9190 N   0  0  0  0  0  0  0  0  0  0  0  0
  142.1620  155.1000  135.6250 C   0  0  0  0  0  0  0  0  0  0  0  0
  143.3440  155.4440  135.3530 O   0  0  0  0  0  0  0  0  0  0  0  0
  141.3790  154.2760  134.6520 C   0  0  0  0  0  0  0  0  0  0  0  0
  140.6590  155.1850  133.7070 C   0  0  0  0  0  0  0  0  0  0  0  0
  139.7460  154.7220  132.9720 O   0  0  0  0  0  0  0  0  0  0  0  0
  141.0570  156.5570  133.5940 N   0  0  0  0  0  0  0  0  0  0  0  0
  140.4880  157.4320  132.5650 C   0  0  0  0  0  0  0  0  0  0  0  0
  139.9020  158.7590  133.1350 C   0  0  0  0  0  0  0  0  0  0  0  0
  139.2370  158.5150  134.3540 O   0  0  0  0  0  0  0  0  0  0  0  0
  141.0010  159.8350  133.3470 C   0  0  0  0  0  0  0  0  0  0  0  0
  140.9620  160.3350  134.6570 O   0  0  0  0  0  0  0  0  0  0  0  0
  138.8530  159.3160  132.1400 C   0  0  0  0  0  0  0  0  0  0  0  0
  137.6360  158.6210  132.2330 O   0  0  0  0  0  0  0  0  0  0  0  0
  139.6980  159.3930  136.2670 H   0  0  0  0  0  0  0  0  0  0  0  0
  140.1462  157.2066  139.2791 H   0  0  0  0  0  0  0  0  0  0  0  0
  139.9085  154.8849  140.9454 H   0  0  0  0  0  0  0  0  0  0  0  0
  140.3935  152.4174  141.0165 H   0  0  0  0  0  0  0  0  0  0  0  0
  142.1446  152.6424  137.0283 H   0  0  0  0  0  0  0  0  0  0  0  0
  142.0625  153.6247  134.0875 H   0  0  0  0  0  0  0  0  0  0  0  0
  140.6513  153.6548  135.1947 H   0  0  0  0  0  0  0  0  0  0  0  0
  141.7890  156.9050  134.2530 H   0  0  0  0  0  0  0  0  0  0  0  0
  141.2797  157.6821  131.8434 H   0  0  0  0  0  0  0  0  0  0  0  0
  139.6564  156.8846  132.0972 H   0  0  0  0  0  0  0  0  0  0  0  0
  139.9110  158.4980  135.0820 H   0  0  0  0  0  0  0  0  0  0  0  0
  141.9873  159.3845  133.1621 H   0  0  0  0  0  0  0  0  0  0  0  0
  140.8220  160.6647  132.6473 H   0  0  0  0  0  0  0  0  0  0  0  0
  140.8440  159.5460  135.2500 H   0  0  0  0  0  0  0  0  0  0  0  0
  138.6761  160.3782  132.3644 H   0  0  0  0  0  0  0  0  0  0  0  0
  139.2447  159.1914  131.1197 H   0  0  0  0  0  0  0  0  0  0  0  0
  137.7870  157.8620  132.8550 H   0  0  0  0  0  0  0  0  0  0  0  0
  1  2  1  0
  2  3  2  0
  2  4  1  0
  4  5  2  0
  5  6  1  0
  6  7  2  0
  7  8  1  0
  8  9  2  0
  9 10  1  0
 10 11  1  0
 10 12  1  0
 10 13  1  0
  9 14  1  0
 14 15  2  0
 15 16  1  0
 16 17  1  0
 17 18  2  0
 17 19  1  0
 19 20  1  0
 20 21  2  0
 20 22  1  0
 22 23  1  0
 23 24  1  0
 24 25  1  0
 24 26  1  0
 26 27  1  0
 24 28  1  0
 28 29  1  0
 16  4  1  0
 15  6  1  0
  1 30  1  0
  5 31  1  0
  7 32  1  0
  8 33  1  0
 14 34  1  0
 19 35  1  0
 19 36  1  0
 22 37  1  0
 23 38  1  0
 23 39  1  0
 25 40  1  0
 26 41  1  0
 26 42  1  0
 27 43  1  0
 28 44  1  0
 28 45  1  0
 29 46  1  0
M  CHG  1   1  -1
M  END
>  <UniqueID>  (64) 
64

>  <SMILES>  (64) 
[NH-]C(=O)c1cc2ccc(C(F)(F)F)cc2n1C(=O)CC(=O)NCC(O)(CO)CO

>  <Energy>  (64) 
80.08050662812288

>  <Genealogy>  (64) 
[NH-]C(=O)c1cc2ccc(C(F)(F)F)cc2n1C(=O)CC(=O)NCC(O)(CO)CO (protonated)
[NH-]C(=O)c1cc2ccc(C(F)(F)F)cc2n1C(=O)CC(=O)NCC(O)(CO)CO (3D coordinates assigned)
[NH-]C(=O)c1cc2ccc(C(F)(F)F)cc2n1C(=O)CC(=O)NCC(O)(CO)CO (optimized conformer: 80.08050662812288 kcal/mol)

>  <smiles>  (64) 
NC(=O)c1cc2ccc(C(F)(F)F)cc2n1C(=O)CC(=O)NCC(O)(CO)CO

>  <score_type>  (64) 
oracle

>  <origin>  (64) 
adg

>  <m_score__min__energy>  (64) 
-5.29

>  <m_primary>  (64) 
energy

$$$$
68:0
     RDKit          3D

 39 40  0  0  0  0  0  0  0  0999 V2000
  143.6950  160.4670  134.0370 C   0  0  0  0  0  0  0  0  0  0  0  0
  143.0960  159.1330  134.1280 N   0  0  0  0  0  0  0  0  0  0  0  0
  141.8820  158.9600  134.8790 C   0  0  0  0  0  0  0  0  0  0  0  0
  141.6330  159.7080  135.8650 O   0  0  0  0  0  0  0  0  0  0  0  0
  140.9760  157.9580  134.5130 O   0  0  0  0  0  0  0  0  0  0  0  0
  139.7960  158.2260  133.7630 C   0  0  0  0  0  0  0  0  0  0  0  0
  139.4990  157.0540  132.8380 C   0  0  0  0  0  0  0  0  0  0  0  0
  140.4240  156.0280  133.0630 O   0  0  0  0  0  0  0  0  0  0  0  0
  143.6350  158.0540  133.3350 C   0  0  0  0  0  0  0  0  0  0  0  0
  142.9820  157.6090  132.3520 O   0  0  0  0  0  0  0  0  0  0  0  0
  144.8940  157.4460  133.6740 N   0  0  0  0  0  0  0  0  0  0  0  0
  145.1060  156.3290  134.4250 C   0  0  0  0  0  0  0  0  0  0  0  0
  144.0560  155.4360  134.9600 C   0  0  0  0  0  0  0  0  0  0  0  0
  142.7450  155.4680  134.4010 N   0  0  0  0  0  0  0  0  0  0  0  0
  144.2980  154.6600  135.9220 O   0  0  0  0  0  0  0  0  0  0  0  0
  146.4710  156.0920  134.5700 C   0  0  0  0  0  0  0  0  0  0  0  0
  147.0940  157.1080  133.8810 C   0  0  0  0  0  0  0  0  0  0  0  0
  148.4480  157.3670  133.6940 C   0  0  0  0  0  0  0  0  0  0  0  0
  148.8050  158.5010  132.9420 C   0  0  0  0  0  0  0  0  0  0  0  0
  147.8080  159.3520  132.4040 C   0  0  0  0  0  0  0  0  0  0  0  0
  148.1910  160.5630  131.6010 C   0  0  0  0  0  0  0  0  0  0  0  0
  149.5660  160.6160  131.4660 F   0  0  0  0  0  0  0  0  0  0  0  0
  147.6110  160.4930  130.3480 F   0  0  0  0  0  0  0  0  0  0  0  0
  146.4440  159.0610  132.6220 C   0  0  0  0  0  0  0  0  0  0  0  0
  146.1190  157.9150  133.3540 C   0  0  0  0  0  0  0  0  0  0  0  0
  143.8713  160.8596  135.0493 H   0  0  0  0  0  0  0  0  0  0  0  0
  144.6511  160.4036  133.4967 H   0  0  0  0  0  0  0  0  0  0  0  0
  143.0124  161.1394  133.4967 H   0  0  0  0  0  0  0  0  0  0  0  0
  138.9505  158.3720  134.4513 H   0  0  0  0  0  0  0  0  0  0  0  0
  139.9447  159.1356  133.1625 H   0  0  0  0  0  0  0  0  0  0  0  0
  138.4835  156.6804  133.0360 H   0  0  0  0  0  0  0  0  0  0  0  0
  139.5731  157.3878  131.7925 H   0  0  0  0  0  0  0  0  0  0  0  0
  141.3140  156.4640  133.1080 H   0  0  0  0  0  0  0  0  0  0  0  0
  142.3470  156.3540  134.0160 H   0  0  0  0  0  0  0  0  0  0  0  0
  146.9497  155.2676  135.1188 H   0  0  0  0  0  0  0  0  0  0  0  0
  149.2160  156.7053  134.1211 H   0  0  0  0  0  0  0  0  0  0  0  0
  149.8673  158.7290  132.7702 H   0  0  0  0  0  0  0  0  0  0  0  0
  147.8376  161.4665  132.1195 H   0  0  0  0  0  0  0  0  0  0  0  0
  145.6567  159.7193  132.2259 H   0  0  0  0  0  0  0  0  0  0  0  0
  1  2  1  0
  2  3  1  0
  3  4  2  0
  3  5  1  0
  5  6  1  0
  6  7  1  0
  7  8  1  0
  2  9  1  0
  9 10  2  0
  9 11  1  0
 11 12  1  0
 12 13  1  0
 13 14  1  0
 13 15  2  0
 12 16  2  0
 16 17  1  0
 17 18  2  0
 18 19  1  0
 19 20  2  0
 20 21  1  0
 21 22  1  0
 21 23  1  0
 20 24  1  0
 24 25  2  0
 25 11  1  0
 25 17  1  0
  1 26  1  0
  1 27  1  0
  1 28  1  0
  6 29  1  0
  6 30  1  0
  7 31  1  0
  7 32  1  0
  8 33  1  0
 14 34  1  0
 16 35  1  0
 18 36  1  0
 19 37  1  0
 21 38  1  0
 24 39  1  0
M  CHG  1  14  -1
M  END
>  <UniqueID>  (65) 
65

>  <SMILES>  (65) 
CN(C(=O)OCCO)C(=O)n1c(C([NH-])=O)cc2ccc(C(F)F)cc21

>  <Energy>  (65) 
73.5743101460502

>  <Genealogy>  (65) 
CN(C(=O)OCCO)C(=O)n1c(C([NH-])=O)cc2ccc(C(F)F)cc21 (protonated)
CN(C(=O)OCCO)C(=O)n1c(C([NH-])=O)cc2ccc(C(F)F)cc21 (3D coordinates assigned)
CN(C(=O)OCCO)C(=O)n1c(C([NH-])=O)cc2ccc(C(F)F)cc21 (optimized conformer: 73.5743101460502 kcal/mol)

>  <smiles>  (65) 
CN(C(=O)OCCO)C(=O)n1c(C(N)=O)cc2ccc(C(F)F)cc21

>  <score_type>  (65) 
oracle

>  <origin>  (65) 
adg

>  <m_score__min__energy>  (65) 
-5.1200000000000001

>  <m_primary>  (65) 
energy

$$$$
69:0
     RDKit          3D

 40 41  0  0  0  0  0  0  0  0999 V2000
  141.3340  159.8910  133.8290 N   0  0  0  0  0  0  0  0  0  0  0  0
  142.6110  160.5230  133.7360 C   0  0  0  0  0  0  0  0  0  0  0  0
  142.6760  161.7800  133.7050 O   0  0  0  0  0  0  0  0  0  0  0  0
  143.8490  159.7290  133.6080 C   0  0  0  0  0  0  0  0  0  0  0  0
  145.0960  160.2920  133.3540 C   0  0  0  0  0  0  0  0  0  0  0  0
  145.9610  159.2270  133.2500 C   0  0  0  0  0  0  0  0  0  0  0  0
  147.3340  159.2100  133.0260 C   0  0  0  0  0  0  0  0  0  0  0  0
  147.9850  157.9650  133.0140 C   0  0  0  0  0  0  0  0  0  0  0  0
  147.2580  156.7680  133.2290 C   0  0  0  0  0  0  0  0  0  0  0  0
  147.9760  155.4490  133.2340 C   0  0  0  0  0  0  0  0  0  0  0  0
  149.2350  155.5990  132.6820 F   0  0  0  0  0  0  0  0  0  0  0  0
  148.0980  154.9910  134.5330 F   0  0  0  0  0  0  0  0  0  0  0  0
  145.8650  156.8240  133.4560 C   0  0  0  0  0  0  0  0  0  0  0  0
  145.2380  158.0770  133.4480 C   0  0  0  0  0  0  0  0  0  0  0  0
  143.9360  158.3700  133.6740 N   0  0  0  0  0  0  0  0  0  0  0  0
  142.9020  157.4510  134.0620 C   0  0  0  0  0  0  0  0  0  0  0  0
  142.8040  157.0820  135.2640 O   0  0  0  0  0  0  0  0  0  0  0  0
  142.0030  156.9740  133.1000 O   0  0  0  0  0  0  0  0  0  0  0  0
  140.9900  156.0050  133.3690 C   0  0  0  0  0  0  0  0  0  0  0  0
  139.7930  156.6460  134.0850 C   0  0  1  0  0  0  0  0  0  0  0  0
  140.2690  157.4560  135.1300 O   0  0  0  0  0  0  0  0  0  0  0  0
  138.9150  157.4810  133.1400 C   0  0  0  0  0  0  0  0  0  0  0  0
  139.0770  158.8530  133.4170 O   0  0  0  0  0  0  0  0  0  0  0  0
  138.9810  159.7160  131.9490 P   0  0  0  0  0  0  0  0  0  0  0  0
  139.8810  159.0920  130.9060 O   0  0  0  0  0  0  0  0  0  0  0  0
  139.4740  161.3110  132.2170 O   0  0  0  0  0  0  0  0  0  0  0  0
  137.3860  159.7200  131.3850 O   0  0  0  0  0  0  0  0  0  0  0  0
  140.4720  160.4660  133.9580 H   0  0  0  0  0  0  0  0  0  0  0  0
  141.2300  158.8610  133.6950 H   0  0  0  0  0  0  0  0  0  0  0  0
  145.3385  161.3606  133.2570 H   0  0  0  0  0  0  0  0  0  0  0  0
  147.8931  160.1432  132.8632 H   0  0  0  0  0  0  0  0  0  0  0  0
  149.0695  157.9191  132.8360 H   0  0  0  0  0  0  0  0  0  0  0  0
  147.4002  154.7239  132.6401 H   0  0  0  0  0  0  0  0  0  0  0  0
  145.2862  155.9058  133.6348 H   0  0  0  0  0  0  0  0  0  0  0  0
  140.6490  155.5676  132.4190 H   0  0  0  0  0  0  0  0  0  0  0  0
  141.4132  155.2268  134.0212 H   0  0  0  0  0  0  0  0  0  0  0  0
  139.1609  155.8347  134.4752 H   0  0  0  0  0  0  0  0  0  0  0  0
  140.9340  158.0770  134.7330 H   0  0  0  0  0  0  0  0  0  0  0  0
  139.2095  157.2825  132.0989 H   0  0  0  0  0  0  0  0  0  0  0  0
  137.8607  157.2049  133.2890 H   0  0  0  0  0  0  0  0  0  0  0  0
  1  2  1  0
  2  3  2  0
  2  4  1  0
  4  5  2  0
  5  6  1  0
  6  7  2  0
  7  8  1  0
  8  9  2  0
  9 10  1  0
 10 11  1  0
 10 12  1  0
  9 13  1  0
 13 14  2  0
 14 15  1  0
 15 16  1  0
 16 17  2  0
 16 18  1  0
 18 19  1  0
 19 20  1  0
 20 21  1  0
 20 22  1  0
 22 23  1  0
 23 24  1  0
 24 25  2  0
 24 26  1  0
 24 27  1  0
 15  4  1  0
 14  6  1  0
  1 28  1  0
  1 29  1  0
  5 30  1  0
  7 31  1  0
  8 32  1  0
 10 33  1  0
 13 34  1  0
 19 35  1  0
 19 36  1  0
 20 37  1  1
 21 38  1  0
 22 39  1  0
 22 40  1  0
M  CHG  2  26  -1  27  -1
M  END
>  <UniqueID>  (66) 
66

>  <SMILES>  (66) 
NC(=O)c1cc2ccc(C(F)F)cc2n1C(=O)OC[C@@H](O)COP(=O)([O-])[O-]

>  <Energy>  (66) 
73.38565203025063

>  <Genealogy>  (66) 
NC(=O)c1cc2ccc(C(F)F)cc2n1C(=O)OCC(O)COP(=O)([O-])[O-] (protonated)
NC(=O)c1cc2ccc(C(F)F)cc2n1C(=O)OC[C@@H](O)COP(=O)([O-])[O-] (chirality)
NC(=O)c1cc2ccc(C(F)F)cc2n1C(=O)OC[C@@H](O)COP(=O)([O-])[O-] (3D coordinates assigned)
NC(=O)c1cc2ccc(C(F)F)cc2n1C(=O)OC[C@@H](O)COP(=O)([O-])[O-] (optimized conformer: 73.38565203025063 kcal/mol)

>  <smiles>  (66) 
NC(=O)c1cc2ccc(C(F)F)cc2n1C(=O)OCC(O)COP(=O)(O)O

>  <score_type>  (66) 
oracle

>  <origin>  (66) 
adg

>  <m_score__min__energy>  (66) 
-5.3499999999999996

>  <m_primary>  (66) 
energy

$$$$
70:0
     RDKit          3D

 44 45  0  0  0  0  0  0  0  0999 V2000
  148.3960  154.7020  132.5860 C   0  0  0  0  0  0  0  0  0  0  0  0
  148.0300  156.1410  132.7820 C   0  0  0  0  0  0  0  0  0  0  0  0
  149.0150  157.1520  132.6540 C   0  0  0  0  0  0  0  0  0  0  0  0
  148.6730  158.5080  132.7920 C   0  0  0  0  0  0  0  0  0  0  0  0
  147.3400  158.8210  133.0470 C   0  0  0  0  0  0  0  0  0  0  0  0
  146.7310  160.0450  133.2060 C   0  0  0  0  0  0  0  0  0  0  0  0
  145.3840  159.7610  133.4250 C   0  0  0  0  0  0  0  0  0  0  0  0
  144.3720  160.7910  133.7350 C   0  0  0  0  0  0  0  0  0  0  0  0
  143.0090  160.6160  133.3560 N   0  0  0  0  0  0  0  0  0  0  0  0
  144.7050  161.8210  134.3820 O   0  0  0  0  0  0  0  0  0  0  0  0
  145.1690  158.4160  133.3910 N   0  0  0  0  0  0  0  0  0  0  0  0
  143.9180  157.7180  133.4660 C   0  0  0  0  0  0  0  0  0  0  0  0
  143.0210  157.9500  132.6120 O   0  0  0  0  0  0  0  0  0  0  0  0
  143.6270  156.7920  134.6140 C   0  0  0  0  0  0  0  0  0  0  0  0
  142.1960  156.2400  134.5420 C   0  0  0  0  0  0  0  0  0  0  0  0
  141.2140  157.0610  135.3500 C   0  0  0  0  0  0  0  0  0  0  0  0
  140.8660  156.6300  136.4840 O   0  0  0  0  0  0  0  0  0  0  0  0
  140.6170  158.2780  134.8440 N   0  0  0  0  0  0  0  0  0  0  0  0
  141.0720  159.5630  135.3860 C   0  0  0  0  0  0  0  0  0  0  0  0
  139.5290  158.2660  133.8530 C   0  0  0  0  0  0  0  0  0  0  0  0
  140.0820  158.3210  132.4240 C   0  0  0  0  0  0  0  0  0  0  0  0
  140.7130  159.5490  132.1820 O   0  0  0  0  0  0  0  0  0  0  0  0
  146.3760  157.8550  133.1660 C   0  0  0  0  0  0  0  0  0  0  0  0
  146.6860  156.4980  133.0260 C   0  0  0  0  0  0  0  0  0  0  0  0
  148.5191  154.2182  133.5662 H   0  0  0  0  0  0  0  0  0  0  0  0
  147.5984  154.1941  132.0239 H   0  0  0  0  0  0  0  0  0  0  0  0
  149.3393  154.6368  132.0239 H   0  0  0  0  0  0  0  0  0  0  0  0
  150.0580  156.8723  132.4445 H   0  0  0  0  0  0  0  0  0  0  0  0
  149.4339  159.2972  132.7015 H   0  0  0  0  0  0  0  0  0  0  0  0
  147.2061  161.0364  133.1683 H   0  0  0  0  0  0  0  0  0  0  0  0
  142.7560  160.0870  132.4910 H   0  0  0  0  0  0  0  0  0  0  0  0
  144.3363  155.9518  134.5843 H   0  0  0  0  0  0  0  0  0  0  0  0
  143.7317  157.3594  135.5505 H   0  0  0  0  0  0  0  0  0  0  0  0
  141.8719  156.2374  133.4908 H   0  0  0  0  0  0  0  0  0  0  0  0
  142.2089  155.2247  134.9652 H   0  0  0  0  0  0  0  0  0  0  0  0
  141.0578  159.5230  136.4852 H   0  0  0  0  0  0  0  0  0  0  0  0
  142.0963  159.7650  135.0396 H   0  0  0  0  0  0  0  0  0  0  0  0
  140.4030  160.3646  135.0396 H   0  0  0  0  0  0  0  0  0  0  0  0
  138.9418  157.3439  133.9756 H   0  0  0  0  0  0  0  0  0  0  0  0
  138.8977  159.1517  134.0172 H   0  0  0  0  0  0  0  0  0  0  0  0
  140.8104  157.5081  132.2875 H   0  0  0  0  0  0  0  0  0  0  0  0
  139.2463  158.2085  131.7177 H   0  0  0  0  0  0  0  0  0  0  0  0
  141.6870  159.3630  132.1430 H   0  0  0  0  0  0  0  0  0  0  0  0
  145.9031  155.7293  133.1040 H   0  0  0  0  0  0  0  0  0  0  0  0
  1  2  1  0
  2  3  2  0
  3  4  1  0
  4  5  2  0
  5  6  1  0
  6  7  2  0
  7  8  1  0
  8  9  1  0
  8 10  2  0
  7 11  1  0
 11 12  1  0
 12 13  2  0
 12 14  1  0
 14 15  1  0
 15 16  1  0
 16 17  2  0
 16 18  1  0
 18 19  1  0
 18 20  1  0
 20 21  1  0
 21 22  1  0
 11 23  1  0
 23 24  2  0
 24  2  1  0
 23  5  1  0
  1 25  1  0
  1 26  1  0
  1 27  1  0
  3 28  1  0
  4 29  1  0
  6 30  1  0
  9 31  1  0
 14 32  1  0
 14 33  1  0
 15 34  1  0
 15 35  1  0
 19 36  1  0
 19 37  1  0
 19 38  1  0
 20 39  1  0
 20 40  1  0
 21 41  1  0
 21 42  1  0
 22 43  1  0
 24 44  1  0
M  CHG  1   9  -1
M  END
>  <UniqueID>  (67) 
67

>  <SMILES>  (67) 
Cc1ccc2cc(C([NH-])=O)n(C(=O)CCC(=O)N(C)CCO)c2c1

>  <Energy>  (67) 
73.68243584184599

>  <Genealogy>  (67) 
Cc1ccc2cc(C([NH-])=O)n(C(=O)CCC(=O)N(C)CCO)c2c1 (protonated)
Cc1ccc2cc(C([NH-])=O)n(C(=O)CCC(=O)N(C)CCO)c2c1 (3D coordinates assigned)
Cc1ccc2cc(C([NH-])=O)n(C(=O)CCC(=O)N(C)CCO)c2c1 (optimized conformer: 73.68243584184599 kcal/mol)

>  <smiles>  (67) 
Cc1ccc2cc(C(N)=O)n(C(=O)CCC(=O)N(C)CCO)c2c1

>  <score_type>  (67) 
oracle

>  <origin>  (67) 
adg

>  <m_score__min__energy>  (67) 
-6.3200000000000003

>  <m_primary>  (67) 
energy

$$$$
71:0
     RDKit          3D

 40 41  0  0  0  0  0  0  0  0999 V2000
  141.0400  158.5240  135.4740 H   0  0  0  0  0  0  0  0  0  0  0  0
  141.3340  159.5250  135.4990 N   0  0  0  0  0  0  0  0  0  0  0  0
  142.0110  160.1180  134.3930 C   0  0  0  0  0  0  0  0  0  0  0  0
  141.4420  161.0300  133.7390 O   0  0  0  0  0  0  0  0  0  0  0  0
  143.3810  159.6830  134.0510 C   0  0  0  0  0  0  0  0  0  0  0  0
  144.4040  160.5620  133.6980 C   0  0  0  0  0  0  0  0  0  0  0  0
  144.3599  161.6608  133.6733 H   0  0  0  0  0  0  0  0  0  0  0  0
  145.4810  159.7630  133.3870 C   0  0  0  0  0  0  0  0  0  0  0  0
  146.7680  160.1100  132.9880 C   0  0  0  0  0  0  0  0  0  0  0  0
  147.0542  161.1630  132.8491 H   0  0  0  0  0  0  0  0  0  0  0  0
  147.6910  159.0730  132.7680 C   0  0  0  0  0  0  0  0  0  0  0  0
  148.7138  159.3143  132.4428 H   0  0  0  0  0  0  0  0  0  0  0  0
  147.3170  157.7190  132.9610 C   0  0  0  0  0  0  0  0  0  0  0  0
  148.3200  156.6260  132.7300 C   0  0  0  0  0  0  0  0  0  0  0  0
  147.9590  155.9723  131.9223 H   0  0  0  0  0  0  0  0  0  0  0  0
  149.5360  157.1800  132.3720 F   0  0  0  0  0  0  0  0  0  0  0  0
  148.4800  155.8830  133.8860 F   0  0  0  0  0  0  0  0  0  0  0  0
  145.9980  157.4060  133.3600 C   0  0  0  0  0  0  0  0  0  0  0  0
  145.6882  156.3618  133.5142 H   0  0  0  0  0  0  0  0  0  0  0  0
  145.0960  158.4580  133.5540 C   0  0  0  0  0  0  0  0  0  0  0  0
  143.8090  158.3920  133.9600 N   0  0  0  0  0  0  0  0  0  0  0  0
  143.0890  157.2000  134.3060 C   0  0  0  0  0  0  0  0  0  0  0  0
  142.6480  157.0530  135.4790 O   0  0  0  0  0  0  0  0  0  0  0  0
  142.8650  156.2180  133.3350 O   0  0  0  0  0  0  0  0  0  0  0  0
  141.8390  155.2310  133.4330 C   0  0  0  0  0  0  0  0  0  0  0  0
  141.9541  154.5073  132.6126 H   0  0  0  0  0  0  0  0  0  0  0  0
  141.9279  154.7227  134.4044 H   0  0  0  0  0  0  0  0  0  0  0  0
  140.4600  155.8780  133.3410 C   0  0  0  0  0  0  0  0  0  0  0  0
  140.3945  156.4634  132.4120 H   0  0  0  0  0  0  0  0  0  0  0  0
  139.6928  155.0897  133.3431 H   0  0  0  0  0  0  0  0  0  0  0  0
  140.2450  156.7390  134.4560 O   0  0  0  0  0  0  0  0  0  0  0  0
  139.2590  157.7310  134.4670 C   0  0  0  0  0  0  0  0  0  0  0  0
  138.8800  158.2420  135.5560 O   0  0  0  0  0  0  0  0  0  0  0  0
  138.6430  158.1850  133.2100 C   0  0  0  0  0  0  0  0  0  0  0  0
  137.7630  157.6499  132.8237 H   0  0  0  0  0  0  0  0  0  0  0  0
  139.1200  159.2270  132.5240 C   0  0  0  0  0  0  0  0  0  0  0  0
  139.9946  159.7674  132.9152 H   0  0  0  0  0  0  0  0  0  0  0  0
  138.5120  159.6740  131.2620 C   0  0  0  0  0  0  0  0  0  0  0  0
  137.2580  159.6970  131.1490 O   0  0  0  0  0  0  0  0  0  0  0  0
  139.3000  160.0770  130.1890 O   0  0  0  0  0  0  0  0  0  0  0  0
  1  2  1  0
  2  3  1  0
  3  4  2  0
  3  5  1  0
  5  6  2  0
  6  7  1  0
  6  8  1  0
  8  9  2  0
  9 10  1  0
  9 11  1  0
 11 12  1  0
 11 13  2  0
 13 14  1  0
 14 15  1  0
 14 16  1  0
 14 17  1  0
 13 18  1  0
 18 19  1  0
 18 20  2  0
 20 21  1  0
 21 22  1  0
 22 23  2  0
 22 24  1  0
 24 25  1  0
 25 26  1  0
 25 27  1  0
 25 28  1  0
 28 29  1  0
 28 30  1  0
 28 31  1  0
 31 32  1  0
 32 33  2  0
 32 34  1  0
 34 35  1  0
 34 36  2  0
 36 37  1  0
 36 38  1  0
 38 39  2  0
 38 40  1  0
 21  5  1  0
 20  8  1  0
M  CHG  2   2  -1  40  -1
M  END
>  <UniqueID>  (68) 
68

>  <SMILES>  (68) 
[NH-]C(=O)c1cc2ccc(C(F)F)cc2n1C(=O)OCCOC(=O)/C=C/C(=O)[O-]

>  <Energy>  (68) 
68.72956744537852

>  <Genealogy>  (68) 
[NH-]C(=O)c1cc2ccc(C(F)F)cc2n1C(=O)OCCOC(=O)/C=C/C(=O)[O-] (protonated)
[NH-]C(=O)c1cc2ccc(C(F)F)cc2n1C(=O)OCCOC(=O)/C=C/C(=O)[O-] (cis-trans isomerization)
[NH-]C(=O)c1cc2ccc(C(F)F)cc2n1C(=O)OCCOC(=O)/C=C/C(=O)[O-] (3D coordinates assigned)
[NH-]C(=O)c1cc2ccc(C(F)F)cc2n1C(=O)OCCOC(=O)/C=C/C(=O)[O-] (optimized conformer: 68.72956744537852 kcal/mol)

>  <smiles>  (68) 
NC(=O)c1cc2ccc(C(F)F)cc2n1C(=O)OCCOC(=O)/C=C/C(=O)O

>  <score_type>  (68) 
oracle

>  <origin>  (68) 
adg

>  <m_score__min__energy>  (68) 
-6.8799999999999999

>  <m_primary>  (68) 
energy

$$$$
72:0
     RDKit          3D

 43 45  0  0  0  0  0  0  0  0999 V2000
  143.2080  161.7900  133.7180 N   0  0  0  0  0  0  0  0  0  0  0  0
  144.6200  161.6250  133.8270 C   0  0  0  0  0  0  0  0  0  0  0  0
  145.3370  162.6190  134.1140 O   0  0  0  0  0  0  0  0  0  0  0  0
  145.2230  160.2910  133.6260 C   0  0  0  0  0  0  0  0  0  0  0  0
  146.5300  160.0860  133.1880 C   0  0  0  0  0  0  0  0  0  0  0  0
  146.6640  158.7200  133.0670 C   0  0  0  0  0  0  0  0  0  0  0  0
  147.7570  157.9560  132.6680 C   0  0  0  0  0  0  0  0  0  0  0  0
  147.6100  156.5570  132.6470 C   0  0  0  0  0  0  0  0  0  0  0  0
  146.3820  155.9530  133.0210 C   0  0  0  0  0  0  0  0  0  0  0  0
  146.2340  154.4600  133.0110 C   0  0  0  0  0  0  0  0  0  0  0  0
  145.3450  154.0710  133.9980 F   0  0  0  0  0  0  0  0  0  0  0  0
  147.4630  153.8700  133.2460 F   0  0  0  0  0  0  0  0  0  0  0  0
  145.2970  156.7640  133.4220 C   0  0  0  0  0  0  0  0  0  0  0  0
  145.4720  158.1500  133.4260 C   0  0  0  0  0  0  0  0  0  0  0  0
  144.5820  159.0990  133.7780 N   0  0  0  0  0  0  0  0  0  0  0  0
  143.2410  158.8660  134.2340 C   0  0  0  0  0  0  0  0  0  0  0  0
  142.9120  159.2530  135.3870 O   0  0  0  0  0  0  0  0  0  0  0  0
  142.2580  158.2010  133.3500 C   0  0  0  0  0  0  0  0  0  0  0  0
  142.6280  157.1940  132.6880 O   0  0  0  0  0  0  0  0  0  0  0  0
  140.9000  158.6750  133.2180 N   0  0  0  0  0  0  0  0  0  0  0  0
  140.5960  160.1160  133.2710 C   0  0  0  0  0  0  0  0  0  0  0  0
  139.2890  160.4470  132.5310 C   0  0  0  0  0  0  0  0  0  0  0  0
  139.1980  159.6310  131.2290 C   0  0  0  0  0  0  0  0  0  0  0  0
  137.9770  160.0250  130.4430 C   0  0  0  0  0  0  0  0  0  0  0  0
  136.8380  159.9760  130.9780 O   0  0  0  0  0  0  0  0  0  0  0  0
  138.0980  160.4670  129.1310 O   0  0  0  0  0  0  0  0  0  0  0  0
  139.2100  158.1040  131.5010 C   0  0  0  0  0  0  0  0  0  0  0  0
  139.8260  157.7370  132.8630 C   0  0  0  0  0  0  0  0  0  0  0  0
  142.5520  161.1420  134.2080 H   0  0  0  0  0  0  0  0  0  0  0  0
  147.2925  160.8518  132.9826 H   0  0  0  0  0  0  0  0  0  0  0  0
  148.7058  158.4311  132.3782 H   0  0  0  0  0  0  0  0  0  0  0  0
  148.4556  155.9252  132.3375 H   0  0  0  0  0  0  0  0  0  0  0  0
  145.8534  154.1426  132.0290 H   0  0  0  0  0  0  0  0  0  0  0  0
  144.3388  156.3156  133.7234 H   0  0  0  0  0  0  0  0  0  0  0  0
  140.4976  160.4215  134.3231 H   0  0  0  0  0  0  0  0  0  0  0  0
  141.4166  160.6588  132.7791 H   0  0  0  0  0  0  0  0  0  0  0  0
  138.4329  160.1999  133.1760 H   0  0  0  0  0  0  0  0  0  0  0  0
  139.2753  161.5193  132.2860 H   0  0  0  0  0  0  0  0  0  0  0  0
  140.0915  159.8620  130.6304 H   0  0  0  0  0  0  0  0  0  0  0  0
  138.1738  157.7358  131.4751 H   0  0  0  0  0  0  0  0  0  0  0  0
  139.8330  157.6377  130.7235 H   0  0  0  0  0  0  0  0  0  0  0  0
  139.0435  157.7753  133.6351 H   0  0  0  0  0  0  0  0  0  0  0  0
  140.2492  156.7237  132.7978 H   0  0  0  0  0  0  0  0  0  0  0  0
  1  2  1  0
  2  3  2  0
  2  4  1  0
  4  5  2  0
  5  6  1  0
  6  7  2  0
  7  8  1  0
  8  9  2  0
  9 10  1  0
 10 11  1  0
 10 12  1  0
  9 13  1  0
 13 14  2  0
 14 15  1  0
 15 16  1  0
 16 17  2  0
 16 18  1  0
 18 19  2  0
 18 20  1  0
 20 21  1  0
 21 22  1  0
 22 23  1  0
 23 24  1  0
 24 25  2  0
 24 26  1  0
 23 27  1  0
 27 28  1  0
 15  4  1  0
 28 20  1  0
 14  6  1  0
  1 29  1  0
  5 30  1  0
  7 31  1  0
  8 32  1  0
 10 33  1  0
 13 34  1  0
 21 35  1  0
 21 36  1  0
 22 37  1  0
 22 38  1  0
 23 39  1  0
 27 40  1  0
 27 41  1  0
 28 42  1  0
 28 43  1  0
M  CHG  2   1  -1  26  -1
M  END
>  <UniqueID>  (69) 
69

>  <SMILES>  (69) 
[NH-]C(=O)c1cc2ccc(C(F)F)cc2n1C(=O)C(=O)N1CCC(C(=O)[O-])CC1

>  <Energy>  (69) 
88.66160746863109

>  <Genealogy>  (69) 
[NH-]C(=O)c1cc2ccc(C(F)F)cc2n1C(=O)C(=O)N1CCC(C(=O)[O-])CC1 (protonated)
[NH-]C(=O)c1cc2ccc(C(F)F)cc2n1C(=O)C(=O)N1CCC(C(=O)[O-])CC1 (3D coordinates assigned)
[NH-]C(=O)c1cc2ccc(C(F)F)cc2n1C(=O)C(=O)N1CCC(C(=O)[O-])CC1 (nonaromatic ring conformer: 88.66160746863109 kcal/mol)

>  <smiles>  (69) 
NC(=O)c1cc2ccc(C(F)F)cc2n1C(=O)C(=O)N1CCC(C(=O)O)CC1

>  <score_type>  (69) 
oracle

>  <origin>  (69) 
adg

>  <m_score__min__energy>  (69) 
-7.6399999999999997

>  <m_primary>  (69) 
energy

$$$$
73:0
     RDKit          3D

 35 36  0  0  0  0  0  0  0  0999 V2000
  142.8030  161.2670  133.5400 N   0  0  0  0  0  0  0  0  0  0  0  0
  144.2050  161.4340  133.7380 C   0  0  0  0  0  0  0  0  0  0  0  0
  144.6440  162.5580  134.0990 O   0  0  0  0  0  0  0  0  0  0  0  0
  145.1400  160.3060  133.5540 C   0  0  0  0  0  0  0  0  0  0  0  0
  146.5170  160.4610  133.3890 C   0  0  0  0  0  0  0  0  0  0  0  0
  147.0190  159.1830  133.2870 C   0  0  0  0  0  0  0  0  0  0  0  0
  148.3260  158.7450  133.0880 C   0  0  0  0  0  0  0  0  0  0  0  0
  148.5480  157.3610  132.9840 C   0  0  0  0  0  0  0  0  0  0  0  0
  147.4680  156.4480  133.0720 C   0  0  0  0  0  0  0  0  0  0  0  0
  147.7250  154.9730  132.9420 C   0  0  0  0  0  0  0  0  0  0  0  0
  149.0490  154.7590  132.6060 F   0  0  0  0  0  0  0  0  0  0  0  0
  147.4510  154.3450  134.1440 F   0  0  0  0  0  0  0  0  0  0  0  0
  146.1550  156.9300  133.2700 C   0  0  0  0  0  0  0  0  0  0  0  0
  145.9670  158.3110  133.3880 C   0  0  0  0  0  0  0  0  0  0  0  0
  144.8100  158.9840  133.5600 N   0  0  0  0  0  0  0  0  0  0  0  0
  143.4970  158.4070  133.6310 C   0  0  0  0  0  0  0  0  0  0  0  0
  143.0070  157.8610  132.6070 O   0  0  0  0  0  0  0  0  0  0  0  0
  142.7420  158.4160  134.9000 C   0  0  0  0  0  0  0  0  0  0  0  0
  142.8570  159.3990  135.6820 O   0  0  0  0  0  0  0  0  0  0  0  0
  141.9100  157.3070  135.2800 N   0  0  0  0  0  0  0  0  0  0  0  0
  140.4780  157.5380  135.5010 C   0  0  0  0  0  0  0  0  0  0  0  0
  139.8870  158.2470  134.3260 C   0  0  0  0  0  0  0  0  0  0  0  0
  139.0330  157.6700  133.6030 O   0  0  0  0  0  0  0  0  0  0  0  0
  140.3150  159.5280  133.9980 O   0  0  0  0  0  0  0  0  0  0  0  0
  142.4820  156.0020  135.4880 C   0  0  0  0  0  0  0  0  0  0  0  0
  141.7650  155.0460  135.8880 O   0  0  0  0  0  0  0  0  0  0  0  0
  143.8280  155.7740  135.2290 O   0  0  0  0  0  0  0  0  0  0  0  0
  142.3220  160.3830  133.8180 H   0  0  0  0  0  0  0  0  0  0  0  0
  147.0816  161.4042  133.3489 H   0  0  0  0  0  0  0  0  0  0  0  0
  149.1587  159.4600  133.0145 H   0  0  0  0  0  0  0  0  0  0  0  0
  149.5699  156.9830  132.8328 H   0  0  0  0  0  0  0  0  0  0  0  0
  147.0752  154.5614  132.1556 H   0  0  0  0  0  0  0  0  0  0  0  0
  145.3026  156.2373  133.3298 H   0  0  0  0  0  0  0  0  0  0  0  0
  139.9699  156.5718  135.6367 H   0  0  0  0  0  0  0  0  0  0  0  0
  140.3470  158.1581  136.4000 H   0  0  0  0  0  0  0  0  0  0  0  0
  1  2  1  0
  2  3  2  0
  2  4  1  0
  4  5  2  0
  5  6  1  0
  6  7  2  0
  7  8  1  0
  8  9  2  0
  9 10  1  0
 10 11  1  0
 10 12  1  0
  9 13  1  0
 13 14  2  0
 14 15  1  0
 15 16  1  0
 16 17  2  0
 16 18  1  0
 18 19  2  0
 18 20  1  0
 20 21  1  0
 21 22  1  0
 22 23  2  0
 22 24  1  0
 20 25  1  0
 25 26  2  0
 25 27  1  0
 15  4  1  0
 14  6  1  0
  1 28  1  0
  5 29  1  0
  7 30  1  0
  8 31  1  0
 10 32  1  0
 13 33  1  0
 21 34  1  0
 21 35  1  0
M  CHG  3   1  -1  24  -1  27  -1
M  END
>  <UniqueID>  (70) 
70

>  <SMILES>  (70) 
[NH-]C(=O)c1cc2ccc(C(F)F)cc2n1C(=O)C(=O)N(CC(=O)[O-])C(=O)[O-]

>  <Energy>  (70) 
78.08183611708618

>  <Genealogy>  (70) 
[NH-]C(=O)c1cc2ccc(C(F)F)cc2n1C(=O)C(=O)N(CC(=O)[O-])C(=O)[O-] (protonated)
[NH-]C(=O)c1cc2ccc(C(F)F)cc2n1C(=O)C(=O)N(CC(=O)[O-])C(=O)[O-] (3D coordinates assigned)
[NH-]C(=O)c1cc2ccc(C(F)F)cc2n1C(=O)C(=O)N(CC(=O)[O-])C(=O)[O-] (optimized conformer: 78.08183611708618 kcal/mol)

>  <smiles>  (70) 
NC(=O)c1cc2ccc(C(F)F)cc2n1C(=O)C(=O)N(CC(=O)O)C(=O)O

>  <score_type>  (70) 
oracle

>  <origin>  (70) 
adg

>  <m_score__min__energy>  (70) 
-6.29

>  <m_primary>  (70) 
energy

$$$$
74:0
     RDKit          3D

 47 48  0  0  0  0  0  0  0  0999 V2000
  148.8960  158.9460  129.9730 C   0  0  0  0  0  0  0  0  0  0  0  0
  148.6870  159.8240  131.2220 C   0  0  0  0  0  0  0  0  0  0  0  0
  149.4420  159.1950  132.4030 C   0  0  0  0  0  0  0  0  0  0  0  0
  149.2300  161.2460  130.9860 C   0  0  0  0  0  0  0  0  0  0  0  0
  147.2980  159.8650  131.5830 O   0  0  0  0  0  0  0  0  0  0  0  0
  146.7780  159.9060  132.8860 C   0  0  0  0  0  0  0  0  0  0  0  0
  147.2100  160.7350  133.7300 O   0  0  0  0  0  0  0  0  0  0  0  0
  145.7230  159.0030  133.2520 N   0  0  0  0  0  0  0  0  0  0  0  0
  144.4660  159.3180  133.6760 C   0  0  0  0  0  0  0  0  0  0  0  0
  143.8730  160.6720  133.6990 C   0  0  0  0  0  0  0  0  0  0  0  0
  144.7030  161.8060  133.9360 N   0  0  0  0  0  0  0  0  0  0  0  0
  142.6340  160.8360  133.5500 O   0  0  0  0  0  0  0  0  0  0  0  0
  143.7630  158.1670  134.0180 C   0  0  0  0  0  0  0  0  0  0  0  0
  144.6310  157.1250  133.7840 C   0  0  0  0  0  0  0  0  0  0  0  0
  144.4540  155.7560  133.9600 C   0  0  0  0  0  0  0  0  0  0  0  0
  145.5330  154.9080  133.6600 C   0  0  0  0  0  0  0  0  0  0  0  0
  146.7700  155.4410  133.2110 C   0  0  0  0  0  0  0  0  0  0  0  0
  147.8650  154.5590  132.8890 N   0  0  0  0  0  0  0  0  0  0  0  0
  147.9260  153.4590  133.8650 C   0  0  0  0  0  0  0  0  0  0  0  0
  148.7670  152.2740  133.3550 C   0  0  0  0  0  0  0  0  0  0  0  0
  149.2990  152.4720  131.9320 C   0  0  0  0  0  0  0  0  0  0  0  0
  149.9180  153.7230  131.8130 O   0  0  0  0  0  0  0  0  0  0  0  0
  146.9070  156.8380  133.0360 C   0  0  0  0  0  0  0  0  0  0  0  0
  145.8080  157.6560  133.3240 C   0  0  0  0  0  0  0  0  0  0  0  0
  149.1404  157.9193  130.2832 H   0  0  0  0  0  0  0  0  0  0  0  0
  147.9747  158.9380  129.3721 H   0  0  0  0  0  0  0  0  0  0  0  0
  149.7221  159.3539  129.3721 H   0  0  0  0  0  0  0  0  0  0  0  0
  149.0097  159.5552  133.3482 H   0  0  0  0  0  0  0  0  0  0  0  0
  149.3536  158.0997  132.3532 H   0  0  0  0  0  0  0  0  0  0  0  0
  150.5033  159.4798  132.3532 H   0  0  0  0  0  0  0  0  0  0  0  0
  149.4159  161.7329  131.9547 H   0  0  0  0  0  0  0  0  0  0  0  0
  150.1700  161.1899  130.4174 H   0  0  0  0  0  0  0  0  0  0  0  0
  148.4919  161.8307  130.4174 H   0  0  0  0  0  0  0  0  0  0  0  0
  145.5340  161.9990  133.3340 H   0  0  0  0  0  0  0  0  0  0  0  0
  142.7318  158.1034  134.3955 H   0  0  0  0  0  0  0  0  0  0  0  0
  143.4982  155.3502  134.3230 H   0  0  0  0  0  0  0  0  0  0  0  0
  145.4184  153.8200  133.7741 H   0  0  0  0  0  0  0  0  0  0  0  0
  148.7580  155.1030  132.9100 H   0  0  0  0  0  0  0  0  0  0  0  0
  147.7370  154.1760  131.9230 H   0  0  0  0  0  0  0  0  0  0  0  0
  148.3738  153.8362  134.7962 H   0  0  0  0  0  0  0  0  0  0  0  0
  146.9003  153.0981  134.0312 H   0  0  0  0  0  0  0  0  0  0  0  0
  149.6236  152.1379  134.0315 H   0  0  0  0  0  0  0  0  0  0  0  0
  148.1081  151.3934  133.3353 H   0  0  0  0  0  0  0  0  0  0  0  0
  150.0304  151.6824  131.7051 H   0  0  0  0  0  0  0  0  0  0  0  0
  148.4574  152.4211  131.2255 H   0  0  0  0  0  0  0  0  0  0  0  0
  150.6940  153.5900  131.2100 H   0  0  0  0  0  0  0  0  0  0  0  0
  147.8542  157.2711  132.6821 H   0  0  0  0  0  0  0  0  0  0  0  0
  1  2  1  0
  2  3  1  0
  2  4  1  0
  2  5  1  0
  5  6  1  0
  6  7  2  0
  6  8  1  0
  8  9  1  0
  9 10  1  0
 10 11  1  0
 10 12  2  0
  9 13  2  0
 13 14  1  0
 14 15  2  0
 15 16  1  0
 16 17  2  0
 17 18  1  0
 18 19  1  0
 19 20  1  0
 20 21  1  0
 21 22  1  0
 17 23  1  0
 23 24  2  0
 24  8  1  0
 24 14  1  0
  1 25  1  0
  1 26  1  0
  1 27  1  0
  3 28  1  0
  3 29  1  0
  3 30  1  0
  4 31  1  0
  4 32  1  0
  4 33  1  0
 11 34  1  0
 13 35  1  0
 15 36  1  0
 16 37  1  0
 18 38  1  0
 18 39  1  0
 19 40  1  0
 19 41  1  0
 20 42  1  0
 20 43  1  0
 21 44  1  0
 21 45  1  0
 22 46  1  0
 23 47  1  0
M  CHG  2  11  -1  18   1
M  END
>  <UniqueID>  (71) 
71

>  <SMILES>  (71) 
CC(C)(C)OC(=O)n1c(C([NH-])=O)cc2ccc([NH2+]CCCO)cc21

>  <Energy>  (71) 
77.90426756227708

>  <Genealogy>  (71) 
CC(C)(C)OC(=O)n1c(C([NH-])=O)cc2ccc([NH2+]CCCO)cc21 (protonated)
CC(C)(C)OC(=O)n1c(C([NH-])=O)cc2ccc([NH2+]CCCO)cc21 (3D coordinates assigned)
CC(C)(C)OC(=O)n1c(C([NH-])=O)cc2ccc([NH2+]CCCO)cc21 (optimized conformer: 77.90426756227708 kcal/mol)

>  <smiles>  (71) 
CC(C)(C)OC(=O)n1c(C(N)=O)cc2ccc(NCCCO)cc21

>  <score_type>  (71) 
oracle

>  <origin>  (71) 
adg

>  <m_score__min__energy>  (71) 
-6.96

>  <m_primary>  (71) 
energy

$$$$
75:0
     RDKit          3D

 45 46  0  0  0  0  0  0  0  0999 V2000
  143.5550  160.0120  133.7800 C   0  0  0  0  0  0  0  0  0  0  0  0
  142.9580  158.6560  133.3760 C   0  0  1  0  0  0  0  0  0  0  0  0
  143.8000  157.4590  133.8790 C   0  0  0  0  0  0  0  0  0  0  0  0
  143.5890  156.3450  133.0520 O   0  0  0  0  0  0  0  0  0  0  0  0
  143.4550  157.1070  135.1940 O   0  0  0  0  0  0  0  0  0  0  0  0
  141.5420  158.5440  133.7850 N   0  0  0  0  0  0  0  0  0  0  0  0
  140.9470  159.4430  134.7810 C   0  0  0  0  0  0  0  0  0  0  0  0
  140.7380  157.4430  133.3180 C   0  0  0  0  0  0  0  0  0  0  0  0
  139.9260  157.6240  132.3710 O   0  0  0  0  0  0  0  0  0  0  0  0
  140.8670  156.0950  133.8950 C   0  0  0  0  0  0  0  0  0  0  0  0
  140.6270  155.9060  135.1180 O   0  0  0  0  0  0  0  0  0  0  0  0
  141.2930  155.0430  133.0730 O   0  0  0  0  0  0  0  0  0  0  0  0
  140.6920  153.7790  133.0040 C   0  0  0  0  0  0  0  0  0  0  0  0
  139.4370  153.6610  132.9660 O   0  0  0  0  0  0  0  0  0  0  0  0
  141.5190  152.6050  132.9540 N   0  0  0  0  0  0  0  0  0  0  0  0
  142.8430  152.5060  133.2610 C   0  0  0  0  0  0  0  0  0  0  0  0
  143.6760  153.5680  133.8660 C   0  0  0  0  0  0  0  0  0  0  0  0
  143.1580  154.3500  134.9390 N   0  0  0  0  0  0  0  0  0  0  0  0
  144.8260  153.8180  133.4180 O   0  0  0  0  0  0  0  0  0  0  0  0
  143.3110  151.2190  133.0030 C   0  0  0  0  0  0  0  0  0  0  0  0
  142.2210  150.5240  132.5300 C   0  0  0  0  0  0  0  0  0  0  0  0
  142.1200  149.2020  132.1060 C   0  0  0  0  0  0  0  0  0  0  0  0
  140.8730  148.7550  131.6370 C   0  0  0  0  0  0  0  0  0  0  0  0
  139.7610  149.6330  131.5940 C   0  0  0  0  0  0  0  0  0  0  0  0
  138.4340  149.1560  131.0760 C   0  0  0  0  0  0  0  0  0  0  0  0
  138.3990  147.7740  131.0890 F   0  0  0  0  0  0  0  0  0  0  0  0
  138.2500  149.6050  129.7810 F   0  0  0  0  0  0  0  0  0  0  0  0
  139.9030  150.9680  132.0310 C   0  0  0  0  0  0  0  0  0  0  0  0
  141.1530  151.3820  132.5100 C   0  0  0  0  0  0  0  0  0  0  0  0
  143.5876  160.0861  134.8770 H   0  0  0  0  0  0  0  0  0  0  0  0
  144.5745  160.0987  133.3762 H   0  0  0  0  0  0  0  0  0  0  0  0
  142.9305  160.8225  133.3762 H   0  0  0  0  0  0  0  0  0  0  0  0
  142.9899  158.6132  132.2773 H   0  0  0  0  0  0  0  0  0  0  0  0
  144.8567  157.7636  133.8542 H   0  0  0  0  0  0  0  0  0  0  0  0
  143.3570  155.5840  133.6480 H   0  0  0  0  0  0  0  0  0  0  0  0
  142.7210  156.4400  135.1370 H   0  0  0  0  0  0  0  0  0  0  0  0
  141.1868  159.0807  135.7916 H   0  0  0  0  0  0  0  0  0  0  0  0
  141.3531  160.4567  134.6490 H   0  0  0  0  0  0  0  0  0  0  0  0
  139.8552  159.4653  134.6490 H   0  0  0  0  0  0  0  0  0  0  0  0
  142.6620  155.2500  134.7560 H   0  0  0  0  0  0  0  0  0  0  0  0
  144.3334  150.8394  133.1467 H   0  0  0  0  0  0  0  0  0  0  0  0
  142.9890  148.5283  132.1371 H   0  0  0  0  0  0  0  0  0  0  0  0
  140.7588  147.7141  131.3001 H   0  0  0  0  0  0  0  0  0  0  0  0
  137.6335  149.5507  131.7189 H   0  0  0  0  0  0  0  0  0  0  0  0
  139.0534  151.6658  131.9963 H   0  0  0  0  0  0  0  0  0  0  0  0
  1  2  1  0
  2  3  1  0
  3  4  1  0
  3  5  1  0
  2  6  1  0
  6  7  1  0
  6  8  1  0
  8  9  2  0
  8 10  1  0
 10 11  2  0
 10 12  1  0
 12 13  1  0
 13 14  2  0
 13 15  1  0
 15 16  1  0
 16 17  1  0
 17 18  1  0
 17 19  2  0
 16 20  2  0
 20 21  1  0
 21 22  2  0
 22 23  1  0
 23 24  2  0
 24 25  1  0
 25 26  1  0
 25 27  1  0
 24 28  1  0
 28 29  2  0
 29 15  1  0
 29 21  1  0
  1 30  1  0
  1 31  1  0
  1 32  1  0
  2 33  1  6
  3 34  1  0
  4 35  1  0
  5 36  1  0
  7 37  1  0
  7 38  1  0
  7 39  1  0
 18 40  1  0
 20 41  1  0
 22 42  1  0
 23 43  1  0
 25 44  1  0
 28 45  1  0
M  CHG  1  18  -1
M  END
>  <UniqueID>  (72) 
72

>  <SMILES>  (72) 
C[C@@H](C(O)O)N(C)C(=O)C(=O)OC(=O)n1c(C([NH-])=O)cc2ccc(C(F)F)cc21

>  <Energy>  (72) 
85.38780117044882

>  <Genealogy>  (72) 
CC(C(O)O)N(C)C(=O)C(=O)OC(=O)n1c(C([NH-])=O)cc2ccc(C(F)F)cc21 (protonated)
C[C@@H](C(O)O)N(C)C(=O)C(=O)OC(=O)n1c(C([NH-])=O)cc2ccc(C(F)F)cc21 (chirality)
C[C@@H](C(O)O)N(C)C(=O)C(=O)OC(=O)n1c(C([NH-])=O)cc2ccc(C(F)F)cc21 (3D coordinates assigned)
C[C@@H](C(O)O)N(C)C(=O)C(=O)OC(=O)n1c(C([NH-])=O)cc2ccc(C(F)F)cc21 (optimized conformer: 85.38780117044882 kcal/mol)

>  <smiles>  (72) 
CC(C(O)O)N(C)C(=O)C(=O)OC(=O)n1c(C(N)=O)cc2ccc(C(F)F)cc21

>  <score_type>  (72) 
oracle

>  <origin>  (72) 
adg

>  <m_score__min__energy>  (72) 
-5.8600000000000003

>  <m_primary>  (72) 
energy

$$$$
76:0
     RDKit          3D

 41 42  0  0  0  0  0  0  0  0999 V2000
  141.7770  148.8550  132.2180 C   0  0  0  0  0  0  0  0  0  0  0  0
  140.4930  149.5170  131.9640 N   0  0  0  0  0  0  0  0  0  0  0  0
  139.4530  148.8280  131.1910 C   0  0  0  0  0  0  0  0  0  0  0  0
  140.2290  150.8450  132.4660 C   0  0  0  0  0  0  0  0  0  0  0  0
  139.1200  151.3960  132.2260 O   0  0  0  0  0  0  0  0  0  0  0  0
  141.2290  151.5880  133.3050 C   0  0  0  0  0  0  0  0  0  0  0  0
  140.6320  152.7730  133.7880 O   0  0  0  0  0  0  0  0  0  0  0  0
  140.9560  153.8680  132.9560 C   0  0  0  0  0  0  0  0  0  0  0  0
  140.0270  155.0110  133.2290 C   0  0  0  0  0  0  0  0  0  0  0  0
  138.7930  154.8830  133.0050 O   0  0  0  0  0  0  0  0  0  0  0  0
  140.5220  156.2280  133.8050 N   0  0  0  0  0  0  0  0  0  0  0  0
  141.2520  156.3750  134.9460 C   0  0  0  0  0  0  0  0  0  0  0  0
  141.7540  155.2780  135.8040 C   0  0  0  0  0  0  0  0  0  0  0  0
  142.7060  154.3380  135.3170 N   0  0  0  0  0  0  0  0  0  0  0  0
  141.3460  155.1810  136.9930 O   0  0  0  0  0  0  0  0  0  0  0  0
  141.5040  157.7240  135.1920 C   0  0  0  0  0  0  0  0  0  0  0  0
  140.8970  158.4010  134.1580 C   0  0  0  0  0  0  0  0  0  0  0  0
  140.8050  159.7690  133.9130 C   0  0  0  0  0  0  0  0  0  0  0  0
  140.0810  160.1880  132.7840 C   0  0  0  0  0  0  0  0  0  0  0  0
  139.4720  159.2420  131.9180 C   0  0  0  0  0  0  0  0  0  0  0  0
  138.6470  159.7070  130.7450 C   0  0  0  0  0  0  0  0  0  0  0  0
  139.0650  160.9700  130.3680 F   0  0  0  0  0  0  0  0  0  0  0  0
  138.7930  158.8440  129.6730 F   0  0  0  0  0  0  0  0  0  0  0  0
  137.3050  159.7570  131.0810 F   0  0  0  0  0  0  0  0  0  0  0  0
  139.5680  157.8630  132.2170 C   0  0  0  0  0  0  0  0  0  0  0  0
  140.3110  157.4760  133.3370 C   0  0  0  0  0  0  0  0  0  0  0  0
  141.9383  148.7718  133.3029 H   0  0  0  0  0  0  0  0  0  0  0  0
  141.7662  147.8501  131.7708 H   0  0  0  0  0  0  0  0  0  0  0  0
  142.5894  149.4466  131.7708 H   0  0  0  0  0  0  0  0  0  0  0  0
  138.7378  148.3542  131.8794 H   0  0  0  0  0  0  0  0  0  0  0  0
  138.9248  149.5554  130.5571 H   0  0  0  0  0  0  0  0  0  0  0  0
  139.9169  148.0580  130.5571 H   0  0  0  0  0  0  0  0  0  0  0  0
  141.5394  150.9592  134.1525 H   0  0  0  0  0  0  0  0  0  0  0  0
  142.1122  151.8367  132.6983 H   0  0  0  0  0  0  0  0  0  0  0  0
  141.9906  154.1837  133.1557 H   0  0  0  0  0  0  0  0  0  0  0  0
  140.8554  153.5642  131.9036 H   0  0  0  0  0  0  0  0  0  0  0  0
  142.4020  153.4730  134.8170 H   0  0  0  0  0  0  0  0  0  0  0  0
  142.0674  158.1553  136.0326 H   0  0  0  0  0  0  0  0  0  0  0  0
  141.2841  160.4986  134.5824 H   0  0  0  0  0  0  0  0  0  0  0  0
  139.9848  161.2624  132.5684 H   0  0  0  0  0  0  0  0  0  0  0  0
  139.0705  157.1132  131.5842 H   0  0  0  0  0  0  0  0  0  0  0  0
  1  2  1  0
  2  3  1  0
  2  4  1  0
  4  5  2  0
  4  6  1  0
  6  7  1  0
  7  8  1  0
  8  9  1  0
  9 10  2  0
  9 11  1  0
 11 12  1  0
 12 13  1  0
 13 14  1  0
 13 15  2  0
 12 16  2  0
 16 17  1  0
 17 18  2  0
 18 19  1  0
 19 20  2  0
 20 21  1  0
 21 22  1  0
 21 23  1  0
 21 24  1  0
 20 25  1  0
 25 26  2  0
 26 11  1  0
 26 17  1  0
  1 27  1  0
  1 28  1  0
  1 29  1  0
  3 30  1  0
  3 31  1  0
  3 32  1  0
  6 33  1  0
  6 34  1  0
  8 35  1  0
  8 36  1  0
 14 37  1  0
 16 38  1  0
 18 39  1  0
 19 40  1  0
 25 41  1  0
M  CHG  1  14  -1
M  END
>  <UniqueID>  (73) 
73

>  <SMILES>  (73) 
CN(C)C(=O)COCC(=O)n1c(C([NH-])=O)cc2ccc(C(F)(F)F)cc21

>  <Energy>  (73) 
79.27738442591203

>  <Genealogy>  (73) 
CN(C)C(=O)COCC(=O)n1c(C([NH-])=O)cc2ccc(C(F)(F)F)cc21 (protonated)
CN(C)C(=O)COCC(=O)n1c(C([NH-])=O)cc2ccc(C(F)(F)F)cc21 (3D coordinates assigned)
CN(C)C(=O)COCC(=O)n1c(C([NH-])=O)cc2ccc(C(F)(F)F)cc21 (optimized conformer: 79.27738442591203 kcal/mol)

>  <smiles>  (73) 
CN(C)C(=O)COCC(=O)n1c(C(N)=O)cc2ccc(C(F)(F)F)cc21

>  <score_type>  (73) 
oracle

>  <origin>  (73) 
adg

>  <m_score__min__energy>  (73) 
-6.0700000000000003

>  <m_primary>  (73) 
energy

$$$$
77:0
     RDKit          3D

 44 45  0  0  0  0  0  0  0  0999 V2000
  144.7320  155.2280  136.7210 H   0  0  0  0  0  0  0  0  0  0  0  0
  143.7490  155.2140  136.3670 N   0  0  0  0  0  0  0  0  0  0  0  0
  143.4730  155.1640  134.9680 C   0  0  0  0  0  0  0  0  0  0  0  0
  144.1630  154.4110  134.2300 O   0  0  0  0  0  0  0  0  0  0  0  0
  142.3840  155.9840  134.4000 C   0  0  0  0  0  0  0  0  0  0  0  0
  141.0310  155.6610  134.4900 C   0  0  0  0  0  0  0  0  0  0  0  0
  140.5844  154.7969  135.0036 H   0  0  0  0  0  0  0  0  0  0  0  0
  140.3720  156.6540  133.7990 C   0  0  0  0  0  0  0  0  0  0  0  0
  139.0150  156.8250  133.5420 C   0  0  0  0  0  0  0  0  0  0  0  0
  138.2719  156.1070  133.9191 H   0  0  0  0  0  0  0  0  0  0  0  0
  138.6230  157.9430  132.7860 C   0  0  0  0  0  0  0  0  0  0  0  0
  137.5585  158.0965  132.5554 H   0  0  0  0  0  0  0  0  0  0  0  0
  139.5840  158.8770  132.3160 C   0  0  0  0  0  0  0  0  0  0  0  0
  139.1580  160.0550  131.4760 C   0  0  0  0  0  0  0  0  0  0  0  0
  137.7920  160.0390  131.2600 F   0  0  0  0  0  0  0  0  0  0  0  0
  139.4840  161.2420  132.1060 F   0  0  0  0  0  0  0  0  0  0  0  0
  139.8060  160.0000  130.2550 F   0  0  0  0  0  0  0  0  0  0  0  0
  140.9560  158.6510  132.5740 C   0  0  0  0  0  0  0  0  0  0  0  0
  141.7223  159.3424  132.1936 H   0  0  0  0  0  0  0  0  0  0  0  0
  141.3140  157.5280  133.3240 C   0  0  0  0  0  0  0  0  0  0  0  0
  142.5490  157.1300  133.6860 N   0  0  0  0  0  0  0  0  0  0  0  0
  143.7830  157.7600  133.3170 C   0  0  0  0  0  0  0  0  0  0  0  0
  143.7960  158.9940  133.0660 O   0  0  0  0  0  0  0  0  0  0  0  0
  145.0390  156.9900  133.2320 C   0  0  0  0  0  0  0  0  0  0  0  0
  145.2006  156.3316  132.3658 H   0  0  0  0  0  0  0  0  0  0  0  0
  145.9880  157.0650  134.1720 C   0  0  0  0  0  0  0  0  0  0  0  0
  145.8109  157.6743  135.0706 H   0  0  0  0  0  0  0  0  0  0  0  0
  147.2990  156.3280  134.0220 C   0  0  0  0  0  0  0  0  0  0  0  0
  148.0705  156.8849  134.5740 H   0  0  0  0  0  0  0  0  0  0  0  0
  147.4996  156.2666  132.9422 H   0  0  0  0  0  0  0  0  0  0  0  0
  147.2860  154.9310  134.5270 N   0  0  1  0  0  0  0  0  0  0  0  0
  146.2700  154.6780  134.5880 H   0  0  0  0  0  0  0  0  0  0  0  0
  147.8580  153.9450  133.5860 C   0  0  0  0  0  0  0  0  0  0  0  0
  148.3312  153.1293  134.1524 H   0  0  0  0  0  0  0  0  0  0  0  0
  147.0574  153.5353  132.9527 H   0  0  0  0  0  0  0  0  0  0  0  0
  148.6111  154.4367  132.9527 H   0  0  0  0  0  0  0  0  0  0  0  0
  147.7980  154.7660  135.9110 C   0  0  0  0  0  0  0  0  0  0  0  0
  148.7491  154.2160  135.8566 H   0  0  0  0  0  0  0  0  0  0  0  0
  147.8947  155.7829  136.3190 H   0  0  0  0  0  0  0  0  0  0  0  0
  146.8680  154.0100  136.8800 C   0  0  0  0  0  0  0  0  0  0  0  0
  147.4480  153.2379  137.4067 H   0  0  0  0  0  0  0  0  0  0  0  0
  146.4470  154.7307  137.5965 H   0  0  0  0  0  0  0  0  0  0  0  0
  145.8130  153.3990  136.1880 O   0  0  0  0  0  0  0  0  0  0  0  0
  145.0710  154.0580  136.1560 H   0  0  0  0  0  0  0  0  0  0  0  0
  1  2  1  0
  2  3  1  0
  3  4  2  0
  3  5  1  0
  5  6  2  0
  6  7  1  0
  6  8  1  0
  8  9  2  0
  9 10  1  0
  9 11  1  0
 11 12  1  0
 11 13  2  0
 13 14  1  0
 14 15  1  0
 14 16  1  0
 14 17  1  0
 13 18  1  0
 18 19  1  0
 18 20  2  0
 20 21  1  0
 21 22  1  0
 22 23  2  0
 22 24  1  0
 24 25  1  0
 24 26  2  0
 26 27  1  0
 26 28  1  0
 28 29  1  0
 28 30  1  0
 28 31  1  0
 31 32  1  1
 31 33  1  0
 33 34  1  0
 33 35  1  0
 33 36  1  0
 31 37  1  0
 37 38  1  0
 37 39  1  0
 37 40  1  0
 40 41  1  0
 40 42  1  0
 40 43  1  0
 43 44  1  0
 21  5  1  0
 20  8  1  0
M  CHG  2   2  -1  31   1
M  END
>  <UniqueID>  (74) 
74

>  <SMILES>  (74) 
C[N@H+](C/C=C/C(=O)n1c(C([NH-])=O)cc2ccc(C(F)(F)F)cc21)CCO

>  <Energy>  (74) 
89.02982323536527

>  <Genealogy>  (74) 
C[NH+](C/C=C/C(=O)n1c(C([NH-])=O)cc2ccc(C(F)(F)F)cc21)CCO (protonated)
C[N@H+](C/C=C/C(=O)n1c(C([NH-])=O)cc2ccc(C(F)(F)F)cc21)CCO (chirality)
C[N@H+](C/C=C/C(=O)n1c(C([NH-])=O)cc2ccc(C(F)(F)F)cc21)CCO (cis-trans isomerization)
C[N@H+](C/C=C/C(=O)n1c(C([NH-])=O)cc2ccc(C(F)(F)F)cc21)CCO (3D coordinates assigned)
C[N@H+](C/C=C/C(=O)n1c(C([NH-])=O)cc2ccc(C(F)(F)F)cc21)CCO (optimized conformer: 89.02982323536527 kcal/mol)

>  <smiles>  (74) 
CN(C/C=C/C(=O)n1c(C(N)=O)cc2ccc(C(F)(F)F)cc21)CCO

>  <score_type>  (74) 
oracle

>  <origin>  (74) 
adg

>  <m_score__min__energy>  (74) 
-5.29

>  <m_primary>  (74) 
energy

$$$$
78:0
     RDKit          3D

 32 33  0  0  0  0  0  0  0  0999 V2000
  148.9880  156.7050  131.8240 H   0  0  0  0  0  0  0  0  0  0  0  0
  149.6250  157.4540  132.1720 N   0  0  0  0  0  0  0  0  0  0  0  0
  149.1430  158.7760  132.4050 C   0  0  0  0  0  0  0  0  0  0  0  0
  149.9110  159.7560  132.2150 O   0  0  0  0  0  0  0  0  0  0  0  0
  147.7660  158.9800  132.9000 C   0  0  0  0  0  0  0  0  0  0  0  0
  147.1440  160.2260  132.9590 C   0  0  0  0  0  0  0  0  0  0  0  0
  147.5863  161.2040  132.7185 H   0  0  0  0  0  0  0  0  0  0  0  0
  145.8590  159.9730  133.3820 C   0  0  0  0  0  0  0  0  0  0  0  0
  144.8050  160.8510  133.6250 C   0  0  0  0  0  0  0  0  0  0  0  0
  144.9197  161.9333  133.4652 H   0  0  0  0  0  0  0  0  0  0  0  0
  143.5900  160.3100  134.0810 C   0  0  0  0  0  0  0  0  0  0  0  0
  142.7401  160.9770  134.2876 H   0  0  0  0  0  0  0  0  0  0  0  0
  143.4500  158.9130  134.2770 C   0  0  0  0  0  0  0  0  0  0  0  0
  142.1590  158.3510  134.8040 C   0  0  0  0  0  0  0  0  0  0  0  0
  141.7822  157.5885  134.1063 H   0  0  0  0  0  0  0  0  0  0  0  0
  142.3388  157.8988  135.7905 H   0  0  0  0  0  0  0  0  0  0  0  0
  141.1440  159.4400  134.9420 C   0  0  0  0  0  0  0  0  0  0  0  0
  140.8000  159.8440  136.0840 O   0  0  0  0  0  0  0  0  0  0  0  0
  140.6130  160.0440  133.8090 O   0  0  0  0  0  0  0  0  0  0  0  0
  144.5450  158.0550  134.0290 C   0  0  0  0  0  0  0  0  0  0  0  0
  144.4618  156.9709  134.1955 H   0  0  0  0  0  0  0  0  0  0  0  0
  145.7380  158.6210  133.5660 C   0  0  0  0  0  0  0  0  0  0  0  0
  146.9000  157.9980  133.2820 N   0  0  0  0  0  0  0  0  0  0  0  0
  147.1610  156.5920  133.4180 C   0  0  0  0  0  0  0  0  0  0  0  0
  147.0830  155.8470  132.4040 O   0  0  0  0  0  0  0  0  0  0  0  0
  147.4620  156.0210  134.7460 C   0  0  0  0  0  0  0  0  0  0  0  0
  147.7939  156.6939  135.5504 H   0  0  0  0  0  0  0  0  0  0  0  0
  147.3450  154.7130  135.0050 C   0  0  0  0  0  0  0  0  0  0  0  0
  147.0109  154.0403  134.2014 H   0  0  0  0  0  0  0  0  0  0  0  0
  147.6480  154.1440  136.3280 C   0  0  0  0  0  0  0  0  0  0  0  0
  148.4910  154.6840  137.0930 O   0  0  0  0  0  0  0  0  0  0  0  0
  146.9930  152.9920  136.7410 O   0  0  0  0  0  0  0  0  0  0  0  0
  1  2  1  0
  2  3  1  0
  3  4  2  0
  3  5  1  0
  5  6  2  0
  6  7  1  0
  6  8  1  0
  8  9  2  0
  9 10  1  0
  9 11  1  0
 11 12  1  0
 11 13  2  0
 13 14  1  0
 14 15  1  0
 14 16  1  0
 14 17  1  0
 17 18  2  0
 17 19  1  0
 13 20  1  0
 20 21  1  0
 20 22  2  0
 22 23  1  0
 23 24  1  0
 24 25  2  0
 24 26  1  0
 26 27  1  0
 26 28  2  0
 28 29  1  0
 28 30  1  0
 30 31  2  0
 30 32  1  0
 23  5  1  0
 22  8  1  0
M  CHG  3   2  -1  19  -1  32  -1
M  END
>  <UniqueID>  (75) 
75

>  <SMILES>  (75) 
[NH-]C(=O)c1cc2ccc(CC(=O)[O-])cc2n1C(=O)/C=C/C(=O)[O-]

>  <Energy>  (75) 
68.70844183275516

>  <Genealogy>  (75) 
[NH-]C(=O)c1cc2ccc(CC(=O)[O-])cc2n1C(=O)/C=C/C(=O)[O-] (protonated)
[NH-]C(=O)c1cc2ccc(CC(=O)[O-])cc2n1C(=O)/C=C/C(=O)[O-] (cis-trans isomerization)
[NH-]C(=O)c1cc2ccc(CC(=O)[O-])cc2n1C(=O)/C=C/C(=O)[O-] (3D coordinates assigned)
[NH-]C(=O)c1cc2ccc(CC(=O)[O-])cc2n1C(=O)/C=C/C(=O)[O-] (optimized conformer: 68.70844183275516 kcal/mol)

>  <smiles>  (75) 
NC(=O)c1cc2ccc(CC(=O)O)cc2n1C(=O)/C=C/C(=O)O

>  <score_type>  (75) 
oracle

>  <origin>  (75) 
adg

>  <m_score__min__energy>  (75) 
-7.1500000000000004

>  <m_primary>  (75) 
energy

$$$$
79:0
     RDKit          3D

 36 37  0  0  0  0  0  0  0  0999 V2000
  140.9840  159.0110  137.3960 C   0  0  0  0  0  0  0  0  0  0  0  0
  140.9350  159.7340  136.1340 N   0  0  0  0  0  0  0  0  0  0  0  0
  141.1530  159.0980  134.8710 C   0  0  0  0  0  0  0  0  0  0  0  0
  140.4320  159.3850  133.8780 O   0  0  0  0  0  0  0  0  0  0  0  0
  142.2150  158.0540  134.7410 C   0  0  0  0  0  0  0  0  0  0  0  0
  143.4880  158.6730  134.2330 C   0  0  0  0  0  0  0  0  0  0  0  0
  143.5370  160.0550  133.9300 C   0  0  0  0  0  0  0  0  0  0  0  0
  144.7100  160.6340  133.4140 C   0  0  0  0  0  0  0  0  0  0  0  0
  145.8110  159.8060  133.2140 C   0  0  0  0  0  0  0  0  0  0  0  0
  147.0530  160.0940  132.6940 C   0  0  0  0  0  0  0  0  0  0  0  0
  147.7460  158.8840  132.6960 C   0  0  0  0  0  0  0  0  0  0  0  0
  149.1460  158.7470  132.2380 C   0  0  0  0  0  0  0  0  0  0  0  0
  149.7930  157.4780  132.2060 N   0  0  0  0  0  0  0  0  0  0  0  0
  149.7900  159.7720  131.8880 O   0  0  0  0  0  0  0  0  0  0  0  0
  146.9630  157.8900  133.2040 N   0  0  0  0  0  0  0  0  0  0  0  0
  147.2820  156.4970  133.3370 C   0  0  0  0  0  0  0  0  0  0  0  0
  147.3480  155.7690  132.3100 O   0  0  0  0  0  0  0  0  0  0  0  0
  147.5580  155.9010  134.6850 C   0  0  0  0  0  0  0  0  0  0  0  0
  146.3640  154.5820  135.0510 P   0  0  0  0  0  0  0  0  0  0  0  0
  146.1370  153.7450  133.8130 O   0  0  0  0  0  0  0  0  0  0  0  0
  146.9760  153.6020  136.2860 O   0  0  0  0  0  0  0  0  0  0  0  0
  144.8960  155.2590  135.5520 O   0  0  0  0  0  0  0  0  0  0  0  0
  145.7820  158.4690  133.5090 C   0  0  0  0  0  0  0  0  0  0  0  0
  144.6220  157.8620  134.0040 C   0  0  0  0  0  0  0  0  0  0  0  0
  140.9355  159.7261  138.2304 H   0  0  0  0  0  0  0  0  0  0  0  0
  140.1307  158.3195  137.4558 H   0  0  0  0  0  0  0  0  0  0  0  0
  141.9228  158.4409  137.4558 H   0  0  0  0  0  0  0  0  0  0  0  0
  142.3994  157.5980  135.7249 H   0  0  0  0  0  0  0  0  0  0  0  0
  141.8793  157.2852  134.0295 H   0  0  0  0  0  0  0  0  0  0  0  0
  142.6491  160.6818  134.0998 H   0  0  0  0  0  0  0  0  0  0  0  0
  144.7561  161.7070  133.1760 H   0  0  0  0  0  0  0  0  0  0  0  0
  147.4208  161.0719  132.3498 H   0  0  0  0  0  0  0  0  0  0  0  0
  149.2990  156.6300  131.8470 H   0  0  0  0  0  0  0  0  0  0  0  0
  148.5751  155.4821  134.6947 H   0  0  0  0  0  0  0  0  0  0  0  0
  147.4658  156.6875  135.4484 H   0  0  0  0  0  0  0  0  0  0  0  0
  144.5940  156.7817  134.2094 H   0  0  0  0  0  0  0  0  0  0  0  0
  1  2  1  0
  2  3  1  0
  3  4  2  0
  3  5  1  0
  5  6  1  0
  6  7  2  0
  7  8  1  0
  8  9  2  0
  9 10  1  0
 10 11  2  0
 11 12  1  0
 12 13  1  0
 12 14  2  0
 11 15  1  0
 15 16  1  0
 16 17  2  0
 16 18  1  0
 18 19  1  0
 19 20  2  0
 19 21  1  0
 19 22  1  0
 15 23  1  0
 23 24  2  0
 24  6  1  0
 23  9  1  0
  1 25  1  0
  1 26  1  0
  1 27  1  0
  5 28  1  0
  5 29  1  0
  7 30  1  0
  8 31  1  0
 10 32  1  0
 13 33  1  0
 18 34  1  0
 18 35  1  0
 24 36  1  0
M  CHG  4   2  -1  13  -1  21  -1  22  -1
M  END
>  <UniqueID>  (76) 
76

>  <SMILES>  (76) 
C[N-]C(=O)Cc1ccc2cc(C([NH-])=O)n(C(=O)CP(=O)([O-])[O-])c2c1

>  <Energy>  (76) 
66.03040414079007

>  <Genealogy>  (76) 
C[N-]C(=O)Cc1ccc2cc(C([NH-])=O)n(C(=O)CP(=O)([O-])[O-])c2c1 (protonated)
C[N-]C(=O)Cc1ccc2cc(C([NH-])=O)n(C(=O)CP(=O)([O-])[O-])c2c1 (3D coordinates assigned)
C[N-]C(=O)Cc1ccc2cc(C([NH-])=O)n(C(=O)CP(=O)([O-])[O-])c2c1 (optimized conformer: 66.03040414079007 kcal/mol)

>  <smiles>  (76) 
CNC(=O)Cc1ccc2cc(C(N)=O)n(C(=O)CP(=O)(O)O)c2c1

>  <score_type>  (76) 
oracle

>  <origin>  (76) 
adg

>  <m_score__min__energy>  (76) 
-6.4000000000000004

>  <m_primary>  (76) 
energy

$$$$
80:0
     RDKit          3D

 36 37  0  0  0  0  0  0  0  0999 V2000
  142.2510  158.9940  135.2650 C   0  0  0  0  0  0  0  0  0  0  0  0
  143.1490  159.2240  134.2970 C   0  0  0  0  0  0  0  0  0  0  0  0
  143.6090  160.6110  134.0380 C   0  0  0  0  0  0  0  0  0  0  0  0
  142.8630  161.4330  133.4430 O   0  0  0  0  0  0  0  0  0  0  0  0
  144.8770  161.0230  134.4360 O   0  0  0  0  0  0  0  0  0  0  0  0
  143.6640  158.0910  133.4820 C   0  0  0  0  0  0  0  0  0  0  0  0
  142.9940  157.6660  132.5030 O   0  0  0  0  0  0  0  0  0  0  0  0
  144.9220  157.4680  133.7870 N   0  0  0  0  0  0  0  0  0  0  0  0
  145.1310  156.2760  134.4140 C   0  0  0  0  0  0  0  0  0  0  0  0
  144.0900  155.4290  135.0340 C   0  0  0  0  0  0  0  0  0  0  0  0
  144.3990  154.5640  136.1230 N   0  0  0  0  0  0  0  0  0  0  0  0
  142.9170  155.4460  134.5740 O   0  0  0  0  0  0  0  0  0  0  0  0
  146.4910  155.9720  134.4390 C   0  0  0  0  0  0  0  0  0  0  0  0
  147.1130  157.0230  133.8020 C   0  0  0  0  0  0  0  0  0  0  0  0
  148.4600  157.2350  133.5240 C   0  0  0  0  0  0  0  0  0  0  0  0
  148.8120  158.4000  132.8210 C   0  0  0  0  0  0  0  0  0  0  0  0
  147.8190  159.3250  132.4140 C   0  0  0  0  0  0  0  0  0  0  0  0
  148.2030  160.5440  131.6220 C   0  0  0  0  0  0  0  0  0  0  0  0
  148.9630  160.1410  130.4000 C   0  0  0  0  0  0  0  0  0  0  0  0
  148.9710  158.9330  130.0370 O   0  0  0  0  0  0  0  0  0  0  0  0
  149.6970  161.1020  129.6980 O   0  0  0  0  0  0  0  0  0  0  0  0
  149.6020  162.4930  129.9800 C   0  0  0  0  0  0  0  0  0  0  0  0
  146.4610  159.0690  132.7010 C   0  0  0  0  0  0  0  0  0  0  0  0
  146.1420  157.9100  133.4170 C   0  0  0  0  0  0  0  0  0  0  0  0
  141.9056  157.9685  135.4624 H   0  0  0  0  0  0  0  0  0  0  0  0
  141.8594  159.8308  135.8620 H   0  0  0  0  0  0  0  0  0  0  0  0
  144.3920  154.9150  137.1060 H   0  0  0  0  0  0  0  0  0  0  0  0
  146.9669  155.0813  134.8751 H   0  0  0  0  0  0  0  0  0  0  0  0
  149.2256  156.5131  133.8446 H   0  0  0  0  0  0  0  0  0  0  0  0
  149.8684  158.5955  132.5846 H   0  0  0  0  0  0  0  0  0  0  0  0
  147.2935  161.0857  131.3232 H   0  0  0  0  0  0  0  0  0  0  0  0
  148.8368  161.1936  132.2436 H   0  0  0  0  0  0  0  0  0  0  0  0
  149.5915  162.6464  131.0692 H   0  0  0  0  0  0  0  0  0  0  0  0
  150.4666  163.0153  129.5444 H   0  0  0  0  0  0  0  0  0  0  0  0
  148.6745  162.8929  129.5444 H   0  0  0  0  0  0  0  0  0  0  0  0
  145.6739  159.7626  132.3704 H   0  0  0  0  0  0  0  0  0  0  0  0
  1  2  2  0
  2  3  1  0
  3  4  2  0
  3  5  1  0
  2  6  1  0
  6  7  2  0
  6  8  1  0
  8  9  1  0
  9 10  1  0
 10 11  1  0
 10 12  2  0
  9 13  2  0
 13 14  1  0
 14 15  2  0
 15 16  1  0
 16 17  2  0
 17 18  1  0
 18 19  1  0
 19 20  2  0
 19 21  1  0
 21 22  1  0
 17 23  1  0
 23 24  2  0
 24  8  1  0
 24 14  1  0
  1 25  1  0
  1 26  1  0
 11 27  1  0
 13 28  1  0
 15 29  1  0
 16 30  1  0
 18 31  1  0
 18 32  1  0
 22 33  1  0
 22 34  1  0
 22 35  1  0
 23 36  1  0
M  CHG  2   5  -1  11  -1
M  END
>  <UniqueID>  (77) 
77

>  <SMILES>  (77) 
C=C(C(=O)[O-])C(=O)n1c(C([NH-])=O)cc2ccc(CC(=O)OC)cc21

>  <Energy>  (77) 
73.00471816882343

>  <Genealogy>  (77) 
C=C(C(=O)[O-])C(=O)n1c(C([NH-])=O)cc2ccc(CC(=O)OC)cc21 (protonated)
C=C(C(=O)[O-])C(=O)n1c(C([NH-])=O)cc2ccc(CC(=O)OC)cc21 (3D coordinates assigned)
C=C(C(=O)[O-])C(=O)n1c(C([NH-])=O)cc2ccc(CC(=O)OC)cc21 (optimized conformer: 73.00471816882343 kcal/mol)

>  <smiles>  (77) 
C=C(C(=O)O)C(=O)n1c(C(N)=O)cc2ccc(CC(=O)OC)cc21

>  <score_type>  (77) 
oracle

>  <origin>  (77) 
adg

>  <m_score__min__energy>  (77) 
-6.7000000000000002

>  <m_primary>  (77) 
energy

$$$$
81:0
     RDKit          3D

 52 53  0  0  0  0  0  0  0  0999 V2000
  138.3850  149.1330  129.8620 C   0  0  0  0  0  0  0  0  0  0  0  0
  139.5710  148.2660  129.9830 N   0  0  0  0  0  0  0  0  0  0  0  0
  139.1510  146.8560  129.9510 C   0  0  0  0  0  0  0  0  0  0  0  0
  140.3080  148.5560  131.2320 C   0  0  0  0  0  0  0  0  0  0  0  0
  140.1780  150.0400  131.5990 C   0  0  0  0  0  0  0  0  0  0  0  0
  140.7470  150.3490  132.9940 C   0  0  0  0  0  0  0  0  0  0  0  0
  141.7310  151.4400  132.9430 N   0  0  0  0  0  0  0  0  0  0  0  0
  143.1660  151.1450  132.9560 C   0  0  0  0  0  0  0  0  0  0  0  0
  141.3200  152.8180  132.8880 C   0  0  0  0  0  0  0  0  0  0  0  0
  140.1100  153.0930  132.6700 O   0  0  0  0  0  0  0  0  0  0  0  0
  142.3220  153.9380  132.9810 C   0  0  0  0  0  0  0  0  0  0  0  0
  141.8930  155.0490  133.9040 C   0  0  0  0  0  0  0  0  0  0  0  0
  141.3490  154.7470  134.9990 O   0  0  0  0  0  0  0  0  0  0  0  0
  142.0900  156.4350  133.5750 N   0  0  0  0  0  0  0  0  0  0  0  0
  141.1530  157.3790  133.2800 C   0  0  0  0  0  0  0  0  0  0  0  0
  139.7250  157.1220  133.0110 C   0  0  0  0  0  0  0  0  0  0  0  0
  139.1440  155.8440  133.2750 N   0  0  0  0  0  0  0  0  0  0  0  0
  139.0210  158.0240  132.4830 O   0  0  0  0  0  0  0  0  0  0  0  0
  141.7410  158.6350  133.1600 C   0  0  0  0  0  0  0  0  0  0  0  0
  143.0870  158.4260  133.3570 C   0  0  0  0  0  0  0  0  0  0  0  0
  144.1440  159.3290  133.3570 C   0  0  0  0  0  0  0  0  0  0  0  0
  145.4350  158.8330  133.6080 C   0  0  0  0  0  0  0  0  0  0  0  0
  145.6500  157.4490  133.8350 C   0  0  0  0  0  0  0  0  0  0  0  0
  147.0290  156.9420  134.1700 C   0  0  0  0  0  0  0  0  0  0  0  0
  147.8540  158.0170  134.4470 F   0  0  0  0  0  0  0  0  0  0  0  0
  147.5580  156.2290  133.1070 F   0  0  0  0  0  0  0  0  0  0  0  0
  146.9890  156.1080  135.2740 F   0  0  0  0  0  0  0  0  0  0  0  0
  144.5450  156.5660  133.8480 C   0  0  0  0  0  0  0  0  0  0  0  0
  143.2720  157.0880  133.5940 C   0  0  0  0  0  0  0  0  0  0  0  0
  138.0213  149.3989  130.8655 H   0  0  0  0  0  0  0  0  0  0  0  0
  138.6544  150.0486  129.3151 H   0  0  0  0  0  0  0  0  0  0  0  0
  137.5943  148.5985  129.3151 H   0  0  0  0  0  0  0  0  0  0  0  0
  139.0399  146.4831  130.9799 H   0  0  0  0  0  0  0  0  0  0  0  0
  138.1888  146.7719  129.4246 H   0  0  0  0  0  0  0  0  0  0  0  0
  139.9103  146.2591  129.4246 H   0  0  0  0  0  0  0  0  0  0  0  0
  139.8946  147.9438  132.0470 H   0  0  0  0  0  0  0  0  0  0  0  0
  141.3714  148.3180  131.0816 H   0  0  0  0  0  0  0  0  0  0  0  0
  140.7239  150.6376  130.8541 H   0  0  0  0  0  0  0  0  0  0  0  0
  139.1071  150.2912  131.6095 H   0  0  0  0  0  0  0  0  0  0  0  0
  139.9220  150.6421  133.6600 H   0  0  0  0  0  0  0  0  0  0  0  0
  141.2506  149.4462  133.3699 H   0  0  0  0  0  0  0  0  0  0  0  0
  143.5161  151.0730  133.9963 H   0  0  0  0  0  0  0  0  0  0  0  0
  143.3488  150.1905  132.4407 H   0  0  0  0  0  0  0  0  0  0  0  0
  143.7105  151.9500  132.4407 H   0  0  0  0  0  0  0  0  0  0  0  0
  143.2727  153.5257  133.3499 H   0  0  0  0  0  0  0  0  0  0  0  0
  142.4196  154.3711  131.9746 H   0  0  0  0  0  0  0  0  0  0  0  0
  139.7350  155.0310  133.5550 H   0  0  0  0  0  0  0  0  0  0  0  0
  138.1250  155.6860  133.1130 H   0  0  0  0  0  0  0  0  0  0  0  0
  141.2374  159.5906  132.9521 H   0  0  0  0  0  0  0  0  0  0  0  0
  143.9752  160.3991  133.1664 H   0  0  0  0  0  0  0  0  0  0  0  0
  146.2889  159.5261  133.6287 H   0  0  0  0  0  0  0  0  0  0  0  0
  144.6833  155.4941  134.0530 H   0  0  0  0  0  0  0  0  0  0  0  0
  1  2  1  0
  2  3  1  0
  2  4  1  0
  4  5  1  0
  5  6  1  0
  6  7  1  0
  7  8  1  0
  7  9  1  0
  9 10  2  0
  9 11  1  0
 11 12  1  0
 12 13  2  0
 12 14  1  0
 14 15  1  0
 15 16  1  0
 16 17  1  0
 16 18  2  0
 15 19  2  0
 19 20  1  0
 20 21  2  0
 21 22  1  0
 22 23  2  0
 23 24  1  0
 24 25  1  0
 24 26  1  0
 24 27  1  0
 23 28  1  0
 28 29  2  0
 29 14  1  0
 29 20  1  0
  1 30  1  0
  1 31  1  0
  1 32  1  0
  3 33  1  0
  3 34  1  0
  3 35  1  0
  4 36  1  0
  4 37  1  0
  5 38  1  0
  5 39  1  0
  6 40  1  0
  6 41  1  0
  8 42  1  0
  8 43  1  0
  8 44  1  0
 11 45  1  0
 11 46  1  0
 17 47  1  0
 17 48  1  0
 19 49  1  0
 21 50  1  0
 22 51  1  0
 28 52  1  0
M  END
>  <UniqueID>  (78) 
78

>  <SMILES>  (78) 
CN(C)CCCN(C)C(=O)CC(=O)n1c(C(N)=O)cc2ccc(C(F)(F)F)cc21

>  <Energy>  (78) 
85.64412578281387

>  <Genealogy>  (78) 
CN(C)CCCN(C)C(=O)CC(=O)n1c(C(N)=O)cc2ccc(C(F)(F)F)cc21 (3D coordinates assigned)
CN(C)CCCN(C)C(=O)CC(=O)n1c(C(N)=O)cc2ccc(C(F)(F)F)cc21 (optimized conformer: 85.64412578281387 kcal/mol)

>  <smiles>  (78) 
CN(C)CCCN(C)C(=O)CC(=O)n1c(C(N)=O)cc2ccc(C(F)(F)F)cc21

>  <score_type>  (78) 
oracle

>  <origin>  (78) 
adg

>  <m_score__min__energy>  (78) 
-7.46

>  <m_primary>  (78) 
energy

$$$$
82:0
     RDKit          3D

 44 45  0  0  0  0  0  0  0  0999 V2000
  149.5260  152.5700  132.2330 C   0  0  0  0  0  0  0  0  0  0  0  0
  149.0720  153.9410  132.6350 C   0  0  0  0  0  0  0  0  0  0  0  0
  149.9040  154.8880  132.5860 O   0  0  0  0  0  0  0  0  0  0  0  0
  147.7180  154.1960  133.0690 N   0  0  0  0  0  0  0  0  0  0  0  0
  146.7270  153.1170  133.0050 C   0  0  0  0  0  0  0  0  0  0  0  0
  147.3240  155.4950  133.5520 C   0  0  0  0  0  0  0  0  0  0  0  0
  147.8630  155.9580  134.5940 O   0  0  0  0  0  0  0  0  0  0  0  0
  146.2820  156.2850  132.8660 C   0  0  0  0  0  0  0  0  0  0  0  0
  145.3480  155.7000  132.2520 O   0  0  0  0  0  0  0  0  0  0  0  0
  146.2990  157.7190  132.9160 N   0  0  0  0  0  0  0  0  0  0  0  0
  147.3100  158.5600  132.5630 C   0  0  0  0  0  0  0  0  0  0  0  0
  148.5810  158.1440  131.9280 C   0  0  0  0  0  0  0  0  0  0  0  0
  149.4800  157.2570  132.5950 N   0  0  0  0  0  0  0  0  0  0  0  0
  148.8910  158.5880  130.7900 O   0  0  0  0  0  0  0  0  0  0  0  0
  146.9470  159.8840  132.8070 C   0  0  0  0  0  0  0  0  0  0  0  0
  145.6680  159.8240  133.3170 C   0  0  0  0  0  0  0  0  0  0  0  0
  144.8210  160.8430  133.7410 C   0  0  0  0  0  0  0  0  0  0  0  0
  143.5570  160.4840  134.2390 C   0  0  0  0  0  0  0  0  0  0  0  0
  143.1630  159.1220  134.2960 C   0  0  0  0  0  0  0  0  0  0  0  0
  141.8240  158.7470  134.8720 C   0  0  0  0  0  0  0  0  0  0  0  0
  142.0020  157.9370  136.1620 C   0  0  0  0  0  0  0  0  0  0  0  0
  141.1080  158.4620  137.2900 C   0  0  0  0  0  0  0  0  0  0  0  0
  140.6050  159.7340  136.9820 O   0  0  0  0  0  0  0  0  0  0  0  0
  144.0540  158.1160  133.8650 C   0  0  0  0  0  0  0  0  0  0  0  0
  145.3010  158.5050  133.3680 C   0  0  0  0  0  0  0  0  0  0  0  0
  149.7245  151.9707  133.1338 H   0  0  0  0  0  0  0  0  0  0  0  0
  148.7407  152.0843  131.6351 H   0  0  0  0  0  0  0  0  0  0  0  0
  150.4459  152.6490  131.6351 H   0  0  0  0  0  0  0  0  0  0  0  0
  146.4486  152.8139  134.0251 H   0  0  0  0  0  0  0  0  0  0  0  0
  145.8330  153.4714  132.4710 H   0  0  0  0  0  0  0  0  0  0  0  0
  147.1560  152.2563  132.4710 H   0  0  0  0  0  0  0  0  0  0  0  0
  149.2340  156.8170  133.5090 H   0  0  0  0  0  0  0  0  0  0  0  0
  150.3880  157.0000  132.1480 H   0  0  0  0  0  0  0  0  0  0  0  0
  147.5528  160.7850  132.6301 H   0  0  0  0  0  0  0  0  0  0  0  0
  145.1312  161.8970  133.6880 H   0  0  0  0  0  0  0  0  0  0  0  0
  142.8666  161.2660  134.5879 H   0  0  0  0  0  0  0  0  0  0  0  0
  141.2566  159.6626  135.0949 H   0  0  0  0  0  0  0  0  0  0  0  0
  141.2806  158.1331  134.1386 H   0  0  0  0  0  0  0  0  0  0  0  0
  141.7432  156.8868  135.9618 H   0  0  0  0  0  0  0  0  0  0  0  0
  143.0497  158.0310  136.4836 H   0  0  0  0  0  0  0  0  0  0  0  0
  140.2669  157.7680  137.4349 H   0  0  0  0  0  0  0  0  0  0  0  0
  141.7094  158.5359  138.2081 H   0  0  0  0  0  0  0  0  0  0  0  0
  139.6270  159.7000  137.1490 H   0  0  0  0  0  0  0  0  0  0  0  0
  143.7744  157.0535  133.9188 H   0  0  0  0  0  0  0  0  0  0  0  0
  1  2  1  0
  2  3  2  0
  2  4  1  0
  4  5  1  0
  4  6  1  0
  6  7  2  0
  6  8  1  0
  8  9  2  0
  8 10  1  0
 10 11  1  0
 11 12  1  0
 12 13  1  0
 12 14  2  0
 11 15  2  0
 15 16  1  0
 16 17  2  0
 17 18  1  0
 18 19  2  0
 19 20  1  0
 20 21  1  0
 21 22  1  0
 22 23  1  0
 19 24  1  0
 24 25  2  0
 25 10  1  0
 25 16  1  0
  1 26  1  0
  1 27  1  0
  1 28  1  0
  5 29  1  0
  5 30  1  0
  5 31  1  0
 13 32  1  0
 13 33  1  0
 15 34  1  0
 17 35  1  0
 18 36  1  0
 20 37  1  0
 20 38  1  0
 21 39  1  0
 21 40  1  0
 22 41  1  0
 22 42  1  0
 23 43  1  0
 24 44  1  0
M  END
>  <UniqueID>  (79) 
79

>  <SMILES>  (79) 
CC(=O)N(C)C(=O)C(=O)n1c(C(N)=O)cc2ccc(CCCO)cc21

>  <Energy>  (79) 
81.75437669798009

>  <Genealogy>  (79) 
CC(=O)N(C)C(=O)C(=O)n1c(C(N)=O)cc2ccc(CCCO)cc21 (3D coordinates assigned)
CC(=O)N(C)C(=O)C(=O)n1c(C(N)=O)cc2ccc(CCCO)cc21 (optimized conformer: 81.75437669798009 kcal/mol)

>  <smiles>  (79) 
CC(=O)N(C)C(=O)C(=O)n1c(C(N)=O)cc2ccc(CCCO)cc21

>  <score_type>  (79) 
oracle

>  <origin>  (79) 
adg

>  <m_score__min__energy>  (79) 
-7.0700000000000003

>  <m_primary>  (79) 
energy

$$$$
83:0
     RDKit          3D

 34 35  0  0  0  0  0  0  0  0999 V2000
  142.7360  160.3250  133.2180 N   0  0  0  0  0  0  0  0  0  0  0  0
  144.0630  160.5100  133.7030 C   0  0  0  0  0  0  0  0  0  0  0  0
  144.3200  161.5040  134.4330 O   0  0  0  0  0  0  0  0  0  0  0  0
  145.1250  159.5240  133.4100 C   0  0  0  0  0  0  0  0  0  0  0  0
  146.4640  159.8700  133.2390 C   0  0  0  0  0  0  0  0  0  0  0  0
  147.1330  158.6770  133.0870 C   0  0  0  0  0  0  0  0  0  0  0  0
  148.4860  158.4310  132.8760 C   0  0  0  0  0  0  0  0  0  0  0  0
  148.8970  157.0960  132.7270 C   0  0  0  0  0  0  0  0  0  0  0  0
  147.9550  156.0400  132.7830 C   0  0  0  0  0  0  0  0  0  0  0  0
  148.3950  154.6150  132.6060 C   0  0  0  0  0  0  0  0  0  0  0  0
  148.2250  153.9250  133.7930 F   0  0  0  0  0  0  0  0  0  0  0  0
  149.7280  154.5770  132.2430 F   0  0  0  0  0  0  0  0  0  0  0  0
  146.5880  156.3290  132.9950 C   0  0  0  0  0  0  0  0  0  0  0  0
  146.2090  157.6670  133.1600 C   0  0  0  0  0  0  0  0  0  0  0  0
  144.9700  158.1700  133.3560 N   0  0  0  0  0  0  0  0  0  0  0  0
  143.7480  157.4180  133.4080 C   0  0  0  0  0  0  0  0  0  0  0  0
  143.0000  157.3580  132.3940 O   0  0  0  0  0  0  0  0  0  0  0  0
  143.4090  156.7280  134.5760 O   0  0  0  0  0  0  0  0  0  0  0  0
  142.1480  156.8750  135.2180 C   0  0  0  0  0  0  0  0  0  0  0  0
  141.2840  157.7150  134.3890 C   0  0  0  0  0  0  0  0  0  0  0  0
  140.5760  158.4110  133.7050 C   0  0  0  0  0  0  0  0  0  0  0  0
  139.7160  159.2560  132.8700 C   0  0  0  0  0  0  0  0  0  0  0  0
  140.4340  159.7240  131.7620 O   0  0  0  0  0  0  0  0  0  0  0  0
  142.4990  159.5200  132.5960 H   0  0  0  0  0  0  0  0  0  0  0  0
  146.8949  160.8820  133.2279 H   0  0  0  0  0  0  0  0  0  0  0  0
  149.2115  159.2564  132.8274 H   0  0  0  0  0  0  0  0  0  0  0  0
  149.9610  156.8686  132.5652 H   0  0  0  0  0  0  0  0  0  0  0  0
  147.7879  154.1474  131.8168 H   0  0  0  0  0  0  0  0  0  0  0  0
  145.8402  155.5230  133.0295 H   0  0  0  0  0  0  0  0  0  0  0  0
  141.6841  155.8863  135.3495 H   0  0  0  0  0  0  0  0  0  0  0  0
  142.2862  157.3442  136.2033 H   0  0  0  0  0  0  0  0  0  0  0  0
  138.8537  158.6677  132.5231 H   0  0  0  0  0  0  0  0  0  0  0  0
  139.3679  160.1144  133.4633 H   0  0  0  0  0  0  0  0  0  0  0  0
  141.3600  159.3760  131.8540 H   0  0  0  0  0  0  0  0  0  0  0  0
  1  2  1  0
  2  3  2  0
  2  4  1  0
  4  5  2  0
  5  6  1  0
  6  7  2  0
  7  8  1  0
  8  9  2  0
  9 10  1  0
 10 11  1  0
 10 12  1  0
  9 13  1  0
 13 14  2  0
 14 15  1  0
 15 16  1  0
 16 17  2  0
 16 18  1  0
 18 19  1  0
 19 20  1  0
 20 21  3  0
 21 22  1  0
 22 23  1  0
 15  4  1  0
 14  6  1  0
  1 24  1  0
  5 25  1  0
  7 26  1  0
  8 27  1  0
 10 28  1  0
 13 29  1  0
 19 30  1  0
 19 31  1  0
 22 32  1  0
 22 33  1  0
 23 34  1  0
M  CHG  1   1  -1
M  END
>  <UniqueID>  (80) 
80

>  <SMILES>  (80) 
[NH-]C(=O)c1cc2ccc(C(F)F)cc2n1C(=O)OCC#CCO

>  <Energy>  (80) 
65.36975647028481

>  <Genealogy>  (80) 
[NH-]C(=O)c1cc2ccc(C(F)F)cc2n1C(=O)OCC#CCO (protonated)
[NH-]C(=O)c1cc2ccc(C(F)F)cc2n1C(=O)OCC#CCO (3D coordinates assigned)
[NH-]C(=O)c1cc2ccc(C(F)F)cc2n1C(=O)OCC#CCO (optimized conformer: 65.36975647028481 kcal/mol)

>  <smiles>  (80) 
NC(=O)c1cc2ccc(C(F)F)cc2n1C(=O)OCC#CCO

>  <score_type>  (80) 
oracle

>  <origin>  (80) 
adg

>  <m_score__min__energy>  (80) 
-5.75

>  <m_primary>  (80) 
energy

$$$$
84:0
     RDKit          3D

 43 44  0  0  0  0  0  0  0  0999 V2000
  148.2890  153.3470  134.1810 C   0  0  0  0  0  0  0  0  0  0  0  0
  147.1810  154.3010  133.7120 C   0  0  1  0  0  0  0  0  0  0  0  0
  147.2390  154.5330  132.3290 O   0  0  0  0  0  0  0  0  0  0  0  0
  145.7710  153.8530  134.1420 C   0  0  0  0  0  0  0  0  0  0  0  0
  144.7800  154.9490  134.1320 N   0  0  0  0  0  0  0  0  0  0  0  0
  143.9080  155.1240  135.3000 C   0  0  0  0  0  0  0  0  0  0  0  0
  144.7070  155.9270  133.0690 C   0  0  0  0  0  0  0  0  0  0  0  0
  144.7170  155.5460  131.8660 O   0  0  0  0  0  0  0  0  0  0  0  0
  144.6100  157.3300  133.3470 N   0  0  0  0  0  0  0  0  0  0  0  0
  145.5750  158.2920  133.2290 C   0  0  0  0  0  0  0  0  0  0  0  0
  146.9910  158.1140  132.8070 C   0  0  0  0  0  0  0  0  0  0  0  0
  147.4130  157.1330  131.8550 N   0  0  0  0  0  0  0  0  0  0  0  0
  147.8680  158.8570  133.3210 O   0  0  0  0  0  0  0  0  0  0  0  0
  145.0290  159.5500  133.4930 C   0  0  0  0  0  0  0  0  0  0  0  0
  143.6920  159.3340  133.7350 C   0  0  0  0  0  0  0  0  0  0  0  0
  142.6710  160.2400  134.0000 C   0  0  0  0  0  0  0  0  0  0  0  0
  141.3640  159.7410  134.1270 C   0  0  0  0  0  0  0  0  0  0  0  0
  141.0960  158.3560  133.9620 C   0  0  0  0  0  0  0  0  0  0  0  0
  139.6910  157.8130  134.0970 C   0  0  0  0  0  0  0  0  0  0  0  0
  138.8090  158.3210  132.9610 C   0  0  0  0  0  0  0  0  0  0  0  0
  139.1510  158.2220  135.3040 F   0  0  0  0  0  0  0  0  0  0  0  0
  139.6910  156.4270  134.0780 F   0  0  0  0  0  0  0  0  0  0  0  0
  142.1670  157.4690  133.7010 C   0  0  0  0  0  0  0  0  0  0  0  0
  143.4630  157.9910  133.6150 C   0  0  0  0  0  0  0  0  0  0  0  0
  148.3135  153.3259  135.2805 H   0  0  0  0  0  0  0  0  0  0  0  0
  148.0876  152.3352  133.7992 H   0  0  0  0  0  0  0  0  0  0  0  0
  149.2596  153.6965  133.7992 H   0  0  0  0  0  0  0  0  0  0  0  0
  147.3755  155.2549  134.2241 H   0  0  0  0  0  0  0  0  0  0  0  0
  146.4050  154.1850  131.9260 H   0  0  0  0  0  0  0  0  0  0  0  0
  145.4291  153.0671  133.4524 H   0  0  0  0  0  0  0  0  0  0  0  0
  145.8463  153.4919  135.1783 H   0  0  0  0  0  0  0  0  0  0  0  0
  144.4992  155.0054  136.2200 H   0  0  0  0  0  0  0  0  0  0  0  0
  143.4624  156.1295  135.2776 H   0  0  0  0  0  0  0  0  0  0  0  0
  143.1090  154.3683  135.2776 H   0  0  0  0  0  0  0  0  0  0  0  0
  148.4130  157.1050  131.5590 H   0  0  0  0  0  0  0  0  0  0  0  0
  146.7950  156.3790  131.4930 H   0  0  0  0  0  0  0  0  0  0  0  0
  145.5584  160.5141  133.5050 H   0  0  0  0  0  0  0  0  0  0  0  0
  142.8804  161.3146  134.1069 H   0  0  0  0  0  0  0  0  0  0  0  0
  140.5386  160.4309  134.3569 H   0  0  0  0  0  0  0  0  0  0  0  0
  137.9277  158.8286  133.3800 H   0  0  0  0  0  0  0  0  0  0  0  0
  139.3799  159.0286  132.3419 H   0  0  0  0  0  0  0  0  0  0  0  0
  138.4834  157.4721  132.3419 H   0  0  0  0  0  0  0  0  0  0  0  0
  141.9851  156.3923  133.5685 H   0  0  0  0  0  0  0  0  0  0  0  0
  1  2  1  0
  2  3  1  0
  2  4  1  0
  4  5  1  0
  5  6  1  0
  5  7  1  0
  7  8  2  0
  7  9  1  0
  9 10  1  0
 10 11  1  0
 11 12  1  0
 11 13  2  0
 10 14  2  0
 14 15  1  0
 15 16  2  0
 16 17  1  0
 17 18  2  0
 18 19  1  0
 19 20  1  0
 19 21  1  0
 19 22  1  0
 18 23  1  0
 23 24  2  0
 24  9  1  0
 24 15  1  0
  1 25  1  0
  1 26  1  0
  1 27  1  0
  2 28  1  1
  3 29  1  0
  4 30  1  0
  4 31  1  0
  6 32  1  0
  6 33  1  0
  6 34  1  0
 12 35  1  0
 12 36  1  0
 14 37  1  0
 16 38  1  0
 17 39  1  0
 20 40  1  0
 20 41  1  0
 20 42  1  0
 23 43  1  0
M  END
>  <UniqueID>  (81) 
81

>  <SMILES>  (81) 
C[C@@H](O)CN(C)C(=O)n1c(C(N)=O)cc2ccc(C(C)(F)F)cc21

>  <Energy>  (81) 
80.71976756591548

>  <Genealogy>  (81) 
C[C@@H](O)CN(C)C(=O)n1c(C(N)=O)cc2ccc(C(C)(F)F)cc21 (chirality)
C[C@@H](O)CN(C)C(=O)n1c(C(N)=O)cc2ccc(C(C)(F)F)cc21 (3D coordinates assigned)
C[C@@H](O)CN(C)C(=O)n1c(C(N)=O)cc2ccc(C(C)(F)F)cc21 (optimized conformer: 80.71976756591548 kcal/mol)

>  <smiles>  (81) 
CC(O)CN(C)C(=O)n1c(C(N)=O)cc2ccc(C(C)(F)F)cc21

>  <score_type>  (81) 
oracle

>  <origin>  (81) 
adg

>  <m_score__min__energy>  (81) 
-6.2000000000000002

>  <m_primary>  (81) 
energy

$$$$
85:0
     RDKit          3D

 40 41  0  0  0  0  0  0  0  0999 V2000
  142.3290  160.7100  133.9460 N   0  0  0  0  0  0  0  0  0  0  0  0
  143.6860  161.1050  133.7430 C   0  0  0  0  0  0  0  0  0  0  0  0
  143.9870  162.3290  133.7420 O   0  0  0  0  0  0  0  0  0  0  0  0
  144.7330  160.0810  133.6060 C   0  0  0  0  0  0  0  0  0  0  0  0
  146.0980  160.3670  133.5660 C   0  0  0  0  0  0  0  0  0  0  0  0
  146.7150  159.1450  133.4060 C   0  0  0  0  0  0  0  0  0  0  0  0
  148.0670  158.8260  133.3980 C   0  0  0  0  0  0  0  0  0  0  0  0
  148.4220  157.4680  133.3310 C   0  0  0  0  0  0  0  0  0  0  0  0
  147.4270  156.4600  133.2420 C   0  0  0  0  0  0  0  0  0  0  0  0
  147.8120  155.0020  133.2190 C   0  0  0  0  0  0  0  0  0  0  0  0
  149.1600  154.8400  132.9540 F   0  0  0  0  0  0  0  0  0  0  0  0
  147.0970  154.3330  132.2410 F   0  0  0  0  0  0  0  0  0  0  0  0
  147.3770  154.1220  135.1100 I   0  0  0  0  0  0  0  0  0  0  0  0
  147.0050  153.3660  136.7320 O   0  0  0  0  0  0  0  0  0  0  0  0
  146.0610  156.8240  133.2700 C   0  0  0  0  0  0  0  0  0  0  0  0
  145.7380  158.1840  133.3440 C   0  0  0  0  0  0  0  0  0  0  0  0
  144.5150  158.7460  133.4570 N   0  0  0  0  0  0  0  0  0  0  0  0
  143.2640  158.0450  133.5440 C   0  0  0  0  0  0  0  0  0  0  0  0
  142.5720  157.8650  132.5030 O   0  0  0  0  0  0  0  0  0  0  0  0
  142.8340  157.4020  134.8280 C   0  0  0  0  0  0  0  0  0  0  0  0
  142.0580  158.3300  135.5550 O   0  0  0  0  0  0  0  0  0  0  0  0
  140.6860  158.0440  135.3930 C   0  0  0  0  0  0  0  0  0  0  0  0
  140.1300  158.9350  134.4490 O   0  0  0  0  0  0  0  0  0  0  0  0
  139.2970  158.2400  133.5450 C   0  0  0  0  0  0  0  0  0  0  0  0
  139.6550  158.6630  132.1200 C   0  0  0  0  0  0  0  0  0  0  0  0
  140.5950  159.7030  132.1420 O   0  0  0  0  0  0  0  0  0  0  0  0
  142.0320  159.7190  133.8040 H   0  0  0  0  0  0  0  0  0  0  0  0
  146.5777  161.3537  133.6450 H   0  0  0  0  0  0  0  0  0  0  0  0
  148.8355  159.6117  133.4427 H   0  0  0  0  0  0  0  0  0  0  0  0
  149.4842  157.1828  133.3477 H   0  0  0  0  0  0  0  0  0  0  0  0
  145.2723  156.0580  133.2346 H   0  0  0  0  0  0  0  0  0  0  0  0
  142.2343  156.5056  134.6116 H   0  0  0  0  0  0  0  0  0  0  0  0
  143.7157  157.1057  135.4152 H   0  0  0  0  0  0  0  0  0  0  0  0
  140.5661  157.0101  135.0370 H   0  0  0  0  0  0  0  0  0  0  0  0
  140.1697  158.1607  136.3573 H   0  0  0  0  0  0  0  0  0  0  0  0
  139.4507  157.1567  133.6587 H   0  0  0  0  0  0  0  0  0  0  0  0
  138.2426  158.4763  133.7512 H   0  0  0  0  0  0  0  0  0  0  0  0
  140.0788  157.8023  131.5818 H   0  0  0  0  0  0  0  0  0  0  0  0
  138.7448  159.0145  131.6121 H   0  0  0  0  0  0  0  0  0  0  0  0
  141.3400  159.4100  132.7300 H   0  0  0  0  0  0  0  0  0  0  0  0
  1  2  1  0
  2  3  2  0
  2  4  1  0
  4  5  2  0
  5  6  1  0
  6  7  2  0
  7  8  1  0
  8  9  2  0
  9 10  1  0
 10 11  1  0
 10 12  1  0
 10 13  1  0
 13 14  2  0
  9 15  1  0
 15 16  2  0
 16 17  1  0
 17 18  1  0
 18 19  2  0
 18 20  1  0
 20 21  1  0
 21 22  1  0
 22 23  1  0
 23 24  1  0
 24 25  1  0
 25 26  1  0
 17  4  1  0
 16  6  1  0
  1 27  1  0
  5 28  1  0
  7 29  1  0
  8 30  1  0
 15 31  1  0
 20 32  1  0
 20 33  1  0
 22 34  1  0
 22 35  1  0
 24 36  1  0
 24 37  1  0
 25 38  1  0
 25 39  1  0
 26 40  1  0
M  CHG  1   1  -1
M  END
>  <UniqueID>  (82) 
82

>  <SMILES>  (82) 
[NH-]C(=O)c1cc2ccc(C(F)(F)I=O)cc2n1C(=O)COCOCCO

>  <Energy>  (82) 
79.70695297025628

>  <Genealogy>  (82) 
[NH-]C(=O)c1cc2ccc(C(F)(F)I=O)cc2n1C(=O)COCOCCO (protonated)
[NH-]C(=O)c1cc2ccc(C(F)(F)I=O)cc2n1C(=O)COCOCCO (3D coordinates assigned)
[NH-]C(=O)c1cc2ccc(C(F)(F)I=O)cc2n1C(=O)COCOCCO (optimized conformer: 79.70695297025628 kcal/mol)

>  <smiles>  (82) 
NC(=O)c1cc2ccc(C(F)(F)I=O)cc2n1C(=O)COCOCCO

>  <score_type>  (82) 
oracle

>  <origin>  (82) 
adg

>  <m_score__min__energy>  (82) 
-5.5499999999999998

>  <m_primary>  (82) 
energy

$$$$
86:0
     RDKit          3D

 29 30  0  0  0  0  0  0  0  0999 V2000
  141.5280  159.8710  133.2120 N   0  0  0  0  0  0  0  0  0  0  0  0
  142.4720  159.6620  134.2610 C   0  0  0  0  0  0  0  0  0  0  0  0
  142.0990  159.7690  135.4580 O   0  0  0  0  0  0  0  0  0  0  0  0
  143.8820  159.3660  133.9300 C   0  0  0  0  0  0  0  0  0  0  0  0
  144.3560  158.0810  133.6750 C   0  0  0  0  0  0  0  0  0  0  0  0
  145.6770  158.2410  133.3250 C   0  0  0  0  0  0  0  0  0  0  0  0
  146.6320  157.2920  132.9780 C   0  0  0  0  0  0  0  0  0  0  0  0
  147.9320  157.7370  132.6880 C   0  0  0  0  0  0  0  0  0  0  0  0
  148.2600  159.1190  132.7620 C   0  0  0  0  0  0  0  0  0  0  0  0
  149.5880  159.6060  132.4750 N   0  0  0  0  0  0  0  0  0  0  0  0
  149.9540  160.4260  131.3180 C   0  0  0  0  0  0  0  0  0  0  0  0
  149.1560  160.0180  130.0790 C   0  0  0  0  0  0  0  0  0  0  0  0
  149.1280  158.6430  129.9430 F   0  0  0  0  0  0  0  0  0  0  0  0
  147.8590  160.4820  130.1960 F   0  0  0  0  0  0  0  0  0  0  0  0
  149.7300  160.5730  128.9480 F   0  0  0  0  0  0  0  0  0  0  0  0
  147.2570  160.0500  133.1140 C   0  0  0  0  0  0  0  0  0  0  0  0
  145.9660  159.5800  133.3780 C   0  0  0  0  0  0  0  0  0  0  0  0
  144.8750  160.2850  133.7520 N   0  0  0  0  0  0  0  0  0  0  0  0
  144.8140  161.7040  133.9720 C   0  0  0  0  0  0  0  0  0  0  0  0
  145.6810  162.2760  134.6830 O   0  0  0  0  0  0  0  0  0  0  0  0
  143.8110  162.4640  133.3810 O   0  0  0  0  0  0  0  0  0  0  0  0
  141.7840  159.6910  132.2160 H   0  0  0  0  0  0  0  0  0  0  0  0
  143.7933  157.1381  133.7398 H   0  0  0  0  0  0  0  0  0  0  0  0
  146.3766  156.2231  132.9319 H   0  0  0  0  0  0  0  0  0  0  0  0
  148.7049  157.0090  132.4006 H   0  0  0  0  0  0  0  0  0  0  0  0
  150.3570  159.3590  133.1390 H   0  0  0  0  0  0  0  0  0  0  0  0
  149.7476  161.4820  131.5465 H   0  0  0  0  0  0  0  0  0  0  0  0
  151.0237  160.2773  131.1090 H   0  0  0  0  0  0  0  0  0  0  0  0
  147.4869  161.1237  133.1792 H   0  0  0  0  0  0  0  0  0  0  0  0
  1  2  1  0
  2  3  2  0
  2  4  1  0
  4  5  2  0
  5  6  1  0
  6  7  2  0
  7  8  1  0
  8  9  2  0
  9 10  1  0
 10 11  1  0
 11 12  1  0
 12 13  1  0
 12 14  1  0
 12 15  1  0
  9 16  1  0
 16 17  2  0
 17 18  1  0
 18 19  1  0
 19 20  2  0
 19 21  1  0
 18  4  1  0
 17  6  1  0
  1 22  1  0
  5 23  1  0
  7 24  1  0
  8 25  1  0
 10 26  1  0
 11 27  1  0
 11 28  1  0
 16 29  1  0
M  CHG  2   1  -1  21  -1
M  END
>  <UniqueID>  (83) 
83

>  <SMILES>  (83) 
[NH-]C(=O)c1cc2ccc(NCC(F)(F)F)cc2n1C(=O)[O-]

>  <Energy>  (83) 
67.2992182971498

>  <Genealogy>  (83) 
[NH-]C(=O)c1cc2ccc(NCC(F)(F)F)cc2n1C(=O)[O-] (protonated)
[NH-]C(=O)c1cc2ccc(NCC(F)(F)F)cc2n1C(=O)[O-] (3D coordinates assigned)
[NH-]C(=O)c1cc2ccc(NCC(F)(F)F)cc2n1C(=O)[O-] (optimized conformer: 67.2992182971498 kcal/mol)

>  <smiles>  (83) 
NC(=O)c1cc2ccc(NCC(F)(F)F)cc2n1C(=O)O

>  <score_type>  (83) 
oracle

>  <origin>  (83) 
adg

>  <m_score__min__energy>  (83) 
-6.3200000000000003

>  <m_primary>  (83) 
energy

$$$$
87:0
     RDKit          3D

 56 58  0  0  0  0  0  0  0  0999 V2000
  145.4220  160.9700  134.0960 C   0  0  0  0  0  0  0  0  0  0  0  0
  145.4360  159.7680  133.2480 N   0  0  0  0  0  0  0  0  0  0  0  0
  144.1690  159.0440  133.0440 C   0  0  0  0  0  0  0  0  0  0  0  0
  144.1480  157.7650  133.8470 C   0  0  0  0  0  0  0  0  0  0  0  0
  145.1640  157.4480  134.5230 O   0  0  0  0  0  0  0  0  0  0  0  0
  143.0000  156.8970  133.8370 N   0  0  0  0  0  0  0  0  0  0  0  0
  142.8780  155.6580  134.3820 C   0  0  0  0  0  0  0  0  0  0  0  0
  143.9820  154.8370  134.9000 C   0  0  0  0  0  0  0  0  0  0  0  0
  144.1900  154.7180  136.3020 N   0  0  0  0  0  0  0  0  0  0  0  0
  144.8050  154.3090  134.1020 O   0  0  0  0  0  0  0  0  0  0  0  0
  141.5700  155.1850  134.2430 C   0  0  0  0  0  0  0  0  0  0  0  0
  140.8880  156.1940  133.5940 C   0  0  0  0  0  0  0  0  0  0  0  0
  139.5480  156.2770  133.2250 C   0  0  0  0  0  0  0  0  0  0  0  0
  139.1070  157.4620  132.6110 C   0  0  0  0  0  0  0  0  0  0  0  0
  140.0080  158.5290  132.3580 C   0  0  0  0  0  0  0  0  0  0  0  0
  139.4990  159.8270  131.7700 C   0  0  0  0  0  0  0  0  0  0  0  0
  138.1190  159.8850  131.8490 F   0  0  0  0  0  0  0  0  0  0  0  0
  139.8640  159.9440  130.4380 F   0  0  0  0  0  0  0  0  0  0  0  0
  140.0350  160.8860  132.4790 F   0  0  0  0  0  0  0  0  0  0  0  0
  141.3590  158.4090  132.7590 C   0  0  0  0  0  0  0  0  0  0  0  0
  141.7730  157.2150  133.3610 C   0  0  0  0  0  0  0  0  0  0  0  0
  146.6750  159.3770  132.6070 C   0  0  0  0  0  0  0  0  0  0  0  0
  147.0780  160.0150  131.5950 O   0  0  0  0  0  0  0  0  0  0  0  0
  147.4200  158.2180  133.0310 N   0  0  0  0  0  0  0  0  0  0  0  0
  147.8550  157.2490  132.0070 C   0  0  0  0  0  0  0  0  0  0  0  0
  148.3650  155.9460  132.6530 C   0  0  0  0  0  0  0  0  0  0  0  0
  147.5470  155.6290  133.9220 C   0  0  0  0  0  0  0  0  0  0  0  0
  147.8730  154.2110  134.4510 C   0  0  0  0  0  0  0  0  0  0  0  0
  147.7920  154.0990  135.9800 C   0  0  0  0  0  0  0  0  0  0  0  0
  146.6020  153.4720  136.3680 O   0  0  0  0  0  0  0  0  0  0  0  0
  147.7850  156.7330  134.9870 C   0  0  0  0  0  0  0  0  0  0  0  0
  148.0140  158.1370  134.3710 C   0  0  0  0  0  0  0  0  0  0  0  0
  145.4255  160.6718  135.1548 H   0  0  0  0  0  0  0  0  0  0  0  0
  146.3131  161.5790  133.8836 H   0  0  0  0  0  0  0  0  0  0  0  0
  144.5169  161.5580  133.8836 H   0  0  0  0  0  0  0  0  0  0  0  0
  143.3326  159.6837  133.3623 H   0  0  0  0  0  0  0  0  0  0  0  0
  144.0738  158.7927  131.9773 H   0  0  0  0  0  0  0  0  0  0  0  0
  145.0870  155.0250  136.7410 H   0  0  0  0  0  0  0  0  0  0  0  0
  141.1703  154.2167  134.5787 H   0  0  0  0  0  0  0  0  0  0  0  0
  138.8563  155.4415  133.4082 H   0  0  0  0  0  0  0  0  0  0  0  0
  138.0503  157.5637  132.3229 H   0  0  0  0  0  0  0  0  0  0  0  0
  142.0681  159.2350  132.6014 H   0  0  0  0  0  0  0  0  0  0  0  0
  147.0041  157.0147  131.3504 H   0  0  0  0  0  0  0  0  0  0  0  0
  148.6779  157.6972  131.4309 H   0  0  0  0  0  0  0  0  0  0  0  0
  148.2595  155.1186  131.9358 H   0  0  0  0  0  0  0  0  0  0  0  0
  149.4229  156.0700  132.9278 H   0  0  0  0  0  0  0  0  0  0  0  0
  146.4749  155.6281  133.6760 H   0  0  0  0  0  0  0  0  0  0  0  0
  147.1573  153.5011  134.0107 H   0  0  0  0  0  0  0  0  0  0  0  0
  148.9106  153.9866  134.1627 H   0  0  0  0  0  0  0  0  0  0  0  0
  148.6462  153.5096  136.3446 H   0  0  0  0  0  0  0  0  0  0  0  0
  147.8151  155.1110  136.4104 H   0  0  0  0  0  0  0  0  0  0  0  0
  145.8670  153.9840  135.9380 H   0  0  0  0  0  0  0  0  0  0  0  0
  146.9048  156.7794  135.6451 H   0  0  0  0  0  0  0  0  0  0  0  0
  148.6989  156.4646  135.5372 H   0  0  0  0  0  0  0  0  0  0  0  0
  147.5498  158.8956  135.0184 H   0  0  0  0  0  0  0  0  0  0  0  0
  149.0964  158.3157  134.2898 H   0  0  0  0  0  0  0  0  0  0  0  0
  1  2  1  0
  2  3  1  0
  3  4  1  0
  4  5  2  0
  4  6  1  0
  6  7  1  0
  7  8  1  0
  8  9  1  0
  8 10  2  0
  7 11  2  0
 11 12  1  0
 12 13  2  0
 13 14  1  0
 14 15  2  0
 15 16  1  0
 16 17  1  0
 16 18  1  0
 16 19  1  0
 15 20  1  0
 20 21  2  0
  2 22  1  0
 22 23  2  0
 22 24  1  0
 24 25  1  0
 25 26  1  0
 26 27  1  0
 27 28  1  0
 28 29  1  0
 29 30  1  0
 27 31  1  0
 31 32  1  0
 21  6  1  0
 32 24  1  0
 21 12  1  0
  1 33  1  0
  1 34  1  0
  1 35  1  0
  3 36  1  0
  3 37  1  0
  9 38  1  0
 11 39  1  0
 13 40  1  0
 14 41  1  0
 20 42  1  0
 25 43  1  0
 25 44  1  0
 26 45  1  0
 26 46  1  0
 27 47  1  0
 28 48  1  0
 28 49  1  0
 29 50  1  0
 29 51  1  0
 30 52  1  0
 31 53  1  0
 31 54  1  0
 32 55  1  0
 32 56  1  0
M  CHG  1   9  -1
M  END
>  <UniqueID>  (84) 
84

>  <SMILES>  (84) 
CN(CC(=O)n1c(C([NH-])=O)cc2ccc(C(F)(F)F)cc21)C(=O)N1CCC(CCO)CC1

>  <Energy>  (84) 
97.84234369123958

>  <Genealogy>  (84) 
CN(CC(=O)n1c(C([NH-])=O)cc2ccc(C(F)(F)F)cc21)C(=O)N1CCC(CCO)CC1 (protonated)
CN(CC(=O)n1c(C([NH-])=O)cc2ccc(C(F)(F)F)cc21)C(=O)N1CCC(CCO)CC1 (3D coordinates assigned)
CN(CC(=O)n1c(C([NH-])=O)cc2ccc(C(F)(F)F)cc21)C(=O)N1CCC(CCO)CC1 (nonaromatic ring conformer: 97.84234369123958 kcal/mol)

>  <smiles>  (84) 
CN(CC(=O)n1c(C(N)=O)cc2ccc(C(F)(F)F)cc21)C(=O)N1CCC(CCO)CC1

>  <score_type>  (84) 
oracle

>  <origin>  (84) 
adg

>  <m_score__min__energy>  (84) 
-8.3900000000000006

>  <m_primary>  (84) 
energy

$$$$
88:0
     RDKit          3D

 41 42  0  0  0  0  0  0  0  0999 V2000
  141.3340  151.2890  135.0820 N   0  0  0  0  0  0  0  0  0  0  0  0
  141.7370  152.1110  133.9900 C   0  0  0  0  0  0  0  0  0  0  0  0
  142.4060  151.6020  133.0500 O   0  0  0  0  0  0  0  0  0  0  0  0
  141.3520  153.5370  133.9260 C   0  0  0  0  0  0  0  0  0  0  0  0
  140.4410  154.0510  133.0040 C   0  0  0  0  0  0  0  0  0  0  0  0
  140.3270  155.3890  133.3090 C   0  0  0  0  0  0  0  0  0  0  0  0
  139.5630  156.3860  132.7080 C   0  0  0  0  0  0  0  0  0  0  0  0
  139.6650  157.6920  133.2190 C   0  0  0  0  0  0  0  0  0  0  0  0
  140.5370  157.9780  134.2990 C   0  0  0  0  0  0  0  0  0  0  0  0
  140.6180  159.3700  134.8530 C   0  0  0  0  0  0  0  0  0  0  0  0
  141.0630  160.2320  133.8690 F   0  0  0  0  0  0  0  0  0  0  0  0
  141.2870  156.9390  134.8910 C   0  0  0  0  0  0  0  0  0  0  0  0
  141.1500  155.6460  134.3750 C   0  0  0  0  0  0  0  0  0  0  0  0
  141.7820  154.5190  134.7670 N   0  0  0  0  0  0  0  0  0  0  0  0
  142.7710  154.4210  135.8020 C   0  0  0  0  0  0  0  0  0  0  0  0
  143.9050  154.9430  135.6300 O   0  0  0  0  0  0  0  0  0  0  0  0
  142.4610  153.7370  137.0700 C   0  0  0  0  0  0  0  0  0  0  0  0
  141.3500  153.1580  137.2040 O   0  0  0  0  0  0  0  0  0  0  0  0
  143.4070  153.7360  138.1490 N   0  0  0  0  0  0  0  0  0  0  0  0
  143.0700  153.2540  139.4880 C   0  0  0  0  0  0  0  0  0  0  0  0
  142.7730  151.7440  139.4890 C   0  0  0  0  0  0  0  0  0  0  0  0
  141.2780  151.4010  139.3780 C   0  0  0  0  0  0  0  0  0  0  0  0
  140.9820  150.3930  138.2620 C   0  0  0  0  0  0  0  0  0  0  0  0
  140.0100  150.9070  137.3930 O   0  0  0  0  0  0  0  0  0  0  0  0
  141.6180  151.5180  136.0600 H   0  0  0  0  0  0  0  0  0  0  0  0
  139.9230  153.5036  132.2027 H   0  0  0  0  0  0  0  0  0  0  0  0
  138.9003  156.1590  131.8599 H   0  0  0  0  0  0  0  0  0  0  0  0
  139.0625  158.4990  132.7765 H   0  0  0  0  0  0  0  0  0  0  0  0
  139.6218  159.6870  135.1951 H   0  0  0  0  0  0  0  0  0  0  0  0
  141.3193  159.3873  135.7003 H   0  0  0  0  0  0  0  0  0  0  0  0
  141.9616  157.1408  135.7361 H   0  0  0  0  0  0  0  0  0  0  0  0
  144.3710  154.1080  137.9890 H   0  0  0  0  0  0  0  0  0  0  0  0
  143.9166  153.4516  140.1620 H   0  0  0  0  0  0  0  0  0  0  0  0
  142.1665  153.7824  139.8264 H   0  0  0  0  0  0  0  0  0  0  0  0
  143.2969  151.2878  138.6361 H   0  0  0  0  0  0  0  0  0  0  0  0
  143.1186  151.3521  140.4570 H   0  0  0  0  0  0  0  0  0  0  0  0
  140.9431  150.9744  140.3350 H   0  0  0  0  0  0  0  0  0  0  0  0
  140.7417  152.3304  139.1361 H   0  0  0  0  0  0  0  0  0  0  0  0
  141.9051  150.1935  137.6980 H   0  0  0  0  0  0  0  0  0  0  0  0
  140.6074  149.4606  138.7096 H   0  0  0  0  0  0  0  0  0  0  0  0
  140.4950  151.2720  136.6070 H   0  0  0  0  0  0  0  0  0  0  0  0
  1  2  1  0
  2  3  2  0
  2  4  1  0
  4  5  2  0
  5  6  1  0
  6  7  2  0
  7  8  1  0
  8  9  2  0
  9 10  1  0
 10 11  1  0
  9 12  1  0
 12 13  2  0
 13 14  1  0
 14 15  1  0
 15 16  2  0
 15 17  1  0
 17 18  2  0
 17 19  1  0
 19 20  1  0
 20 21  1  0
 21 22  1  0
 22 23  1  0
 23 24  1  0
 14  4  1  0
 13  6  1  0
  1 25  1  0
  5 26  1  0
  7 27  1  0
  8 28  1  0
 10 29  1  0
 10 30  1  0
 12 31  1  0
 19 32  1  0
 20 33  1  0
 20 34  1  0
 21 35  1  0
 21 36  1  0
 22 37  1  0
 22 38  1  0
 23 39  1  0
 23 40  1  0
 24 41  1  0
M  CHG  1   1  -1
M  END
>  <UniqueID>  (85) 
85

>  <SMILES>  (85) 
[NH-]C(=O)c1cc2ccc(CF)cc2n1C(=O)C(=O)NCCCCO

>  <Energy>  (85) 
71.5602140990884

>  <Genealogy>  (85) 
[NH-]C(=O)c1cc2ccc(CF)cc2n1C(=O)C(=O)NCCCCO (protonated)
[NH-]C(=O)c1cc2ccc(CF)cc2n1C(=O)C(=O)NCCCCO (3D coordinates assigned)
[NH-]C(=O)c1cc2ccc(CF)cc2n1C(=O)C(=O)NCCCCO (optimized conformer: 71.5602140990884 kcal/mol)

>  <smiles>  (85) 
NC(=O)c1cc2ccc(CF)cc2n1C(=O)C(=O)NCCCCO

>  <score_type>  (85) 
oracle

>  <origin>  (85) 
adg

>  <m_score__min__energy>  (85) 
-6.25

>  <m_primary>  (85) 
energy

$$$$
89:0
     RDKit          3D

 41 42  0  0  0  0  0  0  0  0999 V2000
  146.8620  154.6760  135.0730 C   0  0  0  0  0  0  0  0  0  0  0  0
  147.1170  155.3830  133.8200 N   0  0  0  0  0  0  0  0  0  0  0  0
  148.1690  156.3620  133.7910 C   0  0  0  0  0  0  0  0  0  0  0  0
  148.1000  157.4110  134.4860 O   0  0  0  0  0  0  0  0  0  0  0  0
  146.3220  155.0940  132.6170 C   0  0  0  0  0  0  0  0  0  0  0  0
  144.8150  155.1730  132.9120 C   0  0  0  0  0  0  0  0  0  0  0  0
  144.3800  156.5880  133.2100 C   0  0  0  0  0  0  0  0  0  0  0  0
  143.0410  156.8520  133.5980 C   0  0  0  0  0  0  0  0  0  0  0  0
  142.6430  158.1510  133.9610 C   0  0  0  0  0  0  0  0  0  0  0  0
  143.5940  159.1660  133.9140 C   0  0  0  0  0  0  0  0  0  0  0  0
  143.4880  160.5050  134.2210 C   0  0  0  0  0  0  0  0  0  0  0  0
  144.7530  161.0430  133.9810 C   0  0  0  0  0  0  0  0  0  0  0  0
  145.0670  162.4820  134.1070 C   0  0  0  0  0  0  0  0  0  0  0  0
  146.2340  162.9240  134.8000 N   0  0  0  0  0  0  0  0  0  0  0  0
  144.3000  163.3360  133.5860 O   0  0  0  0  0  0  0  0  0  0  0  0
  145.6010  160.0710  133.5480 N   0  0  0  0  0  0  0  0  0  0  0  0
  146.9810  160.1970  133.1690 C   0  0  0  0  0  0  0  0  0  0  0  0
  147.8530  160.4630  134.0500 O   0  0  0  0  0  0  0  0  0  0  0  0
  147.3850  160.0850  131.7280 C   0  0  0  0  0  0  0  0  0  0  0  0
  148.8590  159.8540  131.6220 C   0  0  0  0  0  0  0  0  0  0  0  0
  149.5610  159.1470  132.6430 N   0  0  0  0  0  0  0  0  0  0  0  0
  149.4780  160.2490  130.5970 O   0  0  0  0  0  0  0  0  0  0  0  0
  144.8820  158.9310  133.5140 C   0  0  0  0  0  0  0  0  0  0  0  0
  145.3160  157.6460  133.1620 C   0  0  0  0  0  0  0  0  0  0  0  0
  147.0998  155.3352  135.9209 H   0  0  0  0  0  0  0  0  0  0  0  0
  145.8023  154.3850  135.1207 H   0  0  0  0  0  0  0  0  0  0  0  0
  147.4920  153.7755  135.1207 H   0  0  0  0  0  0  0  0  0  0  0  0
  149.0483  156.1929  133.1520 H   0  0  0  0  0  0  0  0  0  0  0  0
  146.5734  155.8272  131.8365 H   0  0  0  0  0  0  0  0  0  0  0  0
  146.5575  154.0731  132.2817 H   0  0  0  0  0  0  0  0  0  0  0  0
  144.2601  154.8060  132.0360 H   0  0  0  0  0  0  0  0  0  0  0  0
  144.6050  154.5550  133.7974 H   0  0  0  0  0  0  0  0  0  0  0  0
  142.3072  156.0327  133.6150 H   0  0  0  0  0  0  0  0  0  0  0  0
  141.6090  158.3590  134.2733 H   0  0  0  0  0  0  0  0  0  0  0  0
  142.5948  161.0375  134.5796 H   0  0  0  0  0  0  0  0  0  0  0  0
  147.0940  162.3360  134.8290 H   0  0  0  0  0  0  0  0  0  0  0  0
  146.8508  159.2422  131.2652 H   0  0  0  0  0  0  0  0  0  0  0  0
  147.1299  161.0210  131.2096 H   0  0  0  0  0  0  0  0  0  0  0  0
  150.5920  158.9860  132.5530 H   0  0  0  0  0  0  0  0  0  0  0  0
  149.0470  158.7460  133.4600 H   0  0  0  0  0  0  0  0  0  0  0  0
  146.3572  157.4655  132.8565 H   0  0  0  0  0  0  0  0  0  0  0  0
  1  2  1  0
  2  3  1  0
  3  4  2  0
  2  5  1  0
  5  6  1  0
  6  7  1  0
  7  8  2  0
  8  9  1  0
  9 10  2  0
 10 11  1  0
 11 12  2  0
 12 13  1  0
 13 14  1  0
 13 15  2  0
 12 16  1  0
 16 17  1  0
 17 18  2  0
 17 19  1  0
 19 20  1  0
 20 21  1  0
 20 22  2  0
 16 23  1  0
 23 24  2  0
 24  7  1  0
 23 10  1  0
  1 25  1  0
  1 26  1  0
  1 27  1  0
  3 28  1  0
  5 29  1  0
  5 30  1  0
  6 31  1  0
  6 32  1  0
  8 33  1  0
  9 34  1  0
 11 35  1  0
 14 36  1  0
 19 37  1  0
 19 38  1  0
 21 39  1  0
 21 40  1  0
 24 41  1  0
M  CHG  1  14  -1
M  END
>  <UniqueID>  (86) 
86

>  <SMILES>  (86) 
CN(C=O)CCc1ccc2cc(C([NH-])=O)n(C(=O)CC(N)=O)c2c1

>  <Energy>  (86) 
69.66290805844741

>  <Genealogy>  (86) 
CN(C=O)CCc1ccc2cc(C([NH-])=O)n(C(=O)CC(N)=O)c2c1 (protonated)
CN(C=O)CCc1ccc2cc(C([NH-])=O)n(C(=O)CC(N)=O)c2c1 (3D coordinates assigned)
CN(C=O)CCc1ccc2cc(C([NH-])=O)n(C(=O)CC(N)=O)c2c1 (optimized conformer: 69.66290805844741 kcal/mol)

>  <smiles>  (86) 
CN(C=O)CCc1ccc2cc(C(N)=O)n(C(=O)CC(N)=O)c2c1

>  <score_type>  (86) 
oracle

>  <origin>  (86) 
adg

>  <m_score__min__energy>  (86) 
-7.2199999999999998

>  <m_primary>  (86) 
energy

$$$$
90:0
     RDKit          3D

 48 49  0  0  0  0  0  0  0  0999 V2000
  142.4280  149.8140  132.2120 C   0  0  0  0  0  0  0  0  0  0  0  0
  141.2100  150.6350  132.1280 N   0  0  0  0  0  0  0  0  0  0  0  0
  140.0150  149.9460  131.5880 C   0  0  0  0  0  0  0  0  0  0  0  0
  140.3030  148.5630  130.9780 C   0  0  0  0  0  0  0  0  0  0  0  0
  139.0990  148.0400  130.2590 C   0  0  0  0  0  0  0  0  0  0  0  0
  138.1750  148.8230  129.9170 O   0  0  0  0  0  0  0  0  0  0  0  0
  139.0050  146.6900  129.9490 O   0  0  0  0  0  0  0  0  0  0  0  0
  140.9780  151.5210  133.2890 C   0  0  0  0  0  0  0  0  0  0  0  0
  141.2190  152.9780  133.0090 C   0  0  0  0  0  0  0  0  0  0  0  0
  140.2720  153.7110  132.6120 O   0  0  0  0  0  0  0  0  0  0  0  0
  142.4830  153.5250  133.2590 O   0  0  0  0  0  0  0  0  0  0  0  0
  143.4590  153.7250  132.2380 C   0  0  0  0  0  0  0  0  0  0  0  0
  143.9120  155.0750  132.2500 O   0  0  0  0  0  0  0  0  0  0  0  0
  143.9900  155.8360  133.4210 C   0  0  0  0  0  0  0  0  0  0  0  0
  144.2260  155.2690  134.5230 O   0  0  0  0  0  0  0  0  0  0  0  0
  143.8320  157.2650  133.3690 N   0  0  0  0  0  0  0  0  0  0  0  0
  142.6730  157.9700  133.5100 C   0  0  0  0  0  0  0  0  0  0  0  0
  141.3110  157.4020  133.5180 C   0  0  0  0  0  0  0  0  0  0  0  0
  141.0620  156.0730  133.0600 N   0  0  0  0  0  0  0  0  0  0  0  0
  140.3420  158.1220  133.8790 O   0  0  0  0  0  0  0  0  0  0  0  0
  142.9310  159.3340  133.5990 C   0  0  0  0  0  0  0  0  0  0  0  0
  144.2960  159.4530  133.4940 C   0  0  0  0  0  0  0  0  0  0  0  0
  145.0950  160.5900  133.5310 C   0  0  0  0  0  0  0  0  0  0  0  0
  146.4860  160.4210  133.4330 C   0  0  0  0  0  0  0  0  0  0  0  0
  147.0540  159.1260  133.3250 C   0  0  0  0  0  0  0  0  0  0  0  0
  148.5450  158.9670  133.1770 C   0  0  0  0  0  0  0  0  0  0  0  0
  149.1360  159.0360  134.4240 F   0  0  0  0  0  0  0  0  0  0  0  0
  149.0700  159.9650  132.3740 F   0  0  0  0  0  0  0  0  0  0  0  0
  148.8480  157.7440  132.6000 F   0  0  0  0  0  0  0  0  0  0  0  0
  146.2060  157.9970  133.2670 C   0  0  0  0  0  0  0  0  0  0  0  0
  144.8200  158.1920  133.3540 C   0  0  0  0  0  0  0  0  0  0  0  0
  142.6824  149.6425  133.2683 H   0  0  0  0  0  0  0  0  0  0  0  0
  142.2541  148.8481  131.7152 H   0  0  0  0  0  0  0  0  0  0  0  0
  143.2581  150.3376  131.7152 H   0  0  0  0  0  0  0  0  0  0  0  0
  139.2920  149.8175  132.4070 H   0  0  0  0  0  0  0  0  0  0  0  0
  139.6299  150.5759  130.7726 H   0  0  0  0  0  0  0  0  0  0  0  0
  141.1386  148.6487  130.2678 H   0  0  0  0  0  0  0  0  0  0  0  0
  140.5608  147.8659  131.7889 H   0  0  0  0  0  0  0  0  0  0  0  0
  139.9336  151.3998  133.6123 H   0  0  0  0  0  0  0  0  0  0  0  0
  141.7006  151.2238  134.0633 H   0  0  0  0  0  0  0  0  0  0  0  0
  144.3123  153.0536  132.4142 H   0  0  0  0  0  0  0  0  0  0  0  0
  143.0058  153.5066  131.2598 H   0  0  0  0  0  0  0  0  0  0  0  0
  141.8180  155.5090  132.6090 H   0  0  0  0  0  0  0  0  0  0  0  0
  140.0980  155.6740  133.1020 H   0  0  0  0  0  0  0  0  0  0  0  0
  142.1984  160.1447  133.7263 H   0  0  0  0  0  0  0  0  0  0  0  0
  144.6515  161.5914  133.6339 H   0  0  0  0  0  0  0  0  0  0  0  0
  147.1425  161.3036  133.4401 H   0  0  0  0  0  0  0  0  0  0  0  0
  146.6246  156.9858  133.1559 H   0  0  0  0  0  0  0  0  0  0  0  0
  1  2  1  0
  2  3  1  0
  3  4  1  0
  4  5  1  0
  5  6  2  0
  5  7  1  0
  2  8  1  0
  8  9  1  0
  9 10  2  0
  9 11  1  0
 11 12  1  0
 12 13  1  0
 13 14  1  0
 14 15  2  0
 14 16  1  0
 16 17  1  0
 17 18  1  0
 18 19  1  0
 18 20  2  0
 17 21  2  0
 21 22  1  0
 22 23  2  0
 23 24  1  0
 24 25  2  0
 25 26  1  0
 26 27  1  0
 26 28  1  0
 26 29  1  0
 25 30  1  0
 30 31  2  0
 31 16  1  0
 31 22  1  0
  1 32  1  0
  1 33  1  0
  1 34  1  0
  3 35  1  0
  3 36  1  0
  4 37  1  0
  4 38  1  0
  8 39  1  0
  8 40  1  0
 12 41  1  0
 12 42  1  0
 19 43  1  0
 19 44  1  0
 21 45  1  0
 23 46  1  0
 24 47  1  0
 30 48  1  0
M  CHG  1   7  -1
M  END
>  <UniqueID>  (87) 
87

>  <SMILES>  (87) 
CN(CCC(=O)[O-])CC(=O)OCOC(=O)n1c(C(N)=O)cc2ccc(C(F)(F)F)cc21

>  <Energy>  (87) 
84.99229623046028

>  <Genealogy>  (87) 
CN(CCC(=O)[O-])CC(=O)OCOC(=O)n1c(C(N)=O)cc2ccc(C(F)(F)F)cc21 (protonated)
CN(CCC(=O)[O-])CC(=O)OCOC(=O)n1c(C(N)=O)cc2ccc(C(F)(F)F)cc21 (3D coordinates assigned)
CN(CCC(=O)[O-])CC(=O)OCOC(=O)n1c(C(N)=O)cc2ccc(C(F)(F)F)cc21 (optimized conformer: 84.99229623046028 kcal/mol)

>  <smiles>  (87) 
CN(CCC(=O)O)CC(=O)OCOC(=O)n1c(C(N)=O)cc2ccc(C(F)(F)F)cc21

>  <score_type>  (87) 
oracle

>  <origin>  (87) 
adg

>  <m_score__min__energy>  (87) 
-6.6900000000000004

>  <m_primary>  (87) 
energy

$$$$
91:0
     RDKit          3D

 45 47  0  0  0  0  0  0  0  0999 V2000
  140.1240  158.0540  136.2160 C   0  0  0  0  0  0  0  0  0  0  0  0
  139.1220  157.5430  135.2860 N   0  0  0  0  0  0  0  0  0  0  0  0
  139.6920  157.7140  133.6540 S   0  0  0  0  0  0  0  0  0  0  0  0
  139.9870  156.3590  133.0720 O   0  0  0  0  0  0  0  0  0  0  0  0
  138.6200  158.3630  132.8250 O   0  0  0  0  0  0  0  0  0  0  0  0
  141.1390  158.7190  133.6130 C   0  0  0  0  0  0  0  0  0  0  0  0
  141.0290  160.1060  133.7600 C   0  0  0  0  0  0  0  0  0  0  0  0
  142.1740  160.9060  133.7470 C   0  0  0  0  0  0  0  0  0  0  0  0
  143.4350  160.3250  133.5900 C   0  0  0  0  0  0  0  0  0  0  0  0
  143.5650  158.9310  133.4480 C   0  0  0  0  0  0  0  0  0  0  0  0
  144.9040  158.3120  133.2850 C   0  0  0  0  0  0  0  0  0  0  0  0
  146.0480  159.1240  133.0650 C   0  0  0  0  0  0  0  0  0  0  0  0
  147.3230  158.5480  132.9240 C   0  0  0  0  0  0  0  0  0  0  0  0
  147.4240  157.1630  132.9960 C   0  0  0  0  0  0  0  0  0  0  0  0
  148.5330  156.3510  132.9150 C   0  0  0  0  0  0  0  0  0  0  0  0
  148.0510  155.0520  133.0660 C   0  0  0  0  0  0  0  0  0  0  0  0
  148.9120  153.8490  133.0100 C   0  0  0  0  0  0  0  0  0  0  0  0
  148.5670  152.6610  133.7200 N   0  0  0  0  0  0  0  0  0  0  0  0
  149.9590  153.8640  132.3110 O   0  0  0  0  0  0  0  0  0  0  0  0
  146.6980  155.0630  133.2280 N   0  0  0  0  0  0  0  0  0  0  0  0
  145.8340  153.9340  133.4370 C   0  0  0  0  0  0  0  0  0  0  0  0
  145.7680  153.4100  134.5820 O   0  0  0  0  0  0  0  0  0  0  0  0
  144.9770  153.3840  132.3280 C   0  0  0  0  0  0  0  0  0  0  0  0
  145.0050  151.8550  132.2590 C   0  0  0  0  0  0  0  0  0  0  0  0
  146.3020  151.3870  132.5060 O   0  0  0  0  0  0  0  0  0  0  0  0
  146.3310  156.3620  133.1900 C   0  0  0  0  0  0  0  0  0  0  0  0
  145.0530  156.9060  133.3550 C   0  0  0  0  0  0  0  0  0  0  0  0
  142.4050  158.1340  133.4620 C   0  0  0  0  0  0  0  0  0  0  0  0
  139.7870  157.8821  137.2489 H   0  0  0  0  0  0  0  0  0  0  0  0
  141.0781  157.5324  136.0500 H   0  0  0  0  0  0  0  0  0  0  0  0
  140.2621  159.1326  136.0500 H   0  0  0  0  0  0  0  0  0  0  0  0
  140.0385  160.5676  133.8861 H   0  0  0  0  0  0  0  0  0  0  0  0
  142.0827  161.9963  133.8607 H   0  0  0  0  0  0  0  0  0  0  0  0
  144.3321  160.9615  133.5773 H   0  0  0  0  0  0  0  0  0  0  0  0
  145.9354  160.2165  133.0042 H   0  0  0  0  0  0  0  0  0  0  0  0
  148.2130  159.1737  132.7617 H   0  0  0  0  0  0  0  0  0  0  0  0
  149.5773  156.6615  132.7633 H   0  0  0  0  0  0  0  0  0  0  0  0
  147.5700  152.4190  133.9080 H   0  0  0  0  0  0  0  0  0  0  0  0
  143.9391  153.7094  132.4916 H   0  0  0  0  0  0  0  0  0  0  0  0
  145.3795  153.7657  131.3781 H   0  0  0  0  0  0  0  0  0  0  0  0
  144.3195  151.4438  133.0147 H   0  0  0  0  0  0  0  0  0  0  0  0
  144.6907  151.5335  131.2551 H   0  0  0  0  0  0  0  0  0  0  0  0
  146.5890  151.8070  133.3580 H   0  0  0  0  0  0  0  0  0  0  0  0
  144.1838  156.2563  133.5350 H   0  0  0  0  0  0  0  0  0  0  0  0
  142.4919  157.0428  133.3536 H   0  0  0  0  0  0  0  0  0  0  0  0
  1  2  1  0
  2  3  1  0
  3  4  2  0
  3  5  2  0
  3  6  1  0
  6  7  2  0
  7  8  1  0
  8  9  2  0
  9 10  1  0
 10 11  1  0
 11 12  2  0
 12 13  1  0
 13 14  2  0
 14 15  1  0
 15 16  2  0
 16 17  1  0
 17 18  1  0
 17 19  2  0
 16 20  1  0
 20 21  1  0
 21 22  2  0
 21 23  1  0
 23 24  1  0
 24 25  1  0
 20 26  1  0
 26 27  2  0
 10 28  2  0
 28  6  1  0
 27 11  1  0
 26 14  1  0
  1 29  1  0
  1 30  1  0
  1 31  1  0
  7 32  1  0
  8 33  1  0
  9 34  1  0
 12 35  1  0
 13 36  1  0
 15 37  1  0
 18 38  1  0
 23 39  1  0
 23 40  1  0
 24 41  1  0
 24 42  1  0
 25 43  1  0
 27 44  1  0
 28 45  1  0
M  CHG  2   2  -1  18  -1
M  END
>  <UniqueID>  (88) 
88

>  <SMILES>  (88) 
C[N-]S(=O)(=O)c1cccc(-c2ccc3cc(C([NH-])=O)n(C(=O)CCO)c3c2)c1

>  <Energy>  (88) 
87.21321645299257

>  <Genealogy>  (88) 
C[N-]S(=O)(=O)c1cccc(-c2ccc3cc(C([NH-])=O)n(C(=O)CCO)c3c2)c1 (protonated)
C[N-]S(=O)(=O)c1cccc(-c2ccc3cc(C([NH-])=O)n(C(=O)CCO)c3c2)c1 (3D coordinates assigned)
C[N-]S(=O)(=O)c1cccc(-c2ccc3cc(C([NH-])=O)n(C(=O)CCO)c3c2)c1 (optimized conformer: 87.21321645299257 kcal/mol)

>  <smiles>  (88) 
CNS(=O)(=O)c1cccc(-c2ccc3cc(C(N)=O)n(C(=O)CCO)c3c2)c1

>  <score_type>  (88) 
oracle

>  <origin>  (88) 
adg

>  <m_score__min__energy>  (88) 
-8.25

>  <m_primary>  (88) 
energy

$$$$
92:0
     RDKit          3D

 43 44  0  0  0  0  0  0  0  0999 V2000
  140.5900  159.3460  136.3700 C   0  0  0  0  0  0  0  0  0  0  0  0
  140.9940  158.1180  135.6610 N   0  0  0  0  0  0  0  0  0  0  0  0
  141.2240  157.0380  136.6400 C   0  0  0  0  0  0  0  0  0  0  0  0
  139.9540  157.7500  134.6690 C   0  0  0  0  0  0  0  0  0  0  0  0
  140.5330  157.3110  133.3150 C   0  0  0  0  0  0  0  0  0  0  0  0
  141.6720  158.0890  133.0020 O   0  0  0  0  0  0  0  0  0  0  0  0
  142.8030  157.2590  132.8250 C   0  0  0  0  0  0  0  0  0  0  0  0
  143.8150  157.5380  133.8950 C   0  0  0  0  0  0  0  0  0  0  0  0
  143.6150  157.1140  135.0650 O   0  0  0  0  0  0  0  0  0  0  0  0
  144.9750  158.3340  133.6140 N   0  0  0  0  0  0  0  0  0  0  0  0
  145.0920  159.6890  133.6730 C   0  0  0  0  0  0  0  0  0  0  0  0
  144.0000  160.6460  133.9630 C   0  0  0  0  0  0  0  0  0  0  0  0
  142.7460  160.2000  134.4730 N   0  0  0  0  0  0  0  0  0  0  0  0
  144.1700  161.8730  133.7350 O   0  0  0  0  0  0  0  0  0  0  0  0
  146.3960  160.0780  133.3670 C   0  0  0  0  0  0  0  0  0  0  0  0
  147.0770  158.9070  133.1180 C   0  0  0  0  0  0  0  0  0  0  0  0
  148.4110  158.7000  132.7810 C   0  0  0  0  0  0  0  0  0  0  0  0
  148.8500  157.3750  132.6120 C   0  0  0  0  0  0  0  0  0  0  0  0
  147.9540  156.2910  132.7890 C   0  0  0  0  0  0  0  0  0  0  0  0
  148.4300  154.8760  132.6220 C   0  0  0  0  0  0  0  0  0  0  0  0
  148.2550  154.1820  133.8060 F   0  0  0  0  0  0  0  0  0  0  0  0
  149.7720  154.8720  132.2860 F   0  0  0  0  0  0  0  0  0  0  0  0
  146.6080  156.5410  133.1340 C   0  0  0  0  0  0  0  0  0  0  0  0
  146.1970  157.8700  133.2770 C   0  0  0  0  0  0  0  0  0  0  0  0
  140.6454  159.1776  137.4556 H   0  0  0  0  0  0  0  0  0  0  0  0
  141.2648  160.1689  136.0917 H   0  0  0  0  0  0  0  0  0  0  0  0
  139.5584  159.6076  136.0917 H   0  0  0  0  0  0  0  0  0  0  0  0
  141.8960  158.3220  135.1700 H   0  0  0  0  0  0  0  0  0  0  0  0
  141.1378  157.4426  137.6593 H   0  0  0  0  0  0  0  0  0  0  0  0
  140.4744  156.2461  136.4952 H   0  0  0  0  0  0  0  0  0  0  0  0
  142.2312  156.6203  136.4952 H   0  0  0  0  0  0  0  0  0  0  0  0
  139.3582  156.9212  135.0791 H   0  0  0  0  0  0  0  0  0  0  0  0
  139.3453  158.6480  134.4871 H   0  0  0  0  0  0  0  0  0  0  0  0
  140.8194  156.2503  133.3678 H   0  0  0  0  0  0  0  0  0  0  0  0
  139.7722  157.4530  132.5333 H   0  0  0  0  0  0  0  0  0  0  0  0
  142.4939  156.2048  132.8817 H   0  0  0  0  0  0  0  0  0  0  0  0
  143.2511  157.4636  131.8415 H   0  0  0  0  0  0  0  0  0  0  0  0
  142.5670  159.1860  134.6460 H   0  0  0  0  0  0  0  0  0  0  0  0
  146.7956  161.1023  133.3320 H   0  0  0  0  0  0  0  0  0  0  0  0
  149.1009  159.5468  132.6508 H   0  0  0  0  0  0  0  0  0  0  0  0
  149.8975  157.1780  132.3402 H   0  0  0  0  0  0  0  0  0  0  0  0
  147.8486  154.3932  131.8227 H   0  0  0  0  0  0  0  0  0  0  0  0
  145.9011  155.7121  133.2863 H   0  0  0  0  0  0  0  0  0  0  0  0
  1  2  1  0
  2  3  1  0
  2  4  1  0
  4  5  1  0
  5  6  1  0
  6  7  1  0
  7  8  1  0
  8  9  2  0
  8 10  1  0
 10 11  1  0
 11 12  1  0
 12 13  1  0
 12 14  2  0
 11 15  2  0
 15 16  1  0
 16 17  2  0
 17 18  1  0
 18 19  2  0
 19 20  1  0
 20 21  1  0
 20 22  1  0
 19 23  1  0
 23 24  2  0
 24 10  1  0
 24 16  1  0
  1 25  1  0
  1 26  1  0
  1 27  1  0
  2 28  1  0
  3 29  1  0
  3 30  1  0
  3 31  1  0
  4 32  1  0
  4 33  1  0
  5 34  1  0
  5 35  1  0
  7 36  1  0
  7 37  1  0
 13 38  1  0
 15 39  1  0
 17 40  1  0
 18 41  1  0
 20 42  1  0
 23 43  1  0
M  CHG  2   2   1  13  -1
M  END
>  <UniqueID>  (89) 
89

>  <SMILES>  (89) 
C[NH+](C)CCOCC(=O)n1c(C([NH-])=O)cc2ccc(C(F)F)cc21

>  <Energy>  (89) 
82.18618925164378

>  <Genealogy>  (89) 
C[NH+](C)CCOCC(=O)n1c(C([NH-])=O)cc2ccc(C(F)F)cc21 (protonated)
C[NH+](C)CCOCC(=O)n1c(C([NH-])=O)cc2ccc(C(F)F)cc21 (3D coordinates assigned)
C[NH+](C)CCOCC(=O)n1c(C([NH-])=O)cc2ccc(C(F)F)cc21 (optimized conformer: 82.18618925164378 kcal/mol)

>  <smiles>  (89) 
CN(C)CCOCC(=O)n1c(C(N)=O)cc2ccc(C(F)F)cc21

>  <score_type>  (89) 
oracle

>  <origin>  (89) 
adg

>  <m_score__min__energy>  (89) 
-4.5

>  <m_primary>  (89) 
energy

$$$$
93:0
     RDKit          3D

 48 50  0  0  0  0  0  0  0  0999 V2000
  139.1030  146.3810  129.3480 C   0  0  0  0  0  0  0  0  0  0  0  0
  139.3800  147.0430  130.5760 O   0  0  0  0  0  0  0  0  0  0  0  0
  139.0800  148.3920  130.7910 C   0  0  0  0  0  0  0  0  0  0  0  0
  137.9740  148.8620  130.4050 O   0  0  0  0  0  0  0  0  0  0  0  0
  140.0610  149.2660  131.4710 C   0  0  0  0  0  0  0  0  0  0  0  0
  141.4010  148.8620  131.6210 C   0  0  0  0  0  0  0  0  0  0  0  0
  142.3240  149.6900  132.2640 C   0  0  0  0  0  0  0  0  0  0  0  0
  141.9240  150.9350  132.7800 C   0  0  0  0  0  0  0  0  0  0  0  0
  142.8620  151.8190  133.4170 N   0  0  0  0  0  0  0  0  0  0  0  0
  144.2160  152.0080  132.9800 C   0  0  0  0  0  0  0  0  0  0  0  0
  144.7810  151.1370  132.2660 O   0  0  0  0  0  0  0  0  0  0  0  0
  144.9370  153.1840  133.3760 N   0  0  0  0  0  0  0  0  0  0  0  0
  144.4710  154.2620  134.0700 C   0  0  0  0  0  0  0  0  0  0  0  0
  143.0640  154.5030  134.4500 C   0  0  0  0  0  0  0  0  0  0  0  0
  142.5150  153.8450  135.5900 N   0  0  0  0  0  0  0  0  0  0  0  0
  142.3480  155.3070  133.7970 O   0  0  0  0  0  0  0  0  0  0  0  0
  145.5050  155.1620  134.3220 C   0  0  0  0  0  0  0  0  0  0  0  0
  146.6260  154.6000  133.7550 C   0  0  0  0  0  0  0  0  0  0  0  0
  147.9390  155.0590  133.7190 C   0  0  0  0  0  0  0  0  0  0  0  0
  148.9010  154.2510  133.0920 C   0  0  0  0  0  0  0  0  0  0  0  0
  148.5470  153.0020  132.5210 C   0  0  0  0  0  0  0  0  0  0  0  0
  149.5720  152.2050  131.8950 N   0  0  0  0  0  0  0  0  0  0  0  0
  149.6880  150.7500  132.0150 C   0  0  0  0  0  0  0  0  0  0  0  0
  150.3270  150.1450  130.7630 C   0  0  0  0  0  0  0  0  0  0  0  0
  150.4460  151.1110  129.7540 O   0  0  0  0  0  0  0  0  0  0  0  0
  147.1970  152.5740  132.5750 C   0  0  0  0  0  0  0  0  0  0  0  0
  146.2580  153.4070  133.1920 C   0  0  0  0  0  0  0  0  0  0  0  0
  140.5960  151.3480  132.6100 C   0  0  0  0  0  0  0  0  0  0  0  0
  139.6710  150.5200  131.9700 C   0  0  0  0  0  0  0  0  0  0  0  0
  138.6860  145.3843  129.5547 H   0  0  0  0  0  0  0  0  0  0  0  0
  138.3759  146.9700  128.7698 H   0  0  0  0  0  0  0  0  0  0  0  0
  140.0329  146.2766  128.7698 H   0  0  0  0  0  0  0  0  0  0  0  0
  141.7239  147.8864  131.2287 H   0  0  0  0  0  0  0  0  0  0  0  0
  143.3701  149.3660  132.3673 H   0  0  0  0  0  0  0  0  0  0  0  0
  142.5570  152.3320  134.2750 H   0  0  0  0  0  0  0  0  0  0  0  0
  142.3970  152.8080  135.6050 H   0  0  0  0  0  0  0  0  0  0  0  0
  145.4390  156.1191  134.8602 H   0  0  0  0  0  0  0  0  0  0  0  0
  148.2147  156.0247  134.1677 H   0  0  0  0  0  0  0  0  0  0  0  0
  149.9456  154.5921  133.0429 H   0  0  0  0  0  0  0  0  0  0  0  0
  150.2760  152.6880  131.2920 H   0  0  0  0  0  0  0  0  0  0  0  0
  150.3115  150.5098  132.8888 H   0  0  0  0  0  0  0  0  0  0  0  0
  148.6795  150.3269  132.1328 H   0  0  0  0  0  0  0  0  0  0  0  0
  151.3265  149.7618  131.0164 H   0  0  0  0  0  0  0  0  0  0  0  0
  149.6875  149.3278  130.3980 H   0  0  0  0  0  0  0  0  0  0  0  0
  151.2300  150.8520  129.2030 H   0  0  0  0  0  0  0  0  0  0  0  0
  146.8947  151.6092  132.1417 H   0  0  0  0  0  0  0  0  0  0  0  0
  140.2791  152.3328  132.9838 H   0  0  0  0  0  0  0  0  0  0  0  0
  138.6287  150.8525  131.8558 H   0  0  0  0  0  0  0  0  0  0  0  0
  1  2  1  0
  2  3  1  0
  3  4  2  0
  3  5  1  0
  5  6  2  0
  6  7  1  0
  7  8  2  0
  8  9  1  0
  9 10  1  0
 10 11  2  0
 10 12  1  0
 12 13  1  0
 13 14  1  0
 14 15  1  0
 14 16  2  0
 13 17  2  0
 17 18  1  0
 18 19  2  0
 19 20  1  0
 20 21  2  0
 21 22  1  0
 22 23  1  0
 23 24  1  0
 24 25  1  0
 21 26  1  0
 26 27  2  0
  8 28  1  0
 28 29  2  0
 29  5  1  0
 27 12  1  0
 27 18  1  0
  1 30  1  0
  1 31  1  0
  1 32  1  0
  6 33  1  0
  7 34  1  0
  9 35  1  0
 15 36  1  0
 17 37  1  0
 19 38  1  0
 20 39  1  0
 22 40  1  0
 23 41  1  0
 23 42  1  0
 24 43  1  0
 24 44  1  0
 25 45  1  0
 26 46  1  0
 28 47  1  0
 29 48  1  0
M  CHG  1  15  -1
M  END
>  <UniqueID>  (90) 
90

>  <SMILES>  (90) 
COC(=O)c1ccc(NC(=O)n2c(C([NH-])=O)cc3ccc(NCCO)cc32)cc1

>  <Energy>  (90) 
87.90672114231111

>  <Genealogy>  (90) 
COC(=O)c1ccc(NC(=O)n2c(C([NH-])=O)cc3ccc(NCCO)cc32)cc1 (protonated)
COC(=O)c1ccc(NC(=O)n2c(C([NH-])=O)cc3ccc(NCCO)cc32)cc1 (3D coordinates assigned)
COC(=O)c1ccc(NC(=O)n2c(C([NH-])=O)cc3ccc(NCCO)cc32)cc1 (optimized conformer: 87.90672114231111 kcal/mol)

>  <smiles>  (90) 
COC(=O)c1ccc(NC(=O)n2c(C(N)=O)cc3ccc(NCCO)cc32)cc1

>  <score_type>  (90) 
oracle

>  <origin>  (90) 
adg

>  <m_score__min__energy>  (90) 
-8.5999999999999996

>  <m_primary>  (90) 
energy

$$$$
94:0
     RDKit          3D

 41 43  0  0  0  0  0  0  0  0999 V2000
  148.5810  156.9430  133.6800 N   0  0  0  0  0  0  0  0  0  0  0  0
  148.1770  158.3120  133.6340 C   0  0  0  0  0  0  0  0  0  0  0  0
  149.0520  159.2170  133.6860 O   0  0  0  0  0  0  0  0  0  0  0  0
  146.7490  158.6850  133.5900 C   0  0  0  0  0  0  0  0  0  0  0  0
  146.2940  159.9960  133.7040 C   0  0  0  0  0  0  0  0  0  0  0  0
  144.9220  159.9060  133.6850 C   0  0  0  0  0  0  0  0  0  0  0  0
  143.9610  160.9080  133.7530 C   0  0  0  0  0  0  0  0  0  0  0  0
  142.6100  160.5340  133.6730 C   0  0  0  0  0  0  0  0  0  0  0  0
  142.2350  159.1720  133.5130 C   0  0  0  0  0  0  0  0  0  0  0  0
  140.8400  158.7990  133.4180 N   0  0  0  0  0  0  0  0  0  0  0  0
  140.0440  158.9320  132.2070 C   0  0  0  0  0  0  0  0  0  0  0  0
  138.6150  158.5970  132.6080 C   0  0  0  0  0  0  0  0  0  0  0  0
  138.7200  157.8570  133.9350 C   0  0  0  0  0  0  0  0  0  0  0  0
  140.0670  158.2520  134.5230 C   0  0  0  0  0  0  0  0  0  0  0  0
  143.2500  158.1840  133.4450 C   0  0  0  0  0  0  0  0  0  0  0  0
  144.5880  158.5840  133.5520 C   0  0  0  0  0  0  0  0  0  0  0  0
  145.7010  157.8200  133.4890 N   0  0  0  0  0  0  0  0  0  0  0  0
  145.7590  156.4050  133.2450 C   0  0  0  0  0  0  0  0  0  0  0  0
  146.4070  155.9630  132.2560 O   0  0  0  0  0  0  0  0  0  0  0  0
  145.0880  155.5230  134.1000 O   0  0  0  0  0  0  0  0  0  0  0  0
  145.5600  154.2160  134.4150 C   0  0  0  0  0  0  0  0  0  0  0  0
  147.2000  154.3030  135.1990 P   0  0  0  0  0  0  0  0  0  0  0  0
  147.3710  155.6540  135.8520 O   0  0  0  0  0  0  0  0  0  0  0  0
  147.3500  153.0950  136.3720 O   0  0  0  0  0  0  0  0  0  0  0  0
  148.3970  154.0950  134.0230 O   0  0  0  0  0  0  0  0  0  0  0  0
  147.8820  156.1800  133.8180 H   0  0  0  0  0  0  0  0  0  0  0  0
  149.5950  156.6960  133.6650 H   0  0  0  0  0  0  0  0  0  0  0  0
  146.9021  160.9086  133.7907 H   0  0  0  0  0  0  0  0  0  0  0  0
  144.2505  161.9632  133.8662 H   0  0  0  0  0  0  0  0  0  0  0  0
  141.8296  161.3068  133.7351 H   0  0  0  0  0  0  0  0  0  0  0  0
  140.1021  159.9608  131.8221 H   0  0  0  0  0  0  0  0  0  0  0  0
  140.4065  158.2657  131.4103 H   0  0  0  0  0  0  0  0  0  0  0  0
  138.0249  159.5175  132.7282 H   0  0  0  0  0  0  0  0  0  0  0  0
  138.1117  157.9876  131.8429 H   0  0  0  0  0  0  0  0  0  0  0  0
  137.9044  158.1596  134.6082 H   0  0  0  0  0  0  0  0  0  0  0  0
  138.6404  156.7683  133.7995 H   0  0  0  0  0  0  0  0  0  0  0  0
  139.9339  159.0100  135.3089 H   0  0  0  0  0  0  0  0  0  0  0  0
  140.5744  157.3915  134.9836 H   0  0  0  0  0  0  0  0  0  0  0  0
  142.9913  157.1233  133.3107 H   0  0  0  0  0  0  0  0  0  0  0  0
  144.8536  153.7327  135.1059 H   0  0  0  0  0  0  0  0  0  0  0  0
  145.6402  153.6329  133.4857 H   0  0  0  0  0  0  0  0  0  0  0  0
  1  2  1  0
  2  3  2  0
  2  4  1  0
  4  5  2  0
  5  6  1  0
  6  7  2  0
  7  8  1  0
  8  9  2  0
  9 10  1  0
 10 11  1  0
 11 12  1  0
 12 13  1  0
 13 14  1  0
  9 15  1  0
 15 16  2  0
 16 17  1  0
 17 18  1  0
 18 19  2  0
 18 20  1  0
 20 21  1  0
 21 22  1  0
 22 23  2  0
 22 24  1  0
 22 25  1  0
 17  4  1  0
 16  6  1  0
 14 10  1  0
  1 26  1  0
  1 27  1  0
  5 28  1  0
  7 29  1  0
  8 30  1  0
 11 31  1  0
 11 32  1  0
 12 33  1  0
 12 34  1  0
 13 35  1  0
 13 36  1  0
 14 37  1  0
 14 38  1  0
 15 39  1  0
 21 40  1  0
 21 41  1  0
M  CHG  2  24  -1  25  -1
M  END
>  <UniqueID>  (91) 
91

>  <SMILES>  (91) 
NC(=O)c1cc2ccc(N3CCCC3)cc2n1C(=O)OCP(=O)([O-])[O-]

>  <Energy>  (91) 
77.58039262150868

>  <Genealogy>  (91) 
NC(=O)c1cc2ccc(N3CCCC3)cc2n1C(=O)OCP(=O)([O-])[O-] (protonated)
NC(=O)c1cc2ccc(N3CCCC3)cc2n1C(=O)OCP(=O)([O-])[O-] (3D coordinates assigned)
NC(=O)c1cc2ccc(N3CCCC3)cc2n1C(=O)OCP(=O)([O-])[O-] (nonaromatic ring conformer: 77.58039262150868 kcal/mol)

>  <smiles>  (91) 
NC(=O)c1cc2ccc(N3CCCC3)cc2n1C(=O)OCP(=O)(O)O

>  <score_type>  (91) 
oracle

>  <origin>  (91) 
adg

>  <m_score__min__energy>  (91) 
-7.46

>  <m_primary>  (91) 
energy

$$$$
95:0
     RDKit          3D

 41 43  0  0  0  0  0  0  0  0999 V2000
  143.0820  162.8430  132.9350 H   0  0  0  0  0  0  0  0  0  0  0  0
  143.9780  163.1510  133.3740 N   0  0  0  0  0  0  0  0  0  0  0  0
  144.7470  162.2570  134.1750 C   0  0  0  0  0  0  0  0  0  0  0  0
  145.4670  162.7190  135.0980 O   0  0  0  0  0  0  0  0  0  0  0  0
  144.6720  160.8010  133.9340 C   0  0  0  0  0  0  0  0  0  0  0  0
  145.7840  159.9970  133.6910 C   0  0  0  0  0  0  0  0  0  0  0  0
  146.8415  160.2994  133.7081 H   0  0  0  0  0  0  0  0  0  0  0  0
  145.2790  158.7440  133.4250 C   0  0  0  0  0  0  0  0  0  0  0  0
  145.9330  157.5610  133.1000 C   0  0  0  0  0  0  0  0  0  0  0  0
  147.0295  157.5227  133.0213 H   0  0  0  0  0  0  0  0  0  0  0  0
  145.1500  156.4150  132.8750 C   0  0  0  0  0  0  0  0  0  0  0  0
  145.6393  155.4687  132.6009 H   0  0  0  0  0  0  0  0  0  0  0  0
  143.7350  156.4630  132.9970 C   0  0  0  0  0  0  0  0  0  0  0  0
  142.9360  155.2850  132.7320 N   0  0  0  0  0  0  0  0  0  0  0  0
  143.2320  154.8660  131.8210 H   0  0  0  0  0  0  0  0  0  0  0  0
  141.9360  155.5720  132.6060 H   0  0  0  0  0  0  0  0  0  0  0  0
  142.9860  154.2300  133.7720 C   0  0  2  0  0  0  0  0  0  0  0  0
  144.0043  153.8615  133.5790 H   0  0  0  0  0  0  0  0  0  0  0  0
  141.9350  153.1360  133.6570 C   0  0  0  0  0  0  0  0  0  0  0  0
  142.2563  152.3840  132.9213 H   0  0  0  0  0  0  0  0  0  0  0  0
  140.9752  153.5580  133.3241 H   0  0  0  0  0  0  0  0  0  0  0  0
  141.7970  152.5380  134.9250 O   0  0  0  0  0  0  0  0  0  0  0  0
  142.3110  153.4430  135.8820 C   0  0  0  0  0  0  0  0  0  0  0  0
  143.1545  152.9756  136.4113 H   0  0  0  0  0  0  0  0  0  0  0  0
  141.5202  153.7002  136.6021 H   0  0  0  0  0  0  0  0  0  0  0  0
  142.7890  154.7070  135.1860 C   0  0  0  0  0  0  0  0  0  0  0  0
  143.7321  155.0702  135.6204 H   0  0  0  0  0  0  0  0  0  0  0  0
  142.0921  155.5533  135.2756 H   0  0  0  0  0  0  0  0  0  0  0  0
  143.1090  157.6950  133.3020 C   0  0  0  0  0  0  0  0  0  0  0  0
  142.0136  157.7672  133.3715 H   0  0  0  0  0  0  0  0  0  0  0  0
  143.9140  158.8180  133.5130 C   0  0  0  0  0  0  0  0  0  0  0  0
  143.5270  160.0690  133.8330 N   0  0  0  0  0  0  0  0  0  0  0  0
  142.1740  160.5010  134.0410 C   0  0  0  0  0  0  0  0  0  0  0  0
  141.7280  161.4660  133.3640 O   0  0  0  0  0  0  0  0  0  0  0  0
  141.3340  159.8250  135.0560 C   0  0  0  0  0  0  0  0  0  0  0  0
  141.5093  160.0949  136.1079 H   0  0  0  0  0  0  0  0  0  0  0  0
  140.3790  158.9140  134.8130 C   0  0  0  0  0  0  0  0  0  0  0  0
  139.7270  158.6387  135.6550 H   0  0  0  0  0  0  0  0  0  0  0  0
  140.1220  158.2480  133.5240 C   0  0  0  0  0  0  0  0  0  0  0  0
  139.7520  158.9030  132.5130 O   0  0  0  0  0  0  0  0  0  0  0  0
  140.3820  156.8910  133.3960 O   0  0  0  0  0  0  0  0  0  0  0  0
  1  2  1  0
  2  3  1  0
  3  4  2  0
  3  5  1  0
  5  6  2  0
  6  7  1  0
  6  8  1  0
  8  9  2  0
  9 10  1  0
  9 11  1  0
 11 12  1  0
 11 13  2  0
 13 14  1  0
 14 15  1  0
 14 16  1  0
 14 17  1  0
 17 18  1  1
 17 19  1  0
 19 20  1  0
 19 21  1  0
 19 22  1  0
 22 23  1  0
 23 24  1  0
 23 25  1  0
 23 26  1  0
 26 27  1  0
 26 28  1  0
 13 29  1  0
 29 30  1  0
 29 31  2  0
 31 32  1  0
 32 33  1  0
 33 34  2  0
 33 35  1  0
 35 36  1  0
 35 37  2  0
 37 38  1  0
 37 39  1  0
 39 40  2  0
 39 41  1  0
 32  5  1  0
 31  8  1  0
 26 17  1  0
M  CHG  3   2  -1  14   1  41  -1
M  END
>  <UniqueID>  (92) 
92

>  <SMILES>  (92) 
[NH-]C(=O)c1cc2ccc([NH2+][C@H]3CCOC3)cc2n1C(=O)/C=C\C(=O)[O-]

>  <Energy>  (92) 
95.71452926590725

>  <Genealogy>  (92) 
[NH-]C(=O)c1cc2ccc([NH2+]C3CCOC3)cc2n1C(=O)C=CC(=O)[O-] (protonated)
[NH-]C(=O)c1cc2ccc([NH2+][C@H]3CCOC3)cc2n1C(=O)C=CC(=O)[O-] (chirality)
[NH-]C(=O)c1cc2ccc([NH2+][C@H]3CCOC3)cc2n1C(=O)/C=C\C(=O)[O-] (cis-trans isomerization)
[NH-]C(=O)c1cc2ccc([NH2+][C@H]3CCOC3)cc2n1C(=O)/C=C\C(=O)[O-] (3D coordinates assigned)
[NH-]C(=O)c1cc2ccc([NH2+][C@H]3CCOC3)cc2n1C(=O)/C=C\C(=O)[O-] (nonaromatic ring conformer: 95.71452926590725 kcal/mol)

>  <smiles>  (92) 
NC(=O)c1cc2ccc(NC3CCOC3)cc2n1C(=O)C=CC(=O)O

>  <score_type>  (92) 
oracle

>  <origin>  (92) 
adg

>  <m_score__min__energy>  (92) 
-6.9900000000000002

>  <m_primary>  (92) 
energy

$$$$
96:0
     RDKit          3D

 42 43  0  0  0  0  0  0  0  0999 V2000
  149.1780  154.5220  132.6070 C   0  0  0  0  0  0  0  0  0  0  0  0
  148.1710  155.6430  132.8840 C   0  0  0  0  0  0  0  0  0  0  0  0
  147.7860  155.5930  134.2150 F   0  0  0  0  0  0  0  0  0  0  0  0
  147.0470  155.4160  132.1060 F   0  0  0  0  0  0  0  0  0  0  0  0
  148.7140  156.9760  132.5540 N   0  0  0  0  0  0  0  0  0  0  0  0
  147.7980  158.0430  132.8830 C   0  0  0  0  0  0  0  0  0  0  0  0
  148.2710  159.3740  133.0280 C   0  0  0  0  0  0  0  0  0  0  0  0
  147.3870  160.4230  133.3240 C   0  0  0  0  0  0  0  0  0  0  0  0
  146.0380  160.1150  133.4790 C   0  0  0  0  0  0  0  0  0  0  0  0
  144.9680  160.9410  133.7360 C   0  0  0  0  0  0  0  0  0  0  0  0
  143.8560  160.1030  133.7720 C   0  0  0  0  0  0  0  0  0  0  0  0
  142.4950  160.5770  134.1030 C   0  0  0  0  0  0  0  0  0  0  0  0
  141.7600  160.0090  135.1830 N   0  0  0  0  0  0  0  0  0  0  0  0
  141.9930  161.5320  133.4520 O   0  0  0  0  0  0  0  0  0  0  0  0
  144.2220  158.8100  133.5360 N   0  0  0  0  0  0  0  0  0  0  0  0
  143.3720  157.6600  133.4050 C   0  0  0  0  0  0  0  0  0  0  0  0
  143.8750  156.5340  133.1400 O   0  0  0  0  0  0  0  0  0  0  0  0
  141.9920  157.7920  133.6020 O   0  0  0  0  0  0  0  0  0  0  0  0
  141.0110  157.4950  132.6070 C   0  0  0  0  0  0  0  0  0  0  0  0
  139.6840  158.2050  132.9100 C   0  0  2  0  0  0  0  0  0  0  0  0
  139.9480  159.5500  133.2140 O   0  0  0  0  0  0  0  0  0  0  0  0
  138.9180  157.5500  134.0690 C   0  0  0  0  0  0  0  0  0  0  0  0
  139.5260  157.8560  135.2940 O   0  0  0  0  0  0  0  0  0  0  0  0
  145.5630  158.8350  133.3630 C   0  0  0  0  0  0  0  0  0  0  0  0
  146.4190  157.7730  133.0500 C   0  0  0  0  0  0  0  0  0  0  0  0
  149.5443  154.1142  133.5607 H   0  0  0  0  0  0  0  0  0  0  0  0
  148.6882  153.7233  132.0307 H   0  0  0  0  0  0  0  0  0  0  0  0
  150.0245  154.9237  132.0307 H   0  0  0  0  0  0  0  0  0  0  0  0
  149.6260  157.1160  133.0490 H   0  0  0  0  0  0  0  0  0  0  0  0
  148.9190  157.0090  131.5280 H   0  0  0  0  0  0  0  0  0  0  0  0
  149.3437  159.5855  132.9068 H   0  0  0  0  0  0  0  0  0  0  0  0
  147.7486  161.4564  133.4303 H   0  0  0  0  0  0  0  0  0  0  0  0
  144.9868  162.0311  133.8819 H   0  0  0  0  0  0  0  0  0  0  0  0
  141.1270  159.1920  135.0330 H   0  0  0  0  0  0  0  0  0  0  0  0
  141.3813  157.8288  131.6265 H   0  0  0  0  0  0  0  0  0  0  0  0
  140.8337  156.4094  132.6042 H   0  0  0  0  0  0  0  0  0  0  0  0
  139.0456  158.1254  132.0178 H   0  0  0  0  0  0  0  0  0  0  0  0
  140.7050  159.5570  133.8570 H   0  0  0  0  0  0  0  0  0  0  0  0
  137.8831  157.9227  134.0754 H   0  0  0  0  0  0  0  0  0  0  0  0
  138.9272  156.4589  133.9300 H   0  0  0  0  0  0  0  0  0  0  0  0
  140.3900  158.2900  135.0720 H   0  0  0  0  0  0  0  0  0  0  0  0
  146.0285  156.7510  132.9363 H   0  0  0  0  0  0  0  0  0  0  0  0
  1  2  1  0
  2  3  1  0
  2  4  1  0
  2  5  1  0
  5  6  1  0
  6  7  2  0
  7  8  1  0
  8  9  2  0
  9 10  1  0
 10 11  2  0
 11 12  1  0
 12 13  1  0
 12 14  2  0
 11 15  1  0
 15 16  1  0
 16 17  2  0
 16 18  1  0
 18 19  1  0
 19 20  1  0
 20 21  1  0
 20 22  1  0
 22 23  1  0
 15 24  1  0
 24 25  2  0
 25  6  1  0
 24  9  1  0
  1 26  1  0
  1 27  1  0
  1 28  1  0
  5 29  1  0
  5 30  1  0
  7 31  1  0
  8 32  1  0
 10 33  1  0
 13 34  1  0
 19 35  1  0
 19 36  1  0
 20 37  1  6
 21 38  1  0
 22 39  1  0
 22 40  1  0
 23 41  1  0
 25 42  1  0
M  CHG  2   5   1  13  -1
M  END
>  <UniqueID>  (93) 
93

>  <SMILES>  (93) 
CC(F)(F)[NH2+]c1ccc2cc(C([NH-])=O)n(C(=O)OC[C@H](O)CO)c2c1

>  <Energy>  (93) 
77.31684112061613

>  <Genealogy>  (93) 
CC(F)(F)[NH2+]c1ccc2cc(C([NH-])=O)n(C(=O)OCC(O)CO)c2c1 (protonated)
CC(F)(F)[NH2+]c1ccc2cc(C([NH-])=O)n(C(=O)OC[C@H](O)CO)c2c1 (chirality)
CC(F)(F)[NH2+]c1ccc2cc(C([NH-])=O)n(C(=O)OC[C@H](O)CO)c2c1 (3D coordinates assigned)
CC(F)(F)[NH2+]c1ccc2cc(C([NH-])=O)n(C(=O)OC[C@H](O)CO)c2c1 (optimized conformer: 77.31684112061613 kcal/mol)

>  <smiles>  (93) 
CC(F)(F)Nc1ccc2cc(C(N)=O)n(C(=O)OCC(O)CO)c2c1

>  <score_type>  (93) 
oracle

>  <origin>  (93) 
adg

>  <m_score__min__energy>  (93) 
-4.8200000000000003

>  <m_primary>  (93) 
energy

$$$$
97:0
     RDKit          3D

 40 41  0  0  0  0  0  0  0  0999 V2000
  145.1680  153.0410  133.3270 C   0  0  0  0  0  0  0  0  0  0  0  0
  144.0290  153.9750  133.3030 N   0  0  1  0  0  0  0  0  0  0  0  0
  144.1430  154.9770  132.2160 C   0  0  0  0  0  0  0  0  0  0  0  0
  143.5930  156.3670  132.6020 C   0  0  0  0  0  0  0  0  0  0  0  0
  144.0630  156.8200  133.9520 C   0  0  0  0  0  0  0  0  0  0  0  0
  144.7890  156.0680  134.6540 O   0  0  0  0  0  0  0  0  0  0  0  0
  143.6670  158.0530  134.4540 O   0  0  0  0  0  0  0  0  0  0  0  0
  142.8050  153.2170  133.1370 C   0  0  0  0  0  0  0  0  0  0  0  0
  142.8610  151.9890  132.8430 O   0  0  0  0  0  0  0  0  0  0  0  0
  141.4790  153.8380  133.3390 C   0  0  0  0  0  0  0  0  0  0  0  0
  140.4980  153.4840  132.6290 O   0  0  0  0  0  0  0  0  0  0  0  0
  141.2960  154.8520  134.3380 N   0  0  0  0  0  0  0  0  0  0  0  0
  141.7550  154.8500  135.6210 C   0  0  0  0  0  0  0  0  0  0  0  0
  142.4400  153.7270  136.2950 C   0  0  0  0  0  0  0  0  0  0  0  0
  143.8390  153.5120  136.1290 N   0  0  0  0  0  0  0  0  0  0  0  0
  141.7740  152.9250  137.0030 O   0  0  0  0  0  0  0  0  0  0  0  0
  141.4430  156.0550  136.2500 C   0  0  0  0  0  0  0  0  0  0  0  0
  140.7750  156.7990  135.3030 C   0  0  0  0  0  0  0  0  0  0  0  0
  140.2610  158.0900  135.3760 C   0  0  0  0  0  0  0  0  0  0  0  0
  139.6530  158.6230  134.2260 C   0  0  0  0  0  0  0  0  0  0  0  0
  139.5620  157.8600  133.0330 C   0  0  0  0  0  0  0  0  0  0  0  0
  138.9630  158.4640  131.7890 C   0  0  0  0  0  0  0  0  0  0  0  0
  138.7380  157.4890  130.8310 F   0  0  0  0  0  0  0  0  0  0  0  0
  139.8130  159.4130  131.2480 F   0  0  0  0  0  0  0  0  0  0  0  0
  137.7600  159.0660  132.1090 F   0  0  0  0  0  0  0  0  0  0  0  0
  140.1220  156.5620  132.9930 C   0  0  0  0  0  0  0  0  0  0  0  0
  140.7030  156.0510  134.1580 C   0  0  0  0  0  0  0  0  0  0  0  0
  145.4384  152.8192  134.3699 H   0  0  0  0  0  0  0  0  0  0  0  0
  144.8885  152.1087  132.8145 H   0  0  0  0  0  0  0  0  0  0  0  0
  146.0275  153.4977  132.8145 H   0  0  0  0  0  0  0  0  0  0  0  0
  144.0040  154.4800  134.2200 H   0  0  0  0  0  0  0  0  0  0  0  0
  145.2051  155.0839  131.9505 H   0  0  0  0  0  0  0  0  0  0  0  0
  143.5380  154.6114  131.3732 H   0  0  0  0  0  0  0  0  0  0  0  0
  143.9248  157.0981  131.8501 H   0  0  0  0  0  0  0  0  0  0  0  0
  142.4962  156.2920  132.6396 H   0  0  0  0  0  0  0  0  0  0  0  0
  144.3990  154.1010  135.4750 H   0  0  0  0  0  0  0  0  0  0  0  0
  141.6801  156.3488  137.2832 H   0  0  0  0  0  0  0  0  0  0  0  0
  140.3283  158.6754  136.3049 H   0  0  0  0  0  0  0  0  0  0  0  0
  139.2430  159.6434  134.2512 H   0  0  0  0  0  0  0  0  0  0  0  0
  140.1011  155.9682  132.0673 H   0  0  0  0  0  0  0  0  0  0  0  0
  1  2  1  0
  2  3  1  0
  3  4  1  0
  4  5  1  0
  5  6  2  0
  5  7  1  0
  2  8  1  0
  8  9  2  0
  8 10  1  0
 10 11  2  0
 10 12  1  0
 12 13  1  0
 13 14  1  0
 14 15  1  0
 14 16  2  0
 13 17  2  0
 17 18  1  0
 18 19  2  0
 19 20  1  0
 20 21  2  0
 21 22  1  0
 22 23  1  0
 22 24  1  0
 22 25  1  0
 21 26  1  0
 26 27  2  0
 27 12  1  0
 27 18  1  0
  1 28  1  0
  1 29  1  0
  1 30  1  0
  2 31  1  1
  3 32  1  0
  3 33  1  0
  4 34  1  0
  4 35  1  0
 15 36  1  0
 17 37  1  0
 19 38  1  0
 20 39  1  0
 26 40  1  0
M  CHG  3   2   1   7  -1  15  -1
M  END
>  <UniqueID>  (94) 
94

>  <SMILES>  (94) 
C[N@@H+](CCC(=O)[O-])C(=O)C(=O)n1c(C([NH-])=O)cc2ccc(C(F)(F)F)cc21

>  <Energy>  (94) 
82.71754769862856

>  <Genealogy>  (94) 
C[NH+](CCC(=O)[O-])C(=O)C(=O)n1c(C([NH-])=O)cc2ccc(C(F)(F)F)cc21 (protonated)
C[N@@H+](CCC(=O)[O-])C(=O)C(=O)n1c(C([NH-])=O)cc2ccc(C(F)(F)F)cc21 (chirality)
C[N@@H+](CCC(=O)[O-])C(=O)C(=O)n1c(C([NH-])=O)cc2ccc(C(F)(F)F)cc21 (3D coordinates assigned)
C[N@@H+](CCC(=O)[O-])C(=O)C(=O)n1c(C([NH-])=O)cc2ccc(C(F)(F)F)cc21 (optimized conformer: 82.71754769862856 kcal/mol)

>  <smiles>  (94) 
CN(CCC(=O)O)C(=O)C(=O)n1c(C(N)=O)cc2ccc(C(F)(F)F)cc21

>  <score_type>  (94) 
oracle

>  <origin>  (94) 
adg

>  <m_score__min__energy>  (94) 
-5.5499999999999998

>  <m_primary>  (94) 
energy

$$$$
98:0
     RDKit          3D

 51 54  0  0  0  0  0  0  0  0999 V2000
  140.4400  159.8700  136.4170 N   0  0  0  0  0  0  0  0  0  0  0  0
  141.0230  158.8400  137.2090 C   0  0  0  0  0  0  0  0  0  0  0  0
  141.3710  159.0940  138.3940 O   0  0  0  0  0  0  0  0  0  0  0  0
  141.2640  157.4940  136.6490 C   0  0  0  0  0  0  0  0  0  0  0  0
  141.9870  156.5020  137.3070 C   0  0  0  0  0  0  0  0  0  0  0  0
  142.0360  155.4430  136.4280 C   0  0  0  0  0  0  0  0  0  0  0  0
  142.6160  154.1870  136.5680 C   0  0  0  0  0  0  0  0  0  0  0  0
  142.4860  153.2780  135.5040 C   0  0  0  0  0  0  0  0  0  0  0  0
  141.7800  153.6370  134.3220 C   0  0  0  0  0  0  0  0  0  0  0  0
  141.6320  152.7220  133.2190 N   0  0  0  0  0  0  0  0  0  0  0  0
  142.5340  151.6020  132.9490 C   0  0  0  0  0  0  0  0  0  0  0  0
  141.7850  150.4580  132.3270 C   0  0  0  0  0  0  0  0  0  0  0  0
  142.0360  149.1330  132.7170 C   0  0  0  0  0  0  0  0  0  0  0  0
  141.3340  148.1190  132.1450 N   0  0  0  0  0  0  0  0  0  0  0  0
  140.3820  148.3650  131.2070 C   0  0  0  0  0  0  0  0  0  0  0  0
  139.6660  147.3150  130.6230 C   0  0  0  0  0  0  0  0  0  0  0  0
  138.6880  147.5900  129.6610 C   0  0  0  0  0  0  0  0  0  0  0  0
  138.4250  148.9120  129.2810 C   0  0  0  0  0  0  0  0  0  0  0  0
  139.1380  149.9660  129.8620 C   0  0  0  0  0  0  0  0  0  0  0  0
  140.1170  149.6960  130.8240 C   0  0  0  0  0  0  0  0  0  0  0  0
  140.8230  150.7060  131.3970 N   0  0  0  0  0  0  0  0  0  0  0  0
  141.2020  154.9220  134.2260 C   0  0  0  0  0  0  0  0  0  0  0  0
  141.3590  155.8080  135.2960 C   0  0  0  0  0  0  0  0  0  0  0  0
  140.8760  157.0620  135.4160 N   0  0  0  0  0  0  0  0  0  0  0  0
  140.0350  157.7300  134.4640 C   0  0  0  0  0  0  0  0  0  0  0  0
  138.8640  158.0630  134.7960 O   0  0  0  0  0  0  0  0  0  0  0  0
  140.5980  158.1730  133.1420 C   0  0  0  0  0  0  0  0  0  0  0  0
  139.8350  159.3750  132.5620 C   0  0  0  0  0  0  0  0  0  0  0  0
  138.4980  158.9610  131.9340 C   0  0  0  0  0  0  0  0  0  0  0  0
  137.9760  160.0130  131.0040 C   0  0  0  0  0  0  0  0  0  0  0  0
  138.7650  160.8300  130.4620 O   0  0  0  0  0  0  0  0  0  0  0  0
  136.6180  160.0700  130.7120 O   0  0  0  0  0  0  0  0  0  0  0  0
  139.4890  159.7570  136.0040 H   0  0  0  0  0  0  0  0  0  0  0  0
  142.4256  156.5534  138.3145 H   0  0  0  0  0  0  0  0  0  0  0  0
  143.1602  153.9131  137.4839 H   0  0  0  0  0  0  0  0  0  0  0  0
  142.9353  152.2773  135.5860 H   0  0  0  0  0  0  0  0  0  0  0  0
  140.8430  152.8710  132.5500 H   0  0  0  0  0  0  0  0  0  0  0  0
  143.3253  151.9330  132.2604 H   0  0  0  0  0  0  0  0  0  0  0  0
  142.9733  151.2635  133.8990 H   0  0  0  0  0  0  0  0  0  0  0  0
  142.7967  148.9163  133.4814 H   0  0  0  0  0  0  0  0  0  0  0  0
  139.8713  146.2757  130.9193 H   0  0  0  0  0  0  0  0  0  0  0  0
  138.1238  146.7650  129.2016 H   0  0  0  0  0  0  0  0  0  0  0  0
  137.6556  149.1222  128.5235 H   0  0  0  0  0  0  0  0  0  0  0  0
  138.9295  151.0039  129.5633 H   0  0  0  0  0  0  0  0  0  0  0  0
  140.6402  155.2195  133.3283 H   0  0  0  0  0  0  0  0  0  0  0  0
  141.6517  158.4559  133.2821 H   0  0  0  0  0  0  0  0  0  0  0  0
  140.5000  157.3363  132.4347 H   0  0  0  0  0  0  0  0  0  0  0  0
  139.6394  160.0947  133.3706 H   0  0  0  0  0  0  0  0  0  0  0  0
  140.4565  159.8217  131.7720 H   0  0  0  0  0  0  0  0  0  0  0  0
  138.6420  158.0268  131.3714 H   0  0  0  0  0  0  0  0  0  0  0  0
  137.7658  158.8234  132.7433 H   0  0  0  0  0  0  0  0  0  0  0  0
  1  2  1  0
  2  3  2  0
  2  4  1  0
  4  5  2  0
  5  6  1  0
  6  7  2  0
  7  8  1  0
  8  9  2  0
  9 10  1  0
 10 11  1  0
 11 12  1  0
 12 13  2  0
 13 14  1  0
 14 15  2  0
 15 16  1  0
 16 17  2  0
 17 18  1  0
 18 19  2  0
 19 20  1  0
 20 21  2  0
  9 22  1  0
 22 23  2  0
 23 24  1  0
 24 25  1  0
 25 26  2  0
 25 27  1  0
 27 28  1  0
 28 29  1  0
 29 30  1  0
 30 31  2  0
 30 32  1  0
 24  4  1  0
 23  6  1  0
 21 12  1  0
 20 15  1  0
  1 33  1  0
  5 34  1  0
  7 35  1  0
  8 36  1  0
 10 37  1  0
 11 38  1  0
 11 39  1  0
 13 40  1  0
 16 41  1  0
 17 42  1  0
 18 43  1  0
 19 44  1  0
 22 45  1  0
 27 46  1  0
 27 47  1  0
 28 48  1  0
 28 49  1  0
 29 50  1  0
 29 51  1  0
M  CHG  2   1  -1  32  -1
M  END
>  <UniqueID>  (95) 
95

>  <SMILES>  (95) 
[NH-]C(=O)c1cc2ccc(NCc3cnc4ccccc4n3)cc2n1C(=O)CCCC(=O)[O-]

>  <Energy>  (95) 
93.6232284945068

>  <Genealogy>  (95) 
[NH-]C(=O)c1cc2ccc(NCc3cnc4ccccc4n3)cc2n1C(=O)CCCC(=O)[O-] (protonated)
[NH-]C(=O)c1cc2ccc(NCc3cnc4ccccc4n3)cc2n1C(=O)CCCC(=O)[O-] (3D coordinates assigned)
[NH-]C(=O)c1cc2ccc(NCc3cnc4ccccc4n3)cc2n1C(=O)CCCC(=O)[O-] (optimized conformer: 93.6232284945068 kcal/mol)

>  <smiles>  (95) 
NC(=O)c1cc2ccc(NCc3cnc4ccccc4n3)cc2n1C(=O)CCCC(=O)O

>  <score_type>  (95) 
oracle

>  <origin>  (95) 
adg

>  <m_score__min__energy>  (95) 
-10.220000000000001

>  <m_primary>  (95) 
energy

$$$$
99:0
     RDKit          3D

 42 43  0  0  0  0  0  0  0  0999 V2000
  139.1900  158.1430  135.2330 C   0  0  0  0  0  0  0  0  0  0  0  0
  139.6770  158.0810  133.8500 N   0  0  0  0  0  0  0  0  0  0  0  0
  139.7510  159.3170  133.0540 C   0  0  0  0  0  0  0  0  0  0  0  0
  139.1110  159.1180  131.6770 C   0  0  0  0  0  0  0  0  0  0  0  0
  137.8050  158.6240  131.8070 O   0  0  0  0  0  0  0  0  0  0  0  0
  140.0940  156.8000  133.3240 C   0  0  0  0  0  0  0  0  0  0  0  0
  139.2970  156.1350  132.6070 O   0  0  0  0  0  0  0  0  0  0  0  0
  141.4890  156.2530  133.5190 C   0  0  0  0  0  0  0  0  0  0  0  0
  142.1750  156.8770  134.7420 C   0  0  0  0  0  0  0  0  0  0  0  0
  143.2740  157.8270  134.3410 C   0  0  0  0  0  0  0  0  0  0  0  0
  142.9860  159.1980  134.1360 C   0  0  0  0  0  0  0  0  0  0  0  0
  143.9790  160.0740  133.6670 C   0  0  0  0  0  0  0  0  0  0  0  0
  145.2440  159.5520  133.4140 C   0  0  0  0  0  0  0  0  0  0  0  0
  146.3630  160.1620  132.8970 C   0  0  0  0  0  0  0  0  0  0  0  0
  147.3240  159.1580  132.8190 C   0  0  0  0  0  0  0  0  0  0  0  0
  148.7070  159.3950  132.3570 C   0  0  0  0  0  0  0  0  0  0  0  0
  149.7380  158.4350  132.5920 N   0  0  0  0  0  0  0  0  0  0  0  0
  148.9950  160.4850  131.7980 O   0  0  0  0  0  0  0  0  0  0  0  0
  146.8200  157.9710  133.2580 N   0  0  0  0  0  0  0  0  0  0  0  0
  147.4530  156.6800  133.2080 C   0  0  0  0  0  0  0  0  0  0  0  0
  148.1680  156.2840  134.1670 O   0  0  0  0  0  0  0  0  0  0  0  0
  147.2880  155.8570  132.1010 O   0  0  0  0  0  0  0  0  0  0  0  0
  145.5450  158.2300  133.6250 C   0  0  0  0  0  0  0  0  0  0  0  0
  144.5730  157.3340  134.0840 C   0  0  0  0  0  0  0  0  0  0  0  0
  140.0378  158.0350  135.9255 H   0  0  0  0  0  0  0  0  0  0  0  0
  138.6970  159.1112  135.4051 H   0  0  0  0  0  0  0  0  0  0  0  0
  138.4701  157.3293  135.4051 H   0  0  0  0  0  0  0  0  0  0  0  0
  139.2198  160.1203  133.5856 H   0  0  0  0  0  0  0  0  0  0  0  0
  140.8092  159.5833  132.9151 H   0  0  0  0  0  0  0  0  0  0  0  0
  139.0819  160.0825  131.1490 H   0  0  0  0  0  0  0  0  0  0  0  0
  139.7103  158.3914  131.1088 H   0  0  0  0  0  0  0  0  0  0  0  0
  137.8810  157.7310  132.2370 H   0  0  0  0  0  0  0  0  0  0  0  0
  141.4287  155.1638  133.6606 H   0  0  0  0  0  0  0  0  0  0  0  0
  142.0835  156.5011  132.6273 H   0  0  0  0  0  0  0  0  0  0  0  0
  141.4250  157.4272  135.3292 H   0  0  0  0  0  0  0  0  0  0  0  0
  142.6227  156.0658  135.3349 H   0  0  0  0  0  0  0  0  0  0  0  0
  141.9762  159.5804  134.3457 H   0  0  0  0  0  0  0  0  0  0  0  0
  143.7632  161.1403  133.5047 H   0  0  0  0  0  0  0  0  0  0  0  0
  146.4747  161.2173  132.6072 H   0  0  0  0  0  0  0  0  0  0  0  0
  150.7020  158.6010  132.2250 H   0  0  0  0  0  0  0  0  0  0  0  0
  149.5700  157.6020  133.1980 H   0  0  0  0  0  0  0  0  0  0  0  0
  144.8142  156.2723  134.2408 H   0  0  0  0  0  0  0  0  0  0  0  0
  1  2  1  0
  2  3  1  0
  3  4  1  0
  4  5  1  0
  2  6  1  0
  6  7  2  0
  6  8  1  0
  8  9  1  0
  9 10  1  0
 10 11  2  0
 11 12  1  0
 12 13  2  0
 13 14  1  0
 14 15  2  0
 15 16  1  0
 16 17  1  0
 16 18  2  0
 15 19  1  0
 19 20  1  0
 20 21  2  0
 20 22  1  0
 19 23  1  0
 23 24  2  0
 24 10  1  0
 23 13  1  0
  1 25  1  0
  1 26  1  0
  1 27  1  0
  3 28  1  0
  3 29  1  0
  4 30  1  0
  4 31  1  0
  5 32  1  0
  8 33  1  0
  8 34  1  0
  9 35  1  0
  9 36  1  0
 11 37  1  0
 12 38  1  0
 14 39  1  0
 17 40  1  0
 17 41  1  0
 24 42  1  0
M  CHG  1  22  -1
M  END
>  <UniqueID>  (96) 
96

>  <SMILES>  (96) 
CN(CCO)C(=O)CCc1ccc2cc(C(N)=O)n(C(=O)[O-])c2c1

>  <Energy>  (96) 
73.33625048159824

>  <Genealogy>  (96) 
CN(CCO)C(=O)CCc1ccc2cc(C(N)=O)n(C(=O)[O-])c2c1 (protonated)
CN(CCO)C(=O)CCc1ccc2cc(C(N)=O)n(C(=O)[O-])c2c1 (3D coordinates assigned)
CN(CCO)C(=O)CCc1ccc2cc(C(N)=O)n(C(=O)[O-])c2c1 (optimized conformer: 73.33625048159824 kcal/mol)

>  <smiles>  (96) 
CN(CCO)C(=O)CCc1ccc2cc(C(N)=O)n(C(=O)O)c2c1

>  <score_type>  (96) 
oracle

>  <origin>  (96) 
adg

>  <m_score__min__energy>  (96) 
-6.2300000000000004

>  <m_primary>  (96) 
energy

$$$$
