0:0
     RDKit          3D

 39 41  0  0  0  0  0  0  0  0999 V2000
  149.4190  161.8450  130.3640 C   0  0  0  0  0  0  0  0  0  0  0  0
  149.0620  160.5660  131.0580 C   0  0  0  0  0  0  0  0  0  0  0  0
  149.9930  159.4990  131.1040 C   0  0  0  0  0  0  0  0  0  0  0  0
  149.6900  158.3140  131.7960 C   0  0  0  0  0  0  0  0  0  0  0  0
  148.4550  158.2270  132.4310 C   0  0  0  0  0  0  0  0  0  0  0  0
  147.9240  157.2140  133.1970 C   0  0  0  0  0  0  0  0  0  0  0  0
  146.6710  157.6740  133.5950 C   0  0  0  0  0  0  0  0  0  0  0  0
  145.7180  156.8650  134.3820 C   0  0  0  0  0  0  0  0  0  0  0  0
  144.3070  157.0020  134.2030 N   0  0  0  0  0  0  0  0  0  0  0  0
  146.1570  156.0030  135.1880 O   0  0  0  0  0  0  0  0  0  0  0  0
  146.4430  158.9270  133.1100 N   0  0  0  0  0  0  0  0  0  0  0  0
  145.3180  159.7770  133.3860 C   0  0  0  0  0  0  0  0  0  0  0  0
  145.4940  160.8790  133.9740 O   0  0  0  0  0  0  0  0  0  0  0  0
  144.0330  159.3700  133.0160 O   0  0  0  0  0  0  0  0  0  0  0  0
  142.8690  159.7150  133.7650 C   0  0  0  0  0  0  0  0  0  0  0  0
  142.0860  158.5510  134.0160 O   0  0  0  0  0  0  0  0  0  0  0  0
  140.6930  158.5870  134.1410 C   0  0  0  0  0  0  0  0  0  0  0  0
  140.1420  158.3540  135.2510 O   0  0  0  0  0  0  0  0  0  0  0  0
  139.8700  158.9150  132.9720 C   0  0  0  0  0  0  0  0  0  0  0  0
  139.0600  158.0290  132.2730 C   0  0  0  0  0  0  0  0  0  0  0  0
  138.4100  158.6200  131.1840 C   0  0  0  0  0  0  0  0  0  0  0  0
  138.7050  159.9680  131.0210 C   0  0  0  0  0  0  0  0  0  0  0  0
  139.7780  160.4240  132.2320 S   0  0  0  0  0  0  0  0  0  0  0  0
  147.5420  159.2500  132.3950 C   0  0  0  0  0  0  0  0  0  0  0  0
  147.8260  160.4490  131.7310 C   0  0  0  0  0  0  0  0  0  0  0  0
  149.6355  162.6207  131.1133 H   0  0  0  0  0  0  0  0  0  0  0  0
  150.3069  161.6852  129.7346 H   0  0  0  0  0  0  0  0  0  0  0  0
  148.5767  162.1681  129.7346 H   0  0  0  0  0  0  0  0  0  0  0  0
  150.9621  159.5991  130.5933 H   0  0  0  0  0  0  0  0  0  0  0  0
  150.4072  157.4808  131.8345 H   0  0  0  0  0  0  0  0  0  0  0  0
  148.3896  156.2480  133.4423 H   0  0  0  0  0  0  0  0  0  0  0  0
  143.6480  156.4560  134.8010 H   0  0  0  0  0  0  0  0  0  0  0  0
  143.9140  157.5720  133.4210 H   0  0  0  0  0  0  0  0  0  0  0  0
  143.1721  160.1632  134.7227 H   0  0  0  0  0  0  0  0  0  0  0  0
  142.2697  160.4348  133.1882 H   0  0  0  0  0  0  0  0  0  0  0  0
  138.9416  156.9705  132.5477 H   0  0  0  0  0  0  0  0  0  0  0  0
  137.7289  158.0688  130.5189 H   0  0  0  0  0  0  0  0  0  0  0  0
  138.3049  160.6244  130.2342 H   0  0  0  0  0  0  0  0  0  0  0  0
  147.1045  161.2793  131.7333 H   0  0  0  0  0  0  0  0  0  0  0  0
  1  2  1  0
  2  3  2  0
  3  4  1  0
  4  5  2  0
  5  6  1  0
  6  7  2  0
  7  8  1  0
  8  9  1  0
  8 10  2  0
  7 11  1  0
 11 12  1  0
 12 13  2  0
 12 14  1  0
 14 15  1  0
 15 16  1  0
 16 17  1  0
 17 18  2  0
 17 19  1  0
 19 20  2  0
 20 21  1  0
 21 22  2  0
 22 23  1  0
 11 24  1  0
 24 25  2  0
 25  2  1  0
 24  5  1  0
 23 19  1  0
  1 26  1  0
  1 27  1  0
  1 28  1  0
  3 29  1  0
  4 30  1  0
  6 31  1  0
  9 32  1  0
  9 33  1  0
 15 34  1  0
 15 35  1  0
 20 36  1  0
 21 37  1  0
 22 38  1  0
 25 39  1  0
M  END
>  <UniqueID>  (1) 
1

>  <SMILES>  (1) 
Cc1ccc2cc(C(N)=O)n(C(=O)OCOC(=O)c3cccs3)c2c1

>  <Energy>  (1) 
100.89272217887765

>  <Genealogy>  (1) 
Cc1ccc2cc(C(N)=O)n(C(=O)OCOC(=O)c3cccs3)c2c1 (3D coordinates assigned)
Cc1ccc2cc(C(N)=O)n(C(=O)OCOC(=O)c3cccs3)c2c1 (optimized conformer: 100.89272217887765 kcal/mol)

>  <smiles>  (1) 
Cc1ccc2cc(C(N)=O)n(C(=O)OCOC(=O)c3cccs3)c2c1

>  <score_type>  (1) 
oracle

>  <origin>  (1) 
adg

>  <m_score__min__energy>  (1) 
-7.6100000000000003

>  <m_primary>  (1) 
energy

$$$$
1:0
     RDKit          3D

 39 40  0  0  0  0  0  0  0  0999 V2000
  148.0380  160.4750  132.0170 C   0  0  0  0  0  0  0  0  0  0  0  0
  147.5710  159.2670  132.7730 C   0  0  0  0  0  0  0  0  0  0  0  0
  148.5100  158.4180  133.4090 C   0  0  0  0  0  0  0  0  0  0  0  0
  148.0830  157.2750  134.1060 C   0  0  0  0  0  0  0  0  0  0  0  0
  146.7180  156.9990  134.1340 C   0  0  0  0  0  0  0  0  0  0  0  0
  146.0300  155.9850  134.7600 C   0  0  0  0  0  0  0  0  0  0  0  0
  144.6870  156.2120  134.4660 C   0  0  0  0  0  0  0  0  0  0  0  0
  143.5950  155.3110  134.8900 C   0  0  0  0  0  0  0  0  0  0  0  0
  142.3890  155.2510  134.1330 N   0  0  0  0  0  0  0  0  0  0  0  0
  143.7030  154.6160  135.9350 O   0  0  0  0  0  0  0  0  0  0  0  0
  144.5500  157.3230  133.6890 N   0  0  0  0  0  0  0  0  0  0  0  0
  143.3370  157.9400  133.2320 C   0  0  0  0  0  0  0  0  0  0  0  0
  142.7440  157.4820  132.2170 O   0  0  0  0  0  0  0  0  0  0  0  0
  142.8040  159.0280  133.9310 O   0  0  0  0  0  0  0  0  0  0  0  0
  141.4170  159.1500  134.2290 C   0  0  0  0  0  0  0  0  0  0  0  0
  140.8310  157.8570  134.3530 O   0  0  0  0  0  0  0  0  0  0  0  0
  139.8700  157.3740  133.4590 C   0  0  0  0  0  0  0  0  0  0  0  0
  139.9050  156.1790  133.0590 O   0  0  0  0  0  0  0  0  0  0  0  0
  138.8080  158.2970  132.9470 C   0  0  0  0  0  0  0  0  0  0  0  0
  139.0730  158.7050  131.4920 C   0  0  0  0  0  0  0  0  0  0  0  0
  138.2350  159.8760  131.0720 C   0  0  0  0  0  0  0  0  0  0  0  0
  138.7820  160.9510  130.7110 O   0  0  0  0  0  0  0  0  0  0  0  0
  136.8490  159.7860  131.0990 O   0  0  0  0  0  0  0  0  0  0  0  0
  145.8020  157.7920  133.4940 C   0  0  0  0  0  0  0  0  0  0  0  0
  146.1980  158.9450  132.8050 C   0  0  0  0  0  0  0  0  0  0  0  0
  148.3407  161.2580  132.7278 H   0  0  0  0  0  0  0  0  0  0  0  0
  148.8956  160.2027  131.3843 H   0  0  0  0  0  0  0  0  0  0  0  0
  147.2202  160.8504  131.3843 H   0  0  0  0  0  0  0  0  0  0  0  0
  149.5828  158.6556  133.3567 H   0  0  0  0  0  0  0  0  0  0  0  0
  148.8046  156.6183  134.6140 H   0  0  0  0  0  0  0  0  0  0  0  0
  146.4511  155.1681  135.3645 H   0  0  0  0  0  0  0  0  0  0  0  0
  141.9690  156.1150  133.7230 H   0  0  0  0  0  0  0  0  0  0  0  0
  141.2942  159.6981  135.1748 H   0  0  0  0  0  0  0  0  0  0  0  0
  140.9188  159.6963  133.4146 H   0  0  0  0  0  0  0  0  0  0  0  0
  137.8343  157.7885  133.0042 H   0  0  0  0  0  0  0  0  0  0  0  0
  138.8116  159.2057  133.5669 H   0  0  0  0  0  0  0  0  0  0  0  0
  140.1347  158.9728  131.3866 H   0  0  0  0  0  0  0  0  0  0  0  0
  138.8102  157.8526  130.8483 H   0  0  0  0  0  0  0  0  0  0  0  0
  145.4572  159.5835  132.3015 H   0  0  0  0  0  0  0  0  0  0  0  0
  1  2  1  0
  2  3  2  0
  3  4  1  0
  4  5  2  0
  5  6  1  0
  6  7  2  0
  7  8  1  0
  8  9  1  0
  8 10  2  0
  7 11  1  0
 11 12  1  0
 12 13  2  0
 12 14  1  0
 14 15  1  0
 15 16  1  0
 16 17  1  0
 17 18  2  0
 17 19  1  0
 19 20  1  0
 20 21  1  0
 21 22  2  0
 21 23  1  0
 11 24  1  0
 24 25  2  0
 25  2  1  0
 24  5  1  0
  1 26  1  0
  1 27  1  0
  1 28  1  0
  3 29  1  0
  4 30  1  0
  6 31  1  0
  9 32  1  0
 15 33  1  0
 15 34  1  0
 19 35  1  0
 19 36  1  0
 20 37  1  0
 20 38  1  0
 25 39  1  0
M  CHG  2   9  -1  23  -1
M  END
>  <UniqueID>  (2) 
2

>  <SMILES>  (2) 
Cc1ccc2cc(C([NH-])=O)n(C(=O)OCOC(=O)CCC(=O)[O-])c2c1

>  <Energy>  (2) 
67.67100150062444

>  <Genealogy>  (2) 
Cc1ccc2cc(C([NH-])=O)n(C(=O)OCOC(=O)CCC(=O)[O-])c2c1 (protonated)
Cc1ccc2cc(C([NH-])=O)n(C(=O)OCOC(=O)CCC(=O)[O-])c2c1 (3D coordinates assigned)
Cc1ccc2cc(C([NH-])=O)n(C(=O)OCOC(=O)CCC(=O)[O-])c2c1 (optimized conformer: 67.67100150062444 kcal/mol)

>  <smiles>  (2) 
Cc1ccc2cc(C(N)=O)n(C(=O)OCOC(=O)CCC(=O)O)c2c1

>  <score_type>  (2) 
oracle

>  <origin>  (2) 
adg

>  <m_score__min__energy>  (2) 
-6.5800000000000001

>  <m_primary>  (2) 
energy

$$$$
2:0
     RDKit          3D

 41 42  0  0  0  0  0  0  0  0999 V2000
  140.8140  159.0440  133.8490 C   0  0  0  0  0  0  0  0  0  0  0  0
  141.6250  158.3850  134.9820 C   0  0  0  0  0  0  0  0  0  0  0  0
  141.1890  158.9920  136.3240 C   0  0  0  0  0  0  0  0  0  0  0  0
  141.3720  156.8660  135.0190 C   0  0  0  0  0  0  0  0  0  0  0  0
  143.0240  158.6630  134.8280 O   0  0  0  0  0  0  0  0  0  0  0  0
  143.7770  158.5180  133.6530 C   0  0  0  0  0  0  0  0  0  0  0  0
  143.3190  157.8860  132.6630 O   0  0  0  0  0  0  0  0  0  0  0  0
  145.0770  159.1230  133.5690 N   0  0  0  0  0  0  0  0  0  0  0  0
  145.3760  160.4540  133.5670 C   0  0  0  0  0  0  0  0  0  0  0  0
  144.4300  161.5560  133.8320 C   0  0  0  0  0  0  0  0  0  0  0  0
  143.0230  161.3540  133.7310 N   0  0  0  0  0  0  0  0  0  0  0  0
  144.8670  162.6790  134.2000 O   0  0  0  0  0  0  0  0  0  0  0  0
  146.7390  160.6480  133.3550 C   0  0  0  0  0  0  0  0  0  0  0  0
  147.2740  159.3860  133.2330 C   0  0  0  0  0  0  0  0  0  0  0  0
  148.5880  158.9890  132.9970 C   0  0  0  0  0  0  0  0  0  0  0  0
  148.8480  157.6130  132.8830 C   0  0  0  0  0  0  0  0  0  0  0  0
  147.7980  156.6730  132.9980 C   0  0  0  0  0  0  0  0  0  0  0  0
  148.0760  155.2680  132.8640 C   0  0  0  0  0  0  0  0  0  0  0  0
  148.3060  154.0900  132.7530 C   0  0  0  0  0  0  0  0  0  0  0  0
  148.5840  152.6530  132.6160 C   0  0  0  0  0  0  0  0  0  0  0  0
  147.3820  151.9230  132.2250 N   0  0  0  0  0  0  0  0  0  0  0  0
  146.4790  157.1070  133.2370 C   0  0  0  0  0  0  0  0  0  0  0  0
  146.2490  158.4830  133.3660 C   0  0  0  0  0  0  0  0  0  0  0  0
  140.0294  159.6815  134.2826 H   0  0  0  0  0  0  0  0  0  0  0  0
  141.4833  159.6574  133.2279 H   0  0  0  0  0  0  0  0  0  0  0  0
  140.3505  158.2634  133.2279 H   0  0  0  0  0  0  0  0  0  0  0  0
  141.6135  158.4010  137.1489 H   0  0  0  0  0  0  0  0  0  0  0  0
  141.5501  160.0288  136.3921 H   0  0  0  0  0  0  0  0  0  0  0  0
  140.0912  158.9809  136.3921 H   0  0  0  0  0  0  0  0  0  0  0  0
  141.3159  156.5290  136.0646 H   0  0  0  0  0  0  0  0  0  0  0  0
  140.4238  156.6397  134.5094 H   0  0  0  0  0  0  0  0  0  0  0  0
  142.1957  156.3446  134.5094 H   0  0  0  0  0  0  0  0  0  0  0  0
  142.6260  160.3990  133.5910 H   0  0  0  0  0  0  0  0  0  0  0  0
  147.2745  161.6071  133.2973 H   0  0  0  0  0  0  0  0  0  0  0  0
  149.3963  159.7291  132.9029 H   0  0  0  0  0  0  0  0  0  0  0  0
  149.8757  157.2645  132.7030 H   0  0  0  0  0  0  0  0  0  0  0  0
  149.3586  152.5080  131.8486 H   0  0  0  0  0  0  0  0  0  0  0  0
  148.9275  152.2681  133.5875 H   0  0  0  0  0  0  0  0  0  0  0  0
  146.9470  151.5040  133.0800 H   0  0  0  0  0  0  0  0  0  0  0  0
  146.6940  152.5970  131.8160 H   0  0  0  0  0  0  0  0  0  0  0  0
  145.6528  156.3855  133.3200 H   0  0  0  0  0  0  0  0  0  0  0  0
  1  2  1  0
  2  3  1  0
  2  4  1  0
  2  5  1  0
  5  6  1  0
  6  7  2  0
  6  8  1  0
  8  9  1  0
  9 10  1  0
 10 11  1  0
 10 12  2  0
  9 13  2  0
 13 14  1  0
 14 15  2  0
 15 16  1  0
 16 17  2  0
 17 18  1  0
 18 19  3  0
 19 20  1  0
 20 21  1  0
 17 22  1  0
 22 23  2  0
 23  8  1  0
 23 14  1  0
  1 24  1  0
  1 25  1  0
  1 26  1  0
  3 27  1  0
  3 28  1  0
  3 29  1  0
  4 30  1  0
  4 31  1  0
  4 32  1  0
 11 33  1  0
 13 34  1  0
 15 35  1  0
 16 36  1  0
 20 37  1  0
 20 38  1  0
 21 39  1  0
 21 40  1  0
 22 41  1  0
M  CHG  1  11  -1
M  END
>  <UniqueID>  (3) 
3

>  <SMILES>  (3) 
CC(C)(C)OC(=O)n1c(C([NH-])=O)cc2ccc(C#CCN)cc21

>  <Energy>  (3) 
69.67688269050156

>  <Genealogy>  (3) 
CC(C)(C)OC(=O)n1c(C([NH-])=O)cc2ccc(C#CCN)cc21 (protonated)
CC(C)(C)OC(=O)n1c(C([NH-])=O)cc2ccc(C#CCN)cc21 (3D coordinates assigned)
CC(C)(C)OC(=O)n1c(C([NH-])=O)cc2ccc(C#CCN)cc21 (optimized conformer: 69.67688269050156 kcal/mol)

>  <smiles>  (3) 
CC(C)(C)OC(=O)n1c(C(N)=O)cc2ccc(C#CCN)cc21

>  <score_type>  (3) 
oracle

>  <origin>  (3) 
adg

>  <m_score__min__energy>  (3) 
-7.6900000000000004

>  <m_primary>  (3) 
energy

$$$$
3:0
     RDKit          3D

 39 40  0  0  0  0  0  0  0  0999 V2000
  149.8200  157.6160  131.8580 N   0  0  0  0  0  0  0  0  0  0  0  0
  149.2610  158.9060  132.0940 C   0  0  0  0  0  0  0  0  0  0  0  0
  149.9530  159.9300  131.8540 O   0  0  0  0  0  0  0  0  0  0  0  0
  147.8990  159.0250  132.6560 C   0  0  0  0  0  0  0  0  0  0  0  0
  147.2910  160.2470  132.9350 C   0  0  0  0  0  0  0  0  0  0  0  0
  146.0130  159.9350  133.3390 C   0  0  0  0  0  0  0  0  0  0  0  0
  144.9680  160.7690  133.7290 C   0  0  0  0  0  0  0  0  0  0  0  0
  143.7540  160.1710  134.1050 C   0  0  0  0  0  0  0  0  0  0  0  0
  143.6130  158.7610  134.1050 C   0  0  0  0  0  0  0  0  0  0  0  0
  142.3040  158.1330  134.4870 C   0  0  0  0  0  0  0  0  0  0  0  0
  140.9420  159.3040  134.2100 P   0  0  2  0  0  0  0  0  0  0  0  0
  141.0320  160.4250  135.2210 O   0  0  0  0  0  0  0  0  0  0  0  0
  139.4610  158.5070  134.3880 O   0  0  0  0  0  0  0  0  0  0  0  0
  141.0560  159.9440  132.6470 O   0  0  0  0  0  0  0  0  0  0  0  0
  144.6930  157.9470  133.6980 C   0  0  0  0  0  0  0  0  0  0  0  0
  145.8840  158.5710  133.3040 C   0  0  0  0  0  0  0  0  0  0  0  0
  147.0340  157.9960  132.8880 N   0  0  0  0  0  0  0  0  0  0  0  0
  147.2790  156.5860  132.7600 C   0  0  0  0  0  0  0  0  0  0  0  0
  147.1180  156.0150  131.6470 O   0  0  0  0  0  0  0  0  0  0  0  0
  147.7220  155.8580  133.8670 O   0  0  0  0  0  0  0  0  0  0  0  0
  147.2660  154.5440  134.1640 C   0  0  0  0  0  0  0  0  0  0  0  0
  148.3530  153.5210  133.8230 C   0  0  0  0  0  0  0  0  0  0  0  0
  148.8740  153.6740  132.3920 C   0  0  0  0  0  0  0  0  0  0  0  0
  149.7340  154.7770  132.3030 O   0  0  0  0  0  0  0  0  0  0  0  0
  149.2070  156.7820  131.7200 H   0  0  0  0  0  0  0  0  0  0  0  0
  147.7377  161.2487  132.8503 H   0  0  0  0  0  0  0  0  0  0  0  0
  145.0896  161.8622  133.7422 H   0  0  0  0  0  0  0  0  0  0  0  0
  142.9044  160.8033  134.4023 H   0  0  0  0  0  0  0  0  0  0  0  0
  142.1401  157.2337  133.8752 H   0  0  0  0  0  0  0  0  0  0  0  0
  142.3333  157.8618  135.5527 H   0  0  0  0  0  0  0  0  0  0  0  0
  141.7390  159.3870  132.1950 H   0  0  0  0  0  0  0  0  0  0  0  0
  144.6014  156.8508  133.6905 H   0  0  0  0  0  0  0  0  0  0  0  0
  147.0251  154.4758  135.2351 H   0  0  0  0  0  0  0  0  0  0  0  0
  146.3689  154.3299  133.5646 H   0  0  0  0  0  0  0  0  0  0  0  0
  149.1933  153.6535  134.5204 H   0  0  0  0  0  0  0  0  0  0  0  0
  147.9082  152.5188  133.9113 H   0  0  0  0  0  0  0  0  0  0  0  0
  149.4207  152.7635  132.1055 H   0  0  0  0  0  0  0  0  0  0  0  0
  148.0209  153.8298  131.7153 H   0  0  0  0  0  0  0  0  0  0  0  0
  149.1500  155.5760  132.2260 H   0  0  0  0  0  0  0  0  0  0  0  0
  1  2  1  0
  2  3  2  0
  2  4  1  0
  4  5  2  0
  5  6  1  0
  6  7  2  0
  7  8  1  0
  8  9  2  0
  9 10  1  0
 10 11  1  0
 11 12  2  0
 11 13  1  6
 11 14  1  0
  9 15  1  0
 15 16  2  0
 16 17  1  0
 17 18  1  0
 18 19  2  0
 18 20  1  0
 20 21  1  0
 21 22  1  0
 22 23  1  0
 23 24  1  0
 17  4  1  0
 16  6  1  0
  1 25  1  0
  5 26  1  0
  7 27  1  0
  8 28  1  0
 10 29  1  0
 10 30  1  0
 14 31  1  0
 15 32  1  0
 21 33  1  0
 21 34  1  0
 22 35  1  0
 22 36  1  0
 23 37  1  0
 23 38  1  0
 24 39  1  0
M  CHG  2   1  -1  13  -1
M  END
>  <UniqueID>  (4) 
4

>  <SMILES>  (4) 
[NH-]C(=O)c1cc2ccc(C[P@](=O)([O-])O)cc2n1C(=O)OCCCO

>  <Energy>  (4) 
64.5464014668492

>  <Genealogy>  (4) 
[NH-]C(=O)c1cc2ccc(CP(=O)([O-])O)cc2n1C(=O)OCCCO (protonated)
[NH-]C(=O)c1cc2ccc(C[P@](=O)([O-])O)cc2n1C(=O)OCCCO (chirality)
[NH-]C(=O)c1cc2ccc(C[P@](=O)([O-])O)cc2n1C(=O)OCCCO (3D coordinates assigned)
[NH-]C(=O)c1cc2ccc(C[P@](=O)([O-])O)cc2n1C(=O)OCCCO (optimized conformer: 64.5464014668492 kcal/mol)

>  <smiles>  (4) 
NC(=O)c1cc2ccc(CP(=O)(O)O)cc2n1C(=O)OCCCO

>  <score_type>  (4) 
oracle

>  <origin>  (4) 
adg

>  <m_score__min__energy>  (4) 
-6.4199999999999999

>  <m_primary>  (4) 
energy

$$$$
4:0
     RDKit          3D

 54 55  0  0  0  0  0  0  0  0999 V2000
  140.9170  159.7270  136.3540 C   0  0  0  0  0  0  0  0  0  0  0  0
  140.8970  158.5810  137.3580 C   0  0  0  0  0  0  0  0  0  0  0  0
  140.5450  157.3590  136.7150 O   0  0  0  0  0  0  0  0  0  0  0  0
  141.4210  156.2740  136.5910 C   0  0  0  0  0  0  0  0  0  0  0  0
  142.0750  155.8580  137.5870 O   0  0  0  0  0  0  0  0  0  0  0  0
  141.6050  155.6270  135.2550 C   0  0  0  0  0  0  0  0  0  0  0  0
  141.5330  156.6290  134.1760 N   0  0  0  0  0  0  0  0  0  0  0  0
  140.3030  156.6660  133.3690 C   0  0  0  0  0  0  0  0  0  0  0  0
  139.4820  157.8710  133.7180 C   0  0  0  0  0  0  0  0  0  0  0  0
  138.7510  157.8480  134.7450 O   0  0  0  0  0  0  0  0  0  0  0  0
  139.5570  159.0190  132.9200 O   0  0  0  0  0  0  0  0  0  0  0  0
  139.3940  159.0040  131.5040 C   0  0  0  0  0  0  0  0  0  0  0  0
  138.2140  159.8760  131.0940 C   0  0  0  0  0  0  0  0  0  0  0  0
  142.6750  157.4760  133.8650 C   0  0  0  0  0  0  0  0  0  0  0  0
  142.5050  158.8760  133.6670 C   0  0  0  0  0  0  0  0  0  0  0  0
  143.5950  159.7080  133.3750 C   0  0  0  0  0  0  0  0  0  0  0  0
  144.8530  159.1290  133.2840 C   0  0  0  0  0  0  0  0  0  0  0  0
  146.0660  159.7030  132.9890 C   0  0  0  0  0  0  0  0  0  0  0  0
  146.9840  158.6570  133.0140 C   0  0  0  0  0  0  0  0  0  0  0  0
  148.4380  158.8500  132.8330 C   0  0  0  0  0  0  0  0  0  0  0  0
  149.1850  158.0120  131.9550 N   0  0  0  0  0  0  0  0  0  0  0  0
  149.0380  159.7320  133.5040 O   0  0  0  0  0  0  0  0  0  0  0  0
  146.3610  157.4790  133.3040 N   0  0  0  0  0  0  0  0  0  0  0  0
  146.9350  156.1610  133.2850 C   0  0  0  0  0  0  0  0  0  0  0  0
  147.3480  155.6730  132.1980 O   0  0  0  0  0  0  0  0  0  0  0  0
  147.0150  155.4140  134.4630 O   0  0  0  0  0  0  0  0  0  0  0  0
  147.7630  154.2070  134.5480 C   0  0  0  0  0  0  0  0  0  0  0  0
  147.9150  153.7100  136.2860 P   0  0  0  0  0  0  0  0  0  0  0  0
  148.4740  154.8600  137.0910 O   0  0  0  0  0  0  0  0  0  0  0  0
  148.9600  152.3860  136.3990 O   0  0  0  0  0  0  0  0  0  0  0  0
  146.3930  153.2880  136.8890 O   0  0  0  0  0  0  0  0  0  0  0  0
  145.0550  157.7880  133.4750 C   0  0  0  0  0  0  0  0  0  0  0  0
  143.9840  156.9310  133.7620 C   0  0  0  0  0  0  0  0  0  0  0  0
  140.9337  160.6860  136.8925 H   0  0  0  0  0  0  0  0  0  0  0  0
  141.8139  159.6455  135.7223 H   0  0  0  0  0  0  0  0  0  0  0  0
  140.0178  159.6768  135.7223 H   0  0  0  0  0  0  0  0  0  0  0  0
  141.8948  158.4780  137.8094 H   0  0  0  0  0  0  0  0  0  0  0  0
  140.1499  158.8019  138.1346 H   0  0  0  0  0  0  0  0  0  0  0  0
  142.5879  155.1340  135.2249 H   0  0  0  0  0  0  0  0  0  0  0  0
  140.8030  154.8890  135.1062 H   0  0  0  0  0  0  0  0  0  0  0  0
  140.5706  156.7068  132.3028 H   0  0  0  0  0  0  0  0  0  0  0  0
  139.7133  155.7612  133.5776 H   0  0  0  0  0  0  0  0  0  0  0  0
  140.3096  159.3875  131.0300 H   0  0  0  0  0  0  0  0  0  0  0  0
  139.2031  157.9707  131.1786 H   0  0  0  0  0  0  0  0  0  0  0  0
  137.7055  160.2518  131.9941 H   0  0  0  0  0  0  0  0  0  0  0  0
  138.5760  160.7253  130.4959 H   0  0  0  0  0  0  0  0  0  0  0  0
  137.5084  159.2806  130.4959 H   0  0  0  0  0  0  0  0  0  0  0  0
  141.4986  159.3132  133.7447 H   0  0  0  0  0  0  0  0  0  0  0  0
  143.4571  160.7886  133.2224 H   0  0  0  0  0  0  0  0  0  0  0  0
  146.2685  160.7634  132.7780 H   0  0  0  0  0  0  0  0  0  0  0  0
  148.7370  157.1950  131.4830 H   0  0  0  0  0  0  0  0  0  0  0  0
  147.2473  153.4157  133.9842 H   0  0  0  0  0  0  0  0  0  0  0  0
  148.7652  154.3664  134.1235 H   0  0  0  0  0  0  0  0  0  0  0  0
  144.1535  155.8536  133.9053 H   0  0  0  0  0  0  0  0  0  0  0  0
  1  2  1  0
  2  3  1  0
  3  4  1  0
  4  5  2  0
  4  6  1  0
  6  7  1  0
  7  8  1  0
  8  9  1  0
  9 10  2  0
  9 11  1  0
 11 12  1  0
 12 13  1  0
  7 14  1  0
 14 15  2  0
 15 16  1  0
 16 17  2  0
 17 18  1  0
 18 19  2  0
 19 20  1  0
 20 21  1  0
 20 22  2  0
 19 23  1  0
 23 24  1  0
 24 25  2  0
 24 26  1  0
 26 27  1  0
 27 28  1  0
 28 29  2  0
 28 30  1  0
 28 31  1  0
 23 32  1  0
 32 33  2  0
 33 14  1  0
 32 17  1  0
  1 34  1  0
  1 35  1  0
  1 36  1  0
  2 37  1  0
  2 38  1  0
  6 39  1  0
  6 40  1  0
  8 41  1  0
  8 42  1  0
 12 43  1  0
 12 44  1  0
 13 45  1  0
 13 46  1  0
 13 47  1  0
 15 48  1  0
 16 49  1  0
 18 50  1  0
 21 51  1  0
 27 52  1  0
 27 53  1  0
 33 54  1  0
M  CHG  3  21  -1  30  -1  31  -1
M  END
>  <UniqueID>  (5) 
5

>  <SMILES>  (5) 
CCOC(=O)CN(CC(=O)OCC)c1ccc2cc(C([NH-])=O)n(C(=O)OCP(=O)([O-])[O-])c2c1

>  <Energy>  (5) 
77.5097917855542

>  <Genealogy>  (5) 
CCOC(=O)CN(CC(=O)OCC)c1ccc2cc(C([NH-])=O)n(C(=O)OCP(=O)([O-])[O-])c2c1 (protonated)
CCOC(=O)CN(CC(=O)OCC)c1ccc2cc(C([NH-])=O)n(C(=O)OCP(=O)([O-])[O-])c2c1 (3D coordinates assigned)
CCOC(=O)CN(CC(=O)OCC)c1ccc2cc(C([NH-])=O)n(C(=O)OCP(=O)([O-])[O-])c2c1 (optimized conformer: 77.5097917855542 kcal/mol)

>  <smiles>  (5) 
CCOC(=O)CN(CC(=O)OCC)c1ccc2cc(C(N)=O)n(C(=O)OCP(=O)(O)O)c2c1

>  <score_type>  (5) 
oracle

>  <origin>  (5) 
adg

>  <m_score__min__energy>  (5) 
-7.2300000000000004

>  <m_primary>  (5) 
energy

$$$$
5:0
     RDKit          3D

 43 44  0  0  0  0  0  0  0  0999 V2000
  139.7910  159.7150  130.7390 C   0  0  0  0  0  0  0  0  0  0  0  0
  140.0170  158.7360  131.7290 O   0  0  0  0  0  0  0  0  0  0  0  0
  138.8130  158.0600  132.0400 C   0  0  0  0  0  0  0  0  0  0  0  0
  138.6030  157.9820  133.5540 C   0  0  0  0  0  0  0  0  0  0  0  0
  139.7610  158.5310  134.2600 N   0  0  0  0  0  0  0  0  0  0  0  0
  139.9770  158.3380  135.6620 C   0  0  0  0  0  0  0  0  0  0  0  0
  139.0630  157.8610  136.3890 O   0  0  0  0  0  0  0  0  0  0  0  0
  141.2130  158.6850  136.2160 O   0  0  0  0  0  0  0  0  0  0  0  0
  142.4550  158.4260  135.5660 C   0  0  0  0  0  0  0  0  0  0  0  0
  142.2360  157.7890  134.3090 O   0  0  0  0  0  0  0  0  0  0  0  0
  143.2720  157.4710  133.4250 C   0  0  0  0  0  0  0  0  0  0  0  0
  143.1760  156.4640  132.6710 O   0  0  0  0  0  0  0  0  0  0  0  0
  144.4600  158.2790  133.3940 N   0  0  0  0  0  0  0  0  0  0  0  0
  144.5470  159.6390  133.3230 C   0  0  0  0  0  0  0  0  0  0  0  0
  143.4190  160.5880  133.4200 C   0  0  0  0  0  0  0  0  0  0  0  0
  142.1040  160.1620  133.0670 N   0  0  0  0  0  0  0  0  0  0  0  0
  143.6070  161.7810  133.7740 O   0  0  0  0  0  0  0  0  0  0  0  0
  145.8780  160.0390  133.2270 C   0  0  0  0  0  0  0  0  0  0  0  0
  146.6120  158.8760  133.2520 C   0  0  0  0  0  0  0  0  0  0  0  0
  147.9870  158.6860  133.1700 C   0  0  0  0  0  0  0  0  0  0  0  0
  148.4720  157.3670  133.1870 C   0  0  0  0  0  0  0  0  0  0  0  0
  147.5830  156.2680  133.2840 C   0  0  0  0  0  0  0  0  0  0  0  0
  148.1410  154.8670  133.2670 C   0  0  0  0  0  0  0  0  0  0  0  0
  147.2770  154.0340  132.5780 F   0  0  0  0  0  0  0  0  0  0  0  0
  148.2680  154.4090  134.5660 F   0  0  0  0  0  0  0  0  0  0  0  0
  149.3810  154.8180  132.6540 F   0  0  0  0  0  0  0  0  0  0  0  0
  146.1890  156.5040  133.3590 C   0  0  0  0  0  0  0  0  0  0  0  0
  145.7350  157.8270  133.3540 C   0  0  0  0  0  0  0  0  0  0  0  0
  139.5685  160.6787  131.2204 H   0  0  0  0  0  0  0  0  0  0  0  0
  140.6892  159.8169  130.1123 H   0  0  0  0  0  0  0  0  0  0  0  0
  138.9390  159.4128  130.1123 H   0  0  0  0  0  0  0  0  0  0  0  0
  137.9692  158.6014  131.5872 H   0  0  0  0  0  0  0  0  0  0  0  0
  138.8727  157.0365  131.6413 H   0  0  0  0  0  0  0  0  0  0  0  0
  137.7065  158.5587  133.8255 H   0  0  0  0  0  0  0  0  0  0  0  0
  138.4770  156.9279  133.8423 H   0  0  0  0  0  0  0  0  0  0  0  0
  140.5330  158.9490  133.6940 H   0  0  0  0  0  0  0  0  0  0  0  0
  142.9838  159.3767  135.4031 H   0  0  0  0  0  0  0  0  0  0  0  0
  143.0583  157.7615  136.2020 H   0  0  0  0  0  0  0  0  0  0  0  0
  141.9380  159.2130  132.6640 H   0  0  0  0  0  0  0  0  0  0  0  0
  146.2609  161.0672  133.1480 H   0  0  0  0  0  0  0  0  0  0  0  0
  148.6740  159.5417  133.0942 H   0  0  0  0  0  0  0  0  0  0  0  0
  149.5551  157.1856  133.1242 H   0  0  0  0  0  0  0  0  0  0  0  0
  145.4791  155.6659  133.4198 H   0  0  0  0  0  0  0  0  0  0  0  0
  1  2  1  0
  2  3  1  0
  3  4  1  0
  4  5  1  0
  5  6  1  0
  6  7  2  0
  6  8  1  0
  8  9  1  0
  9 10  1  0
 10 11  1  0
 11 12  2  0
 11 13  1  0
 13 14  1  0
 14 15  1  0
 15 16  1  0
 15 17  2  0
 14 18  2  0
 18 19  1  0
 19 20  2  0
 20 21  1  0
 21 22  2  0
 22 23  1  0
 23 24  1  0
 23 25  1  0
 23 26  1  0
 22 27  1  0
 27 28  2  0
 28 13  1  0
 28 19  1  0
  1 29  1  0
  1 30  1  0
  1 31  1  0
  3 32  1  0
  3 33  1  0
  4 34  1  0
  4 35  1  0
  5 36  1  0
  9 37  1  0
  9 38  1  0
 16 39  1  0
 18 40  1  0
 20 41  1  0
 21 42  1  0
 27 43  1  0
M  CHG  1  16  -1
M  END
>  <UniqueID>  (6) 
6

>  <SMILES>  (6) 
COCCNC(=O)OCOC(=O)n1c(C([NH-])=O)cc2ccc(C(F)(F)F)cc21

>  <Energy>  (6) 
74.77691309364563

>  <Genealogy>  (6) 
COCCNC(=O)OCOC(=O)n1c(C([NH-])=O)cc2ccc(C(F)(F)F)cc21 (protonated)
COCCNC(=O)OCOC(=O)n1c(C([NH-])=O)cc2ccc(C(F)(F)F)cc21 (3D coordinates assigned)
COCCNC(=O)OCOC(=O)n1c(C([NH-])=O)cc2ccc(C(F)(F)F)cc21 (optimized conformer: 74.77691309364563 kcal/mol)

>  <smiles>  (6) 
COCCNC(=O)OCOC(=O)n1c(C(N)=O)cc2ccc(C(F)(F)F)cc21

>  <score_type>  (6) 
oracle

>  <origin>  (6) 
adg

>  <m_score__min__energy>  (6) 
-5.5999999999999996

>  <m_primary>  (6) 
energy

$$$$
6:0
     RDKit          3D

 42 44  0  0  0  0  0  0  0  0999 V2000
  149.8350  158.3590  132.6010 N   0  0  0  0  0  0  0  0  0  0  0  0
  148.9360  159.4520  132.4090 C   0  0  0  0  0  0  0  0  0  0  0  0
  149.3510  160.4920  131.8320 O   0  0  0  0  0  0  0  0  0  0  0  0
  147.5460  159.3850  132.9130 C   0  0  0  0  0  0  0  0  0  0  0  0
  146.7870  160.5040  133.2510 C   0  0  0  0  0  0  0  0  0  0  0  0
  145.5380  160.0190  133.5630 C   0  0  0  0  0  0  0  0  0  0  0  0
  144.3890  160.6940  133.9580 C   0  0  0  0  0  0  0  0  0  0  0  0
  143.2360  159.9360  134.2200 C   0  0  0  0  0  0  0  0  0  0  0  0
  143.2500  158.5240  134.0960 C   0  0  0  0  0  0  0  0  0  0  0  0
  142.0420  157.7870  134.3660 N   0  0  0  0  0  0  0  0  0  0  0  0
  140.7440  158.4010  134.6510 C   0  0  0  0  0  0  0  0  0  0  0  0
  140.0330  158.7540  133.3800 C   0  0  0  0  0  0  0  0  0  0  0  0
  139.1770  157.9220  132.6700 C   0  0  0  0  0  0  0  0  0  0  0  0
  138.6460  158.5260  131.5250 C   0  0  0  0  0  0  0  0  0  0  0  0
  139.0700  159.8350  131.3370 C   0  0  0  0  0  0  0  0  0  0  0  0
  140.1080  160.2410  132.5970 S   0  0  0  0  0  0  0  0  0  0  0  0
  144.4460  157.8740  133.7030 C   0  0  0  0  0  0  0  0  0  0  0  0
  145.5690  158.6580  133.4180 C   0  0  0  0  0  0  0  0  0  0  0  0
  146.7950  158.2520  133.0180 N   0  0  0  0  0  0  0  0  0  0  0  0
  147.2090  156.8960  132.7790 C   0  0  0  0  0  0  0  0  0  0  0  0
  147.2530  156.4510  131.6000 O   0  0  0  0  0  0  0  0  0  0  0  0
  147.5790  156.0840  133.8570 O   0  0  0  0  0  0  0  0  0  0  0  0
  147.6490  154.6600  133.7890 C   0  0  0  0  0  0  0  0  0  0  0  0
  148.8460  154.2170  132.9510 C   0  0  0  0  0  0  0  0  0  0  0  0
  149.6040  155.3290  132.5630 O   0  0  0  0  0  0  0  0  0  0  0  0
  149.5150  157.4610  133.0250 H   0  0  0  0  0  0  0  0  0  0  0  0
  150.8250  158.4330  132.2760 H   0  0  0  0  0  0  0  0  0  0  0  0
  147.1169  161.5533  133.2653 H   0  0  0  0  0  0  0  0  0  0  0  0
  144.3829  161.7890  134.0623 H   0  0  0  0  0  0  0  0  0  0  0  0
  142.3098  160.4448  134.5255 H   0  0  0  0  0  0  0  0  0  0  0  0
  142.0850  156.7420  134.3720 H   0  0  0  0  0  0  0  0  0  0  0  0
  140.1279  157.6927  135.2244 H   0  0  0  0  0  0  0  0  0  0  0  0
  140.9084  159.3212  135.2309 H   0  0  0  0  0  0  0  0  0  0  0  0
  138.9405  156.8925  132.9768 H   0  0  0  0  0  0  0  0  0  0  0  0
  137.9573  158.0122  130.8382 H   0  0  0  0  0  0  0  0  0  0  0  0
  138.7772  160.4938  130.5062 H   0  0  0  0  0  0  0  0  0  0  0  0
  144.4905  156.7778  133.6238 H   0  0  0  0  0  0  0  0  0  0  0  0
  147.7509  154.2547  134.8065 H   0  0  0  0  0  0  0  0  0  0  0  0
  146.7292  154.2832  133.3180 H   0  0  0  0  0  0  0  0  0  0  0  0
  149.4749  153.5386  133.5462 H   0  0  0  0  0  0  0  0  0  0  0  0
  148.4819  153.6997  132.0511 H   0  0  0  0  0  0  0  0  0  0  0  0
  148.9690  155.9570  132.1310 H   0  0  0  0  0  0  0  0  0  0  0  0
  1  2  1  0
  2  3  2  0
  2  4  1  0
  4  5  2  0
  5  6  1  0
  6  7  2  0
  7  8  1  0
  8  9  2  0
  9 10  1  0
 10 11  1  0
 11 12  1  0
 12 13  2  0
 13 14  1  0
 14 15  2  0
 15 16  1  0
  9 17  1  0
 17 18  2  0
 18 19  1  0
 19 20  1  0
 20 21  2  0
 20 22  1  0
 22 23  1  0
 23 24  1  0
 24 25  1  0
 19  4  1  0
 18  6  1  0
 16 12  1  0
  1 26  1  0
  1 27  1  0
  5 28  1  0
  7 29  1  0
  8 30  1  0
 10 31  1  0
 11 32  1  0
 11 33  1  0
 13 34  1  0
 14 35  1  0
 15 36  1  0
 17 37  1  0
 23 38  1  0
 23 39  1  0
 24 40  1  0
 24 41  1  0
 25 42  1  0
M  END
>  <UniqueID>  (7) 
7

>  <SMILES>  (7) 
NC(=O)c1cc2ccc(NCc3cccs3)cc2n1C(=O)OCCO

>  <Energy>  (7) 
102.04046410824806

>  <Genealogy>  (7) 
NC(=O)c1cc2ccc(NCc3cccs3)cc2n1C(=O)OCCO (3D coordinates assigned)
NC(=O)c1cc2ccc(NCc3cccs3)cc2n1C(=O)OCCO (optimized conformer: 102.04046410824806 kcal/mol)

>  <smiles>  (7) 
NC(=O)c1cc2ccc(NCc3cccs3)cc2n1C(=O)OCCO

>  <score_type>  (7) 
oracle

>  <origin>  (7) 
adg

>  <m_score__min__energy>  (7) 
-7.6200000000000001

>  <m_primary>  (7) 
energy

$$$$
7:0
     RDKit          3D

 39 40  0  0  0  0  0  0  0  0999 V2000
  139.8400  147.7330  130.4120 C   0  0  0  0  0  0  0  0  0  0  0  0
  139.8150  148.6260  131.5840 N   0  0  0  0  0  0  0  0  0  0  0  0
  138.7280  149.6060  131.4250 C   0  0  0  0  0  0  0  0  0  0  0  0
  141.1090  149.3230  131.7500 C   0  0  0  0  0  0  0  0  0  0  0  0
  141.0190  150.3790  132.8640 C   0  0  0  0  0  0  0  0  0  0  0  0
  140.9770  151.8120  132.3110 C   0  0  0  0  0  0  0  0  0  0  0  0
  141.3070  152.8320  133.3710 C   0  0  0  0  0  0  0  0  0  0  0  0
  142.2510  152.5230  134.3800 C   0  0  0  0  0  0  0  0  0  0  0  0
  142.5840  153.4690  135.3630 C   0  0  0  0  0  0  0  0  0  0  0  0
  141.9710  154.7170  135.3000 C   0  0  0  0  0  0  0  0  0  0  0  0
  142.0920  155.8040  136.1370 C   0  0  0  0  0  0  0  0  0  0  0  0
  141.2480  156.7740  135.6030 C   0  0  0  0  0  0  0  0  0  0  0  0
  141.1240  158.1350  136.1600 C   0  0  0  0  0  0  0  0  0  0  0  0
  139.8680  158.6290  136.6280 N   0  0  0  0  0  0  0  0  0  0  0  0
  142.1300  158.8930  136.1700 O   0  0  0  0  0  0  0  0  0  0  0  0
  140.6170  156.3050  134.4890 N   0  0  0  0  0  0  0  0  0  0  0  0
  139.5880  156.9630  133.7300 C   0  0  0  0  0  0  0  0  0  0  0  0
  139.4750  156.7570  132.4940 O   0  0  0  0  0  0  0  0  0  0  0  0
  138.7010  157.8310  134.3570 O   0  0  0  0  0  0  0  0  0  0  0  0
  141.0720  155.0430  134.3150 C   0  0  0  0  0  0  0  0  0  0  0  0
  140.7060  154.1100  133.3380 C   0  0  0  0  0  0  0  0  0  0  0  0
  139.8693  146.6863  130.7491 H   0  0  0  0  0  0  0  0  0  0  0  0
  138.9369  147.8979  129.8060 H   0  0  0  0  0  0  0  0  0  0  0  0
  140.7325  147.9482  129.8060 H   0  0  0  0  0  0  0  0  0  0  0  0
  138.3741  149.9251  132.4164 H   0  0  0  0  0  0  0  0  0  0  0  0
  139.1003  150.4797  130.8699 H   0  0  0  0  0  0  0  0  0  0  0  0
  137.8975  149.1455  130.8699 H   0  0  0  0  0  0  0  0  0  0  0  0
  141.8842  148.5877  132.0114 H   0  0  0  0  0  0  0  0  0  0  0  0
  141.3631  149.8263  130.8055 H   0  0  0  0  0  0  0  0  0  0  0  0
  140.1046  150.1989  133.4483 H   0  0  0  0  0  0  0  0  0  0  0  0
  141.9206  150.2864  133.4874 H   0  0  0  0  0  0  0  0  0  0  0  0
  141.7075  151.8994  131.4933 H   0  0  0  0  0  0  0  0  0  0  0  0
  139.9561  152.0100  131.9526 H   0  0  0  0  0  0  0  0  0  0  0  0
  142.7283  151.5321  134.3941 H   0  0  0  0  0  0  0  0  0  0  0  0
  143.3065  153.2312  136.1577 H   0  0  0  0  0  0  0  0  0  0  0  0
  142.7211  155.8879  137.0355 H   0  0  0  0  0  0  0  0  0  0  0  0
  138.9880  158.0890  136.4810 H   0  0  0  0  0  0  0  0  0  0  0  0
  139.8060  159.5820  137.0520 H   0  0  0  0  0  0  0  0  0  0  0  0
  139.9682  154.3657  132.5632 H   0  0  0  0  0  0  0  0  0  0  0  0
  1  2  1  0
  2  3  1  0
  2  4  1  0
  4  5  1  0
  5  6  1  0
  6  7  1  0
  7  8  2  0
  8  9  1  0
  9 10  2  0
 10 11  1  0
 11 12  2  0
 12 13  1  0
 13 14  1  0
 13 15  2  0
 12 16  1  0
 16 17  1  0
 17 18  2  0
 17 19  1  0
 16 20  1  0
 20 21  2  0
 21  7  1  0
 20 10  1  0
  1 22  1  0
  1 23  1  0
  1 24  1  0
  3 25  1  0
  3 26  1  0
  3 27  1  0
  4 28  1  0
  4 29  1  0
  5 30  1  0
  5 31  1  0
  6 32  1  0
  6 33  1  0
  8 34  1  0
  9 35  1  0
 11 36  1  0
 14 37  1  0
 14 38  1  0
 21 39  1  0
M  CHG  1  19  -1
M  END
>  <UniqueID>  (8) 
8

>  <SMILES>  (8) 
CN(C)CCCc1ccc2cc(C(N)=O)n(C(=O)[O-])c2c1

>  <Energy>  (8) 
75.11228325958527

>  <Genealogy>  (8) 
CN(C)CCCc1ccc2cc(C(N)=O)n(C(=O)[O-])c2c1 (protonated)
CN(C)CCCc1ccc2cc(C(N)=O)n(C(=O)[O-])c2c1 (3D coordinates assigned)
CN(C)CCCc1ccc2cc(C(N)=O)n(C(=O)[O-])c2c1 (optimized conformer: 75.11228325958527 kcal/mol)

>  <smiles>  (8) 
CN(C)CCCc1ccc2cc(C(N)=O)n(C(=O)O)c2c1

>  <score_type>  (8) 
oracle

>  <origin>  (8) 
adg

>  <m_score__min__energy>  (8) 
-6.54

>  <m_primary>  (8) 
energy

$$$$
8:0
     RDKit          3D

 41 42  0  0  0  0  0  0  0  0999 V2000
  137.7850  159.2040  133.3120 H   0  0  0  0  0  0  0  0  0  0  0  0
  138.6430  159.0380  132.6440 C   0  0  0  0  0  0  0  0  0  0  0  0
  139.8310  158.3410  133.1990 C   0  0  0  0  0  0  0  0  0  0  0  0
  139.7460  156.8680  133.3440 C   0  0  0  0  0  0  0  0  0  0  0  0
  139.8580  156.3400  134.4820 O   0  0  0  0  0  0  0  0  0  0  0  0
  139.4740  156.0620  132.2450 O   0  0  0  0  0  0  0  0  0  0  0  0
  140.9270  159.0560  133.5850 C   0  0  0  0  0  0  0  0  0  0  0  0
  142.0140  158.4690  134.4260 C   0  0  0  0  0  0  0  0  0  0  0  0
  141.8290  158.2410  135.6520 O   0  0  0  0  0  0  0  0  0  0  0  0
  143.3220  158.2410  133.8820 N   0  0  0  0  0  0  0  0  0  0  0  0
  143.8830  157.0460  133.5510 C   0  0  0  0  0  0  0  0  0  0  0  0
  143.1890  155.7430  133.5370 C   0  0  0  0  0  0  0  0  0  0  0  0
  143.4120  154.9340  132.5970 O   0  0  0  0  0  0  0  0  0  0  0  0
  142.2360  155.3970  134.5430 N   0  0  0  0  0  0  0  0  0  0  0  0
  141.8610  156.1140  135.2010 H   0  0  0  0  0  0  0  0  0  0  0  0
  141.8120  154.4430  134.5560 H   0  0  0  0  0  0  0  0  0  0  0  0
  145.2400  157.2040  133.2760 C   0  0  0  0  0  0  0  0  0  0  0  0
  145.9563  156.4232  132.9806 H   0  0  0  0  0  0  0  0  0  0  0  0
  145.4930  158.5460  133.4530 C   0  0  0  0  0  0  0  0  0  0  0  0
  146.6840  159.2580  133.3510 C   0  0  0  0  0  0  0  0  0  0  0  0
  147.6179  158.7606  133.0504 H   0  0  0  0  0  0  0  0  0  0  0  0
  146.6570  160.6330  133.6440 C   0  0  0  0  0  0  0  0  0  0  0  0
  147.5845  161.2207  133.5779 H   0  0  0  0  0  0  0  0  0  0  0  0
  145.4480  161.2720  134.0240 C   0  0  0  0  0  0  0  0  0  0  0  0
  145.4440  162.7340  134.3900 C   0  0  0  0  0  0  0  0  0  0  0  0
  144.3060  163.3280  133.8790 F   0  0  0  0  0  0  0  0  0  0  0  0
  146.5580  163.3700  133.8710 F   0  0  0  0  0  0  0  0  0  0  0  0
  145.4570  162.8930  135.7660 F   0  0  0  0  0  0  0  0  0  0  0  0
  144.2650  160.5060  134.1450 C   0  0  0  0  0  0  0  0  0  0  0  0
  143.3245  160.9699  134.4771 H   0  0  0  0  0  0  0  0  0  0  0  0
  144.3210  159.1450  133.8320 C   0  0  0  0  0  0  0  0  0  0  0  0
  141.0250  160.5290  133.2450 C   0  0  0  0  0  0  0  0  0  0  0  0
  141.0642  161.1178  134.1733 H   0  0  0  0  0  0  0  0  0  0  0  0
  141.9372  160.7098  132.6574 H   0  0  0  0  0  0  0  0  0  0  0  0
  140.1448  160.8290  132.6574 H   0  0  0  0  0  0  0  0  0  0  0  0
  138.5490  159.4780  131.3810 C   0  0  0  0  0  0  0  0  0  0  0  0
  137.6071  159.9512  131.0665 H   0  0  0  0  0  0  0  0  0  0  0  0
  139.6520  159.3630  130.3720 C   0  0  0  0  0  0  0  0  0  0  0  0
  140.6159  159.2625  130.8923 H   0  0  0  0  0  0  0  0  0  0  0  0
  139.4815  158.4778  129.7417 H   0  0  0  0  0  0  0  0  0  0  0  0
  139.6678  160.2644  129.7417 H   0  0  0  0  0  0  0  0  0  0  0  0
  1  2  1  0
  2  3  1  0
  3  4  1  0
  4  5  2  0
  4  6  1  0
  3  7  2  0
  7  8  1  0
  8  9  2  0
  8 10  1  0
 10 11  1  0
 11 12  1  0
 12 13  2  0
 12 14  1  0
 14 15  1  0
 14 16  1  0
 11 17  2  0
 17 18  1  0
 17 19  1  0
 19 20  2  0
 20 21  1  0
 20 22  1  0
 22 23  1  0
 22 24  2  0
 24 25  1  0
 25 26  1  0
 25 27  1  0
 25 28  1  0
 24 29  1  0
 29 30  1  0
 29 31  2  0
  7 32  1  0
 32 33  1  0
 32 34  1  0
 32 35  1  0
  2 36  2  0
 36 37  1  0
 36 38  1  0
 38 39  1  0
 38 40  1  0
 38 41  1  0
 31 10  1  0
 31 19  1  0
M  CHG  1   6  -1
M  END
>  <UniqueID>  (9) 
9

>  <SMILES>  (9) 
C/C=C\C(C(=O)[O-])=C(/C)C(=O)n1c(C(N)=O)cc2ccc(C(F)(F)F)cc21

>  <Energy>  (9) 
97.17225510743305

>  <Genealogy>  (9) 
C/C=C\C(C(=O)[O-])=C(/C)C(=O)n1c(C(N)=O)cc2ccc(C(F)(F)F)cc21 (protonated)
C/C=C\C(C(=O)[O-])=C(/C)C(=O)n1c(C(N)=O)cc2ccc(C(F)(F)F)cc21 (cis-trans isomerization)
C/C=C\C(C(=O)[O-])=C(/C)C(=O)n1c(C(N)=O)cc2ccc(C(F)(F)F)cc21 (3D coordinates assigned)
C/C=C\C(C(=O)[O-])=C(/C)C(=O)n1c(C(N)=O)cc2ccc(C(F)(F)F)cc21 (optimized conformer: 97.17225510743305 kcal/mol)

>  <smiles>  (9) 
C/C=C\C(C(=O)O)=C(/C)C(=O)n1c(C(N)=O)cc2ccc(C(F)(F)F)cc21

>  <score_type>  (9) 
oracle

>  <origin>  (9) 
adg

>  <m_score__min__energy>  (9) 
-7.46

>  <m_primary>  (9) 
energy

$$$$
9:0
     RDKit          3D

 46 48  0  0  0  0  0  0  0  0999 V2000
  149.5170  157.1800  132.2310 C   0  0  0  0  0  0  0  0  0  0  0  0
  148.8970  158.5610  131.9890 C   0  0  0  0  0  0  0  0  0  0  0  0
  149.2700  159.0620  130.5900 C   0  0  0  0  0  0  0  0  0  0  0  0
  149.4060  159.4620  132.9490 O   0  0  0  0  0  0  0  0  0  0  0  0
  148.2970  160.0840  133.5120 C   0  0  0  0  0  0  0  0  0  0  0  0
  147.1230  159.1940  133.1990 C   0  0  1  0  0  0  0  0  0  0  0  0
  145.8310  159.9800  132.9410 C   0  0  0  0  0  0  0  0  0  0  0  0
  144.7460  159.1040  132.6320 O   0  0  0  0  0  0  0  0  0  0  0  0
  143.6300  158.9260  133.4610 C   0  0  0  0  0  0  0  0  0  0  0  0
  143.1320  159.9090  134.0720 O   0  0  0  0  0  0  0  0  0  0  0  0
  143.0300  157.6250  133.5690 N   0  0  0  0  0  0  0  0  0  0  0  0
  143.6420  156.4210  133.7750 C   0  0  0  0  0  0  0  0  0  0  0  0
  145.0930  156.1960  133.9790 C   0  0  0  0  0  0  0  0  0  0  0  0
  146.0410  156.6420  133.0070 N   0  0  0  0  0  0  0  0  0  0  0  0
  145.5120  155.5990  135.0040 O   0  0  0  0  0  0  0  0  0  0  0  0
  142.7100  155.3850  133.6970 C   0  0  0  0  0  0  0  0  0  0  0  0
  141.5050  155.9920  133.4340 C   0  0  0  0  0  0  0  0  0  0  0  0
  140.2430  155.4340  133.2530 C   0  0  0  0  0  0  0  0  0  0  0  0
  139.1710  156.3020  132.9900 C   0  0  0  0  0  0  0  0  0  0  0  0
  139.3760  157.7040  132.9310 C   0  0  0  0  0  0  0  0  0  0  0  0
  138.2260  158.6220  132.6240 C   0  0  0  0  0  0  0  0  0  0  0  0
  138.6700  159.7100  131.7010 C   0  0  0  0  0  0  0  0  0  0  0  0
  138.4710  159.6100  130.4610 O   0  0  0  0  0  0  0  0  0  0  0  0
  139.3510  160.8120  132.2020 O   0  0  0  0  0  0  0  0  0  0  0  0
  140.6730  158.2310  133.1110 C   0  0  0  0  0  0  0  0  0  0  0  0
  141.7250  157.3420  133.3570 C   0  0  0  0  0  0  0  0  0  0  0  0
  147.4920  158.4530  132.0790 O   0  0  0  0  0  0  0  0  0  0  0  0
  149.5982  156.9990  133.3130 H   0  0  0  0  0  0  0  0  0  0  0  0
  148.8795  156.4072  131.7768 H   0  0  0  0  0  0  0  0  0  0  0  0
  150.5182  157.1429  131.7768 H   0  0  0  0  0  0  0  0  0  0  0  0
  149.9248  159.9415  130.6780 H   0  0  0  0  0  0  0  0  0  0  0  0
  149.7969  158.2657  130.0438 H   0  0  0  0  0  0  0  0  0  0  0  0
  148.3561  159.3385  130.0438 H   0  0  0  0  0  0  0  0  0  0  0  0
  148.4241  160.1815  134.6003 H   0  0  0  0  0  0  0  0  0  0  0  0
  148.1544  161.0979  133.1098 H   0  0  0  0  0  0  0  0  0  0  0  0
  146.8949  158.5499  134.0611 H   0  0  0  0  0  0  0  0  0  0  0  0
  145.5784  160.5604  133.8407 H   0  0  0  0  0  0  0  0  0  0  0  0
  145.9951  160.6473  132.0821 H   0  0  0  0  0  0  0  0  0  0  0  0
  145.7510  157.2080  132.1800 H   0  0  0  0  0  0  0  0  0  0  0  0
  147.0590  156.4490  133.1430 H   0  0  0  0  0  0  0  0  0  0  0  0
  142.8999  154.3085  133.8202 H   0  0  0  0  0  0  0  0  0  0  0  0
  140.0900  154.3464  133.3141 H   0  0  0  0  0  0  0  0  0  0  0  0
  138.1636  155.8910  132.8284 H   0  0  0  0  0  0  0  0  0  0  0  0
  137.4187  158.0469  132.1469 H   0  0  0  0  0  0  0  0  0  0  0  0
  137.8630  159.0702  133.5607 H   0  0  0  0  0  0  0  0  0  0  0  0
  140.8524  159.3150  133.0591 H   0  0  0  0  0  0  0  0  0  0  0  0
  1  2  1  0
  2  3  1  0
  2  4  1  0
  4  5  1  0
  5  6  1  0
  6  7  1  0
  7  8  1  0
  8  9  1  0
  9 10  2  0
  9 11  1  0
 11 12  1  0
 12 13  1  0
 13 14  1  0
 13 15  2  0
 12 16  2  0
 16 17  1  0
 17 18  2  0
 18 19  1  0
 19 20  2  0
 20 21  1  0
 21 22  1  0
 22 23  2  0
 22 24  1  0
 20 25  1  0
 25 26  2  0
  6 27  1  0
 27  2  1  0
 26 11  1  0
 26 17  1  0
  1 28  1  0
  1 29  1  0
  1 30  1  0
  3 31  1  0
  3 32  1  0
  3 33  1  0
  5 34  1  0
  5 35  1  0
  6 36  1  1
  7 37  1  0
  7 38  1  0
 14 39  1  0
 14 40  1  0
 16 41  1  0
 18 42  1  0
 19 43  1  0
 21 44  1  0
 21 45  1  0
 25 46  1  0
M  CHG  1  24  -1
M  END
>  <UniqueID>  (10) 
10

>  <SMILES>  (10) 
CC1(C)OC[C@@H](COC(=O)n2c(C(N)=O)cc3ccc(CC(=O)[O-])cc32)O1

>  <Energy>  (10) 
73.917612589236

>  <Genealogy>  (10) 
CC1(C)OC[C@@H](COC(=O)n2c(C(N)=O)cc3ccc(CC(=O)[O-])cc32)O1 (protonated)
CC1(C)OC[C@@H](COC(=O)n2c(C(N)=O)cc3ccc(CC(=O)[O-])cc32)O1 (3D coordinates assigned)
CC1(C)OC[C@@H](COC(=O)n2c(C(N)=O)cc3ccc(CC(=O)[O-])cc32)O1 (nonaromatic ring conformer: 73.917612589236 kcal/mol)

>  <smiles>  (10) 
CC1(C)OC[C@@H](COC(=O)n2c(C(N)=O)cc3ccc(CC(=O)O)cc32)O1

>  <score_type>  (10) 
oracle

>  <origin>  (10) 
adg

>  <m_score__min__energy>  (10) 
-8.2599999999999998

>  <m_primary>  (10) 
energy

$$$$
10:0
     RDKit          3D

 31 32  0  0  0  0  0  0  0  0999 V2000
  149.6360  162.0430  130.3440 C   0  0  0  0  0  0  0  0  0  0  0  0
  149.1280  161.0910  130.8830 C   0  0  0  0  0  0  0  0  0  0  0  0
  148.5220  159.9550  131.5270 C   0  0  0  0  0  0  0  0  0  0  0  0
  149.2080  158.7190  131.5690 C   0  0  0  0  0  0  0  0  0  0  0  0
  148.6310  157.6070  132.2030 C   0  0  0  0  0  0  0  0  0  0  0  0
  147.3710  157.7630  132.7770 C   0  0  0  0  0  0  0  0  0  0  0  0
  146.5950  156.8620  133.4690 C   0  0  0  0  0  0  0  0  0  0  0  0
  145.4390  157.5590  133.8160 C   0  0  0  0  0  0  0  0  0  0  0  0
  144.2870  156.9310  134.4960 C   0  0  0  0  0  0  0  0  0  0  0  0
  143.1520  157.7030  134.8810 N   0  0  0  0  0  0  0  0  0  0  0  0
  144.2830  155.6870  134.6980 O   0  0  0  0  0  0  0  0  0  0  0  0
  145.5040  158.8440  133.3670 N   0  0  0  0  0  0  0  0  0  0  0  0
  144.5540  159.9010  133.5760 C   0  0  0  0  0  0  0  0  0  0  0  0
  144.9250  160.9830  134.1090 O   0  0  0  0  0  0  0  0  0  0  0  0
  143.2280  159.7310  133.1700 O   0  0  0  0  0  0  0  0  0  0  0  0
  142.1550  160.5340  133.6600 C   0  0  0  0  0  0  0  0  0  0  0  0
  141.0600  159.7330  134.0390 O   0  0  0  0  0  0  0  0  0  0  0  0
  140.8280  158.5540  132.8320 P   0  0  0  0  0  0  0  0  0  0  0  0
  142.1440  157.6540  132.2680 O   0  0  0  0  0  0  0  0  0  0  0  0
  139.2520  158.2800  132.1780 S   0  0  0  0  0  0  0  0  0  0  0  0
  146.6900  158.9520  132.7280 C   0  0  0  0  0  0  0  0  0  0  0  0
  147.2480  160.0820  132.1180 C   0  0  0  0  0  0  0  0  0  0  0  0
  150.0993  162.9112  129.8524 H   0  0  0  0  0  0  0  0  0  0  0  0
  150.1998  158.6282  131.1020 H   0  0  0  0  0  0  0  0  0  0  0  0
  149.1576  156.6422  132.2453 H   0  0  0  0  0  0  0  0  0  0  0  0
  146.8359  155.8137  133.6995 H   0  0  0  0  0  0  0  0  0  0  0  0
  142.7060  158.3710  134.2150 H   0  0  0  0  0  0  0  0  0  0  0  0
  142.5025  161.1054  134.5333 H   0  0  0  0  0  0  0  0  0  0  0  0
  141.8316  161.2151  132.8590 H   0  0  0  0  0  0  0  0  0  0  0  0
  142.9250  158.0280  132.7490 H   0  0  0  0  0  0  0  0  0  0  0  0
  146.7085  161.0405  132.1003 H   0  0  0  0  0  0  0  0  0  0  0  0
  1  2  3  0
  2  3  1  0
  3  4  2  0
  4  5  1  0
  5  6  2  0
  6  7  1  0
  7  8  2  0
  8  9  1  0
  9 10  1  0
  9 11  2  0
  8 12  1  0
 12 13  1  0
 13 14  2  0
 13 15  1  0
 15 16  1  0
 16 17  1  0
 17 18  1  0
 18 19  1  0
 18 20  2  0
 12 21  1  0
 21 22  2  0
 22  3  1  0
 21  6  1  0
  1 23  1  0
  4 24  1  0
  5 25  1  0
  7 26  1  0
 10 27  1  0
 16 28  1  0
 16 29  1  0
 19 30  1  0
 22 31  1  0
M  CHG  2  10  -1  18   1
M  END
>  <UniqueID>  (11) 
11

>  <SMILES>  (11) 
C#Cc1ccc2cc(C([NH-])=O)n(C(=O)OCO[P+](O)=S)c2c1

>  <Energy>  (11) 
86.76008699308662

>  <Genealogy>  (11) 
C#Cc1ccc2cc(C([NH-])=O)n(C(=O)OCO[P+](O)=S)c2c1 (protonated)
C#Cc1ccc2cc(C([NH-])=O)n(C(=O)OCO[P+](O)=S)c2c1 (chirality)
C#Cc1ccc2cc(C([NH-])=O)n(C(=O)OCO[P+](O)=S)c2c1 (3D coordinates assigned)
C#Cc1ccc2cc(C([NH-])=O)n(C(=O)OCO[P+](O)=S)c2c1 (optimized conformer: 86.76008699308662 kcal/mol)

>  <smiles>  (11) 
C#Cc1ccc2cc(C(N)=O)n(C(=O)OCO[P+]([O-])=S)c2c1

>  <score_type>  (11) 
oracle

>  <origin>  (11) 
adg

>  <m_score__min__energy>  (11) 
-5.8300000000000001

>  <m_primary>  (11) 
energy

$$$$
11:0
     RDKit          3D

 47 48  0  0  0  0  0  0  0  0999 V2000
  140.7500  155.6440  133.3740 C   0  0  0  0  0  0  0  0  0  0  0  0
  140.4850  157.1460  133.3870 C   0  0  0  0  0  0  0  0  0  0  0  0
  139.6560  157.4510  134.4560 F   0  0  0  0  0  0  0  0  0  0  0  0
  139.8230  157.4990  132.2220 F   0  0  0  0  0  0  0  0  0  0  0  0
  141.7870  157.9100  133.4990 C   0  0  0  0  0  0  0  0  0  0  0  0
  141.7770  159.3150  133.7020 C   0  0  0  0  0  0  0  0  0  0  0  0
  142.9790  160.0380  133.7890 C   0  0  0  0  0  0  0  0  0  0  0  0
  144.1710  159.3380  133.6480 C   0  0  0  0  0  0  0  0  0  0  0  0
  145.4720  159.7810  133.7220 C   0  0  0  0  0  0  0  0  0  0  0  0
  146.2600  158.6480  133.5200 C   0  0  0  0  0  0  0  0  0  0  0  0
  147.7330  158.6800  133.4400 C   0  0  0  0  0  0  0  0  0  0  0  0
  148.5080  157.5620  133.8790 N   0  0  0  0  0  0  0  0  0  0  0  0
  148.3210  159.7110  133.0210 O   0  0  0  0  0  0  0  0  0  0  0  0
  145.4780  157.5480  133.3390 N   0  0  0  0  0  0  0  0  0  0  0  0
  145.8930  156.1790  133.1770 C   0  0  0  0  0  0  0  0  0  0  0  0
  146.9330  155.9260  132.5110 O   0  0  0  0  0  0  0  0  0  0  0  0
  145.1520  155.0890  133.7740 N   0  0  0  0  0  0  0  0  0  0  0  0
  145.2490  154.9730  135.2460 C   0  0  0  0  0  0  0  0  0  0  0  0
  146.6230  154.5660  135.6880 C   0  0  0  0  0  0  0  0  0  0  0  0
  147.6070  155.3260  135.4850 O   0  0  0  0  0  0  0  0  0  0  0  0
  146.8100  153.3650  136.3650 O   0  0  0  0  0  0  0  0  0  0  0  0
  144.6490  153.9660  132.9210 C   0  0  0  0  0  0  0  0  0  0  0  0
  143.3440  153.3660  133.4960 C   0  0  0  0  0  0  0  0  0  0  0  0
  145.6720  152.8040  132.8280 C   0  0  0  0  0  0  0  0  0  0  0  0
  144.3630  154.4910  131.5000 C   0  0  0  0  0  0  0  0  0  0  0  0
  144.2020  157.9880  133.4110 C   0  0  0  0  0  0  0  0  0  0  0  0
  143.0220  157.2390  133.3360 C   0  0  0  0  0  0  0  0  0  0  0  0
  140.8152  155.2742  134.4079 H   0  0  0  0  0  0  0  0  0  0  0  0
  139.9285  155.1312  132.8523 H   0  0  0  0  0  0  0  0  0  0  0  0
  141.6974  155.4433  132.8523 H   0  0  0  0  0  0  0  0  0  0  0  0
  140.8169  159.8442  133.7923 H   0  0  0  0  0  0  0  0  0  0  0  0
  142.9763  161.1241  133.9633 H   0  0  0  0  0  0  0  0  0  0  0  0
  145.8170  160.8099  133.9021 H   0  0  0  0  0  0  0  0  0  0  0  0
  148.0530  156.6800  134.2060 H   0  0  0  0  0  0  0  0  0  0  0  0
  149.5520  157.6050  133.8460 H   0  0  0  0  0  0  0  0  0  0  0  0
  145.0051  155.9467  135.6958 H   0  0  0  0  0  0  0  0  0  0  0  0
  144.5427  154.1957  135.5729 H   0  0  0  0  0  0  0  0  0  0  0  0
  143.3849  153.3848  134.5951 H   0  0  0  0  0  0  0  0  0  0  0  0
  142.4844  153.9593  133.1509 H   0  0  0  0  0  0  0  0  0  0  0  0
  143.2348  152.3273  133.1509 H   0  0  0  0  0  0  0  0  0  0  0  0
  145.9549  152.4826  133.8412 H   0  0  0  0  0  0  0  0  0  0  0  0
  145.2192  151.9591  132.2884 H   0  0  0  0  0  0  0  0  0  0  0  0
  146.5674  153.1461  132.2884 H   0  0  0  0  0  0  0  0  0  0  0  0
  143.8377  155.4553  131.5642 H   0  0  0  0  0  0  0  0  0  0  0  0
  145.3123  154.6258  130.9609 H   0  0  0  0  0  0  0  0  0  0  0  0
  143.7349  153.7665  130.9609 H   0  0  0  0  0  0  0  0  0  0  0  0
  143.0540  156.1545  133.1547 H   0  0  0  0  0  0  0  0  0  0  0  0
  1  2  1  0
  2  3  1  0
  2  4  1  0
  2  5  1  0
  5  6  2  0
  6  7  1  0
  7  8  2  0
  8  9  1  0
  9 10  2  0
 10 11  1  0
 11 12  1  0
 11 13  2  0
 10 14  1  0
 14 15  1  0
 15 16  2  0
 15 17  1  0
 17 18  1  0
 18 19  1  0
 19 20  2  0
 19 21  1  0
 17 22  1  0
 22 23  1  0
 22 24  1  0
 22 25  1  0
 14 26  1  0
 26 27  2  0
 27  5  1  0
 26  8  1  0
  1 28  1  0
  1 29  1  0
  1 30  1  0
  6 31  1  0
  7 32  1  0
  9 33  1  0
 12 34  1  0
 12 35  1  0
 18 36  1  0
 18 37  1  0
 23 38  1  0
 23 39  1  0
 23 40  1  0
 24 41  1  0
 24 42  1  0
 24 43  1  0
 25 44  1  0
 25 45  1  0
 25 46  1  0
 27 47  1  0
M  CHG  1  21  -1
M  END
>  <UniqueID>  (12) 
12

>  <SMILES>  (12) 
CC(F)(F)c1ccc2cc(C(N)=O)n(C(=O)N(CC(=O)[O-])C(C)(C)C)c2c1

>  <Energy>  (12) 
88.09191321233155

>  <Genealogy>  (12) 
CC(F)(F)c1ccc2cc(C(N)=O)n(C(=O)N(CC(=O)[O-])C(C)(C)C)c2c1 (protonated)
CC(F)(F)c1ccc2cc(C(N)=O)n(C(=O)N(CC(=O)[O-])C(C)(C)C)c2c1 (3D coordinates assigned)
CC(F)(F)c1ccc2cc(C(N)=O)n(C(=O)N(CC(=O)[O-])C(C)(C)C)c2c1 (optimized conformer: 88.09191321233155 kcal/mol)

>  <smiles>  (12) 
CC(F)(F)c1ccc2cc(C(N)=O)n(C(=O)N(CC(=O)O)C(C)(C)C)c2c1

>  <score_type>  (12) 
oracle

>  <origin>  (12) 
adg

>  <m_score__min__energy>  (12) 
-7.0999999999999996

>  <m_primary>  (12) 
energy

$$$$
12:0
     RDKit          3D

 35 37  0  0  0  0  0  0  0  0999 V2000
  149.0010  157.4980  131.8580 N   0  0  0  0  0  0  0  0  0  0  0  0
  148.6500  158.6590  132.6120 C   0  0  0  0  0  0  0  0  0  0  0  0
  149.5400  159.5060  132.8900 O   0  0  0  0  0  0  0  0  0  0  0  0
  147.2530  158.9170  133.0120 C   0  0  0  0  0  0  0  0  0  0  0  0
  146.7230  160.1950  133.1580 C   0  0  0  0  0  0  0  0  0  0  0  0
  145.3970  160.0040  133.4690 C   0  0  0  0  0  0  0  0  0  0  0  0
  144.4000  160.9360  133.7350 C   0  0  0  0  0  0  0  0  0  0  0  0
  143.1220  160.4590  134.0660 C   0  0  0  0  0  0  0  0  0  0  0  0
  142.8570  159.0650  134.1380 C   0  0  0  0  0  0  0  0  0  0  0  0
  141.5380  158.5850  134.4940 N   0  0  0  0  0  0  0  0  0  0  0  0
  140.9710  158.6830  135.8310 C   0  0  0  0  0  0  0  0  0  0  0  0
  139.5210  158.2370  135.7020 C   0  0  0  0  0  0  0  0  0  0  0  0
  139.4520  157.4510  134.3930 C   0  0  1  0  0  0  0  0  0  0  0  0
  138.2340  157.6660  133.7310 O   0  0  0  0  0  0  0  0  0  0  0  0
  140.6190  157.9590  133.5540 C   0  0  0  0  0  0  0  0  0  0  0  0
  143.9050  158.1510  133.8620 C   0  0  0  0  0  0  0  0  0  0  0  0
  145.1640  158.6540  133.5130 C   0  0  0  0  0  0  0  0  0  0  0  0
  146.2980  157.9700  133.2350 N   0  0  0  0  0  0  0  0  0  0  0  0
  146.4850  156.5450  133.2970 C   0  0  0  0  0  0  0  0  0  0  0  0
  146.7790  155.8940  132.2600 O   0  0  0  0  0  0  0  0  0  0  0  0
  146.3370  155.8710  134.5030 O   0  0  0  0  0  0  0  0  0  0  0  0
  148.2670  156.8650  131.4700 H   0  0  0  0  0  0  0  0  0  0  0  0
  150.0000  157.3130  131.6140 H   0  0  0  0  0  0  0  0  0  0  0  0
  147.2516  161.1534  133.0482 H   0  0  0  0  0  0  0  0  0  0  0  0
  144.6067  162.0154  133.6875 H   0  0  0  0  0  0  0  0  0  0  0  0
  142.3133  161.1754  134.2728 H   0  0  0  0  0  0  0  0  0  0  0  0
  141.5134  158.0252  136.5260 H   0  0  0  0  0  0  0  0  0  0  0  0
  141.0454  159.7063  136.2277 H   0  0  0  0  0  0  0  0  0  0  0  0
  139.2386  157.5966  136.5506 H   0  0  0  0  0  0  0  0  0  0  0  0
  138.8289  159.0920  135.7023 H   0  0  0  0  0  0  0  0  0  0  0  0
  139.5143  156.3675  134.5725 H   0  0  0  0  0  0  0  0  0  0  0  0
  137.9690  156.7920  133.3400 H   0  0  0  0  0  0  0  0  0  0  0  0
  141.1112  157.1228  133.0358 H   0  0  0  0  0  0  0  0  0  0  0  0
  140.2851  158.6666  132.7809 H   0  0  0  0  0  0  0  0  0  0  0  0
  143.7320  157.0663  133.9210 H   0  0  0  0  0  0  0  0  0  0  0  0
  1  2  1  0
  2  3  2  0
  2  4  1  0
  4  5  2  0
  5  6  1  0
  6  7  2  0
  7  8  1  0
  8  9  2  0
  9 10  1  0
 10 11  1  0
 11 12  1  0
 12 13  1  0
 13 14  1  0
 13 15  1  0
  9 16  1  0
 16 17  2  0
 17 18  1  0
 18 19  1  0
 19 20  2  0
 19 21  1  0
 18  4  1  0
 17  6  1  0
 15 10  1  0
  1 22  1  0
  1 23  1  0
  5 24  1  0
  7 25  1  0
  8 26  1  0
 11 27  1  0
 11 28  1  0
 12 29  1  0
 12 30  1  0
 13 31  1  1
 14 32  1  0
 15 33  1  0
 15 34  1  0
 16 35  1  0
M  CHG  1  21  -1
M  END
>  <UniqueID>  (13) 
13

>  <SMILES>  (13) 
NC(=O)c1cc2ccc(N3CC[C@@H](O)C3)cc2n1C(=O)[O-]

>  <Energy>  (13) 
78.38112072372483

>  <Genealogy>  (13) 
NC(=O)c1cc2ccc(N3CCC(O)C3)cc2n1C(=O)[O-] (protonated)
NC(=O)c1cc2ccc(N3CC[C@@H](O)C3)cc2n1C(=O)[O-] (chirality)
NC(=O)c1cc2ccc(N3CC[C@@H](O)C3)cc2n1C(=O)[O-] (3D coordinates assigned)
NC(=O)c1cc2ccc(N3CC[C@@H](O)C3)cc2n1C(=O)[O-] (nonaromatic ring conformer: 78.38112072372483 kcal/mol)

>  <smiles>  (13) 
NC(=O)c1cc2ccc(N3CCC(O)C3)cc2n1C(=O)O

>  <score_type>  (13) 
oracle

>  <origin>  (13) 
adg

>  <m_score__min__energy>  (13) 
-6.8899999999999997

>  <m_primary>  (13) 
energy

$$$$
13:0
     RDKit          3D

 30 31  0  0  0  0  0  0  0  0999 V2000
  143.3610  161.4770  133.7210 N   0  0  0  0  0  0  0  0  0  0  0  0
  144.7630  161.5010  133.9750 C   0  0  0  0  0  0  0  0  0  0  0  0
  145.2630  162.4860  134.5790 O   0  0  0  0  0  0  0  0  0  0  0  0
  145.6270  160.3640  133.5920 C   0  0  0  0  0  0  0  0  0  0  0  0
  146.9920  160.4890  133.3500 C   0  0  0  0  0  0  0  0  0  0  0  0
  147.4410  159.2100  133.1160 C   0  0  0  0  0  0  0  0  0  0  0  0
  148.7170  158.7510  132.8100 C   0  0  0  0  0  0  0  0  0  0  0  0
  148.8860  157.3750  132.5880 C   0  0  0  0  0  0  0  0  0  0  0  0
  147.7890  156.4820  132.6680 C   0  0  0  0  0  0  0  0  0  0  0  0
  148.0120  155.0810  132.4170 N   0  0  0  0  0  0  0  0  0  0  0  0
  148.1190  154.0540  133.4550 C   0  0  0  0  0  0  0  0  0  0  0  0
  148.9690  152.8720  132.9770 C   0  0  0  0  0  0  0  0  0  0  0  0
  149.5470  153.1540  131.7320 O   0  0  0  0  0  0  0  0  0  0  0  0
  146.5020  156.9910  132.9750 C   0  0  0  0  0  0  0  0  0  0  0  0
  146.3660  158.3640  133.2130 C   0  0  0  0  0  0  0  0  0  0  0  0
  145.2430  159.0580  133.5020 N   0  0  0  0  0  0  0  0  0  0  0  0
  143.9140  158.5200  133.6010 C   0  0  0  0  0  0  0  0  0  0  0  0
  143.4060  157.8940  132.6340 O   0  0  0  0  0  0  0  0  0  0  0  0
  143.1850  158.6640  134.7750 O   0  0  0  0  0  0  0  0  0  0  0  0
  142.8130  160.5930  133.8190 H   0  0  0  0  0  0  0  0  0  0  0  0
  147.5861  161.4148  133.3466 H   0  0  0  0  0  0  0  0  0  0  0  0
  149.5682  159.4446  132.7438 H   0  0  0  0  0  0  0  0  0  0  0  0
  149.8859  156.9841  132.3482 H   0  0  0  0  0  0  0  0  0  0  0  0
  148.1040  154.7640  131.4250 H   0  0  0  0  0  0  0  0  0  0  0  0
  148.5858  154.4939  134.3486 H   0  0  0  0  0  0  0  0  0  0  0  0
  147.1088  153.6861  133.6875 H   0  0  0  0  0  0  0  0  0  0  0  0
  149.7657  152.6792  133.7105 H   0  0  0  0  0  0  0  0  0  0  0  0
  148.3231  151.9872  132.8768 H   0  0  0  0  0  0  0  0  0  0  0  0
  150.5310  153.1150  131.8580 H   0  0  0  0  0  0  0  0  0  0  0  0
  145.6300  156.3224  133.0251 H   0  0  0  0  0  0  0  0  0  0  0  0
  1  2  1  0
  2  3  2  0
  2  4  1  0
  4  5  2  0
  5  6  1  0
  6  7  2  0
  7  8  1  0
  8  9  2  0
  9 10  1  0
 10 11  1  0
 11 12  1  0
 12 13  1  0
  9 14  1  0
 14 15  2  0
 15 16  1  0
 16 17  1  0
 17 18  2  0
 17 19  1  0
 16  4  1  0
 15  6  1  0
  1 20  1  0
  5 21  1  0
  7 22  1  0
  8 23  1  0
 10 24  1  0
 11 25  1  0
 11 26  1  0
 12 27  1  0
 12 28  1  0
 13 29  1  0
 14 30  1  0
M  CHG  2   1  -1  19  -1
M  END
>  <UniqueID>  (14) 
14

>  <SMILES>  (14) 
[NH-]C(=O)c1cc2ccc(NCCO)cc2n1C(=O)[O-]

>  <Energy>  (14) 
67.75591693947943

>  <Genealogy>  (14) 
[NH-]C(=O)c1cc2ccc(NCCO)cc2n1C(=O)[O-] (protonated)
[NH-]C(=O)c1cc2ccc(NCCO)cc2n1C(=O)[O-] (3D coordinates assigned)
[NH-]C(=O)c1cc2ccc(NCCO)cc2n1C(=O)[O-] (optimized conformer: 67.75591693947943 kcal/mol)

>  <smiles>  (14) 
NC(=O)c1cc2ccc(NCCO)cc2n1C(=O)O

>  <score_type>  (14) 
oracle

>  <origin>  (14) 
adg

>  <m_score__min__energy>  (14) 
-6.2999999999999998

>  <m_primary>  (14) 
energy

$$$$
14:0
     RDKit          3D

 55 57  0  0  0  0  0  0  0  0999 V2000
  141.4160  149.7210  133.1240 C   0  0  0  0  0  0  0  0  0  0  0  0
  142.3150  150.9170  133.0440 C   0  0  0  0  0  0  0  0  0  0  0  0
  143.6540  150.7720  132.6050 C   0  0  0  0  0  0  0  0  0  0  0  0
  144.4930  151.8930  132.4830 C   0  0  0  0  0  0  0  0  0  0  0  0
  143.9640  153.1410  132.7980 C   0  0  0  0  0  0  0  0  0  0  0  0
  144.5430  154.3880  132.7520 C   0  0  0  0  0  0  0  0  0  0  0  0
  143.5460  155.2750  133.1520 C   0  0  0  0  0  0  0  0  0  0  0  0
  143.7540  156.7310  133.3100 C   0  0  0  0  0  0  0  0  0  0  0  0
  144.4510  157.2300  134.4470 N   0  0  0  0  0  0  0  0  0  0  0  0
  143.3240  157.5450  132.4520 O   0  0  0  0  0  0  0  0  0  0  0  0
  142.3970  154.6020  133.4370 N   0  0  0  0  0  0  0  0  0  0  0  0
  141.1510  155.1500  133.8940 C   0  0  0  0  0  0  0  0  0  0  0  0
  140.2070  155.3260  133.0740 O   0  0  0  0  0  0  0  0  0  0  0  0
  140.9800  155.5670  135.3290 C   0  0  0  0  0  0  0  0  0  0  0  0
  142.2730  155.9390  135.9970 C   0  0  0  0  0  0  0  0  0  0  0  0
  143.1820  155.0820  136.1880 O   0  0  0  0  0  0  0  0  0  0  0  0
  142.4460  157.2560  136.4290 O   0  0  0  0  0  0  0  0  0  0  0  0
  141.3570  158.1290  136.7060 C   0  0  0  0  0  0  0  0  0  0  0  0
  141.3510  159.2390  135.6930 C   0  0  0  0  0  0  0  0  0  0  0  0
  140.7880  160.2880  135.9700 O   0  0  0  0  0  0  0  0  0  0  0  0
  141.9510  159.0500  134.3840 N   0  0  2  0  0  0  0  0  0  0  0  0
  142.9020  160.1410  134.0960 C   0  0  0  0  0  0  0  0  0  0  0  0
  140.9040  158.8260  133.3420 C   0  0  0  0  0  0  0  0  0  0  0  0
  140.5810  160.1120  132.5530 C   0  0  0  0  0  0  0  0  0  0  0  0
  139.5120  159.8470  131.4690 C   0  0  0  0  0  0  0  0  0  0  0  0
  139.0090  158.5210  131.5020 O   0  0  0  0  0  0  0  0  0  0  0  0
  138.4800  158.2390  132.7840 C   0  0  0  0  0  0  0  0  0  0  0  0
  139.5870  158.1920  133.8600 C   0  0  0  0  0  0  0  0  0  0  0  0
  142.6690  153.2980  133.2190 C   0  0  0  0  0  0  0  0  0  0  0  0
  141.8070  152.2010  133.3360 C   0  0  0  0  0  0  0  0  0  0  0  0
  141.2293  149.4726  134.1792 H   0  0  0  0  0  0  0  0  0  0  0  0
  140.4614  149.9458  132.6258 H   0  0  0  0  0  0  0  0  0  0  0  0
  141.8973  148.8665  132.6258 H   0  0  0  0  0  0  0  0  0  0  0  0
  144.0408  149.7725  132.3572 H   0  0  0  0  0  0  0  0  0  0  0  0
  145.5356  151.7871  132.1488 H   0  0  0  0  0  0  0  0  0  0  0  0
  145.5751  154.6330  132.4609 H   0  0  0  0  0  0  0  0  0  0  0  0
  144.2880  156.8270  135.3950 H   0  0  0  0  0  0  0  0  0  0  0  0
  140.3069  156.4364  135.3622 H   0  0  0  0  0  0  0  0  0  0  0  0
  140.5686  154.7038  135.8727 H   0  0  0  0  0  0  0  0  0  0  0  0
  140.4115  157.5699  136.6463 H   0  0  0  0  0  0  0  0  0  0  0  0
  141.4645  158.5487  137.7171 H   0  0  0  0  0  0  0  0  0  0  0  0
  142.5240  158.1780  134.4310 H   0  0  0  0  0  0  0  0  0  0  0  0
  143.2713  160.5647  135.0416 H   0  0  0  0  0  0  0  0  0  0  0  0
  143.7488  159.7457  133.5159 H   0  0  0  0  0  0  0  0  0  0  0  0
  142.3947  160.9260  133.5159 H   0  0  0  0  0  0  0  0  0  0  0  0
  141.3651  158.0856  132.6718 H   0  0  0  0  0  0  0  0  0  0  0  0
  140.2045  160.8756  133.2495 H   0  0  0  0  0  0  0  0  0  0  0  0
  141.5006  160.4586  132.0589 H   0  0  0  0  0  0  0  0  0  0  0  0
  138.6750  160.5438  131.6237 H   0  0  0  0  0  0  0  0  0  0  0  0
  139.9914  159.9939  130.4899 H   0  0  0  0  0  0  0  0  0  0  0  0
  137.7558  159.0227  133.0513 H   0  0  0  0  0  0  0  0  0  0  0  0
  137.9959  157.2520  132.7461 H   0  0  0  0  0  0  0  0  0  0  0  0
  139.2476  158.7460  134.7476 H   0  0  0  0  0  0  0  0  0  0  0  0
  139.7836  157.1390  134.1099 H   0  0  0  0  0  0  0  0  0  0  0  0
  140.7607  152.3364  133.6475 H   0  0  0  0  0  0  0  0  0  0  0  0
  1  2  1  0
  2  3  2  0
  3  4  1  0
  4  5  2  0
  5  6  1  0
  6  7  2  0
  7  8  1  0
  8  9  1  0
  8 10  2  0
  7 11  1  0
 11 12  1  0
 12 13  2  0
 12 14  1  0
 14 15  1  0
 15 16  2  0
 15 17  1  0
 17 18  1  0
 18 19  1  0
 19 20  2  0
 19 21  1  0
 21 22  1  0
 21 23  1  0
 23 24  1  0
 24 25  1  0
 25 26  1  0
 26 27  1  0
 27 28  1  0
 11 29  1  0
 29 30  2  0
 30  2  1  0
 29  5  1  0
 28 23  1  0
  1 31  1  0
  1 32  1  0
  1 33  1  0
  3 34  1  0
  4 35  1  0
  6 36  1  0
  9 37  1  0
 14 38  1  0
 14 39  1  0
 18 40  1  0
 18 41  1  0
 21 42  1  1
 22 43  1  0
 22 44  1  0
 22 45  1  0
 23 46  1  0
 24 47  1  0
 24 48  1  0
 25 49  1  0
 25 50  1  0
 27 51  1  0
 27 52  1  0
 28 53  1  0
 28 54  1  0
 30 55  1  0
M  CHG  2   9  -1  21   1
M  END
>  <UniqueID>  (15) 
15

>  <SMILES>  (15) 
Cc1ccc2cc(C([NH-])=O)n(C(=O)CC(=O)OCC(=O)[N@H+](C)C3CCOCC3)c2c1

>  <Energy>  (15) 
105.36927816996594

>  <Genealogy>  (15) 
Cc1ccc2cc(C([NH-])=O)n(C(=O)CC(=O)OCC(=O)[NH+](C)C3CCOCC3)c2c1 (protonated)
Cc1ccc2cc(C([NH-])=O)n(C(=O)CC(=O)OCC(=O)[N@H+](C)C3CCOCC3)c2c1 (chirality)
Cc1ccc2cc(C([NH-])=O)n(C(=O)CC(=O)OCC(=O)[N@H+](C)C3CCOCC3)c2c1 (3D coordinates assigned)
Cc1ccc2cc(C([NH-])=O)n(C(=O)CC(=O)OCC(=O)[N@H+](C)C3CCOCC3)c2c1 (nonaromatic ring conformer: 105.36927816996594 kcal/mol)

>  <smiles>  (15) 
Cc1ccc2cc(C(N)=O)n(C(=O)CC(=O)OCC(=O)N(C)C3CCOCC3)c2c1

>  <score_type>  (15) 
oracle

>  <origin>  (15) 
adg

>  <m_score__min__energy>  (15) 
-6.9199999999999999

>  <m_primary>  (15) 
energy

$$$$
15:0
     RDKit          3D

 46 48  0  0  0  0  0  0  0  0999 V2000
  143.2300  158.1380  133.8430 C   0  0  0  0  0  0  0  0  0  0  0  0
  141.9860  158.8400  133.2920 C   0  0  0  0  0  0  0  0  0  0  0  0
  141.7150  160.1300  134.0640 C   0  0  0  0  0  0  0  0  0  0  0  0
  140.8490  157.9860  133.4080 O   0  0  0  0  0  0  0  0  0  0  0  0
  140.2520  157.6530  134.6300 C   0  0  0  0  0  0  0  0  0  0  0  0
  139.0650  158.0010  134.8770 O   0  0  0  0  0  0  0  0  0  0  0  0
  140.9920  156.8880  135.5940 N   0  0  0  0  0  0  0  0  0  0  0  0
  141.3570  157.2530  136.8570 C   0  0  0  0  0  0  0  0  0  0  0  0
  141.1860  158.5930  137.4570 C   0  0  0  0  0  0  0  0  0  0  0  0
  140.4520  159.5950  136.7560 N   0  0  0  0  0  0  0  0  0  0  0  0
  141.6490  158.8530  138.5980 O   0  0  0  0  0  0  0  0  0  0  0  0
  142.0030  156.2000  137.5010 C   0  0  0  0  0  0  0  0  0  0  0  0
  142.0280  155.1730  136.5860 C   0  0  0  0  0  0  0  0  0  0  0  0
  142.5400  153.8840  136.7000 C   0  0  0  0  0  0  0  0  0  0  0  0
  142.4010  153.0200  135.6020 C   0  0  0  0  0  0  0  0  0  0  0  0
  141.7520  153.4500  134.4160 C   0  0  0  0  0  0  0  0  0  0  0  0
  141.5950  152.5470  133.3020 N   0  0  0  0  0  0  0  0  0  0  0  0
  142.7850  151.9560  132.6660 C   0  0  0  0  0  0  0  0  0  0  0  0
  142.8130  150.4440  132.8830 C   0  0  0  0  0  0  0  0  0  0  0  0
  141.2980  149.7210  132.2820 S   0  0  0  0  0  0  0  0  0  0  0  0
  140.6660  148.8860  133.3600 O   0  0  0  0  0  0  0  0  0  0  0  0
  141.5780  148.8630  131.0800 O   0  0  0  0  0  0  0  0  0  0  0  0
  140.2030  151.0520  131.8280 C   0  0  0  0  0  0  0  0  0  0  0  0
  140.2300  152.1550  132.8960 C   0  0  0  0  0  0  0  0  0  0  0  0
  141.2430  154.7670  134.3420 C   0  0  0  0  0  0  0  0  0  0  0  0
  141.4120  155.6120  135.4450 C   0  0  0  0  0  0  0  0  0  0  0  0
  143.2029  158.1533  134.9426 H   0  0  0  0  0  0  0  0  0  0  0  0
  143.2491  157.0960  133.4912 H   0  0  0  0  0  0  0  0  0  0  0  0
  144.1319  158.6604  133.4912 H   0  0  0  0  0  0  0  0  0  0  0  0
  142.1669  159.0778  132.2334 H   0  0  0  0  0  0  0  0  0  0  0  0
  141.7577  159.9267  135.1442 H   0  0  0  0  0  0  0  0  0  0  0  0
  142.4750  160.8807  133.8018 H   0  0  0  0  0  0  0  0  0  0  0  0
  140.7171  160.5115  133.8018 H   0  0  0  0  0  0  0  0  0  0  0  0
  139.4700  159.4230  136.4470 H   0  0  0  0  0  0  0  0  0  0  0  0
  142.4073  156.1915  138.5240 H   0  0  0  0  0  0  0  0  0  0  0  0
  143.0386  153.5520  137.6226 H   0  0  0  0  0  0  0  0  0  0  0  0
  142.8004  151.9968  135.6621 H   0  0  0  0  0  0  0  0  0  0  0  0
  142.7605  152.1663  131.5866 H   0  0  0  0  0  0  0  0  0  0  0  0
  143.6857  152.3968  133.1181 H   0  0  0  0  0  0  0  0  0  0  0  0
  143.6653  150.0123  132.3379 H   0  0  0  0  0  0  0  0  0  0  0  0
  142.9157  150.2326  133.9576 H   0  0  0  0  0  0  0  0  0  0  0  0
  140.5244  151.4730  130.8639 H   0  0  0  0  0  0  0  0  0  0  0  0
  139.1787  150.6594  131.7462 H   0  0  0  0  0  0  0  0  0  0  0  0
  139.7179  153.0417  132.4941 H   0  0  0  0  0  0  0  0  0  0  0  0
  139.7289  151.7536  133.7892 H   0  0  0  0  0  0  0  0  0  0  0  0
  140.7256  155.1198  133.4376 H   0  0  0  0  0  0  0  0  0  0  0  0
  1  2  1  0
  2  3  1  0
  2  4  1  0
  4  5  1  0
  5  6  2  0
  5  7  1  0
  7  8  1  0
  8  9  1  0
  9 10  1  0
  9 11  2  0
  8 12  2  0
 12 13  1  0
 13 14  2  0
 14 15  1  0
 15 16  2  0
 16 17  1  0
 17 18  1  0
 18 19  1  0
 19 20  1  0
 20 21  2  0
 20 22  2  0
 20 23  1  0
 23 24  1  0
 16 25  1  0
 25 26  2  0
 26  7  1  0
 26 13  1  0
 24 17  1  0
  1 27  1  0
  1 28  1  0
  1 29  1  0
  2 30  1  0
  3 31  1  0
  3 32  1  0
  3 33  1  0
 10 34  1  0
 12 35  1  0
 14 36  1  0
 15 37  1  0
 18 38  1  0
 18 39  1  0
 19 40  1  0
 19 41  1  0
 23 42  1  0
 23 43  1  0
 24 44  1  0
 24 45  1  0
 25 46  1  0
M  CHG  1  10  -1
M  END
>  <UniqueID>  (16) 
16

>  <SMILES>  (16) 
CC(C)OC(=O)n1c(C([NH-])=O)cc2ccc(N3CCS(=O)(=O)CC3)cc21

>  <Energy>  (16) 
78.75536043035146

>  <Genealogy>  (16) 
CC(C)OC(=O)n1c(C([NH-])=O)cc2ccc(N3CCS(=O)(=O)CC3)cc21 (protonated)
CC(C)OC(=O)n1c(C([NH-])=O)cc2ccc(N3CCS(=O)(=O)CC3)cc21 (3D coordinates assigned)
CC(C)OC(=O)n1c(C([NH-])=O)cc2ccc(N3CCS(=O)(=O)CC3)cc21 (nonaromatic ring conformer: 78.75536043035146 kcal/mol)

>  <smiles>  (16) 
CC(C)OC(=O)n1c(C(N)=O)cc2ccc(N3CCS(=O)(=O)CC3)cc21

>  <score_type>  (16) 
oracle

>  <origin>  (16) 
adg

>  <m_score__min__energy>  (16) 
-8.25

>  <m_primary>  (16) 
energy

$$$$
16:0
     RDKit          3D

 35 36  0  0  0  0  0  0  0  0999 V2000
  147.0400  159.4720  134.2240 H   0  0  0  0  0  0  0  0  0  0  0  0
  146.0070  159.4720  134.0670 N   0  0  0  0  0  0  0  0  0  0  0  0
  145.3830  158.4390  133.3070 C   0  0  0  0  0  0  0  0  0  0  0  0
  144.2540  158.6490  132.7900 O   0  0  0  0  0  0  0  0  0  0  0  0
  146.0750  157.1470  133.1130 C   0  0  0  0  0  0  0  0  0  0  0  0
  145.4170  155.9230  133.0230 C   0  0  0  0  0  0  0  0  0  0  0  0
  144.3314  155.7466  133.0428 H   0  0  0  0  0  0  0  0  0  0  0  0
  146.4130  154.9810  132.9040 C   0  0  0  0  0  0  0  0  0  0  0  0
  146.3280  153.5990  132.7720 C   0  0  0  0  0  0  0  0  0  0  0  0
  145.3534  153.0890  132.7649 H   0  0  0  0  0  0  0  0  0  0  0  0
  147.5260  152.8740  132.6480 C   0  0  0  0  0  0  0  0  0  0  0  0
  147.4895  151.7792  132.5480 H   0  0  0  0  0  0  0  0  0  0  0  0
  148.7800  153.5340  132.6500 C   0  0  0  0  0  0  0  0  0  0  0  0
  149.9820  152.7550  132.5190 N   0  0  0  0  0  0  0  0  0  0  0  0
  150.8420  153.2130  132.1400 H   0  0  0  0  0  0  0  0  0  0  0  0
  150.0680  151.3410  132.8710 C   0  0  0  0  0  0  0  0  0  0  0  0
  150.0744  151.2355  133.9659 H   0  0  0  0  0  0  0  0  0  0  0  0
  149.2007  150.8065  132.4562 H   0  0  0  0  0  0  0  0  0  0  0  0
  150.9937  150.9155  132.4562 H   0  0  0  0  0  0  0  0  0  0  0  0
  148.8230  154.9440  132.7810 C   0  0  0  0  0  0  0  0  0  0  0  0
  149.7828  155.4814  132.7721 H   0  0  0  0  0  0  0  0  0  0  0  0
  147.6150  155.6370  132.9220 C   0  0  0  0  0  0  0  0  0  0  0  0
  147.4250  156.9690  133.0600 N   0  0  0  0  0  0  0  0  0  0  0  0
  148.4440  157.9840  133.0470 C   0  0  0  0  0  0  0  0  0  0  0  0
  148.8490  158.4640  134.1390 O   0  0  0  0  0  0  0  0  0  0  0  0
  148.9670  158.5550  131.7860 C   0  0  0  0  0  0  0  0  0  0  0  0
  149.4745  157.8682  131.0926 H   0  0  0  0  0  0  0  0  0  0  0  0
  148.8720  159.8510  131.4170 C   0  0  0  0  0  0  0  0  0  0  0  0
  149.5440  160.3130  130.1740 C   0  0  0  0  0  0  0  0  0  0  0  0
  149.7310  161.5390  129.9560 O   0  0  0  0  0  0  0  0  0  0  0  0
  149.9680  159.3910  129.2240 O   0  0  0  0  0  0  0  0  0  0  0  0
  148.1120  160.8640  132.2370 C   0  0  0  0  0  0  0  0  0  0  0  0
  148.2656  160.6593  133.3068 H   0  0  0  0  0  0  0  0  0  0  0  0
  148.4766  161.8746  132.0010 H   0  0  0  0  0  0  0  0  0  0  0  0
  147.0397  160.7966  132.0010 H   0  0  0  0  0  0  0  0  0  0  0  0
  1  2  1  0
  2  3  1  0
  3  4  2  0
  3  5  1  0
  5  6  2  0
  6  7  1  0
  6  8  1  0
  8  9  2  0
  9 10  1  0
  9 11  1  0
 11 12  1  0
 11 13  2  0
 13 14  1  0
 14 15  1  0
 14 16  1  0
 16 17  1  0
 16 18  1  0
 16 19  1  0
 13 20  1  0
 20 21  1  0
 20 22  2  0
 22 23  1  0
 23 24  1  0
 24 25  2  0
 24 26  1  0
 26 27  1  0
 26 28  2  0
 28 29  1  0
 29 30  2  0
 29 31  1  0
 28 32  1  0
 32 33  1  0
 32 34  1  0
 32 35  1  0
 23  5  1  0
 22  8  1  0
M  CHG  2   2  -1  31  -1
M  END
>  <UniqueID>  (17) 
17

>  <SMILES>  (17) 
CNc1ccc2cc(C([NH-])=O)n(C(=O)/C=C(\C)C(=O)[O-])c2c1

>  <Energy>  (17) 
75.82021572580983

>  <Genealogy>  (17) 
CNc1ccc2cc(C([NH-])=O)n(C(=O)C=C(C)C(=O)[O-])c2c1 (protonated)
CNc1ccc2cc(C([NH-])=O)n(C(=O)/C=C(\C)C(=O)[O-])c2c1 (cis-trans isomerization)
CNc1ccc2cc(C([NH-])=O)n(C(=O)/C=C(\C)C(=O)[O-])c2c1 (3D coordinates assigned)
CNc1ccc2cc(C([NH-])=O)n(C(=O)/C=C(\C)C(=O)[O-])c2c1 (optimized conformer: 75.82021572580983 kcal/mol)

>  <smiles>  (17) 
CNc1ccc2cc(C(N)=O)n(C(=O)C=C(C)C(=O)O)c2c1

>  <score_type>  (17) 
oracle

>  <origin>  (17) 
adg

>  <m_score__min__energy>  (17) 
-7.2199999999999998

>  <m_primary>  (17) 
energy

$$$$
17:0
     RDKit          3D

 32 33  0  0  0  0  0  0  0  0999 V2000
  141.7090  158.7250  136.6510 C   0  0  0  0  0  0  0  0  0  0  0  0
  141.9870  158.5530  135.1570 C   0  0  2  0  0  0  0  0  0  0  0  0
  143.2200  159.1800  134.8040 O   0  0  0  0  0  0  0  0  0  0  0  0
  143.9670  158.8400  133.6710 C   0  0  0  0  0  0  0  0  0  0  0  0
  143.4330  158.2050  132.7210 O   0  0  0  0  0  0  0  0  0  0  0  0
  145.3430  159.2450  133.5770 N   0  0  0  0  0  0  0  0  0  0  0  0
  145.8490  160.5050  133.6960 C   0  0  0  0  0  0  0  0  0  0  0  0
  145.0950  161.7070  134.1090 C   0  0  0  0  0  0  0  0  0  0  0  0
  143.7280  161.8530  133.7300 N   0  0  0  0  0  0  0  0  0  0  0  0
  145.6560  162.6260  134.7610 O   0  0  0  0  0  0  0  0  0  0  0  0
  147.2210  160.5070  133.4530 C   0  0  0  0  0  0  0  0  0  0  0  0
  147.5460  159.1960  133.1860 C   0  0  0  0  0  0  0  0  0  0  0  0
  148.7740  158.6260  132.8650 C   0  0  0  0  0  0  0  0  0  0  0  0
  148.8120  157.2460  132.6090 C   0  0  0  0  0  0  0  0  0  0  0  0
  147.6310  156.4690  132.6700 C   0  0  0  0  0  0  0  0  0  0  0  0
  147.6810  155.0670  132.3950 N   0  0  0  0  0  0  0  0  0  0  0  0
  146.4020  157.0810  132.9980 C   0  0  0  0  0  0  0  0  0  0  0  0
  146.3950  158.4540  133.2660 C   0  0  0  0  0  0  0  0  0  0  0  0
  140.8810  159.1730  134.3600 C   0  0  0  0  0  0  0  0  0  0  0  0
  141.1030  160.1950  133.6560 O   0  0  0  0  0  0  0  0  0  0  0  0
  139.6150  158.5980  134.3540 O   0  0  0  0  0  0  0  0  0  0  0  0
  142.5039  158.2332  137.2309 H   0  0  0  0  0  0  0  0  0  0  0  0
  141.6842  159.7965  136.8984 H   0  0  0  0  0  0  0  0  0  0  0  0
  140.7390  158.2690  136.8984 H   0  0  0  0  0  0  0  0  0  0  0  0
  142.0501  157.4771  134.9370 H   0  0  0  0  0  0  0  0  0  0  0  0
  143.0940  161.0250  133.6840 H   0  0  0  0  0  0  0  0  0  0  0  0
  147.9001  161.3721  133.4707 H   0  0  0  0  0  0  0  0  0  0  0  0
  149.6868  159.2376  132.8134 H   0  0  0  0  0  0  0  0  0  0  0  0
  149.7688  156.7644  132.3587 H   0  0  0  0  0  0  0  0  0  0  0  0
  147.7360  154.7160  131.4130 H   0  0  0  0  0  0  0  0  0  0  0  0
  147.6650  154.3690  133.1720 H   0  0  0  0  0  0  0  0  0  0  0  0
  145.4733  156.4932  133.0418 H   0  0  0  0  0  0  0  0  0  0  0  0
  1  2  1  0
  2  3  1  0
  3  4  1  0
  4  5  2  0
  4  6  1  0
  6  7  1  0
  7  8  1  0
  8  9  1  0
  8 10  2  0
  7 11  2  0
 11 12  1  0
 12 13  2  0
 13 14  1  0
 14 15  2  0
 15 16  1  0
 15 17  1  0
 17 18  2  0
  2 19  1  0
 19 20  2  0
 19 21  1  0
 18  6  1  0
 18 12  1  0
  1 22  1  0
  1 23  1  0
  1 24  1  0
  2 25  1  1
  9 26  1  0
 11 27  1  0
 13 28  1  0
 14 29  1  0
 16 30  1  0
 16 31  1  0
 17 32  1  0
M  CHG  2   9  -1  21  -1
M  END
>  <UniqueID>  (18) 
18

>  <SMILES>  (18) 
C[C@H](OC(=O)n1c(C([NH-])=O)cc2ccc(N)cc21)C(=O)[O-]

>  <Energy>  (18) 
65.85898256385109

>  <Genealogy>  (18) 
CC(OC(=O)n1c(C([NH-])=O)cc2ccc(N)cc21)C(=O)[O-] (protonated)
C[C@H](OC(=O)n1c(C([NH-])=O)cc2ccc(N)cc21)C(=O)[O-] (chirality)
C[C@H](OC(=O)n1c(C([NH-])=O)cc2ccc(N)cc21)C(=O)[O-] (3D coordinates assigned)
C[C@H](OC(=O)n1c(C([NH-])=O)cc2ccc(N)cc21)C(=O)[O-] (optimized conformer: 65.85898256385109 kcal/mol)

>  <smiles>  (18) 
CC(OC(=O)n1c(C(N)=O)cc2ccc(N)cc21)C(=O)O

>  <score_type>  (18) 
oracle

>  <origin>  (18) 
adg

>  <m_score__min__energy>  (18) 
-6.1399999999999997

>  <m_primary>  (18) 
energy

$$$$
18:0
     RDKit          3D

 43 44  0  0  0  0  0  0  0  0999 V2000
  141.5880  155.6340  138.8620 C   0  0  0  0  0  0  0  0  0  0  0  0
  141.3560  156.6380  137.7730 C   0  0  0  0  0  0  0  0  0  0  0  0
  141.4220  158.0230  138.0610 C   0  0  0  0  0  0  0  0  0  0  0  0
  141.1610  158.9750  137.0600 C   0  0  0  0  0  0  0  0  0  0  0  0
  140.8340  158.5120  135.7890 C   0  0  0  0  0  0  0  0  0  0  0  0
  140.5080  159.2080  134.6470 C   0  0  0  0  0  0  0  0  0  0  0  0
  140.2480  158.2360  133.6820 C   0  0  0  0  0  0  0  0  0  0  0  0
  139.8880  158.5470  132.2810 C   0  0  0  0  0  0  0  0  0  0  0  0
  138.7500  157.9520  131.6620 N   0  0  0  0  0  0  0  0  0  0  0  0
  140.6090  159.3340  131.6110 O   0  0  0  0  0  0  0  0  0  0  0  0
  140.4110  156.9900  134.2080 N   0  0  0  0  0  0  0  0  0  0  0  0
  140.2010  155.7290  133.5610 C   0  0  0  0  0  0  0  0  0  0  0  0
  139.0620  155.4440  133.1020 O   0  0  0  0  0  0  0  0  0  0  0  0
  141.3430  154.7770  133.3620 C   0  0  0  0  0  0  0  0  0  0  0  0
  140.8650  153.4450  133.3410 O   0  0  0  0  0  0  0  0  0  0  0  0
  141.9010  152.5420  133.6680 C   0  0  0  0  0  0  0  0  0  0  0  0
  141.3080  151.1790  133.8830 C   0  0  0  0  0  0  0  0  0  0  0  0
  141.0320  150.8280  135.0630 O   0  0  0  0  0  0  0  0  0  0  0  0
  141.0080  150.2880  132.7840 N   0  0  0  0  0  0  0  0  0  0  0  0
  142.0860  149.4610  132.2320 C   0  0  0  0  0  0  0  0  0  0  0  0
  139.6660  150.2200  132.1860 C   0  0  0  0  0  0  0  0  0  0  0  0
  139.6690  149.3230  130.9880 C   0  0  0  0  0  0  0  0  0  0  0  0
  139.7910  149.8110  129.8340 O   0  0  0  0  0  0  0  0  0  0  0  0
  139.4840  147.9530  131.1390 O   0  0  0  0  0  0  0  0  0  0  0  0
  140.7660  157.1750  135.4970 C   0  0  0  0  0  0  0  0  0  0  0  0
  141.0020  156.2050  136.4770 C   0  0  0  0  0  0  0  0  0  0  0  0
  141.4751  156.1224  139.8411 H   0  0  0  0  0  0  0  0  0  0  0  0
  140.8544  154.8193  138.7719 H   0  0  0  0  0  0  0  0  0  0  0  0
  142.6046  155.2237  138.7719 H   0  0  0  0  0  0  0  0  0  0  0  0
  141.6798  158.3569  139.0769 H   0  0  0  0  0  0  0  0  0  0  0  0
  141.2136  160.0526  137.2748 H   0  0  0  0  0  0  0  0  0  0  0  0
  140.4623  160.2999  134.5222 H   0  0  0  0  0  0  0  0  0  0  0  0
  138.2280  157.1780  132.1270 H   0  0  0  0  0  0  0  0  0  0  0  0
  141.8412  155.0003  132.4070 H   0  0  0  0  0  0  0  0  0  0  0  0
  142.0569  154.8913  134.1910 H   0  0  0  0  0  0  0  0  0  0  0  0
  142.6296  152.5021  132.8449 H   0  0  0  0  0  0  0  0  0  0  0  0
  142.4109  152.8754  134.5839 H   0  0  0  0  0  0  0  0  0  0  0  0
  142.6652  149.0166  133.0548 H   0  0  0  0  0  0  0  0  0  0  0  0
  141.6540  148.6604  131.6136 H   0  0  0  0  0  0  0  0  0  0  0  0
  142.7473  150.0856  131.6136 H   0  0  0  0  0  0  0  0  0  0  0  0
  138.9578  149.8270  132.9303 H   0  0  0  0  0  0  0  0  0  0  0  0
  139.3656  151.2306  131.8721 H   0  0  0  0  0  0  0  0  0  0  0  0
  140.9140  155.1336  136.2439 H   0  0  0  0  0  0  0  0  0  0  0  0
  1  2  1  0
  2  3  2  0
  3  4  1  0
  4  5  2  0
  5  6  1  0
  6  7  2  0
  7  8  1  0
  8  9  1  0
  8 10  2  0
  7 11  1  0
 11 12  1  0
 12 13  2  0
 12 14  1  0
 14 15  1  0
 15 16  1  0
 16 17  1  0
 17 18  2  0
 17 19  1  0
 19 20  1  0
 19 21  1  0
 21 22  1  0
 22 23  2  0
 22 24  1  0
 11 25  1  0
 25 26  2  0
 26  2  1  0
 25  5  1  0
  1 27  1  0
  1 28  1  0
  1 29  1  0
  3 30  1  0
  4 31  1  0
  6 32  1  0
  9 33  1  0
 14 34  1  0
 14 35  1  0
 16 36  1  0
 16 37  1  0
 20 38  1  0
 20 39  1  0
 20 40  1  0
 21 41  1  0
 21 42  1  0
 26 43  1  0
M  CHG  2   9  -1  24  -1
M  END
>  <UniqueID>  (19) 
19

>  <SMILES>  (19) 
Cc1ccc2cc(C([NH-])=O)n(C(=O)COCC(=O)N(C)CC(=O)[O-])c2c1

>  <Energy>  (19) 
80.14540667825067

>  <Genealogy>  (19) 
Cc1ccc2cc(C([NH-])=O)n(C(=O)COCC(=O)N(C)CC(=O)[O-])c2c1 (protonated)
Cc1ccc2cc(C([NH-])=O)n(C(=O)COCC(=O)N(C)CC(=O)[O-])c2c1 (3D coordinates assigned)
Cc1ccc2cc(C([NH-])=O)n(C(=O)COCC(=O)N(C)CC(=O)[O-])c2c1 (optimized conformer: 80.14540667825067 kcal/mol)

>  <smiles>  (19) 
Cc1ccc2cc(C(N)=O)n(C(=O)COCC(=O)N(C)CC(=O)O)c2c1

>  <score_type>  (19) 
oracle

>  <origin>  (19) 
adg

>  <m_score__min__energy>  (19) 
-6.7199999999999998

>  <m_primary>  (19) 
energy

$$$$
19:0
     RDKit          3D

 37 38  0  0  0  0  0  0  0  0999 V2000
  138.9030  158.3340  132.3850 C   0  0  0  0  0  0  0  0  0  0  0  0
  139.4910  157.3590  133.3110 N   0  0  0  0  0  0  0  0  0  0  0  0
  139.4820  155.9380  132.9450 C   0  0  0  0  0  0  0  0  0  0  0  0
  140.0720  157.7930  134.5690 C   0  0  0  0  0  0  0  0  0  0  0  0
  140.4820  159.1450  134.7530 C   0  0  0  0  0  0  0  0  0  0  0  0
  141.0530  159.5710  135.9620 C   0  0  0  0  0  0  0  0  0  0  0  0
  141.2000  158.6390  136.9810 C   0  0  0  0  0  0  0  0  0  0  0  0
  141.7440  158.7780  138.2370 C   0  0  0  0  0  0  0  0  0  0  0  0
  141.6410  157.5200  138.8260 C   0  0  0  0  0  0  0  0  0  0  0  0
  142.0320  157.2420  140.2240 C   0  0  0  0  0  0  0  0  0  0  0  0
  141.2880  156.3310  141.0280 N   0  0  0  0  0  0  0  0  0  0  0  0
  143.0090  157.8560  140.7310 O   0  0  0  0  0  0  0  0  0  0  0  0
  141.0660  156.6360  137.9630 N   0  0  0  0  0  0  0  0  0  0  0  0
  140.8520  155.2280  138.1540 C   0  0  0  0  0  0  0  0  0  0  0  0
  139.8180  154.8240  138.7500 O   0  0  0  0  0  0  0  0  0  0  0  0
  141.8070  154.3130  137.6970 O   0  0  0  0  0  0  0  0  0  0  0  0
  141.8160  152.9440  138.0840 C   0  0  0  0  0  0  0  0  0  0  0  0
  140.4930  152.4620  138.1130 O   0  0  0  0  0  0  0  0  0  0  0  0
  140.5330  150.7690  137.9100 P   0  0  0  0  0  0  0  0  0  0  0  0
  141.7260  150.1880  138.6360 O   0  0  0  0  0  0  0  0  0  0  0  0
  140.6240  150.3750  136.2660 O   0  0  0  0  0  0  0  0  0  0  0  0
  139.1190  150.1060  138.5560 O   0  0  0  0  0  0  0  0  0  0  0  0
  140.7980  157.3380  136.8400 C   0  0  0  0  0  0  0  0  0  0  0  0
  140.2450  156.8780  135.6400 C   0  0  0  0  0  0  0  0  0  0  0  0
  138.4182  159.1379  132.9582 H   0  0  0  0  0  0  0  0  0  0  0  0
  139.6942  158.7612  131.7513 H   0  0  0  0  0  0  0  0  0  0  0  0
  138.1560  157.8336  131.7513 H   0  0  0  0  0  0  0  0  0  0  0  0
  139.4781  155.3243  133.8579 H   0  0  0  0  0  0  0  0  0  0  0  0
  138.5824  155.7180  132.3514 H   0  0  0  0  0  0  0  0  0  0  0  0
  140.3787  155.7066  132.3514 H   0  0  0  0  0  0  0  0  0  0  0  0
  140.3487  159.8669  133.9338 H   0  0  0  0  0  0  0  0  0  0  0  0
  141.3751  160.6139  136.0987 H   0  0  0  0  0  0  0  0  0  0  0  0
  142.1700  159.6894  138.6818 H   0  0  0  0  0  0  0  0  0  0  0  0
  140.5850  155.6890  140.6010 H   0  0  0  0  0  0  0  0  0  0  0  0
  142.4041  152.3609  137.3600 H   0  0  0  0  0  0  0  0  0  0  0  0
  142.2671  152.8452  139.0824 H   0  0  0  0  0  0  0  0  0  0  0  0
  139.9491  155.8244  135.5285 H   0  0  0  0  0  0  0  0  0  0  0  0
  1  2  1  0
  2  3  1  0
  2  4  1  0
  4  5  2  0
  5  6  1  0
  6  7  2  0
  7  8  1  0
  8  9  2  0
  9 10  1  0
 10 11  1  0
 10 12  2  0
  9 13  1  0
 13 14  1  0
 14 15  2  0
 14 16  1  0
 16 17  1  0
 17 18  1  0
 18 19  1  0
 19 20  2  0
 19 21  1  0
 19 22  1  0
 13 23  1  0
 23 24  2  0
 24  4  1  0
 23  7  1  0
  1 25  1  0
  1 26  1  0
  1 27  1  0
  3 28  1  0
  3 29  1  0
  3 30  1  0
  5 31  1  0
  6 32  1  0
  8 33  1  0
 11 34  1  0
 17 35  1  0
 17 36  1  0
 24 37  1  0
M  CHG  3  11  -1  21  -1  22  -1
M  END
>  <UniqueID>  (20) 
20

>  <SMILES>  (20) 
CN(C)c1ccc2cc(C([NH-])=O)n(C(=O)OCOP(=O)([O-])[O-])c2c1

>  <Energy>  (20) 
75.05202826721101

>  <Genealogy>  (20) 
CN(C)c1ccc2cc(C([NH-])=O)n(C(=O)OCOP(=O)([O-])[O-])c2c1 (protonated)
CN(C)c1ccc2cc(C([NH-])=O)n(C(=O)OCOP(=O)([O-])[O-])c2c1 (3D coordinates assigned)
CN(C)c1ccc2cc(C([NH-])=O)n(C(=O)OCOP(=O)([O-])[O-])c2c1 (optimized conformer: 75.05202826721101 kcal/mol)

>  <smiles>  (20) 
CN(C)c1ccc2cc(C(N)=O)n(C(=O)OCOP(=O)(O)O)c2c1

>  <score_type>  (20) 
oracle

>  <origin>  (20) 
adg

>  <m_score__min__energy>  (20) 
-6.5800000000000001

>  <m_primary>  (20) 
energy

$$$$
20:0
     RDKit          3D

 42 43  0  0  0  0  0  0  0  0999 V2000
  146.3310  154.2280  132.6680 C   0  0  0  0  0  0  0  0  0  0  0  0
  147.5470  155.0450  132.7660 N   0  0  0  0  0  0  0  0  0  0  0  0
  148.8540  154.3950  132.6070 C   0  0  0  0  0  0  0  0  0  0  0  0
  147.4560  156.4740  132.9990 C   0  0  0  0  0  0  0  0  0  0  0  0
  148.6340  157.2610  133.1390 C   0  0  0  0  0  0  0  0  0  0  0  0
  148.5580  158.6420  133.3770 C   0  0  0  0  0  0  0  0  0  0  0  0
  147.2980  159.2210  133.4640 C   0  0  0  0  0  0  0  0  0  0  0  0
  146.9470  160.5250  133.7240 C   0  0  0  0  0  0  0  0  0  0  0  0
  145.5550  160.5370  133.7130 C   0  0  0  0  0  0  0  0  0  0  0  0
  144.7560  161.7640  133.8970 C   0  0  0  0  0  0  0  0  0  0  0  0
  143.3470  161.7660  133.6650 N   0  0  0  0  0  0  0  0  0  0  0  0
  145.3330  162.8400  134.2020 O   0  0  0  0  0  0  0  0  0  0  0  0
  145.0620  159.2910  133.4700 N   0  0  0  0  0  0  0  0  0  0  0  0
  143.6830  158.8790  133.5170 C   0  0  0  0  0  0  0  0  0  0  0  0
  143.2130  158.1310  132.6160 O   0  0  0  0  0  0  0  0  0  0  0  0
  142.8740  159.2830  134.5860 O   0  0  0  0  0  0  0  0  0  0  0  0
  141.5220  158.8670  134.7670 C   0  0  0  0  0  0  0  0  0  0  0  0
  140.6000  159.5010  133.7120 C   0  0  1  0  0  0  0  0  0  0  0  0
  141.3230  160.4250  132.9410 O   0  0  0  0  0  0  0  0  0  0  0  0
  140.0170  158.4370  132.7720 C   0  0  0  0  0  0  0  0  0  0  0  0
  140.4920  158.6180  131.4630 O   0  0  0  0  0  0  0  0  0  0  0  0
  146.1460  158.4940  133.3150 C   0  0  0  0  0  0  0  0  0  0  0  0
  146.1920  157.1110  133.0990 C   0  0  0  0  0  0  0  0  0  0  0  0
  145.9699  153.9854  133.6783 H   0  0  0  0  0  0  0  0  0  0  0  0
  145.5552  154.7888  132.1261 H   0  0  0  0  0  0  0  0  0  0  0  0
  146.5569  153.2978  132.1261 H   0  0  0  0  0  0  0  0  0  0  0  0
  149.2809  154.1827  133.5983 H   0  0  0  0  0  0  0  0  0  0  0  0
  148.7302  153.4535  132.0518 H   0  0  0  0  0  0  0  0  0  0  0  0
  149.5300  155.0619  132.0518 H   0  0  0  0  0  0  0  0  0  0  0  0
  149.6196  156.7790  133.0594 H   0  0  0  0  0  0  0  0  0  0  0  0
  149.4689  159.2480  133.4913 H   0  0  0  0  0  0  0  0  0  0  0  0
  147.6212  161.3757  133.9023 H   0  0  0  0  0  0  0  0  0  0  0  0
  142.7890  162.6320  133.8330 H   0  0  0  0  0  0  0  0  0  0  0  0
  142.8740  160.9410  133.2350 H   0  0  0  0  0  0  0  0  0  0  0  0
  141.4685  157.7718  134.6788 H   0  0  0  0  0  0  0  0  0  0  0  0
  141.1875  159.1923  135.7631 H   0  0  0  0  0  0  0  0  0  0  0  0
  139.7778  160.0017  134.2443 H   0  0  0  0  0  0  0  0  0  0  0  0
  141.9830  159.9110  132.4060 H   0  0  0  0  0  0  0  0  0  0  0  0
  140.3122  157.4392  133.1286 H   0  0  0  0  0  0  0  0  0  0  0  0
  138.9211  158.5314  132.7670 H   0  0  0  0  0  0  0  0  0  0  0  0
  141.4670  158.8010  131.5300 H   0  0  0  0  0  0  0  0  0  0  0  0
  145.2635  156.5281  133.0084 H   0  0  0  0  0  0  0  0  0  0  0  0
  1  2  1  0
  2  3  1  0
  2  4  1  0
  4  5  2  0
  5  6  1  0
  6  7  2  0
  7  8  1  0
  8  9  2  0
  9 10  1  0
 10 11  1  0
 10 12  2  0
  9 13  1  0
 13 14  1  0
 14 15  2  0
 14 16  1  0
 16 17  1  0
 17 18  1  0
 18 19  1  0
 18 20  1  0
 20 21  1  0
 13 22  1  0
 22 23  2  0
 23  4  1  0
 22  7  1  0
  1 24  1  0
  1 25  1  0
  1 26  1  0
  3 27  1  0
  3 28  1  0
  3 29  1  0
  5 30  1  0
  6 31  1  0
  8 32  1  0
 11 33  1  0
 11 34  1  0
 17 35  1  0
 17 36  1  0
 18 37  1  1
 19 38  1  0
 20 39  1  0
 20 40  1  0
 21 41  1  0
 23 42  1  0
M  END
>  <UniqueID>  (21) 
21

>  <SMILES>  (21) 
CN(C)c1ccc2cc(C(N)=O)n(C(=O)OC[C@@H](O)CO)c2c1

>  <Energy>  (21) 
79.01990886756953

>  <Genealogy>  (21) 
CN(C)c1ccc2cc(C(N)=O)n(C(=O)OC[C@@H](O)CO)c2c1 (chirality)
CN(C)c1ccc2cc(C(N)=O)n(C(=O)OC[C@@H](O)CO)c2c1 (3D coordinates assigned)
CN(C)c1ccc2cc(C(N)=O)n(C(=O)OC[C@@H](O)CO)c2c1 (optimized conformer: 79.01990886756953 kcal/mol)

>  <smiles>  (21) 
CN(C)c1ccc2cc(C(N)=O)n(C(=O)OCC(O)CO)c2c1

>  <score_type>  (21) 
oracle

>  <origin>  (21) 
adg

>  <m_score__min__energy>  (21) 
-5.54

>  <m_primary>  (21) 
energy

$$$$
21:0
     RDKit          3D

 31 32  0  0  0  0  0  0  0  0999 V2000
  146.7370  160.8150  133.2690 N   0  0  0  0  0  0  0  0  0  0  0  0
  145.7980  159.7870  133.5890 C   0  0  0  0  0  0  0  0  0  0  0  0
  144.6480  160.1100  133.9870 O   0  0  0  0  0  0  0  0  0  0  0  0
  146.1790  158.3600  133.4940 C   0  0  0  0  0  0  0  0  0  0  0  0
  145.2610  157.3130  133.4590 C   0  0  0  0  0  0  0  0  0  0  0  0
  146.0120  156.1750  133.2690 C   0  0  0  0  0  0  0  0  0  0  0  0
  145.6100  154.8480  133.1550 C   0  0  0  0  0  0  0  0  0  0  0  0
  146.6050  153.8710  132.9810 C   0  0  0  0  0  0  0  0  0  0  0  0
  147.9770  154.2300  132.9500 C   0  0  0  0  0  0  0  0  0  0  0  0
  149.0330  153.1770  132.7270 C   0  0  0  0  0  0  0  0  0  0  0  0
  149.3000  152.4950  133.9010 F   0  0  0  0  0  0  0  0  0  0  0  0
  150.2110  153.7520  132.2830 F   0  0  0  0  0  0  0  0  0  0  0  0
  148.5840  152.2790  131.7760 F   0  0  0  0  0  0  0  0  0  0  0  0
  148.3420  155.5940  133.0460 C   0  0  0  0  0  0  0  0  0  0  0  0
  147.3290  156.5480  133.1990 C   0  0  0  0  0  0  0  0  0  0  0  0
  147.4490  157.8870  133.3350 N   0  0  0  0  0  0  0  0  0  0  0  0
  148.6750  158.6360  133.3660 C   0  0  0  0  0  0  0  0  0  0  0  0
  148.8850  159.4650  134.2940 O   0  0  0  0  0  0  0  0  0  0  0  0
  149.6390  158.4300  132.3750 O   0  0  0  0  0  0  0  0  0  0  0  0
  149.4990  158.9310  131.0500 C   0  0  0  0  0  0  0  0  0  0  0  0
  148.7030  160.1930  131.0850 C   0  0  0  0  0  0  0  0  0  0  0  0
  149.2370  161.2670  131.4670 O   0  0  0  0  0  0  0  0  0  0  0  0
  147.3550  160.1730  130.7530 O   0  0  0  0  0  0  0  0  0  0  0  0
  146.4710  161.8190  133.3770 H   0  0  0  0  0  0  0  0  0  0  0  0
  147.6800  160.5890  132.8830 H   0  0  0  0  0  0  0  0  0  0  0  0
  144.1679  157.3810  133.5614 H   0  0  0  0  0  0  0  0  0  0  0  0
  144.5461  154.5721  133.1997 H   0  0  0  0  0  0  0  0  0  0  0  0
  146.3166  152.8156  132.8675 H   0  0  0  0  0  0  0  0  0  0  0  0
  149.3983  155.8978  133.0014 H   0  0  0  0  0  0  0  0  0  0  0  0
  150.4936  159.1348  130.6265 H   0  0  0  0  0  0  0  0  0  0  0  0
  148.9842  158.1861  130.4253 H   0  0  0  0  0  0  0  0  0  0  0  0
  1  2  1  0
  2  3  2  0
  2  4  1  0
  4  5  2  0
  5  6  1  0
  6  7  2  0
  7  8  1  0
  8  9  2  0
  9 10  1  0
 10 11  1  0
 10 12  1  0
 10 13  1  0
  9 14  1  0
 14 15  2  0
 15 16  1  0
 16 17  1  0
 17 18  2  0
 17 19  1  0
 19 20  1  0
 20 21  1  0
 21 22  2  0
 21 23  1  0
 16  4  1  0
 15  6  1  0
  1 24  1  0
  1 25  1  0
  5 26  1  0
  7 27  1  0
  8 28  1  0
 14 29  1  0
 20 30  1  0
 20 31  1  0
M  CHG  1  23  -1
M  END
>  <UniqueID>  (22) 
22

>  <SMILES>  (22) 
NC(=O)c1cc2ccc(C(F)(F)F)cc2n1C(=O)OCC(=O)[O-]

>  <Energy>  (22) 
67.40282709075323

>  <Genealogy>  (22) 
NC(=O)c1cc2ccc(C(F)(F)F)cc2n1C(=O)OCC(=O)[O-] (protonated)
NC(=O)c1cc2ccc(C(F)(F)F)cc2n1C(=O)OCC(=O)[O-] (3D coordinates assigned)
NC(=O)c1cc2ccc(C(F)(F)F)cc2n1C(=O)OCC(=O)[O-] (optimized conformer: 67.40282709075323 kcal/mol)

>  <smiles>  (22) 
NC(=O)c1cc2ccc(C(F)(F)F)cc2n1C(=O)OCC(=O)O

>  <score_type>  (22) 
oracle

>  <origin>  (22) 
adg

>  <m_score__min__energy>  (22) 
-5.7699999999999996

>  <m_primary>  (22) 
energy

$$$$
22:0
     RDKit          3D

 47 48  0  0  0  0  0  0  0  0999 V2000
  143.8190  152.0590  133.6210 N   0  0  0  0  0  0  0  0  0  0  0  0
  142.4710  152.3510  133.3230 C   0  0  0  0  0  0  0  0  0  0  0  0
  141.7330  151.3920  132.9220 O   0  0  0  0  0  0  0  0  0  0  0  0
  141.8700  153.6740  133.5690 C   0  0  0  0  0  0  0  0  0  0  0  0
  140.6430  154.0180  133.0540 C   0  0  0  0  0  0  0  0  0  0  0  0
  140.3410  155.2930  133.5010 C   0  0  0  0  0  0  0  0  0  0  0  0
  139.2450  156.1000  133.2570 C   0  0  0  0  0  0  0  0  0  0  0  0
  139.1990  157.3530  133.8600 C   0  0  0  0  0  0  0  0  0  0  0  0
  140.2710  157.8010  134.6850 C   0  0  0  0  0  0  0  0  0  0  0  0
  140.2280  159.1130  135.2580 N   0  0  0  0  0  0  0  0  0  0  0  0
  141.3670  156.9930  134.8940 C   0  0  0  0  0  0  0  0  0  0  0  0
  141.3770  155.7260  134.3040 C   0  0  0  0  0  0  0  0  0  0  0  0
  142.3060  154.7180  134.3450 N   0  0  0  0  0  0  0  0  0  0  0  0
  143.5590  154.9030  135.1490 C   0  0  0  0  0  0  0  0  0  0  0  0
  143.5100  155.4080  136.2860 O   0  0  0  0  0  0  0  0  0  0  0  0
  144.8850  154.6220  134.7280 O   0  0  0  0  0  0  0  0  0  0  0  0
  145.9180  155.6580  134.7330 C   0  0  1  0  0  0  0  0  0  0  0  0
  146.8260  155.6510  133.6500 O   0  0  0  0  0  0  0  0  0  0  0  0
  147.5740  154.6490  133.0760 C   0  0  0  0  0  0  0  0  0  0  0  0
  148.7760  154.8110  132.7190 O   0  0  0  0  0  0  0  0  0  0  0  0
  146.7780  152.9850  132.9790 P   0  0  0  0  0  0  0  0  0  0  0  0
  145.2690  156.8950  134.8160 O   0  0  0  0  0  0  0  0  0  0  0  0
  144.6580  157.4640  133.7110 C   0  0  0  0  0  0  0  0  0  0  0  0
  143.9690  156.7690  132.9190 O   0  0  0  0  0  0  0  0  0  0  0  0
  144.8120  158.9690  133.5280 C   0  0  0  0  0  0  0  0  0  0  0  0
  143.3290  159.9800  133.9830 P   0  0  0  0  0  0  0  0  0  0  0  0
  142.9760  159.7290  135.4360 O   0  0  0  0  0  0  0  0  0  0  0  0
  143.7350  161.6260  133.7570 O   0  0  0  0  0  0  0  0  0  0  0  0
  141.9800  159.5960  133.0660 O   0  0  0  0  0  0  0  0  0  0  0  0
  146.6830  155.3960  135.9570 O   0  0  0  0  0  0  0  0  0  0  0  0
  146.7480  154.1020  136.5550 C   0  0  0  0  0  0  0  0  0  0  0  0
  146.0160  153.1650  136.1520 O   0  0  0  0  0  0  0  0  0  0  0  0
  147.8280  153.8180  137.8770 P   0  0  0  0  0  0  0  0  0  0  0  0
  148.2580  152.3820  137.7480 O   0  0  0  0  0  0  0  0  0  0  0  0
  147.0000  154.0850  139.3230 O   0  0  0  0  0  0  0  0  0  0  0  0
  149.1560  154.8620  137.7410 O   0  0  0  0  0  0  0  0  0  0  0  0
  144.3380  152.5520  134.4210 H   0  0  0  0  0  0  0  0  0  0  0  0
  140.0139  153.3926  132.4035 H   0  0  0  0  0  0  0  0  0  0  0  0
  138.4294  155.7596  132.6021 H   0  0  0  0  0  0  0  0  0  0  0  0
  138.3271  158.0038  133.6984 H   0  0  0  0  0  0  0  0  0  0  0  0
  139.4770  159.3380  135.9560 H   0  0  0  0  0  0  0  0  0  0  0  0
  140.8840  159.8820  134.9050 H   0  0  0  0  0  0  0  0  0  0  0  0
  142.2121  157.3359  135.5090 H   0  0  0  0  0  0  0  0  0  0  0  0
  146.5550  152.5700  131.5920 H   0  0  0  0  0  0  0  0  0  0  0  0
  145.8450  152.7790  134.0300 H   0  0  0  0  0  0  0  0  0  0  0  0
  145.6544  159.3023  134.1519 H   0  0  0  0  0  0  0  0  0  0  0  0
  144.9691  159.1289  132.4511 H   0  0  0  0  0  0  0  0  0  0  0  0
  1  2  1  0
  2  3  2  0
  2  4  1  0
  4  5  2  0
  5  6  1  0
  6  7  2  0
  7  8  1  0
  8  9  2  0
  9 10  1  0
  9 11  1  0
 11 12  2  0
 12 13  1  0
 13 14  1  0
 14 15  2  0
 14 16  1  0
 17 16  1  6
 17 18  1  0
 18 19  1  0
 19 20  2  0
 19 21  1  0
 17 22  1  0
 22 23  1  0
 23 24  2  0
 23 25  1  0
 25 26  1  0
 26 27  2  0
 26 28  1  0
 26 29  1  0
 17 30  1  0
 30 31  1  0
 31 32  2  0
 31 33  1  0
 33 34  2  0
 33 35  1  0
 33 36  1  0
 13  4  1  0
 12  6  1  0
  1 37  1  0
  5 38  1  0
  7 39  1  0
  8 40  1  0
 10 41  1  0
 10 42  1  0
 11 43  1  0
 21 44  1  0
 21 45  1  0
 25 46  1  0
 25 47  1  0
M  CHG  5   1  -1  28  -1  29  -1  35  -1  36  -1
M  END
>  <UniqueID>  (23) 
23

>  <SMILES>  (23) 
[NH-]C(=O)c1cc2ccc(N)cc2n1C(=O)O[C@@](OC(=O)[P@H2])(OC(=O)CP(=O)([O-])[O-])OC(=O)P(=O)([O-])[O-]

>  <Energy>  (23) 
160.34651232296946

>  <Genealogy>  (23) 
[NH-]C(=O)c1cc2ccc(N)cc2n1C(=O)OC(OC(=O)P)(OC(=O)CP(=O)([O-])[O-])OC(=O)P(=O)([O-])[O-] (protonated)
[NH-]C(=O)c1cc2ccc(N)cc2n1C(=O)O[C@@](OC(=O)[P@H2])(OC(=O)CP(=O)([O-])[O-])OC(=O)P(=O)([O-])[O-] (chirality)
[NH-]C(=O)c1cc2ccc(N)cc2n1C(=O)O[C@@](OC(=O)[P@H2])(OC(=O)CP(=O)([O-])[O-])OC(=O)P(=O)([O-])[O-] (3D coordinates assigned)
[NH-]C(=O)c1cc2ccc(N)cc2n1C(=O)O[C@@](OC(=O)[P@H2])(OC(=O)CP(=O)([O-])[O-])OC(=O)P(=O)([O-])[O-] (optimized conformer: 160.34651232296946 kcal/mol)

>  <smiles>  (23) 
NC(=O)c1cc2ccc(N)cc2n1C(=O)OC(OC(=O)P)(OC(=O)CP(=O)(O)O)OC(=O)P(=O)(O)O

>  <score_type>  (23) 
oracle

>  <origin>  (23) 
adg

>  <m_score__min__energy>  (23) 
-7.4400000000000004

>  <m_primary>  (23) 
energy

$$$$
23:0
     RDKit          3D

 36 37  0  0  0  0  0  0  0  0999 V2000
  143.3240  161.4580  133.7370 N   0  0  0  0  0  0  0  0  0  0  0  0
  144.7270  161.4900  133.9830 C   0  0  0  0  0  0  0  0  0  0  0  0
  145.2240  162.4770  134.5890 O   0  0  0  0  0  0  0  0  0  0  0  0
  145.5950  160.3610  133.5900 C   0  0  0  0  0  0  0  0  0  0  0  0
  146.9620  160.4920  133.3500 C   0  0  0  0  0  0  0  0  0  0  0  0
  147.4140  159.2150  133.1080 C   0  0  0  0  0  0  0  0  0  0  0  0
  148.6930  158.7620  132.8020 C   0  0  0  0  0  0  0  0  0  0  0  0
  148.8670  157.3870  132.5740 C   0  0  0  0  0  0  0  0  0  0  0  0
  147.7690  156.4920  132.6420 C   0  0  0  0  0  0  0  0  0  0  0  0
  147.9910  155.0920  132.3890 N   0  0  0  0  0  0  0  0  0  0  0  0
  148.1290  154.0970  133.4550 C   0  0  0  0  0  0  0  0  0  0  0  0
  149.0020  152.9200  133.0100 C   0  0  0  0  0  0  0  0  0  0  0  0
  149.5180  153.1420  131.7260 O   0  0  0  0  0  0  0  0  0  0  0  0
  146.4810  156.9950  132.9550 C   0  0  0  0  0  0  0  0  0  0  0  0
  146.3410  158.3660  133.1970 C   0  0  0  0  0  0  0  0  0  0  0  0
  145.2160  159.0550  133.4890 N   0  0  0  0  0  0  0  0  0  0  0  0
  143.8900  158.5120  133.5870 C   0  0  0  0  0  0  0  0  0  0  0  0
  143.3990  157.8750  132.6150 O   0  0  0  0  0  0  0  0  0  0  0  0
  143.1610  158.6710  134.7700 O   0  0  0  0  0  0  0  0  0  0  0  0
  141.9650  157.9510  135.0570 C   0  0  0  0  0  0  0  0  0  0  0  0
  140.8580  158.8970  135.3980 C   0  0  0  0  0  0  0  0  0  0  0  0
  141.0790  160.1340  135.4700 O   0  0  0  0  0  0  0  0  0  0  0  0
  139.5870  158.4060  135.6670 O   0  0  0  0  0  0  0  0  0  0  0  0
  142.7230  160.7120  134.1520 H   0  0  0  0  0  0  0  0  0  0  0  0
  147.5537  161.4193  133.3534 H   0  0  0  0  0  0  0  0  0  0  0  0
  149.5418  159.4589  132.7405 H   0  0  0  0  0  0  0  0  0  0  0  0
  149.8692  156.9989  132.3394 H   0  0  0  0  0  0  0  0  0  0  0  0
  148.0560  154.7770  131.3940 H   0  0  0  0  0  0  0  0  0  0  0  0
  148.5908  154.5738  134.3322 H   0  0  0  0  0  0  0  0  0  0  0  0
  147.1284  153.7125  133.7018 H   0  0  0  0  0  0  0  0  0  0  0  0
  149.8353  152.8008  133.7181 H   0  0  0  0  0  0  0  0  0  0  0  0
  148.3843  152.0100  132.9898 H   0  0  0  0  0  0  0  0  0  0  0  0
  150.5060  153.0900  131.8050 H   0  0  0  0  0  0  0  0  0  0  0  0
  145.6117  156.3229  133.0064 H   0  0  0  0  0  0  0  0  0  0  0  0
  141.6776  157.3590  134.1756 H   0  0  0  0  0  0  0  0  0  0  0  0
  142.1448  157.2868  135.9152 H   0  0  0  0  0  0  0  0  0  0  0  0
  1  2  1  0
  2  3  2  0
  2  4  1  0
  4  5  2  0
  5  6  1  0
  6  7  2  0
  7  8  1  0
  8  9  2  0
  9 10  1  0
 10 11  1  0
 11 12  1  0
 12 13  1  0
  9 14  1  0
 14 15  2  0
 15 16  1  0
 16 17  1  0
 17 18  2  0
 17 19  1  0
 19 20  1  0
 20 21  1  0
 21 22  2  0
 21 23  1  0
 16  4  1  0
 15  6  1  0
  1 24  1  0
  5 25  1  0
  7 26  1  0
  8 27  1  0
 10 28  1  0
 11 29  1  0
 11 30  1  0
 12 31  1  0
 12 32  1  0
 13 33  1  0
 14 34  1  0
 20 35  1  0
 20 36  1  0
M  CHG  2   1  -1  23  -1
M  END
>  <UniqueID>  (24) 
24

>  <SMILES>  (24) 
[NH-]C(=O)c1cc2ccc(NCCO)cc2n1C(=O)OCC(=O)[O-]

>  <Energy>  (24) 
70.28696653698869

>  <Genealogy>  (24) 
[NH-]C(=O)c1cc2ccc(NCCO)cc2n1C(=O)OCC(=O)[O-] (protonated)
[NH-]C(=O)c1cc2ccc(NCCO)cc2n1C(=O)OCC(=O)[O-] (3D coordinates assigned)
[NH-]C(=O)c1cc2ccc(NCCO)cc2n1C(=O)OCC(=O)[O-] (optimized conformer: 70.28696653698869 kcal/mol)

>  <smiles>  (24) 
NC(=O)c1cc2ccc(NCCO)cc2n1C(=O)OCC(=O)O

>  <score_type>  (24) 
oracle

>  <origin>  (24) 
adg

>  <m_score__min__energy>  (24) 
-6.1799999999999997

>  <m_primary>  (24) 
energy

$$$$
24:0
     RDKit          3D

 42 43  0  0  0  0  0  0  0  0999 V2000
  144.7570  159.3630  132.8630 N   0  0  0  0  0  0  0  0  0  0  0  0
  143.6610  159.0960  133.7340 C   0  0  0  0  0  0  0  0  0  0  0  0
  143.3430  159.9500  134.6040 O   0  0  0  0  0  0  0  0  0  0  0  0
  142.8660  157.8560  133.6030 C   0  0  0  0  0  0  0  0  0  0  0  0
  141.4900  157.8420  133.3910 C   0  0  0  0  0  0  0  0  0  0  0  0
  141.1540  156.5140  133.2550 C   0  0  0  0  0  0  0  0  0  0  0  0
  139.9110  155.9200  133.0560 C   0  0  0  0  0  0  0  0  0  0  0  0
  139.8540  154.5180  132.9960 C   0  0  0  0  0  0  0  0  0  0  0  0
  141.0320  153.7370  133.1280 C   0  0  0  0  0  0  0  0  0  0  0  0
  140.9510  152.2310  133.1220 C   0  0  0  0  0  0  0  0  0  0  0  0
  140.9990  151.7680  134.4230 F   0  0  0  0  0  0  0  0  0  0  0  0
  142.0060  151.6880  132.4100 F   0  0  0  0  0  0  0  0  0  0  0  0
  139.7710  151.8080  132.5370 F   0  0  0  0  0  0  0  0  0  0  0  0
  142.2710  154.3790  133.3570 C   0  0  0  0  0  0  0  0  0  0  0  0
  142.3010  155.7770  133.3900 C   0  0  0  0  0  0  0  0  0  0  0  0
  143.3610  156.5860  133.6030 N   0  0  0  0  0  0  0  0  0  0  0  0
  144.7100  156.1660  133.8580 C   0  0  0  0  0  0  0  0  0  0  0  0
  144.9420  155.3300  134.7740 O   0  0  0  0  0  0  0  0  0  0  0  0
  145.7860  156.6840  133.0670 N   0  0  0  0  0  0  0  0  0  0  0  0
  147.1550  156.2040  133.2330 C   0  0  0  0  0  0  0  0  0  0  0  0
  148.1270  157.1650  132.6270 C   0  0  0  0  0  0  0  0  0  0  0  0
  149.3410  156.8440  132.5210 O   0  0  0  0  0  0  0  0  0  0  0  0
  147.6640  158.3920  132.1360 O   0  0  0  0  0  0  0  0  0  0  0  0
  148.1540  159.6540  132.5890 C   0  0  0  0  0  0  0  0  0  0  0  0
  148.7210  160.4820  131.4260 C   0  0  0  0  0  0  0  0  0  0  0  0
  149.7770  159.7150  130.6230 C   0  0  0  0  0  0  0  0  0  0  0  0
  149.2090  158.6120  129.9700 O   0  0  0  0  0  0  0  0  0  0  0  0
  145.6590  158.8440  132.9570 H   0  0  0  0  0  0  0  0  0  0  0  0
  140.8144  158.7087  133.3425 H   0  0  0  0  0  0  0  0  0  0  0  0
  139.0017  156.5297  132.9491 H   0  0  0  0  0  0  0  0  0  0  0  0
  138.8852  154.0193  132.8450 H   0  0  0  0  0  0  0  0  0  0  0  0
  143.1897  153.7926  133.5057 H   0  0  0  0  0  0  0  0  0  0  0  0
  145.5740  157.4350  132.3690 H   0  0  0  0  0  0  0  0  0  0  0  0
  147.3731  156.0976  134.3059 H   0  0  0  0  0  0  0  0  0  0  0  0
  147.2540  155.2327  132.7262 H   0  0  0  0  0  0  0  0  0  0  0  0
  147.3295  160.2115  133.0573 H   0  0  0  0  0  0  0  0  0  0  0  0
  148.9620  159.4734  133.3132 H   0  0  0  0  0  0  0  0  0  0  0  0
  147.8957  160.7565  130.7525 H   0  0  0  0  0  0  0  0  0  0  0  0
  149.2058  161.3722  131.8532 H   0  0  0  0  0  0  0  0  0  0  0  0
  150.2182  160.3886  129.8736 H   0  0  0  0  0  0  0  0  0  0  0  0
  150.5492  159.3517  131.3171 H   0  0  0  0  0  0  0  0  0  0  0  0
  149.1400  157.8860  130.6450 H   0  0  0  0  0  0  0  0  0  0  0  0
  1  2  1  0
  2  3  2  0
  2  4  1  0
  4  5  2  0
  5  6  1  0
  6  7  2  0
  7  8  1  0
  8  9  2  0
  9 10  1  0
 10 11  1  0
 10 12  1  0
 10 13  1  0
  9 14  1  0
 14 15  2  0
 15 16  1  0
 16 17  1  0
 17 18  2  0
 17 19  1  0
 19 20  1  0
 20 21  1  0
 21 22  2  0
 21 23  1  0
 23 24  1  0
 24 25  1  0
 25 26  1  0
 26 27  1  0
 16  4  1  0
 15  6  1  0
  1 28  1  0
  5 29  1  0
  7 30  1  0
  8 31  1  0
 14 32  1  0
 19 33  1  0
 20 34  1  0
 20 35  1  0
 24 36  1  0
 24 37  1  0
 25 38  1  0
 25 39  1  0
 26 40  1  0
 26 41  1  0
 27 42  1  0
M  CHG  1   1  -1
M  END
>  <UniqueID>  (25) 
25

>  <SMILES>  (25) 
[NH-]C(=O)c1cc2ccc(C(F)(F)F)cc2n1C(=O)NCC(=O)OCCCO

>  <Energy>  (25) 
73.56997505890727

>  <Genealogy>  (25) 
[NH-]C(=O)c1cc2ccc(C(F)(F)F)cc2n1C(=O)NCC(=O)OCCCO (protonated)
[NH-]C(=O)c1cc2ccc(C(F)(F)F)cc2n1C(=O)NCC(=O)OCCCO (3D coordinates assigned)
[NH-]C(=O)c1cc2ccc(C(F)(F)F)cc2n1C(=O)NCC(=O)OCCCO (optimized conformer: 73.56997505890727 kcal/mol)

>  <smiles>  (25) 
NC(=O)c1cc2ccc(C(F)(F)F)cc2n1C(=O)NCC(=O)OCCCO

>  <score_type>  (25) 
oracle

>  <origin>  (25) 
adg

>  <m_score__min__energy>  (25) 
-5.9400000000000004

>  <m_primary>  (25) 
energy

$$$$
25:0
     RDKit          3D

 39 40  0  0  0  0  0  0  0  0999 V2000
  139.7160  149.8630  131.4800 C   0  0  0  0  0  0  0  0  0  0  0  0
  139.7680  150.7790  132.6150 N   0  0  0  0  0  0  0  0  0  0  0  0
  140.8620  151.6820  132.8580 C   0  0  0  0  0  0  0  0  0  0  0  0
  142.1950  151.2130  133.0140 C   0  0  0  0  0  0  0  0  0  0  0  0
  143.2510  152.1100  133.2550 C   0  0  0  0  0  0  0  0  0  0  0  0
  142.9490  153.4660  133.3290 C   0  0  0  0  0  0  0  0  0  0  0  0
  143.7690  154.5480  133.5670 C   0  0  0  0  0  0  0  0  0  0  0  0
  142.9260  155.6600  133.5450 C   0  0  0  0  0  0  0  0  0  0  0  0
  143.3870  157.0500  133.7400 C   0  0  0  0  0  0  0  0  0  0  0  0
  143.3880  157.9600  132.6420 N   0  0  0  0  0  0  0  0  0  0  0  0
  143.7740  157.4470  134.8700 O   0  0  0  0  0  0  0  0  0  0  0  0
  141.6440  155.2770  133.2920 N   0  0  0  0  0  0  0  0  0  0  0  0
  140.4830  156.1130  133.2080 C   0  0  0  0  0  0  0  0  0  0  0  0
  139.3940  155.7180  133.7010 O   0  0  0  0  0  0  0  0  0  0  0  0
  140.5410  157.3960  132.5750 N   0  0  0  0  0  0  0  0  0  0  0  0
  139.6920  158.5330  132.9320 C   0  0  2  0  0  0  0  0  0  0  0  0
  139.0370  159.1160  131.7080 C   0  0  0  0  0  0  0  0  0  0  0  0
  137.7850  159.0860  131.5720 O   0  0  0  0  0  0  0  0  0  0  0  0
  139.8210  159.6650  130.7010 O   0  0  0  0  0  0  0  0  0  0  0  0
  140.5130  159.5880  133.7100 C   0  0  1  0  0  0  0  0  0  0  0  0
  140.9460  159.1070  135.1000 C   0  0  0  0  0  0  0  0  0  0  0  0
  141.6550  159.9530  132.9790 O   0  0  0  0  0  0  0  0  0  0  0  0
  141.6730  153.9340  133.1710 C   0  0  0  0  0  0  0  0  0  0  0  0
  140.6010  153.0680  132.9450 C   0  0  0  0  0  0  0  0  0  0  0  0
  139.6572  148.8276  131.8468 H   0  0  0  0  0  0  0  0  0  0  0  0
  138.8291  150.0864  130.8689 H   0  0  0  0  0  0  0  0  0  0  0  0
  140.6225  149.9846  130.8689 H   0  0  0  0  0  0  0  0  0  0  0  0
  138.9610  150.7730  133.2800 H   0  0  0  0  0  0  0  0  0  0  0  0
  142.4030  150.1350  132.9454 H   0  0  0  0  0  0  0  0  0  0  0  0
  144.2830  151.7508  133.3810 H   0  0  0  0  0  0  0  0  0  0  0  0
  144.8556  154.5373  133.7378 H   0  0  0  0  0  0  0  0  0  0  0  0
  142.4990  158.2340  132.1700 H   0  0  0  0  0  0  0  0  0  0  0  0
  138.8851  158.1842  133.5932 H   0  0  0  0  0  0  0  0  0  0  0  0
  139.8485  160.4537  133.8477 H   0  0  0  0  0  0  0  0  0  0  0  0
  140.4205  159.6907  135.8702 H   0  0  0  0  0  0  0  0  0  0  0  0
  140.6965  158.0417  135.2135 H   0  0  0  0  0  0  0  0  0  0  0  0
  142.0316  159.2435  135.2135 H   0  0  0  0  0  0  0  0  0  0  0  0
  141.7310  159.3130  132.2240 H   0  0  0  0  0  0  0  0  0  0  0  0
  139.5773  153.4558  132.8372 H   0  0  0  0  0  0  0  0  0  0  0  0
  1  2  1  0
  2  3  1  0
  3  4  2  0
  4  5  1  0
  5  6  2  0
  6  7  1  0
  7  8  2  0
  8  9  1  0
  9 10  1  0
  9 11  2  0
  8 12  1  0
 12 13  1  0
 13 14  2  0
 13 15  1  0
 15 16  1  0
 16 17  1  0
 17 18  2  0
 17 19  1  0
 16 20  1  0
 20 21  1  0
 20 22  1  0
 12 23  1  0
 23 24  2  0
 24  3  1  0
 23  6  1  0
  1 25  1  0
  1 26  1  0
  1 27  1  0
  2 28  1  0
  4 29  1  0
  5 30  1  0
  7 31  1  0
 10 32  1  0
 16 33  1  1
 20 34  1  1
 21 35  1  0
 21 36  1  0
 21 37  1  0
 22 38  1  0
 24 39  1  0
M  CHG  3  10  -1  15  -1  19  -1
M  END
>  <UniqueID>  (26) 
26

>  <SMILES>  (26) 
CNc1ccc2cc(C([NH-])=O)n(C(=O)[N-][C@H](C(=O)[O-])[C@@H](C)O)c2c1

>  <Energy>  (26) 
72.3821433882625

>  <Genealogy>  (26) 
CNc1ccc2cc(C([NH-])=O)n(C(=O)[N-]C(C(=O)[O-])C(C)O)c2c1 (protonated)
CNc1ccc2cc(C([NH-])=O)n(C(=O)[N-][C@H](C(=O)[O-])[C@@H](C)O)c2c1 (chirality)
CNc1ccc2cc(C([NH-])=O)n(C(=O)[N-][C@H](C(=O)[O-])[C@@H](C)O)c2c1 (3D coordinates assigned)
CNc1ccc2cc(C([NH-])=O)n(C(=O)[N-][C@H](C(=O)[O-])[C@@H](C)O)c2c1 (optimized conformer: 72.3821433882625 kcal/mol)

>  <smiles>  (26) 
CNc1ccc2cc(C(N)=O)n(C(=O)NC(C(=O)O)C(C)O)c2c1

>  <score_type>  (26) 
oracle

>  <origin>  (26) 
adg

>  <m_score__min__energy>  (26) 
-6.9500000000000002

>  <m_primary>  (26) 
energy

$$$$
26:0
     RDKit          3D

 47 48  0  0  0  0  0  0  0  0999 V2000
  141.9230  155.0020  139.0460 C   0  0  0  0  0  0  0  0  0  0  0  0
  141.4920  156.1030  138.1200 C   0  0  0  0  0  0  0  0  0  0  0  0
  141.3820  157.4280  138.6100 C   0  0  0  0  0  0  0  0  0  0  0  0
  140.9840  158.4760  137.7660 C   0  0  0  0  0  0  0  0  0  0  0  0
  140.7230  158.1700  136.4300 C   0  0  0  0  0  0  0  0  0  0  0  0
  140.3850  158.9980  135.3870 C   0  0  0  0  0  0  0  0  0  0  0  0
  140.3190  158.1700  134.2610 C   0  0  0  0  0  0  0  0  0  0  0  0
  140.0560  158.6450  132.8790 C   0  0  0  0  0  0  0  0  0  0  0  0
  141.1210  158.8460  131.9460 N   0  0  0  0  0  0  0  0  0  0  0  0
  138.8750  158.8530  132.4940 O   0  0  0  0  0  0  0  0  0  0  0  0
  140.6110  156.8840  134.6100 N   0  0  0  0  0  0  0  0  0  0  0  0
  140.6500  155.7220  133.7650 C   0  0  0  0  0  0  0  0  0  0  0  0
  139.5670  155.2520  133.3150 O   0  0  0  0  0  0  0  0  0  0  0  0
  141.9040  155.0790  133.4530 N   0  0  0  0  0  0  0  0  0  0  0  0
  142.0030  153.6180  133.4370 C   0  0  0  0  0  0  0  0  0  0  0  0
  143.0440  155.8630  132.9580 C   0  0  0  0  0  0  0  0  0  0  0  0
  143.9040  156.3540  134.1320 C   0  0  0  0  0  0  0  0  0  0  0  0
  143.5970  157.8160  134.4940 C   0  0  0  0  0  0  0  0  0  0  0  0
  143.8790  158.7340  133.3630 N   0  0  0  0  0  0  0  0  0  0  0  0
  143.4400  160.0990  133.7030 C   0  0  0  0  0  0  0  0  0  0  0  0
  145.3210  158.7490  133.0420 C   0  0  0  0  0  0  0  0  0  0  0  0
  140.8540  156.9010  135.9380 C   0  0  0  0  0  0  0  0  0  0  0  0
  141.2250  155.8330  136.7620 C   0  0  0  0  0  0  0  0  0  0  0  0
  141.7951  155.3287  140.0886 H   0  0  0  0  0  0  0  0  0  0  0  0
  141.3084  154.1081  138.8638 H   0  0  0  0  0  0  0  0  0  0  0  0
  142.9811  154.7629  138.8638 H   0  0  0  0  0  0  0  0  0  0  0  0
  141.6115  157.6377  139.6652 H   0  0  0  0  0  0  0  0  0  0  0  0
  140.8813  159.5036  138.1447 H   0  0  0  0  0  0  0  0  0  0  0  0
  140.2045  160.0823  135.4284 H   0  0  0  0  0  0  0  0  0  0  0  0
  140.9080  159.1870  130.9760 H   0  0  0  0  0  0  0  0  0  0  0  0
  142.1100  158.6220  132.1800 H   0  0  0  0  0  0  0  0  0  0  0  0
  142.0286  153.2409  134.4700 H   0  0  0  0  0  0  0  0  0  0  0  0
  141.1313  153.1971  132.9145 H   0  0  0  0  0  0  0  0  0  0  0  0
  142.9235  153.3186  132.9145 H   0  0  0  0  0  0  0  0  0  0  0  0
  143.6578  155.2332  132.2972 H   0  0  0  0  0  0  0  0  0  0  0  0
  142.6650  156.7342  132.4035 H   0  0  0  0  0  0  0  0  0  0  0  0
  143.7039  155.7208  135.0089 H   0  0  0  0  0  0  0  0  0  0  0  0
  144.9602  156.2914  133.8310 H   0  0  0  0  0  0  0  0  0  0  0  0
  142.5341  157.9003  134.7646 H   0  0  0  0  0  0  0  0  0  0  0  0
  144.2432  158.1028  135.3367 H   0  0  0  0  0  0  0  0  0  0  0  0
  143.4040  160.2108  134.7967 H   0  0  0  0  0  0  0  0  0  0  0  0
  144.1492  160.8275  133.2830 H   0  0  0  0  0  0  0  0  0  0  0  0
  142.4391  160.2776  133.2830 H   0  0  0  0  0  0  0  0  0  0  0  0
  145.9042  158.7551  133.9747 H   0  0  0  0  0  0  0  0  0  0  0  0
  145.5756  157.8534  132.4562 H   0  0  0  0  0  0  0  0  0  0  0  0
  145.5569  159.6496  132.4562 H   0  0  0  0  0  0  0  0  0  0  0  0
  141.3061  154.8116  136.3618 H   0  0  0  0  0  0  0  0  0  0  0  0
  1  2  1  0
  2  3  2  0
  3  4  1  0
  4  5  2  0
  5  6  1  0
  6  7  2  0
  7  8  1  0
  8  9  1  0
  8 10  2  0
  7 11  1  0
 11 12  1  0
 12 13  2  0
 12 14  1  0
 14 15  1  0
 14 16  1  0
 16 17  1  0
 17 18  1  0
 18 19  1  0
 19 20  1  0
 19 21  1  0
 11 22  1  0
 22 23  2  0
 23  2  1  0
 22  5  1  0
  1 24  1  0
  1 25  1  0
  1 26  1  0
  3 27  1  0
  4 28  1  0
  6 29  1  0
  9 30  1  0
  9 31  1  0
 15 32  1  0
 15 33  1  0
 15 34  1  0
 16 35  1  0
 16 36  1  0
 17 37  1  0
 17 38  1  0
 18 39  1  0
 18 40  1  0
 20 41  1  0
 20 42  1  0
 20 43  1  0
 21 44  1  0
 21 45  1  0
 21 46  1  0
 23 47  1  0
M  END
>  <UniqueID>  (27) 
27

>  <SMILES>  (27) 
Cc1ccc2cc(C(N)=O)n(C(=O)N(C)CCCN(C)C)c2c1

>  <Energy>  (27) 
79.78416917611943

>  <Genealogy>  (27) 
Cc1ccc2cc(C(N)=O)n(C(=O)N(C)CCCN(C)C)c2c1 (3D coordinates assigned)
Cc1ccc2cc(C(N)=O)n(C(=O)N(C)CCCN(C)C)c2c1 (optimized conformer: 79.78416917611943 kcal/mol)

>  <smiles>  (27) 
Cc1ccc2cc(C(N)=O)n(C(=O)N(C)CCCN(C)C)c2c1

>  <score_type>  (27) 
oracle

>  <origin>  (27) 
adg

>  <m_score__min__energy>  (27) 
-6.9000000000000004

>  <m_primary>  (27) 
energy

$$$$
27:0
     RDKit          3D

 48 49  0  0  0  0  0  0  0  0999 V2000
  147.5540  154.5510  135.9970 C   0  0  0  0  0  0  0  0  0  0  0  0
  147.2790  154.8160  134.5050 C   0  0  0  0  0  0  0  0  0  0  0  0
  148.0930  153.8490  133.6220 C   0  0  0  0  0  0  0  0  0  0  0  0
  145.7840  154.5990  134.2290 C   0  0  0  0  0  0  0  0  0  0  0  0
  147.5780  156.1790  134.1680 O   0  0  0  0  0  0  0  0  0  0  0  0
  147.2890  156.8170  132.9530 C   0  0  0  0  0  0  0  0  0  0  0  0
  147.2980  156.1780  131.8660 O   0  0  0  0  0  0  0  0  0  0  0  0
  146.9510  158.2130  132.9530 N   0  0  0  0  0  0  0  0  0  0  0  0
  147.7600  159.2650  132.6490 C   0  0  0  0  0  0  0  0  0  0  0  0
  149.1220  159.1780  132.0830 C   0  0  0  0  0  0  0  0  0  0  0  0
  149.7430  157.9150  131.8580 N   0  0  0  0  0  0  0  0  0  0  0  0
  149.7280  160.2300  131.7480 O   0  0  0  0  0  0  0  0  0  0  0  0
  147.1000  160.4710  132.8770 C   0  0  0  0  0  0  0  0  0  0  0  0
  145.8480  160.1210  133.3290 C   0  0  0  0  0  0  0  0  0  0  0  0
  144.7870  160.9230  133.7340 C   0  0  0  0  0  0  0  0  0  0  0  0
  143.6230  160.2890  134.1990 C   0  0  0  0  0  0  0  0  0  0  0  0
  143.5350  158.8750  134.2550 C   0  0  0  0  0  0  0  0  0  0  0  0
  142.3290  158.2740  134.7600 N   0  0  0  0  0  0  0  0  0  0  0  0
  141.0280  158.9470  134.8250 C   0  0  2  0  0  0  0  0  0  0  0  0
  140.0200  158.0970  135.6130 C   0  0  0  0  0  0  0  0  0  0  0  0
  140.8620  156.8570  136.6530 P   0  0  0  0  0  0  0  0  0  0  0  0
  142.0970  157.4770  137.2630 O   0  0  0  0  0  0  0  0  0  0  0  0
  141.3130  155.5300  135.7060 O   0  0  0  0  0  0  0  0  0  0  0  0
  139.8310  156.3400  137.8900 O   0  0  0  0  0  0  0  0  0  0  0  0
  140.4120  159.2300  133.1320 P   0  0  0  0  0  0  0  0  0  0  0  0
  141.1970  158.3860  132.1520 O   0  0  0  0  0  0  0  0  0  0  0  0
  138.7770  158.8090  133.0430 O   0  0  0  0  0  0  0  0  0  0  0  0
  140.5930  160.8630  132.7290 O   0  0  0  0  0  0  0  0  0  0  0  0
  144.6440  158.0940  133.8420 C   0  0  0  0  0  0  0  0  0  0  0  0
  145.7830  158.7530  133.3660 C   0  0  0  0  0  0  0  0  0  0  0  0
  146.8960  155.1851  136.6094 H   0  0  0  0  0  0  0  0  0  0  0  0
  147.3580  153.4926  136.2236 H   0  0  0  0  0  0  0  0  0  0  0  0
  148.6044  154.7861  136.2236 H   0  0  0  0  0  0  0  0  0  0  0  0
  148.6691  153.1647  134.2622 H   0  0  0  0  0  0  0  0  0  0  0  0
  147.4082  153.2678  132.9869 H   0  0  0  0  0  0  0  0  0  0  0  0
  148.7824  154.4246  132.9869 H   0  0  0  0  0  0  0  0  0  0  0  0
  145.2426  154.5204  135.1833 H   0  0  0  0  0  0  0  0  0  0  0  0
  145.3903  155.4494  133.6530 H   0  0  0  0  0  0  0  0  0  0  0  0
  145.6483  153.6717  133.6530 H   0  0  0  0  0  0  0  0  0  0  0  0
  149.2070  157.1170  131.4490 H   0  0  0  0  0  0  0  0  0  0  0  0
  147.4955  161.4865  132.7275 H   0  0  0  0  0  0  0  0  0  0  0  0
  144.8569  162.0200  133.6916 H   0  0  0  0  0  0  0  0  0  0  0  0
  142.7671  160.8985  134.5245 H   0  0  0  0  0  0  0  0  0  0  0  0
  142.3770  157.2810  135.0830 H   0  0  0  0  0  0  0  0  0  0  0  0
  141.1479  159.9106  135.3417 H   0  0  0  0  0  0  0  0  0  0  0  0
  139.4218  158.7577  136.2577 H   0  0  0  0  0  0  0  0  0  0  0  0
  139.3783  157.5667  134.8939 H   0  0  0  0  0  0  0  0  0  0  0  0
  144.6098  156.9958  133.8945 H   0  0  0  0  0  0  0  0  0  0  0  0
  1  2  1  0
  2  3  1  0
  2  4  1  0
  2  5  1  0
  5  6  1  0
  6  7  2  0
  6  8  1  0
  8  9  1  0
  9 10  1  0
 10 11  1  0
 10 12  2  0
  9 13  2  0
 13 14  1  0
 14 15  2  0
 15 16  1  0
 16 17  2  0
 17 18  1  0
 18 19  1  0
 19 20  1  0
 20 21  1  0
 21 22  2  0
 21 23  1  0
 21 24  1  0
 19 25  1  0
 25 26  2  0
 25 27  1  0
 25 28  1  0
 17 29  1  0
 29 30  2  0
 30  8  1  0
 30 14  1  0
  1 31  1  0
  1 32  1  0
  1 33  1  0
  3 34  1  0
  3 35  1  0
  3 36  1  0
  4 37  1  0
  4 38  1  0
  4 39  1  0
 11 40  1  0
 13 41  1  0
 15 42  1  0
 16 43  1  0
 18 44  1  0
 19 45  1  1
 20 46  1  0
 20 47  1  0
 29 48  1  0
M  CHG  5  11  -1  23  -1  24  -1  27  -1  28  -1
M  END
>  <UniqueID>  (28) 
28

>  <SMILES>  (28) 
CC(C)(C)OC(=O)n1c(C([NH-])=O)cc2ccc(N[C@H](CP(=O)([O-])[O-])P(=O)([O-])[O-])cc21

>  <Energy>  (28) 
72.85001746020184

>  <Genealogy>  (28) 
CC(C)(C)OC(=O)n1c(C([NH-])=O)cc2ccc(NC(CP(=O)([O-])[O-])P(=O)([O-])[O-])cc21 (protonated)
CC(C)(C)OC(=O)n1c(C([NH-])=O)cc2ccc(N[C@H](CP(=O)([O-])[O-])P(=O)([O-])[O-])cc21 (chirality)
CC(C)(C)OC(=O)n1c(C([NH-])=O)cc2ccc(N[C@H](CP(=O)([O-])[O-])P(=O)([O-])[O-])cc21 (3D coordinates assigned)
CC(C)(C)OC(=O)n1c(C([NH-])=O)cc2ccc(N[C@H](CP(=O)([O-])[O-])P(=O)([O-])[O-])cc21 (optimized conformer: 72.85001746020184 kcal/mol)

>  <smiles>  (28) 
CC(C)(C)OC(=O)n1c(C(N)=O)cc2ccc(NC(CP(=O)(O)O)P(=O)(O)O)cc21

>  <score_type>  (28) 
oracle

>  <origin>  (28) 
adg

>  <m_score__min__energy>  (28) 
-7.8399999999999999

>  <m_primary>  (28) 
energy

$$$$
28:0
     RDKit          3D

 46 47  0  0  0  0  0  0  0  0999 V2000
  147.5840  152.0380  132.3250 C   0  0  0  0  0  0  0  0  0  0  0  0
  148.7490  152.5970  133.1740 C   0  0  0  0  0  0  0  0  0  0  0  0
  149.6130  151.4190  133.6720 C   0  0  0  0  0  0  0  0  0  0  0  0
  149.6080  153.5800  132.3380 C   0  0  0  0  0  0  0  0  0  0  0  0
  149.2560  154.9750  132.6070 N   0  0  0  0  0  0  0  0  0  0  0  0
  148.2070  153.3570  134.3700 C   0  0  0  0  0  0  0  0  0  0  0  0
  148.4880  152.9870  135.5440 O   0  0  0  0  0  0  0  0  0  0  0  0
  147.3160  154.4180  134.1670 O   0  0  0  0  0  0  0  0  0  0  0  0
  146.1140  154.5700  134.9160 C   0  0  0  0  0  0  0  0  0  0  0  0
  145.3070  155.5860  134.3260 O   0  0  0  0  0  0  0  0  0  0  0  0
  145.7880  156.4580  133.3430 C   0  0  0  0  0  0  0  0  0  0  0  0
  146.3180  156.0040  132.2920 O   0  0  0  0  0  0  0  0  0  0  0  0
  145.6520  157.8770  133.5190 N   0  0  0  0  0  0  0  0  0  0  0  0
  146.6340  158.8220  133.4810 C   0  0  0  0  0  0  0  0  0  0  0  0
  148.0880  158.5450  133.4280 C   0  0  0  0  0  0  0  0  0  0  0  0
  148.5790  157.2040  133.4820 N   0  0  0  0  0  0  0  0  0  0  0  0
  148.9080  159.4920  133.3080 O   0  0  0  0  0  0  0  0  0  0  0  0
  146.0830  160.1000  133.5820 C   0  0  0  0  0  0  0  0  0  0  0  0
  144.7250  159.9060  133.6770 C   0  0  0  0  0  0  0  0  0  0  0  0
  143.6890  160.8330  133.7600 C   0  0  0  0  0  0  0  0  0  0  0  0
  142.3700  160.3480  133.7920 C   0  0  0  0  0  0  0  0  0  0  0  0
  142.1120  158.9540  133.7520 C   0  0  0  0  0  0  0  0  0  0  0  0
  140.6970  158.4480  133.7280 C   0  0  0  0  0  0  0  0  0  0  0  0
  139.9440  159.2240  132.8660 F   0  0  0  0  0  0  0  0  0  0  0  0
  140.1440  158.5050  134.9970 F   0  0  0  0  0  0  0  0  0  0  0  0
  143.1880  158.0470  133.6600 C   0  0  0  0  0  0  0  0  0  0  0  0
  144.4910  158.5560  133.6390 C   0  0  0  0  0  0  0  0  0  0  0  0
  146.7943  151.6591  132.9904 H   0  0  0  0  0  0  0  0  0  0  0  0
  147.1759  152.8384  131.6903 H   0  0  0  0  0  0  0  0  0  0  0  0
  147.9530  151.2189  131.6903 H   0  0  0  0  0  0  0  0  0  0  0  0
  149.6204  151.4090  134.7719 H   0  0  0  0  0  0  0  0  0  0  0  0
  149.1930  150.4731  133.2995 H   0  0  0  0  0  0  0  0  0  0  0  0
  150.6414  151.5354  133.2995 H   0  0  0  0  0  0  0  0  0  0  0  0
  150.6684  153.4262  132.5868 H   0  0  0  0  0  0  0  0  0  0  0  0
  149.4180  153.3791  131.2733 H   0  0  0  0  0  0  0  0  0  0  0  0
  149.2960  155.1190  133.6430 H   0  0  0  0  0  0  0  0  0  0  0  0
  148.2560  155.1210  132.3350 H   0  0  0  0  0  0  0  0  0  0  0  0
  145.5614  153.6189  134.9180 H   0  0  0  0  0  0  0  0  0  0  0  0
  146.3615  154.8548  135.9493 H   0  0  0  0  0  0  0  0  0  0  0  0
  149.6040  157.0190  133.4060 H   0  0  0  0  0  0  0  0  0  0  0  0
  147.9400  156.3960  133.6440 H   0  0  0  0  0  0  0  0  0  0  0  0
  146.6210  161.0594  133.5850 H   0  0  0  0  0  0  0  0  0  0  0  0
  143.8967  161.9125  133.7993 H   0  0  0  0  0  0  0  0  0  0  0  0
  141.5302  161.0562  133.8486 H   0  0  0  0  0  0  0  0  0  0  0  0
  140.6995  157.4030  133.3846 H   0  0  0  0  0  0  0  0  0  0  0  0
  143.0068  156.9634  133.6060 H   0  0  0  0  0  0  0  0  0  0  0  0
  1  2  1  0
  2  3  1  0
  2  4  1  0
  4  5  1  0
  2  6  1  0
  6  7  2  0
  6  8  1  0
  8  9  1  0
  9 10  1  0
 10 11  1  0
 11 12  2  0
 11 13  1  0
 13 14  1  0
 14 15  1  0
 15 16  1  0
 15 17  2  0
 14 18  2  0
 18 19  1  0
 19 20  2  0
 20 21  1  0
 21 22  2  0
 22 23  1  0
 23 24  1  0
 23 25  1  0
 22 26  1  0
 26 27  2  0
 27 13  1  0
 27 19  1  0
  1 28  1  0
  1 29  1  0
  1 30  1  0
  3 31  1  0
  3 32  1  0
  3 33  1  0
  4 34  1  0
  4 35  1  0
  5 36  1  0
  5 37  1  0
  9 38  1  0
  9 39  1  0
 16 40  1  0
 16 41  1  0
 18 42  1  0
 20 43  1  0
 21 44  1  0
 23 45  1  0
 26 46  1  0
M  END
>  <UniqueID>  (29) 
29

>  <SMILES>  (29) 
CC(C)(CN)C(=O)OCOC(=O)n1c(C(N)=O)cc2ccc(C(F)F)cc21

>  <Energy>  (29) 
75.59441047513637

>  <Genealogy>  (29) 
CC(C)(CN)C(=O)OCOC(=O)n1c(C(N)=O)cc2ccc(C(F)F)cc21 (3D coordinates assigned)
CC(C)(CN)C(=O)OCOC(=O)n1c(C(N)=O)cc2ccc(C(F)F)cc21 (optimized conformer: 75.59441047513637 kcal/mol)

>  <smiles>  (29) 
CC(C)(CN)C(=O)OCOC(=O)n1c(C(N)=O)cc2ccc(C(F)F)cc21

>  <score_type>  (29) 
oracle

>  <origin>  (29) 
adg

>  <m_score__min__energy>  (29) 
-6.8799999999999999

>  <m_primary>  (29) 
energy

$$$$
29:0
     RDKit          3D

 32 33  0  0  0  0  0  0  0  0999 V2000
  144.4650  153.7360  136.9390 N   0  0  0  0  0  0  0  0  0  0  0  0
  144.1320  154.1460  135.6110 C   0  0  0  0  0  0  0  0  0  0  0  0
  143.2510  153.5060  134.9770 O   0  0  0  0  0  0  0  0  0  0  0  0
  144.7910  155.3170  134.9890 C   0  0  0  0  0  0  0  0  0  0  0  0
  144.1100  156.4260  134.4870 C   0  0  0  0  0  0  0  0  0  0  0  0
  145.0810  157.2350  133.9440 C   0  0  0  0  0  0  0  0  0  0  0  0
  144.9670  158.4770  133.3270 C   0  0  0  0  0  0  0  0  0  0  0  0
  146.1440  159.1050  132.8860 C   0  0  0  0  0  0  0  0  0  0  0  0
  147.4070  158.4830  133.0600 C   0  0  0  0  0  0  0  0  0  0  0  0
  148.6690  159.1910  132.6380 C   0  0  0  0  0  0  0  0  0  0  0  0
  149.3360  158.4600  131.6700 F   0  0  0  0  0  0  0  0  0  0  0  0
  149.4940  159.3450  133.7360 F   0  0  0  0  0  0  0  0  0  0  0  0
  148.3790  160.4380  132.1130 F   0  0  0  0  0  0  0  0  0  0  0  0
  147.4820  157.2330  133.7170 C   0  0  0  0  0  0  0  0  0  0  0  0
  146.2920  156.6190  134.1240 C   0  0  0  0  0  0  0  0  0  0  0  0
  146.1300  155.4360  134.7590 N   0  0  0  0  0  0  0  0  0  0  0  0
  147.1620  154.5200  135.1630 C   0  0  0  0  0  0  0  0  0  0  0  0
  147.8080  153.8860  134.2860 O   0  0  0  0  0  0  0  0  0  0  0  0
  147.4780  154.2830  136.6100 C   0  0  0  0  0  0  0  0  0  0  0  0
  147.0140  153.0110  136.9960 O   0  0  0  0  0  0  0  0  0  0  0  0
  146.8520  152.9910  138.6920 P   0  0  0  0  0  0  0  0  0  0  0  0
  147.6940  151.8690  139.2540 O   0  0  0  0  0  0  0  0  0  0  0  0
  145.2350  152.7390  139.1250 O   0  0  0  0  0  0  0  0  0  0  0  0
  147.3880  154.4600  139.3390 O   0  0  0  0  0  0  0  0  0  0  0  0
  143.9650  152.9310  137.3780 H   0  0  0  0  0  0  0  0  0  0  0  0
  145.2330  154.1950  137.4750 H   0  0  0  0  0  0  0  0  0  0  0  0
  143.0266  156.6137  134.5186 H   0  0  0  0  0  0  0  0  0  0  0  0
  143.9850  158.9529  133.1887 H   0  0  0  0  0  0  0  0  0  0  0  0
  146.0854  160.0902  132.4003 H   0  0  0  0  0  0  0  0  0  0  0  0
  148.4543  156.7538  133.9041 H   0  0  0  0  0  0  0  0  0  0  0  0
  148.5665  154.3359  136.7598 H   0  0  0  0  0  0  0  0  0  0  0  0
  146.9827  155.0518  137.2212 H   0  0  0  0  0  0  0  0  0  0  0  0
  1  2  1  0
  2  3  2  0
  2  4  1  0
  4  5  2  0
  5  6  1  0
  6  7  2  0
  7  8  1  0
  8  9  2  0
  9 10  1  0
 10 11  1  0
 10 12  1  0
 10 13  1  0
  9 14  1  0
 14 15  2  0
 15 16  1  0
 16 17  1  0
 17 18  2  0
 17 19  1  0
 19 20  1  0
 20 21  1  0
 21 22  2  0
 21 23  1  0
 21 24  1  0
 16  4  1  0
 15  6  1  0
  1 25  1  0
  1 26  1  0
  5 27  1  0
  7 28  1  0
  8 29  1  0
 14 30  1  0
 19 31  1  0
 19 32  1  0
M  CHG  2  23  -1  24  -1
M  END
>  <UniqueID>  (30) 
30

>  <SMILES>  (30) 
NC(=O)c1cc2ccc(C(F)(F)F)cc2n1C(=O)COP(=O)([O-])[O-]

>  <Energy>  (30) 
69.85925573145933

>  <Genealogy>  (30) 
NC(=O)c1cc2ccc(C(F)(F)F)cc2n1C(=O)COP(=O)([O-])[O-] (protonated)
NC(=O)c1cc2ccc(C(F)(F)F)cc2n1C(=O)COP(=O)([O-])[O-] (3D coordinates assigned)
NC(=O)c1cc2ccc(C(F)(F)F)cc2n1C(=O)COP(=O)([O-])[O-] (optimized conformer: 69.85925573145933 kcal/mol)

>  <smiles>  (30) 
NC(=O)c1cc2ccc(C(F)(F)F)cc2n1C(=O)COP(=O)(O)O

>  <score_type>  (30) 
oracle

>  <origin>  (30) 
adg

>  <m_score__min__energy>  (30) 
-6.1600000000000001

>  <m_primary>  (30) 
energy

$$$$
30:0
     RDKit          3D

 53 54  0  0  0  0  0  0  0  0999 V2000
  149.5700  161.4700  130.4660 C   0  0  0  0  0  0  0  0  0  0  0  0
  148.8330  160.1900  130.0720 C   0  0  0  0  0  0  0  0  0  0  0  0
  149.2240  158.9840  130.9450 C   0  0  0  0  0  0  0  0  0  0  0  0
  149.0280  159.2090  132.4540 C   0  0  0  0  0  0  0  0  0  0  0  0
  147.6690  158.7620  132.9260 C   0  0  0  0  0  0  0  0  0  0  0  0
  146.5200  159.5400  132.6340 C   0  0  0  0  0  0  0  0  0  0  0  0
  145.2460  159.1130  133.0400 C   0  0  0  0  0  0  0  0  0  0  0  0
  145.1510  157.9110  133.7370 C   0  0  0  0  0  0  0  0  0  0  0  0
  144.0430  157.2540  134.2190 C   0  0  0  0  0  0  0  0  0  0  0  0
  144.5320  156.0930  134.8160 C   0  0  0  0  0  0  0  0  0  0  0  0
  143.6870  155.1230  135.5460 C   0  0  0  0  0  0  0  0  0  0  0  0
  144.0260  153.7360  135.5710 N   0  0  0  0  0  0  0  0  0  0  0  0
  142.6390  155.5090  136.1270 O   0  0  0  0  0  0  0  0  0  0  0  0
  145.8900  156.0340  134.7040 N   0  0  0  0  0  0  0  0  0  0  0  0
  146.7580  154.9710  135.1270 C   0  0  0  0  0  0  0  0  0  0  0  0
  147.6470  155.1940  135.9950 O   0  0  0  0  0  0  0  0  0  0  0  0
  146.6040  153.6890  134.5860 O   0  0  0  0  0  0  0  0  0  0  0  0
  146.7030  153.4060  133.1910 C   0  0  0  0  0  0  0  0  0  0  0  0
  145.4360  152.7990  132.6700 C   0  0  0  0  0  0  0  0  0  0  0  0
  145.4820  151.8170  131.8790 O   0  0  0  0  0  0  0  0  0  0  0  0
  144.2080  153.2980  133.1210 O   0  0  0  0  0  0  0  0  0  0  0  0
  143.0700  153.4870  132.2800 C   0  0  0  0  0  0  0  0  0  0  0  0
  141.9220  152.5530  132.6850 C   0  0  0  0  0  0  0  0  0  0  0  0
  142.1820  151.8100  133.9980 C   0  0  0  0  0  0  0  0  0  0  0  0
  141.5470  152.4840  135.0810 O   0  0  0  0  0  0  0  0  0  0  0  0
  141.3530  151.8770  136.3060 N   0  0  0  0  0  0  0  0  0  0  0  0
  141.8770  152.3380  137.3420 O   0  0  0  0  0  0  0  0  0  0  0  0
  140.6130  150.7220  136.3790 O   0  0  0  0  0  0  0  0  0  0  0  0
  146.2530  157.1540  134.0410 C   0  0  0  0  0  0  0  0  0  0  0  0
  147.5340  157.5460  133.6320 C   0  0  0  0  0  0  0  0  0  0  0  0
  149.6134  161.5454  131.5626 H   0  0  0  0  0  0  0  0  0  0  0  0
  150.5918  161.4447  130.0595 H   0  0  0  0  0  0  0  0  0  0  0  0
  149.0351  162.3410  130.0595 H   0  0  0  0  0  0  0  0  0  0  0  0
  147.7513  160.3617  130.1739 H   0  0  0  0  0  0  0  0  0  0  0  0
  149.1125  159.9527  129.0349 H   0  0  0  0  0  0  0  0  0  0  0  0
  148.6086  158.1243  130.6415 H   0  0  0  0  0  0  0  0  0  0  0  0
  150.2994  158.8146  130.7874 H   0  0  0  0  0  0  0  0  0  0  0  0
  149.7964  158.6413  132.9992 H   0  0  0  0  0  0  0  0  0  0  0  0
  149.1137  160.2884  132.6476 H   0  0  0  0  0  0  0  0  0  0  0  0
  146.6281  160.4867  132.0844 H   0  0  0  0  0  0  0  0  0  0  0  0
  144.3498  159.7097  132.8145 H   0  0  0  0  0  0  0  0  0  0  0  0
  142.9936  157.5763  134.1484 H   0  0  0  0  0  0  0  0  0  0  0  0
  144.9250  153.3930  135.1680 H   0  0  0  0  0  0  0  0  0  0  0  0
  143.3950  153.0510  136.0430 H   0  0  0  0  0  0  0  0  0  0  0  0
  146.9021  154.3419  132.6483 H   0  0  0  0  0  0  0  0  0  0  0  0
  147.5218  152.6875  133.0386 H   0  0  0  0  0  0  0  0  0  0  0  0
  142.7309  154.5301  132.3636 H   0  0  0  0  0  0  0  0  0  0  0  0
  143.3592  153.2560  131.2441 H   0  0  0  0  0  0  0  0  0  0  0  0
  141.0070  153.1529  132.7983 H   0  0  0  0  0  0  0  0  0  0  0  0
  141.8242  151.7943  131.8945 H   0  0  0  0  0  0  0  0  0  0  0  0
  141.7823  150.7880  133.9221 H   0  0  0  0  0  0  0  0  0  0  0  0
  143.2659  151.7776  134.1826 H   0  0  0  0  0  0  0  0  0  0  0  0
  148.4126  156.9228  133.8549 H   0  0  0  0  0  0  0  0  0  0  0  0
  1  2  1  0
  2  3  1  0
  3  4  1  0
  4  5  1  0
  5  6  2  0
  6  7  1  0
  7  8  2  0
  8  9  1  0
  9 10  2  0
 10 11  1  0
 11 12  1  0
 11 13  2  0
 10 14  1  0
 14 15  1  0
 15 16  2  0
 15 17  1  0
 17 18  1  0
 18 19  1  0
 19 20  2  0
 19 21  1  0
 21 22  1  0
 22 23  1  0
 23 24  1  0
 24 25  1  0
 25 26  1  0
 26 27  2  0
 26 28  1  0
 14 29  1  0
 29 30  2  0
 30  5  1  0
 29  8  1  0
  1 31  1  0
  1 32  1  0
  1 33  1  0
  2 34  1  0
  2 35  1  0
  3 36  1  0
  3 37  1  0
  4 38  1  0
  4 39  1  0
  6 40  1  0
  7 41  1  0
  9 42  1  0
 12 43  1  0
 12 44  1  0
 18 45  1  0
 18 46  1  0
 22 47  1  0
 22 48  1  0
 23 49  1  0
 23 50  1  0
 24 51  1  0
 24 52  1  0
 30 53  1  0
M  CHG  2  26   1  28  -1
M  END
>  <UniqueID>  (31) 
31

>  <SMILES>  (31) 
CCCCc1ccc2cc(C(N)=O)n(C(=O)OCC(=O)OCCCO[N+](=O)[O-])c2c1

>  <Energy>  (31) 
77.08114485949932

>  <Genealogy>  (31) 
CCCCc1ccc2cc(C(N)=O)n(C(=O)OCC(=O)OCCCO[N+](=O)[O-])c2c1 (3D coordinates assigned)
CCCCc1ccc2cc(C(N)=O)n(C(=O)OCC(=O)OCCCO[N+](=O)[O-])c2c1 (optimized conformer: 77.08114485949932 kcal/mol)

>  <smiles>  (31) 
CCCCc1ccc2cc(C(N)=O)n(C(=O)OCC(=O)OCCCO[N+](=O)[O-])c2c1

>  <score_type>  (31) 
oracle

>  <origin>  (31) 
adg

>  <m_score__min__energy>  (31) 
-8.1999999999999993

>  <m_primary>  (31) 
energy

$$$$
31:0
     RDKit          3D

 47 49  0  0  0  0  0  0  0  0999 V2000
  143.1400  155.5610  133.1990 C   0  0  0  0  0  0  0  0  0  0  0  0
  142.0250  155.0400  133.9960 N   0  0  0  0  0  0  0  0  0  0  0  0
  142.1400  153.7360  134.6640 C   0  0  0  0  0  0  0  0  0  0  0  0
  143.2860  153.7410  135.6260 C   0  0  0  0  0  0  0  0  0  0  0  0
  144.4690  153.8390  135.2020 O   0  0  0  0  0  0  0  0  0  0  0  0
  143.0510  153.6540  136.9920 O   0  0  0  0  0  0  0  0  0  0  0  0
  140.8020  155.8020  134.0730 C   0  0  0  0  0  0  0  0  0  0  0  0
  139.7670  155.4000  133.4760 O   0  0  0  0  0  0  0  0  0  0  0  0
  140.7340  157.0050  134.8490 N   0  0  0  0  0  0  0  0  0  0  0  0
  140.1990  158.2030  134.4890 C   0  0  0  0  0  0  0  0  0  0  0  0
  139.5720  158.5050  133.1860 C   0  0  0  0  0  0  0  0  0  0  0  0
  138.3560  157.8600  132.8130 N   0  0  0  0  0  0  0  0  0  0  0  0
  140.1020  159.3270  132.3930 O   0  0  0  0  0  0  0  0  0  0  0  0
  140.2880  159.1100  135.5450 C   0  0  0  0  0  0  0  0  0  0  0  0
  140.8910  158.4160  136.5720 C   0  0  0  0  0  0  0  0  0  0  0  0
  141.2080  158.8180  137.8650 C   0  0  0  0  0  0  0  0  0  0  0  0
  141.8110  157.8760  138.7180 C   0  0  0  0  0  0  0  0  0  0  0  0
  142.0950  156.5610  138.2620 C   0  0  0  0  0  0  0  0  0  0  0  0
  142.6600  155.5850  139.1610 N   0  0  0  0  0  0  0  0  0  0  0  0
  141.6130  154.9130  139.9490 C   0  0  0  0  0  0  0  0  0  0  0  0
  141.4560  153.4630  139.5540 C   0  0  0  0  0  0  0  0  0  0  0  0
  140.4720  153.0870  138.6240 C   0  0  0  0  0  0  0  0  0  0  0  0
  140.2810  151.7380  138.3090 C   0  0  0  0  0  0  0  0  0  0  0  0
  141.0660  150.7570  138.9220 C   0  0  0  0  0  0  0  0  0  0  0  0
  142.0430  151.1240  139.8510 C   0  0  0  0  0  0  0  0  0  0  0  0
  142.2390  152.4710  140.1670 C   0  0  0  0  0  0  0  0  0  0  0  0
  141.7580  156.1950  136.9380 C   0  0  0  0  0  0  0  0  0  0  0  0
  141.1460  157.1480  136.1220 C   0  0  0  0  0  0  0  0  0  0  0  0
  143.9295  155.9299  133.8702 H   0  0  0  0  0  0  0  0  0  0  0  0
  143.5437  154.7583  132.5644 H   0  0  0  0  0  0  0  0  0  0  0  0
  142.7833  156.3857  132.5644 H   0  0  0  0  0  0  0  0  0  0  0  0
  141.2090  153.5257  135.2107 H   0  0  0  0  0  0  0  0  0  0  0  0
  142.3160  152.9605  133.9040 H   0  0  0  0  0  0  0  0  0  0  0  0
  138.2250  156.8340  132.9590 H   0  0  0  0  0  0  0  0  0  0  0  0
  139.9491  160.1564  135.5559 H   0  0  0  0  0  0  0  0  0  0  0  0
  140.9939  159.8404  138.2098 H   0  0  0  0  0  0  0  0  0  0  0  0
  142.0655  158.1608  139.7496 H   0  0  0  0  0  0  0  0  0  0  0  0
  143.3200  156.0630  139.8190 H   0  0  0  0  0  0  0  0  0  0  0  0
  143.2170  154.8760  138.6280 H   0  0  0  0  0  0  0  0  0  0  0  0
  141.8813  154.9646  141.0145 H   0  0  0  0  0  0  0  0  0  0  0  0
  140.6587  155.4249  139.7559 H   0  0  0  0  0  0  0  0  0  0  0  0
  139.8502  153.8560  138.1424 H   0  0  0  0  0  0  0  0  0  0  0  0
  139.5120  151.4483  137.5778 H   0  0  0  0  0  0  0  0  0  0  0  0
  140.9145  149.6963  138.6730 H   0  0  0  0  0  0  0  0  0  0  0  0
  142.6589  150.3513  140.3344 H   0  0  0  0  0  0  0  0  0  0  0  0
  143.0095  152.7556  140.8987 H   0  0  0  0  0  0  0  0  0  0  0  0
  141.9729  155.1843  136.5606 H   0  0  0  0  0  0  0  0  0  0  0  0
  1  2  1  0
  2  3  1  0
  3  4  1  0
  4  5  2  0
  4  6  1  0
  2  7  1  0
  7  8  2  0
  7  9  1  0
  9 10  1  0
 10 11  1  0
 11 12  1  0
 11 13  2  0
 10 14  2  0
 14 15  1  0
 15 16  2  0
 16 17  1  0
 17 18  2  0
 18 19  1  0
 19 20  1  0
 20 21  1  0
 21 22  2  0
 22 23  1  0
 23 24  2  0
 24 25  1  0
 25 26  2  0
 18 27  1  0
 27 28  2  0
 28  9  1  0
 28 15  1  0
 26 21  1  0
  1 29  1  0
  1 30  1  0
  1 31  1  0
  3 32  1  0
  3 33  1  0
 12 34  1  0
 14 35  1  0
 16 36  1  0
 17 37  1  0
 19 38  1  0
 19 39  1  0
 20 40  1  0
 20 41  1  0
 22 42  1  0
 23 43  1  0
 24 44  1  0
 25 45  1  0
 26 46  1  0
 27 47  1  0
M  CHG  3   6  -1  12  -1  19   1
M  END
>  <UniqueID>  (32) 
32

>  <SMILES>  (32) 
CN(CC(=O)[O-])C(=O)n1c(C([NH-])=O)cc2ccc([NH2+]Cc3ccccc3)cc21

>  <Energy>  (32) 
84.06733995283344

>  <Genealogy>  (32) 
CN(CC(=O)[O-])C(=O)n1c(C([NH-])=O)cc2ccc([NH2+]Cc3ccccc3)cc21 (protonated)
CN(CC(=O)[O-])C(=O)n1c(C([NH-])=O)cc2ccc([NH2+]Cc3ccccc3)cc21 (3D coordinates assigned)
CN(CC(=O)[O-])C(=O)n1c(C([NH-])=O)cc2ccc([NH2+]Cc3ccccc3)cc21 (optimized conformer: 84.06733995283344 kcal/mol)

>  <smiles>  (32) 
CN(CC(=O)O)C(=O)n1c(C(N)=O)cc2ccc(NCc3ccccc3)cc21

>  <score_type>  (32) 
oracle

>  <origin>  (32) 
adg

>  <m_score__min__energy>  (32) 
-9.0199999999999996

>  <m_primary>  (32) 
energy

$$$$
32:0
     RDKit          3D

 31 32  0  0  0  0  0  0  0  0999 V2000
  148.4740  157.4020  133.8180 N   0  0  0  0  0  0  0  0  0  0  0  0
  147.9360  158.7150  133.6460 C   0  0  0  0  0  0  0  0  0  0  0  0
  148.7220  159.6940  133.5390 O   0  0  0  0  0  0  0  0  0  0  0  0
  146.4780  158.9520  133.6570 C   0  0  0  0  0  0  0  0  0  0  0  0
  145.9090  160.2220  133.6420 C   0  0  0  0  0  0  0  0  0  0  0  0
  144.5510  160.0110  133.7250 C   0  0  0  0  0  0  0  0  0  0  0  0
  143.5040  160.9270  133.7290 C   0  0  0  0  0  0  0  0  0  0  0  0
  142.1910  160.4270  133.7810 C   0  0  0  0  0  0  0  0  0  0  0  0
  141.9530  159.0320  133.8280 C   0  0  0  0  0  0  0  0  0  0  0  0
  140.5460  158.5090  133.8320 C   0  0  0  0  0  0  0  0  0  0  0  0
  139.8380  158.6790  132.2070 Cl  0  0  0  0  0  0  0  0  0  0  0  0
  143.0410  158.1310  133.8070 C   0  0  0  0  0  0  0  0  0  0  0  0
  144.3390  158.6570  133.7770 C   0  0  0  0  0  0  0  0  0  0  0  0
  145.5150  157.9910  133.7310 N   0  0  0  0  0  0  0  0  0  0  0  0
  145.6910  156.5670  133.6590 C   0  0  0  0  0  0  0  0  0  0  0  0
  146.2910  156.0580  132.6720 O   0  0  0  0  0  0  0  0  0  0  0  0
  145.1970  155.7510  134.6810 O   0  0  0  0  0  0  0  0  0  0  0  0
  145.6330  154.4100  134.8930 C   0  0  0  0  0  0  0  0  0  0  0  0
  146.8310  154.3900  135.7870 C   0  0  0  0  0  0  0  0  0  0  0  0
  147.6860  155.3130  135.7260 O   0  0  0  0  0  0  0  0  0  0  0  0
  146.9900  153.3660  136.7110 O   0  0  0  0  0  0  0  0  0  0  0  0
  149.5050  157.2480  133.7660 H   0  0  0  0  0  0  0  0  0  0  0  0
  147.8630  156.5980  134.0810 H   0  0  0  0  0  0  0  0  0  0  0  0
  146.4321  161.1875  133.5776 H   0  0  0  0  0  0  0  0  0  0  0  0
  143.6975  162.0092  133.6926 H   0  0  0  0  0  0  0  0  0  0  0  0
  141.3413  161.1256  133.7852 H   0  0  0  0  0  0  0  0  0  0  0  0
  140.5514  157.4472  134.1193 H   0  0  0  0  0  0  0  0  0  0  0  0
  139.9458  159.0836  134.5528 H   0  0  0  0  0  0  0  0  0  0  0  0
  142.8731  157.0439  133.8140 H   0  0  0  0  0  0  0  0  0  0  0  0
  144.8211  153.8340  135.3610 H   0  0  0  0  0  0  0  0  0  0  0  0
  145.9015  153.9633  133.9243 H   0  0  0  0  0  0  0  0  0  0  0  0
  1  2  1  0
  2  3  2  0
  2  4  1  0
  4  5  2  0
  5  6  1  0
  6  7  2  0
  7  8  1  0
  8  9  2  0
  9 10  1  0
 10 11  1  0
  9 12  1  0
 12 13  2  0
 13 14  1  0
 14 15  1  0
 15 16  2  0
 15 17  1  0
 17 18  1  0
 18 19  1  0
 19 20  2  0
 19 21  1  0
 14  4  1  0
 13  6  1  0
  1 22  1  0
  1 23  1  0
  5 24  1  0
  7 25  1  0
  8 26  1  0
 10 27  1  0
 10 28  1  0
 12 29  1  0
 18 30  1  0
 18 31  1  0
M  CHG  1  21  -1
M  END
>  <UniqueID>  (33) 
33

>  <SMILES>  (33) 
NC(=O)c1cc2ccc(CCl)cc2n1C(=O)OCC(=O)[O-]

>  <Energy>  (33) 
67.36339347369992

>  <Genealogy>  (33) 
NC(=O)c1cc2ccc(CCl)cc2n1C(=O)OCC(=O)[O-] (protonated)
NC(=O)c1cc2ccc(CCl)cc2n1C(=O)OCC(=O)[O-] (3D coordinates assigned)
NC(=O)c1cc2ccc(CCl)cc2n1C(=O)OCC(=O)[O-] (optimized conformer: 67.36339347369992 kcal/mol)

>  <smiles>  (33) 
NC(=O)c1cc2ccc(CCl)cc2n1C(=O)OCC(=O)O

>  <score_type>  (33) 
oracle

>  <origin>  (33) 
adg

>  <m_score__min__energy>  (33) 
-6.5300000000000002

>  <m_primary>  (33) 
energy

$$$$
33:0
     RDKit          3D

 40 41  0  0  0  0  0  0  0  0999 V2000
  141.5370  159.2530  135.7460 C   0  0  0  0  0  0  0  0  0  0  0  0
  141.9840  158.6890  134.4010 C   0  0  0  0  0  0  0  0  0  0  0  0
  143.3600  159.1820  134.0490 C   0  0  0  0  0  0  0  0  0  0  0  0
  143.6540  160.5680  134.0920 C   0  0  0  0  0  0  0  0  0  0  0  0
  144.9310  161.0400  133.7520 C   0  0  0  0  0  0  0  0  0  0  0  0
  145.8880  160.1080  133.3570 C   0  0  0  0  0  0  0  0  0  0  0  0
  147.2040  160.2880  133.0010 C   0  0  0  0  0  0  0  0  0  0  0  0
  147.6870  159.0130  132.7150 C   0  0  0  0  0  0  0  0  0  0  0  0
  149.0530  158.7370  132.2170 C   0  0  0  0  0  0  0  0  0  0  0  0
  149.4440  157.4110  131.8550 N   0  0  0  0  0  0  0  0  0  0  0  0
  149.8960  159.6690  132.1300 O   0  0  0  0  0  0  0  0  0  0  0  0
  146.7050  158.0820  132.8830 N   0  0  0  0  0  0  0  0  0  0  0  0
  146.8240  156.6560  132.7650 C   0  0  0  0  0  0  0  0  0  0  0  0
  146.9670  156.1300  131.6280 O   0  0  0  0  0  0  0  0  0  0  0  0
  146.7630  155.8580  133.9130 O   0  0  0  0  0  0  0  0  0  0  0  0
  147.8560  155.0800  134.4010 C   0  0  0  0  0  0  0  0  0  0  0  0
  148.2080  153.9490  133.4150 C   0  0  2  0  0  0  0  0  0  0  0  0
  148.7380  154.4760  132.2250 O   0  0  0  0  0  0  0  0  0  0  0  0
  147.0240  153.0140  133.1100 C   0  0  0  0  0  0  0  0  0  0  0  0
  146.1110  153.6150  132.2290 O   0  0  0  0  0  0  0  0  0  0  0  0
  145.6110  158.7680  133.2790 C   0  0  0  0  0  0  0  0  0  0  0  0
  144.3530  158.2670  133.6320 C   0  0  0  0  0  0  0  0  0  0  0  0
  141.9975  158.6719  136.5586 H   0  0  0  0  0  0  0  0  0  0  0  0
  141.8495  160.3048  135.8247 H   0  0  0  0  0  0  0  0  0  0  0  0
  140.4417  159.1891  135.8247 H   0  0  0  0  0  0  0  0  0  0  0  0
  141.9972  157.5905  134.4565 H   0  0  0  0  0  0  0  0  0  0  0  0
  141.2793  159.0234  133.6254 H   0  0  0  0  0  0  0  0  0  0  0  0
  142.8730  161.2809  134.3950 H   0  0  0  0  0  0  0  0  0  0  0  0
  145.1690  162.1130  133.7960 H   0  0  0  0  0  0  0  0  0  0  0  0
  147.7577  161.2372  132.9524 H   0  0  0  0  0  0  0  0  0  0  0  0
  150.4210  157.2200  131.5380 H   0  0  0  0  0  0  0  0  0  0  0  0
  148.7600  156.6230  131.8600 H   0  0  0  0  0  0  0  0  0  0  0  0
  148.7329  155.7315  134.5300 H   0  0  0  0  0  0  0  0  0  0  0  0
  147.5668  154.6312  135.3627 H   0  0  0  0  0  0  0  0  0  0  0  0
  148.9708  153.3326  133.9132 H   0  0  0  0  0  0  0  0  0  0  0  0
  148.0420  154.3960  131.5210 H   0  0  0  0  0  0  0  0  0  0  0  0
  147.4065  152.0893  132.6532 H   0  0  0  0  0  0  0  0  0  0  0  0
  146.5026  152.7962  134.0538 H   0  0  0  0  0  0  0  0  0  0  0  0
  146.5380  154.4470  131.8940 H   0  0  0  0  0  0  0  0  0  0  0  0
  144.1424  157.1883  133.5861 H   0  0  0  0  0  0  0  0  0  0  0  0
  1  2  1  0
  2  3  1  0
  3  4  2  0
  4  5  1  0
  5  6  2  0
  6  7  1  0
  7  8  2  0
  8  9  1  0
  9 10  1  0
  9 11  2  0
  8 12  1  0
 12 13  1  0
 13 14  2  0
 13 15  1  0
 15 16  1  0
 16 17  1  0
 17 18  1  0
 17 19  1  0
 19 20  1  0
 12 21  1  0
 21 22  2  0
 22  3  1  0
 21  6  1  0
  1 23  1  0
  1 24  1  0
  1 25  1  0
  2 26  1  0
  2 27  1  0
  4 28  1  0
  5 29  1  0
  7 30  1  0
 10 31  1  0
 10 32  1  0
 16 33  1  0
 16 34  1  0
 17 35  1  1
 18 36  1  0
 19 37  1  0
 19 38  1  0
 20 39  1  0
 22 40  1  0
M  END
>  <UniqueID>  (34) 
34

>  <SMILES>  (34) 
CCc1ccc2cc(C(N)=O)n(C(=O)OC[C@H](O)CO)c2c1

>  <Energy>  (34) 
72.80288938436091

>  <Genealogy>  (34) 
CCc1ccc2cc(C(N)=O)n(C(=O)OC[C@H](O)CO)c2c1 (chirality)
CCc1ccc2cc(C(N)=O)n(C(=O)OC[C@H](O)CO)c2c1 (3D coordinates assigned)
CCc1ccc2cc(C(N)=O)n(C(=O)OC[C@H](O)CO)c2c1 (optimized conformer: 72.80288938436091 kcal/mol)

>  <smiles>  (34) 
CCc1ccc2cc(C(N)=O)n(C(=O)OCC(O)CO)c2c1

>  <score_type>  (34) 
oracle

>  <origin>  (34) 
adg

>  <m_score__min__energy>  (34) 
-6.75

>  <m_primary>  (34) 
energy

$$$$
34:0
     RDKit          3D

 40 41  0  0  0  0  0  0  0  0999 V2000
  141.2220  158.9710  135.7780 C   0  0  0  0  0  0  0  0  0  0  0  0
  141.9520  159.3750  134.5730 N   0  0  0  0  0  0  0  0  0  0  0  0
  143.3280  158.9010  134.3690 C   0  0  0  0  0  0  0  0  0  0  0  0
  144.3000  160.0660  134.1190 C   0  0  0  0  0  0  0  0  0  0  0  0
  145.1710  159.8720  132.8610 C   0  0  0  0  0  0  0  0  0  0  0  0
  146.6400  159.9860  133.1680 C   0  0  0  0  0  0  0  0  0  0  0  0
  147.0730  161.0290  133.7280 O   0  0  0  0  0  0  0  0  0  0  0  0
  147.5460  158.9120  132.8690 N   0  0  0  0  0  0  0  0  0  0  0  0
  148.6720  158.9590  132.0990 C   0  0  0  0  0  0  0  0  0  0  0  0
  149.2410  160.1610  131.4500 C   0  0  0  0  0  0  0  0  0  0  0  0
  148.4530  161.3270  131.2290 N   0  0  0  0  0  0  0  0  0  0  0  0
  150.4540  160.1680  131.1080 O   0  0  0  0  0  0  0  0  0  0  0  0
  149.2580  157.6970  132.0180 C   0  0  0  0  0  0  0  0  0  0  0  0
  148.4440  156.8660  132.7520 C   0  0  0  0  0  0  0  0  0  0  0  0
  148.5400  155.4980  132.9860 C   0  0  0  0  0  0  0  0  0  0  0  0
  147.5280  154.8860  133.7440 C   0  0  0  0  0  0  0  0  0  0  0  0
  146.4360  155.6460  134.2360 C   0  0  0  0  0  0  0  0  0  0  0  0
  145.3410  154.9840  135.0210 C   0  0  0  0  0  0  0  0  0  0  0  0
  144.3510  155.9060  135.3060 F   0  0  0  0  0  0  0  0  0  0  0  0
  145.8530  154.4820  136.2050 F   0  0  0  0  0  0  0  0  0  0  0  0
  146.3680  157.0310  133.9690 C   0  0  0  0  0  0  0  0  0  0  0  0
  147.4100  157.6200  133.2430 C   0  0  0  0  0  0  0  0  0  0  0  0
  141.3300  160.2800  133.6410 C   0  0  0  0  0  0  0  0  0  0  0  0
  140.5680  159.8400  132.7380 O   0  0  0  0  0  0  0  0  0  0  0  0
  141.5550  161.6490  133.7220 O   0  0  0  0  0  0  0  0  0  0  0  0
  141.7854  159.2828  136.6698 H   0  0  0  0  0  0  0  0  0  0  0  0
  140.2315  159.4493  135.7843 H   0  0  0  0  0  0  0  0  0  0  0  0
  141.1013  157.8777  135.7843 H   0  0  0  0  0  0  0  0  0  0  0  0
  143.6525  158.3522  135.2654 H   0  0  0  0  0  0  0  0  0  0  0  0
  143.3383  158.2497  133.4826 H   0  0  0  0  0  0  0  0  0  0  0  0
  143.7150  160.9899  134.0000 H   0  0  0  0  0  0  0  0  0  0  0  0
  144.9797  160.1153  134.9825 H   0  0  0  0  0  0  0  0  0  0  0  0
  144.9723  158.8745  132.4421 H   0  0  0  0  0  0  0  0  0  0  0  0
  144.9118  160.6644  132.1434 H   0  0  0  0  0  0  0  0  0  0  0  0
  148.0880  161.8890  132.0290 H   0  0  0  0  0  0  0  0  0  0  0  0
  150.1778  157.4232  131.4803 H   0  0  0  0  0  0  0  0  0  0  0  0
  149.3830  154.9132  132.5894 H   0  0  0  0  0  0  0  0  0  0  0  0
  147.5828  153.8084  133.9578 H   0  0  0  0  0  0  0  0  0  0  0  0
  144.9178  154.1611  134.4263 H   0  0  0  0  0  0  0  0  0  0  0  0
  145.5174  157.6321  134.3227 H   0  0  0  0  0  0  0  0  0  0  0  0
  1  2  1  0
  2  3  1  0
  3  4  1  0
  4  5  1  0
  5  6  1  0
  6  7  2  0
  6  8  1  0
  8  9  1  0
  9 10  1  0
 10 11  1  0
 10 12  2  0
  9 13  2  0
 13 14  1  0
 14 15  2  0
 15 16  1  0
 16 17  2  0
 17 18  1  0
 18 19  1  0
 18 20  1  0
 17 21  1  0
 21 22  2  0
  2 23  1  0
 23 24  2  0
 23 25  1  0
 22  8  1  0
 22 14  1  0
  1 26  1  0
  1 27  1  0
  1 28  1  0
  3 29  1  0
  3 30  1  0
  4 31  1  0
  4 32  1  0
  5 33  1  0
  5 34  1  0
 11 35  1  0
 13 36  1  0
 15 37  1  0
 16 38  1  0
 18 39  1  0
 21 40  1  0
M  CHG  2  11  -1  25  -1
M  END
>  <UniqueID>  (35) 
35

>  <SMILES>  (35) 
CN(CCCC(=O)n1c(C([NH-])=O)cc2ccc(C(F)F)cc21)C(=O)[O-]

>  <Energy>  (35) 
73.19851481802509

>  <Genealogy>  (35) 
CN(CCCC(=O)n1c(C([NH-])=O)cc2ccc(C(F)F)cc21)C(=O)[O-] (protonated)
CN(CCCC(=O)n1c(C([NH-])=O)cc2ccc(C(F)F)cc21)C(=O)[O-] (3D coordinates assigned)
CN(CCCC(=O)n1c(C([NH-])=O)cc2ccc(C(F)F)cc21)C(=O)[O-] (optimized conformer: 73.19851481802509 kcal/mol)

>  <smiles>  (35) 
CN(CCCC(=O)n1c(C(N)=O)cc2ccc(C(F)F)cc21)C(=O)O

>  <score_type>  (35) 
oracle

>  <origin>  (35) 
adg

>  <m_score__min__energy>  (35) 
-6.2999999999999998

>  <m_primary>  (35) 
energy

$$$$
35:0
     RDKit          3D

 37 38  0  0  0  0  0  0  0  0999 V2000
  137.6590  160.3200  131.3760 N   0  0  0  0  0  0  0  0  0  0  0  0
  138.8960  160.3380  132.0840 C   0  0  0  0  0  0  0  0  0  0  0  0
  139.5150  161.4260  132.2180 O   0  0  0  0  0  0  0  0  0  0  0  0
  139.4570  159.0770  132.6130 C   0  0  0  0  0  0  0  0  0  0  0  0
  138.9310  157.8210  132.3180 C   0  0  0  0  0  0  0  0  0  0  0  0
  139.7750  156.9200  132.9250 C   0  0  0  0  0  0  0  0  0  0  0  0
  139.7120  155.5310  132.9770 C   0  0  0  0  0  0  0  0  0  0  0  0
  140.6950  154.8540  133.7180 C   0  0  0  0  0  0  0  0  0  0  0  0
  141.7130  155.5720  134.3920 C   0  0  0  0  0  0  0  0  0  0  0  0
  142.7210  154.8430  135.2420 C   0  0  0  0  0  0  0  0  0  0  0  0
  142.0970  154.3370  136.5520 C   0  0  0  0  0  0  0  0  0  0  0  0
  141.7640  152.8630  136.5070 C   0  0  0  0  0  0  0  0  0  0  0  0
  141.4720  152.3370  135.4000 O   0  0  0  0  0  0  0  0  0  0  0  0
  141.8680  152.0090  137.6550 N   0  0  0  0  0  0  0  0  0  0  0  0
  140.7830  151.5740  138.5320 C   0  0  0  0  0  0  0  0  0  0  0  0
  139.9500  150.4810  137.8660 C   0  0  0  0  0  0  0  0  0  0  0  0
  140.5460  150.0740  136.6670 O   0  0  0  0  0  0  0  0  0  0  0  0
  141.7450  156.9830  134.3160 C   0  0  0  0  0  0  0  0  0  0  0  0
  140.7630  157.6300  133.5570 C   0  0  0  0  0  0  0  0  0  0  0  0
  140.5800  158.9570  133.3800 N   0  0  0  0  0  0  0  0  0  0  0  0
  141.3750  160.0090  133.9530 C   0  0  0  0  0  0  0  0  0  0  0  0
  142.2840  160.5600  133.2770 O   0  0  0  0  0  0  0  0  0  0  0  0
  141.1320  160.4450  135.2480 O   0  0  0  0  0  0  0  0  0  0  0  0
  137.1200  161.2000  131.2160 H   0  0  0  0  0  0  0  0  0  0  0  0
  138.0317  157.5973  131.7254 H   0  0  0  0  0  0  0  0  0  0  0  0
  138.9167  154.9798  132.4539 H   0  0  0  0  0  0  0  0  0  0  0  0
  140.6739  153.7557  133.7753 H   0  0  0  0  0  0  0  0  0  0  0  0
  143.1095  153.9833  134.6764 H   0  0  0  0  0  0  0  0  0  0  0  0
  143.5292  155.5450  135.4949 H   0  0  0  0  0  0  0  0  0  0  0  0
  142.8090  154.5123  137.3720 H   0  0  0  0  0  0  0  0  0  0  0  0
  141.1565  154.8861  136.7065 H   0  0  0  0  0  0  0  0  0  0  0  0
  141.2104  151.1821  139.4667 H   0  0  0  0  0  0  0  0  0  0  0  0
  140.1315  152.4356  138.7395 H   0  0  0  0  0  0  0  0  0  0  0  0
  139.8754  149.6184  138.5445 H   0  0  0  0  0  0  0  0  0  0  0  0
  138.9480  150.8794  137.6485 H   0  0  0  0  0  0  0  0  0  0  0  0
  141.3180  150.6800  136.5230 H   0  0  0  0  0  0  0  0  0  0  0  0
  142.5223  157.5583  134.8403 H   0  0  0  0  0  0  0  0  0  0  0  0
  1  2  1  0
  2  3  2  0
  2  4  1  0
  4  5  2  0
  5  6  1  0
  6  7  2  0
  7  8  1  0
  8  9  2  0
  9 10  1  0
 10 11  1  0
 11 12  1  0
 12 13  2  0
 12 14  1  0
 14 15  1  0
 15 16  1  0
 16 17  1  0
  9 18  1  0
 18 19  2  0
 19 20  1  0
 20 21  1  0
 21 22  2  0
 21 23  1  0
 20  4  1  0
 19  6  1  0
  1 24  1  0
  5 25  1  0
  7 26  1  0
  8 27  1  0
 10 28  1  0
 10 29  1  0
 11 30  1  0
 11 31  1  0
 15 32  1  0
 15 33  1  0
 16 34  1  0
 16 35  1  0
 17 36  1  0
 18 37  1  0
M  CHG  3   1  -1  14  -1  23  -1
M  END
>  <UniqueID>  (36) 
36

>  <SMILES>  (36) 
[NH-]C(=O)c1cc2ccc(CCC(=O)[N-]CCO)cc2n1C(=O)[O-]

>  <Energy>  (36) 
70.38326146484063

>  <Genealogy>  (36) 
[NH-]C(=O)c1cc2ccc(CCC(=O)[N-]CCO)cc2n1C(=O)[O-] (protonated)
[NH-]C(=O)c1cc2ccc(CCC(=O)[N-]CCO)cc2n1C(=O)[O-] (3D coordinates assigned)
[NH-]C(=O)c1cc2ccc(CCC(=O)[N-]CCO)cc2n1C(=O)[O-] (optimized conformer: 70.38326146484063 kcal/mol)

>  <smiles>  (36) 
NC(=O)c1cc2ccc(CCC(=O)NCCO)cc2n1C(=O)O

>  <score_type>  (36) 
oracle

>  <origin>  (36) 
adg

>  <m_score__min__energy>  (36) 
-6.1900000000000004

>  <m_primary>  (36) 
energy

$$$$
36:0
     RDKit          3D

 40 41  0  0  0  0  0  0  0  0999 V2000
  148.1450  153.7520  133.3760 C   0  0  0  0  0  0  0  0  0  0  0  0
  147.7240  154.7420  134.3740 N   0  0  0  0  0  0  0  0  0  0  0  0
  147.1770  154.2760  135.6600 C   0  0  0  0  0  0  0  0  0  0  0  0
  148.1740  154.4760  136.8090 C   0  0  0  0  0  0  0  0  0  0  0  0
  147.8930  153.3030  138.1770 P   0  0  0  0  0  0  0  0  0  0  0  0
  149.2140  152.7880  138.6990 O   0  0  0  0  0  0  0  0  0  0  0  0
  147.0770  154.0970  139.4250 O   0  0  0  0  0  0  0  0  0  0  0  0
  146.9550  152.0040  137.6360 O   0  0  0  0  0  0  0  0  0  0  0  0
  147.7960  156.1650  134.1070 C   0  0  0  0  0  0  0  0  0  0  0  0
  148.4510  156.9080  134.8890 O   0  0  0  0  0  0  0  0  0  0  0  0
  147.1660  156.8020  132.9270 C   0  0  0  0  0  0  0  0  0  0  0  0
  146.8680  156.1250  131.9080 O   0  0  0  0  0  0  0  0  0  0  0  0
  146.8680  158.2090  132.9470 N   0  0  0  0  0  0  0  0  0  0  0  0
  147.7040  159.2440  132.6520 C   0  0  0  0  0  0  0  0  0  0  0  0
  149.0790  159.1210  132.1220 C   0  0  0  0  0  0  0  0  0  0  0  0
  149.7790  157.8850  132.2490 N   0  0  0  0  0  0  0  0  0  0  0  0
  149.6520  160.1010  131.5810 O   0  0  0  0  0  0  0  0  0  0  0  0
  147.0610  160.4640  132.8580 C   0  0  0  0  0  0  0  0  0  0  0  0
  145.7950  160.1400  133.2930 C   0  0  0  0  0  0  0  0  0  0  0  0
  144.7400  160.9630  133.6720 C   0  0  0  0  0  0  0  0  0  0  0  0
  143.5540  160.3520  134.1160 C   0  0  0  0  0  0  0  0  0  0  0  0
  143.4400  158.9390  134.1660 C   0  0  0  0  0  0  0  0  0  0  0  0
  142.1870  158.2880  134.6960 C   0  0  0  0  0  0  0  0  0  0  0  0
  142.4670  157.0440  135.2340 F   0  0  0  0  0  0  0  0  0  0  0  0
  141.2800  158.1390  133.6630 F   0  0  0  0  0  0  0  0  0  0  0  0
  141.6180  159.0710  135.6860 F   0  0  0  0  0  0  0  0  0  0  0  0
  144.5450  158.1390  133.7970 C   0  0  0  0  0  0  0  0  0  0  0  0
  145.7050  158.7740  133.3410 C   0  0  0  0  0  0  0  0  0  0  0  0
  148.5262  152.8556  133.8870 H   0  0  0  0  0  0  0  0  0  0  0  0
  147.2857  153.4777  132.7465 H   0  0  0  0  0  0  0  0  0  0  0  0
  148.9387  154.1806  132.7465 H   0  0  0  0  0  0  0  0  0  0  0  0
  146.2595  154.8407  135.8823 H   0  0  0  0  0  0  0  0  0  0  0  0
  146.9673  153.1997  135.5726 H   0  0  0  0  0  0  0  0  0  0  0  0
  149.1937  154.3317  136.4224 H   0  0  0  0  0  0  0  0  0  0  0  0
  148.0355  155.4937  137.2030 H   0  0  0  0  0  0  0  0  0  0  0  0
  149.6120  157.2550  133.0650 H   0  0  0  0  0  0  0  0  0  0  0  0
  147.4765  161.4710  132.7055 H   0  0  0  0  0  0  0  0  0  0  0  0
  144.8306  162.0583  133.6258 H   0  0  0  0  0  0  0  0  0  0  0  0
  142.7045  160.9772  134.4283 H   0  0  0  0  0  0  0  0  0  0  0  0
  144.4941  157.0424  133.8667 H   0  0  0  0  0  0  0  0  0  0  0  0
  1  2  1  0
  2  3  1  0
  3  4  1  0
  4  5  1  0
  5  6  2  0
  5  7  1  0
  5  8  1  0
  2  9  1  0
  9 10  2  0
  9 11  1  0
 11 12  2  0
 11 13  1  0
 13 14  1  0
 14 15  1  0
 15 16  1  0
 15 17  2  0
 14 18  2  0
 18 19  1  0
 19 20  2  0
 20 21  1  0
 21 22  2  0
 22 23  1  0
 23 24  1  0
 23 25  1  0
 23 26  1  0
 22 27  1  0
 27 28  2  0
 28 13  1  0
 28 19  1  0
  1 29  1  0
  1 30  1  0
  1 31  1  0
  3 32  1  0
  3 33  1  0
  4 34  1  0
  4 35  1  0
 16 36  1  0
 18 37  1  0
 20 38  1  0
 21 39  1  0
 27 40  1  0
M  CHG  3   7  -1   8  -1  16  -1
M  END
>  <UniqueID>  (37) 
37

>  <SMILES>  (37) 
CN(CCP(=O)([O-])[O-])C(=O)C(=O)n1c(C([NH-])=O)cc2ccc(C(F)(F)F)cc21

>  <Energy>  (37) 
73.88663393499444

>  <Genealogy>  (37) 
CN(CCP(=O)([O-])[O-])C(=O)C(=O)n1c(C([NH-])=O)cc2ccc(C(F)(F)F)cc21 (protonated)
CN(CCP(=O)([O-])[O-])C(=O)C(=O)n1c(C([NH-])=O)cc2ccc(C(F)(F)F)cc21 (3D coordinates assigned)
CN(CCP(=O)([O-])[O-])C(=O)C(=O)n1c(C([NH-])=O)cc2ccc(C(F)(F)F)cc21 (optimized conformer: 73.88663393499444 kcal/mol)

>  <smiles>  (37) 
CN(CCP(=O)(O)O)C(=O)C(=O)n1c(C(N)=O)cc2ccc(C(F)(F)F)cc21

>  <score_type>  (37) 
oracle

>  <origin>  (37) 
adg

>  <m_score__min__energy>  (37) 
-7.1299999999999999

>  <m_primary>  (37) 
energy

$$$$
37:0
     RDKit          3D

 35 37  0  0  0  0  0  0  0  0999 V2000
  148.6510  157.3760  131.8620 N   0  0  0  0  0  0  0  0  0  0  0  0
  148.3630  158.4200  132.7920 C   0  0  0  0  0  0  0  0  0  0  0  0
  149.3120  158.9900  133.3960 O   0  0  0  0  0  0  0  0  0  0  0  0
  146.9720  158.7980  133.1090 C   0  0  0  0  0  0  0  0  0  0  0  0
  146.5120  160.1120  133.0880 C   0  0  0  0  0  0  0  0  0  0  0  0
  145.2030  160.0460  133.5030 C   0  0  0  0  0  0  0  0  0  0  0  0
  144.2610  161.0580  133.6500 C   0  0  0  0  0  0  0  0  0  0  0  0
  142.9650  160.7000  134.0570 C   0  0  0  0  0  0  0  0  0  0  0  0
  142.6330  159.3430  134.3030 C   0  0  0  0  0  0  0  0  0  0  0  0
  141.2980  158.9780  134.7030 N   0  0  0  0  0  0  0  0  0  0  0  0
  140.9310  158.9830  136.1230 C   0  0  0  0  0  0  0  0  0  0  0  0
  139.8140  157.9650  136.3700 C   0  0  0  0  0  0  0  0  0  0  0  0
  138.7310  158.1840  135.4850 O   0  0  0  0  0  0  0  0  0  0  0  0
  139.1450  157.9440  134.1520 C   0  0  0  0  0  0  0  0  0  0  0  0
  140.2100  158.9590  133.7220 C   0  0  0  0  0  0  0  0  0  0  0  0
  143.6160  158.3420  134.1350 C   0  0  0  0  0  0  0  0  0  0  0  0
  144.9050  158.7300  133.7490 C   0  0  0  0  0  0  0  0  0  0  0  0
  145.9830  157.9480  133.5070 N   0  0  0  0  0  0  0  0  0  0  0  0
  146.0330  156.5110  133.5390 C   0  0  0  0  0  0  0  0  0  0  0  0
  145.7020  155.8840  134.5800 O   0  0  0  0  0  0  0  0  0  0  0  0
  146.4400  155.7980  132.4180 O   0  0  0  0  0  0  0  0  0  0  0  0
  147.8910  156.7770  131.4710 H   0  0  0  0  0  0  0  0  0  0  0  0
  149.6420  157.1470  131.6230 H   0  0  0  0  0  0  0  0  0  0  0  0
  147.0760  161.0116  132.8005 H   0  0  0  0  0  0  0  0  0  0  0  0
  144.5228  162.1081  133.4534 H   0  0  0  0  0  0  0  0  0  0  0  0
  142.2000  161.4798  134.1863 H   0  0  0  0  0  0  0  0  0  0  0  0
  141.8095  158.7163  136.7288 H   0  0  0  0  0  0  0  0  0  0  0  0
  140.5790  159.9862  136.4052 H   0  0  0  0  0  0  0  0  0  0  0  0
  140.2091  156.9505  136.2127 H   0  0  0  0  0  0  0  0  0  0  0  0
  139.4543  158.0792  137.4032 H   0  0  0  0  0  0  0  0  0  0  0  0
  139.5644  156.9295  134.0817 H   0  0  0  0  0  0  0  0  0  0  0  0
  138.2735  158.0447  133.4884 H   0  0  0  0  0  0  0  0  0  0  0  0
  140.6101  158.6745  132.7376 H   0  0  0  0  0  0  0  0  0  0  0  0
  139.7566  159.9594  133.6611 H   0  0  0  0  0  0  0  0  0  0  0  0
  143.3743  157.2822  134.3036 H   0  0  0  0  0  0  0  0  0  0  0  0
  1  2  1  0
  2  3  2  0
  2  4  1  0
  4  5  2  0
  5  6  1  0
  6  7  2  0
  7  8  1  0
  8  9  2  0
  9 10  1  0
 10 11  1  0
 11 12  1  0
 12 13  1  0
 13 14  1  0
 14 15  1  0
  9 16  1  0
 16 17  2  0
 17 18  1  0
 18 19  1  0
 19 20  2  0
 19 21  1  0
 18  4  1  0
 17  6  1  0
 15 10  1  0
  1 22  1  0
  1 23  1  0
  5 24  1  0
  7 25  1  0
  8 26  1  0
 11 27  1  0
 11 28  1  0
 12 29  1  0
 12 30  1  0
 14 31  1  0
 14 32  1  0
 15 33  1  0
 15 34  1  0
 16 35  1  0
M  CHG  1  21  -1
M  END
>  <UniqueID>  (38) 
38

>  <SMILES>  (38) 
NC(=O)c1cc2ccc(N3CCOCC3)cc2n1C(=O)[O-]

>  <Energy>  (38) 
81.78812687999786

>  <Genealogy>  (38) 
NC(=O)c1cc2ccc(N3CCOCC3)cc2n1C(=O)[O-] (protonated)
NC(=O)c1cc2ccc(N3CCOCC3)cc2n1C(=O)[O-] (3D coordinates assigned)
NC(=O)c1cc2ccc(N3CCOCC3)cc2n1C(=O)[O-] (nonaromatic ring conformer: 81.78812687999786 kcal/mol)

>  <smiles>  (38) 
NC(=O)c1cc2ccc(N3CCOCC3)cc2n1C(=O)O

>  <score_type>  (38) 
oracle

>  <origin>  (38) 
adg

>  <m_score__min__energy>  (38) 
-6.6299999999999999

>  <m_primary>  (38) 
energy

$$$$
38:0
     RDKit          3D

 43 44  0  0  0  0  0  0  0  0999 V2000
  148.0610  153.7910  134.6350 C   0  0  0  0  0  0  0  0  0  0  0  0
  148.4050  154.6470  133.4920 N   0  0  0  0  0  0  0  0  0  0  0  0
  149.4120  154.1730  132.5330 C   0  0  0  0  0  0  0  0  0  0  0  0
  147.7620  155.9380  133.3140 C   0  0  0  0  0  0  0  0  0  0  0  0
  148.5070  157.0670  132.8680 C   0  0  0  0  0  0  0  0  0  0  0  0
  147.8980  158.3210  132.7060 C   0  0  0  0  0  0  0  0  0  0  0  0
  146.5420  158.4300  132.9840 C   0  0  0  0  0  0  0  0  0  0  0  0
  145.7200  159.5320  132.9430 C   0  0  0  0  0  0  0  0  0  0  0  0
  144.4670  159.0700  133.3360 C   0  0  0  0  0  0  0  0  0  0  0  0
  143.2630  159.9240  133.3790 C   0  0  0  0  0  0  0  0  0  0  0  0
  142.0280  159.4910  132.8080 N   0  0  0  0  0  0  0  0  0  0  0  0
  143.3410  161.0790  133.8760 O   0  0  0  0  0  0  0  0  0  0  0  0
  144.5120  157.7380  133.6200 N   0  0  0  0  0  0  0  0  0  0  0  0
  143.4590  156.9340  134.1770 C   0  0  0  0  0  0  0  0  0  0  0  0
  143.6580  156.2710  135.2300 O   0  0  0  0  0  0  0  0  0  0  0  0
  142.2130  156.8940  133.5450 O   0  0  0  0  0  0  0  0  0  0  0  0
  140.9890  157.1040  134.2400 C   0  0  0  0  0  0  0  0  0  0  0  0
  140.1850  158.0340  133.5220 O   0  0  0  0  0  0  0  0  0  0  0  0
  139.2000  157.6400  132.6110 C   0  0  0  0  0  0  0  0  0  0  0  0
  139.1060  156.4370  132.2420 O   0  0  0  0  0  0  0  0  0  0  0  0
  138.2790  158.6650  132.0360 C   0  0  0  0  0  0  0  0  0  0  0  0
  139.2370  159.9550  131.1870 P   0  0  0  0  0  0  0  0  0  0  0  0
  140.5790  159.4010  130.7650 O   0  0  0  0  0  0  0  0  0  0  0  0
  138.3940  160.4860  129.8210 O   0  0  0  0  0  0  0  0  0  0  0  0
  139.4750  161.2570  132.2400 O   0  0  0  0  0  0  0  0  0  0  0  0
  145.7940  157.3610  133.3970 C   0  0  0  0  0  0  0  0  0  0  0  0
  146.3770  156.1030  133.5890 C   0  0  0  0  0  0  0  0  0  0  0  0
  148.2761  154.3261  135.5717 H   0  0  0  0  0  0  0  0  0  0  0  0
  146.9913  153.5378  134.5946 H   0  0  0  0  0  0  0  0  0  0  0  0
  148.6580  152.8680  134.5946 H   0  0  0  0  0  0  0  0  0  0  0  0
  150.2758  153.7664  133.0793 H   0  0  0  0  0  0  0  0  0  0  0  0
  148.9746  153.3862  131.9008 H   0  0  0  0  0  0  0  0  0  0  0  0
  149.7396  155.0115  131.9008 H   0  0  0  0  0  0  0  0  0  0  0  0
  149.5786  156.9541  132.6466 H   0  0  0  0  0  0  0  0  0  0  0  0
  148.4782  159.1924  132.3685 H   0  0  0  0  0  0  0  0  0  0  0  0
  145.9941  160.5590  132.6601 H   0  0  0  0  0  0  0  0  0  0  0  0
  141.1750  160.0890  132.8840 H   0  0  0  0  0  0  0  0  0  0  0  0
  141.9740  158.6170  132.2390 H   0  0  0  0  0  0  0  0  0  0  0  0
  140.4511  156.1488  134.3308 H   0  0  0  0  0  0  0  0  0  0  0  0
  141.2023  157.5035  135.2425 H   0  0  0  0  0  0  0  0  0  0  0  0
  137.6004  158.1826  131.3171 H   0  0  0  0  0  0  0  0  0  0  0  0
  137.6967  159.1237  132.8487 H   0  0  0  0  0  0  0  0  0  0  0  0
  145.7734  155.2559  133.9468 H   0  0  0  0  0  0  0  0  0  0  0  0
  1  2  1  0
  2  3  1  0
  2  4  1  0
  4  5  2  0
  5  6  1  0
  6  7  2  0
  7  8  1  0
  8  9  2  0
  9 10  1  0
 10 11  1  0
 10 12  2  0
  9 13  1  0
 13 14  1  0
 14 15  2  0
 14 16  1  0
 16 17  1  0
 17 18  1  0
 18 19  1  0
 19 20  2  0
 19 21  1  0
 21 22  1  0
 22 23  2  0
 22 24  1  0
 22 25  1  0
 13 26  1  0
 26 27  2  0
 27  4  1  0
 26  7  1  0
  1 28  1  0
  1 29  1  0
  1 30  1  0
  3 31  1  0
  3 32  1  0
  3 33  1  0
  5 34  1  0
  6 35  1  0
  8 36  1  0
 11 37  1  0
 11 38  1  0
 17 39  1  0
 17 40  1  0
 21 41  1  0
 21 42  1  0
 27 43  1  0
M  CHG  2  24  -1  25  -1
M  END
>  <UniqueID>  (39) 
39

>  <SMILES>  (39) 
CN(C)c1ccc2cc(C(N)=O)n(C(=O)OCOC(=O)CP(=O)([O-])[O-])c2c1

>  <Energy>  (39) 
74.54172620926481

>  <Genealogy>  (39) 
CN(C)c1ccc2cc(C(N)=O)n(C(=O)OCOC(=O)CP(=O)([O-])[O-])c2c1 (protonated)
CN(C)c1ccc2cc(C(N)=O)n(C(=O)OCOC(=O)CP(=O)([O-])[O-])c2c1 (3D coordinates assigned)
CN(C)c1ccc2cc(C(N)=O)n(C(=O)OCOC(=O)CP(=O)([O-])[O-])c2c1 (optimized conformer: 74.54172620926481 kcal/mol)

>  <smiles>  (39) 
CN(C)c1ccc2cc(C(N)=O)n(C(=O)OCOC(=O)CP(=O)(O)O)c2c1

>  <score_type>  (39) 
oracle

>  <origin>  (39) 
adg

>  <m_score__min__energy>  (39) 
-7.4000000000000004

>  <m_primary>  (39) 
energy

$$$$
39:0
     RDKit          3D

 48 49  0  0  0  0  0  0  0  0999 V2000
  140.4220  158.6720  135.9090 C   0  0  0  0  0  0  0  0  0  0  0  0
  140.8260  158.6840  134.4960 N   0  0  0  0  0  0  0  0  0  0  0  0
  139.8360  158.2480  133.4960 C   0  0  0  0  0  0  0  0  0  0  0  0
  140.1080  158.8560  132.1100 C   0  0  0  0  0  0  0  0  0  0  0  0
  139.1740  159.9830  131.7870 C   0  0  0  0  0  0  0  0  0  0  0  0
  138.1310  159.7710  131.1170 O   0  0  0  0  0  0  0  0  0  0  0  0
  139.4820  161.2780  132.1910 O   0  0  0  0  0  0  0  0  0  0  0  0
  142.1730  159.0930  134.1250 C   0  0  0  0  0  0  0  0  0  0  0  0
  142.5310  160.4680  134.0520 C   0  0  0  0  0  0  0  0  0  0  0  0
  143.8370  160.8640  133.7310 C   0  0  0  0  0  0  0  0  0  0  0  0
  144.7790  159.8770  133.4800 C   0  0  0  0  0  0  0  0  0  0  0  0
  146.1100  160.0020  133.1740 C   0  0  0  0  0  0  0  0  0  0  0  0
  146.5820  158.7020  133.0580 C   0  0  0  0  0  0  0  0  0  0  0  0
  148.0050  158.3970  132.8210 C   0  0  0  0  0  0  0  0  0  0  0  0
  148.3900  157.5740  131.7190 N   0  0  0  0  0  0  0  0  0  0  0  0
  148.8940  158.9150  133.5480 O   0  0  0  0  0  0  0  0  0  0  0  0
  145.5800  157.7930  133.2580 N   0  0  0  0  0  0  0  0  0  0  0  0
  145.6610  156.3600  133.0750 C   0  0  0  0  0  0  0  0  0  0  0  0
  144.6530  155.6350  133.2800 O   0  0  0  0  0  0  0  0  0  0  0  0
  146.8560  155.7800  132.6240 O   0  0  0  0  0  0  0  0  0  0  0  0
  147.5670  154.6980  133.2420 C   0  0  0  0  0  0  0  0  0  0  0  0
  148.9570  154.5130  132.6000 C   0  0  0  0  0  0  0  0  0  0  0  0
  146.7420  153.4240  133.0080 C   0  0  0  0  0  0  0  0  0  0  0  0
  147.6940  154.9390  134.7570 C   0  0  0  0  0  0  0  0  0  0  0  0
  144.4760  158.5420  133.5310 C   0  0  0  0  0  0  0  0  0  0  0  0
  143.1740  158.1190  133.8550 C   0  0  0  0  0  0  0  0  0  0  0  0
  141.3179  158.6986  136.5467 H   0  0  0  0  0  0  0  0  0  0  0  0
  139.7962  159.5519  136.1189 H   0  0  0  0  0  0  0  0  0  0  0  0
  139.8496  157.7564  136.1189 H   0  0  0  0  0  0  0  0  0  0  0  0
  139.8721  157.1515  133.4157 H   0  0  0  0  0  0  0  0  0  0  0  0
  138.8451  158.5913  133.8281 H   0  0  0  0  0  0  0  0  0  0  0  0
  141.1403  159.2352  132.0870 H   0  0  0  0  0  0  0  0  0  0  0  0
  139.9519  158.0659  131.3607 H   0  0  0  0  0  0  0  0  0  0  0  0
  141.7684  161.2352  134.2513 H   0  0  0  0  0  0  0  0  0  0  0  0
  144.1076  161.9290  133.6795 H   0  0  0  0  0  0  0  0  0  0  0  0
  146.6813  160.9334  133.0475 H   0  0  0  0  0  0  0  0  0  0  0  0
  149.4010  157.4040  131.5140 H   0  0  0  0  0  0  0  0  0  0  0  0
  147.6680  157.1220  131.1140 H   0  0  0  0  0  0  0  0  0  0  0  0
  149.7154  154.4121  133.3903 H   0  0  0  0  0  0  0  0  0  0  0  0
  148.9550  153.6072  131.9759 H   0  0  0  0  0  0  0  0  0  0  0  0
  149.1920  155.3878  131.9759 H   0  0  0  0  0  0  0  0  0  0  0  0
  146.4591  152.9872  133.9771 H   0  0  0  0  0  0  0  0  0  0  0  0
  145.8341  153.6743  132.4396 H   0  0  0  0  0  0  0  0  0  0  0  0
  147.3419  152.6980  132.4396 H   0  0  0  0  0  0  0  0  0  0  0  0
  147.2484  154.0934  135.3014 H   0  0  0  0  0  0  0  0  0  0  0  0
  148.7568  155.0292  135.0261 H   0  0  0  0  0  0  0  0  0  0  0  0
  147.1676  155.8666  135.0261 H   0  0  0  0  0  0  0  0  0  0  0  0
  142.9326  157.0467  133.8991 H   0  0  0  0  0  0  0  0  0  0  0  0
  1  2  1  0
  2  3  1  0
  3  4  1  0
  4  5  1  0
  5  6  2  0
  5  7  1  0
  2  8  1  0
  8  9  2  0
  9 10  1  0
 10 11  2  0
 11 12  1  0
 12 13  2  0
 13 14  1  0
 14 15  1  0
 14 16  2  0
 13 17  1  0
 17 18  1  0
 18 19  2  0
 18 20  1  0
 20 21  1  0
 21 22  1  0
 21 23  1  0
 21 24  1  0
 17 25  1  0
 25 26  2  0
 26  8  1  0
 25 11  1  0
  1 27  1  0
  1 28  1  0
  1 29  1  0
  3 30  1  0
  3 31  1  0
  4 32  1  0
  4 33  1  0
  9 34  1  0
 10 35  1  0
 12 36  1  0
 15 37  1  0
 15 38  1  0
 22 39  1  0
 22 40  1  0
 22 41  1  0
 23 42  1  0
 23 43  1  0
 23 44  1  0
 24 45  1  0
 24 46  1  0
 24 47  1  0
 26 48  1  0
M  CHG  1   7  -1
M  END
>  <UniqueID>  (40) 
40

>  <SMILES>  (40) 
CN(CCC(=O)[O-])c1ccc2cc(C(N)=O)n(C(=O)OC(C)(C)C)c2c1

>  <Energy>  (40) 
84.82896553493906

>  <Genealogy>  (40) 
CN(CCC(=O)[O-])c1ccc2cc(C(N)=O)n(C(=O)OC(C)(C)C)c2c1 (protonated)
CN(CCC(=O)[O-])c1ccc2cc(C(N)=O)n(C(=O)OC(C)(C)C)c2c1 (3D coordinates assigned)
CN(CCC(=O)[O-])c1ccc2cc(C(N)=O)n(C(=O)OC(C)(C)C)c2c1 (optimized conformer: 84.82896553493906 kcal/mol)

>  <smiles>  (40) 
CN(CCC(=O)O)c1ccc2cc(C(N)=O)n(C(=O)OC(C)(C)C)c2c1

>  <score_type>  (40) 
oracle

>  <origin>  (40) 
adg

>  <m_score__min__energy>  (40) 
-7.4299999999999997

>  <m_primary>  (40) 
energy

$$$$
40:0
     RDKit          3D

 46 47  0  0  0  0  0  0  0  0999 V2000
  139.6960  158.2200  136.5710 C   0  0  0  0  0  0  0  0  0  0  0  0
  139.8440  156.9310  137.1510 O   0  0  0  0  0  0  0  0  0  0  0  0
  141.0220  156.5150  137.7810 C   0  0  0  0  0  0  0  0  0  0  0  0
  142.1110  157.1000  137.5260 O   0  0  0  0  0  0  0  0  0  0  0  0
  141.0000  155.4130  138.7070 N   0  0  0  0  0  0  0  0  0  0  0  0
  140.9730  155.6890  140.1470 C   0  0  0  0  0  0  0  0  0  0  0  0
  141.0120  154.0200  138.2340 C   0  0  0  0  0  0  0  0  0  0  0  0
  142.3310  153.6830  137.5190 C   0  0  0  0  0  0  0  0  0  0  0  0
  142.1550  153.4410  136.0120 C   0  0  0  0  0  0  0  0  0  0  0  0
  142.6040  154.5990  135.2170 N   0  0  0  0  0  0  0  0  0  0  0  0
  143.9940  155.0580  135.3020 C   0  0  0  0  0  0  0  0  0  0  0  0
  141.6670  155.3550  134.4210 C   0  0  0  0  0  0  0  0  0  0  0  0
  140.6400  154.6880  133.7040 C   0  0  0  0  0  0  0  0  0  0  0  0
  139.7220  155.4090  132.9240 C   0  0  0  0  0  0  0  0  0  0  0  0
  139.8470  156.7940  132.8840 C   0  0  0  0  0  0  0  0  0  0  0  0
  139.1100  157.7280  132.1930 C   0  0  0  0  0  0  0  0  0  0  0  0
  139.6790  158.9590  132.5140 C   0  0  0  0  0  0  0  0  0  0  0  0
  139.1350  160.2520  132.0480 C   0  0  0  0  0  0  0  0  0  0  0  0
  137.8660  160.2940  131.3990 N   0  0  0  0  0  0  0  0  0  0  0  0
  139.7590  161.3260  132.2510 O   0  0  0  0  0  0  0  0  0  0  0  0
  140.7320  158.7910  133.3640 N   0  0  0  0  0  0  0  0  0  0  0  0
  141.6160  159.7980  133.8860 C   0  0  0  0  0  0  0  0  0  0  0  0
  142.6970  160.0630  133.2970 O   0  0  0  0  0  0  0  0  0  0  0  0
  141.2980  160.4710  135.0580 O   0  0  0  0  0  0  0  0  0  0  0  0
  140.8200  157.4600  133.5830 C   0  0  0  0  0  0  0  0  0  0  0  0
  141.7600  156.7660  134.3520 C   0  0  0  0  0  0  0  0  0  0  0  0
  139.6095  158.9730  137.3682 H   0  0  0  0  0  0  0  0  0  0  0  0
  140.5742  158.4448  135.9480 H   0  0  0  0  0  0  0  0  0  0  0  0
  138.7897  158.2399  135.9480 H   0  0  0  0  0  0  0  0  0  0  0  0
  141.0654  154.7445  140.7032 H   0  0  0  0  0  0  0  0  0  0  0  0
  141.8106  156.3522  140.4090 H   0  0  0  0  0  0  0  0  0  0  0  0
  140.0228  156.1774  140.4090 H   0  0  0  0  0  0  0  0  0  0  0  0
  140.8902  153.3479  139.0962 H   0  0  0  0  0  0  0  0  0  0  0  0
  140.1866  153.8896  137.5186 H   0  0  0  0  0  0  0  0  0  0  0  0
  143.0295  154.5210  137.6597 H   0  0  0  0  0  0  0  0  0  0  0  0
  142.7132  152.7499  137.9586 H   0  0  0  0  0  0  0  0  0  0  0  0
  142.7447  152.5590  135.7214 H   0  0  0  0  0  0  0  0  0  0  0  0
  141.0847  153.2830  135.8130 H   0  0  0  0  0  0  0  0  0  0  0  0
  144.2845  155.1539  136.3586 H   0  0  0  0  0  0  0  0  0  0  0  0
  144.6518  154.3294  134.8056 H   0  0  0  0  0  0  0  0  0  0  0  0
  144.0885  156.0351  134.8056 H   0  0  0  0  0  0  0  0  0  0  0  0
  140.5622  153.5922  133.7601 H   0  0  0  0  0  0  0  0  0  0  0  0
  138.9285  154.8948  132.3619 H   0  0  0  0  0  0  0  0  0  0  0  0
  138.2534  157.5425  131.5282 H   0  0  0  0  0  0  0  0  0  0  0  0
  137.4310  161.2040  131.1290 H   0  0  0  0  0  0  0  0  0  0  0  0
  142.5535  157.3044  134.8910 H   0  0  0  0  0  0  0  0  0  0  0  0
  1  2  1  0
  2  3  1  0
  3  4  2  0
  3  5  1  0
  5  6  1  0
  5  7  1  0
  7  8  1  0
  8  9  1  0
  9 10  1  0
 10 11  1  0
 10 12  1  0
 12 13  2  0
 13 14  1  0
 14 15  2  0
 15 16  1  0
 16 17  2  0
 17 18  1  0
 18 19  1  0
 18 20  2  0
 17 21  1  0
 21 22  1  0
 22 23  2  0
 22 24  1  0
 21 25  1  0
 25 26  2  0
 26 12  1  0
 25 15  1  0
  1 27  1  0
  1 28  1  0
  1 29  1  0
  6 30  1  0
  6 31  1  0
  6 32  1  0
  7 33  1  0
  7 34  1  0
  8 35  1  0
  8 36  1  0
  9 37  1  0
  9 38  1  0
 11 39  1  0
 11 40  1  0
 11 41  1  0
 13 42  1  0
 14 43  1  0
 16 44  1  0
 19 45  1  0
 26 46  1  0
M  CHG  2  19  -1  24  -1
M  END
>  <UniqueID>  (41) 
41

>  <SMILES>  (41) 
COC(=O)N(C)CCCN(C)c1ccc2cc(C([NH-])=O)n(C(=O)[O-])c2c1

>  <Energy>  (41) 
78.40367468024824

>  <Genealogy>  (41) 
COC(=O)N(C)CCCN(C)c1ccc2cc(C([NH-])=O)n(C(=O)[O-])c2c1 (protonated)
COC(=O)N(C)CCCN(C)c1ccc2cc(C([NH-])=O)n(C(=O)[O-])c2c1 (3D coordinates assigned)
COC(=O)N(C)CCCN(C)c1ccc2cc(C([NH-])=O)n(C(=O)[O-])c2c1 (optimized conformer: 78.40367468024824 kcal/mol)

>  <smiles>  (41) 
COC(=O)N(C)CCCN(C)c1ccc2cc(C(N)=O)n(C(=O)O)c2c1

>  <score_type>  (41) 
oracle

>  <origin>  (41) 
adg

>  <m_score__min__energy>  (41) 
-6.0199999999999996

>  <m_primary>  (41) 
energy

$$$$
41:0
     RDKit          3D

 43 44  0  0  0  0  0  0  0  0999 V2000
  148.0120  155.4490  133.2280 C   0  0  0  0  0  0  0  0  0  0  0  0
  147.4030  156.8170  133.2780 C   0  0  0  0  0  0  0  0  0  0  0  0
  148.2420  157.9590  133.2740 C   0  0  0  0  0  0  0  0  0  0  0  0
  147.6930  159.2510  133.3320 C   0  0  0  0  0  0  0  0  0  0  0  0
  146.3070  159.3680  133.3970 C   0  0  0  0  0  0  0  0  0  0  0  0
  145.5120  160.4910  133.4400 C   0  0  0  0  0  0  0  0  0  0  0  0
  144.2040  160.0140  133.4850 C   0  0  0  0  0  0  0  0  0  0  0  0
  143.0220  160.8840  133.6550 C   0  0  0  0  0  0  0  0  0  0  0  0
  141.7180  160.3100  133.7020 N   0  0  0  0  0  0  0  0  0  0  0  0
  143.1500  162.1340  133.7250 O   0  0  0  0  0  0  0  0  0  0  0  0
  144.1910  158.6520  133.4520 N   0  0  0  0  0  0  0  0  0  0  0  0
  143.0520  157.7770  133.4230 C   0  0  0  0  0  0  0  0  0  0  0  0
  142.5610  157.4350  132.3140 O   0  0  0  0  0  0  0  0  0  0  0  0
  142.4090  157.2940  134.7030 C   0  0  0  0  0  0  0  0  0  0  0  0
  141.3830  158.2170  135.2380 N   0  0  2  0  0  0  0  0  0  0  0  0
  141.3840  158.2790  136.7120 C   0  0  0  0  0  0  0  0  0  0  0  0
  140.0750  157.9210  134.6940 C   0  0  0  0  0  0  0  0  0  0  0  0
  139.1040  157.6430  135.4530 O   0  0  0  0  0  0  0  0  0  0  0  0
  139.9010  157.9290  133.3040 O   0  0  0  0  0  0  0  0  0  0  0  0
  138.8250  158.5970  132.6470 C   0  0  0  0  0  0  0  0  0  0  0  0
  139.3500  159.6930  131.7210 C   0  0  0  0  0  0  0  0  0  0  0  0
  140.6050  159.3380  131.2080 O   0  0  0  0  0  0  0  0  0  0  0  0
  145.4840  158.2720  133.4130 C   0  0  0  0  0  0  0  0  0  0  0  0
  146.0020  156.9740  133.3590 C   0  0  0  0  0  0  0  0  0  0  0  0
  148.1751  155.0826  134.2523 H   0  0  0  0  0  0  0  0  0  0  0  0
  147.3335  154.7648  132.6975 H   0  0  0  0  0  0  0  0  0  0  0  0
  148.9745  155.4953  132.6975 H   0  0  0  0  0  0  0  0  0  0  0  0
  149.3336  157.8327  133.2250 H   0  0  0  0  0  0  0  0  0  0  0  0
  148.3378  160.1422  133.3262 H   0  0  0  0  0  0  0  0  0  0  0  0
  145.8397  161.5410  133.4390 H   0  0  0  0  0  0  0  0  0  0  0  0
  141.5040  159.4220  133.1940 H   0  0  0  0  0  0  0  0  0  0  0  0
  141.9334  156.3216  134.5074 H   0  0  0  0  0  0  0  0  0  0  0  0
  143.2062  157.2267  135.4580 H   0  0  0  0  0  0  0  0  0  0  0  0
  141.6330  159.1770  134.9010 H   0  0  0  0  0  0  0  0  0  0  0  0
  141.3674  157.2584  137.1219 H   0  0  0  0  0  0  0  0  0  0  0  0
  142.2907  158.7979  137.0566 H   0  0  0  0  0  0  0  0  0  0  0  0
  140.4946  158.8270  137.0566 H   0  0  0  0  0  0  0  0  0  0  0  0
  138.2555  157.8663  132.0539 H   0  0  0  0  0  0  0  0  0  0  0  0
  138.1797  159.0588  133.4088 H   0  0  0  0  0  0  0  0  0  0  0  0
  138.6445  159.8333  130.8888 H   0  0  0  0  0  0  0  0  0  0  0  0
  139.4492  160.6271  132.2933 H   0  0  0  0  0  0  0  0  0  0  0  0
  141.1740  159.1060  131.9880 H   0  0  0  0  0  0  0  0  0  0  0  0
  145.3359  156.0988  133.3791 H   0  0  0  0  0  0  0  0  0  0  0  0
  1  2  1  0
  2  3  2  0
  3  4  1  0
  4  5  2  0
  5  6  1  0
  6  7  2  0
  7  8  1  0
  8  9  1  0
  8 10  2  0
  7 11  1  0
 11 12  1  0
 12 13  2  0
 12 14  1  0
 14 15  1  0
 15 16  1  0
 15 17  1  0
 17 18  2  0
 17 19  1  0
 19 20  1  0
 20 21  1  0
 21 22  1  0
 11 23  1  0
 23 24  2  0
 24  2  1  0
 23  5  1  0
  1 25  1  0
  1 26  1  0
  1 27  1  0
  3 28  1  0
  4 29  1  0
  6 30  1  0
  9 31  1  0
 14 32  1  0
 14 33  1  0
 15 34  1  6
 16 35  1  0
 16 36  1  0
 16 37  1  0
 20 38  1  0
 20 39  1  0
 21 40  1  0
 21 41  1  0
 22 42  1  0
 24 43  1  0
M  CHG  2   9  -1  15   1
M  END
>  <UniqueID>  (42) 
42

>  <SMILES>  (42) 
Cc1ccc2cc(C([NH-])=O)n(C(=O)C[N@H+](C)C(=O)OCCO)c2c1

>  <Energy>  (42) 
78.61432561956893

>  <Genealogy>  (42) 
Cc1ccc2cc(C([NH-])=O)n(C(=O)C[NH+](C)C(=O)OCCO)c2c1 (protonated)
Cc1ccc2cc(C([NH-])=O)n(C(=O)C[N@H+](C)C(=O)OCCO)c2c1 (chirality)
Cc1ccc2cc(C([NH-])=O)n(C(=O)C[N@H+](C)C(=O)OCCO)c2c1 (3D coordinates assigned)
Cc1ccc2cc(C([NH-])=O)n(C(=O)C[N@H+](C)C(=O)OCCO)c2c1 (optimized conformer: 78.61432561956893 kcal/mol)

>  <smiles>  (42) 
Cc1ccc2cc(C(N)=O)n(C(=O)CN(C)C(=O)OCCO)c2c1

>  <score_type>  (42) 
oracle

>  <origin>  (42) 
adg

>  <m_score__min__energy>  (42) 
-5.2999999999999998

>  <m_primary>  (42) 
energy

$$$$
42:0
     RDKit          3D

 52 54  0  0  0  0  0  0  0  0999 V2000
  146.2020  154.0050  133.3050 C   0  0  0  0  0  0  0  0  0  0  0  0
  147.5590  154.4260  133.9000 C   0  0  0  0  0  0  0  0  0  0  0  0
  147.7260  153.7650  135.2780 C   0  0  0  0  0  0  0  0  0  0  0  0
  148.7160  153.9710  132.9880 C   0  0  0  0  0  0  0  0  0  0  0  0
  147.5970  155.8460  134.1060 O   0  0  0  0  0  0  0  0  0  0  0  0
  147.7120  156.8290  133.1080 C   0  0  0  0  0  0  0  0  0  0  0  0
  148.6120  156.7560  132.2310 O   0  0  0  0  0  0  0  0  0  0  0  0
  146.7880  157.9300  133.0960 N   0  0  0  0  0  0  0  0  0  0  0  0
  147.0790  159.2470  132.9010 C   0  0  0  0  0  0  0  0  0  0  0  0
  148.3840  159.7900  132.4730 C   0  0  0  0  0  0  0  0  0  0  0  0
  149.6080  159.1740  132.8750 N   0  0  0  0  0  0  0  0  0  0  0  0
  148.4160  160.7740  131.6860 O   0  0  0  0  0  0  0  0  0  0  0  0
  145.9500  160.0370  133.0940 C   0  0  0  0  0  0  0  0  0  0  0  0
  144.9400  159.1550  133.4000 C   0  0  0  0  0  0  0  0  0  0  0  0
  143.6010  159.3980  133.6920 C   0  0  0  0  0  0  0  0  0  0  0  0
  142.7830  158.2970  133.9950 C   0  0  0  0  0  0  0  0  0  0  0  0
  143.3130  156.9820  134.0100 C   0  0  0  0  0  0  0  0  0  0  0  0
  142.4630  155.8640  134.3320 N   0  0  0  0  0  0  0  0  0  0  0  0
  142.5600  155.2020  135.6400 C   0  0  0  0  0  0  0  0  0  0  0  0
  142.7930  153.6910  135.4730 C   0  0  0  0  0  0  0  0  0  0  0  0
  142.1330  153.1070  134.1970 C   0  0  0  0  0  0  0  0  0  0  0  0
  141.6770  151.6940  134.4310 C   0  0  0  0  0  0  0  0  0  0  0  0
  141.9240  150.8000  133.5790 O   0  0  0  0  0  0  0  0  0  0  0  0
  140.9980  151.3600  135.5960 O   0  0  0  0  0  0  0  0  0  0  0  0
  140.9660  153.9810  133.7040 C   0  0  0  0  0  0  0  0  0  0  0  0
  141.4710  155.3900  133.3540 C   0  0  0  0  0  0  0  0  0  0  0  0
  144.6820  156.7780  133.7240 C   0  0  0  0  0  0  0  0  0  0  0  0
  145.4700  157.8900  133.3990 C   0  0  0  0  0  0  0  0  0  0  0  0
  145.4964  153.7861  134.1200 H   0  0  0  0  0  0  0  0  0  0  0  0
  145.8042  154.8220  132.6851 H   0  0  0  0  0  0  0  0  0  0  0  0
  146.3364  153.1063  132.6851 H   0  0  0  0  0  0  0  0  0  0  0  0
  147.5381  154.5086  136.0665 H   0  0  0  0  0  0  0  0  0  0  0  0
  147.0089  152.9367  135.3767 H   0  0  0  0  0  0  0  0  0  0  0  0
  148.7505  153.3767  135.3767 H   0  0  0  0  0  0  0  0  0  0  0  0
  149.5620  153.6383  133.6074 H   0  0  0  0  0  0  0  0  0  0  0  0
  148.3770  153.1392  132.3530 H   0  0  0  0  0  0  0  0  0  0  0  0
  149.0344  154.8109  132.3530 H   0  0  0  0  0  0  0  0  0  0  0  0
  150.5230  159.5850  132.5850 H   0  0  0  0  0  0  0  0  0  0  0  0
  149.6090  158.2680  133.3930 H   0  0  0  0  0  0  0  0  0  0  0  0
  145.8802  161.1322  133.0181 H   0  0  0  0  0  0  0  0  0  0  0  0
  143.1958  160.4206  133.6857 H   0  0  0  0  0  0  0  0  0  0  0  0
  141.7189  158.4569  134.2233 H   0  0  0  0  0  0  0  0  0  0  0  0
  143.3999  155.6362  136.2022 H   0  0  0  0  0  0  0  0  0  0  0  0
  141.6154  155.3546  136.1827 H   0  0  0  0  0  0  0  0  0  0  0  0
  143.8765  153.5083  135.4208 H   0  0  0  0  0  0  0  0  0  0  0  0
  142.3302  153.1920  136.3372 H   0  0  0  0  0  0  0  0  0  0  0  0
  142.8974  153.1017  133.4060 H   0  0  0  0  0  0  0  0  0  0  0  0
  140.5205  153.5217  132.8092 H   0  0  0  0  0  0  0  0  0  0  0  0
  140.2119  154.0570  134.5012 H   0  0  0  0  0  0  0  0  0  0  0  0
  141.9348  155.3664  132.3568 H   0  0  0  0  0  0  0  0  0  0  0  0
  140.6133  156.0786  133.3699 H   0  0  0  0  0  0  0  0  0  0  0  0
  145.1190  155.7690  133.7558 H   0  0  0  0  0  0  0  0  0  0  0  0
  1  2  1  0
  2  3  1  0
  2  4  1  0
  2  5  1  0
  5  6  1  0
  6  7  2  0
  6  8  1  0
  8  9  1  0
  9 10  1  0
 10 11  1  0
 10 12  2  0
  9 13  2  0
 13 14  1  0
 14 15  2  0
 15 16  1  0
 16 17  2  0
 17 18  1  0
 18 19  1  0
 19 20  1  0
 20 21  1  0
 21 22  1  0
 22 23  2  0
 22 24  1  0
 21 25  1  0
 25 26  1  0
 17 27  1  0
 27 28  2  0
 28  8  1  0
 28 14  1  0
 26 18  1  0
  1 29  1  0
  1 30  1  0
  1 31  1  0
  3 32  1  0
  3 33  1  0
  3 34  1  0
  4 35  1  0
  4 36  1  0
  4 37  1  0
 11 38  1  0
 11 39  1  0
 13 40  1  0
 15 41  1  0
 16 42  1  0
 19 43  1  0
 19 44  1  0
 20 45  1  0
 20 46  1  0
 21 47  1  0
 25 48  1  0
 25 49  1  0
 26 50  1  0
 26 51  1  0
 27 52  1  0
M  CHG  1  24  -1
M  END
>  <UniqueID>  (43) 
43

>  <SMILES>  (43) 
CC(C)(C)OC(=O)n1c(C(N)=O)cc2ccc(N3CCC(C(=O)[O-])CC3)cc21

>  <Energy>  (43) 
92.78079034719187

>  <Genealogy>  (43) 
CC(C)(C)OC(=O)n1c(C(N)=O)cc2ccc(N3CCC(C(=O)[O-])CC3)cc21 (protonated)
CC(C)(C)OC(=O)n1c(C(N)=O)cc2ccc(N3CCC(C(=O)[O-])CC3)cc21 (3D coordinates assigned)
CC(C)(C)OC(=O)n1c(C(N)=O)cc2ccc(N3CCC(C(=O)[O-])CC3)cc21 (nonaromatic ring conformer: 92.78079034719187 kcal/mol)

>  <smiles>  (43) 
CC(C)(C)OC(=O)n1c(C(N)=O)cc2ccc(N3CCC(C(=O)O)CC3)cc21

>  <score_type>  (43) 
oracle

>  <origin>  (43) 
adg

>  <m_score__min__energy>  (43) 
-9.0299999999999994

>  <m_primary>  (43) 
energy

$$$$
43:0
     RDKit          3D

 31 32  0  0  0  0  0  0  0  0999 V2000
  149.2540  156.6430  132.6060 N   0  0  0  0  0  0  0  0  0  0  0  0
  148.1130  155.9260  133.0690 C   0  0  0  0  0  0  0  0  0  0  0  0
  148.2290  154.7030  133.3480 O   0  0  0  0  0  0  0  0  0  0  0  0
  146.7950  156.5860  133.2090 C   0  0  0  0  0  0  0  0  0  0  0  0
  145.5920  155.8870  133.2890 C   0  0  0  0  0  0  0  0  0  0  0  0
  144.6140  156.8500  133.3870 C   0  0  0  0  0  0  0  0  0  0  0  0
  143.2370  156.7160  133.5300 C   0  0  0  0  0  0  0  0  0  0  0  0
  142.4710  157.8870  133.6580 C   0  0  0  0  0  0  0  0  0  0  0  0
  143.0880  159.1650  133.6360 C   0  0  0  0  0  0  0  0  0  0  0  0
  142.2640  160.4100  133.8400 C   0  0  0  0  0  0  0  0  0  0  0  0
  141.2490  160.4420  132.9030 F   0  0  0  0  0  0  0  0  0  0  0  0
  143.0470  161.5430  133.6960 F   0  0  0  0  0  0  0  0  0  0  0  0
  141.7090  160.4250  135.1070 F   0  0  0  0  0  0  0  0  0  0  0  0
  144.4950  159.2550  133.5150 C   0  0  0  0  0  0  0  0  0  0  0  0
  145.2280  158.0730  133.3650 C   0  0  0  0  0  0  0  0  0  0  0  0
  146.5670  157.9290  133.2490 N   0  0  0  0  0  0  0  0  0  0  0  0
  147.5330  158.9900  133.2300 C   0  0  0  0  0  0  0  0  0  0  0  0
  148.4840  158.9870  134.0590 O   0  0  0  0  0  0  0  0  0  0  0  0
  147.4430  160.0880  132.2120 C   0  0  0  0  0  0  0  0  0  0  0  0
  148.8980  160.0590  131.1230 P   0  0  1  0  0  0  0  0  0  0  0  0
  148.5020  159.5540  129.7540 O   0  0  0  0  0  0  0  0  0  0  0  0
  149.5350  161.6210  130.9880 O   0  0  0  0  0  0  0  0  0  0  0  0
  150.0660  159.0310  131.7870 O   0  0  0  0  0  0  0  0  0  0  0  0
  149.6710  157.4150  133.1720 H   0  0  0  0  0  0  0  0  0  0  0  0
  145.4535  154.7958  133.2765 H   0  0  0  0  0  0  0  0  0  0  0  0
  142.7622  155.7238  133.5425 H   0  0  0  0  0  0  0  0  0  0  0  0
  141.3800  157.8123  133.7767 H   0  0  0  0  0  0  0  0  0  0  0  0
  145.0006  160.2317  133.5383 H   0  0  0  0  0  0  0  0  0  0  0  0
  146.5345  159.9490  131.6076 H   0  0  0  0  0  0  0  0  0  0  0  0
  147.4047  161.0563  132.7324 H   0  0  0  0  0  0  0  0  0  0  0  0
  149.5570  158.4130  132.3680 H   0  0  0  0  0  0  0  0  0  0  0  0
  1  2  1  0
  2  3  2  0
  2  4  1  0
  4  5  2  0
  5  6  1  0
  6  7  2  0
  7  8  1  0
  8  9  2  0
  9 10  1  0
 10 11  1  0
 10 12  1  0
 10 13  1  0
  9 14  1  0
 14 15  2  0
 15 16  1  0
 16 17  1  0
 17 18  2  0
 17 19  1  0
 19 20  1  0
 20 21  2  0
 20 22  1  6
 20 23  1  0
 16  4  1  0
 15  6  1  0
  1 24  1  0
  5 25  1  0
  7 26  1  0
  8 27  1  0
 14 28  1  0
 19 29  1  0
 19 30  1  0
 23 31  1  0
M  CHG  2   1  -1  22  -1
M  END
>  <UniqueID>  (44) 
44

>  <SMILES>  (44) 
[NH-]C(=O)c1cc2ccc(C(F)(F)F)cc2n1C(=O)C[P@@](=O)([O-])O

>  <Energy>  (44) 
65.53587886628775

>  <Genealogy>  (44) 
[NH-]C(=O)c1cc2ccc(C(F)(F)F)cc2n1C(=O)CP(=O)([O-])O (protonated)
[NH-]C(=O)c1cc2ccc(C(F)(F)F)cc2n1C(=O)C[P@@](=O)([O-])O (chirality)
[NH-]C(=O)c1cc2ccc(C(F)(F)F)cc2n1C(=O)C[P@@](=O)([O-])O (3D coordinates assigned)
[NH-]C(=O)c1cc2ccc(C(F)(F)F)cc2n1C(=O)C[P@@](=O)([O-])O (optimized conformer: 65.53587886628775 kcal/mol)

>  <smiles>  (44) 
NC(=O)c1cc2ccc(C(F)(F)F)cc2n1C(=O)CP(=O)(O)O

>  <score_type>  (44) 
oracle

>  <origin>  (44) 
adg

>  <m_score__min__energy>  (44) 
-5.6200000000000001

>  <m_primary>  (44) 
energy

$$$$
44:0
     RDKit          3D

 40 41  0  0  0  0  0  0  0  0999 V2000
  150.3560  150.0330  130.6920 C   0  0  0  0  0  0  0  0  0  0  0  0
  149.5800  151.1580  131.2360 N   0  0  0  0  0  0  0  0  0  0  0  0
  148.1960  150.7190  131.4890 C   0  0  0  0  0  0  0  0  0  0  0  0
  150.2160  151.6550  132.4750 C   0  0  0  0  0  0  0  0  0  0  0  0
  149.2290  152.4550  133.3380 C   0  0  0  0  0  0  0  0  0  0  0  0
  148.5500  153.4420  132.5620 O   0  0  0  0  0  0  0  0  0  0  0  0
  148.8540  154.8070  132.6110 C   0  0  0  0  0  0  0  0  0  0  0  0
  149.9880  155.2200  132.2450 O   0  0  0  0  0  0  0  0  0  0  0  0
  147.8700  155.7410  133.0830 N   0  0  0  0  0  0  0  0  0  0  0  0
  146.7050  155.4610  133.7340 C   0  0  0  0  0  0  0  0  0  0  0  0
  146.2950  154.1350  134.2370 C   0  0  0  0  0  0  0  0  0  0  0  0
  146.1380  153.0240  133.3520 N   0  0  0  0  0  0  0  0  0  0  0  0
  146.1320  153.9660  135.4740 O   0  0  0  0  0  0  0  0  0  0  0  0
  145.9560  156.6180  133.9240 C   0  0  0  0  0  0  0  0  0  0  0  0
  146.7100  157.6320  133.3760 C   0  0  0  0  0  0  0  0  0  0  0  0
  146.4390  158.9930  133.2770 C   0  0  0  0  0  0  0  0  0  0  0  0
  147.3820  159.8070  132.6270 C   0  0  0  0  0  0  0  0  0  0  0  0
  148.5670  159.2480  132.0870 C   0  0  0  0  0  0  0  0  0  0  0  0
  149.5640  160.1190  131.3750 C   0  0  0  0  0  0  0  0  0  0  0  0
  149.9600  159.5080  130.1990 F   0  0  0  0  0  0  0  0  0  0  0  0
  148.9870  161.3420  131.0840 F   0  0  0  0  0  0  0  0  0  0  0  0
  148.8060  157.8600  132.2030 C   0  0  0  0  0  0  0  0  0  0  0  0
  147.8600  157.0770  132.8750 C   0  0  0  0  0  0  0  0  0  0  0  0
  150.7672  149.4369  131.5200 H   0  0  0  0  0  0  0  0  0  0  0  0
  149.7012  149.4005  130.0746 H   0  0  0  0  0  0  0  0  0  0  0  0
  151.1799  150.4204  130.0746 H   0  0  0  0  0  0  0  0  0  0  0  0
  148.0214  150.6636  132.5736 H   0  0  0  0  0  0  0  0  0  0  0  0
  147.4953  151.4390  131.0411 H   0  0  0  0  0  0  0  0  0  0  0  0
  148.0384  149.7268  131.0411 H   0  0  0  0  0  0  0  0  0  0  0  0
  150.5834  150.7965  133.0564 H   0  0  0  0  0  0  0  0  0  0  0  0
  151.0435  152.3222  132.1921 H   0  0  0  0  0  0  0  0  0  0  0  0
  148.4885  151.7655  133.7695 H   0  0  0  0  0  0  0  0  0  0  0  0
  149.7935  152.9637  134.1333 H   0  0  0  0  0  0  0  0  0  0  0  0
  146.4350  153.0870  132.3540 H   0  0  0  0  0  0  0  0  0  0  0  0
  145.8070  152.1040  133.7180 H   0  0  0  0  0  0  0  0  0  0  0  0
  144.9721  156.7044  134.4083 H   0  0  0  0  0  0  0  0  0  0  0  0
  145.5148  159.4188  133.6948 H   0  0  0  0  0  0  0  0  0  0  0  0
  147.1988  160.8879  132.5365 H   0  0  0  0  0  0  0  0  0  0  0  0
  150.4402  160.2702  132.0226 H   0  0  0  0  0  0  0  0  0  0  0  0
  149.7126  157.4063  131.7760 H   0  0  0  0  0  0  0  0  0  0  0  0
  1  2  1  0
  2  3  1  0
  2  4  1  0
  4  5  1  0
  5  6  1  0
  6  7  1  0
  7  8  2  0
  7  9  1  0
  9 10  1  0
 10 11  1  0
 11 12  1  0
 11 13  2  0
 10 14  2  0
 14 15  1  0
 15 16  2  0
 16 17  1  0
 17 18  2  0
 18 19  1  0
 19 20  1  0
 19 21  1  0
 18 22  1  0
 22 23  2  0
 23  9  1  0
 23 15  1  0
  1 24  1  0
  1 25  1  0
  1 26  1  0
  3 27  1  0
  3 28  1  0
  3 29  1  0
  4 30  1  0
  4 31  1  0
  5 32  1  0
  5 33  1  0
 12 34  1  0
 12 35  1  0
 14 36  1  0
 16 37  1  0
 17 38  1  0
 19 39  1  0
 22 40  1  0
M  END
>  <UniqueID>  (45) 
45

>  <SMILES>  (45) 
CN(C)CCOC(=O)n1c(C(N)=O)cc2ccc(C(F)F)cc21

>  <Energy>  (45) 
75.68889521326075

>  <Genealogy>  (45) 
CN(C)CCOC(=O)n1c(C(N)=O)cc2ccc(C(F)F)cc21 (3D coordinates assigned)
CN(C)CCOC(=O)n1c(C(N)=O)cc2ccc(C(F)F)cc21 (optimized conformer: 75.68889521326075 kcal/mol)

>  <smiles>  (45) 
CN(C)CCOC(=O)n1c(C(N)=O)cc2ccc(C(F)F)cc21

>  <score_type>  (45) 
oracle

>  <origin>  (45) 
adg

>  <m_score__min__energy>  (45) 
-6.3300000000000001

>  <m_primary>  (45) 
energy

$$$$
45:0
     RDKit          3D

 52 56  0  0  0  0  0  0  0  0999 V2000
  146.6390  151.0900  131.7160 N   0  0  0  0  0  0  0  0  0  0  0  0
  147.6520  151.8650  132.3590 C   0  0  0  0  0  0  0  0  0  0  0  0
  148.7360  151.3110  132.6820 O   0  0  0  0  0  0  0  0  0  0  0  0
  147.4530  153.3090  132.6130 C   0  0  0  0  0  0  0  0  0  0  0  0
  148.4870  154.2030  132.8820 C   0  0  0  0  0  0  0  0  0  0  0  0
  147.8710  155.4040  133.1490 C   0  0  0  0  0  0  0  0  0  0  0  0
  148.4230  156.6370  133.4620 C   0  0  0  0  0  0  0  0  0  0  0  0
  147.5530  157.7210  133.6600 C   0  0  0  0  0  0  0  0  0  0  0  0
  146.1380  157.5710  133.5390 C   0  0  0  0  0  0  0  0  0  0  0  0
  145.2410  158.7080  133.7360 N   0  0  0  0  0  0  0  0  0  0  0  0
  143.7810  158.4760  133.8070 C   0  0  0  0  0  0  0  0  0  0  0  0
  142.9730  159.7420  134.1010 C   0  0  0  0  0  0  0  0  0  0  0  0
  143.5140  160.8530  133.4280 O   0  0  0  0  0  0  0  0  0  0  0  0
  144.7550  161.1640  134.0150 C   0  0  0  0  0  0  0  0  0  0  0  0
  145.7930  160.0800  133.7150 C   0  0  0  0  0  0  0  0  0  0  0  0
  145.6280  156.2830  133.2070 C   0  0  0  0  0  0  0  0  0  0  0  0
  146.5210  155.2190  133.0380 C   0  0  0  0  0  0  0  0  0  0  0  0
  146.2460  153.9350  132.7090 N   0  0  0  0  0  0  0  0  0  0  0  0
  144.9520  153.3710  132.4420 C   0  0  0  0  0  0  0  0  0  0  0  0
  144.2290  153.8590  131.5310 O   0  0  0  0  0  0  0  0  0  0  0  0
  144.5320  152.2410  133.1560 O   0  0  0  0  0  0  0  0  0  0  0  0
  143.3820  151.4870  132.8770 C   0  0  0  0  0  0  0  0  0  0  0  0
  142.0930  151.9130  133.2300 C   0  0  0  0  0  0  0  0  0  0  0  0
  140.9860  151.1130  132.9400 C   0  0  0  0  0  0  0  0  0  0  0  0
  141.1730  149.8710  132.3000 C   0  0  0  0  0  0  0  0  0  0  0  0
  140.0430  148.9280  131.9400 C   0  0  0  0  0  0  0  0  0  0  0  0
  139.7710  148.6930  130.4610 C   0  0  0  0  0  0  0  0  0  0  0  0
  138.8080  149.5340  131.2890 C   0  0  0  0  0  0  0  0  0  0  0  0
  142.4380  149.4780  131.9880 N   0  0  0  0  0  0  0  0  0  0  0  0
  143.5290  150.2410  132.2620 C   0  0  0  0  0  0  0  0  0  0  0  0
  146.8060  150.0810  131.5060 H   0  0  0  0  0  0  0  0  0  0  0  0
  145.7080  151.5000  131.4820 H   0  0  0  0  0  0  0  0  0  0  0  0
  149.5668  153.9932  132.8811 H   0  0  0  0  0  0  0  0  0  0  0  0
  149.5121  156.7623  133.5526 H   0  0  0  0  0  0  0  0  0  0  0  0
  147.9701  158.7067  133.9137 H   0  0  0  0  0  0  0  0  0  0  0  0
  143.4467  158.0663  132.8425 H   0  0  0  0  0  0  0  0  0  0  0  0
  143.6051  157.7803  134.6407 H   0  0  0  0  0  0  0  0  0  0  0  0
  141.9349  159.5913  133.7698 H   0  0  0  0  0  0  0  0  0  0  0  0
  143.0078  159.9366  135.1831 H   0  0  0  0  0  0  0  0  0  0  0  0
  145.1118  162.1241  133.6138 H   0  0  0  0  0  0  0  0  0  0  0  0
  144.6202  161.2269  135.1049 H   0  0  0  0  0  0  0  0  0  0  0  0
  146.2150  160.2696  132.7170 H   0  0  0  0  0  0  0  0  0  0  0  0
  146.5531  160.1335  134.5084 H   0  0  0  0  0  0  0  0  0  0  0  0
  144.5460  156.1268  133.0850 H   0  0  0  0  0  0  0  0  0  0  0  0
  141.9540  152.8795  133.7364 H   0  0  0  0  0  0  0  0  0  0  0  0
  139.9741  151.4499  133.2093 H   0  0  0  0  0  0  0  0  0  0  0  0
  140.2259  148.2797  132.8096 H   0  0  0  0  0  0  0  0  0  0  0  0
  140.4068  149.1721  129.7019 H   0  0  0  0  0  0  0  0  0  0  0  0
  139.6742  147.8048  129.8193 H   0  0  0  0  0  0  0  0  0  0  0  0
  138.7482  150.6205  131.1278 H   0  0  0  0  0  0  0  0  0  0  0  0
  137.7275  149.5049  131.4930 H   0  0  0  0  0  0  0  0  0  0  0  0
  144.5325  149.8758  131.9983 H   0  0  0  0  0  0  0  0  0  0  0  0
  1  2  1  0
  2  3  2  0
  2  4  1  0
  4  5  2  0
  5  6  1  0
  6  7  2  0
  7  8  1  0
  8  9  2  0
  9 10  1  0
 10 11  1  0
 11 12  1  0
 12 13  1  0
 13 14  1  0
 14 15  1  0
  9 16  1  0
 16 17  2  0
 17 18  1  0
 18 19  1  0
 19 20  2  0
 19 21  1  0
 21 22  1  0
 22 23  2  0
 23 24  1  0
 24 25  2  0
 25 26  1  0
 26 27  1  0
 27 28  1  0
 25 29  1  0
 29 30  2  0
 18  4  1  0
 30 22  1  0
 17  6  1  0
 28 26  1  0
 15 10  1  0
  1 31  1  0
  1 32  1  0
  5 33  1  0
  7 34  1  0
  8 35  1  0
 11 36  1  0
 11 37  1  0
 12 38  1  0
 12 39  1  0
 14 40  1  0
 14 41  1  0
 15 42  1  0
 15 43  1  0
 16 44  1  0
 23 45  1  0
 24 46  1  0
 26 47  1  0
 27 48  1  0
 27 49  1  0
 28 50  1  0
 28 51  1  0
 30 52  1  0
M  END
>  <UniqueID>  (46) 
46

>  <SMILES>  (46) 
NC(=O)c1cc2ccc(N3CCOCC3)cc2n1C(=O)Oc1ccc(C2CC2)nc1

>  <Energy>  (46) 
375.43878668751404

>  <Genealogy>  (46) 
NC(=O)c1cc2ccc(N3CCOCC3)cc2n1C(=O)Oc1ccc(C2CC2)nc1 (3D coordinates assigned)
NC(=O)c1cc2ccc(N3CCOCC3)cc2n1C(=O)Oc1ccc(C2CC2)nc1 (nonaromatic ring conformer: 375.43878668751404 kcal/mol)

>  <smiles>  (46) 
NC(=O)c1cc2ccc(N3CCOCC3)cc2n1C(=O)Oc1ccc(C2CC2)nc1

>  <score_type>  (46) 
oracle

>  <origin>  (46) 
adg

>  <m_score__min__energy>  (46) 
-9.5700000000000003

>  <m_primary>  (46) 
energy

$$$$
46:0
     RDKit          3D

 32 33  0  0  0  0  0  0  0  0999 V2000
  148.0560  154.0650  133.4670 C   0  0  0  0  0  0  0  0  0  0  0  0
  147.8390  155.0550  132.4180 N   0  0  0  0  0  0  0  0  0  0  0  0
  147.7390  156.4700  132.6660 C   0  0  0  0  0  0  0  0  0  0  0  0
  148.8780  157.3170  132.6050 C   0  0  0  0  0  0  0  0  0  0  0  0
  148.7590  158.6970  132.8390 C   0  0  0  0  0  0  0  0  0  0  0  0
  147.4990  159.2030  133.1400 C   0  0  0  0  0  0  0  0  0  0  0  0
  147.1000  160.4960  133.3840 C   0  0  0  0  0  0  0  0  0  0  0  0
  145.7280  160.4210  133.6170 C   0  0  0  0  0  0  0  0  0  0  0  0
  144.9050  161.5850  134.0090 C   0  0  0  0  0  0  0  0  0  0  0  0
  143.5100  161.6270  133.7230 N   0  0  0  0  0  0  0  0  0  0  0  0
  145.4330  162.5340  134.6490 O   0  0  0  0  0  0  0  0  0  0  0  0
  145.2950  159.1330  133.5090 N   0  0  0  0  0  0  0  0  0  0  0  0
  143.9470  158.6460  133.5960 C   0  0  0  0  0  0  0  0  0  0  0  0
  143.4550  157.9830  132.6440 O   0  0  0  0  0  0  0  0  0  0  0  0
  143.1940  158.8910  134.7510 O   0  0  0  0  0  0  0  0  0  0  0  0
  141.7950  158.6310  134.8420 C   0  0  0  0  0  0  0  0  0  0  0  0
  141.0110  159.7120  134.1650 C   0  0  0  0  0  0  0  0  0  0  0  0
  141.0950  159.8630  132.9570 O   0  0  0  0  0  0  0  0  0  0  0  0
  146.3920  158.3990  133.2210 C   0  0  0  0  0  0  0  0  0  0  0  0
  146.4770  157.0250  132.9730 C   0  0  0  0  0  0  0  0  0  0  0  0
  147.9509  154.5447  134.4513 H   0  0  0  0  0  0  0  0  0  0  0  0
  147.3131  153.2596  133.3704 H   0  0  0  0  0  0  0  0  0  0  0  0
  149.0677  153.6442  133.3704 H   0  0  0  0  0  0  0  0  0  0  0  0
  147.7510  154.7070  131.4350 H   0  0  0  0  0  0  0  0  0  0  0  0
  149.8636  156.8876  132.3720 H   0  0  0  0  0  0  0  0  0  0  0  0
  149.6366  159.3580  132.7857 H   0  0  0  0  0  0  0  0  0  0  0  0
  147.7298  161.3978  133.3933 H   0  0  0  0  0  0  0  0  0  0  0  0
  142.9530  160.7480  133.6340 H   0  0  0  0  0  0  0  0  0  0  0  0
  141.5744  157.6680  134.3583 H   0  0  0  0  0  0  0  0  0  0  0  0
  141.5094  158.5989  135.9038 H   0  0  0  0  0  0  0  0  0  0  0  0
  140.3587  160.3707  134.7571 H   0  0  0  0  0  0  0  0  0  0  0  0
  145.5798  156.3900  133.0162 H   0  0  0  0  0  0  0  0  0  0  0  0
  1  2  1  0
  2  3  1  0
  3  4  2  0
  4  5  1  0
  5  6  2  0
  6  7  1  0
  7  8  2  0
  8  9  1  0
  9 10  1  0
  9 11  2  0
  8 12  1  0
 12 13  1  0
 13 14  2  0
 13 15  1  0
 15 16  1  0
 16 17  1  0
 17 18  2  0
 12 19  1  0
 19 20  2  0
 20  3  1  0
 19  6  1  0
  1 21  1  0
  1 22  1  0
  1 23  1  0
  2 24  1  0
  4 25  1  0
  5 26  1  0
  7 27  1  0
 10 28  1  0
 16 29  1  0
 16 30  1  0
 17 31  1  0
 20 32  1  0
M  CHG  1  10  -1
M  END
>  <UniqueID>  (47) 
47

>  <SMILES>  (47) 
CNc1ccc2cc(C([NH-])=O)n(C(=O)OCC=O)c2c1

>  <Energy>  (47) 
67.39169819705336

>  <Genealogy>  (47) 
CNc1ccc2cc(C([NH-])=O)n(C(=O)OCC=O)c2c1 (protonated)
CNc1ccc2cc(C([NH-])=O)n(C(=O)OCC=O)c2c1 (3D coordinates assigned)
CNc1ccc2cc(C([NH-])=O)n(C(=O)OCC=O)c2c1 (optimized conformer: 67.39169819705336 kcal/mol)

>  <smiles>  (47) 
CNc1ccc2cc(C(N)=O)n(C(=O)OCC=O)c2c1

>  <score_type>  (47) 
oracle

>  <origin>  (47) 
adg

>  <m_score__min__energy>  (47) 
-5.6399999999999997

>  <m_primary>  (47) 
energy

$$$$
47:0
     RDKit          3D

 38 39  0  0  0  0  0  0  0  0999 V2000
  143.5140  160.1040  134.4020 C   0  0  0  0  0  0  0  0  0  0  0  0
  144.8590  160.8170  134.2020 C   0  0  1  0  0  0  0  0  0  0  0  0
  145.5360  160.3370  132.9890 N   0  0  0  0  0  0  0  0  0  0  0  0
  146.5190  159.2800  132.9140 C   0  0  0  0  0  0  0  0  0  0  0  0
  147.8540  159.6190  132.5780 C   0  0  0  0  0  0  0  0  0  0  0  0
  148.8460  158.6310  132.4670 C   0  0  0  0  0  0  0  0  0  0  0  0
  148.4800  157.3110  132.6990 C   0  0  0  0  0  0  0  0  0  0  0  0
  149.2280  156.1590  132.6160 C   0  0  0  0  0  0  0  0  0  0  0  0
  148.3470  155.1270  132.9220 C   0  0  0  0  0  0  0  0  0  0  0  0
  148.7520  153.7080  132.9970 C   0  0  0  0  0  0  0  0  0  0  0  0
  148.2260  152.8370  133.9990 N   0  0  0  0  0  0  0  0  0  0  0  0
  149.6210  153.2700  132.1950 O   0  0  0  0  0  0  0  0  0  0  0  0
  147.1000  155.6160  133.1730 N   0  0  0  0  0  0  0  0  0  0  0  0
  145.8990  154.8600  133.3980 C   0  0  0  0  0  0  0  0  0  0  0  0
  145.5940  153.9120  132.6230 O   0  0  0  0  0  0  0  0  0  0  0  0
  145.0740  155.1780  134.4800 O   0  0  0  0  0  0  0  0  0  0  0  0
  145.0670  154.4280  135.6890 C   0  0  0  0  0  0  0  0  0  0  0  0
  146.4730  154.1720  136.1140 C   0  0  0  0  0  0  0  0  0  0  0  0
  147.3620  155.0420  135.9210 O   0  0  0  0  0  0  0  0  0  0  0  0
  146.7960  152.9890  136.7660 O   0  0  0  0  0  0  0  0  0  0  0  0
  147.2000  156.9580  133.0360 C   0  0  0  0  0  0  0  0  0  0  0  0
  146.1860  157.9200  133.1320 C   0  0  0  0  0  0  0  0  0  0  0  0
  144.7460  162.3180  134.2100 C   0  0  0  0  0  0  0  0  0  0  0  0
  143.9990  162.8940  133.3770 O   0  0  0  0  0  0  0  0  0  0  0  0
  145.4930  163.0850  135.0970 O   0  0  0  0  0  0  0  0  0  0  0  0
  143.3122  159.9970  135.4780 H   0  0  0  0  0  0  0  0  0  0  0  0
  142.7125  160.6956  133.9356 H   0  0  0  0  0  0  0  0  0  0  0  0
  143.5538  159.1086  133.9356 H   0  0  0  0  0  0  0  0  0  0  0  0
  145.4783  160.5566  135.0730 H   0  0  0  0  0  0  0  0  0  0  0  0
  145.3270  160.8620  132.1090 H   0  0  0  0  0  0  0  0  0  0  0  0
  148.1170  160.6724  132.4015 H   0  0  0  0  0  0  0  0  0  0  0  0
  149.8812  158.8943  132.2043 H   0  0  0  0  0  0  0  0  0  0  0  0
  150.2948  156.0727  132.3619 H   0  0  0  0  0  0  0  0  0  0  0  0
  147.6470  153.2060  134.7860 H   0  0  0  0  0  0  0  0  0  0  0  0
  148.4830  151.8250  134.0010 H   0  0  0  0  0  0  0  0  0  0  0  0
  144.5435  154.9965  136.4718 H   0  0  0  0  0  0  0  0  0  0  0  0
  144.5491  153.4710  135.5278 H   0  0  0  0  0  0  0  0  0  0  0  0
  145.1535  157.6259  133.3715 H   0  0  0  0  0  0  0  0  0  0  0  0
  1  2  1  0
  2  3  1  0
  3  4  1  0
  4  5  2  0
  5  6  1  0
  6  7  2  0
  7  8  1  0
  8  9  2  0
  9 10  1  0
 10 11  1  0
 10 12  2  0
  9 13  1  0
 13 14  1  0
 14 15  2  0
 14 16  1  0
 16 17  1  0
 17 18  1  0
 18 19  2  0
 18 20  1  0
 13 21  1  0
 21 22  2  0
  2 23  1  0
 23 24  2  0
 23 25  1  0
 22  4  1  0
 21  7  1  0
  1 26  1  0
  1 27  1  0
  1 28  1  0
  2 29  1  1
  3 30  1  0
  5 31  1  0
  6 32  1  0
  8 33  1  0
 11 34  1  0
 11 35  1  0
 17 36  1  0
 17 37  1  0
 22 38  1  0
M  CHG  2  20  -1  25  -1
M  END
>  <UniqueID>  (48) 
48

>  <SMILES>  (48) 
C[C@@H](Nc1ccc2cc(C(N)=O)n(C(=O)OCC(=O)[O-])c2c1)C(=O)[O-]

>  <Energy>  (48) 
74.69395114481793

>  <Genealogy>  (48) 
CC(Nc1ccc2cc(C(N)=O)n(C(=O)OCC(=O)[O-])c2c1)C(=O)[O-] (protonated)
C[C@@H](Nc1ccc2cc(C(N)=O)n(C(=O)OCC(=O)[O-])c2c1)C(=O)[O-] (chirality)
C[C@@H](Nc1ccc2cc(C(N)=O)n(C(=O)OCC(=O)[O-])c2c1)C(=O)[O-] (3D coordinates assigned)
C[C@@H](Nc1ccc2cc(C(N)=O)n(C(=O)OCC(=O)[O-])c2c1)C(=O)[O-] (optimized conformer: 74.69395114481793 kcal/mol)

>  <smiles>  (48) 
CC(Nc1ccc2cc(C(N)=O)n(C(=O)OCC(=O)O)c2c1)C(=O)O

>  <score_type>  (48) 
oracle

>  <origin>  (48) 
adg

>  <m_score__min__energy>  (48) 
-7.2000000000000002

>  <m_primary>  (48) 
energy

$$$$
48:0
     RDKit          3D

 47 48  0  0  0  0  0  0  0  0999 V2000
  139.8120  159.4720  131.2830 C   0  0  0  0  0  0  0  0  0  0  0  0
  139.6280  158.4810  132.3470 N   0  0  0  0  0  0  0  0  0  0  0  0
  138.3080  158.2460  132.9350 C   0  0  0  0  0  0  0  0  0  0  0  0
  140.7440  157.6870  132.7840 C   0  0  0  0  0  0  0  0  0  0  0  0
  141.8820  157.8520  132.2620 O   0  0  0  0  0  0  0  0  0  0  0  0
  140.5610  156.7110  133.7720 O   0  0  0  0  0  0  0  0  0  0  0  0
  140.6140  155.3120  133.4980 C   0  0  0  0  0  0  0  0  0  0  0  0
  141.5390  154.6790  134.3780 O   0  0  0  0  0  0  0  0  0  0  0  0
  142.3000  155.3940  135.3080 C   0  0  0  0  0  0  0  0  0  0  0  0
  143.4910  155.7200  135.0470 O   0  0  0  0  0  0  0  0  0  0  0  0
  141.6950  155.8340  136.5290 N   0  0  0  0  0  0  0  0  0  0  0  0
  141.4840  157.1120  136.9470 C   0  0  0  0  0  0  0  0  0  0  0  0
  141.7420  158.3300  136.1530 C   0  0  0  0  0  0  0  0  0  0  0  0
  142.6180  158.2740  135.0290 N   0  0  0  0  0  0  0  0  0  0  0  0
  141.2090  159.4280  136.4660 O   0  0  0  0  0  0  0  0  0  0  0  0
  140.9450  157.1170  138.2330 C   0  0  0  0  0  0  0  0  0  0  0  0
  140.8440  155.7910  138.5920 C   0  0  0  0  0  0  0  0  0  0  0  0
  140.4160  155.2140  139.7800 C   0  0  0  0  0  0  0  0  0  0  0  0
  140.4790  153.8150  139.8940 C   0  0  0  0  0  0  0  0  0  0  0  0
  140.9650  153.0040  138.8250 C   0  0  0  0  0  0  0  0  0  0  0  0
  141.0690  151.4820  139.0290 C   0  0  0  0  0  0  0  0  0  0  0  0
  140.4400  151.1320  140.3950 C   0  0  0  0  0  0  0  0  0  0  0  0
  142.5250  150.9640  139.0210 C   0  0  0  0  0  0  0  0  0  0  0  0
  140.3380  150.7650  137.9090 C   0  0  0  0  0  0  0  0  0  0  0  0
  139.3690  150.0020  138.1730 O   0  0  0  0  0  0  0  0  0  0  0  0
  140.6720  150.9930  136.5770 O   0  0  0  0  0  0  0  0  0  0  0  0
  141.4010  153.6460  137.6350 C   0  0  0  0  0  0  0  0  0  0  0  0
  141.3060  155.0390  137.5470 C   0  0  0  0  0  0  0  0  0  0  0  0
  139.9955  160.4602  131.7300 H   0  0  0  0  0  0  0  0  0  0  0  0
  140.6724  159.1859  130.6602 H   0  0  0  0  0  0  0  0  0  0  0  0
  138.9063  159.5138  130.6602 H   0  0  0  0  0  0  0  0  0  0  0  0
  138.3875  158.2602  134.0320 H   0  0  0  0  0  0  0  0  0  0  0  0
  137.6149  159.0349  132.6074 H   0  0  0  0  0  0  0  0  0  0  0  0
  137.9298  157.2664  132.6074 H   0  0  0  0  0  0  0  0  0  0  0  0
  139.6153  154.8742  133.6425 H   0  0  0  0  0  0  0  0  0  0  0  0
  140.9408  155.1591  132.4589 H   0  0  0  0  0  0  0  0  0  0  0  0
  142.5240  157.5200  134.3130 H   0  0  0  0  0  0  0  0  0  0  0  0
  140.6608  157.9938  138.8334 H   0  0  0  0  0  0  0  0  0  0  0  0
  140.0389  155.8334  140.6071 H   0  0  0  0  0  0  0  0  0  0  0  0
  140.1469  153.3350  140.8264 H   0  0  0  0  0  0  0  0  0  0  0  0
  141.0924  151.4950  141.2029 H   0  0  0  0  0  0  0  0  0  0  0  0
  139.4531  151.6107  140.4777 H   0  0  0  0  0  0  0  0  0  0  0  0
  140.3265  150.0410  140.4777 H   0  0  0  0  0  0  0  0  0  0  0  0
  142.8755  150.8393  140.0562 H   0  0  0  0  0  0  0  0  0  0  0  0
  142.5669  149.9958  138.5006 H   0  0  0  0  0  0  0  0  0  0  0  0
  143.1690  151.6882  138.5006 H   0  0  0  0  0  0  0  0  0  0  0  0
  141.8060  153.0584  136.7979 H   0  0  0  0  0  0  0  0  0  0  0  0
  1  2  1  0
  2  3  1  0
  2  4  1  0
  4  5  2  0
  4  6  1  0
  6  7  1  0
  7  8  1  0
  8  9  1  0
  9 10  2  0
  9 11  1  0
 11 12  1  0
 12 13  1  0
 13 14  1  0
 13 15  2  0
 12 16  2  0
 16 17  1  0
 17 18  2  0
 18 19  1  0
 19 20  2  0
 20 21  1  0
 21 22  1  0
 21 23  1  0
 21 24  1  0
 24 25  2  0
 24 26  1  0
 20 27  1  0
 27 28  2  0
 28 11  1  0
 28 17  1  0
  1 29  1  0
  1 30  1  0
  1 31  1  0
  3 32  1  0
  3 33  1  0
  3 34  1  0
  7 35  1  0
  7 36  1  0
 14 37  1  0
 16 38  1  0
 18 39  1  0
 19 40  1  0
 22 41  1  0
 22 42  1  0
 22 43  1  0
 23 44  1  0
 23 45  1  0
 23 46  1  0
 27 47  1  0
M  CHG  2  14  -1  26  -1
M  END
>  <UniqueID>  (49) 
49

>  <SMILES>  (49) 
CN(C)C(=O)OCOC(=O)n1c(C([NH-])=O)cc2ccc(C(C)(C)C(=O)[O-])cc21

>  <Energy>  (49) 
80.34046363591746

>  <Genealogy>  (49) 
CN(C)C(=O)OCOC(=O)n1c(C([NH-])=O)cc2ccc(C(C)(C)C(=O)[O-])cc21 (protonated)
CN(C)C(=O)OCOC(=O)n1c(C([NH-])=O)cc2ccc(C(C)(C)C(=O)[O-])cc21 (3D coordinates assigned)
CN(C)C(=O)OCOC(=O)n1c(C([NH-])=O)cc2ccc(C(C)(C)C(=O)[O-])cc21 (optimized conformer: 80.34046363591746 kcal/mol)

>  <smiles>  (49) 
CN(C)C(=O)OCOC(=O)n1c(C(N)=O)cc2ccc(C(C)(C)C(=O)O)cc21

>  <score_type>  (49) 
oracle

>  <origin>  (49) 
adg

>  <m_score__min__energy>  (49) 
-7.0300000000000002

>  <m_primary>  (49) 
energy

$$$$
50:0
     RDKit          3D

 33 35  0  0  0  0  0  0  0  0999 V2000
  145.6020  160.4720  132.8680 N   0  0  0  0  0  0  0  0  0  0  0  0
  145.0680  159.3030  133.4920 C   0  0  0  0  0  0  0  0  0  0  0  0
  143.9600  159.3740  134.0890 O   0  0  0  0  0  0  0  0  0  0  0  0
  145.7550  158.0010  133.3910 C   0  0  0  0  0  0  0  0  0  0  0  0
  145.1200  156.7830  133.6130 C   0  0  0  0  0  0  0  0  0  0  0  0
  146.0740  155.8250  133.3560 C   0  0  0  0  0  0  0  0  0  0  0  0
  145.9870  154.4380  133.4260 C   0  0  0  0  0  0  0  0  0  0  0  0
  147.1410  153.6910  133.1400 C   0  0  0  0  0  0  0  0  0  0  0  0
  148.3610  154.3370  132.8140 C   0  0  0  0  0  0  0  0  0  0  0  0
  149.5970  153.5200  132.5090 C   0  0  0  0  0  0  0  0  0  0  0  0
  149.5240  152.0150  132.8650 C   0  0  0  0  0  0  0  0  0  0  0  0
  149.2420  151.8140  134.2080 F   0  0  0  0  0  0  0  0  0  0  0  0
  148.6800  151.1240  131.9780 C   0  0  0  0  0  0  0  0  0  0  0  0
  149.7930  150.3530  131.5860 O   0  0  0  0  0  0  0  0  0  0  0  0
  150.6530  151.1270  132.3910 C   0  0  0  0  0  0  0  0  0  0  0  0
  148.4020  155.7480  132.7330 C   0  0  0  0  0  0  0  0  0  0  0  0
  147.2330  156.4680  133.0050 C   0  0  0  0  0  0  0  0  0  0  0  0
  147.0530  157.8100  133.0240 N   0  0  0  0  0  0  0  0  0  0  0  0
  148.0610  158.8180  132.8310 C   0  0  0  0  0  0  0  0  0  0  0  0
  148.8000  159.1750  133.7850 O   0  0  0  0  0  0  0  0  0  0  0  0
  148.2240  159.4140  131.5860 O   0  0  0  0  0  0  0  0  0  0  0  0
  146.4260  160.4120  132.2300 H   0  0  0  0  0  0  0  0  0  0  0  0
  145.1210  161.3920  132.9790 H   0  0  0  0  0  0  0  0  0  0  0  0
  144.0783  156.6206  133.9268 H   0  0  0  0  0  0  0  0  0  0  0  0
  145.0433  153.9421  133.6970 H   0  0  0  0  0  0  0  0  0  0  0  0
  147.0985  152.5922  133.1691 H   0  0  0  0  0  0  0  0  0  0  0  0
  149.7954  153.6008  131.4301 H   0  0  0  0  0  0  0  0  0  0  0  0
  150.3909  153.9362  133.1467 H   0  0  0  0  0  0  0  0  0  0  0  0
  147.9202  150.5498  132.5284 H   0  0  0  0  0  0  0  0  0  0  0  0
  148.0504  151.5851  131.2027 H   0  0  0  0  0  0  0  0  0  0  0  0
  151.1299  150.5544  133.2001 H   0  0  0  0  0  0  0  0  0  0  0  0
  151.5390  151.5903  131.9324 H   0  0  0  0  0  0  0  0  0  0  0  0
  149.3324  156.2685  132.4621 H   0  0  0  0  0  0  0  0  0  0  0  0
  1  2  1  0
  2  3  2  0
  2  4  1  0
  4  5  2  0
  5  6  1  0
  6  7  2  0
  7  8  1  0
  8  9  2  0
  9 10  1  0
 10 11  1  0
 11 12  1  0
 11 13  1  0
 13 14  1  0
 14 15  1  0
  9 16  1  0
 16 17  2  0
 17 18  1  0
 18 19  1  0
 19 20  2  0
 19 21  1  0
 18  4  1  0
 17  6  1  0
 15 11  1  0
  1 22  1  0
  1 23  1  0
  5 24  1  0
  7 25  1  0
  8 26  1  0
 10 27  1  0
 10 28  1  0
 13 29  1  0
 13 30  1  0
 15 31  1  0
 15 32  1  0
 16 33  1  0
M  CHG  1  21  -1
M  END
>  <UniqueID>  (50) 
50

>  <SMILES>  (50) 
NC(=O)c1cc2ccc(CC3(F)COC3)cc2n1C(=O)[O-]

>  <Energy>  (50) 
140.68841522629916

>  <Genealogy>  (50) 
NC(=O)c1cc2ccc(CC3(F)COC3)cc2n1C(=O)[O-] (protonated)
NC(=O)c1cc2ccc(CC3(F)COC3)cc2n1C(=O)[O-] (3D coordinates assigned)
NC(=O)c1cc2ccc(CC3(F)COC3)cc2n1C(=O)[O-] (nonaromatic ring conformer: 140.68841522629916 kcal/mol)

>  <smiles>  (50) 
NC(=O)c1cc2ccc(CC3(F)COC3)cc2n1C(=O)O

>  <score_type>  (50) 
oracle

>  <origin>  (50) 
adg

>  <m_score__min__energy>  (50) 
-6.6399999999999997

>  <m_primary>  (50) 
energy

$$$$
51:0
     RDKit          3D

 49 50  0  0  0  0  0  0  0  0999 V2000
  148.0980  154.6810  132.9920 C   0  0  0  0  0  0  0  0  0  0  0  0
  147.6190  156.0870  133.1860 C   0  0  0  0  0  0  0  0  0  0  0  0
  148.5470  157.1500  133.3110 C   0  0  0  0  0  0  0  0  0  0  0  0
  148.1020  158.4780  133.4400 C   0  0  0  0  0  0  0  0  0  0  0  0
  146.7290  158.7070  133.4490 C   0  0  0  0  0  0  0  0  0  0  0  0
  146.0240  159.8870  133.5360 C   0  0  0  0  0  0  0  0  0  0  0  0
  144.6800  159.5170  133.4960 C   0  0  0  0  0  0  0  0  0  0  0  0
  143.5610  160.4790  133.5560 C   0  0  0  0  0  0  0  0  0  0  0  0
  142.2650  160.1480  133.0540 N   0  0  0  0  0  0  0  0  0  0  0  0
  143.7430  161.6030  134.0940 O   0  0  0  0  0  0  0  0  0  0  0  0
  144.5630  158.1660  133.3880 N   0  0  0  0  0  0  0  0  0  0  0  0
  143.3580  157.3970  133.2620 C   0  0  0  0  0  0  0  0  0  0  0  0
  142.6430  157.5450  132.2330 O   0  0  0  0  0  0  0  0  0  0  0  0
  142.9570  156.4740  134.2970 N   0  0  0  0  0  0  0  0  0  0  0  0
  142.9990  155.0350  134.0300 C   0  0  0  0  0  0  0  0  0  0  0  0
  142.4590  156.9560  135.5940 C   0  0  0  0  0  0  0  0  0  0  0  0
  141.8220  158.3470  135.4590 C   0  0  0  0  0  0  0  0  0  0  0  0
  140.4040  158.2370  135.0010 C   0  0  0  0  0  0  0  0  0  0  0  0
  139.5290  157.7550  135.7700 O   0  0  0  0  0  0  0  0  0  0  0  0
  140.0830  158.6240  133.6960 O   0  0  0  0  0  0  0  0  0  0  0  0
  138.7820  158.5050  133.1230 C   0  0  0  0  0  0  0  0  0  0  0  0
  138.8650  158.1090  131.6430 C   0  0  0  0  0  0  0  0  0  0  0  0
  139.4110  159.2370  130.7610 C   0  0  0  0  0  0  0  0  0  0  0  0
  140.6130  159.7290  131.2910 O   0  0  0  0  0  0  0  0  0  0  0  0
  145.8220  157.6850  133.3490 C   0  0  0  0  0  0  0  0  0  0  0  0
  146.2340  156.3610  133.1810 C   0  0  0  0  0  0  0  0  0  0  0  0
  148.2586  154.2097  133.9729 H   0  0  0  0  0  0  0  0  0  0  0  0
  147.3434  154.1108  132.4303 H   0  0  0  0  0  0  0  0  0  0  0  0
  149.0438  154.6900  132.4303 H   0  0  0  0  0  0  0  0  0  0  0  0
  149.6257  156.9348  133.3071 H   0  0  0  0  0  0  0  0  0  0  0  0
  148.8165  159.3094  133.5309 H   0  0  0  0  0  0  0  0  0  0  0  0
  146.4337  160.9044  133.6193 H   0  0  0  0  0  0  0  0  0  0  0  0
  142.0060  159.1620  132.8310 H   0  0  0  0  0  0  0  0  0  0  0  0
  141.5180  160.8760  133.0140 H   0  0  0  0  0  0  0  0  0  0  0  0
  143.0150  154.4856  134.9828 H   0  0  0  0  0  0  0  0  0  0  0  0
  142.1090  154.7430  133.4533 H   0  0  0  0  0  0  0  0  0  0  0  0
  143.9045  154.7954  133.4533 H   0  0  0  0  0  0  0  0  0  0  0  0
  141.7051  156.2509  135.9739 H   0  0  0  0  0  0  0  0  0  0  0  0
  143.3078  157.0263  136.2901 H   0  0  0  0  0  0  0  0  0  0  0  0
  141.8477  158.8521  136.4358 H   0  0  0  0  0  0  0  0  0  0  0  0
  142.3898  158.9250  134.7150 H   0  0  0  0  0  0  0  0  0  0  0  0
  138.2175  157.7354  133.6698 H   0  0  0  0  0  0  0  0  0  0  0  0
  138.2772  159.4796  133.1964 H   0  0  0  0  0  0  0  0  0  0  0  0
  139.5274  157.2359  131.5485 H   0  0  0  0  0  0  0  0  0  0  0  0
  137.8443  157.8828  131.3008 H   0  0  0  0  0  0  0  0  0  0  0  0
  139.5925  158.8500  129.7474 H   0  0  0  0  0  0  0  0  0  0  0  0
  138.6742  160.0530  130.7256 H   0  0  0  0  0  0  0  0  0  0  0  0
  141.0660  158.9610  131.7260 H   0  0  0  0  0  0  0  0  0  0  0  0
  145.4990  155.5534  133.0483 H   0  0  0  0  0  0  0  0  0  0  0  0
  1  2  1  0
  2  3  2  0
  3  4  1  0
  4  5  2  0
  5  6  1  0
  6  7  2  0
  7  8  1  0
  8  9  1  0
  8 10  2  0
  7 11  1  0
 11 12  1  0
 12 13  2  0
 12 14  1  0
 14 15  1  0
 14 16  1  0
 16 17  1  0
 17 18  1  0
 18 19  2  0
 18 20  1  0
 20 21  1  0
 21 22  1  0
 22 23  1  0
 23 24  1  0
 11 25  1  0
 25 26  2  0
 26  2  1  0
 25  5  1  0
  1 27  1  0
  1 28  1  0
  1 29  1  0
  3 30  1  0
  4 31  1  0
  6 32  1  0
  9 33  1  0
  9 34  1  0
 15 35  1  0
 15 36  1  0
 15 37  1  0
 16 38  1  0
 16 39  1  0
 17 40  1  0
 17 41  1  0
 21 42  1  0
 21 43  1  0
 22 44  1  0
 22 45  1  0
 23 46  1  0
 23 47  1  0
 24 48  1  0
 26 49  1  0
M  END
>  <UniqueID>  (51) 
51

>  <SMILES>  (51) 
Cc1ccc2cc(C(N)=O)n(C(=O)N(C)CCC(=O)OCCCO)c2c1

>  <Energy>  (51) 
76.65615203212045

>  <Genealogy>  (51) 
Cc1ccc2cc(C(N)=O)n(C(=O)N(C)CCC(=O)OCCCO)c2c1 (3D coordinates assigned)
Cc1ccc2cc(C(N)=O)n(C(=O)N(C)CCC(=O)OCCCO)c2c1 (optimized conformer: 76.65615203212045 kcal/mol)

>  <smiles>  (51) 
Cc1ccc2cc(C(N)=O)n(C(=O)N(C)CCC(=O)OCCCO)c2c1

>  <score_type>  (51) 
oracle

>  <origin>  (51) 
adg

>  <m_score__min__energy>  (51) 
-7.0199999999999996

>  <m_primary>  (51) 
energy

$$$$
52:0
     RDKit          3D

 49 51  0  0  0  0  0  0  0  0999 V2000
  149.6160  159.2490  131.8420 C   0  0  0  0  0  0  0  0  0  0  0  0
  148.6470  160.1980  131.1100 C   0  0  0  0  0  0  0  0  0  0  0  0
  148.4820  159.7180  129.6600 C   0  0  0  0  0  0  0  0  0  0  0  0
  149.1990  161.6360  131.0980 C   0  0  0  0  0  0  0  0  0  0  0  0
  147.3480  160.1590  131.7190 O   0  0  0  0  0  0  0  0  0  0  0  0
  147.0720  160.2070  133.0940 C   0  0  0  0  0  0  0  0  0  0  0  0
  147.9790  160.4740  133.9270 O   0  0  0  0  0  0  0  0  0  0  0  0
  145.7420  159.9270  133.5560 N   0  0  0  0  0  0  0  0  0  0  0  0
  144.7870  160.8220  133.9370 C   0  0  0  0  0  0  0  0  0  0  0  0
  144.9800  162.2770  134.1020 C   0  0  0  0  0  0  0  0  0  0  0  0
  146.1380  162.7660  134.7750 N   0  0  0  0  0  0  0  0  0  0  0  0
  144.1520  163.0970  133.6240 O   0  0  0  0  0  0  0  0  0  0  0  0
  143.5950  160.1660  134.2370 C   0  0  0  0  0  0  0  0  0  0  0  0
  143.8520  158.8310  134.0300 C   0  0  0  0  0  0  0  0  0  0  0  0
  143.0140  157.7280  134.1650 C   0  0  0  0  0  0  0  0  0  0  0  0
  143.5380  156.4610  133.8560 C   0  0  0  0  0  0  0  0  0  0  0  0
  144.8780  156.3150  133.4100 C   0  0  0  0  0  0  0  0  0  0  0  0
  145.4020  155.0080  133.0810 N   0  0  0  0  0  0  0  0  0  0  0  0
  146.5540  154.4600  133.8080 C   0  0  0  0  0  0  0  0  0  0  0  0
  147.3190  153.4750  132.9150 C   0  0  0  0  0  0  0  0  0  0  0  0
  146.4650  152.3790  132.4080 N   0  0  0  0  0  0  0  0  0  0  0  0
  145.0300  152.7130  132.2730 C   0  0  0  0  0  0  0  0  0  0  0  0
  144.7910  154.2050  132.0130 C   0  0  0  0  0  0  0  0  0  0  0  0
  145.6950  157.4650  133.2860 C   0  0  0  0  0  0  0  0  0  0  0  0
  145.1530  158.7110  133.6200 C   0  0  0  0  0  0  0  0  0  0  0  0
  149.4946  159.3679  132.9288 H   0  0  0  0  0  0  0  0  0  0  0  0
  149.3940  158.2092  131.5598 H   0  0  0  0  0  0  0  0  0  0  0  0
  150.6509  159.4926  131.5598 H   0  0  0  0  0  0  0  0  0  0  0  0
  148.1244  158.6778  129.6566 H   0  0  0  0  0  0  0  0  0  0  0  0
  147.7524  160.3583  129.1426 H   0  0  0  0  0  0  0  0  0  0  0  0
  149.4511  159.7743  129.1426 H   0  0  0  0  0  0  0  0  0  0  0  0
  149.3333  161.9858  132.1322 H   0  0  0  0  0  0  0  0  0  0  0  0
  150.1674  161.6527  130.5766 H   0  0  0  0  0  0  0  0  0  0  0  0
  148.4905  162.2964  130.5766 H   0  0  0  0  0  0  0  0  0  0  0  0
  147.0680  162.3090  134.6440 H   0  0  0  0  0  0  0  0  0  0  0  0
  142.6494  160.6195  134.5689 H   0  0  0  0  0  0  0  0  0  0  0  0
  141.9737  157.8443  134.5031 H   0  0  0  0  0  0  0  0  0  0  0  0
  142.9012  155.5703  133.9611 H   0  0  0  0  0  0  0  0  0  0  0  0
  147.2240  155.2817  134.1010 H   0  0  0  0  0  0  0  0  0  0  0  0
  146.1967  153.9316  134.7042 H   0  0  0  0  0  0  0  0  0  0  0  0
  147.7306  154.0258  132.0564 H   0  0  0  0  0  0  0  0  0  0  0  0
  148.1124  153.0208  133.5267 H   0  0  0  0  0  0  0  0  0  0  0  0
  146.8310  152.0810  131.4740 H   0  0  0  0  0  0  0  0  0  0  0  0
  146.5520  151.5570  133.0520 H   0  0  0  0  0  0  0  0  0  0  0  0
  144.6125  152.1383  131.4331 H   0  0  0  0  0  0  0  0  0  0  0  0
  144.5391  152.4590  133.2240 H   0  0  0  0  0  0  0  0  0  0  0  0
  145.2392  154.4824  131.0475 H   0  0  0  0  0  0  0  0  0  0  0  0
  143.7082  154.3978  131.9923 H   0  0  0  0  0  0  0  0  0  0  0  0
  146.7339  157.3805  132.9345 H   0  0  0  0  0  0  0  0  0  0  0  0
  1  2  1  0
  2  3  1  0
  2  4  1  0
  2  5  1  0
  5  6  1  0
  6  7  2  0
  6  8  1  0
  8  9  1  0
  9 10  1  0
 10 11  1  0
 10 12  2  0
  9 13  2  0
 13 14  1  0
 14 15  2  0
 15 16  1  0
 16 17  2  0
 17 18  1  0
 18 19  1  0
 19 20  1  0
 20 21  1  0
 21 22  1  0
 22 23  1  0
 17 24  1  0
 24 25  2  0
 25  8  1  0
 25 14  1  0
 23 18  1  0
  1 26  1  0
  1 27  1  0
  1 28  1  0
  3 29  1  0
  3 30  1  0
  3 31  1  0
  4 32  1  0
  4 33  1  0
  4 34  1  0
 11 35  1  0
 13 36  1  0
 15 37  1  0
 16 38  1  0
 19 39  1  0
 19 40  1  0
 20 41  1  0
 20 42  1  0
 21 43  1  0
 21 44  1  0
 22 45  1  0
 22 46  1  0
 23 47  1  0
 23 48  1  0
 24 49  1  0
M  CHG  2  11  -1  21   1
M  END
>  <UniqueID>  (52) 
52

>  <SMILES>  (52) 
CC(C)(C)OC(=O)n1c(C([NH-])=O)cc2ccc(N3CC[NH2+]CC3)cc21

>  <Energy>  (52) 
91.27201746432395

>  <Genealogy>  (52) 
CC(C)(C)OC(=O)n1c(C([NH-])=O)cc2ccc(N3CC[NH2+]CC3)cc21 (protonated)
CC(C)(C)OC(=O)n1c(C([NH-])=O)cc2ccc(N3CC[NH2+]CC3)cc21 (3D coordinates assigned)
CC(C)(C)OC(=O)n1c(C([NH-])=O)cc2ccc(N3CC[NH2+]CC3)cc21 (nonaromatic ring conformer: 91.27201746432395 kcal/mol)

>  <smiles>  (52) 
CC(C)(C)OC(=O)n1c(C(N)=O)cc2ccc(N3CCNCC3)cc21

>  <score_type>  (52) 
oracle

>  <origin>  (52) 
adg

>  <m_score__min__energy>  (52) 
-7.7400000000000002

>  <m_primary>  (52) 
energy

$$$$
53:0
     RDKit          3D

 41 43  0  0  0  0  0  0  0  0999 V2000
  142.1100  158.2230  138.7710 C   0  0  0  0  0  0  0  0  0  0  0  0
  141.2720  158.2550  137.5280 C   0  0  0  0  0  0  0  0  0  0  0  0
  140.0850  157.4850  137.4510 C   0  0  0  0  0  0  0  0  0  0  0  0
  139.3080  157.4830  136.2790 C   0  0  0  0  0  0  0  0  0  0  0  0
  139.7530  158.2430  135.2010 C   0  0  0  0  0  0  0  0  0  0  0  0
  139.1930  158.4340  133.9570 C   0  0  0  0  0  0  0  0  0  0  0  0
  140.0650  159.2910  133.2860 C   0  0  0  0  0  0  0  0  0  0  0  0
  139.8700  159.7320  131.8880 C   0  0  0  0  0  0  0  0  0  0  0  0
  139.0610  160.8630  131.5800 N   0  0  0  0  0  0  0  0  0  0  0  0
  140.4490  159.1150  130.9540 O   0  0  0  0  0  0  0  0  0  0  0  0
  141.1220  159.6120  134.0840 N   0  0  0  0  0  0  0  0  0  0  0  0
  142.1940  160.5230  133.7970 C   0  0  0  0  0  0  0  0  0  0  0  0
  141.9370  161.7510  133.6710 O   0  0  0  0  0  0  0  0  0  0  0  0
  143.5890  160.0400  133.6570 C   0  0  0  0  0  0  0  0  0  0  0  0
  144.6700  160.9250  133.7870 C   0  0  0  0  0  0  0  0  0  0  0  0
  145.9790  160.4620  133.6550 C   0  0  0  0  0  0  0  0  0  0  0  0
  146.2160  159.1020  133.3850 C   0  0  0  0  0  0  0  0  0  0  0  0
  147.5570  158.5730  133.2420 N   0  0  0  0  0  0  0  0  0  0  0  0
  148.4070  159.0740  132.1570 C   0  0  0  0  0  0  0  0  0  0  0  0
  148.0750  157.5500  134.1590 C   0  0  0  0  0  0  0  0  0  0  0  0
  145.1480  158.2660  133.2550 N   0  0  0  0  0  0  0  0  0  0  0  0
  143.8640  158.6920  133.3790 C   0  0  0  0  0  0  0  0  0  0  0  0
  140.9130  158.9690  135.2530 C   0  0  0  0  0  0  0  0  0  0  0  0
  141.6990  159.0030  136.4090 C   0  0  0  0  0  0  0  0  0  0  0  0
  141.4558  158.2480  139.6550 H   0  0  0  0  0  0  0  0  0  0  0  0
  142.7102  157.3013  138.7849 H   0  0  0  0  0  0  0  0  0  0  0  0
  142.7787  159.0963  138.7849 H   0  0  0  0  0  0  0  0  0  0  0  0
  139.7685  156.8834  138.3158 H   0  0  0  0  0  0  0  0  0  0  0  0
  138.3778  156.8993  136.2160 H   0  0  0  0  0  0  0  0  0  0  0  0
  138.2566  158.0022  133.5741 H   0  0  0  0  0  0  0  0  0  0  0  0
  138.3720  161.2360  132.2700 H   0  0  0  0  0  0  0  0  0  0  0  0
  144.4842  161.9892  133.9941 H   0  0  0  0  0  0  0  0  0  0  0  0
  146.8237  161.1585  133.7617 H   0  0  0  0  0  0  0  0  0  0  0  0
  149.2805  159.5889  132.5835 H   0  0  0  0  0  0  0  0  0  0  0  0
  148.7451  158.2307  131.5369 H   0  0  0  0  0  0  0  0  0  0  0  0
  147.8330  159.7782  131.5369 H   0  0  0  0  0  0  0  0  0  0  0  0
  147.9118  157.8724  135.1979 H   0  0  0  0  0  0  0  0  0  0  0  0
  147.5494  156.5999  133.9830 H   0  0  0  0  0  0  0  0  0  0  0  0
  149.1519  157.4113  133.9830 H   0  0  0  0  0  0  0  0  0  0  0  0
  143.0362  157.9773  133.2610 H   0  0  0  0  0  0  0  0  0  0  0  0
  142.6246  159.5962  136.4457 H   0  0  0  0  0  0  0  0  0  0  0  0
  1  2  1  0
  2  3  2  0
  3  4  1  0
  4  5  2  0
  5  6  1  0
  6  7  2  0
  7  8  1  0
  8  9  1  0
  8 10  2  0
  7 11  1  0
 11 12  1  0
 12 13  2  0
 12 14  1  0
 14 15  2  0
 15 16  1  0
 16 17  2  0
 17 18  1  0
 18 19  1  0
 18 20  1  0
 17 21  1  0
 21 22  2  0
 11 23  1  0
 23 24  2  0
 24  2  1  0
 23  5  1  0
 22 14  1  0
  1 25  1  0
  1 26  1  0
  1 27  1  0
  3 28  1  0
  4 29  1  0
  6 30  1  0
  9 31  1  0
 15 32  1  0
 16 33  1  0
 19 34  1  0
 19 35  1  0
 19 36  1  0
 20 37  1  0
 20 38  1  0
 20 39  1  0
 22 40  1  0
 24 41  1  0
M  CHG  1   9  -1
M  END
>  <UniqueID>  (53) 
53

>  <SMILES>  (53) 
Cc1ccc2cc(C([NH-])=O)n(C(=O)c3ccc(N(C)C)nc3)c2c1

>  <Energy>  (53) 
83.15817054565706

>  <Genealogy>  (53) 
Cc1ccc2cc(C([NH-])=O)n(C(=O)c3ccc(N(C)C)nc3)c2c1 (protonated)
Cc1ccc2cc(C([NH-])=O)n(C(=O)c3ccc(N(C)C)nc3)c2c1 (3D coordinates assigned)
Cc1ccc2cc(C([NH-])=O)n(C(=O)c3ccc(N(C)C)nc3)c2c1 (optimized conformer: 83.15817054565706 kcal/mol)

>  <smiles>  (53) 
Cc1ccc2cc(C(N)=O)n(C(=O)c3ccc(N(C)C)nc3)c2c1

>  <score_type>  (53) 
oracle

>  <origin>  (53) 
adg

>  <m_score__min__energy>  (53) 
-7.9699999999999998

>  <m_primary>  (53) 
energy

$$$$
54:0
     RDKit          3D

 39 40  0  0  0  0  0  0  0  0999 V2000
  148.4670  153.4300  137.1910 C   0  0  0  0  0  0  0  0  0  0  0  0
  147.1490  153.2290  136.7310 O   0  0  0  0  0  0  0  0  0  0  0  0
  146.6790  154.3970  136.0860 C   0  0  0  0  0  0  0  0  0  0  0  0
  145.7330  154.0620  135.0720 O   0  0  0  0  0  0  0  0  0  0  0  0
  145.7980  154.5770  133.7730 C   0  0  0  0  0  0  0  0  0  0  0  0
  144.9380  154.2450  132.9130 O   0  0  0  0  0  0  0  0  0  0  0  0
  146.8270  155.5210  133.4280 N   0  0  0  0  0  0  0  0  0  0  0  0
  148.1460  155.2680  133.1940 C   0  0  0  0  0  0  0  0  0  0  0  0
  148.7660  153.9330  133.0850 C   0  0  0  0  0  0  0  0  0  0  0  0
  148.4350  152.9170  134.0280 N   0  0  0  0  0  0  0  0  0  0  0  0
  149.6200  153.6920  132.1930 O   0  0  0  0  0  0  0  0  0  0  0  0
  148.8410  156.4570  132.9820 C   0  0  0  0  0  0  0  0  0  0  0  0
  147.8990  157.4530  133.0880 C   0  0  0  0  0  0  0  0  0  0  0  0
  148.0410  158.8310  132.9790 C   0  0  0  0  0  0  0  0  0  0  0  0
  146.9010  159.6290  133.1650 C   0  0  0  0  0  0  0  0  0  0  0  0
  145.6370  159.0480  133.4630 C   0  0  0  0  0  0  0  0  0  0  0  0
  144.4660  159.8810  133.6690 N   0  0  0  0  0  0  0  0  0  0  0  0
  144.6170  161.2720  134.1130 C   0  0  0  0  0  0  0  0  0  0  0  0
  143.1110  159.3680  133.4180 C   0  0  0  0  0  0  0  0  0  0  0  0
  142.0990  160.1130  134.2350 C   0  0  0  0  0  0  0  0  0  0  0  0
  141.7830  159.7030  135.3820 O   0  0  0  0  0  0  0  0  0  0  0  0
  141.4770  161.2400  133.7130 O   0  0  0  0  0  0  0  0  0  0  0  0
  145.5430  157.6360  133.5670 C   0  0  0  0  0  0  0  0  0  0  0  0
  146.6930  156.8650  133.3590 C   0  0  0  0  0  0  0  0  0  0  0  0
  148.4753  153.4313  138.2910 H   0  0  0  0  0  0  0  0  0  0  0  0
  149.1122  152.6199  136.8204 H   0  0  0  0  0  0  0  0  0  0  0  0
  148.8414  154.3956  136.8204 H   0  0  0  0  0  0  0  0  0  0  0  0
  146.1979  155.0514  136.8278 H   0  0  0  0  0  0  0  0  0  0  0  0
  147.5313  154.9136  135.6205 H   0  0  0  0  0  0  0  0  0  0  0  0
  147.5580  152.9730  134.5920 H   0  0  0  0  0  0  0  0  0  0  0  0
  149.9148  156.5739  132.7741 H   0  0  0  0  0  0  0  0  0  0  0  0
  149.0180  159.2833  132.7536 H   0  0  0  0  0  0  0  0  0  0  0  0
  146.9866  160.7223  133.0788 H   0  0  0  0  0  0  0  0  0  0  0  0
  144.6209  161.3076  135.2124 H   0  0  0  0  0  0  0  0  0  0  0  0
  145.5645  161.6785  133.7297 H   0  0  0  0  0  0  0  0  0  0  0  0
  143.7787  161.8723  133.7297 H   0  0  0  0  0  0  0  0  0  0  0  0
  142.8720  159.4882  132.3510 H   0  0  0  0  0  0  0  0  0  0  0  0
  143.0787  158.3055  133.7008 H   0  0  0  0  0  0  0  0  0  0  0  0
  144.5831  157.1554  133.8069 H   0  0  0  0  0  0  0  0  0  0  0  0
  1  2  1  0
  2  3  1  0
  3  4  1  0
  4  5  1  0
  5  6  2  0
  5  7  1  0
  7  8  1  0
  8  9  1  0
  9 10  1  0
  9 11  2  0
  8 12  2  0
 12 13  1  0
 13 14  2  0
 14 15  1  0
 15 16  2  0
 16 17  1  0
 17 18  1  0
 17 19  1  0
 19 20  1  0
 20 21  2  0
 20 22  1  0
 16 23  1  0
 23 24  2  0
 24  7  1  0
 24 13  1  0
  1 25  1  0
  1 26  1  0
  1 27  1  0
  3 28  1  0
  3 29  1  0
 10 30  1  0
 12 31  1  0
 14 32  1  0
 15 33  1  0
 18 34  1  0
 18 35  1  0
 18 36  1  0
 19 37  1  0
 19 38  1  0
 23 39  1  0
M  CHG  2  10  -1  22  -1
M  END
>  <UniqueID>  (54) 
54

>  <SMILES>  (54) 
COCOC(=O)n1c(C([NH-])=O)cc2ccc(N(C)CC(=O)[O-])cc21

>  <Energy>  (54) 
79.54666386110776

>  <Genealogy>  (54) 
COCOC(=O)n1c(C([NH-])=O)cc2ccc(N(C)CC(=O)[O-])cc21 (protonated)
COCOC(=O)n1c(C([NH-])=O)cc2ccc(N(C)CC(=O)[O-])cc21 (3D coordinates assigned)
COCOC(=O)n1c(C([NH-])=O)cc2ccc(N(C)CC(=O)[O-])cc21 (optimized conformer: 79.54666386110776 kcal/mol)

>  <smiles>  (54) 
COCOC(=O)n1c(C(N)=O)cc2ccc(N(C)CC(=O)O)cc21

>  <score_type>  (54) 
oracle

>  <origin>  (54) 
adg

>  <m_score__min__energy>  (54) 
-6.0300000000000002

>  <m_primary>  (54) 
energy

$$$$
55:0
     RDKit          3D

 32 33  0  0  0  0  0  0  0  0999 V2000
  145.7910  152.0220  131.8840 N   0  0  0  0  0  0  0  0  0  0  0  0
  145.0520  152.9680  132.6680 C   0  0  0  0  0  0  0  0  0  0  0  0
  143.9270  152.6400  133.1310 O   0  0  0  0  0  0  0  0  0  0  0  0
  145.5880  154.3240  132.9170 C   0  0  0  0  0  0  0  0  0  0  0  0
  144.8120  155.4810  132.8670 C   0  0  0  0  0  0  0  0  0  0  0  0
  145.6570  156.5010  133.2410 C   0  0  0  0  0  0  0  0  0  0  0  0
  145.4140  157.8680  133.3550 C   0  0  0  0  0  0  0  0  0  0  0  0
  146.4870  158.6980  133.7230 C   0  0  0  0  0  0  0  0  0  0  0  0
  147.7730  158.1520  133.9570 C   0  0  0  0  0  0  0  0  0  0  0  0
  148.8650  159.0120  134.2970 N   0  0  0  0  0  0  0  0  0  0  0  0
  147.9820  156.7610  133.8380 C   0  0  0  0  0  0  0  0  0  0  0  0
  146.8900  155.9540  133.4940 C   0  0  0  0  0  0  0  0  0  0  0  0
  146.8610  154.6150  133.3020 N   0  0  0  0  0  0  0  0  0  0  0  0
  147.9710  153.7070  133.4060 C   0  0  0  0  0  0  0  0  0  0  0  0
  148.4060  153.3720  134.5430 O   0  0  0  0  0  0  0  0  0  0  0  0
  148.5750  153.2160  132.2410 O   0  0  0  0  0  0  0  0  0  0  0  0
  149.6620  152.2900  132.2400 C   0  0  0  0  0  0  0  0  0  0  0  0
  149.1520  150.8490  132.1950 C   0  0  0  0  0  0  0  0  0  0  0  0
  147.8630  150.7540  132.7430 O   0  0  0  0  0  0  0  0  0  0  0  0
  146.7660  152.2270  131.5680 H   0  0  0  0  0  0  0  0  0  0  0  0
  145.4010  151.0690  131.7100 H   0  0  0  0  0  0  0  0  0  0  0  0
  143.7510  155.5615  132.5882 H   0  0  0  0  0  0  0  0  0  0  0  0
  144.4142  158.2846  133.1631 H   0  0  0  0  0  0  0  0  0  0  0  0
  146.3267  159.7810  133.8302 H   0  0  0  0  0  0  0  0  0  0  0  0
  148.7380  160.0490  134.3490 H   0  0  0  0  0  0  0  0  0  0  0  0
  149.8030  158.6130  134.5310 H   0  0  0  0  0  0  0  0  0  0  0  0
  148.9759  156.3225  134.0108 H   0  0  0  0  0  0  0  0  0  0  0  0
  150.2929  152.4763  131.3584 H   0  0  0  0  0  0  0  0  0  0  0  0
  150.2422  152.4285  133.1642 H   0  0  0  0  0  0  0  0  0  0  0  0
  149.1240  150.5099  131.1490 H   0  0  0  0  0  0  0  0  0  0  0  0
  149.8316  150.2182  132.7867 H   0  0  0  0  0  0  0  0  0  0  0  0
  147.7650  151.5190  133.3720 H   0  0  0  0  0  0  0  0  0  0  0  0
  1  2  1  0
  2  3  2  0
  2  4  1  0
  4  5  2  0
  5  6  1  0
  6  7  2  0
  7  8  1  0
  8  9  2  0
  9 10  1  0
  9 11  1  0
 11 12  2  0
 12 13  1  0
 13 14  1  0
 14 15  2  0
 14 16  1  0
 16 17  1  0
 17 18  1  0
 18 19  1  0
 13  4  1  0
 12  6  1  0
  1 20  1  0
  1 21  1  0
  5 22  1  0
  7 23  1  0
  8 24  1  0
 10 25  1  0
 10 26  1  0
 11 27  1  0
 17 28  1  0
 17 29  1  0
 18 30  1  0
 18 31  1  0
 19 32  1  0
M  END
>  <UniqueID>  (55) 
55

>  <SMILES>  (55) 
NC(=O)c1cc2ccc(N)cc2n1C(=O)OCCO

>  <Energy>  (55) 
67.30210288048285

>  <Genealogy>  (55) 
NC(=O)c1cc2ccc(N)cc2n1C(=O)OCCO (3D coordinates assigned)
NC(=O)c1cc2ccc(N)cc2n1C(=O)OCCO (optimized conformer: 67.30210288048285 kcal/mol)

>  <smiles>  (55) 
NC(=O)c1cc2ccc(N)cc2n1C(=O)OCCO

>  <score_type>  (55) 
oracle

>  <origin>  (55) 
adg

>  <m_score__min__energy>  (55) 
-5.5599999999999996

>  <m_primary>  (55) 
energy

$$$$
56:0
     RDKit          3D

 52 53  0  0  0  0  0  0  0  0999 V2000
  140.8260  148.8570  131.4810 C   0  0  0  0  0  0  0  0  0  0  0  0
  140.3960  149.8080  132.5940 C   0  0  0  0  0  0  0  0  0  0  0  0
  141.5170  150.5170  133.1160 O   0  0  0  0  0  0  0  0  0  0  0  0
  141.4040  151.7010  133.8520 C   0  0  0  0  0  0  0  0  0  0  0  0
  141.3580  151.6770  135.1120 O   0  0  0  0  0  0  0  0  0  0  0  0
  141.3580  153.0120  133.1360 C   0  0  0  0  0  0  0  0  0  0  0  0
  141.7580  154.0610  134.0120 O   0  0  0  0  0  0  0  0  0  0  0  0
  143.0940  154.4350  134.1960 C   0  0  0  0  0  0  0  0  0  0  0  0
  143.7110  154.1290  135.2530 O   0  0  0  0  0  0  0  0  0  0  0  0
  143.7730  155.2580  133.1500 C   0  0  0  0  0  0  0  0  0  0  0  0
  143.5040  156.7170  133.3960 C   0  0  0  0  0  0  0  0  0  0  0  0
  142.1930  157.1500  133.7180 C   0  0  0  0  0  0  0  0  0  0  0  0
  141.9310  158.5050  133.9820 C   0  0  0  0  0  0  0  0  0  0  0  0
  142.9970  159.3990  133.9220 C   0  0  0  0  0  0  0  0  0  0  0  0
  143.0210  160.7610  134.1100 C   0  0  0  0  0  0  0  0  0  0  0  0
  144.3490  161.1370  133.9190 C   0  0  0  0  0  0  0  0  0  0  0  0
  144.8430  162.5150  134.1100 C   0  0  0  0  0  0  0  0  0  0  0  0
  145.9200  162.7640  135.0100 N   0  0  0  0  0  0  0  0  0  0  0  0
  144.3480  163.4720  133.4580 O   0  0  0  0  0  0  0  0  0  0  0  0
  145.1140  160.0500  133.6200 N   0  0  0  0  0  0  0  0  0  0  0  0
  146.5030  160.0310  133.2610 C   0  0  0  0  0  0  0  0  0  0  0  0
  147.2780  160.9140  133.7180 O   0  0  0  0  0  0  0  0  0  0  0  0
  146.9840  159.0120  132.4240 O   0  0  0  0  0  0  0  0  0  0  0  0
  148.0840  158.1340  132.6990 C   0  0  0  0  0  0  0  0  0  0  0  0
  147.6820  156.6660  132.4620 C   0  0  0  0  0  0  0  0  0  0  0  0
  149.3060  158.5090  131.8390 C   0  0  0  0  0  0  0  0  0  0  0  0
  148.4470  158.3150  134.1810 C   0  0  0  0  0  0  0  0  0  0  0  0
  144.2730  158.9940  133.6280 C   0  0  0  0  0  0  0  0  0  0  0  0
  144.5610  157.6530  133.3480 C   0  0  0  0  0  0  0  0  0  0  0  0
  141.2410  147.9391  131.9229 H   0  0  0  0  0  0  0  0  0  0  0  0
  139.9551  148.6031  130.8588 H   0  0  0  0  0  0  0  0  0  0  0  0
  141.5919  149.3432  130.8588 H   0  0  0  0  0  0  0  0  0  0  0  0
  139.6691  150.5288  132.1915 H   0  0  0  0  0  0  0  0  0  0  0  0
  139.9428  149.2191  133.4051 H   0  0  0  0  0  0  0  0  0  0  0  0
  142.0387  152.9793  132.2725 H   0  0  0  0  0  0  0  0  0  0  0  0
  140.3296  153.2002  132.7941 H   0  0  0  0  0  0  0  0  0  0  0  0
  144.8570  155.0750  133.1880 H   0  0  0  0  0  0  0  0  0  0  0  0
  143.3846  154.9790  132.1594 H   0  0  0  0  0  0  0  0  0  0  0  0
  141.3730  156.4181  133.7616 H   0  0  0  0  0  0  0  0  0  0  0  0
  140.9156  158.8488  134.2284 H   0  0  0  0  0  0  0  0  0  0  0  0
  142.1720  161.4149  134.3584 H   0  0  0  0  0  0  0  0  0  0  0  0
  146.9090  162.7720  134.6750 H   0  0  0  0  0  0  0  0  0  0  0  0
  147.5442  156.1627  133.4303 H   0  0  0  0  0  0  0  0  0  0  0  0
  146.7411  156.6307  131.8932 H   0  0  0  0  0  0  0  0  0  0  0  0
  148.4736  156.1563  131.8932 H   0  0  0  0  0  0  0  0  0  0  0  0
  150.1503  158.7681  132.4948 H   0  0  0  0  0  0  0  0  0  0  0  0
  149.5836  157.6547  131.2041 H   0  0  0  0  0  0  0  0  0  0  0  0
  149.0566  159.3720  131.2041 H   0  0  0  0  0  0  0  0  0  0  0  0
  147.6384  157.9118  134.8084 H   0  0  0  0  0  0  0  0  0  0  0  0
  149.3820  157.7776  134.3978 H   0  0  0  0  0  0  0  0  0  0  0  0
  148.5805  159.3851  134.3978 H   0  0  0  0  0  0  0  0  0  0  0  0
  145.5841  157.3362  133.0971 H   0  0  0  0  0  0  0  0  0  0  0  0
  1  2  1  0
  2  3  1  0
  3  4  1  0
  4  5  2  0
  4  6  1  0
  6  7  1  0
  7  8  1  0
  8  9  2  0
  8 10  1  0
 10 11  1  0
 11 12  2  0
 12 13  1  0
 13 14  2  0
 14 15  1  0
 15 16  2  0
 16 17  1  0
 17 18  1  0
 17 19  2  0
 16 20  1  0
 20 21  1  0
 21 22  2  0
 21 23  1  0
 23 24  1  0
 24 25  1  0
 24 26  1  0
 24 27  1  0
 20 28  1  0
 28 29  2  0
 29 11  1  0
 28 14  1  0
  1 30  1  0
  1 31  1  0
  1 32  1  0
  2 33  1  0
  2 34  1  0
  6 35  1  0
  6 36  1  0
 10 37  1  0
 10 38  1  0
 12 39  1  0
 13 40  1  0
 15 41  1  0
 18 42  1  0
 25 43  1  0
 25 44  1  0
 25 45  1  0
 26 46  1  0
 26 47  1  0
 26 48  1  0
 27 49  1  0
 27 50  1  0
 27 51  1  0
 29 52  1  0
M  CHG  1  18  -1
M  END
>  <UniqueID>  (56) 
56

>  <SMILES>  (56) 
CCOC(=O)COC(=O)Cc1ccc2cc(C([NH-])=O)n(C(=O)OC(C)(C)C)c2c1

>  <Energy>  (56) 
76.75552191228073

>  <Genealogy>  (56) 
CCOC(=O)COC(=O)Cc1ccc2cc(C([NH-])=O)n(C(=O)OC(C)(C)C)c2c1 (protonated)
CCOC(=O)COC(=O)Cc1ccc2cc(C([NH-])=O)n(C(=O)OC(C)(C)C)c2c1 (3D coordinates assigned)
CCOC(=O)COC(=O)Cc1ccc2cc(C([NH-])=O)n(C(=O)OC(C)(C)C)c2c1 (optimized conformer: 76.75552191228073 kcal/mol)

>  <smiles>  (56) 
CCOC(=O)COC(=O)Cc1ccc2cc(C(N)=O)n(C(=O)OC(C)(C)C)c2c1

>  <score_type>  (56) 
oracle

>  <origin>  (56) 
adg

>  <m_score__min__energy>  (56) 
-7.5099999999999998

>  <m_primary>  (56) 
energy

$$$$
57:0
     RDKit          3D

 44 45  0  0  0  0  0  0  0  0999 V2000
  147.7708  153.3575  133.8465 H   0  0  0  0  0  0  0  0  0  0  0  0
  148.5200  153.7010  133.1180 C   0  0  0  0  0  0  0  0  0  0  0  0
  149.4870  152.8640  132.7190 C   0  0  0  0  0  0  0  0  0  0  0  0
  150.2377  153.2133  131.9948 H   0  0  0  0  0  0  0  0  0  0  0  0
  149.5660  151.4560  133.2420 C   0  0  0  0  0  0  0  0  0  0  0  0
  150.6027  151.2393  133.5391 H   0  0  0  0  0  0  0  0  0  0  0  0
  148.8925  151.3627  134.1067 H   0  0  0  0  0  0  0  0  0  0  0  0
  149.1460  150.4880  132.2080 N   0  0  0  0  0  0  0  0  0  0  0  0
  147.7220  150.6640  131.8720 C   0  0  0  0  0  0  0  0  0  0  0  0
  147.1330  150.7368  132.7982 H   0  0  0  0  0  0  0  0  0  0  0  0
  147.5952  151.5847  131.2835 H   0  0  0  0  0  0  0  0  0  0  0  0
  147.3749  149.8019  131.2835 H   0  0  0  0  0  0  0  0  0  0  0  0
  149.9620  150.6580  130.9970 C   0  0  0  0  0  0  0  0  0  0  0  0
  151.0019  150.8746  131.2830 H   0  0  0  0  0  0  0  0  0  0  0  0
  149.9305  149.7340  130.4010 H   0  0  0  0  0  0  0  0  0  0  0  0
  149.5642  151.4926  130.4010 H   0  0  0  0  0  0  0  0  0  0  0  0
  148.4460  155.1030  132.5830 C   0  0  0  0  0  0  0  0  0  0  0  0
  148.3884  155.0685  131.4850 H   0  0  0  0  0  0  0  0  0  0  0  0
  149.3454  155.6515  132.8996 H   0  0  0  0  0  0  0  0  0  0  0  0
  147.2950  155.7740  133.0920 O   0  0  0  0  0  0  0  0  0  0  0  0
  147.3650  156.9140  133.9010 C   0  0  0  0  0  0  0  0  0  0  0  0
  148.1580  156.9490  134.8820 O   0  0  0  0  0  0  0  0  0  0  0  0
  146.5200  158.0410  133.6200 N   0  0  0  0  0  0  0  0  0  0  0  0
  146.8820  159.2250  133.0460 C   0  0  0  0  0  0  0  0  0  0  0  0
  148.2690  159.6440  132.7450 C   0  0  0  0  0  0  0  0  0  0  0  0
  148.4830  160.5800  131.9310 O   0  0  0  0  0  0  0  0  0  0  0  0
  149.3790  158.9730  133.3420 N   0  0  0  0  0  0  0  0  0  0  0  0
  149.2400  158.2290  134.0600 H   0  0  0  0  0  0  0  0  0  0  0  0
  150.3540  159.2520  133.0940 H   0  0  0  0  0  0  0  0  0  0  0  0
  145.7670  160.0410  132.8660 C   0  0  0  0  0  0  0  0  0  0  0  0
  145.7431  161.0500  132.4285 H   0  0  0  0  0  0  0  0  0  0  0  0
  144.7030  159.3180  133.3510 C   0  0  0  0  0  0  0  0  0  0  0  0
  143.3520  159.6490  133.4180 C   0  0  0  0  0  0  0  0  0  0  0  0
  142.9898  160.6255  133.0640 H   0  0  0  0  0  0  0  0  0  0  0  0
  142.4660  158.6990  133.9510 C   0  0  0  0  0  0  0  0  0  0  0  0
  141.3950  158.9369  134.0307 H   0  0  0  0  0  0  0  0  0  0  0  0
  142.9390  157.4370  134.3870 C   0  0  0  0  0  0  0  0  0  0  0  0
  141.9860  156.4410  134.9780 C   0  0  0  0  0  0  0  0  0  0  0  0
  142.0355  156.4928  136.0757 H   0  0  0  0  0  0  0  0  0  0  0  0
  140.9628  156.6708  134.6459 H   0  0  0  0  0  0  0  0  0  0  0  0
  142.2607  155.4289  134.6459 H   0  0  0  0  0  0  0  0  0  0  0  0
  144.3190  157.1410  134.3190 C   0  0  0  0  0  0  0  0  0  0  0  0
  144.7055  156.1710  134.6649 H   0  0  0  0  0  0  0  0  0  0  0  0
  145.1820  158.1140  133.8000 C   0  0  0  0  0  0  0  0  0  0  0  0
  1  2  1  0
  2  3  2  0
  3  4  1  0
  3  5  1  0
  5  6  1  0
  5  7  1  0
  5  8  1  0
  8  9  1  0
  9 10  1  0
  9 11  1  0
  9 12  1  0
  8 13  1  0
 13 14  1  0
 13 15  1  0
 13 16  1  0
  2 17  1  0
 17 18  1  0
 17 19  1  0
 17 20  1  0
 20 21  1  0
 21 22  2  0
 21 23  1  0
 23 24  1  0
 24 25  1  0
 25 26  2  0
 25 27  1  0
 27 28  1  0
 27 29  1  0
 24 30  2  0
 30 31  1  0
 30 32  1  0
 32 33  2  0
 33 34  1  0
 33 35  1  0
 35 36  1  0
 35 37  2  0
 37 38  1  0
 38 39  1  0
 38 40  1  0
 38 41  1  0
 37 42  1  0
 42 43  1  0
 42 44  2  0
 44 23  1  0
 44 32  1  0
M  END
>  <UniqueID>  (57) 
57

>  <SMILES>  (57) 
Cc1ccc2cc(C(N)=O)n(C(=O)OC/C=C/CN(C)C)c2c1

>  <Energy>  (57) 
75.36954954974883

>  <Genealogy>  (57) 
Cc1ccc2cc(C(N)=O)n(C(=O)OC/C=C/CN(C)C)c2c1 (cis-trans isomerization)
Cc1ccc2cc(C(N)=O)n(C(=O)OC/C=C/CN(C)C)c2c1 (3D coordinates assigned)
Cc1ccc2cc(C(N)=O)n(C(=O)OC/C=C/CN(C)C)c2c1 (optimized conformer: 75.36954954974883 kcal/mol)

>  <smiles>  (57) 
Cc1ccc2cc(C(N)=O)n(C(=O)OC/C=C/CN(C)C)c2c1

>  <score_type>  (57) 
oracle

>  <origin>  (57) 
adg

>  <m_score__min__energy>  (57) 
-7.54

>  <m_primary>  (57) 
energy

$$$$
58:0
     RDKit          3D

 30 31  0  0  0  0  0  0  0  0999 V2000
  146.9700  162.7360  134.6620 H   0  0  0  0  0  0  0  0  0  0  0  0
  145.9670  162.7840  134.9530 N   0  0  0  0  0  0  0  0  0  0  0  0
  144.9310  162.3300  134.0860 C   0  0  0  0  0  0  0  0  0  0  0  0
  144.2570  163.1730  133.4370 O   0  0  0  0  0  0  0  0  0  0  0  0
  144.6380  160.8840  133.9840 C   0  0  0  0  0  0  0  0  0  0  0  0
  143.3800  160.3360  134.2200 C   0  0  0  0  0  0  0  0  0  0  0  0
  142.4716  160.8662  134.5421 H   0  0  0  0  0  0  0  0  0  0  0  0
  143.5140  158.9910  133.9650 C   0  0  0  0  0  0  0  0  0  0  0  0
  142.5800  157.9640  134.0680 C   0  0  0  0  0  0  0  0  0  0  0  0
  141.5409  158.1704  134.3643 H   0  0  0  0  0  0  0  0  0  0  0  0
  143.0050  156.6560  133.7820 C   0  0  0  0  0  0  0  0  0  0  0  0
  142.2899  155.8231  133.8515 H   0  0  0  0  0  0  0  0  0  0  0  0
  144.3460  156.4000  133.4050 C   0  0  0  0  0  0  0  0  0  0  0  0
  144.8020  154.9920  133.1520 C   0  0  0  0  0  0  0  0  0  0  0  0
  145.8894  154.9268  133.3049 H   0  0  0  0  0  0  0  0  0  0  0  0
  144.2895  154.3125  133.8488 H   0  0  0  0  0  0  0  0  0  0  0  0
  144.4110  154.5260  131.4800 Cl  0  0  0  0  0  0  0  0  0  0  0  0
  145.2700  157.4650  133.3290 C   0  0  0  0  0  0  0  0  0  0  0  0
  146.3227  157.2805  133.0688 H   0  0  0  0  0  0  0  0  0  0  0  0
  144.8130  158.7610  133.5930 C   0  0  0  0  0  0  0  0  0  0  0  0
  145.5160  159.9180  133.5890 N   0  0  0  0  0  0  0  0  0  0  0  0
  146.9240  160.0700  133.3280 C   0  0  0  0  0  0  0  0  0  0  0  0
  147.4050  161.2260  133.1980 O   0  0  0  0  0  0  0  0  0  0  0  0
  147.8510  158.9190  133.3130 C   0  0  0  0  0  0  0  0  0  0  0  0
  147.8275  158.2469  134.1835 H   0  0  0  0  0  0  0  0  0  0  0  0
  148.7190  158.6190  132.3340 C   0  0  0  0  0  0  0  0  0  0  0  0
  149.2164  157.6394  132.3883 H   0  0  0  0  0  0  0  0  0  0  0  0
  149.0650  159.4850  131.1930 C   0  0  0  0  0  0  0  0  0  0  0  0
  148.1760  160.0610  130.5150 O   0  0  0  0  0  0  0  0  0  0  0  0
  150.4020  159.7410  130.9170 O   0  0  0  0  0  0  0  0  0  0  0  0
  1  2  1  0
  2  3  1  0
  3  4  2  0
  3  5  1  0
  5  6  2  0
  6  7  1  0
  6  8  1  0
  8  9  2  0
  9 10  1  0
  9 11  1  0
 11 12  1  0
 11 13  2  0
 13 14  1  0
 14 15  1  0
 14 16  1  0
 14 17  1  0
 13 18  1  0
 18 19  1  0
 18 20  2  0
 20 21  1  0
 21 22  1  0
 22 23  2  0
 22 24  1  0
 24 25  1  0
 24 26  2  0
 26 27  1  0
 26 28  1  0
 28 29  2  0
 28 30  1  0
 21  5  1  0
 20  8  1  0
M  CHG  2   2  -1  30  -1
M  END
>  <UniqueID>  (58) 
58

>  <SMILES>  (58) 
[NH-]C(=O)c1cc2ccc(CCl)cc2n1C(=O)/C=C\C(=O)[O-]

>  <Energy>  (58) 
73.82883891550837

>  <Genealogy>  (58) 
[NH-]C(=O)c1cc2ccc(CCl)cc2n1C(=O)/C=C\C(=O)[O-] (protonated)
[NH-]C(=O)c1cc2ccc(CCl)cc2n1C(=O)/C=C\C(=O)[O-] (cis-trans isomerization)
[NH-]C(=O)c1cc2ccc(CCl)cc2n1C(=O)/C=C\C(=O)[O-] (3D coordinates assigned)
[NH-]C(=O)c1cc2ccc(CCl)cc2n1C(=O)/C=C\C(=O)[O-] (optimized conformer: 73.82883891550837 kcal/mol)

>  <smiles>  (58) 
NC(=O)c1cc2ccc(CCl)cc2n1C(=O)/C=C\C(=O)O

>  <score_type>  (58) 
oracle

>  <origin>  (58) 
adg

>  <m_score__min__energy>  (58) 
-7.0800000000000001

>  <m_primary>  (58) 
energy

$$$$
59:0
     RDKit          3D

 41 42  0  0  0  0  0  0  0  0999 V2000
  141.2660  156.5330  136.5420 C   0  0  0  0  0  0  0  0  0  0  0  0
  140.6690  157.7010  137.0610 O   0  0  0  0  0  0  0  0  0  0  0  0
  139.4790  158.0070  136.3560 C   0  0  0  0  0  0  0  0  0  0  0  0
  139.5780  157.4950  134.9180 C   0  0  0  0  0  0  0  0  0  0  0  0
  139.9380  158.5400  134.0330 O   0  0  0  0  0  0  0  0  0  0  0  0
  140.2690  158.0410  132.7500 C   0  0  0  0  0  0  0  0  0  0  0  0
  141.7870  157.8920  132.6180 C   0  0  0  0  0  0  0  0  0  0  0  0
  142.3450  157.3760  133.8240 O   0  0  0  0  0  0  0  0  0  0  0  0
  143.7120  157.4280  134.1260 C   0  0  0  0  0  0  0  0  0  0  0  0
  144.3090  156.4050  134.5570 O   0  0  0  0  0  0  0  0  0  0  0  0
  144.4380  158.6500  133.9250 N   0  0  0  0  0  0  0  0  0  0  0  0
  143.9520  159.9230  133.9540 C   0  0  0  0  0  0  0  0  0  0  0  0
  142.5940  160.3230  134.3790 C   0  0  0  0  0  0  0  0  0  0  0  0
  141.9520  159.6860  135.4800 N   0  0  0  0  0  0  0  0  0  0  0  0
  142.0110  161.2740  133.7920 O   0  0  0  0  0  0  0  0  0  0  0  0
  144.9450  160.8350  133.6030 C   0  0  0  0  0  0  0  0  0  0  0  0
  146.0670  160.0770  133.3610 C   0  0  0  0  0  0  0  0  0  0  0  0
  147.3430  160.4660  132.9630 C   0  0  0  0  0  0  0  0  0  0  0  0
  148.3030  159.4620  132.7550 C   0  0  0  0  0  0  0  0  0  0  0  0
  147.9710  158.0980  132.9410 C   0  0  0  0  0  0  0  0  0  0  0  0
  148.9540  157.0860  132.7140 N   0  0  0  0  0  0  0  0  0  0  0  0
  146.6670  157.7390  133.3450 C   0  0  0  0  0  0  0  0  0  0  0  0
  145.7350  158.7610  133.5620 C   0  0  0  0  0  0  0  0  0  0  0  0
  141.5948  155.8897  137.3715 H   0  0  0  0  0  0  0  0  0  0  0  0
  140.5346  155.9905  135.9249 H   0  0  0  0  0  0  0  0  0  0  0  0
  142.1341  156.8081  135.9249 H   0  0  0  0  0  0  0  0  0  0  0  0
  138.6252  157.5264  136.8561 H   0  0  0  0  0  0  0  0  0  0  0  0
  139.3370  159.0977  136.3425 H   0  0  0  0  0  0  0  0  0  0  0  0
  140.3401  156.7033  134.8693 H   0  0  0  0  0  0  0  0  0  0  0  0
  138.5958  157.1020  134.6166 H   0  0  0  0  0  0  0  0  0  0  0  0
  139.7935  157.0593  132.6078 H   0  0  0  0  0  0  0  0  0  0  0  0
  139.9090  158.7459  131.9861 H   0  0  0  0  0  0  0  0  0  0  0  0
  142.0125  157.2027  131.7909 H   0  0  0  0  0  0  0  0  0  0  0  0
  142.2254  158.8808  132.4179 H   0  0  0  0  0  0  0  0  0  0  0  0
  141.6120  158.7010  135.4070 H   0  0  0  0  0  0  0  0  0  0  0  0
  144.8516  161.9289  133.5340 H   0  0  0  0  0  0  0  0  0  0  0  0
  147.5919  161.5273  132.8159 H   0  0  0  0  0  0  0  0  0  0  0  0
  149.3217  159.7377  132.4449 H   0  0  0  0  0  0  0  0  0  0  0  0
  149.0260  156.6070  131.7890 H   0  0  0  0  0  0  0  0  0  0  0  0
  149.6180  156.8070  133.4720 H   0  0  0  0  0  0  0  0  0  0  0  0
  146.3903  156.6837  133.4857 H   0  0  0  0  0  0  0  0  0  0  0  0
  1  2  1  0
  2  3  1  0
  3  4  1  0
  4  5  1  0
  5  6  1  0
  6  7  1  0
  7  8  1  0
  8  9  1  0
  9 10  2  0
  9 11  1  0
 11 12  1  0
 12 13  1  0
 13 14  1  0
 13 15  2  0
 12 16  2  0
 16 17  1  0
 17 18  2  0
 18 19  1  0
 19 20  2  0
 20 21  1  0
 20 22  1  0
 22 23  2  0
 23 11  1  0
 23 17  1  0
  1 24  1  0
  1 25  1  0
  1 26  1  0
  3 27  1  0
  3 28  1  0
  4 29  1  0
  4 30  1  0
  6 31  1  0
  6 32  1  0
  7 33  1  0
  7 34  1  0
 14 35  1  0
 16 36  1  0
 18 37  1  0
 19 38  1  0
 21 39  1  0
 21 40  1  0
 22 41  1  0
M  CHG  1  14  -1
M  END
>  <UniqueID>  (59) 
59

>  <SMILES>  (59) 
COCCOCCOC(=O)n1c(C([NH-])=O)cc2ccc(N)cc21

>  <Energy>  (59) 
79.72748377602373

>  <Genealogy>  (59) 
COCCOCCOC(=O)n1c(C([NH-])=O)cc2ccc(N)cc21 (protonated)
COCCOCCOC(=O)n1c(C([NH-])=O)cc2ccc(N)cc21 (3D coordinates assigned)
COCCOCCOC(=O)n1c(C([NH-])=O)cc2ccc(N)cc21 (optimized conformer: 79.72748377602373 kcal/mol)

>  <smiles>  (59) 
COCCOCCOC(=O)n1c(C(N)=O)cc2ccc(N)cc21

>  <score_type>  (59) 
oracle

>  <origin>  (59) 
adg

>  <m_score__min__energy>  (59) 
-5.8200000000000003

>  <m_primary>  (59) 
energy

$$$$
61:0
     RDKit          3D

 47 48  0  0  0  0  0  0  0  0999 V2000
  139.1380  155.1470  132.9760 C   0  0  0  0  0  0  0  0  0  0  0  0
  139.6450  156.5920  132.9810 C   0  0  1  0  0  0  0  0  0  0  0  0
  138.6410  157.5580  133.6430 C   0  0  0  0  0  0  0  0  0  0  0  0
  139.1660  158.1990  134.9350 C   0  0  0  0  0  0  0  0  0  0  0  0
  139.6480  157.2090  135.8050 O   0  0  0  0  0  0  0  0  0  0  0  0
  140.9130  156.6350  133.6350 O   0  0  0  0  0  0  0  0  0  0  0  0
  141.5390  155.5120  134.1820 C   0  0  0  0  0  0  0  0  0  0  0  0
  141.3200  155.1630  135.3720 O   0  0  0  0  0  0  0  0  0  0  0  0
  142.5380  154.7630  133.3600 C   0  0  0  0  0  0  0  0  0  0  0  0
  143.8000  155.5110  133.3220 N   0  0  0  0  0  0  0  0  0  0  0  0
  144.7980  155.2190  132.2880 C   0  0  0  0  0  0  0  0  0  0  0  0
  144.0830  156.5050  134.3270 C   0  0  0  0  0  0  0  0  0  0  0  0
  143.9710  156.2180  135.5500 O   0  0  0  0  0  0  0  0  0  0  0  0
  144.5100  157.8220  133.9560 N   0  0  0  0  0  0  0  0  0  0  0  0
  143.8290  158.9910  134.0990 C   0  0  0  0  0  0  0  0  0  0  0  0
  142.4310  159.1180  134.5570 C   0  0  0  0  0  0  0  0  0  0  0  0
  141.9540  158.2950  135.6200 N   0  0  0  0  0  0  0  0  0  0  0  0
  141.6560  159.9620  134.0300 O   0  0  0  0  0  0  0  0  0  0  0  0
  144.6240  160.0680  133.7080 C   0  0  0  0  0  0  0  0  0  0  0  0
  145.8260  159.5150  133.3270 C   0  0  0  0  0  0  0  0  0  0  0  0
  146.9930  160.1220  132.8670 C   0  0  0  0  0  0  0  0  0  0  0  0
  148.0930  159.2960  132.5710 C   0  0  0  0  0  0  0  0  0  0  0  0
  148.0050  157.8920  132.7440 C   0  0  0  0  0  0  0  0  0  0  0  0
  149.1290  157.0610  132.4460 N   0  0  0  0  0  0  0  0  0  0  0  0
  146.8100  157.3120  133.2150 C   0  0  0  0  0  0  0  0  0  0  0  0
  145.7300  158.1570  133.4900 C   0  0  0  0  0  0  0  0  0  0  0  0
  139.0155  154.7978  134.0119 H   0  0  0  0  0  0  0  0  0  0  0  0
  138.1697  155.1000  132.4563 H   0  0  0  0  0  0  0  0  0  0  0  0
  139.8647  154.5053  132.4563 H   0  0  0  0  0  0  0  0  0  0  0  0
  139.7552  156.9302  131.9401 H   0  0  0  0  0  0  0  0  0  0  0  0
  138.4062  158.3598  132.9274 H   0  0  0  0  0  0  0  0  0  0  0  0
  137.7542  156.9661  133.9137 H   0  0  0  0  0  0  0  0  0  0  0  0
  139.9811  158.8958  134.6899 H   0  0  0  0  0  0  0  0  0  0  0  0
  138.3446  158.7407  135.4269 H   0  0  0  0  0  0  0  0  0  0  0  0
  140.6340  157.1930  135.6970 H   0  0  0  0  0  0  0  0  0  0  0  0
  142.7119  153.7730  133.8068 H   0  0  0  0  0  0  0  0  0  0  0  0
  142.1532  154.6412  132.3367 H   0  0  0  0  0  0  0  0  0  0  0  0
  145.7494  154.9406  132.7648 H   0  0  0  0  0  0  0  0  0  0  0  0
  144.4444  154.3867  131.6618 H   0  0  0  0  0  0  0  0  0  0  0  0
  144.9488  156.1107  131.6618 H   0  0  0  0  0  0  0  0  0  0  0  0
  141.8690  157.2630  135.5030 H   0  0  0  0  0  0  0  0  0  0  0  0
  144.3491  161.1331  133.7047 H   0  0  0  0  0  0  0  0  0  0  0  0
  147.0524  161.2129  132.7393 H   0  0  0  0  0  0  0  0  0  0  0  0
  149.0281  159.7432  132.2026 H   0  0  0  0  0  0  0  0  0  0  0  0
  149.9680  157.0540  133.0690 H   0  0  0  0  0  0  0  0  0  0  0  0
  149.1320  156.4500  131.5970 H   0  0  0  0  0  0  0  0  0  0  0  0
  146.7290  156.2249  133.3622 H   0  0  0  0  0  0  0  0  0  0  0  0
  1  2  1  0
  2  3  1  0
  3  4  1  0
  4  5  1  0
  2  6  1  0
  6  7  1  0
  7  8  2  0
  7  9  1  0
  9 10  1  0
 10 11  1  0
 10 12  1  0
 12 13  2  0
 12 14  1  0
 14 15  1  0
 15 16  1  0
 16 17  1  0
 16 18  2  0
 15 19  2  0
 19 20  1  0
 20 21  2  0
 21 22  1  0
 22 23  2  0
 23 24  1  0
 23 25  1  0
 25 26  2  0
 26 14  1  0
 26 20  1  0
  1 27  1  0
  1 28  1  0
  1 29  1  0
  2 30  1  6
  3 31  1  0
  3 32  1  0
  4 33  1  0
  4 34  1  0
  5 35  1  0
  9 36  1  0
  9 37  1  0
 11 38  1  0
 11 39  1  0
 11 40  1  0
 17 41  1  0
 19 42  1  0
 21 43  1  0
 22 44  1  0
 24 45  1  0
 24 46  1  0
 25 47  1  0
M  CHG  1  17  -1
M  END
>  <UniqueID>  (60) 
60

>  <SMILES>  (60) 
C[C@@H](CCO)OC(=O)CN(C)C(=O)n1c(C([NH-])=O)cc2ccc(N)cc21

>  <Energy>  (60) 
73.81274558084549

>  <Genealogy>  (60) 
CC(CCO)OC(=O)CN(C)C(=O)n1c(C([NH-])=O)cc2ccc(N)cc21 (protonated)
C[C@@H](CCO)OC(=O)CN(C)C(=O)n1c(C([NH-])=O)cc2ccc(N)cc21 (chirality)
C[C@@H](CCO)OC(=O)CN(C)C(=O)n1c(C([NH-])=O)cc2ccc(N)cc21 (3D coordinates assigned)
C[C@@H](CCO)OC(=O)CN(C)C(=O)n1c(C([NH-])=O)cc2ccc(N)cc21 (optimized conformer: 73.81274558084549 kcal/mol)

>  <smiles>  (60) 
CC(CCO)OC(=O)CN(C)C(=O)n1c(C(N)=O)cc2ccc(N)cc21

>  <score_type>  (60) 
oracle

>  <origin>  (60) 
adg

>  <m_score__min__energy>  (60) 
-6.46

>  <m_primary>  (60) 
energy

$$$$
62:0
     RDKit          3D

 44 45  0  0  0  0  0  0  0  0999 V2000
  146.3390  155.0340  134.7730 C   0  0  0  0  0  0  0  0  0  0  0  0
  146.9760  155.4090  133.4240 C   0  0  1  0  0  0  0  0  0  0  0  0
  146.0270  155.2910  132.2940 N   0  0  0  0  0  0  0  0  0  0  0  0
  144.6390  155.2940  132.6990 C   0  0  0  0  0  0  0  0  0  0  0  0
  143.8760  154.0970  132.6510 C   0  0  0  0  0  0  0  0  0  0  0  0
  142.5240  154.0900  133.0340 C   0  0  0  0  0  0  0  0  0  0  0  0
  141.9590  155.2890  133.4570 C   0  0  0  0  0  0  0  0  0  0  0  0
  140.6840  155.5610  133.8930 C   0  0  0  0  0  0  0  0  0  0  0  0
  140.6740  156.9240  134.1820 C   0  0  0  0  0  0  0  0  0  0  0  0
  139.4600  157.6570  134.5940 C   0  0  0  0  0  0  0  0  0  0  0  0
  139.3820  158.2900  135.8700 N   0  0  0  0  0  0  0  0  0  0  0  0
  138.4970  157.7710  133.7900 O   0  0  0  0  0  0  0  0  0  0  0  0
  141.9010  157.4710  133.9460 N   0  0  0  0  0  0  0  0  0  0  0  0
  142.3260  158.8240  134.1710 C   0  0  0  0  0  0  0  0  0  0  0  0
  141.8830  159.4680  135.1620 O   0  0  0  0  0  0  0  0  0  0  0  0
  143.2510  159.4120  133.3040 O   0  0  0  0  0  0  0  0  0  0  0  0
  144.5930  159.6870  133.6810 C   0  0  0  0  0  0  0  0  0  0  0  0
  144.7320  161.4020  134.1310 Cl  0  0  0  0  0  0  0  0  0  0  0  0
  142.6760  156.4570  133.5000 C   0  0  0  0  0  0  0  0  0  0  0  0
  144.0290  156.4880  133.1500 C   0  0  0  0  0  0  0  0  0  0  0  0
  147.6150  156.7750  133.4810 C   0  0  0  0  0  0  0  0  0  0  0  0
  148.2620  157.1140  134.5090 O   0  0  0  0  0  0  0  0  0  0  0  0
  147.5370  157.6290  132.3730 O   0  0  0  0  0  0  0  0  0  0  0  0
  147.7350  159.0400  132.4420 C   0  0  0  0  0  0  0  0  0  0  0  0
  149.1810  159.4030  132.1100 C   0  0  0  0  0  0  0  0  0  0  0  0
  150.0060  158.2790  132.2410 O   0  0  0  0  0  0  0  0  0  0  0  0
  146.9709  155.4060  135.5929 H   0  0  0  0  0  0  0  0  0  0  0  0
  145.3396  155.4879  134.8454 H   0  0  0  0  0  0  0  0  0  0  0  0
  146.2509  153.9399  134.8454 H   0  0  0  0  0  0  0  0  0  0  0  0
  147.7729  154.6753  133.2330 H   0  0  0  0  0  0  0  0  0  0  0  0
  146.2340  154.4120  131.7620 H   0  0  0  0  0  0  0  0  0  0  0  0
  146.1950  156.0800  131.6260 H   0  0  0  0  0  0  0  0  0  0  0  0
  144.3491  153.1643  132.3100 H   0  0  0  0  0  0  0  0  0  0  0  0
  141.9303  153.1646  133.0004 H   0  0  0  0  0  0  0  0  0  0  0  0
  139.8485  154.8525  133.9927 H   0  0  0  0  0  0  0  0  0  0  0  0
  139.9270  159.1570  136.0730 H   0  0  0  0  0  0  0  0  0  0  0  0
  144.8708  159.0574  134.5392 H   0  0  0  0  0  0  0  0  0  0  0  0
  145.2663  159.4694  132.8388 H   0  0  0  0  0  0  0  0  0  0  0  0
  144.6070  157.4210  133.2237 H   0  0  0  0  0  0  0  0  0  0  0  0
  147.0652  159.5335  131.7224 H   0  0  0  0  0  0  0  0  0  0  0  0
  147.5136  159.3769  133.4655 H   0  0  0  0  0  0  0  0  0  0  0  0
  149.2339  159.7735  131.0756 H   0  0  0  0  0  0  0  0  0  0  0  0
  149.5237  160.1819  132.8070 H   0  0  0  0  0  0  0  0  0  0  0  0
  149.6360  157.7520  132.9960 H   0  0  0  0  0  0  0  0  0  0  0  0
  1  2  1  0
  2  3  1  0
  3  4  1  0
  4  5  2  0
  5  6  1  0
  6  7  2  0
  7  8  1  0
  8  9  2  0
  9 10  1  0
 10 11  1  0
 10 12  2  0
  9 13  1  0
 13 14  1  0
 14 15  2  0
 14 16  1  0
 16 17  1  0
 17 18  1  0
 13 19  1  0
 19 20  2  0
  2 21  1  0
 21 22  2  0
 21 23  1  0
 23 24  1  0
 24 25  1  0
 25 26  1  0
 20  4  1  0
 19  7  1  0
  1 27  1  0
  1 28  1  0
  1 29  1  0
  2 30  1  6
  3 31  1  0
  3 32  1  0
  5 33  1  0
  6 34  1  0
  8 35  1  0
 11 36  1  0
 17 37  1  0
 17 38  1  0
 20 39  1  0
 24 40  1  0
 24 41  1  0
 25 42  1  0
 25 43  1  0
 26 44  1  0
M  CHG  2   3   1  11  -1
M  END
>  <UniqueID>  (61) 
61

>  <SMILES>  (61) 
C[C@@H]([NH2+]c1ccc2cc(C([NH-])=O)n(C(=O)OCCl)c2c1)C(=O)OCCO

>  <Energy>  (61) 
77.40034654277491

>  <Genealogy>  (61) 
CC([NH2+]c1ccc2cc(C([NH-])=O)n(C(=O)OCCl)c2c1)C(=O)OCCO (protonated)
C[C@@H]([NH2+]c1ccc2cc(C([NH-])=O)n(C(=O)OCCl)c2c1)C(=O)OCCO (chirality)
C[C@@H]([NH2+]c1ccc2cc(C([NH-])=O)n(C(=O)OCCl)c2c1)C(=O)OCCO (3D coordinates assigned)
C[C@@H]([NH2+]c1ccc2cc(C([NH-])=O)n(C(=O)OCCl)c2c1)C(=O)OCCO (optimized conformer: 77.40034654277491 kcal/mol)

>  <smiles>  (61) 
CC(Nc1ccc2cc(C(N)=O)n(C(=O)OCCl)c2c1)C(=O)OCCO

>  <score_type>  (61) 
oracle

>  <origin>  (61) 
adg

>  <m_score__min__energy>  (61) 
-6.5800000000000001

>  <m_primary>  (61) 
energy

$$$$
63:0
     RDKit          3D

 41 43  0  0  0  0  0  0  0  0999 V2000
  145.9030  154.3020  135.3400 C   0  0  0  0  0  0  0  0  0  0  0  0
  145.3200  154.2870  134.0070 N   0  0  0  0  0  0  0  0  0  0  0  0
  144.1260  153.7790  133.7430 N   0  0  0  0  0  0  0  0  0  0  0  0
  143.8630  153.9900  132.4380 C   0  0  0  0  0  0  0  0  0  0  0  0
  144.9170  154.6620  131.8560 C   0  0  0  0  0  0  0  0  0  0  0  0
  145.8400  154.8260  132.8780 C   0  0  0  0  0  0  0  0  0  0  0  0
  147.1450  155.5940  132.7890 C   0  0  1  0  0  0  0  0  0  0  0  0
  147.1940  156.7490  133.7650 C   0  0  0  0  0  0  0  0  0  0  0  0
  147.9700  156.7130  134.7590 O   0  0  0  0  0  0  0  0  0  0  0  0
  146.4330  157.9380  133.5140 N   0  0  0  0  0  0  0  0  0  0  0  0
  146.8790  159.1160  132.9970 C   0  0  0  0  0  0  0  0  0  0  0  0
  148.2740  159.3970  132.5850 C   0  0  0  0  0  0  0  0  0  0  0  0
  149.3800  158.8900  133.3360 N   0  0  0  0  0  0  0  0  0  0  0  0
  148.4990  160.0900  131.5610 O   0  0  0  0  0  0  0  0  0  0  0  0
  145.8230  160.0190  132.8710 C   0  0  0  0  0  0  0  0  0  0  0  0
  144.7140  159.3540  133.3390 C   0  0  0  0  0  0  0  0  0  0  0  0
  143.3940  159.7800  133.4560 C   0  0  0  0  0  0  0  0  0  0  0  0
  142.4600  158.8890  134.0050 C   0  0  0  0  0  0  0  0  0  0  0  0
  142.8650  157.6050  134.4480 C   0  0  0  0  0  0  0  0  0  0  0  0
  141.8710  156.6710  135.0730 C   0  0  0  0  0  0  0  0  0  0  0  0
  141.6820  155.5760  134.2520 F   0  0  0  0  0  0  0  0  0  0  0  0
  140.6620  157.3230  135.2530 F   0  0  0  0  0  0  0  0  0  0  0  0
  144.2140  157.2090  134.3120 C   0  0  0  0  0  0  0  0  0  0  0  0
  145.1120  158.1040  133.7290 C   0  0  0  0  0  0  0  0  0  0  0  0
  148.3510  154.6580  132.9870 C   0  0  0  0  0  0  0  0  0  0  0  0
  149.5110  155.2970  132.6000 F   0  0  0  0  0  0  0  0  0  0  0  0
  148.4720  154.3120  134.3230 F   0  0  0  0  0  0  0  0  0  0  0  0
  148.2060  153.5060  132.2330 F   0  0  0  0  0  0  0  0  0  0  0  0
  145.1001  154.2813  136.0916 H   0  0  0  0  0  0  0  0  0  0  0  0
  146.5479  153.4202  135.4681 H   0  0  0  0  0  0  0  0  0  0  0  0
  146.5017  155.2158  135.4681 H   0  0  0  0  0  0  0  0  0  0  0  0
  142.9472  153.6743  131.9168 H   0  0  0  0  0  0  0  0  0  0  0  0
  145.0061  154.9947  130.8113 H   0  0  0  0  0  0  0  0  0  0  0  0
  147.1992  156.0208  131.7766 H   0  0  0  0  0  0  0  0  0  0  0  0
  150.3590  159.1460  133.0680 H   0  0  0  0  0  0  0  0  0  0  0  0
  149.2470  158.2310  134.1320 H   0  0  0  0  0  0  0  0  0  0  0  0
  145.8680  161.0461  132.4799 H   0  0  0  0  0  0  0  0  0  0  0  0
  143.0922  160.7855  133.1276 H   0  0  0  0  0  0  0  0  0  0  0  0
  141.4053  159.1891  134.0924 H   0  0  0  0  0  0  0  0  0  0  0  0
  142.2552  156.3381  136.0485 H   0  0  0  0  0  0  0  0  0  0  0  0
  144.5484  156.2195  134.6571 H   0  0  0  0  0  0  0  0  0  0  0  0
  1  2  1  0
  2  3  1  0
  3  4  2  0
  4  5  1  0
  5  6  2  0
  6  7  1  0
  7  8  1  0
  8  9  2  0
  8 10  1  0
 10 11  1  0
 11 12  1  0
 12 13  1  0
 12 14  2  0
 11 15  2  0
 15 16  1  0
 16 17  2  0
 17 18  1  0
 18 19  2  0
 19 20  1  0
 20 21  1  0
 20 22  1  0
 19 23  1  0
 23 24  2  0
  7 25  1  0
 25 26  1  0
 25 27  1  0
 25 28  1  0
  6  2  1  0
 24 10  1  0
 24 16  1  0
  1 29  1  0
  1 30  1  0
  1 31  1  0
  4 32  1  0
  5 33  1  0
  7 34  1  6
 13 35  1  0
 13 36  1  0
 15 37  1  0
 17 38  1  0
 18 39  1  0
 20 40  1  0
 23 41  1  0
M  END
>  <UniqueID>  (62) 
62

>  <SMILES>  (62) 
Cn1nccc1[C@@H](C(=O)n1c(C(N)=O)cc2ccc(C(F)F)cc21)C(F)(F)F

>  <Energy>  (62) 
110.01597518445959

>  <Genealogy>  (62) 
Cn1nccc1[C@@H](C(=O)n1c(C(N)=O)cc2ccc(C(F)F)cc21)C(F)(F)F (chirality)
Cn1nccc1[C@@H](C(=O)n1c(C(N)=O)cc2ccc(C(F)F)cc21)C(F)(F)F (3D coordinates assigned)
Cn1nccc1[C@@H](C(=O)n1c(C(N)=O)cc2ccc(C(F)F)cc21)C(F)(F)F (optimized conformer: 110.01597518445959 kcal/mol)

>  <smiles>  (62) 
Cn1nccc1C(C(=O)n1c(C(N)=O)cc2ccc(C(F)F)cc21)C(F)(F)F

>  <score_type>  (62) 
oracle

>  <origin>  (62) 
adg

>  <m_score__min__energy>  (62) 
-6.6600000000000001

>  <m_primary>  (62) 
energy

$$$$
64:0
     RDKit          3D

 44 47  0  0  0  0  0  0  0  0999 V2000
  140.0820  150.0190  137.9540 N   0  0  0  0  0  0  0  0  0  0  0  0
  141.0930  150.7690  138.6210 C   0  0  0  0  0  0  0  0  0  0  0  0
  141.9590  150.1620  139.3050 O   0  0  0  0  0  0  0  0  0  0  0  0
  141.0980  152.2480  138.5390 C   0  0  0  0  0  0  0  0  0  0  0  0
  140.8480  153.0890  139.6250 C   0  0  0  0  0  0  0  0  0  0  0  0
  141.0380  154.3680  139.1480 C   0  0  0  0  0  0  0  0  0  0  0  0
  140.9230  155.5950  139.7910 C   0  0  0  0  0  0  0  0  0  0  0  0
  141.1640  156.7570  139.0390 C   0  0  0  0  0  0  0  0  0  0  0  0
  141.5080  156.6810  137.6660 C   0  0  0  0  0  0  0  0  0  0  0  0
  141.7390  157.8990  136.9310 N   0  0  0  0  0  0  0  0  0  0  0  0
  141.6660  158.0000  135.4660 C   0  0  2  0  0  0  0  0  0  0  0  0
  142.2380  159.3220  134.9360 C   0  0  0  0  0  0  0  0  0  0  0  0
  141.4360  159.6200  133.6730 C   0  0  0  0  0  0  0  0  0  0  0  0
  140.2080  158.8610  133.8160 N   0  0  0  0  0  0  0  0  0  0  0  0
  139.1010  158.9320  132.9070 C   0  0  0  0  0  0  0  0  0  0  0  0
  138.1290  158.1380  133.0390 O   0  0  0  0  0  0  0  0  0  0  0  0
  139.0640  159.9630  131.8200 C   0  0  0  0  0  0  0  0  0  0  0  0
  138.8710  159.3920  130.4210 C   0  0  0  0  0  0  0  0  0  0  0  0
  137.7250  160.1050  131.1090 C   0  0  0  0  0  0  0  0  0  0  0  0
  140.2240  157.9730  134.9650 C   0  0  0  0  0  0  0  0  0  0  0  0
  141.6240  155.4110  137.0540 C   0  0  0  0  0  0  0  0  0  0  0  0
  141.3890  154.2730  137.8290 C   0  0  0  0  0  0  0  0  0  0  0  0
  141.4270  152.9810  137.4400 N   0  0  0  0  0  0  0  0  0  0  0  0
  141.7370  152.5080  136.1220 C   0  0  0  0  0  0  0  0  0  0  0  0
  142.6120  153.0910  135.4320 O   0  0  0  0  0  0  0  0  0  0  0  0
  141.0760  151.4000  135.6020 O   0  0  0  0  0  0  0  0  0  0  0  0
  139.9980  150.0370  136.9130 H   0  0  0  0  0  0  0  0  0  0  0  0
  140.5605  152.7935  140.6448 H   0  0  0  0  0  0  0  0  0  0  0  0
  140.6518  155.6543  140.8554 H   0  0  0  0  0  0  0  0  0  0  0  0
  141.0845  157.7414  139.5234 H   0  0  0  0  0  0  0  0  0  0  0  0
  142.0120  158.7470  137.4770 H   0  0  0  0  0  0  0  0  0  0  0  0
  142.2469  157.1378  135.1067 H   0  0  0  0  0  0  0  0  0  0  0  0
  142.1062  160.1249  135.6763 H   0  0  0  0  0  0  0  0  0  0  0  0
  143.3172  159.2543  134.7342 H   0  0  0  0  0  0  0  0  0  0  0  0
  141.2185  160.6957  133.5987 H   0  0  0  0  0  0  0  0  0  0  0  0
  141.9864  159.3447  132.7613 H   0  0  0  0  0  0  0  0  0  0  0  0
  139.7699  160.6604  132.2947 H   0  0  0  0  0  0  0  0  0  0  0  0
  139.3734  159.8607  129.5620 H   0  0  0  0  0  0  0  0  0  0  0  0
  139.0057  158.4022  129.9605 H   0  0  0  0  0  0  0  0  0  0  0  0
  137.3959  161.0909  130.7489 H   0  0  0  0  0  0  0  0  0  0  0  0
  136.6843  159.8462  131.3539 H   0  0  0  0  0  0  0  0  0  0  0  0
  139.5374  158.3363  135.7438 H   0  0  0  0  0  0  0  0  0  0  0  0
  139.8961  156.9557  134.7052 H   0  0  0  0  0  0  0  0  0  0  0  0
  141.8933  155.3216  135.9912 H   0  0  0  0  0  0  0  0  0  0  0  0
  1  2  1  0
  2  3  2  0
  2  4  1  0
  4  5  2  0
  5  6  1  0
  6  7  2  0
  7  8  1  0
  8  9  2  0
  9 10  1  0
 10 11  1  0
 11 12  1  0
 12 13  1  0
 13 14  1  0
 14 15  1  0
 15 16  2  0
 15 17  1  0
 17 18  1  0
 18 19  1  0
 14 20  1  0
  9 21  1  0
 21 22  2  0
 22 23  1  0
 23 24  1  0
 24 25  2  0
 24 26  1  0
 23  4  1  0
 22  6  1  0
 20 11  1  0
 19 17  1  0
  1 27  1  0
  5 28  1  0
  7 29  1  0
  8 30  1  0
 10 31  1  0
 11 32  1  6
 12 33  1  0
 12 34  1  0
 13 35  1  0
 13 36  1  0
 17 37  1  0
 18 38  1  0
 18 39  1  0
 19 40  1  0
 19 41  1  0
 20 42  1  0
 20 43  1  0
 21 44  1  0
M  CHG  2   1  -1  26  -1
M  END
>  <UniqueID>  (63) 
63

>  <SMILES>  (63) 
[NH-]C(=O)c1cc2ccc(N[C@@H]3CCN(C(=O)C4CC4)C3)cc2n1C(=O)[O-]

>  <Energy>  (63) 
350.10236507228126

>  <Genealogy>  (63) 
[NH-]C(=O)c1cc2ccc(NC3CCN(C(=O)C4CC4)C3)cc2n1C(=O)[O-] (protonated)
[NH-]C(=O)c1cc2ccc(N[C@@H]3CCN(C(=O)C4CC4)C3)cc2n1C(=O)[O-] (chirality)
[NH-]C(=O)c1cc2ccc(N[C@@H]3CCN(C(=O)C4CC4)C3)cc2n1C(=O)[O-] (3D coordinates assigned)
[NH-]C(=O)c1cc2ccc(N[C@@H]3CCN(C(=O)C4CC4)C3)cc2n1C(=O)[O-] (nonaromatic ring conformer: 350.10236507228126 kcal/mol)

>  <smiles>  (63) 
NC(=O)c1cc2ccc(NC3CCN(C(=O)C4CC4)C3)cc2n1C(=O)O

>  <score_type>  (63) 
oracle

>  <origin>  (63) 
adg

>  <m_score__min__energy>  (63) 
-8.2799999999999994

>  <m_primary>  (63) 
energy

$$$$
65:0
     RDKit          3D

 64 65  0  0  0  0  0  0  0  0999 V2000
  144.7150  152.8040  133.3490 C   0  0  0  0  0  0  0  0  0  0  0  0
  143.8070  153.9670  132.9090 C   0  0  0  0  0  0  0  0  0  0  0  0
  144.2990  154.4980  131.5530 C   0  0  0  0  0  0  0  0  0  0  0  0
  142.3480  153.4940  132.7590 C   0  0  0  0  0  0  0  0  0  0  0  0
  143.8880  155.0550  133.8420 O   0  0  0  0  0  0  0  0  0  0  0  0
  144.8790  155.2430  134.8170 C   0  0  0  0  0  0  0  0  0  0  0  0
  144.6770  154.9140  136.0180 O   0  0  0  0  0  0  0  0  0  0  0  0
  146.1200  155.8660  134.4510 N   0  0  0  0  0  0  0  0  0  0  0  0
  147.3460  155.2790  134.3390 C   0  0  0  0  0  0  0  0  0  0  0  0
  147.6860  153.8980  134.7420 C   0  0  0  0  0  0  0  0  0  0  0  0
  147.2710  153.4050  136.0140 N   0  0  0  0  0  0  0  0  0  0  0  0
  148.3170  153.1340  133.9630 O   0  0  0  0  0  0  0  0  0  0  0  0
  148.2760  156.1830  133.8300 C   0  0  0  0  0  0  0  0  0  0  0  0
  147.5770  157.3520  133.6320 C   0  0  0  0  0  0  0  0  0  0  0  0
  147.9950  158.5650  133.0970 C   0  0  0  0  0  0  0  0  0  0  0  0
  147.0410  159.5860  132.9510 C   0  0  0  0  0  0  0  0  0  0  0  0
  145.6920  159.3840  133.3380 C   0  0  0  0  0  0  0  0  0  0  0  0
  144.7450  160.4550  133.1580 N   0  0  0  0  0  0  0  0  0  0  0  0
  143.7100  160.8140  134.1280 C   0  0  0  0  0  0  0  0  0  0  0  0
  142.4050  160.1540  133.7880 C   0  0  0  0  0  0  0  0  0  0  0  0
  141.3300  160.6470  134.2260 O   0  0  0  0  0  0  0  0  0  0  0  0
  142.3920  158.9630  132.9900 N   0  0  0  0  0  0  0  0  0  0  0  0
  141.1780  158.2110  132.6770 C   0  0  0  0  0  0  0  0  0  0  0  0
  140.8480  157.2210  133.8070 C   0  0  0  0  0  0  0  0  0  0  0  0
  140.3220  157.9070  135.1040 C   0  0  0  0  0  0  0  0  0  0  0  0
  141.0860  157.6120  136.3580 N   0  0  0  0  0  0  0  0  0  0  0  0
  141.6940  158.8820  136.8310 C   0  0  0  0  0  0  0  0  0  0  0  0
  142.1790  156.6450  136.0970 C   0  0  0  0  0  0  0  0  0  0  0  0
  140.2010  157.0980  137.4350 C   0  0  0  0  0  0  0  0  0  0  0  0
  145.3080  158.1310  133.8790 C   0  0  0  0  0  0  0  0  0  0  0  0
  146.2800  157.1360  134.0180 C   0  0  0  0  0  0  0  0  0  0  0  0
  144.7488  152.7607  134.4476 H   0  0  0  0  0  0  0  0  0  0  0  0
  144.3145  151.8575  132.9569 H   0  0  0  0  0  0  0  0  0  0  0  0
  145.7304  152.9629  132.9569 H   0  0  0  0  0  0  0  0  0  0  0  0
  145.0382  155.2958  131.7179 H   0  0  0  0  0  0  0  0  0  0  0  0
  144.7643  153.6787  130.9853 H   0  0  0  0  0  0  0  0  0  0  0  0
  143.4466  154.8995  130.9853 H   0  0  0  0  0  0  0  0  0  0  0  0
  141.9049  153.3503  133.7555 H   0  0  0  0  0  0  0  0  0  0  0  0
  141.7719  154.2514  132.2072 H   0  0  0  0  0  0  0  0  0  0  0  0
  142.3259  152.5427  132.2072 H   0  0  0  0  0  0  0  0  0  0  0  0
  146.2820  153.5030  136.3270 H   0  0  0  0  0  0  0  0  0  0  0  0
  149.3421  156.0011  133.6291 H   0  0  0  0  0  0  0  0  0  0  0  0
  149.0417  158.7209  132.7968 H   0  0  0  0  0  0  0  0  0  0  0  0
  147.3450  160.5559  132.5305 H   0  0  0  0  0  0  0  0  0  0  0  0
  144.8300  161.0590  132.3100 H   0  0  0  0  0  0  0  0  0  0  0  0
  144.0274  160.4895  135.1300 H   0  0  0  0  0  0  0  0  0  0  0  0
  143.5690  161.9047  134.1041 H   0  0  0  0  0  0  0  0  0  0  0  0
  143.2910  158.6240  132.5780 H   0  0  0  0  0  0  0  0  0  0  0  0
  140.3396  158.9125  132.5547 H   0  0  0  0  0  0  0  0  0  0  0  0
  141.3404  157.6464  131.7470 H   0  0  0  0  0  0  0  0  0  0  0  0
  140.0774  156.5244  133.4450 H   0  0  0  0  0  0  0  0  0  0  0  0
  141.7849  156.7084  134.0705 H   0  0  0  0  0  0  0  0  0  0  0  0
  140.3462  158.9949  134.9430 H   0  0  0  0  0  0  0  0  0  0  0  0
  139.3137  157.4989  135.2677 H   0  0  0  0  0  0  0  0  0  0  0  0
  141.7015  158.8976  137.9309 H   0  0  0  0  0  0  0  0  0  0  0  0
  142.7255  158.9566  136.4562 H   0  0  0  0  0  0  0  0  0  0  0  0
  141.1053  159.7323  136.4562 H   0  0  0  0  0  0  0  0  0  0  0  0
  142.5861  156.2849  137.0533 H   0  0  0  0  0  0  0  0  0  0  0  0
  141.7858  155.7937  135.5220 H   0  0  0  0  0  0  0  0  0  0  0  0
  142.9761  157.1390  135.5220 H   0  0  0  0  0  0  0  0  0  0  0  0
  140.6327  157.3487  138.4152 H   0  0  0  0  0  0  0  0  0  0  0  0
  139.2065  157.5590  137.3436 H   0  0  0  0  0  0  0  0  0  0  0  0
  140.1086  156.0057  137.3436 H   0  0  0  0  0  0  0  0  0  0  0  0
  144.2672  157.9457  134.1829 H   0  0  0  0  0  0  0  0  0  0  0  0
  1  2  1  0
  2  3  1  0
  2  4  1  0
  2  5  1  0
  5  6  1  0
  6  7  2  0
  6  8  1  0
  8  9  1  0
  9 10  1  0
 10 11  1  0
 10 12  2  0
  9 13  2  0
 13 14  1  0
 14 15  2  0
 15 16  1  0
 16 17  2  0
 17 18  1  0
 18 19  1  0
 19 20  1  0
 20 21  2  0
 20 22  1  0
 22 23  1  0
 23 24  1  0
 24 25  1  0
 25 26  1  0
 26 27  1  0
 26 28  1  0
 26 29  1  0
 17 30  1  0
 30 31  2  0
 31  8  1  0
 31 14  1  0
  1 32  1  0
  1 33  1  0
  1 34  1  0
  3 35  1  0
  3 36  1  0
  3 37  1  0
  4 38  1  0
  4 39  1  0
  4 40  1  0
 11 41  1  0
 13 42  1  0
 15 43  1  0
 16 44  1  0
 18 45  1  0
 19 46  1  0
 19 47  1  0
 22 48  1  0
 23 49  1  0
 23 50  1  0
 24 51  1  0
 24 52  1  0
 25 53  1  0
 25 54  1  0
 27 55  1  0
 27 56  1  0
 27 57  1  0
 28 58  1  0
 28 59  1  0
 28 60  1  0
 29 61  1  0
 29 62  1  0
 29 63  1  0
 30 64  1  0
M  CHG  2  11  -1  26   1
M  END
>  <UniqueID>  (64) 
64

>  <SMILES>  (64) 
CC(C)(C)OC(=O)n1c(C([NH-])=O)cc2ccc(NCC(=O)NCCC[N+](C)(C)C)cc21

>  <Energy>  (64) 
100.90085232072364

>  <Genealogy>  (64) 
CC(C)(C)OC(=O)n1c(C([NH-])=O)cc2ccc(NCC(=O)NCCC[N+](C)(C)C)cc21 (protonated)
CC(C)(C)OC(=O)n1c(C([NH-])=O)cc2ccc(NCC(=O)NCCC[N+](C)(C)C)cc21 (3D coordinates assigned)
CC(C)(C)OC(=O)n1c(C([NH-])=O)cc2ccc(NCC(=O)NCCC[N+](C)(C)C)cc21 (optimized conformer: 100.90085232072364 kcal/mol)

>  <smiles>  (64) 
CC(C)(C)OC(=O)n1c(C(N)=O)cc2ccc(NCC(=O)NCCC[N+](C)(C)C)cc21

>  <score_type>  (64) 
oracle

>  <origin>  (64) 
adg

>  <m_score__min__energy>  (64) 
-8

>  <m_primary>  (64) 
energy

$$$$
66:0
     RDKit          3D

 36 37  0  0  0  0  0  0  0  0999 V2000
  148.3620  158.2510  131.6730 N   0  0  0  0  0  0  0  0  0  0  0  0
  147.8890  158.3990  133.0080 C   0  0  0  0  0  0  0  0  0  0  0  0
  148.6570  158.1270  133.9690 O   0  0  0  0  0  0  0  0  0  0  0  0
  146.5020  158.8420  133.2550 C   0  0  0  0  0  0  0  0  0  0  0  0
  146.1260  160.1750  133.4190 C   0  0  0  0  0  0  0  0  0  0  0  0
  144.7550  160.1530  133.5610 C   0  0  0  0  0  0  0  0  0  0  0  0
  143.8560  161.1920  133.7730 C   0  0  0  0  0  0  0  0  0  0  0  0
  142.4940  160.8690  133.9100 C   0  0  0  0  0  0  0  0  0  0  0  0
  142.0590  159.5200  133.8370 C   0  0  0  0  0  0  0  0  0  0  0  0
  140.5900  159.1910  133.9870 C   0  0  2  0  0  0  0  0  0  0  0  0
  140.2280  158.2180  135.8660 I   0  0  0  0  0  0  0  0  0  0  0  0
  140.0770  158.3190  132.8370 C   0  0  0  0  0  0  0  0  0  0  0  0
  139.1130  159.2800  131.6820 Cl  0  0  0  0  0  0  0  0  0  0  0  0
  143.0050  158.4940  133.6120 C   0  0  0  0  0  0  0  0  0  0  0  0
  144.3490  158.8480  133.4780 C   0  0  0  0  0  0  0  0  0  0  0  0
  145.4070  158.0330  133.2960 N   0  0  0  0  0  0  0  0  0  0  0  0
  145.3670  156.6010  133.2470 C   0  0  0  0  0  0  0  0  0  0  0  0
  144.4840  156.0240  132.5590 O   0  0  0  0  0  0  0  0  0  0  0  0
  146.3080  155.7890  134.0910 C   0  0  0  0  0  0  0  0  0  0  0  0
  147.3930  155.1180  133.2350 C   0  0  0  0  0  0  0  0  0  0  0  0
  147.3920  155.6200  131.8600 N   0  0  0  0  0  0  0  0  0  0  0  0
  148.0360  157.4620  131.0720 H   0  0  0  0  0  0  0  0  0  0  0  0
  146.7837  161.0566  133.4322 H   0  0  0  0  0  0  0  0  0  0  0  0
  144.1995  162.2353  133.8318 H   0  0  0  0  0  0  0  0  0  0  0  0
  141.7585  161.6700  134.0754 H   0  0  0  0  0  0  0  0  0  0  0  0
  140.0379  160.1419  133.9571 H   0  0  0  0  0  0  0  0  0  0  0  0
  140.9359  157.8789  132.3092 H   0  0  0  0  0  0  0  0  0  0  0  0
  139.4351  157.5302  133.2563 H   0  0  0  0  0  0  0  0  0  0  0  0
  142.6900  157.4423  133.5441 H   0  0  0  0  0  0  0  0  0  0  0  0
  146.7903  156.4501  134.8261 H   0  0  0  0  0  0  0  0  0  0  0  0
  145.7286  155.0013  134.5948 H   0  0  0  0  0  0  0  0  0  0  0  0
  148.3761  155.3183  133.6859 H   0  0  0  0  0  0  0  0  0  0  0  0
  147.1834  154.0386  133.2038 H   0  0  0  0  0  0  0  0  0  0  0  0
  148.0680  156.4150  131.7890 H   0  0  0  0  0  0  0  0  0  0  0  0
  146.4390  155.9660  131.6030 H   0  0  0  0  0  0  0  0  0  0  0  0
  147.6890  154.8700  131.1970 H   0  0  0  0  0  0  0  0  0  0  0  0
  1  2  1  0
  2  3  2  0
  2  4  1  0
  4  5  2  0
  5  6  1  0
  6  7  2  0
  7  8  1  0
  8  9  2  0
  9 10  1  0
 10 11  1  0
 10 12  1  0
 12 13  1  0
  9 14  1  0
 14 15  2  0
 15 16  1  0
 16 17  1  0
 17 18  2  0
 17 19  1  0
 19 20  1  0
 20 21  1  0
 16  4  1  0
 15  6  1  0
  1 22  1  0
  5 23  1  0
  7 24  1  0
  8 25  1  0
 10 26  1  1
 12 27  1  0
 12 28  1  0
 14 29  1  0
 19 30  1  0
 19 31  1  0
 20 32  1  0
 20 33  1  0
 21 34  1  0
 21 35  1  0
 21 36  1  0
M  CHG  2   1  -1  21   1
M  END
>  <UniqueID>  (65) 
65

>  <SMILES>  (65) 
[NH-]C(=O)c1cc2ccc([C@H](I)CCl)cc2n1C(=O)CC[NH3+]

>  <Energy>  (65) 
68.98272317385243

>  <Genealogy>  (65) 
[NH-]C(=O)c1cc2ccc(C(I)CCl)cc2n1C(=O)CC[NH3+] (protonated)
[NH-]C(=O)c1cc2ccc([C@H](I)CCl)cc2n1C(=O)CC[NH3+] (chirality)
[NH-]C(=O)c1cc2ccc([C@H](I)CCl)cc2n1C(=O)CC[NH3+] (3D coordinates assigned)
[NH-]C(=O)c1cc2ccc([C@H](I)CCl)cc2n1C(=O)CC[NH3+] (optimized conformer: 68.98272317385243 kcal/mol)

>  <smiles>  (65) 
NCCC(=O)n1c(C(N)=O)cc2ccc(C(I)CCl)cc21

>  <score_type>  (65) 
oracle

>  <origin>  (65) 
adg

>  <m_score__min__energy>  (65) 
-7.3600000000000003

>  <m_primary>  (65) 
energy

$$$$
67:0
     RDKit          3D

 34 35  0  0  0  0  0  0  0  0999 V2000
  149.9250  160.3960  129.0300 N   0  0  0  0  0  0  0  0  0  0  0  0
  149.5480  160.6060  130.1030 C   0  0  0  0  0  0  0  0  0  0  0  0
  149.0700  160.8720  131.4640 C   0  0  0  0  0  0  0  0  0  0  0  0
  148.3560  159.6650  132.0010 C   0  0  0  0  0  0  0  0  0  0  0  0
  148.9440  158.3800  131.8860 C   0  0  0  0  0  0  0  0  0  0  0  0
  148.2640  157.2380  132.3460 C   0  0  0  0  0  0  0  0  0  0  0  0
  147.0050  157.4120  132.9130 C   0  0  0  0  0  0  0  0  0  0  0  0
  146.1170  156.4810  133.4000 C   0  0  0  0  0  0  0  0  0  0  0  0
  145.0070  157.2110  133.8170 C   0  0  0  0  0  0  0  0  0  0  0  0
  143.8330  156.6030  134.4780 C   0  0  0  0  0  0  0  0  0  0  0  0
  142.5270  156.7460  133.9280 N   0  0  0  0  0  0  0  0  0  0  0  0
  143.9800  155.9900  135.5680 O   0  0  0  0  0  0  0  0  0  0  0  0
  145.1980  158.5420  133.5910 N   0  0  0  0  0  0  0  0  0  0  0  0
  144.2550  159.6070  133.7780 C   0  0  0  0  0  0  0  0  0  0  0  0
  144.4960  160.7500  133.3050 O   0  0  0  0  0  0  0  0  0  0  0  0
  143.0570  159.3600  134.4570 O   0  0  0  0  0  0  0  0  0  0  0  0
  141.8690  160.1200  134.2410 C   0  0  0  0  0  0  0  0  0  0  0  0
  140.7220  159.3120  134.3790 O   0  0  0  0  0  0  0  0  0  0  0  0
  140.5960  158.7890  136.0000 P   0  0  1  0  0  0  0  0  0  0  0  0
  140.6710  159.9770  136.9340 O   0  0  0  0  0  0  0  0  0  0  0  0
  139.1050  158.0210  136.2080 O   0  0  0  0  0  0  0  0  0  0  0  0
  141.8340  157.6960  136.3690 O   0  0  0  0  0  0  0  0  0  0  0  0
  146.4270  158.6490  133.0390 C   0  0  0  0  0  0  0  0  0  0  0  0
  147.0710  159.8000  132.5730 C   0  0  0  0  0  0  0  0  0  0  0  0
  149.9272  161.1068  132.1121 H   0  0  0  0  0  0  0  0  0  0  0  0
  148.3747  161.7241  131.4431 H   0  0  0  0  0  0  0  0  0  0  0  0
  149.9409  158.2753  131.4330 H   0  0  0  0  0  0  0  0  0  0  0  0
  148.7136  156.2378  132.2602 H   0  0  0  0  0  0  0  0  0  0  0  0
  146.2547  155.3908  133.4495 H   0  0  0  0  0  0  0  0  0  0  0  0
  141.9030  157.5300  134.2210 H   0  0  0  0  0  0  0  0  0  0  0  0
  141.8250  160.9363  134.9770 H   0  0  0  0  0  0  0  0  0  0  0  0
  141.8923  160.5249  133.2185 H   0  0  0  0  0  0  0  0  0  0  0  0
  142.3470  157.6000  135.5280 H   0  0  0  0  0  0  0  0  0  0  0  0
  146.5890  160.7858  132.6499 H   0  0  0  0  0  0  0  0  0  0  0  0
  1  2  3  0
  2  3  1  0
  3  4  1  0
  4  5  2  0
  5  6  1  0
  6  7  2  0
  7  8  1  0
  8  9  2  0
  9 10  1  0
 10 11  1  0
 10 12  2  0
  9 13  1  0
 13 14  1  0
 14 15  2  0
 14 16  1  0
 16 17  1  0
 17 18  1  0
 18 19  1  0
 19 20  2  0
 19 21  1  6
 19 22  1  0
 13 23  1  0
 23 24  2  0
 24  4  1  0
 23  7  1  0
  3 25  1  0
  3 26  1  0
  5 27  1  0
  6 28  1  0
  8 29  1  0
 11 30  1  0
 17 31  1  0
 17 32  1  0
 22 33  1  0
 24 34  1  0
M  CHG  2  11  -1  21  -1
M  END
>  <UniqueID>  (66) 
66

>  <SMILES>  (66) 
N#CCc1ccc2cc(C([NH-])=O)n(C(=O)OCO[P@@](=O)([O-])O)c2c1

>  <Energy>  (66) 
68.47559390480512

>  <Genealogy>  (66) 
N#CCc1ccc2cc(C([NH-])=O)n(C(=O)OCOP(=O)([O-])O)c2c1 (protonated)
N#CCc1ccc2cc(C([NH-])=O)n(C(=O)OCO[P@@](=O)([O-])O)c2c1 (chirality)
N#CCc1ccc2cc(C([NH-])=O)n(C(=O)OCO[P@@](=O)([O-])O)c2c1 (3D coordinates assigned)
N#CCc1ccc2cc(C([NH-])=O)n(C(=O)OCO[P@@](=O)([O-])O)c2c1 (optimized conformer: 68.47559390480512 kcal/mol)

>  <smiles>  (66) 
N#CCc1ccc2cc(C(N)=O)n(C(=O)OCOP(=O)(O)O)c2c1

>  <score_type>  (66) 
oracle

>  <origin>  (66) 
adg

>  <m_score__min__energy>  (66) 
-6.6399999999999997

>  <m_primary>  (66) 
energy

$$$$
68:0
     RDKit          3D

 43 44  0  0  0  0  0  0  0  0999 V2000
  147.4940  153.0750  133.3350 C   0  0  0  0  0  0  0  0  0  0  0  0
  148.3470  154.1740  132.8680 N   0  0  0  0  0  0  0  0  0  0  0  0
  149.6760  153.8620  132.3270 C   0  0  0  0  0  0  0  0  0  0  0  0
  147.8850  155.5480  132.9380 C   0  0  0  0  0  0  0  0  0  0  0  0
  148.7620  156.6280  132.6280 C   0  0  0  0  0  0  0  0  0  0  0  0
  148.3210  157.9610  132.6870 C   0  0  0  0  0  0  0  0  0  0  0  0
  147.0050  158.1980  133.0660 C   0  0  0  0  0  0  0  0  0  0  0  0
  146.3140  159.3830  133.1790 C   0  0  0  0  0  0  0  0  0  0  0  0
  145.0260  159.0230  133.5760 C   0  0  0  0  0  0  0  0  0  0  0  0
  143.9540  160.0000  133.8610 C   0  0  0  0  0  0  0  0  0  0  0  0
  142.8380  160.1430  132.9860 N   0  0  0  0  0  0  0  0  0  0  0  0
  144.0080  160.6990  134.9080 O   0  0  0  0  0  0  0  0  0  0  0  0
  144.9300  157.6710  133.7030 N   0  0  0  0  0  0  0  0  0  0  0  0
  143.7610  156.9010  134.0230 C   0  0  0  0  0  0  0  0  0  0  0  0
  143.8600  155.9110  134.7960 O   0  0  0  0  0  0  0  0  0  0  0  0
  142.4510  157.2510  133.4580 C   0  0  0  0  0  0  0  0  0  0  0  0
  142.3650  157.6400  132.2610 O   0  0  0  0  0  0  0  0  0  0  0  0
  141.3070  157.1450  134.2570 O   0  0  0  0  0  0  0  0  0  0  0  0
  139.9800  157.1380  133.7330 C   0  0  0  0  0  0  0  0  0  0  0  0
  139.5610  158.5480  133.2950 C   0  0  1  0  0  0  0  0  0  0  0  0
  140.4930  159.4760  133.7860 O   0  0  0  0  0  0  0  0  0  0  0  0
  139.4930  158.6350  131.7630 C   0  0  0  0  0  0  0  0  0  0  0  0
  140.5850  159.3570  131.2600 O   0  0  0  0  0  0  0  0  0  0  0  0
  146.1480  157.1810  133.3840 C   0  0  0  0  0  0  0  0  0  0  0  0
  146.5490  155.8430  133.3160 C   0  0  0  0  0  0  0  0  0  0  0  0
  147.4832  153.0611  134.4349 H   0  0  0  0  0  0  0  0  0  0  0  0
  146.4702  153.2207  132.9601 H   0  0  0  0  0  0  0  0  0  0  0  0
  147.8892  152.1193  132.9601 H   0  0  0  0  0  0  0  0  0  0  0  0
  150.3798  153.6968  133.1560 H   0  0  0  0  0  0  0  0  0  0  0  0
  149.6166  152.9534  131.7098 H   0  0  0  0  0  0  0  0  0  0  0  0
  150.0271  154.7021  131.7098 H   0  0  0  0  0  0  0  0  0  0  0  0
  149.8013  156.4145  132.3378 H   0  0  0  0  0  0  0  0  0  0  0  0
  148.9976  158.7925  132.4404 H   0  0  0  0  0  0  0  0  0  0  0  0
  146.6961  160.3980  132.9953 H   0  0  0  0  0  0  0  0  0  0  0  0
  142.3540  159.3060  132.5910 H   0  0  0  0  0  0  0  0  0  0  0  0
  139.9382  156.4632  132.8653 H   0  0  0  0  0  0  0  0  0  0  0  0
  139.2918  156.7932  134.5188 H   0  0  0  0  0  0  0  0  0  0  0  0
  138.5633  158.7727  133.7000 H   0  0  0  0  0  0  0  0  0  0  0  0
  141.3730  159.2370  133.3950 H   0  0  0  0  0  0  0  0  0  0  0  0
  139.5071  157.6187  131.3424 H   0  0  0  0  0  0  0  0  0  0  0  0
  138.5649  159.1522  131.4783 H   0  0  0  0  0  0  0  0  0  0  0  0
  141.3660  159.1200  131.8270 H   0  0  0  0  0  0  0  0  0  0  0  0
  145.8419  155.0339  133.5512 H   0  0  0  0  0  0  0  0  0  0  0  0
  1  2  1  0
  2  3  1  0
  2  4  1  0
  4  5  2  0
  5  6  1  0
  6  7  2  0
  7  8  1  0
  8  9  2  0
  9 10  1  0
 10 11  1  0
 10 12  2  0
  9 13  1  0
 13 14  1  0
 14 15  2  0
 14 16  1  0
 16 17  2  0
 16 18  1  0
 18 19  1  0
 19 20  1  0
 20 21  1  0
 20 22  1  0
 22 23  1  0
 13 24  1  0
 24 25  2  0
 25  4  1  0
 24  7  1  0
  1 26  1  0
  1 27  1  0
  1 28  1  0
  3 29  1  0
  3 30  1  0
  3 31  1  0
  5 32  1  0
  6 33  1  0
  8 34  1  0
 11 35  1  0
 19 36  1  0
 19 37  1  0
 20 38  1  1
 21 39  1  0
 22 40  1  0
 22 41  1  0
 23 42  1  0
 25 43  1  0
M  CHG  1  11  -1
M  END
>  <UniqueID>  (67) 
67

>  <SMILES>  (67) 
CN(C)c1ccc2cc(C([NH-])=O)n(C(=O)C(=O)OC[C@@H](O)CO)c2c1

>  <Energy>  (67) 
78.2694987800884

>  <Genealogy>  (67) 
CN(C)c1ccc2cc(C([NH-])=O)n(C(=O)C(=O)OCC(O)CO)c2c1 (protonated)
CN(C)c1ccc2cc(C([NH-])=O)n(C(=O)C(=O)OC[C@@H](O)CO)c2c1 (chirality)
CN(C)c1ccc2cc(C([NH-])=O)n(C(=O)C(=O)OC[C@@H](O)CO)c2c1 (3D coordinates assigned)
CN(C)c1ccc2cc(C([NH-])=O)n(C(=O)C(=O)OC[C@@H](O)CO)c2c1 (optimized conformer: 78.2694987800884 kcal/mol)

>  <smiles>  (67) 
CN(C)c1ccc2cc(C(N)=O)n(C(=O)C(=O)OCC(O)CO)c2c1

>  <score_type>  (67) 
oracle

>  <origin>  (67) 
adg

>  <m_score__min__energy>  (67) 
-4.9100000000000001

>  <m_primary>  (67) 
energy

$$$$
69:0
     RDKit          3D

 37 38  0  0  0  0  0  0  0  0999 V2000
  150.3010  160.1450  129.2520 C   0  0  0  0  0  0  0  0  0  0  0  0
  149.0060  160.1870  129.9500 N   0  0  0  0  0  0  0  0  0  0  0  0
  148.9120  161.4350  130.7290 C   0  0  0  0  0  0  0  0  0  0  0  0
  148.8560  159.0030  130.8230 C   0  0  0  0  0  0  0  0  0  0  0  0
  149.7640  159.1190  132.0560 C   0  0  0  0  0  0  0  0  0  0  0  0
  149.0430  158.7310  133.2690 N   0  0  0  0  0  0  0  0  0  0  0  0
  147.6160  158.5440  133.3510 C   0  0  0  0  0  0  0  0  0  0  0  0
  147.0910  157.2310  133.2650 C   0  0  0  0  0  0  0  0  0  0  0  0
  145.7090  156.9970  133.3510 C   0  0  0  0  0  0  0  0  0  0  0  0
  144.8710  158.0960  133.5160 C   0  0  0  0  0  0  0  0  0  0  0  0
  143.5040  158.1520  133.6510 C   0  0  0  0  0  0  0  0  0  0  0  0
  143.2030  159.5040  133.7970 C   0  0  0  0  0  0  0  0  0  0  0  0
  141.8220  160.0230  133.8820 C   0  0  0  0  0  0  0  0  0  0  0  0
  140.9850  160.0740  132.7300 N   0  0  0  0  0  0  0  0  0  0  0  0
  141.3570  160.3800  134.9980 O   0  0  0  0  0  0  0  0  0  0  0  0
  144.3410  160.2540  133.7630 N   0  0  0  0  0  0  0  0  0  0  0  0
  144.4650  161.6710  133.9660 C   0  0  0  0  0  0  0  0  0  0  0  0
  143.6840  162.4690  133.3850 O   0  0  0  0  0  0  0  0  0  0  0  0
  145.4680  162.1750  134.7860 O   0  0  0  0  0  0  0  0  0  0  0  0
  145.3540  159.3760  133.5880 C   0  0  0  0  0  0  0  0  0  0  0  0
  146.7280  159.6360  133.5280 C   0  0  0  0  0  0  0  0  0  0  0  0
  151.1152  160.1186  129.9911 H   0  0  0  0  0  0  0  0  0  0  0  0
  150.3487  159.2448  128.6216 H   0  0  0  0  0  0  0  0  0  0  0  0
  150.4069  161.0402  128.6216 H   0  0  0  0  0  0  0  0  0  0  0  0
  148.9298  161.1989  131.8032 H   0  0  0  0  0  0  0  0  0  0  0  0
  149.7637  162.0861  130.4825 H   0  0  0  0  0  0  0  0  0  0  0  0
  147.9724  161.9512  130.4825 H   0  0  0  0  0  0  0  0  0  0  0  0
  147.8090  158.9270  131.1515 H   0  0  0  0  0  0  0  0  0  0  0  0
  149.1440  158.1061  130.2550 H   0  0  0  0  0  0  0  0  0  0  0  0
  150.6343  158.4588  131.9267 H   0  0  0  0  0  0  0  0  0  0  0  0
  150.0895  160.1648  132.1578 H   0  0  0  0  0  0  0  0  0  0  0  0
  149.6100  158.6100  134.1390 H   0  0  0  0  0  0  0  0  0  0  0  0
  147.7765  156.3816  133.1287 H   0  0  0  0  0  0  0  0  0  0  0  0
  145.3015  155.9771  133.2899 H   0  0  0  0  0  0  0  0  0  0  0  0
  142.7981  157.3084  133.6450 H   0  0  0  0  0  0  0  0  0  0  0  0
  141.3320  159.7530  131.7990 H   0  0  0  0  0  0  0  0  0  0  0  0
  147.1105  160.6636  133.6161 H   0  0  0  0  0  0  0  0  0  0  0  0
  1  2  1  0
  2  3  1  0
  2  4  1  0
  4  5  1  0
  5  6  1  0
  6  7  1  0
  7  8  2  0
  8  9  1  0
  9 10  2  0
 10 11  1  0
 11 12  2  0
 12 13  1  0
 13 14  1  0
 13 15  2  0
 12 16  1  0
 16 17  1  0
 17 18  2  0
 17 19  1  0
 16 20  1  0
 20 21  2  0
 21  7  1  0
 20 10  1  0
  1 22  1  0
  1 23  1  0
  1 24  1  0
  3 25  1  0
  3 26  1  0
  3 27  1  0
  4 28  1  0
  4 29  1  0
  5 30  1  0
  5 31  1  0
  6 32  1  0
  8 33  1  0
  9 34  1  0
 11 35  1  0
 14 36  1  0
 21 37  1  0
M  CHG  2  14  -1  19  -1
M  END
>  <UniqueID>  (68) 
68

>  <SMILES>  (68) 
CN(C)CCNc1ccc2cc(C([NH-])=O)n(C(=O)[O-])c2c1

>  <Energy>  (68) 
75.43507024845862

>  <Genealogy>  (68) 
CN(C)CCNc1ccc2cc(C([NH-])=O)n(C(=O)[O-])c2c1 (protonated)
CN(C)CCNc1ccc2cc(C([NH-])=O)n(C(=O)[O-])c2c1 (3D coordinates assigned)
CN(C)CCNc1ccc2cc(C([NH-])=O)n(C(=O)[O-])c2c1 (optimized conformer: 75.43507024845862 kcal/mol)

>  <smiles>  (68) 
CN(C)CCNc1ccc2cc(C(N)=O)n(C(=O)O)c2c1

>  <score_type>  (68) 
oracle

>  <origin>  (68) 
adg

>  <m_score__min__energy>  (68) 
-6.9000000000000004

>  <m_primary>  (68) 
energy

$$$$
70:0
     RDKit          3D

 44 46  0  0  0  0  0  0  0  0999 V2000
  142.0490  154.4880  133.0060 N   0  0  0  0  0  0  0  0  0  0  0  0
  143.3360  153.9000  133.1630 C   0  0  0  0  0  0  0  0  0  0  0  0
  143.4250  152.6550  133.3310 O   0  0  0  0  0  0  0  0  0  0  0  0
  144.5650  154.7240  133.1390 C   0  0  0  0  0  0  0  0  0  0  0  0
  145.8470  154.1910  133.0130 C   0  0  0  0  0  0  0  0  0  0  0  0
  146.6940  155.2750  132.9940 C   0  0  0  0  0  0  0  0  0  0  0  0
  148.0820  155.3280  132.9060 C   0  0  0  0  0  0  0  0  0  0  0  0
  148.6960  156.5920  132.9310 C   0  0  0  0  0  0  0  0  0  0  0  0
  147.9190  157.7740  133.0360 C   0  0  0  0  0  0  0  0  0  0  0  0
  148.6050  159.1130  133.1320 C   0  0  0  0  0  0  0  0  0  0  0  0
  148.8710  159.3910  134.4590 F   0  0  0  0  0  0  0  0  0  0  0  0
  149.7950  159.0940  132.4250 F   0  0  0  0  0  0  0  0  0  0  0  0
  147.8080  160.1190  132.6120 F   0  0  0  0  0  0  0  0  0  0  0  0
  146.5120  157.6760  133.1470 C   0  0  0  0  0  0  0  0  0  0  0  0
  145.9290  156.4050  133.1020 C   0  0  0  0  0  0  0  0  0  0  0  0
  144.6210  156.0850  133.1900 N   0  0  0  0  0  0  0  0  0  0  0  0
  143.5260  157.0120  133.2520 C   0  0  0  0  0  0  0  0  0  0  0  0
  143.0330  157.4710  132.1870 O   0  0  0  0  0  0  0  0  0  0  0  0
  142.9790  157.4470  134.5870 C   0  0  0  0  0  0  0  0  0  0  0  0
  141.6060  156.9200  134.8220 N   0  0  1  0  0  0  0  0  0  0  0  0
  141.4930  156.3780  136.2100 C   0  0  0  0  0  0  0  0  0  0  0  0
  140.9840  157.4060  137.1730 C   0  0  0  0  0  0  0  0  0  0  0  0
  141.4660  157.5130  138.3320 O   0  0  0  0  0  0  0  0  0  0  0  0
  139.9350  158.2190  136.7700 O   0  0  0  0  0  0  0  0  0  0  0  0
  139.4040  158.0410  135.4640 C   0  0  0  0  0  0  0  0  0  0  0  0
  140.5700  157.9580  134.4540 C   0  0  2  0  0  0  0  0  0  0  0  0
  140.0000  157.7190  133.0360 C   0  0  0  0  0  0  0  0  0  0  0  0
  140.2400  156.4040  132.6090 O   0  0  0  0  0  0  0  0  0  0  0  0
  141.9400  155.4480  132.6080 H   0  0  0  0  0  0  0  0  0  0  0  0
  146.1230  153.1285  132.9435 H   0  0  0  0  0  0  0  0  0  0  0  0
  148.6801  154.4089  132.8196 H   0  0  0  0  0  0  0  0  0  0  0  0
  149.7918  156.6655  132.8684 H   0  0  0  0  0  0  0  0  0  0  0  0
  145.8918  158.5767  133.2657 H   0  0  0  0  0  0  0  0  0  0  0  0
  143.6432  157.0763  135.3816 H   0  0  0  0  0  0  0  0  0  0  0  0
  142.9286  158.5458  134.5935 H   0  0  0  0  0  0  0  0  0  0  0  0
  141.4710  156.0950  134.1890 H   0  0  0  0  0  0  0  0  0  0  0  0
  140.7997  155.5240  136.2026 H   0  0  0  0  0  0  0  0  0  0  0  0
  142.4972  156.0719  136.5385 H   0  0  0  0  0  0  0  0  0  0  0  0
  138.8178  157.1109  135.4278 H   0  0  0  0  0  0  0  0  0  0  0  0
  138.7514  158.8891  135.2094 H   0  0  0  0  0  0  0  0  0  0  0  0
  141.1047  158.9190  134.4778 H   0  0  0  0  0  0  0  0  0  0  0  0
  138.9150  157.8996  133.0500 H   0  0  0  0  0  0  0  0  0  0  0  0
  140.4983  158.4087  132.3388 H   0  0  0  0  0  0  0  0  0  0  0  0
  141.1690  156.3840  132.2620 H   0  0  0  0  0  0  0  0  0  0  0  0
  1  2  1  0
  2  3  2  0
  2  4  1  0
  4  5  2  0
  5  6  1  0
  6  7  2  0
  7  8  1  0
  8  9  2  0
  9 10  1  0
 10 11  1  0
 10 12  1  0
 10 13  1  0
  9 14  1  0
 14 15  2  0
 15 16  1  0
 16 17  1  0
 17 18  2  0
 17 19  1  0
 19 20  1  0
 20 21  1  0
 21 22  1  0
 22 23  2  0
 22 24  1  0
 24 25  1  0
 25 26  1  0
 26 27  1  0
 27 28  1  0
 16  4  1  0
 26 20  1  0
 15  6  1  0
  1 29  1  0
  5 30  1  0
  7 31  1  0
  8 32  1  0
 14 33  1  0
 19 34  1  0
 19 35  1  0
 20 36  1  6
 21 37  1  0
 21 38  1  0
 25 39  1  0
 25 40  1  0
 26 41  1  6
 27 42  1  0
 27 43  1  0
 28 44  1  0
M  CHG  2   1  -1  20   1
M  END
>  <UniqueID>  (69) 
69

>  <SMILES>  (69) 
[NH-]C(=O)c1cc2ccc(C(F)(F)F)cc2n1C(=O)C[N@H+]1CC(=O)OC[C@@H]1CO

>  <Energy>  (69) 
96.13304525355626

>  <Genealogy>  (69) 
[NH-]C(=O)c1cc2ccc(C(F)(F)F)cc2n1C(=O)C[NH+]1CC(=O)OCC1CO (protonated)
[NH-]C(=O)c1cc2ccc(C(F)(F)F)cc2n1C(=O)C[N@H+]1CC(=O)OC[C@@H]1CO (chirality)
[NH-]C(=O)c1cc2ccc(C(F)(F)F)cc2n1C(=O)C[N@H+]1CC(=O)OC[C@@H]1CO (3D coordinates assigned)
[NH-]C(=O)c1cc2ccc(C(F)(F)F)cc2n1C(=O)C[N@H+]1CC(=O)OC[C@@H]1CO (nonaromatic ring conformer: 96.13304525355626 kcal/mol)

>  <smiles>  (69) 
NC(=O)c1cc2ccc(C(F)(F)F)cc2n1C(=O)CN1CC(=O)OCC1CO

>  <score_type>  (69) 
oracle

>  <origin>  (69) 
adg

>  <m_score__min__energy>  (69) 
-5.6100000000000003

>  <m_primary>  (69) 
energy

$$$$
71:0
     RDKit          3D

 37 38  0  0  0  0  0  0  0  0999 V2000
  141.9850  159.2180  135.1750 N   0  0  0  0  0  0  0  0  0  0  0  0
  141.2560  158.9800  136.3760 C   0  0  0  0  0  0  0  0  0  0  0  0
  140.5910  159.9180  136.8900 O   0  0  0  0  0  0  0  0  0  0  0  0
  141.2530  157.6310  136.9800 C   0  0  0  0  0  0  0  0  0  0  0  0
  140.9730  157.3950  138.3250 C   0  0  0  0  0  0  0  0  0  0  0  0
  141.1650  156.0440  138.5060 C   0  0  0  0  0  0  0  0  0  0  0  0
  141.0270  155.2670  139.6530 C   0  0  0  0  0  0  0  0  0  0  0  0
  141.2740  153.8880  139.5460 C   0  0  0  0  0  0  0  0  0  0  0  0
  141.6320  153.3130  138.3010 C   0  0  0  0  0  0  0  0  0  0  0  0
  141.9130  151.8390  138.2030 C   0  0  0  0  0  0  0  0  0  0  0  0
  140.7010  151.1190  137.7030 C   0  0  0  0  0  0  0  0  0  0  0  0
  139.7850  150.7920  138.5010 O   0  0  0  0  0  0  0  0  0  0  0  0
  140.6060  150.7660  136.3630 O   0  0  0  0  0  0  0  0  0  0  0  0
  141.7710  154.1350  137.1610 C   0  0  0  0  0  0  0  0  0  0  0  0
  141.5400  155.5090  137.3010 C   0  0  0  0  0  0  0  0  0  0  0  0
  141.5960  156.4700  136.3530 N   0  0  0  0  0  0  0  0  0  0  0  0
  141.9070  156.2720  134.9640 C   0  0  0  0  0  0  0  0  0  0  0  0
  143.0970  156.3810  134.5620 O   0  0  0  0  0  0  0  0  0  0  0  0
  140.8820  155.9840  134.0590 O   0  0  0  0  0  0  0  0  0  0  0  0
  139.6770  156.7390  133.9920 C   0  0  0  0  0  0  0  0  0  0  0  0
  139.5490  157.3620  132.6030 C   0  0  0  0  0  0  0  0  0  0  0  0
  140.4580  158.5850  132.4390 C   0  0  0  0  0  0  0  0  0  0  0  0
  141.8060  158.2310  132.5890 O   0  0  0  0  0  0  0  0  0  0  0  0
  142.4010  158.4280  134.6340 H   0  0  0  0  0  0  0  0  0  0  0  0
  140.6642  158.1319  139.0811 H   0  0  0  0  0  0  0  0  0  0  0  0
  140.7339  155.7183  140.6124 H   0  0  0  0  0  0  0  0  0  0  0  0
  141.1887  153.2485  140.4370 H   0  0  0  0  0  0  0  0  0  0  0  0
  142.7483  151.6730  137.5068 H   0  0  0  0  0  0  0  0  0  0  0  0
  142.1757  151.4546  139.1996 H   0  0  0  0  0  0  0  0  0  0  0  0
  142.0535  153.7068  136.1879 H   0  0  0  0  0  0  0  0  0  0  0  0
  138.8180  156.0777  134.1789 H   0  0  0  0  0  0  0  0  0  0  0  0
  139.6970  157.5337  134.7523 H   0  0  0  0  0  0  0  0  0  0  0  0
  139.8252  156.6100  131.8492 H   0  0  0  0  0  0  0  0  0  0  0  0
  138.5077  157.6913  132.4718 H   0  0  0  0  0  0  0  0  0  0  0  0
  140.3077  159.0135  131.4371 H   0  0  0  0  0  0  0  0  0  0  0  0
  140.1998  159.3209  133.2148 H   0  0  0  0  0  0  0  0  0  0  0  0
  141.8990  157.8440  133.4990 H   0  0  0  0  0  0  0  0  0  0  0  0
  1  2  1  0
  2  3  2  0
  2  4  1  0
  4  5  2  0
  5  6  1  0
  6  7  2  0
  7  8  1  0
  8  9  2  0
  9 10  1  0
 10 11  1  0
 11 12  2  0
 11 13  1  0
  9 14  1  0
 14 15  2  0
 15 16  1  0
 16 17  1  0
 17 18  2  0
 17 19  1  0
 19 20  1  0
 20 21  1  0
 21 22  1  0
 22 23  1  0
 16  4  1  0
 15  6  1  0
  1 24  1  0
  5 25  1  0
  7 26  1  0
  8 27  1  0
 10 28  1  0
 10 29  1  0
 14 30  1  0
 20 31  1  0
 20 32  1  0
 21 33  1  0
 21 34  1  0
 22 35  1  0
 22 36  1  0
 23 37  1  0
M  CHG  2   1  -1  13  -1
M  END
>  <UniqueID>  (70) 
70

>  <SMILES>  (70) 
[NH-]C(=O)c1cc2ccc(CC(=O)[O-])cc2n1C(=O)OCCCO

>  <Energy>  (70) 
67.56018067613303

>  <Genealogy>  (70) 
[NH-]C(=O)c1cc2ccc(CC(=O)[O-])cc2n1C(=O)OCCCO (protonated)
[NH-]C(=O)c1cc2ccc(CC(=O)[O-])cc2n1C(=O)OCCCO (3D coordinates assigned)
[NH-]C(=O)c1cc2ccc(CC(=O)[O-])cc2n1C(=O)OCCCO (optimized conformer: 67.56018067613303 kcal/mol)

>  <smiles>  (70) 
NC(=O)c1cc2ccc(CC(=O)O)cc2n1C(=O)OCCCO

>  <score_type>  (70) 
oracle

>  <origin>  (70) 
adg

>  <m_score__min__energy>  (70) 
-6.1200000000000001

>  <m_primary>  (70) 
energy

$$$$
72:0
     RDKit          3D

 34 36  0  0  0  0  0  0  0  0999 V2000
  138.7410  158.2390  135.7520 N   0  0  0  0  0  0  0  0  0  0  0  0
  139.2040  157.5950  134.5650 C   0  0  0  0  0  0  0  0  0  0  0  0
  138.3660  157.1610  133.7300 O   0  0  0  0  0  0  0  0  0  0  0  0
  140.6460  157.4880  134.2650 C   0  0  0  0  0  0  0  0  0  0  0  0
  141.2670  156.2960  133.9060 C   0  0  0  0  0  0  0  0  0  0  0  0
  142.5770  156.6300  133.6550 C   0  0  0  0  0  0  0  0  0  0  0  0
  143.6450  155.8270  133.2740 C   0  0  0  0  0  0  0  0  0  0  0  0
  144.9030  156.4290  133.1210 C   0  0  0  0  0  0  0  0  0  0  0  0
  145.0840  157.8200  133.3600 C   0  0  0  0  0  0  0  0  0  0  0  0
  146.3880  158.4280  133.2130 N   0  0  0  0  0  0  0  0  0  0  0  0
  146.6010  159.8250  132.8660 C   0  0  0  0  0  0  0  0  0  0  0  0
  148.1000  160.0620  132.9870 C   0  0  0  0  0  0  0  0  0  0  0  0
  148.7400  158.6800  132.9710 C   0  0  0  0  0  0  0  0  0  0  0  0
  147.6440  157.7110  133.3930 C   0  0  0  0  0  0  0  0  0  0  0  0
  143.9660  158.6000  133.7500 C   0  0  0  0  0  0  0  0  0  0  0  0
  142.7180  157.9760  133.8710 C   0  0  0  0  0  0  0  0  0  0  0  0
  141.5380  158.5200  134.2500 N   0  0  0  0  0  0  0  0  0  0  0  0
  141.3110  159.8760  134.6680 C   0  0  0  0  0  0  0  0  0  0  0  0
  140.9700  160.1280  135.8540 O   0  0  0  0  0  0  0  0  0  0  0  0
  141.4650  160.9250  133.7700 O   0  0  0  0  0  0  0  0  0  0  0  0
  139.3970  158.7580  136.3750 H   0  0  0  0  0  0  0  0  0  0  0  0
  137.7190  158.2710  135.9650 H   0  0  0  0  0  0  0  0  0  0  0  0
  140.8079  155.2988  133.8375 H   0  0  0  0  0  0  0  0  0  0  0  0
  143.5081  154.7499  133.0974 H   0  0  0  0  0  0  0  0  0  0  0  0
  145.7626  155.8163  132.8115 H   0  0  0  0  0  0  0  0  0  0  0  0
  146.2650  160.0189  131.8367 H   0  0  0  0  0  0  0  0  0  0  0  0
  146.0318  160.4960  133.5261 H   0  0  0  0  0  0  0  0  0  0  0  0
  148.4628  160.6622  132.1395 H   0  0  0  0  0  0  0  0  0  0  0  0
  148.3503  160.6140  133.9049 H   0  0  0  0  0  0  0  0  0  0  0  0
  149.0991  158.4357  131.9604 H   0  0  0  0  0  0  0  0  0  0  0  0
  149.6082  158.6278  133.6444 H   0  0  0  0  0  0  0  0  0  0  0  0
  147.6649  156.8107  132.7614 H   0  0  0  0  0  0  0  0  0  0  0  0
  147.7753  157.3801  134.4338 H   0  0  0  0  0  0  0  0  0  0  0  0
  144.0768  159.6753  133.9537 H   0  0  0  0  0  0  0  0  0  0  0  0
  1  2  1  0
  2  3  2  0
  2  4  1  0
  4  5  2  0
  5  6  1  0
  6  7  2  0
  7  8  1  0
  8  9  2  0
  9 10  1  0
 10 11  1  0
 11 12  1  0
 12 13  1  0
 13 14  1  0
  9 15  1  0
 15 16  2  0
 16 17  1  0
 17 18  1  0
 18 19  2  0
 18 20  1  0
 17  4  1  0
 16  6  1  0
 14 10  1  0
  1 21  1  0
  1 22  1  0
  5 23  1  0
  7 24  1  0
  8 25  1  0
 11 26  1  0
 11 27  1  0
 12 28  1  0
 12 29  1  0
 13 30  1  0
 13 31  1  0
 14 32  1  0
 14 33  1  0
 15 34  1  0
M  CHG  1  20  -1
M  END
>  <UniqueID>  (71) 
71

>  <SMILES>  (71) 
NC(=O)c1cc2ccc(N3CCCC3)cc2n1C(=O)[O-]

>  <Energy>  (71) 
76.7410879365881

>  <Genealogy>  (71) 
NC(=O)c1cc2ccc(N3CCCC3)cc2n1C(=O)[O-] (protonated)
NC(=O)c1cc2ccc(N3CCCC3)cc2n1C(=O)[O-] (3D coordinates assigned)
NC(=O)c1cc2ccc(N3CCCC3)cc2n1C(=O)[O-] (nonaromatic ring conformer: 76.7410879365881 kcal/mol)

>  <smiles>  (71) 
NC(=O)c1cc2ccc(N3CCCC3)cc2n1C(=O)O

>  <score_type>  (71) 
oracle

>  <origin>  (71) 
adg

>  <m_score__min__energy>  (71) 
-6.7000000000000002

>  <m_primary>  (71) 
energy

$$$$
74:0
     RDKit          3D

 43 44  0  0  0  0  0  0  0  0999 V2000
  136.9060  160.1430  130.6990 C   0  0  0  0  0  0  0  0  0  0  0  0
  138.3060  159.7000  130.8060 N   0  0  0  0  0  0  0  0  0  0  0  0
  138.9940  160.4820  131.8460 C   0  0  0  0  0  0  0  0  0  0  0  0
  138.3850  158.2540  131.1130 C   0  0  0  0  0  0  0  0  0  0  0  0
  139.0260  158.0210  132.4890 C   0  0  0  0  0  0  0  0  0  0  0  0
  140.0260  157.0060  132.4160 O   0  0  0  0  0  0  0  0  0  0  0  0
  139.8850  155.7430  132.9990 C   0  0  0  0  0  0  0  0  0  0  0  0
  138.7490  155.3280  133.3560 O   0  0  0  0  0  0  0  0  0  0  0  0
  141.0340  154.9700  133.2000 O   0  0  0  0  0  0  0  0  0  0  0  0
  142.0640  155.2810  134.0980 C   0  0  0  0  0  0  0  0  0  0  0  0
  143.1220  154.5940  134.1290 O   0  0  0  0  0  0  0  0  0  0  0  0
  141.9070  156.3970  134.9900 N   0  0  0  0  0  0  0  0  0  0  0  0
  142.1920  157.7030  134.7270 C   0  0  0  0  0  0  0  0  0  0  0  0
  142.5710  158.2610  133.4120 C   0  0  0  0  0  0  0  0  0  0  0  0
  142.5360  157.4600  132.2290 N   0  0  0  0  0  0  0  0  0  0  0  0
  142.8820  159.4780  133.3230 O   0  0  0  0  0  0  0  0  0  0  0  0
  142.0360  158.4800  135.8720 C   0  0  0  0  0  0  0  0  0  0  0  0
  141.6300  157.6050  136.8520 C   0  0  0  0  0  0  0  0  0  0  0  0
  141.3550  157.8350  138.1950 C   0  0  0  0  0  0  0  0  0  0  0  0
  141.0000  156.7350  138.9930 C   0  0  0  0  0  0  0  0  0  0  0  0
  140.9160  155.4320  138.4390 C   0  0  0  0  0  0  0  0  0  0  0  0
  140.5970  154.2520  139.3210 C   0  0  0  0  0  0  0  0  0  0  0  0
  139.4110  154.4580  140.0050 F   0  0  0  0  0  0  0  0  0  0  0  0
  141.6030  154.0520  140.2500 F   0  0  0  0  0  0  0  0  0  0  0  0
  140.4750  153.1190  138.5380 F   0  0  0  0  0  0  0  0  0  0  0  0
  141.2290  155.2360  137.0730 C   0  0  0  0  0  0  0  0  0  0  0  0
  141.5600  156.3530  136.2960 C   0  0  0  0  0  0  0  0  0  0  0  0
  136.4855  160.2761  131.7067 H   0  0  0  0  0  0  0  0  0  0  0  0
  136.8642  161.0983  130.1552 H   0  0  0  0  0  0  0  0  0  0  0  0
  136.3223  159.3857  130.1552 H   0  0  0  0  0  0  0  0  0  0  0  0
  138.6814  160.1266  132.8390 H   0  0  0  0  0  0  0  0  0  0  0  0
  140.0817  160.3586  131.7381 H   0  0  0  0  0  0  0  0  0  0  0  0
  138.7331  161.5451  131.7381 H   0  0  0  0  0  0  0  0  0  0  0  0
  137.3702  157.8294  131.1117 H   0  0  0  0  0  0  0  0  0  0  0  0
  139.0064  157.7654  130.3481 H   0  0  0  0  0  0  0  0  0  0  0  0
  139.4873  158.9576  132.8354 H   0  0  0  0  0  0  0  0  0  0  0  0
  138.2446  157.6966  133.1919 H   0  0  0  0  0  0  0  0  0  0  0  0
  142.8570  157.8560  131.3180 H   0  0  0  0  0  0  0  0  0  0  0  0
  142.1240  156.5010  132.2380 H   0  0  0  0  0  0  0  0  0  0  0  0
  142.2021  159.5628  135.9713 H   0  0  0  0  0  0  0  0  0  0  0  0
  141.4136  158.8479  138.6200 H   0  0  0  0  0  0  0  0  0  0  0  0
  140.7844  156.8859  140.0610 H   0  0  0  0  0  0  0  0  0  0  0  0
  141.2127  154.2287  136.6313 H   0  0  0  0  0  0  0  0  0  0  0  0
  1  2  1  0
  2  3  1  0
  2  4  1  0
  4  5  1  0
  5  6  1  0
  6  7  1  0
  7  8  2  0
  7  9  1  0
  9 10  1  0
 10 11  2  0
 10 12  1  0
 12 13  1  0
 13 14  1  0
 14 15  1  0
 14 16  2  0
 13 17  2  0
 17 18  1  0
 18 19  2  0
 19 20  1  0
 20 21  2  0
 21 22  1  0
 22 23  1  0
 22 24  1  0
 22 25  1  0
 21 26  1  0
 26 27  2  0
 27 12  1  0
 27 18  1  0
  1 28  1  0
  1 29  1  0
  1 30  1  0
  3 31  1  0
  3 32  1  0
  3 33  1  0
  4 34  1  0
  4 35  1  0
  5 36  1  0
  5 37  1  0
 15 38  1  0
 15 39  1  0
 17 40  1  0
 19 41  1  0
 20 42  1  0
 26 43  1  0
M  END
>  <UniqueID>  (72) 
72

>  <SMILES>  (72) 
CN(C)CCOC(=O)OC(=O)n1c(C(N)=O)cc2ccc(C(F)(F)F)cc21

>  <Energy>  (72) 
81.00453616875987

>  <Genealogy>  (72) 
CN(C)CCOC(=O)OC(=O)n1c(C(N)=O)cc2ccc(C(F)(F)F)cc21 (3D coordinates assigned)
CN(C)CCOC(=O)OC(=O)n1c(C(N)=O)cc2ccc(C(F)(F)F)cc21 (optimized conformer: 81.00453616875987 kcal/mol)

>  <smiles>  (72) 
CN(C)CCOC(=O)OC(=O)n1c(C(N)=O)cc2ccc(C(F)(F)F)cc21

>  <score_type>  (72) 
oracle

>  <origin>  (72) 
adg

>  <m_score__min__energy>  (72) 
-6.6299999999999999

>  <m_primary>  (72) 
energy

$$$$
75:0
     RDKit          3D

 39 40  0  0  0  0  0  0  0  0999 V2000
  143.3950  161.6720  133.7440 N   0  0  0  0  0  0  0  0  0  0  0  0
  144.8000  161.6690  133.9820 C   0  0  0  0  0  0  0  0  0  0  0  0
  145.3390  162.6810  134.5040 O   0  0  0  0  0  0  0  0  0  0  0  0
  145.6160  160.4780  133.6740 C   0  0  0  0  0  0  0  0  0  0  0  0
  146.9830  160.5280  133.4090 C   0  0  0  0  0  0  0  0  0  0  0  0
  147.3760  159.2170  133.2740 C   0  0  0  0  0  0  0  0  0  0  0  0
  148.6320  158.6790  133.0090 C   0  0  0  0  0  0  0  0  0  0  0  0
  148.7440  157.2820  132.9130 C   0  0  0  0  0  0  0  0  0  0  0  0
  147.6030  156.4500  133.0530 C   0  0  0  0  0  0  0  0  0  0  0  0
  147.7390  154.9490  132.9880 C   0  0  0  0  0  0  0  0  0  0  0  0
  146.6080  154.3760  132.4350 F   0  0  0  0  0  0  0  0  0  0  0  0
  147.9150  154.4220  134.2560 F   0  0  0  0  0  0  0  0  0  0  0  0
  148.8350  154.6270  132.2090 F   0  0  0  0  0  0  0  0  0  0  0  0
  146.3470  157.0350  133.3440 C   0  0  0  0  0  0  0  0  0  0  0  0
  146.2700  158.4270  133.4510 C   0  0  0  0  0  0  0  0  0  0  0  0
  145.1810  159.1870  133.6960 N   0  0  0  0  0  0  0  0  0  0  0  0
  143.8330  158.7220  133.8370 C   0  0  0  0  0  0  0  0  0  0  0  0
  143.1990  158.9450  134.9060 O   0  0  0  0  0  0  0  0  0  0  0  0
  143.2410  157.9930  132.8000 O   0  0  0  0  0  0  0  0  0  0  0  0
  142.0780  157.1920  132.9870 C   0  0  0  0  0  0  0  0  0  0  0  0
  140.9990  158.0060  133.4320 O   0  0  0  0  0  0  0  0  0  0  0  0
  140.5910  159.1660  132.7650 C   0  0  0  0  0  0  0  0  0  0  0  0
  140.8340  160.3060  133.2470 O   0  0  0  0  0  0  0  0  0  0  0  0
  139.8460  159.0490  131.4710 C   0  0  0  0  0  0  0  0  0  0  0  0
  138.3350  159.1180  131.7080 C   0  0  0  0  0  0  0  0  0  0  0  0
  137.7020  160.1110  130.7850 C   0  0  0  0  0  0  0  0  0  0  0  0
  136.4480  160.2120  130.7250 O   0  0  0  0  0  0  0  0  0  0  0  0
  138.4950  160.9210  129.9820 O   0  0  0  0  0  0  0  0  0  0  0  0
  142.8300  160.8020  133.8520 H   0  0  0  0  0  0  0  0  0  0  0  0
  147.6138  161.4253  133.3255 H   0  0  0  0  0  0  0  0  0  0  0  0
  149.5104  159.3281  132.8787 H   0  0  0  0  0  0  0  0  0  0  0  0
  149.7283  156.8274  132.7270 H   0  0  0  0  0  0  0  0  0  0  0  0
  145.4530  156.4093  133.4826 H   0  0  0  0  0  0  0  0  0  0  0  0
  141.8064  156.7144  132.0341 H   0  0  0  0  0  0  0  0  0  0  0  0
  142.2862  156.4199  133.7423 H   0  0  0  0  0  0  0  0  0  0  0  0
  140.1452  159.8729  130.8064 H   0  0  0  0  0  0  0  0  0  0  0  0
  140.0877  158.0798  131.0103 H   0  0  0  0  0  0  0  0  0  0  0  0
  137.8952  158.1259  131.5283 H   0  0  0  0  0  0  0  0  0  0  0  0
  138.1529  159.4326  132.7462 H   0  0  0  0  0  0  0  0  0  0  0  0
  1  2  1  0
  2  3  2  0
  2  4  1  0
  4  5  2  0
  5  6  1  0
  6  7  2  0
  7  8  1  0
  8  9  2  0
  9 10  1  0
 10 11  1  0
 10 12  1  0
 10 13  1  0
  9 14  1  0
 14 15  2  0
 15 16  1  0
 16 17  1  0
 17 18  2  0
 17 19  1  0
 19 20  1  0
 20 21  1  0
 21 22  1  0
 22 23  2  0
 22 24  1  0
 24 25  1  0
 25 26  1  0
 26 27  2  0
 26 28  1  0
 16  4  1  0
 15  6  1  0
  1 29  1  0
  5 30  1  0
  7 31  1  0
  8 32  1  0
 14 33  1  0
 20 34  1  0
 20 35  1  0
 24 36  1  0
 24 37  1  0
 25 38  1  0
 25 39  1  0
M  CHG  2   1  -1  28  -1
M  END
>  <UniqueID>  (73) 
73

>  <SMILES>  (73) 
[NH-]C(=O)c1cc2ccc(C(F)(F)F)cc2n1C(=O)OCOC(=O)CCC(=O)[O-]

>  <Energy>  (73) 
71.60618096438151

>  <Genealogy>  (73) 
[NH-]C(=O)c1cc2ccc(C(F)(F)F)cc2n1C(=O)OCOC(=O)CCC(=O)[O-] (protonated)
[NH-]C(=O)c1cc2ccc(C(F)(F)F)cc2n1C(=O)OCOC(=O)CCC(=O)[O-] (3D coordinates assigned)
[NH-]C(=O)c1cc2ccc(C(F)(F)F)cc2n1C(=O)OCOC(=O)CCC(=O)[O-] (optimized conformer: 71.60618096438151 kcal/mol)

>  <smiles>  (73) 
NC(=O)c1cc2ccc(C(F)(F)F)cc2n1C(=O)OCOC(=O)CCC(=O)O

>  <score_type>  (73) 
oracle

>  <origin>  (73) 
adg

>  <m_score__min__energy>  (73) 
-6.3899999999999997

>  <m_primary>  (73) 
energy

$$$$
76:0
     RDKit          3D

 41 42  0  0  0  0  0  0  0  0999 V2000
  148.4490  155.3470  132.6820 C   0  0  0  0  0  0  0  0  0  0  0  0
  147.9390  156.7480  132.8440 C   0  0  0  0  0  0  0  0  0  0  0  0
  148.8450  157.8350  132.8690 C   0  0  0  0  0  0  0  0  0  0  0  0
  148.3840  159.1460  133.0750 C   0  0  0  0  0  0  0  0  0  0  0  0
  147.0160  159.3360  133.2540 C   0  0  0  0  0  0  0  0  0  0  0  0
  146.3120  160.4900  133.5100 C   0  0  0  0  0  0  0  0  0  0  0  0
  144.9830  160.0910  133.6190 C   0  0  0  0  0  0  0  0  0  0  0  0
  143.8670  161.0330  133.8360 C   0  0  0  0  0  0  0  0  0  0  0  0
  142.5440  160.5660  134.1010 N   0  0  0  0  0  0  0  0  0  0  0  0
  144.0750  162.2720  133.7300 O   0  0  0  0  0  0  0  0  0  0  0  0
  144.8680  158.7430  133.4550 N   0  0  0  0  0  0  0  0  0  0  0  0
  143.6850  157.9400  133.6050 C   0  0  0  0  0  0  0  0  0  0  0  0
  143.2730  157.2390  132.6400 O   0  0  0  0  0  0  0  0  0  0  0  0
  142.9940  157.9390  134.8190 O   0  0  0  0  0  0  0  0  0  0  0  0
  141.8140  157.1730  135.0330 C   0  0  0  0  0  0  0  0  0  0  0  0
  140.7130  158.0710  135.5940 C   0  0  0  0  0  0  0  0  0  0  0  0
  140.2920  159.0080  134.6190 O   0  0  0  0  0  0  0  0  0  0  0  0
  139.3610  158.4350  133.7190 C   0  0  0  0  0  0  0  0  0  0  0  0
  139.8620  158.5400  132.2750 C   0  0  0  0  0  0  0  0  0  0  0  0
  141.2780  158.8980  132.2480 N   0  0  0  0  0  0  0  0  0  0  0  0
  146.1240  158.2940  133.2270 C   0  0  0  0  0  0  0  0  0  0  0  0
  146.5590  156.9760  133.0450 C   0  0  0  0  0  0  0  0  0  0  0  0
  148.6120  154.8992  133.6734 H   0  0  0  0  0  0  0  0  0  0  0  0
  147.7106  154.7499  132.1269 H   0  0  0  0  0  0  0  0  0  0  0  0
  149.3985  155.3643  132.1269 H   0  0  0  0  0  0  0  0  0  0  0  0
  149.9201  157.6517  132.7258 H   0  0  0  0  0  0  0  0  0  0  0  0
  149.0819  159.9960  133.0943 H   0  0  0  0  0  0  0  0  0  0  0  0
  146.7134  161.5095  133.6076 H   0  0  0  0  0  0  0  0  0  0  0  0
  142.3070  159.5510  134.0290 H   0  0  0  0  0  0  0  0  0  0  0  0
  141.7760  161.2470  134.2910 H   0  0  0  0  0  0  0  0  0  0  0  0
  141.4813  156.7392  134.0785 H   0  0  0  0  0  0  0  0  0  0  0  0
  142.0277  156.3667  135.7501 H   0  0  0  0  0  0  0  0  0  0  0  0
  139.8559  157.4494  135.8925 H   0  0  0  0  0  0  0  0  0  0  0  0
  141.1075  158.6161  136.4642 H   0  0  0  0  0  0  0  0  0  0  0  0
  139.2184  157.3747  133.9747 H   0  0  0  0  0  0  0  0  0  0  0  0
  138.4097  158.9811  133.8019 H   0  0  0  0  0  0  0  0  0  0  0  0
  139.7243  157.5710  131.7730 H   0  0  0  0  0  0  0  0  0  0  0  0
  139.2881  159.3218  131.7559 H   0  0  0  0  0  0  0  0  0  0  0  0
  141.7410  158.3060  131.5220 H   0  0  0  0  0  0  0  0  0  0  0  0
  141.7020  158.6270  133.1650 H   0  0  0  0  0  0  0  0  0  0  0  0
  145.8450  156.1393  133.0581 H   0  0  0  0  0  0  0  0  0  0  0  0
  1  2  1  0
  2  3  2  0
  3  4  1  0
  4  5  2  0
  5  6  1  0
  6  7  2  0
  7  8  1  0
  8  9  1  0
  8 10  2  0
  7 11  1  0
 11 12  1  0
 12 13  2  0
 12 14  1  0
 14 15  1  0
 15 16  1  0
 16 17  1  0
 17 18  1  0
 18 19  1  0
 19 20  1  0
 11 21  1  0
 21 22  2  0
 22  2  1  0
 21  5  1  0
  1 23  1  0
  1 24  1  0
  1 25  1  0
  3 26  1  0
  4 27  1  0
  6 28  1  0
  9 29  1  0
  9 30  1  0
 15 31  1  0
 15 32  1  0
 16 33  1  0
 16 34  1  0
 18 35  1  0
 18 36  1  0
 19 37  1  0
 19 38  1  0
 20 39  1  0
 20 40  1  0
 22 41  1  0
M  END
>  <UniqueID>  (74) 
74

>  <SMILES>  (74) 
Cc1ccc2cc(C(N)=O)n(C(=O)OCCOCCN)c2c1

>  <Energy>  (74) 
75.24234075856498

>  <Genealogy>  (74) 
Cc1ccc2cc(C(N)=O)n(C(=O)OCCOCCN)c2c1 (3D coordinates assigned)
Cc1ccc2cc(C(N)=O)n(C(=O)OCCOCCN)c2c1 (optimized conformer: 75.24234075856498 kcal/mol)

>  <smiles>  (74) 
Cc1ccc2cc(C(N)=O)n(C(=O)OCCOCCN)c2c1

>  <score_type>  (74) 
oracle

>  <origin>  (74) 
adg

>  <m_score__min__energy>  (74) 
-5.29

>  <m_primary>  (74) 
energy

$$$$
78:0
     RDKit          3D

 47 48  0  0  0  0  0  0  0  0999 V2000
  142.0510  157.8600  138.9770 C   0  0  0  0  0  0  0  0  0  0  0  0
  141.1100  157.0610  137.6350 S   0  0  0  0  0  0  0  0  0  0  0  0
  140.2000  158.5590  137.1160 C   0  0  0  0  0  0  0  0  0  0  0  0
  140.8960  159.2090  135.9520 C   0  0  0  0  0  0  0  0  0  0  0  0
  140.9810  160.4280  135.9250 O   0  0  0  0  0  0  0  0  0  0  0  0
  141.5660  158.3690  134.8790 C   0  0  2  0  0  0  0  0  0  0  0  0
  142.9480  158.8270  134.7500 N   0  0  0  0  0  0  0  0  0  0  0  0
  143.9950  158.0920  134.1100 C   0  0  0  0  0  0  0  0  0  0  0  0
  143.8820  156.8520  133.9160 O   0  0  0  0  0  0  0  0  0  0  0  0
  145.2120  158.7620  133.7580 N   0  0  0  0  0  0  0  0  0  0  0  0
  145.4300  160.1010  133.6240 C   0  0  0  0  0  0  0  0  0  0  0  0
  144.4680  161.1770  133.9470 C   0  0  0  0  0  0  0  0  0  0  0  0
  143.1100  161.1040  133.5260 N   0  0  0  0  0  0  0  0  0  0  0  0
  144.8520  162.1760  134.6170 O   0  0  0  0  0  0  0  0  0  0  0  0
  146.7370  160.3360  133.1920 C   0  0  0  0  0  0  0  0  0  0  0  0
  147.3160  159.0920  133.0730 C   0  0  0  0  0  0  0  0  0  0  0  0
  148.6000  158.7330  132.6750 C   0  0  0  0  0  0  0  0  0  0  0  0
  148.9130  157.3630  132.6240 C   0  0  0  0  0  0  0  0  0  0  0  0
  147.9410  156.3820  132.9470 C   0  0  0  0  0  0  0  0  0  0  0  0
  148.3030  154.9210  132.9220 C   0  0  0  0  0  0  0  0  0  0  0  0
  148.4220  154.4590  134.2200 F   0  0  0  0  0  0  0  0  0  0  0  0
  147.3300  154.1840  132.2690 F   0  0  0  0  0  0  0  0  0  0  0  0
  149.5060  154.7300  132.2630 F   0  0  0  0  0  0  0  0  0  0  0  0
  146.6530  156.7910  133.3680 C   0  0  0  0  0  0  0  0  0  0  0  0
  146.3730  158.1600  133.4220 C   0  0  0  0  0  0  0  0  0  0  0  0
  140.8360  158.3600  133.4930 C   0  0  0  0  0  0  0  0  0  0  0  0
  139.2930  158.3850  133.6450 C   0  0  0  0  0  0  0  0  0  0  0  0
  141.2550  157.1200  132.6730 C   0  0  0  0  0  0  0  0  0  0  0  0
  141.2390  159.5160  132.7960 O   0  0  0  0  0  0  0  0  0  0  0  0
  141.6584  157.5266  139.9490 H   0  0  0  0  0  0  0  0  0  0  0  0
  143.1125  157.5831  138.8958 H   0  0  0  0  0  0  0  0  0  0  0  0
  141.9498  158.9523  138.8958 H   0  0  0  0  0  0  0  0  0  0  0  0
  139.1783  158.2795  136.8192 H   0  0  0  0  0  0  0  0  0  0  0  0
  140.1648  159.2681  137.9562 H   0  0  0  0  0  0  0  0  0  0  0  0
  141.5193  157.3191  135.2039 H   0  0  0  0  0  0  0  0  0  0  0  0
  142.3620  160.7780  134.1830 H   0  0  0  0  0  0  0  0  0  0  0  0
  147.2058  161.3103  132.9893 H   0  0  0  0  0  0  0  0  0  0  0  0
  149.3462  159.4962  132.4089 H   0  0  0  0  0  0  0  0  0  0  0  0
  149.9250  157.0481  132.3297 H   0  0  0  0  0  0  0  0  0  0  0  0
  145.8900  156.0491  133.6462 H   0  0  0  0  0  0  0  0  0  0  0  0
  139.0298  158.3893  134.7130 H   0  0  0  0  0  0  0  0  0  0  0  0
  138.8919  159.2898  133.1649 H   0  0  0  0  0  0  0  0  0  0  0  0
  138.8628  157.4937  133.1649 H   0  0  0  0  0  0  0  0  0  0  0  0
  141.5307  156.3040  133.3572 H   0  0  0  0  0  0  0  0  0  0  0  0
  140.4155  156.7989  132.0389 H   0  0  0  0  0  0  0  0  0  0  0  0
  142.1172  157.3739  132.0389 H   0  0  0  0  0  0  0  0  0  0  0  0
  142.0770  159.8570  133.2070 H   0  0  0  0  0  0  0  0  0  0  0  0
  1  2  1  0
  2  3  1  0
  3  4  1  0
  4  5  2  0
  4  6  1  0
  6  7  1  0
  7  8  1  0
  8  9  2  0
  8 10  1  0
 10 11  1  0
 11 12  1  0
 12 13  1  0
 12 14  2  0
 11 15  2  0
 15 16  1  0
 16 17  2  0
 17 18  1  0
 18 19  2  0
 19 20  1  0
 20 21  1  0
 20 22  1  0
 20 23  1  0
 19 24  1  0
 24 25  2  0
  6 26  1  0
 26 27  1  0
 26 28  1  0
 26 29  1  0
 25 10  1  0
 25 16  1  0
  1 30  1  0
  1 31  1  0
  1 32  1  0
  3 33  1  0
  3 34  1  0
  6 35  1  1
 13 36  1  0
 15 37  1  0
 17 38  1  0
 18 39  1  0
 24 40  1  0
 27 41  1  0
 27 42  1  0
 27 43  1  0
 28 44  1  0
 28 45  1  0
 28 46  1  0
 29 47  1  0
M  CHG  2   7  -1  13  -1
M  END
>  <UniqueID>  (75) 
75

>  <SMILES>  (75) 
CSCC(=O)[C@H]([N-]C(=O)n1c(C([NH-])=O)cc2ccc(C(F)(F)F)cc21)C(C)(C)O

>  <Energy>  (75) 
80.95884932155289

>  <Genealogy>  (75) 
CSCC(=O)C([N-]C(=O)n1c(C([NH-])=O)cc2ccc(C(F)(F)F)cc21)C(C)(C)O (protonated)
CSCC(=O)[C@H]([N-]C(=O)n1c(C([NH-])=O)cc2ccc(C(F)(F)F)cc21)C(C)(C)O (chirality)
CSCC(=O)[C@H]([N-]C(=O)n1c(C([NH-])=O)cc2ccc(C(F)(F)F)cc21)C(C)(C)O (3D coordinates assigned)
CSCC(=O)[C@H]([N-]C(=O)n1c(C([NH-])=O)cc2ccc(C(F)(F)F)cc21)C(C)(C)O (optimized conformer: 80.95884932155289 kcal/mol)

>  <smiles>  (75) 
CSCC(=O)C(NC(=O)n1c(C(N)=O)cc2ccc(C(F)(F)F)cc21)C(C)(C)O

>  <score_type>  (75) 
oracle

>  <origin>  (75) 
adg

>  <m_score__min__energy>  (75) 
-7.1100000000000003

>  <m_primary>  (75) 
energy

$$$$
79:0
     RDKit          3D

 32 33  0  0  0  0  0  0  0  0999 V2000
  137.6180  160.3320  131.3680 N   0  0  0  0  0  0  0  0  0  0  0  0
  138.8640  160.3330  132.0600 C   0  0  0  0  0  0  0  0  0  0  0  0
  139.4880  161.4180  132.2030 O   0  0  0  0  0  0  0  0  0  0  0  0
  139.4590  159.0750  132.5580 C   0  0  0  0  0  0  0  0  0  0  0  0
  139.0180  157.8140  132.1640 C   0  0  0  0  0  0  0  0  0  0  0  0
  139.7540  156.9210  132.9100 C   0  0  0  0  0  0  0  0  0  0  0  0
  139.7400  155.5290  132.9090 C   0  0  0  0  0  0  0  0  0  0  0  0
  140.6370  154.8620  133.7570 C   0  0  0  0  0  0  0  0  0  0  0  0
  141.5240  155.5910  134.5880 C   0  0  0  0  0  0  0  0  0  0  0  0
  142.5180  154.8640  135.4500 C   0  0  0  0  0  0  0  0  0  0  0  0
  141.9860  153.5150  135.8130 C   0  0  0  0  0  0  0  0  0  0  0  0
  142.0130  152.5820  134.9650 O   0  0  0  0  0  0  0  0  0  0  0  0
  141.4000  153.3100  137.1020 N   0  0  0  0  0  0  0  0  0  0  0  0
  141.6240  152.1130  137.9060 C   0  0  0  0  0  0  0  0  0  0  0  0
  140.6340  151.0550  137.5410 C   0  0  0  0  0  0  0  0  0  0  0  0
  140.6140  150.5830  136.3740 O   0  0  0  0  0  0  0  0  0  0  0  0
  139.7550  150.5640  138.4980 O   0  0  0  0  0  0  0  0  0  0  0  0
  141.5180  157.0020  134.5530 C   0  0  0  0  0  0  0  0  0  0  0  0
  140.6010  157.6430  133.7120 C   0  0  0  0  0  0  0  0  0  0  0  0
  140.4340  158.9680  133.5050 N   0  0  0  0  0  0  0  0  0  0  0  0
  141.2040  160.0240  134.1020 C   0  0  0  0  0  0  0  0  0  0  0  0
  141.9900  160.7140  133.4000 O   0  0  0  0  0  0  0  0  0  0  0  0
  141.1100  160.2760  135.4660 O   0  0  0  0  0  0  0  0  0  0  0  0
  137.0960  161.2200  131.2010 H   0  0  0  0  0  0  0  0  0  0  0  0
  138.2459  157.5811  131.4159 H   0  0  0  0  0  0  0  0  0  0  0  0
  139.0472  154.9694  132.2634 H   0  0  0  0  0  0  0  0  0  0  0  0
  140.6520  153.7623  133.7771 H   0  0  0  0  0  0  0  0  0  0  0  0
  143.4625  154.7472  134.8984 H   0  0  0  0  0  0  0  0  0  0  0  0
  142.6930  155.4435  136.3685 H   0  0  0  0  0  0  0  0  0  0  0  0
  142.6416  151.7374  137.7232 H   0  0  0  0  0  0  0  0  0  0  0  0
  141.5034  152.3666  138.9696 H   0  0  0  0  0  0  0  0  0  0  0  0
  142.2171  157.5838  135.1717 H   0  0  0  0  0  0  0  0  0  0  0  0
  1  2  1  0
  2  3  2  0
  2  4  1  0
  4  5  2  0
  5  6  1  0
  6  7  2  0
  7  8  1  0
  8  9  2  0
  9 10  1  0
 10 11  1  0
 11 12  2  0
 11 13  1  0
 13 14  1  0
 14 15  1  0
 15 16  2  0
 15 17  1  0
  9 18  1  0
 18 19  2  0
 19 20  1  0
 20 21  1  0
 21 22  2  0
 21 23  1  0
 20  4  1  0
 19  6  1  0
  1 24  1  0
  5 25  1  0
  7 26  1  0
  8 27  1  0
 10 28  1  0
 10 29  1  0
 14 30  1  0
 14 31  1  0
 18 32  1  0
M  CHG  4   1  -1  13  -1  17  -1  23  -1
M  END
>  <UniqueID>  (76) 
76

>  <SMILES>  (76) 
[NH-]C(=O)c1cc2ccc(CC(=O)[N-]CC(=O)[O-])cc2n1C(=O)[O-]

>  <Energy>  (76) 
67.16588678770437

>  <Genealogy>  (76) 
[NH-]C(=O)c1cc2ccc(CC(=O)[N-]CC(=O)[O-])cc2n1C(=O)[O-] (protonated)
[NH-]C(=O)c1cc2ccc(CC(=O)[N-]CC(=O)[O-])cc2n1C(=O)[O-] (3D coordinates assigned)
[NH-]C(=O)c1cc2ccc(CC(=O)[N-]CC(=O)[O-])cc2n1C(=O)[O-] (optimized conformer: 67.16588678770437 kcal/mol)

>  <smiles>  (76) 
NC(=O)c1cc2ccc(CC(=O)NCC(=O)O)cc2n1C(=O)O

>  <score_type>  (76) 
oracle

>  <origin>  (76) 
adg

>  <m_score__min__energy>  (76) 
-7.0499999999999998

>  <m_primary>  (76) 
energy

$$$$
80:0
     RDKit          3D

 46 48  0  0  0  0  0  0  0  0999 V2000
  143.8406  155.7436  134.5706 H   0  0  0  0  0  0  0  0  0  0  0  0
  144.7600  155.4190  135.0800 C   0  0  0  0  0  0  0  0  0  0  0  0
  144.6966  154.8239  136.0030 H   0  0  0  0  0  0  0  0  0  0  0  0
  145.9480  155.7460  134.5800 C   0  0  0  0  0  0  0  0  0  0  0  0
  147.4150  155.1970  135.4410 S   0  0  0  0  0  0  0  0  0  0  0  0
  147.8730  154.0530  134.1510 C   0  0  0  0  0  0  0  0  0  0  0  0
  147.4430  153.0408  134.1275 H   0  0  0  0  0  0  0  0  0  0  0  0
  148.7090  154.4230  133.2510 N   0  0  0  0  0  0  0  0  0  0  0  0
  149.2180  153.5160  132.2660 C   0  0  0  0  0  0  0  0  0  0  0  0
  149.6973  152.6620  132.7669 H   0  0  0  0  0  0  0  0  0  0  0  0
  148.3906  153.1552  131.6374 H   0  0  0  0  0  0  0  0  0  0  0  0
  149.9570  154.0343  131.6374 H   0  0  0  0  0  0  0  0  0  0  0  0
  146.0750  156.5360  133.3400 C   0  0  0  0  0  0  0  0  0  0  0  0
  146.2770  155.9440  132.2430 O   0  0  0  0  0  0  0  0  0  0  0  0
  145.9710  157.9680  133.3690 N   0  0  0  0  0  0  0  0  0  0  0  0
  146.9850  158.8750  133.3520 C   0  0  0  0  0  0  0  0  0  0  0  0
  148.4110  158.5650  133.1620 C   0  0  0  0  0  0  0  0  0  0  0  0
  149.2440  159.5000  133.0440 O   0  0  0  0  0  0  0  0  0  0  0  0
  148.8570  157.2100  133.0670 N   0  0  0  0  0  0  0  0  0  0  0  0
  149.8790  156.9970  133.0510 H   0  0  0  0  0  0  0  0  0  0  0  0
  148.1770  156.4180  133.0340 H   0  0  0  0  0  0  0  0  0  0  0  0
  146.4830  160.1680  133.5010 C   0  0  0  0  0  0  0  0  0  0  0  0
  147.0560  161.1063  133.5374 H   0  0  0  0  0  0  0  0  0  0  0  0
  145.1150  160.0190  133.5930 C   0  0  0  0  0  0  0  0  0  0  0  0
  144.1080  160.9720  133.7350 C   0  0  0  0  0  0  0  0  0  0  0  0
  144.3469  162.0446  133.7855 H   0  0  0  0  0  0  0  0  0  0  0  0
  142.7760  160.5220  133.8120 C   0  0  0  0  0  0  0  0  0  0  0  0
  141.9599  161.2536  133.9051 H   0  0  0  0  0  0  0  0  0  0  0  0
  142.4740  159.1380  133.7710 C   0  0  0  0  0  0  0  0  0  0  0  0
  141.1100  158.6810  133.8500 N   0  0  0  0  0  0  0  0  0  0  0  0
  140.2970  158.6570  132.6230 C   0  0  0  0  0  0  0  0  0  0  0  0
  140.3858  159.6315  132.1206 H   0  0  0  0  0  0  0  0  0  0  0  0
  140.6717  157.8416  131.9868 H   0  0  0  0  0  0  0  0  0  0  0  0
  138.8150  158.3840  132.9120 C   0  0  0  0  0  0  0  0  0  0  0  0
  138.3417  159.3116  133.2663 H   0  0  0  0  0  0  0  0  0  0  0  0
  138.3378  158.0349  131.9844 H   0  0  0  0  0  0  0  0  0  0  0  0
  138.6630  157.3860  133.8950 O   0  0  0  0  0  0  0  0  0  0  0  0
  139.1200  157.8890  135.1310 C   0  0  0  0  0  0  0  0  0  0  0  0
  138.6337  158.8556  135.3292 H   0  0  0  0  0  0  0  0  0  0  0  0
  138.8692  157.1657  135.9209 H   0  0  0  0  0  0  0  0  0  0  0  0
  140.6400  158.0860  135.1090 C   0  0  0  0  0  0  0  0  0  0  0  0
  140.9223  158.7491  135.9400 H   0  0  0  0  0  0  0  0  0  0  0  0
  141.1079  157.0953  135.2068 H   0  0  0  0  0  0  0  0  0  0  0  0
  143.5220  158.2020  133.6370 C   0  0  0  0  0  0  0  0  0  0  0  0
  143.3132  157.1221  133.6238 H   0  0  0  0  0  0  0  0  0  0  0  0
  144.8360  158.6800  133.5210 C   0  0  0  0  0  0  0  0  0  0  0  0
  1  2  1  0
  2  3  1  0
  2  4  2  0
  4  5  1  0
  5  6  1  0
  6  7  1  0
  6  8  2  0
  8  9  1  0
  9 10  1  0
  9 11  1  0
  9 12  1  0
  4 13  1  0
 13 14  2  0
 13 15  1  0
 15 16  1  0
 16 17  1  0
 17 18  2  0
 17 19  1  0
 19 20  1  0
 19 21  1  0
 16 22  2  0
 22 23  1  0
 22 24  1  0
 24 25  2  0
 25 26  1  0
 25 27  1  0
 27 28  1  0
 27 29  2  0
 29 30  1  0
 30 31  1  0
 31 32  1  0
 31 33  1  0
 31 34  1  0
 34 35  1  0
 34 36  1  0
 34 37  1  0
 37 38  1  0
 38 39  1  0
 38 40  1  0
 38 41  1  0
 41 42  1  0
 41 43  1  0
 29 44  1  0
 44 45  1  0
 44 46  2  0
 46 15  1  0
 46 24  1  0
 41 30  1  0
M  END
>  <UniqueID>  (77) 
77

>  <SMILES>  (77) 
C=C(S/C=N/C)C(=O)n1c(C(N)=O)cc2ccc(N3CCOCC3)cc21

>  <Energy>  (77) 
88.47875810859749

>  <Genealogy>  (77) 
C=C(S/C=N/C)C(=O)n1c(C(N)=O)cc2ccc(N3CCOCC3)cc21 (cis-trans isomerization)
C=C(S/C=N/C)C(=O)n1c(C(N)=O)cc2ccc(N3CCOCC3)cc21 (3D coordinates assigned)
C=C(S/C=N/C)C(=O)n1c(C(N)=O)cc2ccc(N3CCOCC3)cc21 (nonaromatic ring conformer: 88.47875810859749 kcal/mol)

>  <smiles>  (77) 
C=C(S/C=N/C)C(=O)n1c(C(N)=O)cc2ccc(N3CCOCC3)cc21

>  <score_type>  (77) 
oracle

>  <origin>  (77) 
adg

>  <m_score__min__energy>  (77) 
-8.1799999999999997

>  <m_primary>  (77) 
energy

$$$$
81:0
     RDKit          3D

 36 37  0  0  0  0  0  0  0  0999 V2000
  145.0890  161.8640  134.1760 C   0  0  0  0  0  0  0  0  0  0  0  0
  144.8470  160.4500  133.8670 N   0  0  0  0  0  0  0  0  0  0  0  0
  143.4700  159.9390  133.9120 C   0  0  0  0  0  0  0  0  0  0  0  0
  145.9490  159.5690  133.5240 C   0  0  0  0  0  0  0  0  0  0  0  0
  147.1520  160.0910  132.9670 C   0  0  0  0  0  0  0  0  0  0  0  0
  148.2210  159.2470  132.6240 C   0  0  0  0  0  0  0  0  0  0  0  0
  148.0740  157.8840  132.8490 C   0  0  0  0  0  0  0  0  0  0  0  0
  148.9400  156.8430  132.5950 C   0  0  0  0  0  0  0  0  0  0  0  0
  148.2680  155.6950  133.0130 C   0  0  0  0  0  0  0  0  0  0  0  0
  148.8600  154.3420  132.9850 C   0  0  0  0  0  0  0  0  0  0  0  0
  148.2950  153.2770  133.7450 N   0  0  0  0  0  0  0  0  0  0  0  0
  149.9000  154.1280  132.3050 O   0  0  0  0  0  0  0  0  0  0  0  0
  147.0370  156.0160  133.4980 N   0  0  0  0  0  0  0  0  0  0  0  0
  146.0080  155.1300  133.9580 C   0  0  0  0  0  0  0  0  0  0  0  0
  145.1920  154.6370  133.1330 O   0  0  0  0  0  0  0  0  0  0  0  0
  145.9610  154.6970  135.3900 C   0  0  0  0  0  0  0  0  0  0  0  0
  147.2060  154.9710  135.9840 O   0  0  0  0  0  0  0  0  0  0  0  0
  147.5370  153.7530  137.1290 P   0  0  0  0  0  0  0  0  0  0  0  0
  148.7990  153.0120  136.7480 O   0  0  0  0  0  0  0  0  0  0  0  0
  146.2440  152.6640  137.1600 O   0  0  0  0  0  0  0  0  0  0  0  0
  147.7210  154.4290  138.6700 O   0  0  0  0  0  0  0  0  0  0  0  0
  146.9350  157.3580  133.3940 C   0  0  0  0  0  0  0  0  0  0  0  0
  145.8490  158.1690  133.7360 C   0  0  0  0  0  0  0  0  0  0  0  0
  145.1126  162.0021  135.2670 H   0  0  0  0  0  0  0  0  0  0  0  0
  146.0532  162.1734  133.7463 H   0  0  0  0  0  0  0  0  0  0  0  0
  144.2826  162.4764  133.7463 H   0  0  0  0  0  0  0  0  0  0  0  0
  143.1562  159.8225  134.9598 H   0  0  0  0  0  0  0  0  0  0  0  0
  142.7990  160.6480  133.4049 H   0  0  0  0  0  0  0  0  0  0  0  0
  143.4240  158.9639  133.4049 H   0  0  0  0  0  0  0  0  0  0  0  0
  147.2453  161.1746  132.8026 H   0  0  0  0  0  0  0  0  0  0  0  0
  149.1467  159.6530  132.1902 H   0  0  0  0  0  0  0  0  0  0  0  0
  149.9468  156.9044  132.1561 H   0  0  0  0  0  0  0  0  0  0  0  0
  148.0460  153.4070  134.7510 H   0  0  0  0  0  0  0  0  0  0  0  0
  145.1693  155.2488  135.9180 H   0  0  0  0  0  0  0  0  0  0  0  0
  145.7458  153.6199  135.4494 H   0  0  0  0  0  0  0  0  0  0  0  0
  144.9342  157.7306  134.1614 H   0  0  0  0  0  0  0  0  0  0  0  0
  1  2  1  0
  2  3  1  0
  2  4  1  0
  4  5  2  0
  5  6  1  0
  6  7  2  0
  7  8  1  0
  8  9  2  0
  9 10  1  0
 10 11  1  0
 10 12  2  0
  9 13  1  0
 13 14  1  0
 14 15  2  0
 14 16  1  0
 16 17  1  0
 17 18  1  0
 18 19  2  0
 18 20  1  0
 18 21  1  0
 13 22  1  0
 22 23  2  0
 23  4  1  0
 22  7  1  0
  1 24  1  0
  1 25  1  0
  1 26  1  0
  3 27  1  0
  3 28  1  0
  3 29  1  0
  5 30  1  0
  6 31  1  0
  8 32  1  0
 11 33  1  0
 16 34  1  0
 16 35  1  0
 23 36  1  0
M  CHG  3  11  -1  20  -1  21  -1
M  END
>  <UniqueID>  (78) 
78

>  <SMILES>  (78) 
CN(C)c1ccc2cc(C([NH-])=O)n(C(=O)COP(=O)([O-])[O-])c2c1

>  <Energy>  (78) 
75.35589082970013

>  <Genealogy>  (78) 
CN(C)c1ccc2cc(C([NH-])=O)n(C(=O)COP(=O)([O-])[O-])c2c1 (protonated)
CN(C)c1ccc2cc(C([NH-])=O)n(C(=O)COP(=O)([O-])[O-])c2c1 (3D coordinates assigned)
CN(C)c1ccc2cc(C([NH-])=O)n(C(=O)COP(=O)([O-])[O-])c2c1 (optimized conformer: 75.35589082970013 kcal/mol)

>  <smiles>  (78) 
CN(C)c1ccc2cc(C(N)=O)n(C(=O)COP(=O)(O)O)c2c1

>  <score_type>  (78) 
oracle

>  <origin>  (78) 
adg

>  <m_score__min__energy>  (78) 
-6.3799999999999999

>  <m_primary>  (78) 
energy

$$$$
82:0
     RDKit          3D

 32 33  0  0  0  0  0  0  0  0999 V2000
  146.5530  154.4820  135.7790 C   0  0  0  0  0  0  0  0  0  0  0  0
  145.8360  154.1130  134.6090 O   0  0  0  0  0  0  0  0  0  0  0  0
  145.9550  154.8080  133.4010 C   0  0  0  0  0  0  0  0  0  0  0  0
  145.0350  154.7480  132.5400 O   0  0  0  0  0  0  0  0  0  0  0  0
  147.1170  155.6130  133.1530 N   0  0  0  0  0  0  0  0  0  0  0  0
  148.3860  155.1920  132.8830 C   0  0  0  0  0  0  0  0  0  0  0  0
  148.8720  153.7980  132.9480 C   0  0  0  0  0  0  0  0  0  0  0  0
  148.4350  152.9150  133.9770 N   0  0  0  0  0  0  0  0  0  0  0  0
  149.7240  153.3950  132.1110 O   0  0  0  0  0  0  0  0  0  0  0  0
  149.2130  156.2790  132.6090 C   0  0  0  0  0  0  0  0  0  0  0  0
  148.4080  157.3890  132.7290 C   0  0  0  0  0  0  0  0  0  0  0  0
  148.7100  158.7350  132.5560 C   0  0  0  0  0  0  0  0  0  0  0  0
  147.6740  159.6700  132.7150 C   0  0  0  0  0  0  0  0  0  0  0  0
  146.3550  159.2460  133.0340 C   0  0  0  0  0  0  0  0  0  0  0  0
  145.2730  160.1840  133.1910 N   0  0  0  0  0  0  0  0  0  0  0  0
  143.9410  159.8370  133.6880 C   0  0  0  0  0  0  0  0  0  0  0  0
  143.0660  161.0500  133.7390 C   0  0  0  0  0  0  0  0  0  0  0  0
  143.5610  162.1950  133.5660 O   0  0  0  0  0  0  0  0  0  0  0  0
  141.7010  160.9170  133.9590 O   0  0  0  0  0  0  0  0  0  0  0  0
  146.0930  157.8670  133.2040 C   0  0  0  0  0  0  0  0  0  0  0  0
  147.1490  156.9610  133.0580 C   0  0  0  0  0  0  0  0  0  0  0  0
  145.9787  154.1865  136.6694 H   0  0  0  0  0  0  0  0  0  0  0  0
  147.5286  153.9740  135.7867 H   0  0  0  0  0  0  0  0  0  0  0  0
  146.7067  155.5712  135.7867 H   0  0  0  0  0  0  0  0  0  0  0  0
  147.4220  152.7080  134.1120 H   0  0  0  0  0  0  0  0  0  0  0  0
  150.2822  156.2553  132.3514 H   0  0  0  0  0  0  0  0  0  0  0  0
  149.7303  159.0582  132.3021 H   0  0  0  0  0  0  0  0  0  0  0  0
  147.8855  160.7424  132.5913 H   0  0  0  0  0  0  0  0  0  0  0  0
  145.4390  161.1850  132.9380 H   0  0  0  0  0  0  0  0  0  0  0  0
  143.4876  159.0920  133.0176 H   0  0  0  0  0  0  0  0  0  0  0  0
  144.0372  159.4258  134.7037 H   0  0  0  0  0  0  0  0  0  0  0  0
  145.0798  157.5138  133.4461 H   0  0  0  0  0  0  0  0  0  0  0  0
  1  2  1  0
  2  3  1  0
  3  4  2  0
  3  5  1  0
  5  6  1  0
  6  7  1  0
  7  8  1  0
  7  9  2  0
  6 10  2  0
 10 11  1  0
 11 12  2  0
 12 13  1  0
 13 14  2  0
 14 15  1  0
 15 16  1  0
 16 17  1  0
 17 18  2  0
 17 19  1  0
 14 20  1  0
 20 21  2  0
 21  5  1  0
 21 11  1  0
  1 22  1  0
  1 23  1  0
  1 24  1  0
  8 25  1  0
 10 26  1  0
 12 27  1  0
 13 28  1  0
 15 29  1  0
 16 30  1  0
 16 31  1  0
 20 32  1  0
M  CHG  2   8  -1  19  -1
M  END
>  <UniqueID>  (79) 
79

>  <SMILES>  (79) 
COC(=O)n1c(C([NH-])=O)cc2ccc(NCC(=O)[O-])cc21

>  <Energy>  (79) 
68.62001868834533

>  <Genealogy>  (79) 
COC(=O)n1c(C([NH-])=O)cc2ccc(NCC(=O)[O-])cc21 (protonated)
COC(=O)n1c(C([NH-])=O)cc2ccc(NCC(=O)[O-])cc21 (3D coordinates assigned)
COC(=O)n1c(C([NH-])=O)cc2ccc(NCC(=O)[O-])cc21 (optimized conformer: 68.62001868834533 kcal/mol)

>  <smiles>  (79) 
COC(=O)n1c(C(N)=O)cc2ccc(NCC(=O)O)cc21

>  <score_type>  (79) 
oracle

>  <origin>  (79) 
adg

>  <m_score__min__energy>  (79) 
-5.5499999999999998

>  <m_primary>  (79) 
energy

$$$$
83:0
     RDKit          3D

 35 37  0  0  0  0  0  0  0  0999 V2000
  148.9500  158.2370  131.8350 N   0  0  0  0  0  0  0  0  0  0  0  0
  148.4230  158.7650  133.0500 C   0  0  0  0  0  0  0  0  0  0  0  0
  149.2110  159.0700  133.9830 O   0  0  0  0  0  0  0  0  0  0  0  0
  146.9710  159.0020  133.1770 C   0  0  0  0  0  0  0  0  0  0  0  0
  146.4190  160.2700  133.3530 C   0  0  0  0  0  0  0  0  0  0  0  0
  145.0720  160.0600  133.5330 C   0  0  0  0  0  0  0  0  0  0  0  0
  144.0450  160.9720  133.7470 C   0  0  0  0  0  0  0  0  0  0  0  0
  142.7390  160.4760  133.8830 C   0  0  0  0  0  0  0  0  0  0  0  0
  142.4750  159.0820  133.8050 C   0  0  0  0  0  0  0  0  0  0  0  0
  141.1220  158.5860  133.9270 N   0  0  0  0  0  0  0  0  0  0  0  0
  140.6560  158.0320  135.2110 C   0  0  0  0  0  0  0  0  0  0  0  0
  140.9660  158.9610  136.3440 C   0  0  0  0  0  0  0  0  0  0  0  0
  140.6130  160.1690  136.2870 O   0  0  0  0  0  0  0  0  0  0  0  0
  141.6630  158.5040  137.4550 O   0  0  0  0  0  0  0  0  0  0  0  0
  140.3440  158.4010  132.6890 C   0  0  0  0  0  0  0  0  0  0  0  0
  139.5960  159.6530  132.2560 C   0  0  0  0  0  0  0  0  0  0  0  0
  138.8220  158.4680  132.7980 C   0  0  0  0  0  0  0  0  0  0  0  0
  143.5520  158.1880  133.5820 C   0  0  0  0  0  0  0  0  0  0  0  0
  144.8440  158.7110  133.4610 C   0  0  0  0  0  0  0  0  0  0  0  0
  145.9980  158.0460  133.2320 N   0  0  0  0  0  0  0  0  0  0  0  0
  146.1160  156.6290  133.0180 C   0  0  0  0  0  0  0  0  0  0  0  0
  147.1740  156.1280  132.5550 O   0  0  0  0  0  0  0  0  0  0  0  0
  148.6500  157.3020  131.4810 H   0  0  0  0  0  0  0  0  0  0  0  0
  146.9487  161.2341  133.3488 H   0  0  0  0  0  0  0  0  0  0  0  0
  144.2498  162.0510  133.8080 H   0  0  0  0  0  0  0  0  0  0  0  0
  141.9080  161.1765  134.0524 H   0  0  0  0  0  0  0  0  0  0  0  0
  139.5682  157.8765  135.1614 H   0  0  0  0  0  0  0  0  0  0  0  0
  141.1754  157.0788  135.3890 H   0  0  0  0  0  0  0  0  0  0  0  0
  141.0405  157.6812  132.2344 H   0  0  0  0  0  0  0  0  0  0  0  0
  139.6771  160.5744  132.8514 H   0  0  0  0  0  0  0  0  0  0  0  0
  139.5533  160.2509  131.3337 H   0  0  0  0  0  0  0  0  0  0  0  0
  138.3435  158.5292  133.7866 H   0  0  0  0  0  0  0  0  0  0  0  0
  137.9881  157.8507  132.4326 H   0  0  0  0  0  0  0  0  0  0  0  0
  143.3756  157.1049  133.5056 H   0  0  0  0  0  0  0  0  0  0  0  0
  145.2682  155.9723  133.2628 H   0  0  0  0  0  0  0  0  0  0  0  0
  1  2  1  0
  2  3  2  0
  2  4  1  0
  4  5  2  0
  5  6  1  0
  6  7  2  0
  7  8  1  0
  8  9  2  0
  9 10  1  0
 10 11  1  0
 11 12  1  0
 12 13  2  0
 12 14  1  0
 10 15  1  0
 15 16  1  0
 16 17  1  0
  9 18  1  0
 18 19  2  0
 19 20  1  0
 20 21  1  0
 21 22  2  0
 20  4  1  0
 19  6  1  0
 17 15  1  0
  1 23  1  0
  5 24  1  0
  7 25  1  0
  8 26  1  0
 11 27  1  0
 11 28  1  0
 15 29  1  0
 16 30  1  0
 16 31  1  0
 17 32  1  0
 17 33  1  0
 18 34  1  0
 21 35  1  0
M  CHG  2   1  -1  14  -1
M  END
>  <UniqueID>  (80) 
80

>  <SMILES>  (80) 
[NH-]C(=O)c1cc2ccc(N(CC(=O)[O-])C3CC3)cc2n1C=O

>  <Energy>  (80) 
344.9376512675966

>  <Genealogy>  (80) 
[NH-]C(=O)c1cc2ccc(N(CC(=O)[O-])C3CC3)cc2n1C=O (protonated)
[NH-]C(=O)c1cc2ccc(N(CC(=O)[O-])C3CC3)cc2n1C=O (3D coordinates assigned)
[NH-]C(=O)c1cc2ccc(N(CC(=O)[O-])C3CC3)cc2n1C=O (nonaromatic ring conformer: 344.9376512675966 kcal/mol)

>  <smiles>  (80) 
NC(=O)c1cc2ccc(N(CC(=O)O)C3CC3)cc2n1C=O

>  <score_type>  (80) 
oracle

>  <origin>  (80) 
adg

>  <m_score__min__energy>  (80) 
-6.5

>  <m_primary>  (80) 
energy

$$$$
84:0
     RDKit          3D

 41 42  0  0  0  0  0  0  0  0999 V2000
  148.6230  154.4330  132.6060 C   0  0  0  0  0  0  0  0  0  0  0  0
  147.7680  155.0220  133.6430 N   0  0  0  0  0  0  0  0  0  0  0  0
  147.2340  154.1530  134.7000 C   0  0  0  0  0  0  0  0  0  0  0  0
  147.4520  156.4390  133.6250 C   0  0  0  0  0  0  0  0  0  0  0  0
  148.4890  157.4130  133.5450 C   0  0  0  0  0  0  0  0  0  0  0  0
  148.1940  158.7860  133.5170 C   0  0  0  0  0  0  0  0  0  0  0  0
  146.8600  159.1690  133.5790 C   0  0  0  0  0  0  0  0  0  0  0  0
  146.2970  160.4250  133.5500 C   0  0  0  0  0  0  0  0  0  0  0  0
  144.9220  160.2140  133.6360 C   0  0  0  0  0  0  0  0  0  0  0  0
  143.9340  161.3090  133.7340 C   0  0  0  0  0  0  0  0  0  0  0  0
  142.5350  161.0380  133.7140 N   0  0  0  0  0  0  0  0  0  0  0  0
  144.3310  162.4960  133.8830 O   0  0  0  0  0  0  0  0  0  0  0  0
  144.6480  158.8810  133.7030 N   0  0  0  0  0  0  0  0  0  0  0  0
  143.3610  158.2470  133.7300 C   0  0  0  0  0  0  0  0  0  0  0  0
  142.7920  157.9330  132.6490 O   0  0  0  0  0  0  0  0  0  0  0  0
  142.7520  157.9680  134.9580 O   0  0  0  0  0  0  0  0  0  0  0  0
  142.1900  158.9790  135.7930 C   0  0  0  0  0  0  0  0  0  0  0  0
  140.8990  159.3380  135.3460 O   0  0  0  0  0  0  0  0  0  0  0  0
  140.1210  158.1790  135.1330 C   0  0  0  0  0  0  0  0  0  0  0  0
  139.7230  158.1120  133.6620 C   0  0  0  0  0  0  0  0  0  0  0  0
  140.4420  159.0590  132.9180 O   0  0  0  0  0  0  0  0  0  0  0  0
  145.8450  158.2550  133.6730 C   0  0  0  0  0  0  0  0  0  0  0  0
  146.1060  156.8810  133.6840 C   0  0  0  0  0  0  0  0  0  0  0  0
  149.4402  153.8700  133.0807 H   0  0  0  0  0  0  0  0  0  0  0  0
  148.0253  153.7541  131.9800 H   0  0  0  0  0  0  0  0  0  0  0  0
  149.0444  155.2333  131.9800 H   0  0  0  0  0  0  0  0  0  0  0  0
  147.4914  154.5719  135.6840 H   0  0  0  0  0  0  0  0  0  0  0  0
  146.1401  154.0884  134.6038 H   0  0  0  0  0  0  0  0  0  0  0  0
  147.6705  153.1479  134.6038 H   0  0  0  0  0  0  0  0  0  0  0  0
  149.5379  157.0842  133.5045 H   0  0  0  0  0  0  0  0  0  0  0  0
  148.9957  159.5360  133.4480 H   0  0  0  0  0  0  0  0  0  0  0  0
  146.8207  161.3894  133.4750 H   0  0  0  0  0  0  0  0  0  0  0  0
  142.1760  160.0590  133.7640 H   0  0  0  0  0  0  0  0  0  0  0  0
  142.1224  158.5995  136.8232 H   0  0  0  0  0  0  0  0  0  0  0  0
  142.8366  159.8681  135.7543 H   0  0  0  0  0  0  0  0  0  0  0  0
  140.7079  157.2870  135.3973 H   0  0  0  0  0  0  0  0  0  0  0  0
  139.2187  158.2163  135.7610 H   0  0  0  0  0  0  0  0  0  0  0  0
  139.9389  157.1058  133.2734 H   0  0  0  0  0  0  0  0  0  0  0  0
  138.6483  158.3288  133.5726 H   0  0  0  0  0  0  0  0  0  0  0  0
  141.2810  159.2330  133.4180 H   0  0  0  0  0  0  0  0  0  0  0  0
  145.2810  156.1554  133.7375 H   0  0  0  0  0  0  0  0  0  0  0  0
  1  2  1  0
  2  3  1  0
  2  4  1  0
  4  5  2  0
  5  6  1  0
  6  7  2  0
  7  8  1  0
  8  9  2  0
  9 10  1  0
 10 11  1  0
 10 12  2  0
  9 13  1  0
 13 14  1  0
 14 15  2  0
 14 16  1  0
 16 17  1  0
 17 18  1  0
 18 19  1  0
 19 20  1  0
 20 21  1  0
 13 22  1  0
 22 23  2  0
 23  4  1  0
 22  7  1  0
  1 24  1  0
  1 25  1  0
  1 26  1  0
  3 27  1  0
  3 28  1  0
  3 29  1  0
  5 30  1  0
  6 31  1  0
  8 32  1  0
 11 33  1  0
 17 34  1  0
 17 35  1  0
 19 36  1  0
 19 37  1  0
 20 38  1  0
 20 39  1  0
 21 40  1  0
 23 41  1  0
M  CHG  1  11  -1
M  END
>  <UniqueID>  (81) 
81

>  <SMILES>  (81) 
CN(C)c1ccc2cc(C([NH-])=O)n(C(=O)OCOCCO)c2c1

>  <Energy>  (81) 
78.46344422695009

>  <Genealogy>  (81) 
CN(C)c1ccc2cc(C([NH-])=O)n(C(=O)OCOCCO)c2c1 (protonated)
CN(C)c1ccc2cc(C([NH-])=O)n(C(=O)OCOCCO)c2c1 (3D coordinates assigned)
CN(C)c1ccc2cc(C([NH-])=O)n(C(=O)OCOCCO)c2c1 (optimized conformer: 78.46344422695009 kcal/mol)

>  <smiles>  (81) 
CN(C)c1ccc2cc(C(N)=O)n(C(=O)OCOCCO)c2c1

>  <score_type>  (81) 
oracle

>  <origin>  (81) 
adg

>  <m_score__min__energy>  (81) 
-4.9299999999999997

>  <m_primary>  (81) 
energy

$$$$
85:0
     RDKit          3D

 44 45  0  0  0  0  0  0  0  0999 V2000
  142.0790  159.9410  133.7160 N   0  0  0  0  0  0  0  0  0  0  0  0
  143.4140  160.4380  133.6260 C   0  0  0  0  0  0  0  0  0  0  0  0
  143.6190  161.6770  133.7290 O   0  0  0  0  0  0  0  0  0  0  0  0
  144.5650  159.5220  133.4820 C   0  0  0  0  0  0  0  0  0  0  0  0
  145.8900  159.9480  133.5080 C   0  0  0  0  0  0  0  0  0  0  0  0
  146.6420  158.8010  133.4040 C   0  0  0  0  0  0  0  0  0  0  0  0
  148.0230  158.6370  133.3570 C   0  0  0  0  0  0  0  0  0  0  0  0
  148.5280  157.3360  133.1990 C   0  0  0  0  0  0  0  0  0  0  0  0
  147.6510  156.2300  133.0820 C   0  0  0  0  0  0  0  0  0  0  0  0
  148.2100  154.8510  132.8840 C   0  0  0  0  0  0  0  0  0  0  0  0
  149.5470  154.9380  132.5330 F   0  0  0  0  0  0  0  0  0  0  0  0
  148.0930  154.1240  134.0560 F   0  0  0  0  0  0  0  0  0  0  0  0
  146.2530  156.4350  133.1270 C   0  0  0  0  0  0  0  0  0  0  0  0
  145.7780  157.7400  133.3090 C   0  0  0  0  0  0  0  0  0  0  0  0
  144.4970  158.1680  133.3550 N   0  0  0  0  0  0  0  0  0  0  0  0
  143.3210  157.3600  133.1820 C   0  0  0  0  0  0  0  0  0  0  0  0
  142.5270  157.6010  132.2310 O   0  0  0  0  0  0  0  0  0  0  0  0
  143.0640  156.3090  134.0680 O   0  0  0  0  0  0  0  0  0  0  0  0
  142.6390  156.5130  135.4100 C   0  0  0  0  0  0  0  0  0  0  0  0
  142.0680  157.8100  135.5380 O   0  0  0  0  0  0  0  0  0  0  0  0
  140.7520  158.0150  135.9630 C   0  0  0  0  0  0  0  0  0  0  0  0
  140.5020  158.3000  137.1660 O   0  0  0  0  0  0  0  0  0  0  0  0
  139.6360  157.8970  134.9760 C   0  0  0  0  0  0  0  0  0  0  0  0
  140.1850  157.6670  133.6350 N   0  0  0  0  0  0  0  0  0  0  0  0
  139.2670  156.8740  132.8000 C   0  0  0  0  0  0  0  0  0  0  0  0
  139.5530  155.3820  132.9600 C   0  0  0  0  0  0  0  0  0  0  0  0
  140.9340  155.1540  133.0170 O   0  0  0  0  0  0  0  0  0  0  0  0
  141.8870  158.9210  133.8210 H   0  0  0  0  0  0  0  0  0  0  0  0
  141.2760  160.6060  133.7820 H   0  0  0  0  0  0  0  0  0  0  0  0
  146.2572  160.9814  133.5935 H   0  0  0  0  0  0  0  0  0  0  0  0
  148.6991  159.5006  133.4411 H   0  0  0  0  0  0  0  0  0  0  0  0
  149.6156  157.1744  133.1658 H   0  0  0  0  0  0  0  0  0  0  0  0
  147.6487  154.3473  132.0833 H   0  0  0  0  0  0  0  0  0  0  0  0
  145.5557  155.5908  133.0217 H   0  0  0  0  0  0  0  0  0  0  0  0
  141.8879  155.7545  135.6754 H   0  0  0  0  0  0  0  0  0  0  0  0
  143.5039  156.4265  136.0842 H   0  0  0  0  0  0  0  0  0  0  0  0
  138.9881  157.0532  135.2556 H   0  0  0  0  0  0  0  0  0  0  0  0
  139.0500  158.8279  134.9753 H   0  0  0  0  0  0  0  0  0  0  0  0
  141.0740  157.1230  133.7480 H   0  0  0  0  0  0  0  0  0  0  0  0
  138.2305  157.0789  133.1063 H   0  0  0  0  0  0  0  0  0  0  0  0
  139.4130  157.1535  131.7462 H   0  0  0  0  0  0  0  0  0  0  0  0
  139.0872  155.0210  133.8888 H   0  0  0  0  0  0  0  0  0  0  0  0
  139.1373  154.8438  132.0954 H   0  0  0  0  0  0  0  0  0  0  0  0
  141.3640  156.0000  132.7310 H   0  0  0  0  0  0  0  0  0  0  0  0
  1  2  1  0
  2  3  2  0
  2  4  1  0
  4  5  2  0
  5  6  1  0
  6  7  2  0
  7  8  1  0
  8  9  2  0
  9 10  1  0
 10 11  1  0
 10 12  1  0
  9 13  1  0
 13 14  2  0
 14 15  1  0
 15 16  1  0
 16 17  2  0
 16 18  1  0
 18 19  1  0
 19 20  1  0
 20 21  1  0
 21 22  2  0
 21 23  1  0
 23 24  1  0
 24 25  1  0
 25 26  1  0
 26 27  1  0
 15  4  1  0
 14  6  1  0
  1 28  1  0
  1 29  1  0
  5 30  1  0
  7 31  1  0
  8 32  1  0
 10 33  1  0
 13 34  1  0
 19 35  1  0
 19 36  1  0
 23 37  1  0
 23 38  1  0
 24 39  1  0
 25 40  1  0
 25 41  1  0
 26 42  1  0
 26 43  1  0
 27 44  1  0
M  END
>  <UniqueID>  (82) 
82

>  <SMILES>  (82) 
NC(=O)c1cc2ccc(C(F)F)cc2n1C(=O)OCOC(=O)CNCCO

>  <Energy>  (82) 
75.84203967457915

>  <Genealogy>  (82) 
NC(=O)c1cc2ccc(C(F)F)cc2n1C(=O)OCOC(=O)CNCCO (3D coordinates assigned)
NC(=O)c1cc2ccc(C(F)F)cc2n1C(=O)OCOC(=O)CNCCO (optimized conformer: 75.84203967457915 kcal/mol)

>  <smiles>  (82) 
NC(=O)c1cc2ccc(C(F)F)cc2n1C(=O)OCOC(=O)CNCCO

>  <score_type>  (82) 
oracle

>  <origin>  (82) 
adg

>  <m_score__min__energy>  (82) 
-4.4199999999999999

>  <m_primary>  (82) 
energy

$$$$
86:0
     RDKit          3D

 43 44  0  0  0  0  0  0  0  0999 V2000
  146.9000  151.8950  132.2230 C   0  0  0  0  0  0  0  0  0  0  0  0
  148.2010  151.4870  132.7880 N   0  0  0  0  0  0  0  0  0  0  0  0
  148.5650  150.1520  132.2810 C   0  0  0  0  0  0  0  0  0  0  0  0
  149.2640  152.4610  132.4530 C   0  0  0  0  0  0  0  0  0  0  0  0
  148.7910  153.8470  132.5980 C   0  0  0  0  0  0  0  0  0  0  0  0
  148.3970  154.9810  132.7160 C   0  0  0  0  0  0  0  0  0  0  0  0
  147.9220  156.3310  132.8590 C   0  0  0  0  0  0  0  0  0  0  0  0
  148.8230  157.4130  132.7320 C   0  0  0  0  0  0  0  0  0  0  0  0
  148.3670  158.7360  132.8570 C   0  0  0  0  0  0  0  0  0  0  0  0
  147.0130  158.9380  133.1130 C   0  0  0  0  0  0  0  0  0  0  0  0
  146.3040  160.1080  133.2510 C   0  0  0  0  0  0  0  0  0  0  0  0
  144.9860  159.7180  133.4820 C   0  0  0  0  0  0  0  0  0  0  0  0
  143.8950  160.6700  133.7720 C   0  0  0  0  0  0  0  0  0  0  0  0
  142.6050  160.2100  134.1680 N   0  0  0  0  0  0  0  0  0  0  0  0
  144.1180  161.9100  133.7200 O   0  0  0  0  0  0  0  0  0  0  0  0
  144.8830  158.3580  133.4790 N   0  0  0  0  0  0  0  0  0  0  0  0
  143.6850  157.5710  133.5800 C   0  0  0  0  0  0  0  0  0  0  0  0
  143.6330  156.6050  134.3890 O   0  0  0  0  0  0  0  0  0  0  0  0
  142.5900  157.8670  132.7640 O   0  0  0  0  0  0  0  0  0  0  0  0
  141.2640  157.4540  133.0750 C   0  0  0  0  0  0  0  0  0  0  0  0
  140.2650  158.4180  132.4520 C   0  0  0  0  0  0  0  0  0  0  0  0
  140.9420  159.5210  131.9160 O   0  0  0  0  0  0  0  0  0  0  0  0
  146.1330  157.8950  133.2540 C   0  0  0  0  0  0  0  0  0  0  0  0
  146.5570  156.5680  133.1170 C   0  0  0  0  0  0  0  0  0  0  0  0
  146.1980  152.1152  133.0407 H   0  0  0  0  0  0  0  0  0  0  0  0
  147.0349  152.7940  131.6036 H   0  0  0  0  0  0  0  0  0  0  0  0
  146.4974  151.0800  131.6036 H   0  0  0  0  0  0  0  0  0  0  0  0
  148.1070  151.4190  133.8300 H   0  0  0  0  0  0  0  0  0  0  0  0
  148.7494  149.4756  133.1287 H   0  0  0  0  0  0  0  0  0  0  0  0
  147.7421  149.7557  131.6680 H   0  0  0  0  0  0  0  0  0  0  0  0
  149.4752  150.2282  131.6680 H   0  0  0  0  0  0  0  0  0  0  0  0
  150.1190  152.3028  133.1268 H   0  0  0  0  0  0  0  0  0  0  0  0
  149.5575  152.3045  131.4045 H   0  0  0  0  0  0  0  0  0  0  0  0
  149.8873  157.2179  132.5341 H   0  0  0  0  0  0  0  0  0  0  0  0
  149.0580  159.5859  132.7558 H   0  0  0  0  0  0  0  0  0  0  0  0
  146.6944  161.1347  133.1917 H   0  0  0  0  0  0  0  0  0  0  0  0
  141.9440  159.7990  133.4720 H   0  0  0  0  0  0  0  0  0  0  0  0
  141.0934  156.4430  132.6765 H   0  0  0  0  0  0  0  0  0  0  0  0
  141.1316  157.4489  134.1670 H   0  0  0  0  0  0  0  0  0  0  0  0
  139.7121  157.9045  131.6516 H   0  0  0  0  0  0  0  0  0  0  0  0
  139.5624  158.7631  133.2248 H   0  0  0  0  0  0  0  0  0  0  0  0
  141.8780  159.4520  132.2380 H   0  0  0  0  0  0  0  0  0  0  0  0
  145.8453  155.7343  133.2081 H   0  0  0  0  0  0  0  0  0  0  0  0
  1  2  1  0
  2  3  1  0
  2  4  1  0
  4  5  1  0
  5  6  3  0
  6  7  1  0
  7  8  2  0
  8  9  1  0
  9 10  2  0
 10 11  1  0
 11 12  2  0
 12 13  1  0
 13 14  1  0
 13 15  2  0
 12 16  1  0
 16 17  1  0
 17 18  2  0
 17 19  1  0
 19 20  1  0
 20 21  1  0
 21 22  1  0
 16 23  1  0
 23 24  2  0
 24  7  1  0
 23 10  1  0
  1 25  1  0
  1 26  1  0
  1 27  1  0
  2 28  1  0
  3 29  1  0
  3 30  1  0
  3 31  1  0
  4 32  1  0
  4 33  1  0
  8 34  1  0
  9 35  1  0
 11 36  1  0
 14 37  1  0
 20 38  1  0
 20 39  1  0
 21 40  1  0
 21 41  1  0
 22 42  1  0
 24 43  1  0
M  CHG  2   2   1  14  -1
M  END
>  <UniqueID>  (83) 
83

>  <SMILES>  (83) 
C[NH+](C)CC#Cc1ccc2cc(C([NH-])=O)n(C(=O)OCCO)c2c1

>  <Energy>  (83) 
72.99724250590715

>  <Genealogy>  (83) 
C[NH+](C)CC#Cc1ccc2cc(C([NH-])=O)n(C(=O)OCCO)c2c1 (protonated)
C[NH+](C)CC#Cc1ccc2cc(C([NH-])=O)n(C(=O)OCCO)c2c1 (3D coordinates assigned)
C[NH+](C)CC#Cc1ccc2cc(C([NH-])=O)n(C(=O)OCCO)c2c1 (optimized conformer: 72.99724250590715 kcal/mol)

>  <smiles>  (83) 
CN(C)CC#Cc1ccc2cc(C(N)=O)n(C(=O)OCCO)c2c1

>  <score_type>  (83) 
oracle

>  <origin>  (83) 
adg

>  <m_score__min__energy>  (83) 
-6.6600000000000001

>  <m_primary>  (83) 
energy

$$$$
87:0
     RDKit          3D

 37 39  0  0  0  0  0  0  0  0999 V2000
  142.2960  156.3440  139.4100 N   0  0  0  0  0  0  0  0  0  0  0  0
  141.7090  156.8270  138.2040 C   0  0  0  0  0  0  0  0  0  0  0  0
  141.2320  157.9930  138.1740 O   0  0  0  0  0  0  0  0  0  0  0  0
  141.6270  155.9450  137.0210 C   0  0  0  0  0  0  0  0  0  0  0  0
  141.4200  156.4140  135.7260 C   0  0  0  0  0  0  0  0  0  0  0  0
  141.4980  155.3020  134.9190 C   0  0  0  0  0  0  0  0  0  0  0  0
  141.3540  155.1870  133.5400 C   0  0  0  0  0  0  0  0  0  0  0  0
  141.4530  153.9060  132.9720 C   0  0  0  0  0  0  0  0  0  0  0  0
  141.6850  152.7660  133.7860 C   0  0  0  0  0  0  0  0  0  0  0  0
  141.7770  151.4140  133.1750 C   0  0  0  0  0  0  0  0  0  0  0  0
  143.0190  150.8860  132.7860 C   0  0  0  0  0  0  0  0  0  0  0  0
  143.0810  149.6130  132.2120 C   0  0  0  0  0  0  0  0  0  0  0  0
  141.9450  148.8880  132.0300 N   0  0  0  0  0  0  0  0  0  0  0  0
  140.7280  149.3730  132.3960 C   0  0  0  0  0  0  0  0  0  0  0  0
  140.6210  150.6410  132.9730 C   0  0  0  0  0  0  0  0  0  0  0  0
  141.8260  152.9280  135.1850 C   0  0  0  0  0  0  0  0  0  0  0  0
  141.7410  154.2180  135.7200 C   0  0  0  0  0  0  0  0  0  0  0  0
  141.8210  154.5960  137.0150 N   0  0  0  0  0  0  0  0  0  0  0  0
  141.9940  153.7280  138.1470 C   0  0  0  0  0  0  0  0  0  0  0  0
  143.0470  153.7980  138.8380 O   0  0  0  0  0  0  0  0  0  0  0  0
  141.0010  152.7940  138.4640 O   0  0  0  0  0  0  0  0  0  0  0  0
  141.2450  151.3910  138.5490 C   0  0  0  0  0  0  0  0  0  0  0  0
  140.3490  150.6510  137.6070 C   0  0  0  0  0  0  0  0  0  0  0  0
  140.6130  150.6160  136.3760 O   0  0  0  0  0  0  0  0  0  0  0  0
  139.2070  150.0220  138.0850 O   0  0  0  0  0  0  0  0  0  0  0  0
  143.2320  155.8820  139.4040 H   0  0  0  0  0  0  0  0  0  0  0  0
  141.2338  157.4524  135.4145 H   0  0  0  0  0  0  0  0  0  0  0  0
  141.1683  156.0720  132.9137 H   0  0  0  0  0  0  0  0  0  0  0  0
  141.3496  153.7847  131.8836 H   0  0  0  0  0  0  0  0  0  0  0  0
  143.9386  151.4715  132.9324 H   0  0  0  0  0  0  0  0  0  0  0  0
  144.0520  149.1962  131.9065 H   0  0  0  0  0  0  0  0  0  0  0  0
  142.0090  147.9380  131.5990 H   0  0  0  0  0  0  0  0  0  0  0  0
  139.8252  148.7650  132.2372 H   0  0  0  0  0  0  0  0  0  0  0  0
  139.6362  151.0325  133.2679 H   0  0  0  0  0  0  0  0  0  0  0  0
  141.9986  152.0591  135.8371 H   0  0  0  0  0  0  0  0  0  0  0  0
  142.2939  151.1884  138.2869 H   0  0  0  0  0  0  0  0  0  0  0  0
  141.0417  151.0537  139.5761 H   0  0  0  0  0  0  0  0  0  0  0  0
  1  2  1  0
  2  3  2  0
  2  4  1  0
  4  5  2  0
  5  6  1  0
  6  7  2  0
  7  8  1  0
  8  9  2  0
  9 10  1  0
 10 11  2  0
 11 12  1  0
 12 13  2  0
 13 14  1  0
 14 15  2  0
  9 16  1  0
 16 17  2  0
 17 18  1  0
 18 19  1  0
 19 20  2  0
 19 21  1  0
 21 22  1  0
 22 23  1  0
 23 24  2  0
 23 25  1  0
 18  4  1  0
 17  6  1  0
 15 10  1  0
  1 26  1  0
  5 27  1  0
  7 28  1  0
  8 29  1  0
 11 30  1  0
 12 31  1  0
 13 32  1  0
 14 33  1  0
 15 34  1  0
 16 35  1  0
 22 36  1  0
 22 37  1  0
M  CHG  3   1  -1  13   1  25  -1
M  END
>  <UniqueID>  (84) 
84

>  <SMILES>  (84) 
[NH-]C(=O)c1cc2ccc(-c3cc[nH+]cc3)cc2n1C(=O)OCC(=O)[O-]

>  <Energy>  (84) 
81.4527044574934

>  <Genealogy>  (84) 
[NH-]C(=O)c1cc2ccc(-c3cc[nH+]cc3)cc2n1C(=O)OCC(=O)[O-] (protonated)
[NH-]C(=O)c1cc2ccc(-c3cc[nH+]cc3)cc2n1C(=O)OCC(=O)[O-] (3D coordinates assigned)
[NH-]C(=O)c1cc2ccc(-c3cc[nH+]cc3)cc2n1C(=O)OCC(=O)[O-] (optimized conformer: 81.4527044574934 kcal/mol)

>  <smiles>  (84) 
NC(=O)c1cc2ccc(-c3ccncc3)cc2n1C(=O)OCC(=O)O

>  <score_type>  (84) 
oracle

>  <origin>  (84) 
adg

>  <m_score__min__energy>  (84) 
-6.7599999999999998

>  <m_primary>  (84) 
energy

$$$$
88:0
     RDKit          3D

 33 34  0  0  0  0  0  0  0  0999 V2000
  143.2750  156.0190  135.1320 C   0  0  0  0  0  0  0  0  0  0  0  0
  142.9170  157.2410  134.7390 C   0  0  0  0  0  0  0  0  0  0  0  0
  141.7140  158.2400  135.8480 Br  0  0  0  0  0  0  0  0  0  0  0  0
  143.4460  157.8430  133.4950 C   0  0  0  0  0  0  0  0  0  0  0  0
  142.7820  157.7840  132.4250 O   0  0  0  0  0  0  0  0  0  0  0  0
  144.7390  158.4630  133.4800 N   0  0  0  0  0  0  0  0  0  0  0  0
  145.0360  159.7870  133.5960 C   0  0  0  0  0  0  0  0  0  0  0  0
  144.0520  160.8840  133.7070 C   0  0  0  0  0  0  0  0  0  0  0  0
  142.6890  160.6530  133.3600 N   0  0  0  0  0  0  0  0  0  0  0  0
  144.4000  162.0220  134.1190 O   0  0  0  0  0  0  0  0  0  0  0  0
  146.4160  159.9810  133.5480 C   0  0  0  0  0  0  0  0  0  0  0  0
  146.9540  158.7220  133.3870 C   0  0  0  0  0  0  0  0  0  0  0  0
  148.2790  158.3200  133.2810 C   0  0  0  0  0  0  0  0  0  0  0  0
  148.5430  156.9470  133.1310 C   0  0  0  0  0  0  0  0  0  0  0  0
  147.4850  155.9930  133.0900 C   0  0  0  0  0  0  0  0  0  0  0  0
  147.7680  154.5770  132.9410 N   0  0  0  0  0  0  0  0  0  0  0  0
  149.1210  154.1170  132.6020 C   0  0  0  0  0  0  0  0  0  0  0  0
  146.7070  153.5800  133.1300 C   0  0  0  0  0  0  0  0  0  0  0  0
  146.1470  156.4560  133.2030 C   0  0  0  0  0  0  0  0  0  0  0  0
  145.9210  157.8270  133.3450 C   0  0  0  0  0  0  0  0  0  0  0  0
  143.9640  155.4228  134.5157 H   0  0  0  0  0  0  0  0  0  0  0  0
  142.8815  155.6065  136.0728 H   0  0  0  0  0  0  0  0  0  0  0  0
  142.4300  159.9430  132.6390 H   0  0  0  0  0  0  0  0  0  0  0  0
  146.9592  160.9346  133.6227 H   0  0  0  0  0  0  0  0  0  0  0  0
  149.0978  159.0539  133.3134 H   0  0  0  0  0  0  0  0  0  0  0  0
  149.5843  156.6033  133.0438 H   0  0  0  0  0  0  0  0  0  0  0  0
  149.6854  153.9251  133.5265 H   0  0  0  0  0  0  0  0  0  0  0  0
  149.0564  153.1903  132.0128 H   0  0  0  0  0  0  0  0  0  0  0  0
  149.6346  154.8910  132.0128 H   0  0  0  0  0  0  0  0  0  0  0  0
  146.5393  153.4224  134.2057 H   0  0  0  0  0  0  0  0  0  0  0  0
  145.7783  153.9398  132.6630 H   0  0  0  0  0  0  0  0  0  0  0  0
  147.0084  152.6308  132.6630 H   0  0  0  0  0  0  0  0  0  0  0  0
  145.3050  155.7485  133.1792 H   0  0  0  0  0  0  0  0  0  0  0  0
  1  2  2  0
  2  3  1  0
  2  4  1  0
  4  5  2  0
  4  6  1  0
  6  7  1  0
  7  8  1  0
  8  9  1  0
  8 10  2  0
  7 11  2  0
 11 12  1  0
 12 13  2  0
 13 14  1  0
 14 15  2  0
 15 16  1  0
 16 17  1  0
 16 18  1  0
 15 19  1  0
 19 20  2  0
 20  6  1  0
 20 12  1  0
  1 21  1  0
  1 22  1  0
  9 23  1  0
 11 24  1  0
 13 25  1  0
 14 26  1  0
 17 27  1  0
 17 28  1  0
 17 29  1  0
 18 30  1  0
 18 31  1  0
 18 32  1  0
 19 33  1  0
M  CHG  1   9  -1
M  END
>  <UniqueID>  (85) 
85

>  <SMILES>  (85) 
C=C(Br)C(=O)n1c(C([NH-])=O)cc2ccc(N(C)C)cc21

>  <Energy>  (85) 
73.45766573008105

>  <Genealogy>  (85) 
C=C(Br)C(=O)n1c(C([NH-])=O)cc2ccc(N(C)C)cc21 (protonated)
C=C(Br)C(=O)n1c(C([NH-])=O)cc2ccc(N(C)C)cc21 (3D coordinates assigned)
C=C(Br)C(=O)n1c(C([NH-])=O)cc2ccc(N(C)C)cc21 (optimized conformer: 73.45766573008105 kcal/mol)

>  <smiles>  (85) 
C=C(Br)C(=O)n1c(C(N)=O)cc2ccc(N(C)C)cc21

>  <score_type>  (85) 
oracle

>  <origin>  (85) 
adg

>  <m_score__min__energy>  (85) 
-6.5

>  <m_primary>  (85) 
energy

$$$$
89:0
     RDKit          3D

 58 59  0  0  0  0  0  0  0  0999 V2000
  147.6780  151.8550  138.6100 C   0  0  0  0  0  0  0  0  0  0  0  0
  148.3590  152.7390  137.5490 C   0  0  0  0  0  0  0  0  0  0  0  0
  149.2530  153.8000  138.2210 C   0  0  0  0  0  0  0  0  0  0  0  0
  149.2330  151.8530  136.6480 C   0  0  0  0  0  0  0  0  0  0  0  0
  147.3770  153.3600  136.7060 O   0  0  0  0  0  0  0  0  0  0  0  0
  147.6050  154.3930  135.7840 C   0  0  0  0  0  0  0  0  0  0  0  0
  148.1870  155.4560  136.1250 O   0  0  0  0  0  0  0  0  0  0  0  0
  147.1750  154.2430  134.4310 N   0  0  0  0  0  0  0  0  0  0  0  0
  148.1040  153.9560  133.3460 C   0  0  0  0  0  0  0  0  0  0  0  0
  148.5560  155.2650  132.7000 C   0  0  0  0  0  0  0  0  0  0  0  0
  148.4820  156.3710  133.6560 N   0  0  0  0  0  0  0  0  0  0  0  0
  147.5160  157.4390  133.6050 C   0  0  0  0  0  0  0  0  0  0  0  0
  147.9760  158.7810  133.5860 C   0  0  0  0  0  0  0  0  0  0  0  0
  147.0720  159.8540  133.5220 C   0  0  0  0  0  0  0  0  0  0  0  0
  145.7130  159.5610  133.4890 C   0  0  0  0  0  0  0  0  0  0  0  0
  144.6250  160.4020  133.4120 C   0  0  0  0  0  0  0  0  0  0  0  0
  143.5100  159.5650  133.4140 C   0  0  0  0  0  0  0  0  0  0  0  0
  142.1190  160.0620  133.4390 C   0  0  0  0  0  0  0  0  0  0  0  0
  141.1740  159.6510  132.4560 N   0  0  0  0  0  0  0  0  0  0  0  0
  141.7470  160.8240  134.3720 O   0  0  0  0  0  0  0  0  0  0  0  0
  143.8960  158.2590  133.4770 N   0  0  0  0  0  0  0  0  0  0  0  0
  143.0690  157.0870  133.4560 C   0  0  0  0  0  0  0  0  0  0  0  0
  142.0830  157.0310  132.6740 O   0  0  0  0  0  0  0  0  0  0  0  0
  143.3940  156.0060  134.2900 O   0  0  0  0  0  0  0  0  0  0  0  0
  143.4790  154.6270  133.9050 C   0  0  0  0  0  0  0  0  0  0  0  0
  144.3590  154.4710  132.6500 C   0  0  0  0  0  0  0  0  0  0  0  0
  144.1400  153.8760  135.0690 C   0  0  0  0  0  0  0  0  0  0  0  0
  142.0760  154.0410  133.6650 C   0  0  0  0  0  0  0  0  0  0  0  0
  145.2450  158.2740  133.5240 C   0  0  0  0  0  0  0  0  0  0  0  0
  146.1230  157.1840  133.5580 C   0  0  0  0  0  0  0  0  0  0  0  0
  147.9519  152.2106  139.6142 H   0  0  0  0  0  0  0  0  0  0  0  0
  146.5863  151.9095  138.4869 H   0  0  0  0  0  0  0  0  0  0  0  0
  148.0093  150.8133  138.4869 H   0  0  0  0  0  0  0  0  0  0  0  0
  149.1743  153.7066  139.3142 H   0  0  0  0  0  0  0  0  0  0  0  0
  150.2981  153.6465  137.9141 H   0  0  0  0  0  0  0  0  0  0  0  0
  148.9245  154.8039  137.9141 H   0  0  0  0  0  0  0  0  0  0  0  0
  149.8687  151.2086  137.2730 H   0  0  0  0  0  0  0  0  0  0  0  0
  148.5886  151.2273  136.0129 H   0  0  0  0  0  0  0  0  0  0  0  0
  149.8674  152.4888  136.0129 H   0  0  0  0  0  0  0  0  0  0  0  0
  148.9796  153.4229  133.7449 H   0  0  0  0  0  0  0  0  0  0  0  0
  147.6041  153.3297  132.5924 H   0  0  0  0  0  0  0  0  0  0  0  0
  149.5946  155.1564  132.3543 H   0  0  0  0  0  0  0  0  0  0  0  0
  147.8908  155.4873  131.8526 H   0  0  0  0  0  0  0  0  0  0  0  0
  149.2090  156.3970  134.4060 H   0  0  0  0  0  0  0  0  0  0  0  0
  149.0565  158.9841  133.6219 H   0  0  0  0  0  0  0  0  0  0  0  0
  147.4282  160.8945  133.4987 H   0  0  0  0  0  0  0  0  0  0  0  0
  144.6339  161.5007  133.3600 H   0  0  0  0  0  0  0  0  0  0  0  0
  141.4040  158.8980  131.7700 H   0  0  0  0  0  0  0  0  0  0  0  0
  145.4002  154.2864  132.9529 H   0  0  0  0  0  0  0  0  0  0  0  0
  143.9957  153.6232  132.0505 H   0  0  0  0  0  0  0  0  0  0  0  0
  144.3093  155.3920  132.0505 H   0  0  0  0  0  0  0  0  0  0  0  0
  143.7783  154.2870  136.0231 H   0  0  0  0  0  0  0  0  0  0  0  0
  143.8835  152.8080  135.0091 H   0  0  0  0  0  0  0  0  0  0  0  0
  145.2319  153.9948  135.0091 H   0  0  0  0  0  0  0  0  0  0  0  0
  141.5926  153.8391  134.6322 H   0  0  0  0  0  0  0  0  0  0  0  0
  141.4703  154.7613  133.0956 H   0  0  0  0  0  0  0  0  0  0  0  0
  142.1626  153.1038  133.0956 H   0  0  0  0  0  0  0  0  0  0  0  0
  145.7400  156.1529  133.5484 H   0  0  0  0  0  0  0  0  0  0  0  0
  1  2  1  0
  2  3  1  0
  2  4  1  0
  2  5  1  0
  5  6  1  0
  6  7  2  0
  6  8  1  0
  8  9  1  0
  9 10  1  0
 10 11  1  0
 11 12  1  0
 12 13  2  0
 13 14  1  0
 14 15  2  0
 15 16  1  0
 16 17  2  0
 17 18  1  0
 18 19  1  0
 18 20  2  0
 17 21  1  0
 21 22  1  0
 22 23  2  0
 22 24  1  0
 24 25  1  0
 25 26  1  0
 25 27  1  0
 25 28  1  0
 21 29  1  0
 29 30  2  0
 30 12  1  0
 29 15  1  0
  1 31  1  0
  1 32  1  0
  1 33  1  0
  3 34  1  0
  3 35  1  0
  3 36  1  0
  4 37  1  0
  4 38  1  0
  4 39  1  0
  9 40  1  0
  9 41  1  0
 10 42  1  0
 10 43  1  0
 11 44  1  0
 13 45  1  0
 14 46  1  0
 16 47  1  0
 19 48  1  0
 26 49  1  0
 26 50  1  0
 26 51  1  0
 27 52  1  0
 27 53  1  0
 27 54  1  0
 28 55  1  0
 28 56  1  0
 28 57  1  0
 30 58  1  0
M  CHG  2   8  -1  19  -1
M  END
>  <UniqueID>  (86) 
86

>  <SMILES>  (86) 
CC(C)(C)OC(=O)[N-]CCNc1ccc2cc(C([NH-])=O)n(C(=O)OC(C)(C)C)c2c1

>  <Energy>  (86) 
78.71896688346719

>  <Genealogy>  (86) 
CC(C)(C)OC(=O)[N-]CCNc1ccc2cc(C([NH-])=O)n(C(=O)OC(C)(C)C)c2c1 (protonated)
CC(C)(C)OC(=O)[N-]CCNc1ccc2cc(C([NH-])=O)n(C(=O)OC(C)(C)C)c2c1 (3D coordinates assigned)
CC(C)(C)OC(=O)[N-]CCNc1ccc2cc(C([NH-])=O)n(C(=O)OC(C)(C)C)c2c1 (optimized conformer: 78.71896688346719 kcal/mol)

>  <smiles>  (86) 
CC(C)(C)OC(=O)NCCNc1ccc2cc(C(N)=O)n(C(=O)OC(C)(C)C)c2c1

>  <score_type>  (86) 
oracle

>  <origin>  (86) 
adg

>  <m_score__min__energy>  (86) 
-7.6299999999999999

>  <m_primary>  (86) 
energy

$$$$
90:0
     RDKit          3D

 39 40  0  0  0  0  0  0  0  0999 V2000
  141.4330  159.5910  132.7440 N   0  0  0  0  0  0  0  0  0  0  0  0
  142.4040  159.9540  133.7270 C   0  0  0  0  0  0  0  0  0  0  0  0
  142.0210  160.4640  134.8120 O   0  0  0  0  0  0  0  0  0  0  0  0
  143.8410  159.6810  133.5190 C   0  0  0  0  0  0  0  0  0  0  0  0
  144.8260  160.6590  133.6160 C   0  0  0  0  0  0  0  0  0  0  0  0
  146.0160  159.9940  133.4220 C   0  0  0  0  0  0  0  0  0  0  0  0
  147.3190  160.4840  133.4000 C   0  0  0  0  0  0  0  0  0  0  0  0
  148.3590  159.5760  133.1370 C   0  0  0  0  0  0  0  0  0  0  0  0
  148.0770  158.2110  132.8930 C   0  0  0  0  0  0  0  0  0  0  0  0
  149.1420  157.3010  132.6090 N   0  0  0  0  0  0  0  0  0  0  0  0
  146.7440  157.7490  132.9210 C   0  0  0  0  0  0  0  0  0  0  0  0
  145.7280  158.6700  133.2080 C   0  0  0  0  0  0  0  0  0  0  0  0
  144.3930  158.4620  133.2610 N   0  0  0  0  0  0  0  0  0  0  0  0
  143.7060  157.2300  132.9840 C   0  0  0  0  0  0  0  0  0  0  0  0
  142.8630  157.1830  132.0460 O   0  0  0  0  0  0  0  0  0  0  0  0
  143.9770  156.0960  133.7600 O   0  0  0  0  0  0  0  0  0  0  0  0
  143.3750  155.7950  134.9880 C   0  0  0  0  0  0  0  0  0  0  0  0
  143.5220  154.6600  135.5190 O   0  0  0  0  0  0  0  0  0  0  0  0
  142.6060  156.7860  135.6120 O   0  0  0  0  0  0  0  0  0  0  0  0
  141.3130  157.1650  135.2270 C   0  0  0  0  0  0  0  0  0  0  0  0
  140.4550  157.5010  136.0900 O   0  0  0  0  0  0  0  0  0  0  0  0
  140.9990  157.1680  133.8630 O   0  0  0  0  0  0  0  0  0  0  0  0
  139.7070  157.0490  133.3340 C   0  0  0  0  0  0  0  0  0  0  0  0
  139.1580  155.9210  133.2050 O   0  0  0  0  0  0  0  0  0  0  0  0
  139.0290  158.2100  132.9530 O   0  0  0  0  0  0  0  0  0  0  0  0
  138.3700  158.3380  131.6980 C   0  0  0  0  0  0  0  0  0  0  0  0
  138.8240  159.5900  131.0270 C   0  0  0  0  0  0  0  0  0  0  0  0
  140.0350  159.7360  130.7150 O   0  0  0  0  0  0  0  0  0  0  0  0
  137.9050  160.5790  130.7040 O   0  0  0  0  0  0  0  0  0  0  0  0
  141.6960  159.0140  131.9140 H   0  0  0  0  0  0  0  0  0  0  0  0
  140.4260  159.8240  132.8910 H   0  0  0  0  0  0  0  0  0  0  0  0
  144.6844  161.7330  133.8067 H   0  0  0  0  0  0  0  0  0  0  0  0
  147.5279  161.5484  133.5827 H   0  0  0  0  0  0  0  0  0  0  0  0
  149.4006  159.9293  133.1207 H   0  0  0  0  0  0  0  0  0  0  0  0
  149.1380  156.7270  131.7370 H   0  0  0  0  0  0  0  0  0  0  0  0
  149.9450  157.1940  133.2710 H   0  0  0  0  0  0  0  0  0  0  0  0
  146.5086  156.6929  132.7226 H   0  0  0  0  0  0  0  0  0  0  0  0
  138.6147  157.4725  131.0648 H   0  0  0  0  0  0  0  0  0  0  0  0
  137.2822  158.3789  131.8561 H   0  0  0  0  0  0  0  0  0  0  0  0
  1  2  1  0
  2  3  2  0
  2  4  1  0
  4  5  2  0
  5  6  1  0
  6  7  2  0
  7  8  1  0
  8  9  2  0
  9 10  1  0
  9 11  1  0
 11 12  2  0
 12 13  1  0
 13 14  1  0
 14 15  2  0
 14 16  1  0
 16 17  1  0
 17 18  2  0
 17 19  1  0
 19 20  1  0
 20 21  2  0
 20 22  1  0
 22 23  1  0
 23 24  2  0
 23 25  1  0
 25 26  1  0
 26 27  1  0
 27 28  2  0
 27 29  1  0
 13  4  1  0
 12  6  1  0
  1 30  1  0
  1 31  1  0
  5 32  1  0
  7 33  1  0
  8 34  1  0
 10 35  1  0
 10 36  1  0
 11 37  1  0
 26 38  1  0
 26 39  1  0
M  CHG  1  29  -1
M  END
>  <UniqueID>  (87) 
87

>  <SMILES>  (87) 
NC(=O)c1cc2ccc(N)cc2n1C(=O)OC(=O)OC(=O)OC(=O)OCC(=O)[O-]

>  <Energy>  (87) 
78.34429279127275

>  <Genealogy>  (87) 
NC(=O)c1cc2ccc(N)cc2n1C(=O)OC(=O)OC(=O)OC(=O)OCC(=O)[O-] (protonated)
NC(=O)c1cc2ccc(N)cc2n1C(=O)OC(=O)OC(=O)OC(=O)OCC(=O)[O-] (3D coordinates assigned)
NC(=O)c1cc2ccc(N)cc2n1C(=O)OC(=O)OC(=O)OC(=O)OCC(=O)[O-] (optimized conformer: 78.34429279127275 kcal/mol)

>  <smiles>  (87) 
NC(=O)c1cc2ccc(N)cc2n1C(=O)OC(=O)OC(=O)OC(=O)OCC(=O)O

>  <score_type>  (87) 
oracle

>  <origin>  (87) 
adg

>  <m_score__min__energy>  (87) 
-6.5800000000000001

>  <m_primary>  (87) 
energy

$$$$
91:0
     RDKit          3D

 49 51  0  0  0  0  0  0  0  0999 V2000
  144.6440  160.2690  133.5940 C   0  0  0  0  0  0  0  0  0  0  0  0
  143.9650  159.0670  133.1260 N   0  0  0  0  0  0  0  0  0  0  0  0
  144.4660  157.7560  133.4190 C   0  0  0  0  0  0  0  0  0  0  0  0
  145.5790  157.6140  133.9930 O   0  0  0  0  0  0  0  0  0  0  0  0
  143.6750  156.5420  133.0300 C   0  0  0  0  0  0  0  0  0  0  0  0
  142.3410  156.9060  132.6790 O   0  0  0  0  0  0  0  0  0  0  0  0
  141.2650  156.8180  133.5690 C   0  0  0  0  0  0  0  0  0  0  0  0
  140.3500  155.9680  133.3860 O   0  0  0  0  0  0  0  0  0  0  0  0
  141.2300  157.6630  134.7260 N   0  0  0  0  0  0  0  0  0  0  0  0
  141.2470  159.0240  134.7670 C   0  0  0  0  0  0  0  0  0  0  0  0
  141.1770  159.9240  133.5980 C   0  0  0  0  0  0  0  0  0  0  0  0
  140.9390  159.3850  132.3000 N   0  0  0  0  0  0  0  0  0  0  0  0
  141.3490  161.1650  133.7280 O   0  0  0  0  0  0  0  0  0  0  0  0
  141.2860  159.4680  136.0880 C   0  0  0  0  0  0  0  0  0  0  0  0
  141.2960  158.3250  136.8570 C   0  0  0  0  0  0  0  0  0  0  0  0
  141.3670  158.1730  138.2340 C   0  0  0  0  0  0  0  0  0  0  0  0
  141.4190  156.8690  138.7540 C   0  0  0  0  0  0  0  0  0  0  0  0
  141.4060  155.7220  137.9000 C   0  0  0  0  0  0  0  0  0  0  0  0
  141.4880  154.3680  138.4490 N   0  0  0  0  0  0  0  0  0  0  0  0
  140.4390  153.9180  139.3930 C   0  0  0  0  0  0  0  0  0  0  0  0
  140.6460  152.5100  139.9710 C   0  0  0  0  0  0  0  0  0  0  0  0
  141.2560  151.5790  139.0170 N   0  0  0  0  0  0  0  0  0  0  0  0
  140.3810  151.2730  137.8720 C   0  0  0  0  0  0  0  0  0  0  0  0
  142.5760  152.0780  138.6120 C   0  0  0  0  0  0  0  0  0  0  0  0
  142.5150  153.4450  137.9190 C   0  0  0  0  0  0  0  0  0  0  0  0
  141.3330  155.9410  136.4950 C   0  0  0  0  0  0  0  0  0  0  0  0
  141.2640  157.2520  136.0110 C   0  0  0  0  0  0  0  0  0  0  0  0
  144.6510  160.2814  134.6939 H   0  0  0  0  0  0  0  0  0  0  0  0
  145.6787  160.2746  133.2206 H   0  0  0  0  0  0  0  0  0  0  0  0
  144.1147  161.1580  133.2206 H   0  0  0  0  0  0  0  0  0  0  0  0
  143.0730  159.1680  132.5930 H   0  0  0  0  0  0  0  0  0  0  0  0
  144.1566  156.0571  132.1680 H   0  0  0  0  0  0  0  0  0  0  0  0
  143.6418  155.8503  133.8846 H   0  0  0  0  0  0  0  0  0  0  0  0
  141.6510  158.7830  131.8310 H   0  0  0  0  0  0  0  0  0  0  0  0
  141.3048  160.5096  136.4412 H   0  0  0  0  0  0  0  0  0  0  0  0
  141.3822  159.0485  138.8997 H   0  0  0  0  0  0  0  0  0  0  0  0
  141.4709  156.7269  139.8435 H   0  0  0  0  0  0  0  0  0  0  0  0
  140.4064  154.6295  140.2313 H   0  0  0  0  0  0  0  0  0  0  0  0
  139.5030  153.8789  138.8164 H   0  0  0  0  0  0  0  0  0  0  0  0
  141.3000  152.5863  140.8522 H   0  0  0  0  0  0  0  0  0  0  0  0
  139.6530  152.1121  140.2272 H   0  0  0  0  0  0  0  0  0  0  0  0
  139.4023  150.9307  138.2396 H   0  0  0  0  0  0  0  0  0  0  0  0
  140.2472  152.1777  137.2607 H   0  0  0  0  0  0  0  0  0  0  0  0
  140.8401  150.4821  137.2607 H   0  0  0  0  0  0  0  0  0  0  0  0
  143.2067  152.1678  139.5087 H   0  0  0  0  0  0  0  0  0  0  0  0
  142.9900  151.3610  137.8878 H   0  0  0  0  0  0  0  0  0  0  0  0
  143.4973  153.9277  138.0290 H   0  0  0  0  0  0  0  0  0  0  0  0
  142.2408  153.2476  136.8722 H   0  0  0  0  0  0  0  0  0  0  0  0
  141.3308  155.0897  135.7984 H   0  0  0  0  0  0  0  0  0  0  0  0
  1  2  1  0
  2  3  1  0
  3  4  2  0
  3  5  1  0
  5  6  1  0
  6  7  1  0
  7  8  2  0
  7  9  1  0
  9 10  1  0
 10 11  1  0
 11 12  1  0
 11 13  2  0
 10 14  2  0
 14 15  1  0
 15 16  2  0
 16 17  1  0
 17 18  2  0
 18 19  1  0
 19 20  1  0
 20 21  1  0
 21 22  1  0
 22 23  1  0
 22 24  1  0
 24 25  1  0
 18 26  1  0
 26 27  2  0
 27  9  1  0
 27 15  1  0
 25 19  1  0
  1 28  1  0
  1 29  1  0
  1 30  1  0
  2 31  1  0
  5 32  1  0
  5 33  1  0
 12 34  1  0
 14 35  1  0
 16 36  1  0
 17 37  1  0
 20 38  1  0
 20 39  1  0
 21 40  1  0
 21 41  1  0
 23 42  1  0
 23 43  1  0
 23 44  1  0
 24 45  1  0
 24 46  1  0
 25 47  1  0
 25 48  1  0
 26 49  1  0
M  CHG  1  12  -1
M  END
>  <UniqueID>  (88) 
88

>  <SMILES>  (88) 
CNC(=O)COC(=O)n1c(C([NH-])=O)cc2ccc(N3CCN(C)CC3)cc21

>  <Energy>  (88) 
93.37427178730046

>  <Genealogy>  (88) 
CNC(=O)COC(=O)n1c(C([NH-])=O)cc2ccc(N3CCN(C)CC3)cc21 (protonated)
CNC(=O)COC(=O)n1c(C([NH-])=O)cc2ccc(N3CCN(C)CC3)cc21 (3D coordinates assigned)
CNC(=O)COC(=O)n1c(C([NH-])=O)cc2ccc(N3CCN(C)CC3)cc21 (nonaromatic ring conformer: 93.37427178730046 kcal/mol)

>  <smiles>  (88) 
CNC(=O)COC(=O)n1c(C(N)=O)cc2ccc(N3CCN(C)CC3)cc21

>  <score_type>  (88) 
oracle

>  <origin>  (88) 
adg

>  <m_score__min__energy>  (88) 
-7.79

>  <m_primary>  (88) 
energy

$$$$
92:0
     RDKit          3D

 42 43  0  0  0  0  0  0  0  0999 V2000
  139.6250  156.3230  132.9710 C   0  0  0  0  0  0  0  0  0  0  0  0
  138.9470  157.6920  133.0850 C   0  0  2  0  0  0  0  0  0  0  0  0
  139.5730  158.7050  132.1150 C   0  0  0  0  0  0  0  0  0  0  0  0
  140.1870  159.7610  132.8070 O   0  0  0  0  0  0  0  0  0  0  0  0
  139.0470  158.1960  134.4520 N   0  0  0  0  0  0  0  0  0  0  0  0
  140.2520  158.1790  135.2220 C   0  0  0  0  0  0  0  0  0  0  0  0
  140.6960  159.2420  135.7360 O   0  0  0  0  0  0  0  0  0  0  0  0
  140.9340  156.9730  135.3880 O   0  0  0  0  0  0  0  0  0  0  0  0
  142.3030  156.9110  135.7750 C   0  0  0  0  0  0  0  0  0  0  0  0
  143.1210  156.7560  134.6190 O   0  0  0  0  0  0  0  0  0  0  0  0
  143.2970  157.7700  133.6720 C   0  0  0  0  0  0  0  0  0  0  0  0
  142.3570  158.0860  132.8930 O   0  0  0  0  0  0  0  0  0  0  0  0
  144.5490  158.4710  133.6060 N   0  0  0  0  0  0  0  0  0  0  0  0
  144.7440  159.8190  133.5550 C   0  0  0  0  0  0  0  0  0  0  0  0
  143.7060  160.8530  133.7370 C   0  0  0  0  0  0  0  0  0  0  0  0
  142.4080  160.5130  134.2160 N   0  0  0  0  0  0  0  0  0  0  0  0
  143.9830  162.0630  133.5130 O   0  0  0  0  0  0  0  0  0  0  0  0
  146.0970  160.1110  133.3890 C   0  0  0  0  0  0  0  0  0  0  0  0
  146.7310  158.8900  133.3470 C   0  0  0  0  0  0  0  0  0  0  0  0
  148.0770  158.5870  133.1730 C   0  0  0  0  0  0  0  0  0  0  0  0
  148.4480  157.2330  133.1310 C   0  0  0  0  0  0  0  0  0  0  0  0
  147.4760  156.2090  133.2740 C   0  0  0  0  0  0  0  0  0  0  0  0
  147.8780  154.7600  133.1640 C   0  0  0  0  0  0  0  0  0  0  0  0
  146.8620  154.0140  132.5920 F   0  0  0  0  0  0  0  0  0  0  0  0
  148.1520  154.2330  134.4140 F   0  0  0  0  0  0  0  0  0  0  0  0
  149.0090  154.6610  132.3750 F   0  0  0  0  0  0  0  0  0  0  0  0
  146.1140  156.5590  133.4240 C   0  0  0  0  0  0  0  0  0  0  0  0
  145.7750  157.9160  133.4800 C   0  0  0  0  0  0  0  0  0  0  0  0
  139.8215  155.9262  133.9779 H   0  0  0  0  0  0  0  0  0  0  0  0
  138.9653  155.6313  132.4266 H   0  0  0  0  0  0  0  0  0  0  0  0
  140.5750  156.4285  132.4266 H   0  0  0  0  0  0  0  0  0  0  0  0
  137.8872  157.5639  132.8196 H   0  0  0  0  0  0  0  0  0  0  0  0
  140.3275  158.1930  131.4997 H   0  0  0  0  0  0  0  0  0  0  0  0
  138.7739  159.1213  131.4840 H   0  0  0  0  0  0  0  0  0  0  0  0
  140.6920  159.3560  133.5600 H   0  0  0  0  0  0  0  0  0  0  0  0
  142.5783  157.8398  136.2962 H   0  0  0  0  0  0  0  0  0  0  0  0
  142.4538  156.0528  136.4463 H   0  0  0  0  0  0  0  0  0  0  0  0
  141.9910  159.5760  134.0220 H   0  0  0  0  0  0  0  0  0  0  0  0
  146.5596  161.1058  133.3087 H   0  0  0  0  0  0  0  0  0  0  0  0
  148.8285  159.3838  133.0713 H   0  0  0  0  0  0  0  0  0  0  0  0
  149.5044  156.9632  132.9855 H   0  0  0  0  0  0  0  0  0  0  0  0
  145.3384  155.7823  133.4951 H   0  0  0  0  0  0  0  0  0  0  0  0
  1  2  1  0
  2  3  1  0
  3  4  1  0
  2  5  1  0
  5  6  1  0
  6  7  2  0
  6  8  1  0
  8  9  1  0
  9 10  1  0
 10 11  1  0
 11 12  2  0
 11 13  1  0
 13 14  1  0
 14 15  1  0
 15 16  1  0
 15 17  2  0
 14 18  2  0
 18 19  1  0
 19 20  2  0
 20 21  1  0
 21 22  2  0
 22 23  1  0
 23 24  1  0
 23 25  1  0
 23 26  1  0
 22 27  1  0
 27 28  2  0
 28 13  1  0
 28 19  1  0
  1 29  1  0
  1 30  1  0
  1 31  1  0
  2 32  1  6
  3 33  1  0
  3 34  1  0
  4 35  1  0
  9 36  1  0
  9 37  1  0
 16 38  1  0
 18 39  1  0
 20 40  1  0
 21 41  1  0
 27 42  1  0
M  CHG  2   5  -1  16  -1
M  END
>  <UniqueID>  (89) 
89

>  <SMILES>  (89) 
C[C@H](CO)[N-]C(=O)OCOC(=O)n1c(C([NH-])=O)cc2ccc(C(F)(F)F)cc21

>  <Energy>  (89) 
73.0506059238327

>  <Genealogy>  (89) 
CC(CO)[N-]C(=O)OCOC(=O)n1c(C([NH-])=O)cc2ccc(C(F)(F)F)cc21 (protonated)
C[C@H](CO)[N-]C(=O)OCOC(=O)n1c(C([NH-])=O)cc2ccc(C(F)(F)F)cc21 (chirality)
C[C@H](CO)[N-]C(=O)OCOC(=O)n1c(C([NH-])=O)cc2ccc(C(F)(F)F)cc21 (3D coordinates assigned)
C[C@H](CO)[N-]C(=O)OCOC(=O)n1c(C([NH-])=O)cc2ccc(C(F)(F)F)cc21 (optimized conformer: 73.0506059238327 kcal/mol)

>  <smiles>  (89) 
CC(CO)NC(=O)OCOC(=O)n1c(C(N)=O)cc2ccc(C(F)(F)F)cc21

>  <score_type>  (89) 
oracle

>  <origin>  (89) 
adg

>  <m_score__min__energy>  (89) 
-5.7000000000000002

>  <m_primary>  (89) 
energy

$$$$
93:0
     RDKit          3D

 32 33  0  0  0  0  0  0  0  0999 V2000
  148.4560  161.4730  131.0860 N   0  0  0  0  0  0  0  0  0  0  0  0
  149.2640  160.3030  131.1840 C   0  0  0  0  0  0  0  0  0  0  0  0
  150.3730  160.2670  130.5860 O   0  0  0  0  0  0  0  0  0  0  0  0
  148.7950  159.1150  131.9280 C   0  0  0  0  0  0  0  0  0  0  0  0
  149.4460  157.8830  131.8910 C   0  0  0  0  0  0  0  0  0  0  0  0
  148.6540  157.0320  132.6290 C   0  0  0  0  0  0  0  0  0  0  0  0
  148.8260  155.6830  132.9260 C   0  0  0  0  0  0  0  0  0  0  0  0
  147.8610  155.0600  133.7350 C   0  0  0  0  0  0  0  0  0  0  0  0
  146.7630  155.7950  134.2440 C   0  0  0  0  0  0  0  0  0  0  0  0
  145.7260  155.1110  135.0860 C   0  0  0  0  0  0  0  0  0  0  0  0
  146.3360  154.1690  135.8940 F   0  0  0  0  0  0  0  0  0  0  0  0
  146.6130  157.1590  133.9080 C   0  0  0  0  0  0  0  0  0  0  0  0
  147.5790  157.7490  133.0850 C   0  0  0  0  0  0  0  0  0  0  0  0
  147.6520  159.0320  132.6650 N   0  0  0  0  0  0  0  0  0  0  0  0
  146.7590  160.0990  133.0200 C   0  0  0  0  0  0  0  0  0  0  0  0
  147.1890  161.0850  133.6800 O   0  0  0  0  0  0  0  0  0  0  0  0
  145.4220  160.0500  132.6130 O   0  0  0  0  0  0  0  0  0  0  0  0
  144.4070  159.3880  133.3600 C   0  0  0  0  0  0  0  0  0  0  0  0
  143.7930  160.3100  134.2290 O   0  0  0  0  0  0  0  0  0  0  0  0
  142.1050  160.0830  134.1490 P   0  0  0  0  0  0  0  0  0  0  0  0
  141.7700  159.0250  133.1200 O   0  0  0  0  0  0  0  0  0  0  0  0
  141.5030  159.6140  135.6590 O   0  0  0  0  0  0  0  0  0  0  0  0
  141.3770  161.5400  133.6970 O   0  0  0  0  0  0  0  0  0  0  0  0
  148.0940  161.9490  131.9420 H   0  0  0  0  0  0  0  0  0  0  0  0
  150.3905  157.6421  131.3812 H   0  0  0  0  0  0  0  0  0  0  0  0
  149.6900  155.1225  132.5396 H   0  0  0  0  0  0  0  0  0  0  0  0
  147.9594  153.9911  133.9753 H   0  0  0  0  0  0  0  0  0  0  0  0
  145.2137  155.8554  135.7132 H   0  0  0  0  0  0  0  0  0  0  0  0
  144.9930  154.6145  134.4332 H   0  0  0  0  0  0  0  0  0  0  0  0
  145.7592  157.7421  134.2835 H   0  0  0  0  0  0  0  0  0  0  0  0
  143.6549  158.9745  132.6720 H   0  0  0  0  0  0  0  0  0  0  0  0
  144.8538  158.5709  133.9454 H   0  0  0  0  0  0  0  0  0  0  0  0
  1  2  1  0
  2  3  2  0
  2  4  1  0
  4  5  2  0
  5  6  1  0
  6  7  2  0
  7  8  1  0
  8  9  2  0
  9 10  1  0
 10 11  1  0
  9 12  1  0
 12 13  2  0
 13 14  1  0
 14 15  1  0
 15 16  2  0
 15 17  1  0
 17 18  1  0
 18 19  1  0
 19 20  1  0
 20 21  2  0
 20 22  1  0
 20 23  1  0
 14  4  1  0
 13  6  1  0
  1 24  1  0
  5 25  1  0
  7 26  1  0
  8 27  1  0
 10 28  1  0
 10 29  1  0
 12 30  1  0
 18 31  1  0
 18 32  1  0
M  CHG  3   1  -1  22  -1  23  -1
M  END
>  <UniqueID>  (90) 
90

>  <SMILES>  (90) 
[NH-]C(=O)c1cc2ccc(CF)cc2n1C(=O)OCOP(=O)([O-])[O-]

>  <Energy>  (90) 
68.27346682450194

>  <Genealogy>  (90) 
[NH-]C(=O)c1cc2ccc(CF)cc2n1C(=O)OCOP(=O)([O-])[O-] (protonated)
[NH-]C(=O)c1cc2ccc(CF)cc2n1C(=O)OCOP(=O)([O-])[O-] (3D coordinates assigned)
[NH-]C(=O)c1cc2ccc(CF)cc2n1C(=O)OCOP(=O)([O-])[O-] (optimized conformer: 68.27346682450194 kcal/mol)

>  <smiles>  (90) 
NC(=O)c1cc2ccc(CF)cc2n1C(=O)OCOP(=O)(O)O

>  <score_type>  (90) 
oracle

>  <origin>  (90) 
adg

>  <m_score__min__energy>  (90) 
-6.0199999999999996

>  <m_primary>  (90) 
energy

$$$$
94:0
     RDKit          3D

 32 33  0  0  0  0  0  0  0  0999 V2000
  145.1190  162.8120  134.2970 C   0  0  0  0  0  0  0  0  0  0  0  0
  144.7630  161.6770  134.1060 C   0  0  0  0  0  0  0  0  0  0  0  0
  144.3370  160.3210  133.8770 C   0  0  0  0  0  0  0  0  0  0  0  0
  145.3000  159.3060  133.6690 C   0  0  0  0  0  0  0  0  0  0  0  0
  144.8970  157.9810  133.4320 C   0  0  0  0  0  0  0  0  0  0  0  0
  143.5320  157.7070  133.4150 C   0  0  0  0  0  0  0  0  0  0  0  0
  142.8700  156.5230  133.1850 C   0  0  0  0  0  0  0  0  0  0  0  0
  141.5140  156.8330  133.2770 C   0  0  0  0  0  0  0  0  0  0  0  0
  140.4310  155.8280  133.1860 C   0  0  0  0  0  0  0  0  0  0  0  0
  139.0820  156.2310  132.9420 N   0  0  0  0  0  0  0  0  0  0  0  0
  140.6950  154.6020  133.2930 O   0  0  0  0  0  0  0  0  0  0  0  0
  141.3450  158.1570  133.5520 N   0  0  0  0  0  0  0  0  0  0  0  0
  140.1050  158.8760  133.6510 C   0  0  0  0  0  0  0  0  0  0  0  0
  139.2730  158.5750  134.5510 O   0  0  0  0  0  0  0  0  0  0  0  0
  139.8300  159.9140  132.7530 O   0  0  0  0  0  0  0  0  0  0  0  0
  139.6160  159.7100  131.3580 C   0  0  0  0  0  0  0  0  0  0  0  0
  138.1600  159.3300  131.0880 C   0  0  0  0  0  0  0  0  0  0  0  0
  137.6380  158.6080  132.1690 O   0  0  0  0  0  0  0  0  0  0  0  0
  142.5890  158.6790  133.6330 C   0  0  0  0  0  0  0  0  0  0  0  0
  142.9620  160.0110  133.8540 C   0  0  0  0  0  0  0  0  0  0  0  0
  145.4441  163.8483  134.4714 H   0  0  0  0  0  0  0  0  0  0  0  0
  146.3711  159.5556  133.6930 H   0  0  0  0  0  0  0  0  0  0  0  0
  145.6372  157.1846  133.2650 H   0  0  0  0  0  0  0  0  0  0  0  0
  143.3162  155.5401  132.9734 H   0  0  0  0  0  0  0  0  0  0  0  0
  138.8160  157.2390  132.9010 H   0  0  0  0  0  0  0  0  0  0  0  0
  138.3320  155.5120  132.8410 H   0  0  0  0  0  0  0  0  0  0  0  0
  139.8543  160.6371  130.8161 H   0  0  0  0  0  0  0  0  0  0  0  0
  140.2660  158.8916  131.0150 H   0  0  0  0  0  0  0  0  0  0  0  0
  137.5671  160.2450  130.9424 H   0  0  0  0  0  0  0  0  0  0  0  0
  138.1149  158.7043  130.1844 H   0  0  0  0  0  0  0  0  0  0  0  0
  137.9040  159.0960  132.9910 H   0  0  0  0  0  0  0  0  0  0  0  0
  142.2034  160.7930  134.0053 H   0  0  0  0  0  0  0  0  0  0  0  0
  1  2  3  0
  2  3  1  0
  3  4  2  0
  4  5  1  0
  5  6  2  0
  6  7  1  0
  7  8  2  0
  8  9  1  0
  9 10  1  0
  9 11  2  0
  8 12  1  0
 12 13  1  0
 13 14  2  0
 13 15  1  0
 15 16  1  0
 16 17  1  0
 17 18  1  0
 12 19  1  0
 19 20  2  0
 20  3  1  0
 19  6  1  0
  1 21  1  0
  4 22  1  0
  5 23  1  0
  7 24  1  0
 10 25  1  0
 10 26  1  0
 16 27  1  0
 16 28  1  0
 17 29  1  0
 17 30  1  0
 18 31  1  0
 20 32  1  0
M  END
>  <UniqueID>  (91) 
91

>  <SMILES>  (91) 
C#Cc1ccc2cc(C(N)=O)n(C(=O)OCCO)c2c1

>  <Energy>  (91) 
65.43861960858004

>  <Genealogy>  (91) 
C#Cc1ccc2cc(C(N)=O)n(C(=O)OCCO)c2c1 (3D coordinates assigned)
C#Cc1ccc2cc(C(N)=O)n(C(=O)OCCO)c2c1 (optimized conformer: 65.43861960858004 kcal/mol)

>  <smiles>  (91) 
C#Cc1ccc2cc(C(N)=O)n(C(=O)OCCO)c2c1

>  <score_type>  (91) 
oracle

>  <origin>  (91) 
adg

>  <m_score__min__energy>  (91) 
-6.5700000000000003

>  <m_primary>  (91) 
energy

$$$$
