0:0
     RDKit          3D

 41 42  0  0  0  0  0  0  0  0999 V2000
  147.0800  151.1870  131.9120 C   0  0  0  0  0  0  0  0  0  0  0  0
  145.7400  151.7300  132.2700 C   0  0  0  0  0  0  0  0  0  0  0  0
  144.7320  150.9740  132.2330 O   0  0  0  0  0  0  0  0  0  0  0  0
  145.6120  153.0790  132.6220 O   0  0  0  0  0  0  0  0  0  0  0  0
  144.3550  153.7350  132.7820 C   0  0  0  0  0  0  0  0  0  0  0  0
  144.5180  155.1070  133.4470 C   0  0  0  0  0  0  0  0  0  0  0  0
  145.8490  155.2490  134.1370 C   0  0  0  0  0  0  0  0  0  0  0  0
  146.0530  154.6440  135.2240 O   0  0  0  0  0  0  0  0  0  0  0  0
  146.8940  156.0600  133.5760 N   0  0  0  0  0  0  0  0  0  0  0  0
  148.1030  155.6440  133.1030 C   0  0  0  0  0  0  0  0  0  0  0  0
  148.6010  154.2500  133.0920 C   0  0  0  0  0  0  0  0  0  0  0  0
  148.1610  153.3000  134.0590 N   0  0  0  0  0  0  0  0  0  0  0  0
  149.4410  153.8970  132.2210 O   0  0  0  0  0  0  0  0  0  0  0  0
  148.8530  156.7340  132.6670 C   0  0  0  0  0  0  0  0  0  0  0  0
  148.0590  157.8370  132.8890 C   0  0  0  0  0  0  0  0  0  0  0  0
  148.3120  159.1820  132.6530 C   0  0  0  0  0  0  0  0  0  0  0  0
  147.3110  160.1090  132.9860 C   0  0  0  0  0  0  0  0  0  0  0  0
  146.0700  159.6830  133.5370 C   0  0  0  0  0  0  0  0  0  0  0  0
  145.0460  160.6490  133.8870 N   0  0  0  0  0  0  0  0  0  0  0  0
  143.6260  160.2930  133.7870 C   0  0  0  0  0  0  0  0  0  0  0  0
  145.4130  161.9870  134.3630 C   0  0  0  0  0  0  0  0  0  0  0  0
  145.8550  158.2970  133.7470 C   0  0  0  0  0  0  0  0  0  0  0  0
  146.8810  157.4020  133.4320 C   0  0  0  0  0  0  0  0  0  0  0  0
  147.6409  150.9597  132.8306 H   0  0  0  0  0  0  0  0  0  0  0  0
  146.9571  150.2677  131.3205 H   0  0  0  0  0  0  0  0  0  0  0  0
  147.6317  151.9325  131.3205 H   0  0  0  0  0  0  0  0  0  0  0  0
  143.8937  153.8699  131.7926 H   0  0  0  0  0  0  0  0  0  0  0  0
  143.7199  153.1114  133.4283 H   0  0  0  0  0  0  0  0  0  0  0  0
  144.4335  155.8869  132.6759 H   0  0  0  0  0  0  0  0  0  0  0  0
  143.7301  155.2098  134.2077 H   0  0  0  0  0  0  0  0  0  0  0  0
  147.1470  153.0770  134.1690 H   0  0  0  0  0  0  0  0  0  0  0  0
  149.8651  156.7172  132.2366 H   0  0  0  0  0  0  0  0  0  0  0  0
  149.2674  159.5112  132.2185 H   0  0  0  0  0  0  0  0  0  0  0  0
  147.4890  161.1815  132.8182 H   0  0  0  0  0  0  0  0  0  0  0  0
  143.2026  160.1869  134.7967 H   0  0  0  0  0  0  0  0  0  0  0  0
  143.0870  161.0838  133.2447 H   0  0  0  0  0  0  0  0  0  0  0  0
  143.5239  159.3414  133.2447 H   0  0  0  0  0  0  0  0  0  0  0  0
  145.4157  161.9969  135.4630 H   0  0  0  0  0  0  0  0  0  0  0  0
  146.4154  162.2462  133.9915 H   0  0  0  0  0  0  0  0  0  0  0  0
  144.6831  162.7213  133.9915 H   0  0  0  0  0  0  0  0  0  0  0  0
  144.8984  157.9332  134.1503 H   0  0  0  0  0  0  0  0  0  0  0  0
  1  2  1  0
  2  3  2  0
  2  4  1  0
  4  5  1  0
  5  6  1  0
  6  7  1  0
  7  8  2  0
  7  9  1  0
  9 10  1  0
 10 11  1  0
 11 12  1  0
 11 13  2  0
 10 14  2  0
 14 15  1  0
 15 16  2  0
 16 17  1  0
 17 18  2  0
 18 19  1  0
 19 20  1  0
 19 21  1  0
 18 22  1  0
 22 23  2  0
 23  9  1  0
 23 15  1  0
  1 24  1  0
  1 25  1  0
  1 26  1  0
  5 27  1  0
  5 28  1  0
  6 29  1  0
  6 30  1  0
 12 31  1  0
 14 32  1  0
 16 33  1  0
 17 34  1  0
 20 35  1  0
 20 36  1  0
 20 37  1  0
 21 38  1  0
 21 39  1  0
 21 40  1  0
 22 41  1  0
M  CHG  1  12  -1
M  END
>  <UniqueID>  (1) 
1

>  <SMILES>  (1) 
CC(=O)OCCC(=O)n1c(C([NH-])=O)cc2ccc(N(C)C)cc21

>  <Energy>  (1) 
73.60388594389246

>  <Genealogy>  (1) 
CC(=O)OCCC(=O)n1c(C([NH-])=O)cc2ccc(N(C)C)cc21 (protonated)
CC(=O)OCCC(=O)n1c(C([NH-])=O)cc2ccc(N(C)C)cc21 (3D coordinates assigned)
CC(=O)OCCC(=O)n1c(C([NH-])=O)cc2ccc(N(C)C)cc21 (optimized conformer: 73.60388594389246 kcal/mol)

>  <smiles>  (1) 
CC(=O)OCCC(=O)n1c(C(N)=O)cc2ccc(N(C)C)cc21

>  <score_type>  (1) 
oracle

>  <origin>  (1) 
adg

>  <m_score__min__energy>  (1) 
-5.8700000000000001

>  <m_primary>  (1) 
energy

$$$$
1:0
     RDKit          3D

 42 43  0  0  0  0  0  0  0  0999 V2000
  141.5870  155.6250  132.5440 H   0  0  0  0  0  0  0  0  0  0  0  0
  140.9680  155.8270  133.3610 N   0  0  0  0  0  0  0  0  0  0  0  0
  141.0410  157.0740  134.0470 C   0  0  0  0  0  0  0  0  0  0  0  0
  140.0260  157.5030  134.6570 O   0  0  0  0  0  0  0  0  0  0  0  0
  142.2720  157.8910  134.0090 C   0  0  0  0  0  0  0  0  0  0  0  0
  142.2770  159.2790  134.1510 C   0  0  0  0  0  0  0  0  0  0  0  0
  141.4175  159.9308  134.3664 H   0  0  0  0  0  0  0  0  0  0  0  0
  143.5870  159.6590  133.9640 C   0  0  0  0  0  0  0  0  0  0  0  0
  144.1650  160.9250  133.9820 C   0  0  0  0  0  0  0  0  0  0  0  0
  143.5581  161.8234  134.1680 H   0  0  0  0  0  0  0  0  0  0  0  0
  145.5480  161.0190  133.7550 C   0  0  0  0  0  0  0  0  0  0  0  0
  146.0337  162.0059  133.7564 H   0  0  0  0  0  0  0  0  0  0  0  0
  146.3250  159.8550  133.5240 C   0  0  0  0  0  0  0  0  0  0  0  0
  147.8040  159.9750  133.2640 C   0  0  0  0  0  0  0  0  0  0  0  0
  148.1194  161.0070  133.4772 H   0  0  0  0  0  0  0  0  0  0  0  0
  148.3228  159.2573  133.9165 H   0  0  0  0  0  0  0  0  0  0  0  0
  148.1620  159.6380  131.8100 C   0  0  0  0  0  0  0  0  0  0  0  0
  147.3708  158.9993  131.3904 H   0  0  0  0  0  0  0  0  0  0  0  0
  148.2503  160.5855  131.2582 H   0  0  0  0  0  0  0  0  0  0  0  0
  149.5050  158.9010  131.6930 C   0  0  0  0  0  0  0  0  0  0  0  0
  149.8562  158.9557  130.6520 H   0  0  0  0  0  0  0  0  0  0  0  0
  150.2286  159.3804  132.3687 H   0  0  0  0  0  0  0  0  0  0  0  0
  149.3660  157.4970  132.0780 N   0  0  0  0  0  0  0  0  0  0  0  0
  149.6260  157.3730  133.0830 H   0  0  0  0  0  0  0  0  0  0  0  0
  149.9760  156.8980  131.4770 H   0  0  0  0  0  0  0  0  0  0  0  0
  148.3700  157.2040  131.9480 H   0  0  0  0  0  0  0  0  0  0  0  0
  145.7000  158.5890  133.5050 C   0  0  0  0  0  0  0  0  0  0  0  0
  146.2832  157.6748  133.3202 H   0  0  0  0  0  0  0  0  0  0  0  0
  144.3210  158.5270  133.7270 C   0  0  0  0  0  0  0  0  0  0  0  0
  143.5340  157.4320  133.7730 N   0  0  0  0  0  0  0  0  0  0  0  0
  143.9670  156.0750  133.5810 C   0  0  0  0  0  0  0  0  0  0  0  0
  143.7330  155.5070  132.4830 O   0  0  0  0  0  0  0  0  0  0  0  0
  144.6390  155.3000  134.6450 C   0  0  0  0  0  0  0  0  0  0  0  0
  144.1077  155.2054  135.6035 H   0  0  0  0  0  0  0  0  0  0  0  0
  145.8360  154.7010  134.5520 C   0  0  0  0  0  0  0  0  0  0  0  0
  146.2259  154.2183  135.4603 H   0  0  0  0  0  0  0  0  0  0  0  0
  146.6940  154.6300  133.3160 C   0  0  0  0  0  0  0  0  0  0  0  0
  147.0697  153.6020  133.2065 H   0  0  0  0  0  0  0  0  0  0  0  0
  146.0704  154.9275  132.4600 H   0  0  0  0  0  0  0  0  0  0  0  0
  147.8650  155.5660  133.3720 C   0  0  0  0  0  0  0  0  0  0  0  0
  147.7780  156.6740  133.9660 O   0  0  0  0  0  0  0  0  0  0  0  0
  149.0290  155.2490  132.6850 O   0  0  0  0  0  0  0  0  0  0  0  0
  1  2  1  0
  2  3  1  0
  3  4  2  0
  3  5  1  0
  5  6  2  0
  6  7  1  0
  6  8  1  0
  8  9  2  0
  9 10  1  0
  9 11  1  0
 11 12  1  0
 11 13  2  0
 13 14  1  0
 14 15  1  0
 14 16  1  0
 14 17  1  0
 17 18  1  0
 17 19  1  0
 17 20  1  0
 20 21  1  0
 20 22  1  0
 20 23  1  0
 23 24  1  0
 23 25  1  0
 23 26  1  0
 13 27  1  0
 27 28  1  0
 27 29  2  0
 29 30  1  0
 30 31  1  0
 31 32  2  0
 31 33  1  0
 33 34  1  0
 33 35  2  0
 35 36  1  0
 35 37  1  0
 37 38  1  0
 37 39  1  0
 37 40  1  0
 40 41  2  0
 40 42  1  0
 30  5  1  0
 29  8  1  0
M  CHG  3   2  -1  23   1  42  -1
M  END
>  <UniqueID>  (2) 
2

>  <SMILES>  (2) 
[NH-]C(=O)c1cc2ccc(CCC[NH3+])cc2n1C(=O)/C=C\CC(=O)[O-]

>  <Energy>  (2) 
77.02596403567874

>  <Genealogy>  (2) 
[NH-]C(=O)c1cc2ccc(CCC[NH3+])cc2n1C(=O)/C=C\CC(=O)[O-] (protonated)
[NH-]C(=O)c1cc2ccc(CCC[NH3+])cc2n1C(=O)/C=C\CC(=O)[O-] (cis-trans isomerization)
[NH-]C(=O)c1cc2ccc(CCC[NH3+])cc2n1C(=O)/C=C\CC(=O)[O-] (3D coordinates assigned)
[NH-]C(=O)c1cc2ccc(CCC[NH3+])cc2n1C(=O)/C=C\CC(=O)[O-] (optimized conformer: 77.02596403567874 kcal/mol)

>  <smiles>  (2) 
NCCCc1ccc2cc(C(N)=O)n(C(=O)/C=C\CC(=O)O)c2c1

>  <score_type>  (2) 
oracle

>  <origin>  (2) 
adg

>  <m_score__min__energy>  (2) 
-5.9400000000000004

>  <m_primary>  (2) 
energy

$$$$
2:0
     RDKit          3D

 41 42  0  0  0  0  0  0  0  0999 V2000
  138.7490  160.4790  130.1490 C   0  0  0  0  0  0  0  0  0  0  0  0
  137.8060  159.8060  131.0860 C   0  0  0  0  0  0  0  0  0  0  0  0
  136.5840  159.7280  130.7870 O   0  0  0  0  0  0  0  0  0  0  0  0
  138.2920  159.2580  132.2780 O   0  0  0  0  0  0  0  0  0  0  0  0
  139.5570  158.6130  132.3960 C   0  0  0  0  0  0  0  0  0  0  0  0
  140.4010  159.3460  133.2820 O   0  0  0  0  0  0  0  0  0  0  0  0
  140.6730  158.9620  134.5990 C   0  0  0  0  0  0  0  0  0  0  0  0
  140.7700  159.8240  135.5160 O   0  0  0  0  0  0  0  0  0  0  0  0
  140.8560  157.6050  134.8810 O   0  0  0  0  0  0  0  0  0  0  0  0
  142.1220  157.0500  135.2190 C   0  0  0  0  0  0  0  0  0  0  0  0
  143.1530  157.9790  134.9060 O   0  0  0  0  0  0  0  0  0  0  0  0
  143.7010  158.0970  133.6250 C   0  0  0  0  0  0  0  0  0  0  0  0
  143.1160  157.5830  132.6330 O   0  0  0  0  0  0  0  0  0  0  0  0
  144.9480  158.7890  133.4440 N   0  0  0  0  0  0  0  0  0  0  0  0
  145.1840  160.1270  133.5690 C   0  0  0  0  0  0  0  0  0  0  0  0
  144.1590  161.1730  133.7660 C   0  0  0  0  0  0  0  0  0  0  0  0
  142.7760  160.8260  133.7240 N   0  0  0  0  0  0  0  0  0  0  0  0
  144.4880  162.3630  134.0090 O   0  0  0  0  0  0  0  0  0  0  0  0
  146.5390  160.4010  133.4020 C   0  0  0  0  0  0  0  0  0  0  0  0
  147.1310  159.1830  133.1630 C   0  0  0  0  0  0  0  0  0  0  0  0
  148.4690  158.8680  132.9400 C   0  0  0  0  0  0  0  0  0  0  0  0
  148.8040  157.5160  132.7520 C   0  0  0  0  0  0  0  0  0  0  0  0
  147.8060  156.5120  132.7960 C   0  0  0  0  0  0  0  0  0  0  0  0
  148.1890  155.0720  132.6100 C   0  0  0  0  0  0  0  0  0  0  0  0
  147.8280  154.3450  133.7300 F   0  0  0  0  0  0  0  0  0  0  0  0
  149.5570  154.9730  132.4230 F   0  0  0  0  0  0  0  0  0  0  0  0
  146.4580  156.8700  133.0280 C   0  0  0  0  0  0  0  0  0  0  0  0
  146.1510  158.2260  133.1930 C   0  0  0  0  0  0  0  0  0  0  0  0
  139.5119  161.0235  130.7248 H   0  0  0  0  0  0  0  0  0  0  0  0
  139.2374  159.7241  129.5152 H   0  0  0  0  0  0  0  0  0  0  0  0
  138.1939  161.1862  129.5152 H   0  0  0  0  0  0  0  0  0  0  0  0
  139.4115  157.5964  132.7901 H   0  0  0  0  0  0  0  0  0  0  0  0
  140.0308  158.5662  131.4044 H   0  0  0  0  0  0  0  0  0  0  0  0
  142.1469  156.8254  136.2955 H   0  0  0  0  0  0  0  0  0  0  0  0
  142.2789  156.1252  134.6444 H   0  0  0  0  0  0  0  0  0  0  0  0
  142.4450  159.8940  134.0580 H   0  0  0  0  0  0  0  0  0  0  0  0
  147.0314  161.3834  133.4509 H   0  0  0  0  0  0  0  0  0  0  0  0
  149.2395  159.6526  132.9119 H   0  0  0  0  0  0  0  0  0  0  0  0
  149.8516  157.2349  132.5689 H   0  0  0  0  0  0  0  0  0  0  0  0
  147.6673  154.6723  131.7279 H   0  0  0  0  0  0  0  0  0  0  0  0
  145.6709  156.1031  133.0776 H   0  0  0  0  0  0  0  0  0  0  0  0
  1  2  1  0
  2  3  2  0
  2  4  1  0
  4  5  1  0
  5  6  1  0
  6  7  1  0
  7  8  2  0
  7  9  1  0
  9 10  1  0
 10 11  1  0
 11 12  1  0
 12 13  2  0
 12 14  1  0
 14 15  1  0
 15 16  1  0
 16 17  1  0
 16 18  2  0
 15 19  2  0
 19 20  1  0
 20 21  2  0
 21 22  1  0
 22 23  2  0
 23 24  1  0
 24 25  1  0
 24 26  1  0
 23 27  1  0
 27 28  2  0
 28 14  1  0
 28 20  1  0
  1 29  1  0
  1 30  1  0
  1 31  1  0
  5 32  1  0
  5 33  1  0
 10 34  1  0
 10 35  1  0
 17 36  1  0
 19 37  1  0
 21 38  1  0
 22 39  1  0
 24 40  1  0
 27 41  1  0
M  CHG  1  17  -1
M  END
>  <UniqueID>  (3) 
3

>  <SMILES>  (3) 
CC(=O)OCOC(=O)OCOC(=O)n1c(C([NH-])=O)cc2ccc(C(F)F)cc21

>  <Energy>  (3) 
73.70005590587336

>  <Genealogy>  (3) 
CC(=O)OCOC(=O)OCOC(=O)n1c(C([NH-])=O)cc2ccc(C(F)F)cc21 (protonated)
CC(=O)OCOC(=O)OCOC(=O)n1c(C([NH-])=O)cc2ccc(C(F)F)cc21 (3D coordinates assigned)
CC(=O)OCOC(=O)OCOC(=O)n1c(C([NH-])=O)cc2ccc(C(F)F)cc21 (optimized conformer: 73.70005590587336 kcal/mol)

>  <smiles>  (3) 
CC(=O)OCOC(=O)OCOC(=O)n1c(C(N)=O)cc2ccc(C(F)F)cc21

>  <score_type>  (3) 
oracle

>  <origin>  (3) 
adg

>  <m_score__min__energy>  (3) 
-5.3700000000000001

>  <m_primary>  (3) 
energy

$$$$
3:0
     RDKit          3D

 46 47  0  0  0  0  0  0  0  0999 V2000
  140.8620  159.2440  137.1090 C   0  0  0  0  0  0  0  0  0  0  0  0
  140.5650  158.0490  136.2980 N   0  0  2  0  0  0  0  0  0  0  0  0
  139.1770  158.0240  135.7710 C   0  0  0  0  0  0  0  0  0  0  0  0
  139.0600  157.7190  134.2630 C   0  0  0  0  0  0  0  0  0  0  0  0
  140.2200  157.0690  133.8180 O   0  0  0  0  0  0  0  0  0  0  0  0
  140.9010  156.8280  137.0110 C   0  0  0  0  0  0  0  0  0  0  0  0
  140.7700  156.7620  138.2270 O   0  0  0  0  0  0  0  0  0  0  0  0
  141.4410  155.6280  136.2720 C   0  0  0  0  0  0  0  0  0  0  0  0
  142.6890  155.9920  135.4680 C   0  0  0  0  0  0  0  0  0  0  0  0
  142.5680  157.3230  134.9780 O   0  0  0  0  0  0  0  0  0  0  0  0
  143.0650  157.7380  133.7380 C   0  0  0  0  0  0  0  0  0  0  0  0
  142.7460  157.1180  132.6870 O   0  0  0  0  0  0  0  0  0  0  0  0
  143.9170  158.8960  133.6660 N   0  0  0  0  0  0  0  0  0  0  0  0
  143.5660  160.2070  133.8050 C   0  0  0  0  0  0  0  0  0  0  0  0
  142.1890  160.7360  133.9110 C   0  0  0  0  0  0  0  0  0  0  0  0
  141.0870  159.8710  134.1780 N   0  0  0  0  0  0  0  0  0  0  0  0
  141.9750  161.9610  133.7070 O   0  0  0  0  0  0  0  0  0  0  0  0
  144.6900  161.0250  133.7310 C   0  0  0  0  0  0  0  0  0  0  0  0
  145.7500  160.1710  133.5230 C   0  0  0  0  0  0  0  0  0  0  0  0
  147.1020  160.4500  133.3510 C   0  0  0  0  0  0  0  0  0  0  0  0
  147.9790  159.3700  133.1470 C   0  0  0  0  0  0  0  0  0  0  0  0
  147.4970  158.0360  133.1470 C   0  0  0  0  0  0  0  0  0  0  0  0
  148.4350  156.8890  132.8720 C   0  0  0  0  0  0  0  0  0  0  0  0
  148.8350  156.3320  134.0730 F   0  0  0  0  0  0  0  0  0  0  0  0
  149.5550  157.3240  132.1830 F   0  0  0  0  0  0  0  0  0  0  0  0
  147.8090  155.9190  132.1110 F   0  0  0  0  0  0  0  0  0  0  0  0
  146.1130  157.7960  133.3130 C   0  0  0  0  0  0  0  0  0  0  0  0
  145.2580  158.8920  133.4880 C   0  0  0  0  0  0  0  0  0  0  0  0
  140.7983  158.9876  138.1768 H   0  0  0  0  0  0  0  0  0  0  0  0
  141.8763  159.6014  136.8776 H   0  0  0  0  0  0  0  0  0  0  0  0
  140.1330  160.0346  136.8776 H   0  0  0  0  0  0  0  0  0  0  0  0
  141.1880  158.1160  135.4550 H   0  0  0  0  0  0  0  0  0  0  0  0
  138.6169  157.2528  136.3201 H   0  0  0  0  0  0  0  0  0  0  0  0
  138.7749  159.0380  135.9127 H   0  0  0  0  0  0  0  0  0  0  0  0
  138.1885  157.0710  134.0881 H   0  0  0  0  0  0  0  0  0  0  0  0
  138.9377  158.6622  133.7103 H   0  0  0  0  0  0  0  0  0  0  0  0
  140.9000  157.7750  133.6560 H   0  0  0  0  0  0  0  0  0  0  0  0
  141.6984  154.8441  136.9995 H   0  0  0  0  0  0  0  0  0  0  0  0
  140.6687  155.2705  135.5751 H   0  0  0  0  0  0  0  0  0  0  0  0
  143.5758  155.9189  136.1148 H   0  0  0  0  0  0  0  0  0  0  0  0
  142.7939  155.2982  134.6209 H   0  0  0  0  0  0  0  0  0  0  0  0
  141.2320  158.8500  134.3440 H   0  0  0  0  0  0  0  0  0  0  0  0
  144.7241  162.1209  133.8198 H   0  0  0  0  0  0  0  0  0  0  0  0
  147.4740  161.4849  133.3739 H   0  0  0  0  0  0  0  0  0  0  0  0
  149.0501  159.5617  132.9857 H   0  0  0  0  0  0  0  0  0  0  0  0
  145.7162  156.7701  133.3049 H   0  0  0  0  0  0  0  0  0  0  0  0
  1  2  1  0
  2  3  1  0
  3  4  1  0
  4  5  1  0
  2  6  1  0
  6  7  2  0
  6  8  1  0
  8  9  1  0
  9 10  1  0
 10 11  1  0
 11 12  2  0
 11 13  1  0
 13 14  1  0
 14 15  1  0
 15 16  1  0
 15 17  2  0
 14 18  2  0
 18 19  1  0
 19 20  2  0
 20 21  1  0
 21 22  2  0
 22 23  1  0
 23 24  1  0
 23 25  1  0
 23 26  1  0
 22 27  1  0
 27 28  2  0
 28 13  1  0
 28 19  1  0
  1 29  1  0
  1 30  1  0
  1 31  1  0
  2 32  1  6
  3 33  1  0
  3 34  1  0
  4 35  1  0
  4 36  1  0
  5 37  1  0
  8 38  1  0
  8 39  1  0
  9 40  1  0
  9 41  1  0
 16 42  1  0
 18 43  1  0
 20 44  1  0
 21 45  1  0
 27 46  1  0
M  CHG  2   2   1  16  -1
M  END
>  <UniqueID>  (4) 
4

>  <SMILES>  (4) 
C[N@H+](CCO)C(=O)CCOC(=O)n1c(C([NH-])=O)cc2ccc(C(F)(F)F)cc21

>  <Energy>  (4) 
80.76656371418737

>  <Genealogy>  (4) 
C[NH+](CCO)C(=O)CCOC(=O)n1c(C([NH-])=O)cc2ccc(C(F)(F)F)cc21 (protonated)
C[N@H+](CCO)C(=O)CCOC(=O)n1c(C([NH-])=O)cc2ccc(C(F)(F)F)cc21 (chirality)
C[N@H+](CCO)C(=O)CCOC(=O)n1c(C([NH-])=O)cc2ccc(C(F)(F)F)cc21 (3D coordinates assigned)
C[N@H+](CCO)C(=O)CCOC(=O)n1c(C([NH-])=O)cc2ccc(C(F)(F)F)cc21 (optimized conformer: 80.76656371418737 kcal/mol)

>  <smiles>  (4) 
CN(CCO)C(=O)CCOC(=O)n1c(C(N)=O)cc2ccc(C(F)(F)F)cc21

>  <score_type>  (4) 
oracle

>  <origin>  (4) 
adg

>  <m_score__min__energy>  (4) 
-4.5

>  <m_primary>  (4) 
energy

$$$$
4:0
     RDKit          3D

 46 47  0  0  0  0  0  0  0  0999 V2000
  148.4830  161.1460  131.2290 C   0  0  0  0  0  0  0  0  0  0  0  0
  148.1290  159.8710  131.9360 C   0  0  0  0  0  0  0  0  0  0  0  0
  149.1550  159.0000  132.3810 C   0  0  0  0  0  0  0  0  0  0  0  0
  148.8420  157.8340  133.1020 C   0  0  0  0  0  0  0  0  0  0  0  0
  147.5010  157.5680  133.3600 C   0  0  0  0  0  0  0  0  0  0  0  0
  146.9260  156.5570  134.0960 C   0  0  0  0  0  0  0  0  0  0  0  0
  145.5580  156.8220  134.0780 C   0  0  0  0  0  0  0  0  0  0  0  0
  144.5530  155.9630  134.7370 C   0  0  0  0  0  0  0  0  0  0  0  0
  143.1550  156.2120  134.5960 N   0  0  0  0  0  0  0  0  0  0  0  0
  144.9360  154.9650  135.4010 O   0  0  0  0  0  0  0  0  0  0  0  0
  145.2980  157.9550  133.3680 N   0  0  0  0  0  0  0  0  0  0  0  0
  144.0480  158.6560  133.2380 C   0  0  0  0  0  0  0  0  0  0  0  0
  143.0900  158.1210  132.6170 O   0  0  0  0  0  0  0  0  0  0  0  0
  143.8990  160.0600  133.7530 C   0  0  0  0  0  0  0  0  0  0  0  0
  142.5520  160.4910  133.6650 O   0  0  0  0  0  0  0  0  0  0  0  0
  141.8190  160.1150  134.8200 C   0  0  0  0  0  0  0  0  0  0  0  0
  141.0690  158.8260  134.5930 C   0  0  0  0  0  0  0  0  0  0  0  0
  141.3790  157.8270  135.2990 O   0  0  0  0  0  0  0  0  0  0  0  0
  140.0560  158.6910  133.5630 N   0  0  0  0  0  0  0  0  0  0  0  0
  139.9620  159.6580  132.4660 C   0  0  0  0  0  0  0  0  0  0  0  0
  139.0650  157.6050  133.6520 C   0  0  0  0  0  0  0  0  0  0  0  0
  139.6230  156.3330  132.9980 C   0  0  0  0  0  0  0  0  0  0  0  0
  140.9070  156.0470  133.4950 O   0  0  0  0  0  0  0  0  0  0  0  0
  146.4970  158.3980  132.9320 C   0  0  0  0  0  0  0  0  0  0  0  0
  146.7810  159.5760  132.2320 C   0  0  0  0  0  0  0  0  0  0  0  0
  148.7003  161.9285  131.9709 H   0  0  0  0  0  0  0  0  0  0  0  0
  149.3696  160.9819  130.5989 H   0  0  0  0  0  0  0  0  0  0  0  0
  147.6387  161.4624  130.5989 H   0  0  0  0  0  0  0  0  0  0  0  0
  150.2059  159.2384  132.1602 H   0  0  0  0  0  0  0  0  0  0  0  0
  149.6326  157.1535  133.4511 H   0  0  0  0  0  0  0  0  0  0  0  0
  147.4371  155.7189  134.5924 H   0  0  0  0  0  0  0  0  0  0  0  0
  142.7970  156.9230  133.9250 H   0  0  0  0  0  0  0  0  0  0  0  0
  142.4640  155.6170  135.1050 H   0  0  0  0  0  0  0  0  0  0  0  0
  144.2199  160.0937  134.8046 H   0  0  0  0  0  0  0  0  0  0  0  0
  144.5221  160.7272  133.1394 H   0  0  0  0  0  0  0  0  0  0  0  0
  142.5164  159.9814  135.6601 H   0  0  0  0  0  0  0  0  0  0  0  0
  141.0902  160.9079  135.0441 H   0  0  0  0  0  0  0  0  0  0  0  0
  139.8634  160.6727  132.8791 H   0  0  0  0  0  0  0  0  0  0  0  0
  140.8700  159.6005  131.8477 H   0  0  0  0  0  0  0  0  0  0  0  0
  139.0821  159.4267  131.8477 H   0  0  0  0  0  0  0  0  0  0  0  0
  138.8398  157.4026  134.7095 H   0  0  0  0  0  0  0  0  0  0  0  0
  138.1470  157.9088  133.1276 H   0  0  0  0  0  0  0  0  0  0  0  0
  138.9531  155.4888  133.2183 H   0  0  0  0  0  0  0  0  0  0  0  0
  139.6888  156.4908  131.9114 H   0  0  0  0  0  0  0  0  0  0  0  0
  141.4450  156.8690  133.3580 H   0  0  0  0  0  0  0  0  0  0  0  0
  145.9737  160.2551  131.9202 H   0  0  0  0  0  0  0  0  0  0  0  0
  1  2  1  0
  2  3  2  0
  3  4  1  0
  4  5  2  0
  5  6  1  0
  6  7  2  0
  7  8  1  0
  8  9  1  0
  8 10  2  0
  7 11  1  0
 11 12  1  0
 12 13  2  0
 12 14  1  0
 14 15  1  0
 15 16  1  0
 16 17  1  0
 17 18  2  0
 17 19  1  0
 19 20  1  0
 19 21  1  0
 21 22  1  0
 22 23  1  0
 11 24  1  0
 24 25  2  0
 25  2  1  0
 24  5  1  0
  1 26  1  0
  1 27  1  0
  1 28  1  0
  3 29  1  0
  4 30  1  0
  6 31  1  0
  9 32  1  0
  9 33  1  0
 14 34  1  0
 14 35  1  0
 16 36  1  0
 16 37  1  0
 20 38  1  0
 20 39  1  0
 20 40  1  0
 21 41  1  0
 21 42  1  0
 22 43  1  0
 22 44  1  0
 23 45  1  0
 25 46  1  0
M  END
>  <UniqueID>  (5) 
5

>  <SMILES>  (5) 
Cc1ccc2cc(C(N)=O)n(C(=O)COCC(=O)N(C)CCO)c2c1

>  <Energy>  (5) 
81.01541049447195

>  <Genealogy>  (5) 
Cc1ccc2cc(C(N)=O)n(C(=O)COCC(=O)N(C)CCO)c2c1 (3D coordinates assigned)
Cc1ccc2cc(C(N)=O)n(C(=O)COCC(=O)N(C)CCO)c2c1 (optimized conformer: 81.01541049447195 kcal/mol)

>  <smiles>  (5) 
Cc1ccc2cc(C(N)=O)n(C(=O)COCC(=O)N(C)CCO)c2c1

>  <score_type>  (5) 
oracle

>  <origin>  (5) 
adg

>  <m_score__min__energy>  (5) 
-6.2999999999999998

>  <m_primary>  (5) 
energy

$$$$
5:0
     RDKit          3D

 37 38  0  0  0  0  0  0  0  0999 V2000
  148.0770  154.0560  133.8660 C   0  0  0  0  0  0  0  0  0  0  0  0
  147.2760  154.9530  134.8130 C   0  0  1  0  0  0  0  0  0  0  0  0
  146.2960  155.6930  134.0870 O   0  0  0  0  0  0  0  0  0  0  0  0
  146.5950  156.5040  132.9860 C   0  0  0  0  0  0  0  0  0  0  0  0
  146.9670  155.9890  131.8960 O   0  0  0  0  0  0  0  0  0  0  0  0
  146.5080  157.9330  133.1090 N   0  0  0  0  0  0  0  0  0  0  0  0
  147.4620  158.8550  132.7960 C   0  0  0  0  0  0  0  0  0  0  0  0
  148.8580  158.5610  132.4100 C   0  0  0  0  0  0  0  0  0  0  0  0
  149.3410  157.2210  132.4640 N   0  0  0  0  0  0  0  0  0  0  0  0
  149.6180  159.4750  131.9950 O   0  0  0  0  0  0  0  0  0  0  0  0
  146.9680  160.1470  132.9670 C   0  0  0  0  0  0  0  0  0  0  0  0
  145.6730  159.9880  133.4030 C   0  0  0  0  0  0  0  0  0  0  0  0
  144.7100  160.9440  133.7110 C   0  0  0  0  0  0  0  0  0  0  0  0
  143.4380  160.4940  134.1040 C   0  0  0  0  0  0  0  0  0  0  0  0
  143.1560  159.1080  134.1820 C   0  0  0  0  0  0  0  0  0  0  0  0
  141.7780  158.6400  134.5580 C   0  0  0  0  0  0  0  0  0  0  0  0
  140.5780  159.1280  133.2810 P   0  0  1  0  0  0  0  0  0  0  0  0
  139.1790  158.7710  133.7290 O   0  0  0  0  0  0  0  0  0  0  0  0
  140.6720  160.7970  133.0210 O   0  0  0  0  0  0  0  0  0  0  0  0
  140.9300  158.3190  131.8360 O   0  0  0  0  0  0  0  0  0  0  0  0
  144.1570  158.1670  133.8530 C   0  0  0  0  0  0  0  0  0  0  0  0
  145.4190  158.6430  133.4810 C   0  0  0  0  0  0  0  0  0  0  0  0
  146.5860  154.1120  135.8440 C   0  0  0  0  0  0  0  0  0  0  0  0
  145.3310  154.1420  135.9490 O   0  0  0  0  0  0  0  0  0  0  0  0
  147.3290  153.3280  136.7170 O   0  0  0  0  0  0  0  0  0  0  0  0
  148.6962  153.3625  134.4539 H   0  0  0  0  0  0  0  0  0  0  0  0
  147.3853  153.4822  133.2318 H   0  0  0  0  0  0  0  0  0  0  0  0
  148.7251  154.6786  133.2318 H   0  0  0  0  0  0  0  0  0  0  0  0
  147.9703  155.6521  135.3022 H   0  0  0  0  0  0  0  0  0  0  0  0
  149.0390  156.5130  131.7590 H   0  0  0  0  0  0  0  0  0  0  0  0
  147.5007  161.0932  132.7907 H   0  0  0  0  0  0  0  0  0  0  0  0
  144.9373  162.0185  133.6488 H   0  0  0  0  0  0  0  0  0  0  0  0
  142.6543  161.2246  134.3533 H   0  0  0  0  0  0  0  0  0  0  0  0
  141.7803  157.5443  134.6546 H   0  0  0  0  0  0  0  0  0  0  0  0
  141.4912  159.1010  135.5147 H   0  0  0  0  0  0  0  0  0  0  0  0
  141.7270  158.7840  131.4740 H   0  0  0  0  0  0  0  0  0  0  0  0
  143.9495  157.0873  133.8884 H   0  0  0  0  0  0  0  0  0  0  0  0
  1  2  1  0
  2  3  1  0
  3  4  1  0
  4  5  2  0
  4  6  1  0
  6  7  1  0
  7  8  1  0
  8  9  1  0
  8 10  2  0
  7 11  2  0
 11 12  1  0
 12 13  2  0
 13 14  1  0
 14 15  2  0
 15 16  1  0
 16 17  1  0
 17 18  2  0
 17 19  1  6
 17 20  1  0
 15 21  1  0
 21 22  2  0
  2 23  1  0
 23 24  2  0
 23 25  1  0
 22  6  1  0
 22 12  1  0
  1 26  1  0
  1 27  1  0
  1 28  1  0
  2 29  1  1
  9 30  1  0
 11 31  1  0
 13 32  1  0
 14 33  1  0
 16 34  1  0
 16 35  1  0
 20 36  1  0
 21 37  1  0
M  CHG  3   9  -1  19  -1  25  -1
M  END
>  <UniqueID>  (6) 
6

>  <SMILES>  (6) 
C[C@@H](OC(=O)n1c(C([NH-])=O)cc2ccc(C[P@@](=O)([O-])O)cc21)C(=O)[O-]

>  <Energy>  (6) 
65.5386154794419

>  <Genealogy>  (6) 
CC(OC(=O)n1c(C([NH-])=O)cc2ccc(CP(=O)([O-])O)cc21)C(=O)[O-] (protonated)
C[C@@H](OC(=O)n1c(C([NH-])=O)cc2ccc(C[P@@](=O)([O-])O)cc21)C(=O)[O-] (chirality)
C[C@@H](OC(=O)n1c(C([NH-])=O)cc2ccc(C[P@@](=O)([O-])O)cc21)C(=O)[O-] (3D coordinates assigned)
C[C@@H](OC(=O)n1c(C([NH-])=O)cc2ccc(C[P@@](=O)([O-])O)cc21)C(=O)[O-] (optimized conformer: 65.5386154794419 kcal/mol)

>  <smiles>  (6) 
CC(OC(=O)n1c(C(N)=O)cc2ccc(CP(=O)(O)O)cc21)C(=O)O

>  <score_type>  (6) 
oracle

>  <origin>  (6) 
adg

>  <m_score__min__energy>  (6) 
-7.0199999999999996

>  <m_primary>  (6) 
energy

$$$$
6:0
     RDKit          3D

 38 39  0  0  0  0  0  0  0  0999 V2000
  142.8600  163.0310  133.3590 H   0  0  0  0  0  0  0  0  0  0  0  0
  143.8950  163.1600  133.3630 N   0  0  0  0  0  0  0  0  0  0  0  0
  144.7400  162.2870  134.1080 C   0  0  0  0  0  0  0  0  0  0  0  0
  145.4720  162.7650  135.0150 O   0  0  0  0  0  0  0  0  0  0  0  0
  144.7500  160.8300  133.8520 C   0  0  0  0  0  0  0  0  0  0  0  0
  145.9010  160.1040  133.5520 C   0  0  0  0  0  0  0  0  0  0  0  0
  146.9239  160.4925  133.4390 H   0  0  0  0  0  0  0  0  0  0  0  0
  145.4860  158.7970  133.4270 C   0  0  0  0  0  0  0  0  0  0  0  0
  146.2120  157.6540  133.1170 C   0  0  0  0  0  0  0  0  0  0  0  0
  147.2985  157.7005  132.9517 H   0  0  0  0  0  0  0  0  0  0  0  0
  145.5170  156.4370  133.0210 C   0  0  0  0  0  0  0  0  0  0  0  0
  146.0698  155.5161  132.7835 H   0  0  0  0  0  0  0  0  0  0  0  0
  144.1080  156.3750  133.2260 C   0  0  0  0  0  0  0  0  0  0  0  0
  143.3970  155.1140  133.1160 N   0  0  0  0  0  0  0  0  0  0  0  0
  143.9720  153.9980  132.3540 C   0  0  0  0  0  0  0  0  0  0  0  0
  144.3620  153.2410  133.0503 H   0  0  0  0  0  0  0  0  0  0  0  0
  143.1939  153.5472  131.7205 H   0  0  0  0  0  0  0  0  0  0  0  0
  144.7907  154.3699  131.7205 H   0  0  0  0  0  0  0  0  0  0  0  0
  142.0930  154.9330  133.7650 C   0  0  0  0  0  0  0  0  0  0  0  0
  142.2215  154.9508  134.8573 H   0  0  0  0  0  0  0  0  0  0  0  0
  141.4167  155.7459  133.4620 H   0  0  0  0  0  0  0  0  0  0  0  0
  141.6636  153.9666  133.4620 H   0  0  0  0  0  0  0  0  0  0  0  0
  143.4120  157.5720  133.5360 C   0  0  0  0  0  0  0  0  0  0  0  0
  142.3226  157.5628  133.6879 H   0  0  0  0  0  0  0  0  0  0  0  0
  144.1360  158.7640  133.6450 C   0  0  0  0  0  0  0  0  0  0  0  0
  143.6690  160.0020  133.9130 N   0  0  0  0  0  0  0  0  0  0  0  0
  142.3000  160.3640  134.1380 C   0  0  0  0  0  0  0  0  0  0  0  0
  141.7480  161.1900  133.3620 O   0  0  0  0  0  0  0  0  0  0  0  0
  141.5390  159.7080  135.2260 C   0  0  0  0  0  0  0  0  0  0  0  0
  141.7883  160.0038  136.2557 H   0  0  0  0  0  0  0  0  0  0  0  0
  140.5690  158.7820  135.0750 C   0  0  0  0  0  0  0  0  0  0  0  0
  139.9980  158.4050  133.7640 C   0  0  0  0  0  0  0  0  0  0  0  0
  139.8350  157.1900  133.4750 O   0  0  0  0  0  0  0  0  0  0  0  0
  139.5590  159.3780  132.8750 O   0  0  0  0  0  0  0  0  0  0  0  0
  140.0500  158.0830  136.3030 C   0  0  0  0  0  0  0  0  0  0  0  0
  140.4279  158.5920  137.2019 H   0  0  0  0  0  0  0  0  0  0  0  0
  138.9503  158.1085  136.3022 H   0  0  0  0  0  0  0  0  0  0  0  0
  140.3925  157.0377  136.3022 H   0  0  0  0  0  0  0  0  0  0  0  0
  1  2  1  0
  2  3  1  0
  3  4  2  0
  3  5  1  0
  5  6  2  0
  6  7  1  0
  6  8  1  0
  8  9  2  0
  9 10  1  0
  9 11  1  0
 11 12  1  0
 11 13  2  0
 13 14  1  0
 14 15  1  0
 15 16  1  0
 15 17  1  0
 15 18  1  0
 14 19  1  0
 19 20  1  0
 19 21  1  0
 19 22  1  0
 13 23  1  0
 23 24  1  0
 23 25  2  0
 25 26  1  0
 26 27  1  0
 27 28  2  0
 27 29  1  0
 29 30  1  0
 29 31  2  0
 31 32  1  0
 32 33  2  0
 32 34  1  0
 31 35  1  0
 35 36  1  0
 35 37  1  0
 35 38  1  0
 26  5  1  0
 25  8  1  0
M  CHG  2   2  -1  34  -1
M  END
>  <UniqueID>  (7) 
7

>  <SMILES>  (7) 
C/C(=C/C(=O)n1c(C([NH-])=O)cc2ccc(N(C)C)cc21)C(=O)[O-]

>  <Energy>  (7) 
85.63318473539304

>  <Genealogy>  (7) 
CC(=CC(=O)n1c(C([NH-])=O)cc2ccc(N(C)C)cc21)C(=O)[O-] (protonated)
C/C(=C/C(=O)n1c(C([NH-])=O)cc2ccc(N(C)C)cc21)C(=O)[O-] (cis-trans isomerization)
C/C(=C/C(=O)n1c(C([NH-])=O)cc2ccc(N(C)C)cc21)C(=O)[O-] (3D coordinates assigned)
C/C(=C/C(=O)n1c(C([NH-])=O)cc2ccc(N(C)C)cc21)C(=O)[O-] (optimized conformer: 85.63318473539304 kcal/mol)

>  <smiles>  (7) 
CC(=CC(=O)n1c(C(N)=O)cc2ccc(N(C)C)cc21)C(=O)O

>  <score_type>  (7) 
oracle

>  <origin>  (7) 
adg

>  <m_score__min__energy>  (7) 
-6.7199999999999998

>  <m_primary>  (7) 
energy

$$$$
7:0
     RDKit          3D

 46 47  0  0  0  0  0  0  0  0999 V2000
  146.4580  152.8550  132.6900 C   0  0  0  0  0  0  0  0  0  0  0  0
  147.4620  153.7470  133.4530 C   0  0  0  0  0  0  0  0  0  0  0  0
  148.5580  152.8550  134.0790 C   0  0  0  0  0  0  0  0  0  0  0  0
  148.1270  154.7020  132.4380 C   0  0  0  0  0  0  0  0  0  0  0  0
  146.7280  154.5930  134.5410 C   0  0  2  0  0  0  0  0  0  0  0  0
  146.7350  155.9720  134.1680 O   0  0  0  0  0  0  0  0  0  0  0  0
  145.6820  156.6010  133.4940 C   0  0  0  0  0  0  0  0  0  0  0  0
  144.8730  155.9240  132.8030 O   0  0  0  0  0  0  0  0  0  0  0  0
  145.5170  158.0240  133.6040 N   0  0  0  0  0  0  0  0  0  0  0  0
  146.4900  158.9800  133.6310 C   0  0  0  0  0  0  0  0  0  0  0  0
  147.9450  158.7220  133.6870 C   0  0  0  0  0  0  0  0  0  0  0  0
  148.4750  157.7170  134.5540 N   0  0  0  0  0  0  0  0  0  0  0  0
  148.7330  159.3670  132.9450 O   0  0  0  0  0  0  0  0  0  0  0  0
  145.9220  160.2510  133.6980 C   0  0  0  0  0  0  0  0  0  0  0  0
  144.5630  160.0440  133.7160 C   0  0  0  0  0  0  0  0  0  0  0  0
  143.5180  160.9620  133.7800 C   0  0  0  0  0  0  0  0  0  0  0  0
  142.2040  160.4660  133.7670 C   0  0  0  0  0  0  0  0  0  0  0  0
  141.9580  159.0740  133.6710 C   0  0  0  0  0  0  0  0  0  0  0  0
  140.5480  158.5530  133.6780 C   0  0  0  0  0  0  0  0  0  0  0  0
  140.0470  158.4440  135.0830 C   0  0  0  0  0  0  0  0  0  0  0  0
  140.5060  159.3580  136.0760 N   0  0  0  0  0  0  0  0  0  0  0  0
  139.2470  157.5240  135.3980 O   0  0  0  0  0  0  0  0  0  0  0  0
  143.0440  158.1720  133.6180 C   0  0  0  0  0  0  0  0  0  0  0  0
  144.3430  158.6920  133.6560 C   0  0  0  0  0  0  0  0  0  0  0  0
  147.3360  154.4390  135.9140 C   0  0  0  0  0  0  0  0  0  0  0  0
  148.1080  155.3250  136.3670 O   0  0  0  0  0  0  0  0  0  0  0  0
  147.0380  153.3270  136.6930 O   0  0  0  0  0  0  0  0  0  0  0  0
  145.8367  152.3030  133.4106 H   0  0  0  0  0  0  0  0  0  0  0  0
  145.8146  153.4848  132.0580 H   0  0  0  0  0  0  0  0  0  0  0  0
  147.0077  152.1419  132.0580 H   0  0  0  0  0  0  0  0  0  0  0  0
  148.4922  152.9085  135.1757 H   0  0  0  0  0  0  0  0  0  0  0  0
  148.4140  151.8142  133.7534 H   0  0  0  0  0  0  0  0  0  0  0  0
  149.5478  153.2074  133.7534 H   0  0  0  0  0  0  0  0  0  0  0  0
  148.6744  155.4882  132.9786 H   0  0  0  0  0  0  0  0  0  0  0  0
  148.8272  154.1358  131.8062 H   0  0  0  0  0  0  0  0  0  0  0  0
  147.3531  155.1623  131.8062 H   0  0  0  0  0  0  0  0  0  0  0  0
  145.6965  154.2152  134.5977 H   0  0  0  0  0  0  0  0  0  0  0  0
  147.8640  157.2000  135.2230 H   0  0  0  0  0  0  0  0  0  0  0  0
  149.5000  157.5160  134.5570 H   0  0  0  0  0  0  0  0  0  0  0  0
  146.4495  161.2157  133.7298 H   0  0  0  0  0  0  0  0  0  0  0  0
  143.7155  162.0425  133.8389 H   0  0  0  0  0  0  0  0  0  0  0  0
  141.3574  161.1653  133.8320 H   0  0  0  0  0  0  0  0  0  0  0  0
  139.9026  159.2425  133.1141 H   0  0  0  0  0  0  0  0  0  0  0  0
  140.5300  157.5571  133.2112 H   0  0  0  0  0  0  0  0  0  0  0  0
  139.8540  159.7390  136.7960 H   0  0  0  0  0  0  0  0  0  0  0  0
  142.8730  157.0876  133.5486 H   0  0  0  0  0  0  0  0  0  0  0  0
  1  2  1  0
  2  3  1  0
  2  4  1  0
  2  5  1  0
  5  6  1  0
  6  7  1  0
  7  8  2  0
  7  9  1  0
  9 10  1  0
 10 11  1  0
 11 12  1  0
 11 13  2  0
 10 14  2  0
 14 15  1  0
 15 16  2  0
 16 17  1  0
 17 18  2  0
 18 19  1  0
 19 20  1  0
 20 21  1  0
 20 22  2  0
 18 23  1  0
 23 24  2  0
  5 25  1  0
 25 26  2  0
 25 27  1  0
 24  9  1  0
 24 15  1  0
  1 28  1  0
  1 29  1  0
  1 30  1  0
  3 31  1  0
  3 32  1  0
  3 33  1  0
  4 34  1  0
  4 35  1  0
  4 36  1  0
  5 37  1  1
 12 38  1  0
 12 39  1  0
 14 40  1  0
 16 41  1  0
 17 42  1  0
 19 43  1  0
 19 44  1  0
 21 45  1  0
 23 46  1  0
M  CHG  2  21  -1  27  -1
M  END
>  <UniqueID>  (8) 
8

>  <SMILES>  (8) 
CC(C)(C)[C@H](OC(=O)n1c(C(N)=O)cc2ccc(CC([NH-])=O)cc21)C(=O)[O-]

>  <Energy>  (8) 
75.5300078213754

>  <Genealogy>  (8) 
CC(C)(C)C(OC(=O)n1c(C(N)=O)cc2ccc(CC([NH-])=O)cc21)C(=O)[O-] (protonated)
CC(C)(C)[C@H](OC(=O)n1c(C(N)=O)cc2ccc(CC([NH-])=O)cc21)C(=O)[O-] (chirality)
CC(C)(C)[C@H](OC(=O)n1c(C(N)=O)cc2ccc(CC([NH-])=O)cc21)C(=O)[O-] (3D coordinates assigned)
CC(C)(C)[C@H](OC(=O)n1c(C(N)=O)cc2ccc(CC([NH-])=O)cc21)C(=O)[O-] (optimized conformer: 75.5300078213754 kcal/mol)

>  <smiles>  (8) 
CC(C)(C)C(OC(=O)n1c(C(N)=O)cc2ccc(CC(N)=O)cc21)C(=O)O

>  <score_type>  (8) 
oracle

>  <origin>  (8) 
adg

>  <m_score__min__energy>  (8) 
-7.96

>  <m_primary>  (8) 
energy

$$$$
8:0
     RDKit          3D

 43 44  0  0  0  0  0  0  0  0999 V2000
  140.5470  158.7350  135.3080 C   0  0  0  0  0  0  0  0  0  0  0  0
  140.3780  158.1790  133.9530 N   0  0  2  0  0  0  0  0  0  0  0  0
  139.1860  158.7140  133.2490 C   0  0  0  0  0  0  0  0  0  0  0  0
  139.4350  159.2290  131.8180 C   0  0  0  0  0  0  0  0  0  0  0  0
  140.5820  158.6290  131.2790 O   0  0  0  0  0  0  0  0  0  0  0  0
  140.4130  156.7280  133.9690 C   0  0  0  0  0  0  0  0  0  0  0  0
  139.4070  156.0770  133.7220 O   0  0  0  0  0  0  0  0  0  0  0  0
  141.6760  156.0030  134.3520 C   0  0  0  0  0  0  0  0  0  0  0  0
  142.7700  156.9140  134.4090 O   0  0  0  0  0  0  0  0  0  0  0  0
  143.2880  157.5650  133.2830 C   0  0  0  0  0  0  0  0  0  0  0  0
  142.6850  157.4970  132.1760 O   0  0  0  0  0  0  0  0  0  0  0  0
  144.4990  158.3280  133.3950 N   0  0  0  0  0  0  0  0  0  0  0  0
  144.6280  159.6750  133.5650 C   0  0  0  0  0  0  0  0  0  0  0  0
  143.5290  160.6630  133.5420 C   0  0  0  0  0  0  0  0  0  0  0  0
  142.1900  160.2270  133.3170 N   0  0  0  0  0  0  0  0  0  0  0  0
  143.7520  161.8820  133.7540 O   0  0  0  0  0  0  0  0  0  0  0  0
  145.9720  160.0260  133.6750 C   0  0  0  0  0  0  0  0  0  0  0  0
  146.6680  158.8450  133.5590 C   0  0  0  0  0  0  0  0  0  0  0  0
  148.0390  158.6080  133.5870 C   0  0  0  0  0  0  0  0  0  0  0  0
  148.4810  157.2820  133.4550 C   0  0  0  0  0  0  0  0  0  0  0  0
  147.5520  156.2160  133.3220 C   0  0  0  0  0  0  0  0  0  0  0  0
  148.0280  154.7970  133.1500 C   0  0  0  0  0  0  0  0  0  0  0  0
  149.1390  154.7610  132.3250 F   0  0  0  0  0  0  0  0  0  0  0  0
  148.3650  154.2770  134.3860 F   0  0  0  0  0  0  0  0  0  0  0  0
  147.0430  154.0060  132.5830 F   0  0  0  0  0  0  0  0  0  0  0  0
  146.1680  156.5020  133.2770 C   0  0  0  0  0  0  0  0  0  0  0  0
  145.7570  157.8350  133.3910 C   0  0  0  0  0  0  0  0  0  0  0  0
  140.3118  157.9613  136.0537 H   0  0  0  0  0  0  0  0  0  0  0  0
  141.5869  159.0681  135.4406 H   0  0  0  0  0  0  0  0  0  0  0  0
  139.8683  159.5904  135.4406 H   0  0  0  0  0  0  0  0  0  0  0  0
  141.2050  158.5130  133.4010 H   0  0  0  0  0  0  0  0  0  0  0  0
  138.4362  157.9110  133.1943 H   0  0  0  0  0  0  0  0  0  0  0  0
  138.8589  159.5880  133.8313 H   0  0  0  0  0  0  0  0  0  0  0  0
  138.5671  158.9845  131.1879 H   0  0  0  0  0  0  0  0  0  0  0  0
  139.5817  160.3187  131.8497 H   0  0  0  0  0  0  0  0  0  0  0  0
  141.3530  159.1390  131.6360 H   0  0  0  0  0  0  0  0  0  0  0  0
  141.5412  155.5353  135.3385 H   0  0  0  0  0  0  0  0  0  0  0  0
  141.8901  155.2328  133.5964 H   0  0  0  0  0  0  0  0  0  0  0  0
  141.9890  159.4040  132.7080 H   0  0  0  0  0  0  0  0  0  0  0  0
  146.3881  161.0334  133.8231 H   0  0  0  0  0  0  0  0  0  0  0  0
  148.7546  159.4345  133.7089 H   0  0  0  0  0  0  0  0  0  0  0  0
  149.5596  157.0661  133.4546 H   0  0  0  0  0  0  0  0  0  0  0  0
  145.4307  155.6948  133.1551 H   0  0  0  0  0  0  0  0  0  0  0  0
  1  2  1  0
  2  3  1  0
  3  4  1  0
  4  5  1  0
  2  6  1  0
  6  7  2  0
  6  8  1  0
  8  9  1  0
  9 10  1  0
 10 11  2  0
 10 12  1  0
 12 13  1  0
 13 14  1  0
 14 15  1  0
 14 16  2  0
 13 17  2  0
 17 18  1  0
 18 19  2  0
 19 20  1  0
 20 21  2  0
 21 22  1  0
 22 23  1  0
 22 24  1  0
 22 25  1  0
 21 26  1  0
 26 27  2  0
 27 12  1  0
 27 18  1  0
  1 28  1  0
  1 29  1  0
  1 30  1  0
  2 31  1  6
  3 32  1  0
  3 33  1  0
  4 34  1  0
  4 35  1  0
  5 36  1  0
  8 37  1  0
  8 38  1  0
 15 39  1  0
 17 40  1  0
 19 41  1  0
 20 42  1  0
 26 43  1  0
M  CHG  2   2   1  15  -1
M  END
>  <UniqueID>  (9) 
9

>  <SMILES>  (9) 
C[N@H+](CCO)C(=O)COC(=O)n1c(C([NH-])=O)cc2ccc(C(F)(F)F)cc21

>  <Energy>  (9) 
83.25379936746826

>  <Genealogy>  (9) 
C[NH+](CCO)C(=O)COC(=O)n1c(C([NH-])=O)cc2ccc(C(F)(F)F)cc21 (protonated)
C[N@H+](CCO)C(=O)COC(=O)n1c(C([NH-])=O)cc2ccc(C(F)(F)F)cc21 (chirality)
C[N@H+](CCO)C(=O)COC(=O)n1c(C([NH-])=O)cc2ccc(C(F)(F)F)cc21 (3D coordinates assigned)
C[N@H+](CCO)C(=O)COC(=O)n1c(C([NH-])=O)cc2ccc(C(F)(F)F)cc21 (optimized conformer: 83.25379936746826 kcal/mol)

>  <smiles>  (9) 
CN(CCO)C(=O)COC(=O)n1c(C(N)=O)cc2ccc(C(F)(F)F)cc21

>  <score_type>  (9) 
oracle

>  <origin>  (9) 
adg

>  <m_score__min__energy>  (9) 
-4.6399999999999997

>  <m_primary>  (9) 
energy

$$$$
9:0
     RDKit          3D

 35 36  0  0  0  0  0  0  0  0999 V2000
  149.6170  151.7930  132.1590 C   0  0  0  0  0  0  0  0  0  0  0  0
  148.8830  152.6280  132.8990 C   0  0  0  0  0  0  0  0  0  0  0  0
  149.1830  154.1000  132.9540 C   0  0  0  0  0  0  0  0  0  0  0  0
  148.0640  154.8770  132.4210 N   0  0  0  0  0  0  0  0  0  0  0  0
  147.8690  156.2870  132.6470 C   0  0  0  0  0  0  0  0  0  0  0  0
  148.9480  157.2110  132.5900 C   0  0  0  0  0  0  0  0  0  0  0  0
  148.7350  158.5790  132.8270 C   0  0  0  0  0  0  0  0  0  0  0  0
  147.4400  159.0000  133.1070 C   0  0  0  0  0  0  0  0  0  0  0  0
  146.9620  160.2570  133.4000 C   0  0  0  0  0  0  0  0  0  0  0  0
  145.5940  160.0930  133.6070 C   0  0  0  0  0  0  0  0  0  0  0  0
  144.6710  161.2170  133.8660 C   0  0  0  0  0  0  0  0  0  0  0  0
  143.2620  161.0540  133.7290 N   0  0  0  0  0  0  0  0  0  0  0  0
  145.1350  162.3500  134.1630 O   0  0  0  0  0  0  0  0  0  0  0  0
  145.2420  158.7850  133.4550 N   0  0  0  0  0  0  0  0  0  0  0  0
  143.9530  158.1920  133.6790 C   0  0  0  0  0  0  0  0  0  0  0  0
  143.6650  157.7250  134.8140 O   0  0  0  0  0  0  0  0  0  0  0  0
  143.0180  158.1500  132.6370 O   0  0  0  0  0  0  0  0  0  0  0  0
  141.6120  158.2600  132.8410 C   0  0  0  0  0  0  0  0  0  0  0  0
  141.3500  158.9330  134.0420 O   0  0  0  0  0  0  0  0  0  0  0  0
  146.3830  158.1300  133.1470 C   0  0  0  0  0  0  0  0  0  0  0  0
  146.5680  156.7600  132.9340 C   0  0  0  0  0  0  0  0  0  0  0  0
  149.3752  150.7201  132.1371 H   0  0  0  0  0  0  0  0  0  0  0  0
  150.4634  152.1781  131.5714 H   0  0  0  0  0  0  0  0  0  0  0  0
  148.0394  152.2294  133.4817 H   0  0  0  0  0  0  0  0  0  0  0  0
  149.3607  154.3933  133.9992 H   0  0  0  0  0  0  0  0  0  0  0  0
  150.0756  154.3016  132.3435 H   0  0  0  0  0  0  0  0  0  0  0  0
  147.3610  154.3640  131.8430 H   0  0  0  0  0  0  0  0  0  0  0  0
  149.9610  156.8506  132.3577 H   0  0  0  0  0  0  0  0  0  0  0  0
  149.5684  159.2961  132.7921 H   0  0  0  0  0  0  0  0  0  0  0  0
  147.5378  161.1925  133.4583 H   0  0  0  0  0  0  0  0  0  0  0  0
  142.8620  160.2210  133.2420 H   0  0  0  0  0  0  0  0  0  0  0  0
  141.1660  158.8198  132.0057 H   0  0  0  0  0  0  0  0  0  0  0  0
  141.1759  157.2514  132.8914 H   0  0  0  0  0  0  0  0  0  0  0  0
  142.2150  159.3060  134.3540 H   0  0  0  0  0  0  0  0  0  0  0  0
  145.7178  156.0642  132.9887 H   0  0  0  0  0  0  0  0  0  0  0  0
  1  2  2  0
  2  3  1  0
  3  4  1  0
  4  5  1  0
  5  6  2  0
  6  7  1  0
  7  8  2  0
  8  9  1  0
  9 10  2  0
 10 11  1  0
 11 12  1  0
 11 13  2  0
 10 14  1  0
 14 15  1  0
 15 16  2  0
 15 17  1  0
 17 18  1  0
 18 19  1  0
 14 20  1  0
 20 21  2  0
 21  5  1  0
 20  8  1  0
  1 22  1  0
  1 23  1  0
  2 24  1  0
  3 25  1  0
  3 26  1  0
  4 27  1  0
  6 28  1  0
  7 29  1  0
  9 30  1  0
 12 31  1  0
 18 32  1  0
 18 33  1  0
 19 34  1  0
 21 35  1  0
M  CHG  1  12  -1
M  END
>  <UniqueID>  (10) 
10

>  <SMILES>  (10) 
C=CCNc1ccc2cc(C([NH-])=O)n(C(=O)OCO)c2c1

>  <Energy>  (10) 
69.85858707356546

>  <Genealogy>  (10) 
C=CCNc1ccc2cc(C([NH-])=O)n(C(=O)OCO)c2c1 (protonated)
C=CCNc1ccc2cc(C([NH-])=O)n(C(=O)OCO)c2c1 (3D coordinates assigned)
C=CCNc1ccc2cc(C([NH-])=O)n(C(=O)OCO)c2c1 (optimized conformer: 69.85858707356546 kcal/mol)

>  <smiles>  (10) 
C=CCNc1ccc2cc(C(N)=O)n(C(=O)OCO)c2c1

>  <score_type>  (10) 
oracle

>  <origin>  (10) 
adg

>  <m_score__min__energy>  (10) 
-6.1200000000000001

>  <m_primary>  (10) 
energy

$$$$
10:0
     RDKit          3D

 37 38  0  0  0  0  0  0  0  0999 V2000
  143.2590  154.7230  135.1170 C   0  0  0  0  0  0  0  0  0  0  0  0
  143.0250  154.0390  133.7570 C   0  0  1  0  0  0  0  0  0  0  0  0
  141.6810  153.3460  133.7300 C   0  0  0  0  0  0  0  0  0  0  0  0
  141.3570  152.5250  134.6310 O   0  0  0  0  0  0  0  0  0  0  0  0
  140.7840  153.6210  132.7060 O   0  0  0  0  0  0  0  0  0  0  0  0
  143.2380  154.9720  132.6130 N   0  0  2  0  0  0  0  0  0  0  0  0
  144.5010  154.7600  131.8740 C   0  0  0  0  0  0  0  0  0  0  0  0
  143.0730  156.3610  133.0270 C   0  0  0  0  0  0  0  0  0  0  0  0
  141.8030  156.8800  133.4190 C   0  0  0  0  0  0  0  0  0  0  0  0
  141.6530  158.2310  133.7730 C   0  0  0  0  0  0  0  0  0  0  0  0
  142.7770  159.0470  133.7310 C   0  0  0  0  0  0  0  0  0  0  0  0
  142.9060  160.3930  133.9930 C   0  0  0  0  0  0  0  0  0  0  0  0
  144.2500  160.6850  133.7640 C   0  0  0  0  0  0  0  0  0  0  0  0
  144.8470  162.0220  133.9650 C   0  0  0  0  0  0  0  0  0  0  0  0
  146.2580  162.1560  134.1110 N   0  0  0  0  0  0  0  0  0  0  0  0
  144.1230  163.0530  133.9930 O   0  0  0  0  0  0  0  0  0  0  0  0
  144.9220  159.5630  133.3810 N   0  0  0  0  0  0  0  0  0  0  0  0
  146.3040  159.4580  133.0060 C   0  0  0  0  0  0  0  0  0  0  0  0
  146.7380  160.1230  132.0280 O   0  0  0  0  0  0  0  0  0  0  0  0
  147.2240  158.5870  133.7540 C   0  0  0  0  0  0  0  0  0  0  0  0
  148.4120  158.9490  133.9670 O   0  0  0  0  0  0  0  0  0  0  0  0
  146.7910  157.3510  134.2160 O   0  0  0  0  0  0  0  0  0  0  0  0
  144.0060  158.5720  133.3610 C   0  0  0  0  0  0  0  0  0  0  0  0
  144.1850  157.2380  132.9830 C   0  0  0  0  0  0  0  0  0  0  0  0
  143.0183  154.0194  135.9275 H   0  0  0  0  0  0  0  0  0  0  0  0
  144.3127  155.0283  135.1974 H   0  0  0  0  0  0  0  0  0  0  0  0
  142.6131  155.6098  135.1974 H   0  0  0  0  0  0  0  0  0  0  0  0
  143.7864  153.2551  133.6312 H   0  0  0  0  0  0  0  0  0  0  0  0
  142.4830  154.7690  131.9140 H   0  0  0  0  0  0  0  0  0  0  0  0
  145.3254  154.6216  132.5890 H   0  0  0  0  0  0  0  0  0  0  0  0
  144.4099  153.8646  131.2416 H   0  0  0  0  0  0  0  0  0  0  0  0
  144.7073  155.6361  131.2416 H   0  0  0  0  0  0  0  0  0  0  0  0
  140.9289  156.2126  133.4444 H   0  0  0  0  0  0  0  0  0  0  0  0
  140.6740  158.6315  134.0748 H   0  0  0  0  0  0  0  0  0  0  0  0
  142.1171  161.0890  134.3143 H   0  0  0  0  0  0  0  0  0  0  0  0
  146.9080  161.8580  133.3500 H   0  0  0  0  0  0  0  0  0  0  0  0
  145.1713  156.8758  132.6573 H   0  0  0  0  0  0  0  0  0  0  0  0
  1  2  1  0
  2  3  1  0
  3  4  2  0
  3  5  1  0
  2  6  1  0
  6  7  1  0
  6  8  1  0
  8  9  2  0
  9 10  1  0
 10 11  2  0
 11 12  1  0
 12 13  2  0
 13 14  1  0
 14 15  1  0
 14 16  2  0
 13 17  1  0
 17 18  1  0
 18 19  2  0
 18 20  1  0
 20 21  2  0
 20 22  1  0
 17 23  1  0
 23 24  2  0
 24  8  1  0
 23 11  1  0
  1 25  1  0
  1 26  1  0
  1 27  1  0
  2 28  1  6
  6 29  1  6
  7 30  1  0
  7 31  1  0
  7 32  1  0
  9 33  1  0
 10 34  1  0
 12 35  1  0
 15 36  1  0
 24 37  1  0
M  CHG  4   5  -1   6   1  15  -1  22  -1
M  END
>  <UniqueID>  (11) 
11

>  <SMILES>  (11) 
C[C@@H](C(=O)[O-])[N@H+](C)c1ccc2cc(C([NH-])=O)n(C(=O)C(=O)[O-])c2c1

>  <Energy>  (11) 
84.26224520058985

>  <Genealogy>  (11) 
CC(C(=O)[O-])[NH+](C)c1ccc2cc(C([NH-])=O)n(C(=O)C(=O)[O-])c2c1 (protonated)
C[C@@H](C(=O)[O-])[N@H+](C)c1ccc2cc(C([NH-])=O)n(C(=O)C(=O)[O-])c2c1 (chirality)
C[C@@H](C(=O)[O-])[N@H+](C)c1ccc2cc(C([NH-])=O)n(C(=O)C(=O)[O-])c2c1 (3D coordinates assigned)
C[C@@H](C(=O)[O-])[N@H+](C)c1ccc2cc(C([NH-])=O)n(C(=O)C(=O)[O-])c2c1 (optimized conformer: 84.26224520058985 kcal/mol)

>  <smiles>  (11) 
CC(C(=O)O)N(C)c1ccc2cc(C(N)=O)n(C(=O)C(=O)O)c2c1

>  <score_type>  (11) 
oracle

>  <origin>  (11) 
adg

>  <m_score__min__energy>  (11) 
-5.71

>  <m_primary>  (11) 
energy

$$$$
11:0
     RDKit          3D

 43 44  0  0  0  0  0  0  0  0999 V2000
  138.6960  160.8250  130.7360 C   0  0  0  0  0  0  0  0  0  0  0  0
  138.7890  159.5050  130.9090 C   0  0  0  0  0  0  0  0  0  0  0  0
  139.8780  158.9010  131.7500 C   0  0  0  0  0  0  0  0  0  0  0  0
  139.4360  157.6850  132.3500 O   0  0  0  0  0  0  0  0  0  0  0  0
  139.7560  157.3130  133.6610 C   0  0  0  0  0  0  0  0  0  0  0  0
  139.0830  157.7460  134.6370 O   0  0  0  0  0  0  0  0  0  0  0  0
  140.9300  156.4170  133.9130 C   0  0  0  0  0  0  0  0  0  0  0  0
  142.0810  157.1820  134.2650 O   0  0  0  0  0  0  0  0  0  0  0  0
  142.9790  157.6890  133.3200 C   0  0  0  0  0  0  0  0  0  0  0  0
  143.1400  157.1070  132.2120 O   0  0  0  0  0  0  0  0  0  0  0  0
  143.6760  158.9120  133.5890 N   0  0  0  0  0  0  0  0  0  0  0  0
  143.1450  160.1350  133.8670 C   0  0  0  0  0  0  0  0  0  0  0  0
  141.7150  160.4250  134.1040 C   0  0  0  0  0  0  0  0  0  0  0  0
  141.0050  159.7970  135.1680 N   0  0  0  0  0  0  0  0  0  0  0  0
  141.1200  161.2640  133.3760 O   0  0  0  0  0  0  0  0  0  0  0  0
  144.1540  161.0930  133.9560 C   0  0  0  0  0  0  0  0  0  0  0  0
  145.3260  160.4120  133.7160 C   0  0  0  0  0  0  0  0  0  0  0  0
  146.6350  160.8750  133.6500 C   0  0  0  0  0  0  0  0  0  0  0  0
  147.6460  159.9540  133.3330 C   0  0  0  0  0  0  0  0  0  0  0  0
  147.3430  158.5860  133.0740 C   0  0  0  0  0  0  0  0  0  0  0  0
  148.3920  157.6460  132.7230 N   0  0  0  0  0  0  0  0  0  0  0  0
  148.2520  156.2190  133.0390 C   0  0  0  0  0  0  0  0  0  0  0  0
  149.6080  158.1060  132.0420 C   0  0  0  0  0  0  0  0  0  0  0  0
  145.9910  158.1620  133.1590 C   0  0  0  0  0  0  0  0  0  0  0  0
  145.0100  159.0990  133.4960 C   0  0  0  0  0  0  0  0  0  0  0  0
  137.8895  161.2429  130.1155 H   0  0  0  0  0  0  0  0  0  0  0  0
  139.4258  161.4951  131.2139 H   0  0  0  0  0  0  0  0  0  0  0  0
  138.0531  158.8454  130.4259 H   0  0  0  0  0  0  0  0  0  0  0  0
  140.7517  158.6934  131.1147 H   0  0  0  0  0  0  0  0  0  0  0  0
  140.1451  159.6115  132.5462 H   0  0  0  0  0  0  0  0  0  0  0  0
  140.6886  155.7282  134.7360 H   0  0  0  0  0  0  0  0  0  0  0  0
  141.1478  155.8523  132.9945 H   0  0  0  0  0  0  0  0  0  0  0  0
  140.8970  158.7590  135.2020 H   0  0  0  0  0  0  0  0  0  0  0  0
  144.0382  162.1653  134.1721 H   0  0  0  0  0  0  0  0  0  0  0  0
  146.8718  161.9322  133.8406 H   0  0  0  0  0  0  0  0  0  0  0  0
  148.6908  160.2945  133.2837 H   0  0  0  0  0  0  0  0  0  0  0  0
  148.2388  156.0848  134.1307 H   0  0  0  0  0  0  0  0  0  0  0  0
  147.3123  155.8393  132.6115 H   0  0  0  0  0  0  0  0  0  0  0  0
  149.1000  155.6639  132.6115 H   0  0  0  0  0  0  0  0  0  0  0  0
  150.3619  158.3912  132.7906 H   0  0  0  0  0  0  0  0  0  0  0  0
  150.0045  157.2957  131.4125 H   0  0  0  0  0  0  0  0  0  0  0  0
  149.3690  158.9758  131.4125 H   0  0  0  0  0  0  0  0  0  0  0  0
  145.7199  157.1141  132.9630 H   0  0  0  0  0  0  0  0  0  0  0  0
  1  2  2  0
  2  3  1  0
  3  4  1  0
  4  5  1  0
  5  6  2  0
  5  7  1  0
  7  8  1  0
  8  9  1  0
  9 10  2  0
  9 11  1  0
 11 12  1  0
 12 13  1  0
 13 14  1  0
 13 15  2  0
 12 16  2  0
 16 17  1  0
 17 18  2  0
 18 19  1  0
 19 20  2  0
 20 21  1  0
 21 22  1  0
 21 23  1  0
 20 24  1  0
 24 25  2  0
 25 11  1  0
 25 17  1  0
  1 26  1  0
  1 27  1  0
  2 28  1  0
  3 29  1  0
  3 30  1  0
  7 31  1  0
  7 32  1  0
 14 33  1  0
 16 34  1  0
 18 35  1  0
 19 36  1  0
 22 37  1  0
 22 38  1  0
 22 39  1  0
 23 40  1  0
 23 41  1  0
 23 42  1  0
 24 43  1  0
M  CHG  1  14  -1
M  END
>  <UniqueID>  (12) 
12

>  <SMILES>  (12) 
C=CCOC(=O)COC(=O)n1c(C([NH-])=O)cc2ccc(N(C)C)cc21

>  <Energy>  (12) 
76.16796321330547

>  <Genealogy>  (12) 
C=CCOC(=O)COC(=O)n1c(C([NH-])=O)cc2ccc(N(C)C)cc21 (protonated)
C=CCOC(=O)COC(=O)n1c(C([NH-])=O)cc2ccc(N(C)C)cc21 (3D coordinates assigned)
C=CCOC(=O)COC(=O)n1c(C([NH-])=O)cc2ccc(N(C)C)cc21 (optimized conformer: 76.16796321330547 kcal/mol)

>  <smiles>  (12) 
C=CCOC(=O)COC(=O)n1c(C(N)=O)cc2ccc(N(C)C)cc21

>  <score_type>  (12) 
oracle

>  <origin>  (12) 
adg

>  <m_score__min__energy>  (12) 
-6.1799999999999997

>  <m_primary>  (12) 
energy

$$$$
12:0
     RDKit          3D

 38 39  0  0  0  0  0  0  0  0999 V2000
  140.0550  158.1970  135.0860 C   0  0  0  0  0  0  0  0  0  0  0  0
  140.7250  158.4260  133.8000 N   0  0  0  0  0  0  0  0  0  0  0  0
  139.9870  158.1810  132.5500 C   0  0  0  0  0  0  0  0  0  0  0  0
  139.2260  159.4050  132.1440 C   0  0  0  0  0  0  0  0  0  0  0  0
  139.7630  160.5410  132.2200 O   0  0  0  0  0  0  0  0  0  0  0  0
  137.9140  159.2910  131.7030 O   0  0  0  0  0  0  0  0  0  0  0  0
  142.0930  158.9050  133.7810 C   0  0  0  0  0  0  0  0  0  0  0  0
  142.3740  160.3010  133.7720 C   0  0  0  0  0  0  0  0  0  0  0  0
  143.6980  160.7710  133.7380 C   0  0  0  0  0  0  0  0  0  0  0  0
  144.7240  159.8330  133.7190 C   0  0  0  0  0  0  0  0  0  0  0  0
  146.0870  160.0090  133.6410 C   0  0  0  0  0  0  0  0  0  0  0  0
  146.6240  158.7230  133.6270 C   0  0  0  0  0  0  0  0  0  0  0  0
  148.0740  158.4430  133.5860 C   0  0  0  0  0  0  0  0  0  0  0  0
  148.5740  157.1060  133.5810 N   0  0  0  0  0  0  0  0  0  0  0  0
  148.8890  159.4040  133.5950 O   0  0  0  0  0  0  0  0  0  0  0  0
  145.6320  157.7930  133.6840 N   0  0  0  0  0  0  0  0  0  0  0  0
  145.7450  156.3680  133.5540 C   0  0  0  0  0  0  0  0  0  0  0  0
  146.1340  155.8700  132.4640 O   0  0  0  0  0  0  0  0  0  0  0  0
  145.5230  155.4760  134.7360 C   0  0  0  0  0  0  0  0  0  0  0  0
  147.0940  154.7050  135.2250 P   0  0  0  0  0  0  0  0  0  0  0  0
  147.7670  154.1190  134.0070 O   0  0  0  0  0  0  0  0  0  0  0  0
  146.7980  153.4750  136.3480 O   0  0  0  0  0  0  0  0  0  0  0  0
  148.1060  155.8680  135.9210 O   0  0  0  0  0  0  0  0  0  0  0  0
  144.4770  158.4880  133.7420 C   0  0  0  0  0  0  0  0  0  0  0  0
  143.1710  157.9880  133.7600 C   0  0  0  0  0  0  0  0  0  0  0  0
  140.7473  158.4336  135.9074 H   0  0  0  0  0  0  0  0  0  0  0  0
  139.1674  158.8428  135.1571 H   0  0  0  0  0  0  0  0  0  0  0  0
  139.7483  157.1430  135.1571 H   0  0  0  0  0  0  0  0  0  0  0  0
  140.6993  157.9167  131.7545 H   0  0  0  0  0  0  0  0  0  0  0  0
  139.2768  157.3566  132.7110 H   0  0  0  0  0  0  0  0  0  0  0  0
  141.5431  161.0216  133.7919 H   0  0  0  0  0  0  0  0  0  0  0  0
  143.9161  161.8491  133.7268 H   0  0  0  0  0  0  0  0  0  0  0  0
  146.6354  160.9616  133.5987 H   0  0  0  0  0  0  0  0  0  0  0  0
  147.9470  156.2910  133.7590 H   0  0  0  0  0  0  0  0  0  0  0  0
  149.6000  156.9320  133.4930 H   0  0  0  0  0  0  0  0  0  0  0  0
  145.1310  156.0706  135.5743 H   0  0  0  0  0  0  0  0  0  0  0  0
  144.7996  154.6914  134.4695 H   0  0  0  0  0  0  0  0  0  0  0  0
  142.9853  156.9038  133.7579 H   0  0  0  0  0  0  0  0  0  0  0  0
  1  2  1  0
  2  3  1  0
  3  4  1  0
  4  5  2  0
  4  6  1  0
  2  7  1  0
  7  8  2  0
  8  9  1  0
  9 10  2  0
 10 11  1  0
 11 12  2  0
 12 13  1  0
 13 14  1  0
 13 15  2  0
 12 16  1  0
 16 17  1  0
 17 18  2  0
 17 19  1  0
 19 20  1  0
 20 21  2  0
 20 22  1  0
 20 23  1  0
 16 24  1  0
 24 25  2  0
 25  7  1  0
 24 10  1  0
  1 26  1  0
  1 27  1  0
  1 28  1  0
  3 29  1  0
  3 30  1  0
  8 31  1  0
  9 32  1  0
 11 33  1  0
 14 34  1  0
 14 35  1  0
 19 36  1  0
 19 37  1  0
 25 38  1  0
M  CHG  3   6  -1  22  -1  23  -1
M  END
>  <UniqueID>  (13) 
13

>  <SMILES>  (13) 
CN(CC(=O)[O-])c1ccc2cc(C(N)=O)n(C(=O)CP(=O)([O-])[O-])c2c1

>  <Energy>  (13) 
74.25923337712852

>  <Genealogy>  (13) 
CN(CC(=O)[O-])c1ccc2cc(C(N)=O)n(C(=O)CP(=O)([O-])[O-])c2c1 (protonated)
CN(CC(=O)[O-])c1ccc2cc(C(N)=O)n(C(=O)CP(=O)([O-])[O-])c2c1 (3D coordinates assigned)
CN(CC(=O)[O-])c1ccc2cc(C(N)=O)n(C(=O)CP(=O)([O-])[O-])c2c1 (optimized conformer: 74.25923337712852 kcal/mol)

>  <smiles>  (13) 
CN(CC(=O)O)c1ccc2cc(C(N)=O)n(C(=O)CP(=O)(O)O)c2c1

>  <score_type>  (13) 
oracle

>  <origin>  (13) 
adg

>  <m_score__min__energy>  (13) 
-6.75

>  <m_primary>  (13) 
energy

$$$$
13:0
     RDKit          3D

 40 41  0  0  0  0  0  0  0  0999 V2000
  148.7640  154.0340  132.5340 C   0  0  0  0  0  0  0  0  0  0  0  0
  148.4500  155.1900  132.6620 C   0  0  0  0  0  0  0  0  0  0  0  0
  148.0770  156.5710  132.8210 C   0  0  0  0  0  0  0  0  0  0  0  0
  149.0590  157.5830  132.7170 C   0  0  0  0  0  0  0  0  0  0  0  0
  148.7070  158.9350  132.8680 C   0  0  0  0  0  0  0  0  0  0  0  0
  147.3730  159.2360  133.1270 C   0  0  0  0  0  0  0  0  0  0  0  0
  146.7590  160.4560  133.2950 C   0  0  0  0  0  0  0  0  0  0  0  0
  145.4140  160.1650  133.5180 C   0  0  0  0  0  0  0  0  0  0  0  0
  144.3900  161.1840  133.8420 C   0  0  0  0  0  0  0  0  0  0  0  0
  142.9990  160.8570  133.7990 N   0  0  0  0  0  0  0  0  0  0  0  0
  144.7360  162.3610  134.1300 O   0  0  0  0  0  0  0  0  0  0  0  0
  145.2060  158.8170  133.4860 N   0  0  0  0  0  0  0  0  0  0  0  0
  143.9570  158.1190  133.6180 C   0  0  0  0  0  0  0  0  0  0  0  0
  143.2000  157.9870  132.6180 O   0  0  0  0  0  0  0  0  0  0  0  0
  143.5870  157.5880  134.8570 O   0  0  0  0  0  0  0  0  0  0  0  0
  142.7960  156.4120  134.9850 C   0  0  0  0  0  0  0  0  0  0  0  0
  141.6890  156.6600  135.9680 C   0  0  0  0  0  0  0  0  0  0  0  0
  141.7980  156.1690  137.1240 O   0  0  0  0  0  0  0  0  0  0  0  0
  140.5330  157.4620  135.6360 N   0  0  0  0  0  0  0  0  0  0  0  0
  139.6350  157.8900  136.7150 C   0  0  0  0  0  0  0  0  0  0  0  0
  140.2310  157.8480  134.2500 C   0  0  0  0  0  0  0  0  0  0  0  0
  140.6400  159.2650  133.9970 C   0  0  0  0  0  0  0  0  0  0  0  0
  140.6710  159.7150  132.8210 O   0  0  0  0  0  0  0  0  0  0  0  0
  141.0370  160.0760  135.0540 O   0  0  0  0  0  0  0  0  0  0  0  0
  146.4140  158.2630  133.2470 C   0  0  0  0  0  0  0  0  0  0  0  0
  146.7330  156.9090  133.0840 C   0  0  0  0  0  0  0  0  0  0  0  0
  149.0507  152.9785  132.4171 H   0  0  0  0  0  0  0  0  0  0  0  0
  150.1056  157.3101  132.5165 H   0  0  0  0  0  0  0  0  0  0  0  0
  149.4621  159.7305  132.7841 H   0  0  0  0  0  0  0  0  0  0  0  0
  147.2295  161.4497  133.2606 H   0  0  0  0  0  0  0  0  0  0  0  0
  142.6750  159.8810  133.6180 H   0  0  0  0  0  0  0  0  0  0  0  0
  142.2830  161.5910  134.0010 H   0  0  0  0  0  0  0  0  0  0  0  0
  142.3663  156.1505  134.0067 H   0  0  0  0  0  0  0  0  0  0  0  0
  143.4251  155.5832  135.3417 H   0  0  0  0  0  0  0  0  0  0  0  0
  140.0989  157.6689  137.6875 H   0  0  0  0  0  0  0  0  0  0  0  0
  139.4529  158.9717  136.6331 H   0  0  0  0  0  0  0  0  0  0  0  0
  138.6801  157.3502  136.6331 H   0  0  0  0  0  0  0  0  0  0  0  0
  140.7780  157.1857  133.5629 H   0  0  0  0  0  0  0  0  0  0  0  0
  139.1474  157.7567  134.0845 H   0  0  0  0  0  0  0  0  0  0  0  0
  145.9581  156.1319  133.1589 H   0  0  0  0  0  0  0  0  0  0  0  0
  1  2  3  0
  2  3  1  0
  3  4  2  0
  4  5  1  0
  5  6  2  0
  6  7  1  0
  7  8  2  0
  8  9  1  0
  9 10  1  0
  9 11  2  0
  8 12  1  0
 12 13  1  0
 13 14  2  0
 13 15  1  0
 15 16  1  0
 16 17  1  0
 17 18  2  0
 17 19  1  0
 19 20  1  0
 19 21  1  0
 21 22  1  0
 22 23  2  0
 22 24  1  0
 12 25  1  0
 25 26  2  0
 26  3  1  0
 25  6  1  0
  1 27  1  0
  4 28  1  0
  5 29  1  0
  7 30  1  0
 10 31  1  0
 10 32  1  0
 16 33  1  0
 16 34  1  0
 20 35  1  0
 20 36  1  0
 20 37  1  0
 21 38  1  0
 21 39  1  0
 26 40  1  0
M  CHG  1  24  -1
M  END
>  <UniqueID>  (14) 
14

>  <SMILES>  (14) 
C#Cc1ccc2cc(C(N)=O)n(C(=O)OCC(=O)N(C)CC(=O)[O-])c2c1

>  <Energy>  (14) 
71.45402063261152

>  <Genealogy>  (14) 
C#Cc1ccc2cc(C(N)=O)n(C(=O)OCC(=O)N(C)CC(=O)[O-])c2c1 (protonated)
C#Cc1ccc2cc(C(N)=O)n(C(=O)OCC(=O)N(C)CC(=O)[O-])c2c1 (3D coordinates assigned)
C#Cc1ccc2cc(C(N)=O)n(C(=O)OCC(=O)N(C)CC(=O)[O-])c2c1 (optimized conformer: 71.45402063261152 kcal/mol)

>  <smiles>  (14) 
C#Cc1ccc2cc(C(N)=O)n(C(=O)OCC(=O)N(C)CC(=O)O)c2c1

>  <score_type>  (14) 
oracle

>  <origin>  (14) 
adg

>  <m_score__min__energy>  (14) 
-6.8099999999999996

>  <m_primary>  (14) 
energy

$$$$
14:0
     RDKit          3D

 41 42  0  0  0  0  0  0  0  0999 V2000
  142.4650  155.5200  136.4140 C   0  0  0  0  0  0  0  0  0  0  0  0
  142.3450  156.5690  135.3080 C   0  0  2  0  0  0  0  0  0  0  0  0
  143.5510  156.5380  134.3360 C   0  0  0  0  0  0  0  0  0  0  0  0
  143.6590  157.6860  133.3520 C   0  0  0  0  0  0  0  0  0  0  0  0
  142.6640  157.9480  132.6240 O   0  0  0  0  0  0  0  0  0  0  0  0
  144.8270  158.5180  133.2600 N   0  0  0  0  0  0  0  0  0  0  0  0
  144.9080  159.8650  133.4770 C   0  0  0  0  0  0  0  0  0  0  0  0
  143.7990  160.7810  133.8530 C   0  0  0  0  0  0  0  0  0  0  0  0
  142.5320  160.3140  134.3260 N   0  0  0  0  0  0  0  0  0  0  0  0
  143.9730  162.0230  133.7320 O   0  0  0  0  0  0  0  0  0  0  0  0
  146.2340  160.2890  133.4020 C   0  0  0  0  0  0  0  0  0  0  0  0
  146.9710  159.1560  133.1620 C   0  0  0  0  0  0  0  0  0  0  0  0
  148.3500  158.9940  133.0580 C   0  0  0  0  0  0  0  0  0  0  0  0
  148.8490  157.6910  132.8950 C   0  0  0  0  0  0  0  0  0  0  0  0
  147.9690  156.5820  132.8560 C   0  0  0  0  0  0  0  0  0  0  0  0
  148.5150  155.1850  132.7280 C   0  0  0  0  0  0  0  0  0  0  0  0
  147.6290  154.1800  133.4610 C   0  0  0  0  0  0  0  0  0  0  0  0
  147.6930  154.3890  134.8270 F   0  0  0  0  0  0  0  0  0  0  0  0
  146.5790  156.7860  132.9920 C   0  0  0  0  0  0  0  0  0  0  0  0
  146.1040  158.0980  133.1040 C   0  0  0  0  0  0  0  0  0  0  0  0
  142.2140  157.8430  135.9100 O   0  0  0  0  0  0  0  0  0  0  0  0
  140.6420  158.4650  135.6590 P   0  0  0  0  0  0  0  0  0  0  0  0
  140.2770  158.4000  134.1940 O   0  0  0  0  0  0  0  0  0  0  0  0
  140.6040  160.0790  136.1650 O   0  0  0  0  0  0  0  0  0  0  0  0
  139.5210  157.5770  136.5630 O   0  0  0  0  0  0  0  0  0  0  0  0
  142.4085  156.0137  137.3953 H   0  0  0  0  0  0  0  0  0  0  0  0
  141.6441  154.7937  136.3212 H   0  0  0  0  0  0  0  0  0  0  0  0
  143.4287  154.9979  136.3212 H   0  0  0  0  0  0  0  0  0  0  0  0
  141.4556  156.3430  134.7014 H   0  0  0  0  0  0  0  0  0  0  0  0
  144.4685  156.5309  134.9427 H   0  0  0  0  0  0  0  0  0  0  0  0
  143.4031  155.6397  133.7187 H   0  0  0  0  0  0  0  0  0  0  0  0
  141.8130  161.0030  134.6380 H   0  0  0  0  0  0  0  0  0  0  0  0
  142.2530  159.3140  134.2910 H   0  0  0  0  0  0  0  0  0  0  0  0
  146.6108  161.3166  133.5121 H   0  0  0  0  0  0  0  0  0  0  0  0
  149.0276  159.8594  133.1021 H   0  0  0  0  0  0  0  0  0  0  0  0
  149.9328  157.5306  132.7968 H   0  0  0  0  0  0  0  0  0  0  0  0
  148.5615  154.9135  131.6631 H   0  0  0  0  0  0  0  0  0  0  0  0
  149.5187  155.1593  133.1773 H   0  0  0  0  0  0  0  0  0  0  0  0
  146.5888  154.3001  133.1240 H   0  0  0  0  0  0  0  0  0  0  0  0
  147.9827  153.1625  133.2381 H   0  0  0  0  0  0  0  0  0  0  0  0
  145.8845  155.9331  133.0096 H   0  0  0  0  0  0  0  0  0  0  0  0
  1  2  1  0
  2  3  1  0
  3  4  1  0
  4  5  2  0
  4  6  1  0
  6  7  1  0
  7  8  1  0
  8  9  1  0
  8 10  2  0
  7 11  2  0
 11 12  1  0
 12 13  2  0
 13 14  1  0
 14 15  2  0
 15 16  1  0
 16 17  1  0
 17 18  1  0
 15 19  1  0
 19 20  2  0
  2 21  1  0
 21 22  1  0
 22 23  2  0
 22 24  1  0
 22 25  1  0
 20  6  1  0
 20 12  1  0
  1 26  1  0
  1 27  1  0
  1 28  1  0
  2 29  1  6
  3 30  1  0
  3 31  1  0
  9 32  1  0
  9 33  1  0
 11 34  1  0
 13 35  1  0
 14 36  1  0
 16 37  1  0
 16 38  1  0
 17 39  1  0
 17 40  1  0
 19 41  1  0
M  CHG  2  24  -1  25  -1
M  END
>  <UniqueID>  (15) 
15

>  <SMILES>  (15) 
C[C@H](CC(=O)n1c(C(N)=O)cc2ccc(CCF)cc21)OP(=O)([O-])[O-]

>  <Energy>  (15) 
77.02468332696981

>  <Genealogy>  (15) 
C[C@H](CC(=O)n1c(C(N)=O)cc2ccc(CCF)cc21)OP(=O)([O-])[O-] (protonated)
C[C@H](CC(=O)n1c(C(N)=O)cc2ccc(CCF)cc21)OP(=O)([O-])[O-] (3D coordinates assigned)
C[C@H](CC(=O)n1c(C(N)=O)cc2ccc(CCF)cc21)OP(=O)([O-])[O-] (optimized conformer: 77.02468332696981 kcal/mol)

>  <smiles>  (15) 
C[C@H](CC(=O)n1c(C(N)=O)cc2ccc(CCF)cc21)OP(=O)(O)O

>  <score_type>  (15) 
oracle

>  <origin>  (15) 
adg

>  <m_score__min__energy>  (15) 
-6.5700000000000003

>  <m_primary>  (15) 
energy

$$$$
15:0
     RDKit          3D

 42 43  0  0  0  0  0  0  0  0999 V2000
  150.6340  150.4000  130.8280 C   0  0  0  0  0  0  0  0  0  0  0  0
  149.6040  151.3750  130.9280 O   0  0  0  0  0  0  0  0  0  0  0  0
  149.5310  152.2930  131.9810 C   0  0  0  0  0  0  0  0  0  0  0  0
  149.9910  153.4600  131.8430 O   0  0  0  0  0  0  0  0  0  0  0  0
  148.9530  151.8750  133.3070 C   0  0  1  0  0  0  0  0  0  0  0  0
  149.9600  151.0440  134.1140 C   0  0  0  0  0  0  0  0  0  0  0  0
  148.3930  153.0760  134.1080 C   0  0  0  0  0  0  0  0  0  0  0  0
  147.2170  153.8210  133.4430 C   0  0  0  0  0  0  0  0  0  0  0  0
  147.6810  154.8190  132.4750 N   0  0  0  0  0  0  0  0  0  0  0  0
  147.6070  156.2380  132.7080 C   0  0  0  0  0  0  0  0  0  0  0  0
  148.7900  157.0120  132.6150 C   0  0  0  0  0  0  0  0  0  0  0  0
  148.7620  158.3990  132.8310 C   0  0  0  0  0  0  0  0  0  0  0  0
  147.5420  158.9860  133.1460 C   0  0  0  0  0  0  0  0  0  0  0  0
  147.2300  160.3070  133.3690 C   0  0  0  0  0  0  0  0  0  0  0  0
  145.8610  160.3230  133.6220 C   0  0  0  0  0  0  0  0  0  0  0  0
  145.1180  161.5470  133.9790 C   0  0  0  0  0  0  0  0  0  0  0  0
  143.7170  161.6610  133.7280 N   0  0  0  0  0  0  0  0  0  0  0  0
  145.7170  162.4870  134.5660 O   0  0  0  0  0  0  0  0  0  0  0  0
  145.3420  159.0660  133.5470 N   0  0  0  0  0  0  0  0  0  0  0  0
  143.9560  158.6920  133.6270 C   0  0  0  0  0  0  0  0  0  0  0  0
  143.2530  159.0490  134.6090 O   0  0  0  0  0  0  0  0  0  0  0  0
  143.3760  157.9260  132.6230 O   0  0  0  0  0  0  0  0  0  0  0  0
  146.3870  158.2560  133.2560 C   0  0  0  0  0  0  0  0  0  0  0  0
  146.3810  156.8750  133.0240 C   0  0  0  0  0  0  0  0  0  0  0  0
  150.9526  150.0984  131.8367 H   0  0  0  0  0  0  0  0  0  0  0  0
  150.2557  149.5214  130.2850 H   0  0  0  0  0  0  0  0  0  0  0  0
  151.4906  150.8259  130.2850 H   0  0  0  0  0  0  0  0  0  0  0  0
  148.0905  151.2242  133.1005 H   0  0  0  0  0  0  0  0  0  0  0  0
  149.7800  151.1925  135.1890 H   0  0  0  0  0  0  0  0  0  0  0  0
  149.8392  149.9792  133.8657 H   0  0  0  0  0  0  0  0  0  0  0  0
  150.9825  151.3647  133.8657 H   0  0  0  0  0  0  0  0  0  0  0  0
  148.0505  152.7032  135.0846 H   0  0  0  0  0  0  0  0  0  0  0  0
  149.2142  153.8046  134.1779 H   0  0  0  0  0  0  0  0  0  0  0  0
  146.5810  153.0896  132.9228 H   0  0  0  0  0  0  0  0  0  0  0  0
  146.6555  154.3447  134.2307 H   0  0  0  0  0  0  0  0  0  0  0  0
  148.1130  154.4940  131.5800 H   0  0  0  0  0  0  0  0  0  0  0  0
  149.7429  156.5198  132.3704 H   0  0  0  0  0  0  0  0  0  0  0  0
  149.6780  159.0030  132.7533 H   0  0  0  0  0  0  0  0  0  0  0  0
  147.9156  161.1670  133.3512 H   0  0  0  0  0  0  0  0  0  0  0  0
  143.1600  160.8420  133.3960 H   0  0  0  0  0  0  0  0  0  0  0  0
  143.2130  162.5480  133.9530 H   0  0  0  0  0  0  0  0  0  0  0  0
  145.4465  156.2980  133.0856 H   0  0  0  0  0  0  0  0  0  0  0  0
  1  2  1  0
  2  3  1  0
  3  4  2  0
  3  5  1  0
  5  6  1  0
  5  7  1  0
  7  8  1  0
  8  9  1  0
  9 10  1  0
 10 11  2  0
 11 12  1  0
 12 13  2  0
 13 14  1  0
 14 15  2  0
 15 16  1  0
 16 17  1  0
 16 18  2  0
 15 19  1  0
 19 20  1  0
 20 21  2  0
 20 22  1  0
 19 23  1  0
 23 24  2  0
 24 10  1  0
 23 13  1  0
  1 25  1  0
  1 26  1  0
  1 27  1  0
  5 28  1  6
  6 29  1  0
  6 30  1  0
  6 31  1  0
  7 32  1  0
  7 33  1  0
  8 34  1  0
  8 35  1  0
  9 36  1  0
 11 37  1  0
 12 38  1  0
 14 39  1  0
 17 40  1  0
 17 41  1  0
 24 42  1  0
M  CHG  1  22  -1
M  END
>  <UniqueID>  (16) 
16

>  <SMILES>  (16) 
COC(=O)[C@@H](C)CCNc1ccc2cc(C(N)=O)n(C(=O)[O-])c2c1

>  <Energy>  (16) 
75.14585802916497

>  <Genealogy>  (16) 
COC(=O)C(C)CCNc1ccc2cc(C(N)=O)n(C(=O)[O-])c2c1 (protonated)
COC(=O)[C@@H](C)CCNc1ccc2cc(C(N)=O)n(C(=O)[O-])c2c1 (chirality)
COC(=O)[C@@H](C)CCNc1ccc2cc(C(N)=O)n(C(=O)[O-])c2c1 (3D coordinates assigned)
COC(=O)[C@@H](C)CCNc1ccc2cc(C(N)=O)n(C(=O)[O-])c2c1 (optimized conformer: 75.14585802916497 kcal/mol)

>  <smiles>  (16) 
COC(=O)C(C)CCNc1ccc2cc(C(N)=O)n(C(=O)O)c2c1

>  <score_type>  (16) 
oracle

>  <origin>  (16) 
adg

>  <m_score__min__energy>  (16) 
-6.7599999999999998

>  <m_primary>  (16) 
energy

$$$$
16:0
     RDKit          3D

 40 41  0  0  0  0  0  0  0  0999 V2000
  143.4430  154.1370  133.4650 C   0  0  0  0  0  0  0  0  0  0  0  0
  144.4100  155.1280  132.8250 C   0  0  0  0  0  0  0  0  0  0  0  0
  145.6970  154.8380  133.2470 F   0  0  0  0  0  0  0  0  0  0  0  0
  144.3710  154.9760  131.4480 F   0  0  0  0  0  0  0  0  0  0  0  0
  144.0350  156.5440  133.2020 C   0  0  0  0  0  0  0  0  0  0  0  0
  142.6860  156.8790  133.4910 C   0  0  0  0  0  0  0  0  0  0  0  0
  142.3270  158.1980  133.8180 C   0  0  0  0  0  0  0  0  0  0  0  0
  143.3280  159.1650  133.8200 C   0  0  0  0  0  0  0  0  0  0  0  0
  143.2600  160.5060  134.1210 C   0  0  0  0  0  0  0  0  0  0  0  0
  144.5570  160.9870  133.9620 C   0  0  0  0  0  0  0  0  0  0  0  0
  144.9200  162.4100  134.1130 C   0  0  0  0  0  0  0  0  0  0  0  0
  146.0120  162.8040  134.9390 N   0  0  0  0  0  0  0  0  0  0  0  0
  144.2880  163.2870  133.4660 O   0  0  0  0  0  0  0  0  0  0  0  0
  145.3970  159.9810  133.5840 N   0  0  0  0  0  0  0  0  0  0  0  0
  146.8220  160.0500  133.4170 C   0  0  0  0  0  0  0  0  0  0  0  0
  147.3790  161.1580  133.1880 O   0  0  0  0  0  0  0  0  0  0  0  0
  147.5840  158.8810  133.4930 O   0  0  0  0  0  0  0  0  0  0  0  0
  148.3250  158.3690  132.3900 C   0  0  0  0  0  0  0  0  0  0  0  0
  149.5730  159.2150  132.1590 C   0  0  0  0  0  0  0  0  0  0  0  0
  149.5960  159.9500  130.5270 S   0  0  0  0  0  0  0  0  0  0  0  0
  149.2320  161.6910  130.6170 C   0  0  0  0  0  0  0  0  0  0  0  0
  150.9640  159.7680  129.9330 O   0  0  0  0  0  0  0  0  0  0  0  0
  148.5840  159.2740  129.6440 O   0  0  0  0  0  0  0  0  0  0  0  0
  144.6280  158.8710  133.5020 C   0  0  0  0  0  0  0  0  0  0  0  0
  145.0180  157.5620  133.1980 C   0  0  0  0  0  0  0  0  0  0  0  0
  143.5144  154.2102  134.5602 H   0  0  0  0  0  0  0  0  0  0  0  0
  142.4158  154.3703  133.1481 H   0  0  0  0  0  0  0  0  0  0  0  0
  143.7014  153.1158  133.1481 H   0  0  0  0  0  0  0  0  0  0  0  0
  141.9128  156.0973  133.4586 H   0  0  0  0  0  0  0  0  0  0  0  0
  141.2870  158.4580  134.0647 H   0  0  0  0  0  0  0  0  0  0  0  0
  142.3697  161.0770  134.4232 H   0  0  0  0  0  0  0  0  0  0  0  0
  146.9960  162.7370  134.5970 H   0  0  0  0  0  0  0  0  0  0  0  0
  148.6229  157.3315  132.6020 H   0  0  0  0  0  0  0  0  0  0  0  0
  147.6963  158.4010  131.4879 H   0  0  0  0  0  0  0  0  0  0  0  0
  149.6010  160.0182  132.9101 H   0  0  0  0  0  0  0  0  0  0  0  0
  150.4496  158.5562  132.2461 H   0  0  0  0  0  0  0  0  0  0  0  0
  149.1678  161.9981  131.6713 H   0  0  0  0  0  0  0  0  0  0  0  0
  150.0308  162.2589  130.1177 H   0  0  0  0  0  0  0  0  0  0  0  0
  148.2726  161.8913  130.1177 H   0  0  0  0  0  0  0  0  0  0  0  0
  146.0666  157.3292  132.9609 H   0  0  0  0  0  0  0  0  0  0  0  0
  1  2  1  0
  2  3  1  0
  2  4  1  0
  2  5  1  0
  5  6  2  0
  6  7  1  0
  7  8  2  0
  8  9  1  0
  9 10  2  0
 10 11  1  0
 11 12  1  0
 11 13  2  0
 10 14  1  0
 14 15  1  0
 15 16  2  0
 15 17  1  0
 17 18  1  0
 18 19  1  0
 19 20  1  0
 20 21  1  0
 20 22  2  0
 20 23  2  0
 14 24  1  0
 24 25  2  0
 25  5  1  0
 24  8  1  0
  1 26  1  0
  1 27  1  0
  1 28  1  0
  6 29  1  0
  7 30  1  0
  9 31  1  0
 12 32  1  0
 18 33  1  0
 18 34  1  0
 19 35  1  0
 19 36  1  0
 21 37  1  0
 21 38  1  0
 21 39  1  0
 25 40  1  0
M  CHG  1  12  -1
M  END
>  <UniqueID>  (17) 
17

>  <SMILES>  (17) 
CC(F)(F)c1ccc2cc(C([NH-])=O)n(C(=O)OCCS(C)(=O)=O)c2c1

>  <Energy>  (17) 
65.61821782764086

>  <Genealogy>  (17) 
CC(F)(F)c1ccc2cc(C([NH-])=O)n(C(=O)OCCS(C)(=O)=O)c2c1 (protonated)
CC(F)(F)c1ccc2cc(C([NH-])=O)n(C(=O)OCCS(C)(=O)=O)c2c1 (3D coordinates assigned)
CC(F)(F)c1ccc2cc(C([NH-])=O)n(C(=O)OCCS(C)(=O)=O)c2c1 (optimized conformer: 65.61821782764086 kcal/mol)

>  <smiles>  (17) 
CC(F)(F)c1ccc2cc(C(N)=O)n(C(=O)OCCS(C)(=O)=O)c2c1

>  <score_type>  (17) 
oracle

>  <origin>  (17) 
adg

>  <m_score__min__energy>  (17) 
-6.9400000000000004

>  <m_primary>  (17) 
energy

$$$$
17:0
     RDKit          3D

 37 38  0  0  0  0  0  0  0  0999 V2000
  140.6700  159.3780  136.3790 C   0  0  0  0  0  0  0  0  0  0  0  0
  142.0750  158.8030  136.1880 C   0  0  0  0  0  0  0  0  0  0  0  0
  142.0820  157.4200  135.5020 C   0  0  1  0  0  0  0  0  0  0  0  0
  143.3130  157.1760  134.8180 O   0  0  0  0  0  0  0  0  0  0  0  0
  143.6570  157.7630  133.5960 C   0  0  0  0  0  0  0  0  0  0  0  0
  142.9220  157.6000  132.5840 O   0  0  0  0  0  0  0  0  0  0  0  0
  144.8460  158.5680  133.4980 N   0  0  0  0  0  0  0  0  0  0  0  0
  144.9510  159.9210  133.6380 C   0  0  0  0  0  0  0  0  0  0  0  0
  143.8290  160.8770  133.7270 C   0  0  0  0  0  0  0  0  0  0  0  0
  142.5080  160.4930  133.3560 N   0  0  0  0  0  0  0  0  0  0  0  0
  144.0480  162.0660  134.0790 O   0  0  0  0  0  0  0  0  0  0  0  0
  146.2860  160.3170  133.5910 C   0  0  0  0  0  0  0  0  0  0  0  0
  147.0030  159.1620  133.4000 C   0  0  0  0  0  0  0  0  0  0  0  0
  148.3790  158.9720  133.2830 C   0  0  0  0  0  0  0  0  0  0  0  0
  148.8510  157.6600  133.1120 C   0  0  0  0  0  0  0  0  0  0  0  0
  147.9460  156.5760  133.0650 C   0  0  0  0  0  0  0  0  0  0  0  0
  148.4420  155.2350  132.8960 C   0  0  0  0  0  0  0  0  0  0  0  0
  148.8530  154.1110  132.7550 C   0  0  0  0  0  0  0  0  0  0  0  0
  149.3430  152.7730  132.5860 C   0  0  0  0  0  0  0  0  0  0  0  0
  149.5850  152.3320  131.4330 O   0  0  0  0  0  0  0  0  0  0  0  0
  149.5510  151.9650  133.6950 O   0  0  0  0  0  0  0  0  0  0  0  0
  146.5600  156.7990  133.1860 C   0  0  0  0  0  0  0  0  0  0  0  0
  146.1140  158.1180  133.3450 C   0  0  0  0  0  0  0  0  0  0  0  0
  141.8470  156.3260  136.5030 C   0  0  0  0  0  0  0  0  0  0  0  0
  142.5990  155.3170  136.5230 O   0  0  0  0  0  0  0  0  0  0  0  0
  140.7760  156.3990  137.3850 O   0  0  0  0  0  0  0  0  0  0  0  0
  140.4531  159.4668  137.4537 H   0  0  0  0  0  0  0  0  0  0  0  0
  140.6136  160.3715  135.9103 H   0  0  0  0  0  0  0  0  0  0  0  0
  139.9332  158.7091  135.9103 H   0  0  0  0  0  0  0  0  0  0  0  0
  142.6571  159.5022  135.5696 H   0  0  0  0  0  0  0  0  0  0  0  0
  142.5116  158.6718  137.1891 H   0  0  0  0  0  0  0  0  0  0  0  0
  141.2657  157.4241  134.7647 H   0  0  0  0  0  0  0  0  0  0  0  0
  142.3450  159.7220  132.6710 H   0  0  0  0  0  0  0  0  0  0  0  0
  146.6817  161.3389  133.6867 H   0  0  0  0  0  0  0  0  0  0  0  0
  149.0741  159.8236  133.3234 H   0  0  0  0  0  0  0  0  0  0  0  0
  149.9310  157.4756  133.0142 H   0  0  0  0  0  0  0  0  0  0  0  0
  145.8479  155.9611  133.1565 H   0  0  0  0  0  0  0  0  0  0  0  0
  1  2  1  0
  2  3  1  0
  3  4  1  0
  4  5  1  0
  5  6  2  0
  5  7  1  0
  7  8  1  0
  8  9  1  0
  9 10  1  0
  9 11  2  0
  8 12  2  0
 12 13  1  0
 13 14  2  0
 14 15  1  0
 15 16  2  0
 16 17  1  0
 17 18  3  0
 18 19  1  0
 19 20  2  0
 19 21  1  0
 16 22  1  0
 22 23  2  0
  3 24  1  0
 24 25  2  0
 24 26  1  0
 23  7  1  0
 23 13  1  0
  1 27  1  0
  1 28  1  0
  1 29  1  0
  2 30  1  0
  2 31  1  0
  3 32  1  6
 10 33  1  0
 12 34  1  0
 14 35  1  0
 15 36  1  0
 22 37  1  0
M  CHG  3  10  -1  21  -1  26  -1
M  END
>  <UniqueID>  (18) 
18

>  <SMILES>  (18) 
CC[C@@H](OC(=O)n1c(C([NH-])=O)cc2ccc(C#CC(=O)[O-])cc21)C(=O)[O-]

>  <Energy>  (18) 
66.7971053915561

>  <Genealogy>  (18) 
CCC(OC(=O)n1c(C([NH-])=O)cc2ccc(C#CC(=O)[O-])cc21)C(=O)[O-] (protonated)
CC[C@@H](OC(=O)n1c(C([NH-])=O)cc2ccc(C#CC(=O)[O-])cc21)C(=O)[O-] (chirality)
CC[C@@H](OC(=O)n1c(C([NH-])=O)cc2ccc(C#CC(=O)[O-])cc21)C(=O)[O-] (3D coordinates assigned)
CC[C@@H](OC(=O)n1c(C([NH-])=O)cc2ccc(C#CC(=O)[O-])cc21)C(=O)[O-] (optimized conformer: 66.7971053915561 kcal/mol)

>  <smiles>  (18) 
CCC(OC(=O)n1c(C(N)=O)cc2ccc(C#CC(=O)O)cc21)C(=O)O

>  <score_type>  (18) 
oracle

>  <origin>  (18) 
adg

>  <m_score__min__energy>  (18) 
-7.5199999999999996

>  <m_primary>  (18) 
energy

$$$$
18:0
     RDKit          3D

 46 47  0  0  0  0  0  0  0  0999 V2000
  139.4570  149.9840  130.4010 C   0  0  0  0  0  0  0  0  0  0  0  0
  139.5010  149.0900  131.6510 C   0  0  0  0  0  0  0  0  0  0  0  0
  140.5210  147.9620  131.4490 C   0  0  0  0  0  0  0  0  0  0  0  0
  139.8540  149.8920  132.8330 N   0  0  0  0  0  0  0  0  0  0  0  0
  140.9000  150.8820  132.8600 C   0  0  0  0  0  0  0  0  0  0  0  0
  142.2430  150.4660  132.6750 C   0  0  0  0  0  0  0  0  0  0  0  0
  143.2970  151.3970  132.6770 C   0  0  0  0  0  0  0  0  0  0  0  0
  142.9800  152.7390  132.8630 C   0  0  0  0  0  0  0  0  0  0  0  0
  143.7900  153.8540  132.8910 C   0  0  0  0  0  0  0  0  0  0  0  0
  142.9290  154.9320  133.1030 C   0  0  0  0  0  0  0  0  0  0  0  0
  143.3480  156.3480  133.1690 C   0  0  0  0  0  0  0  0  0  0  0  0
  142.6780  157.3420  132.3930 N   0  0  0  0  0  0  0  0  0  0  0  0
  144.2930  156.6900  133.9260 O   0  0  0  0  0  0  0  0  0  0  0  0
  141.6430  154.4930  133.1910 N   0  0  0  0  0  0  0  0  0  0  0  0
  140.4500  155.2620  133.3670 C   0  0  0  0  0  0  0  0  0  0  0  0
  139.5540  155.2050  132.4860 O   0  0  0  0  0  0  0  0  0  0  0  0
  140.3470  156.2240  134.4320 N   0  0  0  0  0  0  0  0  0  0  0  0
  141.1750  156.0350  135.6270 C   0  0  0  0  0  0  0  0  0  0  0  0
  139.4870  157.4180  134.2990 C   0  0  0  0  0  0  0  0  0  0  0  0
  140.2100  158.7060  134.7270 C   0  0  0  0  0  0  0  0  0  0  0  0
  141.1530  159.1970  133.6670 C   0  0  0  0  0  0  0  0  0  0  0  0
  142.2340  159.7600  133.9910 O   0  0  0  0  0  0  0  0  0  0  0  0
  140.8420  159.0330  132.3210 O   0  0  0  0  0  0  0  0  0  0  0  0
  141.6920  153.1550  133.0520 C   0  0  0  0  0  0  0  0  0  0  0  0
  140.6230  152.2550  133.0690 C   0  0  0  0  0  0  0  0  0  0  0  0
  139.4050  151.0394  130.7067 H   0  0  0  0  0  0  0  0  0  0  0  0
  140.3643  149.8203  129.8010 H   0  0  0  0  0  0  0  0  0  0  0  0
  138.5702  149.7320  129.8010 H   0  0  0  0  0  0  0  0  0  0  0  0
  138.5074  148.6462  131.8114 H   0  0  0  0  0  0  0  0  0  0  0  0
  140.8564  147.5911  132.4288 H   0  0  0  0  0  0  0  0  0  0  0  0
  140.0528  147.1407  130.8867 H   0  0  0  0  0  0  0  0  0  0  0  0
  141.3852  148.3454  130.8867 H   0  0  0  0  0  0  0  0  0  0  0  0
  139.3510  149.6980  133.7290 H   0  0  0  0  0  0  0  0  0  0  0  0
  142.4638  149.3985  132.5276 H   0  0  0  0  0  0  0  0  0  0  0  0
  144.3392  151.0745  132.5360 H   0  0  0  0  0  0  0  0  0  0  0  0
  144.8830  153.8872  132.7716 H   0  0  0  0  0  0  0  0  0  0  0  0
  142.9600  158.3450  132.4770 H   0  0  0  0  0  0  0  0  0  0  0  0
  141.8170  157.1120  131.8490 H   0  0  0  0  0  0  0  0  0  0  0  0
  140.5579  156.1759  136.5267 H   0  0  0  0  0  0  0  0  0  0  0  0
  141.5943  155.0181  135.6255 H   0  0  0  0  0  0  0  0  0  0  0  0
  141.9940  156.7693  135.6255 H   0  0  0  0  0  0  0  0  0  0  0  0
  139.1792  157.5174  133.2476 H   0  0  0  0  0  0  0  0  0  0  0  0
  138.6180  157.2833  134.9599 H   0  0  0  0  0  0  0  0  0  0  0  0
  139.4600  159.4859  134.9248 H   0  0  0  0  0  0  0  0  0  0  0  0
  140.7978  158.4832  135.6297 H   0  0  0  0  0  0  0  0  0  0  0  0
  139.5939  152.6038  133.2402 H   0  0  0  0  0  0  0  0  0  0  0  0
  1  2  1  0
  2  3  1  0
  2  4  1  0
  4  5  1  0
  5  6  2  0
  6  7  1  0
  7  8  2  0
  8  9  1  0
  9 10  2  0
 10 11  1  0
 11 12  1  0
 11 13  2  0
 10 14  1  0
 14 15  1  0
 15 16  2  0
 15 17  1  0
 17 18  1  0
 17 19  1  0
 19 20  1  0
 20 21  1  0
 21 22  2  0
 21 23  1  0
 14 24  1  0
 24 25  2  0
 25  5  1  0
 24  8  1  0
  1 26  1  0
  1 27  1  0
  1 28  1  0
  2 29  1  0
  3 30  1  0
  3 31  1  0
  3 32  1  0
  4 33  1  0
  6 34  1  0
  7 35  1  0
  9 36  1  0
 12 37  1  0
 12 38  1  0
 18 39  1  0
 18 40  1  0
 18 41  1  0
 19 42  1  0
 19 43  1  0
 20 44  1  0
 20 45  1  0
 25 46  1  0
M  CHG  1  23  -1
M  END
>  <UniqueID>  (19) 
19

>  <SMILES>  (19) 
CC(C)Nc1ccc2cc(C(N)=O)n(C(=O)N(C)CCC(=O)[O-])c2c1

>  <Energy>  (19) 
80.25484352584317

>  <Genealogy>  (19) 
CC(C)Nc1ccc2cc(C(N)=O)n(C(=O)N(C)CCC(=O)[O-])c2c1 (protonated)
CC(C)Nc1ccc2cc(C(N)=O)n(C(=O)N(C)CCC(=O)[O-])c2c1 (3D coordinates assigned)
CC(C)Nc1ccc2cc(C(N)=O)n(C(=O)N(C)CCC(=O)[O-])c2c1 (optimized conformer: 80.25484352584317 kcal/mol)

>  <smiles>  (19) 
CC(C)Nc1ccc2cc(C(N)=O)n(C(=O)N(C)CCC(=O)O)c2c1

>  <score_type>  (19) 
oracle

>  <origin>  (19) 
adg

>  <m_score__min__energy>  (19) 
-7.25

>  <m_primary>  (19) 
energy

$$$$
19:0
     RDKit          3D

 37 38  0  0  0  0  0  0  0  0999 V2000
  143.0590  160.4840  133.3450 N   0  0  0  0  0  0  0  0  0  0  0  0
  144.4290  160.7650  133.6270 C   0  0  0  0  0  0  0  0  0  0  0  0
  144.7430  161.8910  134.0900 O   0  0  0  0  0  0  0  0  0  0  0  0
  145.4620  159.7520  133.3280 C   0  0  0  0  0  0  0  0  0  0  0  0
  146.8050  160.0630  133.1290 C   0  0  0  0  0  0  0  0  0  0  0  0
  147.4430  158.8540  132.9810 C   0  0  0  0  0  0  0  0  0  0  0  0
  148.7850  158.5730  132.7440 C   0  0  0  0  0  0  0  0  0  0  0  0
  149.1630  157.2280  132.6030 C   0  0  0  0  0  0  0  0  0  0  0  0
  148.1990  156.1950  132.7030 C   0  0  0  0  0  0  0  0  0  0  0  0
  148.6040  154.7660  132.4940 C   0  0  0  0  0  0  0  0  0  0  0  0
  148.1120  153.7900  133.8990 Cl  0  0  0  0  0  0  0  0  0  0  0  0
  146.8420  156.5170  132.9310 C   0  0  0  0  0  0  0  0  0  0  0  0
  146.4980  157.8650  133.0850 C   0  0  0  0  0  0  0  0  0  0  0  0
  145.2740  158.4010  133.2940 N   0  0  0  0  0  0  0  0  0  0  0  0
  144.0370  157.6780  133.3990 C   0  0  0  0  0  0  0  0  0  0  0  0
  143.2830  157.5660  132.3950 O   0  0  0  0  0  0  0  0  0  0  0  0
  143.6860  157.0780  134.6120 O   0  0  0  0  0  0  0  0  0  0  0  0
  142.4160  157.2670  135.2290 C   0  0  0  0  0  0  0  0  0  0  0  0
  141.7780  158.3980  134.6830 O   0  0  0  0  0  0  0  0  0  0  0  0
  140.2160  158.5390  135.3580 P   0  0  1  0  0  0  0  0  0  0  0  0
  139.7940  157.2110  135.9500 O   0  0  0  0  0  0  0  0  0  0  0  0
  140.2310  159.7240  136.5680 O   0  0  0  0  0  0  0  0  0  0  0  0
  139.1440  158.9760  134.1090 O   0  0  0  0  0  0  0  0  0  0  0  0
  139.6220  158.1510  132.6970 P   0  0  2  0  0  0  0  0  0  0  0  0
  138.5150  158.1910  131.6680 O   0  0  0  0  0  0  0  0  0  0  0  0
  140.0220  156.5410  133.0400 O   0  0  0  0  0  0  0  0  0  0  0  0
  140.9840  158.9250  132.0610 O   0  0  0  0  0  0  0  0  0  0  0  0
  142.7490  159.5170  133.0990 H   0  0  0  0  0  0  0  0  0  0  0  0
  147.2593  161.0643  133.0970 H   0  0  0  0  0  0  0  0  0  0  0  0
  149.5280  159.3807  132.6693 H   0  0  0  0  0  0  0  0  0  0  0  0
  150.2164  156.9745  132.4133 H   0  0  0  0  0  0  0  0  0  0  0  0
  148.1151  154.3762  131.5890 H   0  0  0  0  0  0  0  0  0  0  0  0
  149.6964  154.7108  132.3772 H   0  0  0  0  0  0  0  0  0  0  0  0
  146.0763  155.7291  132.9860 H   0  0  0  0  0  0  0  0  0  0  0  0
  141.7915  156.3780  135.0567 H   0  0  0  0  0  0  0  0  0  0  0  0
  142.5587  157.4195  136.3090 H   0  0  0  0  0  0  0  0  0  0  0  0
  141.6480  158.9170  132.7950 H   0  0  0  0  0  0  0  0  0  0  0  0
  1  2  1  0
  2  3  2  0
  2  4  1  0
  4  5  2  0
  5  6  1  0
  6  7  2  0
  7  8  1  0
  8  9  2  0
  9 10  1  0
 10 11  1  0
  9 12  1  0
 12 13  2  0
 13 14  1  0
 14 15  1  0
 15 16  2  0
 15 17  1  0
 17 18  1  0
 18 19  1  0
 19 20  1  0
 20 21  2  0
 20 22  1  1
 20 23  1  0
 23 24  1  0
 24 25  2  0
 24 26  1  1
 24 27  1  0
 14  4  1  0
 13  6  1  0
  1 28  1  0
  5 29  1  0
  7 30  1  0
  8 31  1  0
 10 32  1  0
 10 33  1  0
 12 34  1  0
 18 35  1  0
 18 36  1  0
 27 37  1  0
M  CHG  3   1  -1  22  -1  26  -1
M  END
>  <UniqueID>  (20) 
20

>  <SMILES>  (20) 
[NH-]C(=O)c1cc2ccc(CCl)cc2n1C(=O)OCO[P@@](=O)([O-])O[P@](=O)([O-])O

>  <Energy>  (20) 
70.51463990627103

>  <Genealogy>  (20) 
[NH-]C(=O)c1cc2ccc(CCl)cc2n1C(=O)OCOP(=O)([O-])OP(=O)([O-])O (protonated)
[NH-]C(=O)c1cc2ccc(CCl)cc2n1C(=O)OCO[P@@](=O)([O-])O[P@](=O)([O-])O (chirality)
[NH-]C(=O)c1cc2ccc(CCl)cc2n1C(=O)OCO[P@@](=O)([O-])O[P@](=O)([O-])O (3D coordinates assigned)
[NH-]C(=O)c1cc2ccc(CCl)cc2n1C(=O)OCO[P@@](=O)([O-])O[P@](=O)([O-])O (optimized conformer: 70.51463990627103 kcal/mol)

>  <smiles>  (20) 
NC(=O)c1cc2ccc(CCl)cc2n1C(=O)OCOP(=O)(O)OP(=O)(O)O

>  <score_type>  (20) 
oracle

>  <origin>  (20) 
adg

>  <m_score__min__energy>  (20) 
-6.46

>  <m_primary>  (20) 
energy

$$$$
20:0
     RDKit          3D

 39 40  0  0  0  0  0  0  0  0999 V2000
  139.9120  158.2390  135.4230 C   0  0  0  0  0  0  0  0  0  0  0  0
  140.5080  158.3730  134.0880 N   0  0  0  0  0  0  0  0  0  0  0  0
  139.7640  157.8580  132.9310 C   0  0  0  0  0  0  0  0  0  0  0  0
  139.3390  158.9660  132.0690 C   0  0  0  0  0  0  0  0  0  0  0  0
  139.0030  159.8390  131.3890 N   0  0  0  0  0  0  0  0  0  0  0  0
  141.8310  158.9460  133.9360 C   0  0  0  0  0  0  0  0  0  0  0  0
  142.0080  160.3560  133.8800 C   0  0  0  0  0  0  0  0  0  0  0  0
  143.2830  160.9190  133.7170 C   0  0  0  0  0  0  0  0  0  0  0  0
  144.3690  160.0580  133.6190 C   0  0  0  0  0  0  0  0  0  0  0  0
  145.7040  160.3370  133.4320 C   0  0  0  0  0  0  0  0  0  0  0  0
  146.3390  159.0970  133.3970 C   0  0  0  0  0  0  0  0  0  0  0  0
  147.8050  158.9220  133.3030 C   0  0  0  0  0  0  0  0  0  0  0  0
  148.4400  157.7720  133.8640 N   0  0  0  0  0  0  0  0  0  0  0  0
  148.5060  159.7760  132.6980 O   0  0  0  0  0  0  0  0  0  0  0  0
  145.4310  158.0920  133.5530 N   0  0  0  0  0  0  0  0  0  0  0  0
  145.6820  156.6780  133.4970 C   0  0  0  0  0  0  0  0  0  0  0  0
  144.9220  155.8810  134.1120 O   0  0  0  0  0  0  0  0  0  0  0  0
  146.7630  156.2000  132.7440 O   0  0  0  0  0  0  0  0  0  0  0  0
  147.7230  155.2870  133.2020 C   0  0  0  0  0  0  0  0  0  0  0  0
  148.9490  155.4440  132.9480 O   0  0  0  0  0  0  0  0  0  0  0  0
  147.2740  154.0830  133.9630 C   0  0  0  0  0  0  0  0  0  0  0  0
  147.3530  154.3500  135.4300 C   0  0  0  0  0  0  0  0  0  0  0  0
  147.7110  155.4820  135.8500 O   0  0  0  0  0  0  0  0  0  0  0  0
  146.9840  153.3650  136.3360 O   0  0  0  0  0  0  0  0  0  0  0  0
  144.2290  158.6980  133.6860 C   0  0  0  0  0  0  0  0  0  0  0  0
  142.9680  158.1060  133.8300 C   0  0  0  0  0  0  0  0  0  0  0  0
  140.6832  158.4124  136.1879 H   0  0  0  0  0  0  0  0  0  0  0  0
  139.1061  158.9784  135.5407 H   0  0  0  0  0  0  0  0  0  0  0  0
  139.5001  157.2258  135.5407 H   0  0  0  0  0  0  0  0  0  0  0  0
  140.4103  157.1779  132.3567 H   0  0  0  0  0  0  0  0  0  0  0  0
  138.8742  157.3183  133.2873 H   0  0  0  0  0  0  0  0  0  0  0  0
  141.1318  161.0155  133.9658 H   0  0  0  0  0  0  0  0  0  0  0  0
  143.4186  162.0095  133.6683 H   0  0  0  0  0  0  0  0  0  0  0  0
  146.1704  161.3281  133.3316 H   0  0  0  0  0  0  0  0  0  0  0  0
  149.4700  157.6410  133.7610 H   0  0  0  0  0  0  0  0  0  0  0  0
  147.9000  157.0710  134.4170 H   0  0  0  0  0  0  0  0  0  0  0  0
  146.2348  153.8462  133.6909 H   0  0  0  0  0  0  0  0  0  0  0  0
  147.9266  153.2332  133.7140 H   0  0  0  0  0  0  0  0  0  0  0  0
  142.8620  157.0115  133.8602 H   0  0  0  0  0  0  0  0  0  0  0  0
  1  2  1  0
  2  3  1  0
  3  4  1  0
  4  5  3  0
  2  6  1  0
  6  7  2  0
  7  8  1  0
  8  9  2  0
  9 10  1  0
 10 11  2  0
 11 12  1  0
 12 13  1  0
 12 14  2  0
 11 15  1  0
 15 16  1  0
 16 17  2  0
 16 18  1  0
 18 19  1  0
 19 20  2  0
 19 21  1  0
 21 22  1  0
 22 23  2  0
 22 24  1  0
 15 25  1  0
 25 26  2  0
 26  6  1  0
 25  9  1  0
  1 27  1  0
  1 28  1  0
  1 29  1  0
  3 30  1  0
  3 31  1  0
  7 32  1  0
  8 33  1  0
 10 34  1  0
 13 35  1  0
 13 36  1  0
 21 37  1  0
 21 38  1  0
 26 39  1  0
M  CHG  1  24  -1
M  END
>  <UniqueID>  (21) 
21

>  <SMILES>  (21) 
CN(CC#N)c1ccc2cc(C(N)=O)n(C(=O)OC(=O)CC(=O)[O-])c2c1

>  <Energy>  (21) 
76.83374440531803

>  <Genealogy>  (21) 
CN(CC#N)c1ccc2cc(C(N)=O)n(C(=O)OC(=O)CC(=O)[O-])c2c1 (protonated)
CN(CC#N)c1ccc2cc(C(N)=O)n(C(=O)OC(=O)CC(=O)[O-])c2c1 (3D coordinates assigned)
CN(CC#N)c1ccc2cc(C(N)=O)n(C(=O)OC(=O)CC(=O)[O-])c2c1 (optimized conformer: 76.83374440531803 kcal/mol)

>  <smiles>  (21) 
CN(CC#N)c1ccc2cc(C(N)=O)n(C(=O)OC(=O)CC(=O)O)c2c1

>  <score_type>  (21) 
oracle

>  <origin>  (21) 
adg

>  <m_score__min__energy>  (21) 
-7.29

>  <m_primary>  (21) 
energy

$$$$
21:0
     RDKit          3D

 38 39  0  0  0  0  0  0  0  0999 V2000
  148.7600  157.8590  131.9290 N   0  0  0  0  0  0  0  0  0  0  0  0
  148.3430  158.5660  133.0940 C   0  0  0  0  0  0  0  0  0  0  0  0
  149.2110  158.9780  133.9090 O   0  0  0  0  0  0  0  0  0  0  0  0
  146.9140  158.8590  133.3360 C   0  0  0  0  0  0  0  0  0  0  0  0
  146.4000  160.1480  133.4490 C   0  0  0  0  0  0  0  0  0  0  0  0
  145.0390  159.9880  133.5820 C   0  0  0  0  0  0  0  0  0  0  0  0
  144.0340  160.9380  133.7350 C   0  0  0  0  0  0  0  0  0  0  0  0
  142.7120  160.4810  133.8650 C   0  0  0  0  0  0  0  0  0  0  0  0
  142.4120  159.0950  133.8440 C   0  0  0  0  0  0  0  0  0  0  0  0
  141.0410  158.6760  133.9910 N   0  0  0  0  0  0  0  0  0  0  0  0
  139.9460  159.0870  133.1120 C   0  0  0  0  0  0  0  0  0  0  0  0
  138.7670  158.1180  133.2290 C   0  0  0  0  0  0  0  0  0  0  0  0
  138.7690  157.5030  134.4890 O   0  0  0  0  0  0  0  0  0  0  0  0
  143.4670  158.1610  133.6940 C   0  0  0  0  0  0  0  0  0  0  0  0
  144.7710  158.6460  133.5510 C   0  0  0  0  0  0  0  0  0  0  0  0
  145.9110  157.9380  133.4080 N   0  0  0  0  0  0  0  0  0  0  0  0
  146.0180  156.5070  133.3940 C   0  0  0  0  0  0  0  0  0  0  0  0
  146.6040  155.9470  132.4310 O   0  0  0  0  0  0  0  0  0  0  0  0
  145.3690  155.7020  134.4540 C   0  0  0  0  0  0  0  0  0  0  0  0
  146.0900  155.2120  135.3630 O   0  0  0  0  0  0  0  0  0  0  0  0
  143.9540  155.4590  134.5050 N   0  0  0  0  0  0  0  0  0  0  0  0
  143.0930  155.5000  135.6820 C   0  0  0  0  0  0  0  0  0  0  0  0
  141.7370  156.0250  135.3260 C   0  0  0  0  0  0  0  0  0  0  0  0
  141.3410  155.9920  134.1320 O   0  0  0  0  0  0  0  0  0  0  0  0
  140.9060  156.5400  136.3120 O   0  0  0  0  0  0  0  0  0  0  0  0
  148.1600  157.1180  131.5060 H   0  0  0  0  0  0  0  0  0  0  0  0
  146.9620  161.0935  133.4350 H   0  0  0  0  0  0  0  0  0  0  0  0
  144.2672  162.0128  133.7536 H   0  0  0  0  0  0  0  0  0  0  0  0
  141.8967  161.2096  133.9850 H   0  0  0  0  0  0  0  0  0  0  0  0
  140.8050  158.0190  134.7700 H   0  0  0  0  0  0  0  0  0  0  0  0
  139.6137  160.0963  133.3965 H   0  0  0  0  0  0  0  0  0  0  0  0
  140.3058  159.0831  132.0725 H   0  0  0  0  0  0  0  0  0  0  0  0
  137.8263  158.6726  133.0969 H   0  0  0  0  0  0  0  0  0  0  0  0
  138.8594  157.3448  132.4520 H   0  0  0  0  0  0  0  0  0  0  0  0
  139.6480  157.0490  134.5810 H   0  0  0  0  0  0  0  0  0  0  0  0
  143.2651  157.0797  133.6901 H   0  0  0  0  0  0  0  0  0  0  0  0
  142.9912  154.4839  136.0908 H   0  0  0  0  0  0  0  0  0  0  0  0
  143.5464  156.1677  136.4294 H   0  0  0  0  0  0  0  0  0  0  0  0
  1  2  1  0
  2  3  2  0
  2  4  1  0
  4  5  2  0
  5  6  1  0
  6  7  2  0
  7  8  1  0
  8  9  2  0
  9 10  1  0
 10 11  1  0
 11 12  1  0
 12 13  1  0
  9 14  1  0
 14 15  2  0
 15 16  1  0
 16 17  1  0
 17 18  2  0
 17 19  1  0
 19 20  2  0
 19 21  1  0
 21 22  1  0
 22 23  1  0
 23 24  2  0
 23 25  1  0
 16  4  1  0
 15  6  1  0
  1 26  1  0
  5 27  1  0
  7 28  1  0
  8 29  1  0
 10 30  1  0
 11 31  1  0
 11 32  1  0
 12 33  1  0
 12 34  1  0
 13 35  1  0
 14 36  1  0
 22 37  1  0
 22 38  1  0
M  CHG  3   1  -1  21  -1  25  -1
M  END
>  <UniqueID>  (22) 
22

>  <SMILES>  (22) 
[NH-]C(=O)c1cc2ccc(NCCO)cc2n1C(=O)C(=O)[N-]CC(=O)[O-]

>  <Energy>  (22) 
74.79383111236552

>  <Genealogy>  (22) 
[NH-]C(=O)c1cc2ccc(NCCO)cc2n1C(=O)C(=O)[N-]CC(=O)[O-] (protonated)
[NH-]C(=O)c1cc2ccc(NCCO)cc2n1C(=O)C(=O)[N-]CC(=O)[O-] (3D coordinates assigned)
[NH-]C(=O)c1cc2ccc(NCCO)cc2n1C(=O)C(=O)[N-]CC(=O)[O-] (optimized conformer: 74.79383111236552 kcal/mol)

>  <smiles>  (22) 
NC(=O)c1cc2ccc(NCCO)cc2n1C(=O)C(=O)NCC(=O)O

>  <score_type>  (22) 
oracle

>  <origin>  (22) 
adg

>  <m_score__min__energy>  (22) 
-5.3799999999999999

>  <m_primary>  (22) 
energy

$$$$
22:0
     RDKit          3D

 38 39  0  0  0  0  0  0  0  0999 V2000
  140.7810  156.5040  133.7770 C   0  0  0  0  0  0  0  0  0  0  0  0
  141.7660  157.4490  134.3260 N   0  0  1  0  0  0  0  0  0  0  0  0
  142.3870  157.0020  135.6020 C   0  0  0  0  0  0  0  0  0  0  0  0
  141.7080  157.5130  136.8970 C   0  0  0  0  0  0  0  0  0  0  0  0
  140.5600  158.4390  136.6170 C   0  0  0  0  0  0  0  0  0  0  0  0
  139.5450  158.0230  135.9990 O   0  0  0  0  0  0  0  0  0  0  0  0
  140.6210  159.7670  137.0190 O   0  0  0  0  0  0  0  0  0  0  0  0
  142.7480  157.7930  133.3170 C   0  0  0  0  0  0  0  0  0  0  0  0
  142.8190  157.1420  132.2390 O   0  0  0  0  0  0  0  0  0  0  0  0
  143.6040  158.9330  133.5010 N   0  0  0  0  0  0  0  0  0  0  0  0
  143.2320  160.2360  133.6520 C   0  0  0  0  0  0  0  0  0  0  0  0
  141.8460  160.7400  133.7590 C   0  0  0  0  0  0  0  0  0  0  0  0
  140.7460  159.8490  133.9180 N   0  0  0  0  0  0  0  0  0  0  0  0
  141.6310  161.9820  133.7340 O   0  0  0  0  0  0  0  0  0  0  0  0
  144.3580  161.0540  133.7400 C   0  0  0  0  0  0  0  0  0  0  0  0
  145.4360  160.2050  133.6360 C   0  0  0  0  0  0  0  0  0  0  0  0
  146.8000  160.4850  133.6400 C   0  0  0  0  0  0  0  0  0  0  0  0
  147.6920  159.4120  133.4800 C   0  0  0  0  0  0  0  0  0  0  0  0
  147.2090  158.0900  133.3120 C   0  0  0  0  0  0  0  0  0  0  0  0
  148.1650  156.9470  133.1220 C   0  0  0  0  0  0  0  0  0  0  0  0
  148.4770  156.3920  134.3500 F   0  0  0  0  0  0  0  0  0  0  0  0
  149.3230  157.4030  132.5190 F   0  0  0  0  0  0  0  0  0  0  0  0
  145.8180  157.8470  133.3080 C   0  0  0  0  0  0  0  0  0  0  0  0
  144.9530  158.9310  133.4890 C   0  0  0  0  0  0  0  0  0  0  0  0
  140.2563  156.0006  134.6024 H   0  0  0  0  0  0  0  0  0  0  0  0
  140.0534  157.0505  133.1591 H   0  0  0  0  0  0  0  0  0  0  0  0
  141.2969  155.7543  133.1591 H   0  0  0  0  0  0  0  0  0  0  0  0
  141.2320  158.3210  134.5510 H   0  0  0  0  0  0  0  0  0  0  0  0
  142.3655  155.9024  135.6209 H   0  0  0  0  0  0  0  0  0  0  0  0
  143.4005  157.4296  135.6071 H   0  0  0  0  0  0  0  0  0  0  0  0
  141.3334  156.6480  137.4639 H   0  0  0  0  0  0  0  0  0  0  0  0
  142.4601  158.0763  137.4690 H   0  0  0  0  0  0  0  0  0  0  0  0
  140.3370  159.6630  134.8600 H   0  0  0  0  0  0  0  0  0  0  0  0
  144.3799  162.1466  133.8659 H   0  0  0  0  0  0  0  0  0  0  0  0
  147.1674  161.5143  133.7646 H   0  0  0  0  0  0  0  0  0  0  0  0
  148.7759  159.5994  133.4851 H   0  0  0  0  0  0  0  0  0  0  0  0
  147.6938  156.1854  132.4832 H   0  0  0  0  0  0  0  0  0  0  0  0
  145.4243  156.8297  133.1660 H   0  0  0  0  0  0  0  0  0  0  0  0
  1  2  1  0
  2  3  1  0
  3  4  1  0
  4  5  1  0
  5  6  2  0
  5  7  1  0
  2  8  1  0
  8  9  2  0
  8 10  1  0
 10 11  1  0
 11 12  1  0
 12 13  1  0
 12 14  2  0
 11 15  2  0
 15 16  1  0
 16 17  2  0
 17 18  1  0
 18 19  2  0
 19 20  1  0
 20 21  1  0
 20 22  1  0
 19 23  1  0
 23 24  2  0
 24 10  1  0
 24 16  1  0
  1 25  1  0
  1 26  1  0
  1 27  1  0
  2 28  1  1
  3 29  1  0
  3 30  1  0
  4 31  1  0
  4 32  1  0
 13 33  1  0
 15 34  1  0
 17 35  1  0
 18 36  1  0
 20 37  1  0
 23 38  1  0
M  CHG  3   2   1   7  -1  13  -1
M  END
>  <UniqueID>  (23) 
23

>  <SMILES>  (23) 
C[N@@H+](CCC(=O)[O-])C(=O)n1c(C([NH-])=O)cc2ccc(C(F)F)cc21

>  <Energy>  (23) 
83.11574626692493

>  <Genealogy>  (23) 
C[NH+](CCC(=O)[O-])C(=O)n1c(C([NH-])=O)cc2ccc(C(F)F)cc21 (protonated)
C[N@@H+](CCC(=O)[O-])C(=O)n1c(C([NH-])=O)cc2ccc(C(F)F)cc21 (chirality)
C[N@@H+](CCC(=O)[O-])C(=O)n1c(C([NH-])=O)cc2ccc(C(F)F)cc21 (3D coordinates assigned)
C[N@@H+](CCC(=O)[O-])C(=O)n1c(C([NH-])=O)cc2ccc(C(F)F)cc21 (optimized conformer: 83.11574626692493 kcal/mol)

>  <smiles>  (23) 
CN(CCC(=O)O)C(=O)n1c(C(N)=O)cc2ccc(C(F)F)cc21

>  <score_type>  (23) 
oracle

>  <origin>  (23) 
adg

>  <m_score__min__energy>  (23) 
-5.6100000000000003

>  <m_primary>  (23) 
energy

$$$$
23:0
     RDKit          3D

 49 53  0  0  0  0  0  0  0  0999 V2000
  146.6730  153.4160  136.3680 N   0  0  0  0  0  0  0  0  0  0  0  0
  147.0510  154.0910  135.1710 C   0  0  0  0  0  0  0  0  0  0  0  0
  148.0310  153.6650  134.5050 O   0  0  0  0  0  0  0  0  0  0  0  0
  146.2800  155.2660  134.7150 C   0  0  0  0  0  0  0  0  0  0  0  0
  146.8540  156.3930  134.1260 C   0  0  0  0  0  0  0  0  0  0  0  0
  145.8100  157.2650  133.9130 C   0  0  0  0  0  0  0  0  0  0  0  0
  145.8050  158.5430  133.3650 C   0  0  0  0  0  0  0  0  0  0  0  0
  144.5730  159.2130  133.2670 C   0  0  0  0  0  0  0  0  0  0  0  0
  143.3720  158.5920  133.6960 C   0  0  0  0  0  0  0  0  0  0  0  0
  142.0640  159.3400  133.6260 C   0  0  0  0  0  0  0  0  0  0  0  0
  142.3200  160.6890  133.4700 F   0  0  0  0  0  0  0  0  0  0  0  0
  141.3050  158.8960  132.5580 F   0  0  0  0  0  0  0  0  0  0  0  0
  141.3300  159.1520  134.7850 F   0  0  0  0  0  0  0  0  0  0  0  0
  143.4230  157.3000  134.2710 C   0  0  0  0  0  0  0  0  0  0  0  0
  144.6640  156.6630  134.3610 C   0  0  0  0  0  0  0  0  0  0  0  0
  144.9340  155.4350  134.8490 N   0  0  0  0  0  0  0  0  0  0  0  0
  143.9760  154.5110  135.3840 C   0  0  0  0  0  0  0  0  0  0  0  0
  143.8180  154.4500  136.6340 O   0  0  0  0  0  0  0  0  0  0  0  0
  143.1520  153.6590  134.4930 C   0  0  0  0  0  0  0  0  0  0  0  0
  142.2060  152.7720  135.0260 C   0  0  0  0  0  0  0  0  0  0  0  0
  141.4360  151.9730  134.1800 C   0  0  0  0  0  0  0  0  0  0  0  0
  141.6100  152.0650  132.7880 C   0  0  0  0  0  0  0  0  0  0  0  0
  140.8680  151.2870  131.8850 O   0  0  0  0  0  0  0  0  0  0  0  0
  140.2170  150.0500  132.1940 C   0  0  1  0  0  0  0  0  0  0  0  0
  138.8810  149.9890  131.4610 C   0  0  0  0  0  0  0  0  0  0  0  0
  139.1200  149.2130  130.1730 C   0  0  2  0  0  0  0  0  0  0  0  0
  139.1750  147.6980  130.2900 C   0  0  0  0  0  0  0  0  0  0  0  0
  140.4600  148.5120  130.3040 C   0  0  2  0  0  0  0  0  0  0  0  0
  141.0320  148.8670  131.6700 C   0  0  0  0  0  0  0  0  0  0  0  0
  142.5270  152.9390  132.2900 N   0  0  0  0  0  0  0  0  0  0  0  0
  143.2890  153.7270  133.0970 C   0  0  0  0  0  0  0  0  0  0  0  0
  145.8340  153.7180  136.9120 H   0  0  0  0  0  0  0  0  0  0  0  0
  147.9152  156.5513  133.8834 H   0  0  0  0  0  0  0  0  0  0  0  0
  146.7363  159.0151  133.0189 H   0  0  0  0  0  0  0  0  0  0  0  0
  144.5399  160.2314  132.8525 H   0  0  0  0  0  0  0  0  0  0  0  0
  142.5093  156.8095  134.6378 H   0  0  0  0  0  0  0  0  0  0  0  0
  142.0702  152.7057  136.1156 H   0  0  0  0  0  0  0  0  0  0  0  0
  140.6969  151.2749  134.5999 H   0  0  0  0  0  0  0  0  0  0  0  0
  140.0996  149.9970  133.2864 H   0  0  0  0  0  0  0  0  0  0  0  0
  138.1326  149.4731  132.0804 H   0  0  0  0  0  0  0  0  0  0  0  0
  138.5015  150.9993  131.2481 H   0  0  0  0  0  0  0  0  0  0  0  0
  138.5898  149.8731  129.4707 H   0  0  0  0  0  0  0  0  0  0  0  0
  138.8264  147.2040  131.2089 H   0  0  0  0  0  0  0  0  0  0  0  0
  138.7928  146.8567  129.6933 H   0  0  0  0  0  0  0  0  0  0  0  0
  141.4014  148.4007  129.7459 H   0  0  0  0  0  0  0  0  0  0  0  0
  140.9396  148.0104  132.3539 H   0  0  0  0  0  0  0  0  0  0  0  0
  142.0993  149.1231  131.5975 H   0  0  0  0  0  0  0  0  0  0  0  0
  142.6530  153.0110  131.2550 H   0  0  0  0  0  0  0  0  0  0  0  0
  144.0170  154.4217  132.6527 H   0  0  0  0  0  0  0  0  0  0  0  0
  1  2  1  0
  2  3  2  0
  2  4  1  0
  4  5  2  0
  5  6  1  0
  6  7  2  0
  7  8  1  0
  8  9  2  0
  9 10  1  0
 10 11  1  0
 10 12  1  0
 10 13  1  0
  9 14  1  0
 14 15  2  0
 15 16  1  0
 16 17  1  0
 17 18  2  0
 17 19  1  0
 19 20  2  0
 20 21  1  0
 21 22  2  0
 22 23  1  0
 23 24  1  0
 24 25  1  0
 25 26  1  0
 26 27  1  0
 27 28  1  0
 28 29  1  0
 22 30  1  0
 30 31  2  0
 16  4  1  0
 31 19  1  0
 15  6  1  0
 29 24  1  0
 28 26  1  0
  1 32  1  0
  5 33  1  0
  7 34  1  0
  8 35  1  0
 14 36  1  0
 20 37  1  0
 21 38  1  0
 24 39  1  1
 25 40  1  0
 25 41  1  0
 26 42  1  6
 27 43  1  0
 27 44  1  0
 28 45  1  6
 29 46  1  0
 29 47  1  0
 30 48  1  0
 31 49  1  0
M  CHG  2   1  -1  30   1
M  END
>  <UniqueID>  (24) 
24

>  <SMILES>  (24) 
[NH-]C(=O)c1cc2ccc(C(F)(F)F)cc2n1C(=O)c1ccc(OC2C[C@@H]3C[C@@H]3C2)[nH+]c1

>  <Energy>  (24) 
362.04795806169165

>  <Genealogy>  (24) 
[NH-]C(=O)c1cc2ccc(C(F)(F)F)cc2n1C(=O)c1ccc(OC2CC3CC3C2)[nH+]c1 (protonated)
[NH-]C(=O)c1cc2ccc(C(F)(F)F)cc2n1C(=O)c1ccc(OC2C[C@@H]3C[C@@H]3C2)[nH+]c1 (chirality)
[NH-]C(=O)c1cc2ccc(C(F)(F)F)cc2n1C(=O)c1ccc(OC2C[C@@H]3C[C@@H]3C2)[nH+]c1 (3D coordinates assigned)
[NH-]C(=O)c1cc2ccc(C(F)(F)F)cc2n1C(=O)c1ccc(OC2C[C@@H]3C[C@@H]3C2)[nH+]c1 (nonaromatic ring conformer: 362.04795806169165 kcal/mol)

>  <smiles>  (24) 
NC(=O)c1cc2ccc(C(F)(F)F)cc2n1C(=O)c1ccc(OC2CC3CC3C2)nc1

>  <score_type>  (24) 
oracle

>  <origin>  (24) 
adg

>  <m_score__min__energy>  (24) 
-8.9900000000000002

>  <m_primary>  (24) 
energy

$$$$
24:0
     RDKit          3D

 47 48  0  0  0  0  0  0  0  0999 V2000
  147.9920  154.9960  133.2400 C   0  0  0  0  0  0  0  0  0  0  0  0
  147.4240  156.3820  133.3110 C   0  0  0  0  0  0  0  0  0  0  0  0
  148.2840  157.4890  133.5200 C   0  0  0  0  0  0  0  0  0  0  0  0
  147.7620  158.7880  133.6330 C   0  0  0  0  0  0  0  0  0  0  0  0
  146.3820  158.9480  133.5410 C   0  0  0  0  0  0  0  0  0  0  0  0
  145.6120  160.0840  133.6420 C   0  0  0  0  0  0  0  0  0  0  0  0
  144.2960  159.6550  133.4840 C   0  0  0  0  0  0  0  0  0  0  0  0
  143.1400  160.5740  133.4290 C   0  0  0  0  0  0  0  0  0  0  0  0
  141.8560  160.1120  133.0220 N   0  0  0  0  0  0  0  0  0  0  0  0
  143.3000  161.7950  133.6990 O   0  0  0  0  0  0  0  0  0  0  0  0
  144.2530  158.3040  133.3060 N   0  0  0  0  0  0  0  0  0  0  0  0
  143.0910  157.4710  133.1860 C   0  0  0  0  0  0  0  0  0  0  0  0
  142.4250  157.4710  132.1160 O   0  0  0  0  0  0  0  0  0  0  0  0
  142.6860  156.6850  134.2700 O   0  0  0  0  0  0  0  0  0  0  0  0
  142.5080  157.1910  135.5910 C   0  0  0  0  0  0  0  0  0  0  0  0
  141.1940  156.6830  136.1890 C   0  0  0  0  0  0  0  0  0  0  0  0
  140.0740  157.0950  135.4060 O   0  0  0  0  0  0  0  0  0  0  0  0
  140.0980  158.2100  134.5580 C   0  0  0  0  0  0  0  0  0  0  0  0
  140.2630  159.3680  135.0390 O   0  0  0  0  0  0  0  0  0  0  0  0
  139.9240  158.0250  133.1370 N   0  0  1  0  0  0  0  0  0  0  0  0
  139.6050  156.6230  132.8100 C   0  0  0  0  0  0  0  0  0  0  0  0
  138.9630  158.9870  132.5420 C   0  0  0  0  0  0  0  0  0  0  0  0
  139.4500  159.7060  131.2690 C   0  0  0  0  0  0  0  0  0  0  0  0
  140.4960  158.9890  130.6740 O   0  0  0  0  0  0  0  0  0  0  0  0
  145.5370  157.8870  133.3380 C   0  0  0  0  0  0  0  0  0  0  0  0
  146.0280  156.5800  133.2390 C   0  0  0  0  0  0  0  0  0  0  0  0
  148.1495  154.6117  134.2586 H   0  0  0  0  0  0  0  0  0  0  0  0
  147.2905  154.3392  132.7047 H   0  0  0  0  0  0  0  0  0  0  0  0
  148.9526  155.0204  132.7047 H   0  0  0  0  0  0  0  0  0  0  0  0
  149.3698  157.3294  133.5944 H   0  0  0  0  0  0  0  0  0  0  0  0
  148.4235  159.6528  133.7894 H   0  0  0  0  0  0  0  0  0  0  0  0
  145.9616  161.1131  133.8116 H   0  0  0  0  0  0  0  0  0  0  0  0
  141.7550  159.2840  132.3940 H   0  0  0  0  0  0  0  0  0  0  0  0
  143.3452  156.8576  136.2218 H   0  0  0  0  0  0  0  0  0  0  0  0
  142.4776  158.2898  135.5492 H   0  0  0  0  0  0  0  0  0  0  0  0
  141.2192  155.5840  136.2277 H   0  0  0  0  0  0  0  0  0  0  0  0
  141.0859  157.1057  137.1987 H   0  0  0  0  0  0  0  0  0  0  0  0
  140.8510  158.2210  132.6900 H   0  0  0  0  0  0  0  0  0  0  0  0
  139.4746  156.0501  133.7400 H   0  0  0  0  0  0  0  0  0  0  0  0
  138.6754  156.5858  132.2231 H   0  0  0  0  0  0  0  0  0  0  0  0
  140.4269  156.1872  132.2231 H   0  0  0  0  0  0  0  0  0  0  0  0
  138.0440  158.4371  132.2907 H   0  0  0  0  0  0  0  0  0  0  0  0
  138.8152  159.7736  133.2966 H   0  0  0  0  0  0  0  0  0  0  0  0
  138.6155  159.7878  130.5570 H   0  0  0  0  0  0  0  0  0  0  0  0
  139.8134  160.7078  131.5415 H   0  0  0  0  0  0  0  0  0  0  0  0
  141.2930  159.1300  131.2500 H   0  0  0  0  0  0  0  0  0  0  0  0
  145.3436  155.7288  133.1084 H   0  0  0  0  0  0  0  0  0  0  0  0
  1  2  1  0
  2  3  2  0
  3  4  1  0
  4  5  2  0
  5  6  1  0
  6  7  2  0
  7  8  1  0
  8  9  1  0
  8 10  2  0
  7 11  1  0
 11 12  1  0
 12 13  2  0
 12 14  1  0
 14 15  1  0
 15 16  1  0
 16 17  1  0
 17 18  1  0
 18 19  2  0
 18 20  1  0
 20 21  1  0
 20 22  1  0
 22 23  1  0
 23 24  1  0
 11 25  1  0
 25 26  2  0
 26  2  1  0
 25  5  1  0
  1 27  1  0
  1 28  1  0
  1 29  1  0
  3 30  1  0
  4 31  1  0
  6 32  1  0
  9 33  1  0
 15 34  1  0
 15 35  1  0
 16 36  1  0
 16 37  1  0
 20 38  1  6
 21 39  1  0
 21 40  1  0
 21 41  1  0
 22 42  1  0
 22 43  1  0
 23 44  1  0
 23 45  1  0
 24 46  1  0
 26 47  1  0
M  CHG  2   9  -1  20   1
M  END
>  <UniqueID>  (25) 
25

>  <SMILES>  (25) 
Cc1ccc2cc(C([NH-])=O)n(C(=O)OCCOC(=O)[N@@H+](C)CCO)c2c1

>  <Energy>  (25) 
83.92203290549068

>  <Genealogy>  (25) 
Cc1ccc2cc(C([NH-])=O)n(C(=O)OCCOC(=O)[NH+](C)CCO)c2c1 (protonated)
Cc1ccc2cc(C([NH-])=O)n(C(=O)OCCOC(=O)[N@@H+](C)CCO)c2c1 (chirality)
Cc1ccc2cc(C([NH-])=O)n(C(=O)OCCOC(=O)[N@@H+](C)CCO)c2c1 (3D coordinates assigned)
Cc1ccc2cc(C([NH-])=O)n(C(=O)OCCOC(=O)[N@@H+](C)CCO)c2c1 (optimized conformer: 83.92203290549068 kcal/mol)

>  <smiles>  (25) 
Cc1ccc2cc(C(N)=O)n(C(=O)OCCOC(=O)N(C)CCO)c2c1

>  <score_type>  (25) 
oracle

>  <origin>  (25) 
adg

>  <m_score__min__energy>  (25) 
-4.6399999999999997

>  <m_primary>  (25) 
energy

$$$$
25:0
     RDKit          3D

 42 44  0  0  0  0  0  0  0  0999 V2000
  141.9720  158.3970  138.4070 N   0  0  0  0  0  0  0  0  0  0  0  0
  141.1500  158.6110  137.2630 C   0  0  0  0  0  0  0  0  0  0  0  0
  140.6220  159.7410  137.0860 O   0  0  0  0  0  0  0  0  0  0  0  0
  140.9450  157.5430  136.2620 C   0  0  0  0  0  0  0  0  0  0  0  0
  140.1680  157.6970  135.1140 C   0  0  0  0  0  0  0  0  0  0  0  0
  140.2790  156.5040  134.4360 C   0  0  0  0  0  0  0  0  0  0  0  0
  139.6890  156.0910  133.2460 C   0  0  0  0  0  0  0  0  0  0  0  0
  139.9410  154.7800  132.8050 C   0  0  0  0  0  0  0  0  0  0  0  0
  140.7650  153.9040  133.5610 C   0  0  0  0  0  0  0  0  0  0  0  0
  141.0000  152.5120  133.1040 C   0  0  0  0  0  0  0  0  0  0  0  0
  142.2850  151.9400  133.1810 C   0  0  0  0  0  0  0  0  0  0  0  0
  142.5030  150.6280  132.7520 C   0  0  0  0  0  0  0  0  0  0  0  0
  141.4430  149.8690  132.2380 C   0  0  0  0  0  0  0  0  0  0  0  0
  141.6490  148.5600  131.8080 O   0  0  0  0  0  0  0  0  0  0  0  0
  140.1660  150.4290  132.1560 C   0  0  0  0  0  0  0  0  0  0  0  0
  139.9440  151.7410  132.5850 C   0  0  0  0  0  0  0  0  0  0  0  0
  141.3490  154.3660  134.7630 C   0  0  0  0  0  0  0  0  0  0  0  0
  141.0940  155.6820  135.1660 C   0  0  0  0  0  0  0  0  0  0  0  0
  141.5150  156.3050  136.2860 N   0  0  0  0  0  0  0  0  0  0  0  0
  142.2980  155.7170  137.3320 C   0  0  0  0  0  0  0  0  0  0  0  0
  143.4350  155.2380  137.0680 O   0  0  0  0  0  0  0  0  0  0  0  0
  141.7720  155.6260  138.6260 O   0  0  0  0  0  0  0  0  0  0  0  0
  141.5790  154.3860  139.3030 C   0  0  0  0  0  0  0  0  0  0  0  0
  140.1980  153.8620  139.0580 C   0  0  0  0  0  0  0  0  0  0  0  0
  139.2020  154.6060  139.2710 O   0  0  0  0  0  0  0  0  0  0  0  0
  140.0300  152.5650  138.5670 O   0  0  0  0  0  0  0  0  0  0  0  0
  141.2880  151.7130  137.7630 P   0  0  0  0  0  0  0  0  0  0  0  0
  142.2470  152.7000  137.1350 O   0  0  0  0  0  0  0  0  0  0  0  0
  142.1210  150.7460  138.8730 O   0  0  0  0  0  0  0  0  0  0  0  0
  140.6210  150.7360  136.5560 O   0  0  0  0  0  0  0  0  0  0  0  0
  142.6380  157.5940  138.4470 H   0  0  0  0  0  0  0  0  0  0  0  0
  139.5895  158.5832  134.8141 H   0  0  0  0  0  0  0  0  0  0  0  0
  139.0448  156.7695  132.6675 H   0  0  0  0  0  0  0  0  0  0  0  0
  139.4947  154.4284  131.8631 H   0  0  0  0  0  0  0  0  0  0  0  0
  143.1225  152.5301  133.5815 H   0  0  0  0  0  0  0  0  0  0  0  0
  143.5097  150.1897  132.8180 H   0  0  0  0  0  0  0  0  0  0  0  0
  142.5300  148.0840  131.9650 H   0  0  0  0  0  0  0  0  0  0  0  0
  139.3322  149.8357  131.7525 H   0  0  0  0  0  0  0  0  0  0  0  0
  138.9352  152.1740  132.5161 H   0  0  0  0  0  0  0  0  0  0  0  0
  141.9890  153.7064  135.3675 H   0  0  0  0  0  0  0  0  0  0  0  0
  142.3138  153.6548  138.9349 H   0  0  0  0  0  0  0  0  0  0  0  0
  141.7111  154.5470  140.3831 H   0  0  0  0  0  0  0  0  0  0  0  0
  1  2  1  0
  2  3  2  0
  2  4  1  0
  4  5  2  0
  5  6  1  0
  6  7  2  0
  7  8  1  0
  8  9  2  0
  9 10  1  0
 10 11  2  0
 11 12  1  0
 12 13  2  0
 13 14  1  0
 13 15  1  0
 15 16  2  0
  9 17  1  0
 17 18  2  0
 18 19  1  0
 19 20  1  0
 20 21  2  0
 20 22  1  0
 22 23  1  0
 23 24  1  0
 24 25  2  0
 24 26  1  0
 26 27  1  0
 27 28  2  0
 27 29  1  0
 27 30  1  0
 19  4  1  0
 18  6  1  0
 16 10  1  0
  1 31  1  0
  5 32  1  0
  7 33  1  0
  8 34  1  0
 11 35  1  0
 12 36  1  0
 14 37  1  0
 15 38  1  0
 16 39  1  0
 17 40  1  0
 23 41  1  0
 23 42  1  0
M  CHG  3   1  -1  29  -1  30  -1
M  END
>  <UniqueID>  (26) 
26

>  <SMILES>  (26) 
[NH-]C(=O)c1cc2ccc(-c3ccc(O)cc3)cc2n1C(=O)OCC(=O)OP(=O)([O-])[O-]

>  <Energy>  (26) 
82.3711047934155

>  <Genealogy>  (26) 
[NH-]C(=O)c1cc2ccc(-c3ccc(O)cc3)cc2n1C(=O)OCC(=O)OP(=O)([O-])[O-] (protonated)
[NH-]C(=O)c1cc2ccc(-c3ccc(O)cc3)cc2n1C(=O)OCC(=O)OP(=O)([O-])[O-] (3D coordinates assigned)
[NH-]C(=O)c1cc2ccc(-c3ccc(O)cc3)cc2n1C(=O)OCC(=O)OP(=O)([O-])[O-] (optimized conformer: 82.3711047934155 kcal/mol)

>  <smiles>  (26) 
NC(=O)c1cc2ccc(-c3ccc(O)cc3)cc2n1C(=O)OCC(=O)OP(=O)(O)O

>  <score_type>  (26) 
oracle

>  <origin>  (26) 
adg

>  <m_score__min__energy>  (26) 
-8.25

>  <m_primary>  (26) 
energy

$$$$
26:0
     RDKit          3D

 37 39  0  0  0  0  0  0  0  0999 V2000
  148.4630  156.8000  133.2400 C   0  0  0  0  0  0  0  0  0  0  0  0
  147.4490  157.9040  133.2620 C   0  0  0  0  0  0  0  0  0  0  0  0
  147.8800  159.2530  133.2940 C   0  0  0  0  0  0  0  0  0  0  0  0
  146.9430  160.3000  133.3560 C   0  0  0  0  0  0  0  0  0  0  0  0
  145.5860  159.9710  133.3850 C   0  0  0  0  0  0  0  0  0  0  0  0
  144.4800  160.7880  133.4720 C   0  0  0  0  0  0  0  0  0  0  0  0
  143.3850  159.9280  133.4680 C   0  0  0  0  0  0  0  0  0  0  0  0
  141.9890  160.4010  133.4640 C   0  0  0  0  0  0  0  0  0  0  0  0
  140.9310  159.5260  133.0800 N   0  0  0  0  0  0  0  0  0  0  0  0
  141.7320  161.6080  133.7360 O   0  0  0  0  0  0  0  0  0  0  0  0
  143.7910  158.6270  133.3980 N   0  0  0  0  0  0  0  0  0  0  0  0
  142.9590  157.4540  133.4900 C   0  0  0  0  0  0  0  0  0  0  0  0
  142.0710  157.2350  132.6170 O   0  0  0  0  0  0  0  0  0  0  0  0
  143.1330  156.5640  134.5560 O   0  0  0  0  0  0  0  0  0  0  0  0
  142.3100  156.5590  135.7180 C   0  0  0  0  0  0  0  0  0  0  0  0
  140.9980  157.1940  135.3800 C   0  0  0  0  0  0  0  0  0  0  0  0
  140.1640  156.7460  134.4650 O   0  0  0  0  0  0  0  0  0  0  0  0
  139.1580  157.5930  134.4500 C   0  0  0  0  0  0  0  0  0  0  0  0
  138.1630  157.4840  133.6830 O   0  0  0  0  0  0  0  0  0  0  0  0
  139.3060  158.5700  135.3190 O   0  0  0  0  0  0  0  0  0  0  0  0
  140.4550  158.3480  135.9190 C   0  0  0  0  0  0  0  0  0  0  0  0
  141.0420  159.2130  136.9870 C   0  0  0  0  0  0  0  0  0  0  0  0
  145.1470  158.6710  133.3470 C   0  0  0  0  0  0  0  0  0  0  0  0
  146.0660  157.6050  133.3120 C   0  0  0  0  0  0  0  0  0  0  0  0
  148.7213  156.5188  134.2716 H   0  0  0  0  0  0  0  0  0  0  0  0
  148.0444  155.9280  132.7161 H   0  0  0  0  0  0  0  0  0  0  0  0
  149.3673  157.1431  132.7161 H   0  0  0  0  0  0  0  0  0  0  0  0
  148.9554  159.4833  133.2702 H   0  0  0  0  0  0  0  0  0  0  0  0
  147.2702  161.3499  133.3810 H   0  0  0  0  0  0  0  0  0  0  0  0
  144.4652  161.8863  133.5319 H   0  0  0  0  0  0  0  0  0  0  0  0
  140.7370  158.6550  133.6180 H   0  0  0  0  0  0  0  0  0  0  0  0
  142.1452  155.5234  136.0503 H   0  0  0  0  0  0  0  0  0  0  0  0
  142.8005  157.1204  136.5268 H   0  0  0  0  0  0  0  0  0  0  0  0
  140.7699  158.8120  137.9745 H   0  0  0  0  0  0  0  0  0  0  0  0
  142.1373  159.2275  136.8863 H   0  0  0  0  0  0  0  0  0  0  0  0
  140.6509  160.2362  136.8863 H   0  0  0  0  0  0  0  0  0  0  0  0
  145.7169  156.5619  133.3233 H   0  0  0  0  0  0  0  0  0  0  0  0
  1  2  1  0
  2  3  2  0
  3  4  1  0
  4  5  2  0
  5  6  1  0
  6  7  2  0
  7  8  1  0
  8  9  1  0
  8 10  2  0
  7 11  1  0
 11 12  1  0
 12 13  2  0
 12 14  1  0
 14 15  1  0
 15 16  1  0
 16 17  1  0
 17 18  1  0
 18 19  2  0
 18 20  1  0
 20 21  1  0
 21 22  1  0
 11 23  1  0
 23 24  2  0
 24  2  1  0
 23  5  1  0
 21 16  2  0
  1 25  1  0
  1 26  1  0
  1 27  1  0
  3 28  1  0
  4 29  1  0
  6 30  1  0
  9 31  1  0
 15 32  1  0
 15 33  1  0
 22 34  1  0
 22 35  1  0
 22 36  1  0
 24 37  1  0
M  CHG  1   9  -1
M  END
>  <UniqueID>  (27) 
27

>  <SMILES>  (27) 
Cc1ccc2cc(C([NH-])=O)n(C(=O)OCc3oc(=O)oc3C)c2c1

>  <Energy>  (27) 
107.54964175738974

>  <Genealogy>  (27) 
Cc1ccc2cc(C([NH-])=O)n(C(=O)OCc3oc(=O)oc3C)c2c1 (protonated)
Cc1ccc2cc(C([NH-])=O)n(C(=O)OCc3oc(=O)oc3C)c2c1 (3D coordinates assigned)
Cc1ccc2cc(C([NH-])=O)n(C(=O)OCc3oc(=O)oc3C)c2c1 (optimized conformer: 107.54964175738974 kcal/mol)

>  <smiles>  (27) 
Cc1ccc2cc(C(N)=O)n(C(=O)OCc3oc(=O)oc3C)c2c1

>  <score_type>  (27) 
oracle

>  <origin>  (27) 
adg

>  <m_score__min__energy>  (27) 
-6.6200000000000001

>  <m_primary>  (27) 
energy

$$$$
27:0
     RDKit          3D

 60 64  0  0  0  0  0  0  0  0999 V2000
  144.5070  153.9590  135.1680 N   0  0  0  0  0  0  0  0  0  0  0  0
  144.1070  153.8680  133.8030 C   0  0  0  0  0  0  0  0  0  0  0  0
  144.5060  154.7400  132.9860 O   0  0  0  0  0  0  0  0  0  0  0  0
  143.2410  152.7550  133.3640 C   0  0  0  0  0  0  0  0  0  0  0  0
  143.7270  151.5060  132.9750 C   0  0  0  0  0  0  0  0  0  0  0  0
  142.6180  150.7840  132.5950 C   0  0  0  0  0  0  0  0  0  0  0  0
  142.5140  149.4800  132.1200 C   0  0  0  0  0  0  0  0  0  0  0  0
  141.2340  148.9980  131.7950 C   0  0  0  0  0  0  0  0  0  0  0  0
  140.0930  149.8270  131.9350 C   0  0  0  0  0  0  0  0  0  0  0  0
  138.7260  149.2950  131.6070 C   0  0  0  0  0  0  0  0  0  0  0  0
  138.7970  148.3830  130.4260 C   0  0  0  0  0  0  0  0  0  0  0  0
  138.9750  147.1490  130.5920 O   0  0  0  0  0  0  0  0  0  0  0  0
  138.6550  148.8920  129.1400 O   0  0  0  0  0  0  0  0  0  0  0  0
  140.2380  151.1430  132.4260 C   0  0  0  0  0  0  0  0  0  0  0  0
  141.5210  151.5900  132.7540 C   0  0  0  0  0  0  0  0  0  0  0  0
  141.8820  152.7900  133.2540 N   0  0  0  0  0  0  0  0  0  0  0  0
  140.9960  153.8870  133.5220 C   0  0  0  0  0  0  0  0  0  0  0  0
  140.0360  154.0920  132.7240 O   0  0  0  0  0  0  0  0  0  0  0  0
  141.2050  154.7920  134.6340 N   0  0  0  0  0  0  0  0  0  0  0  0
  141.7420  154.1810  135.8190 C   0  0  0  0  0  0  0  0  0  0  0  0
  141.7820  152.9250  135.9120 O   0  0  0  0  0  0  0  0  0  0  0  0
  142.1810  154.9890  136.8730 O   0  0  0  0  0  0  0  0  0  0  0  0
  141.8750  154.7090  138.2330 C   0  0  0  0  0  0  0  0  0  0  0  0
  140.6720  155.4940  138.6400 C   0  0  0  0  0  0  0  0  0  0  0  0
  140.6470  156.7430  138.4660 O   0  0  0  0  0  0  0  0  0  0  0  0
  139.5870  154.8610  139.2360 O   0  0  0  0  0  0  0  0  0  0  0  0
  141.2270  156.2790  134.4760 C   0  0  2  0  0  0  0  0  0  0  0  0
  142.6530  156.8280  134.7670 C   0  0  0  0  0  0  0  0  0  0  0  0
  142.6880  158.3650  134.6040 C   0  0  1  0  0  0  0  0  0  0  0  0
  142.2800  158.7410  133.1620 C   0  0  0  0  0  0  0  0  0  0  0  0
  140.8480  158.2350  132.8810 C   0  0  2  0  0  0  0  0  0  0  0  0
  139.8660  158.8830  133.8750 C   0  0  0  0  0  0  0  0  0  0  0  0
  140.2740  158.5070  135.3130 C   0  0  2  0  0  0  0  0  0  0  0  0
  141.7040  159.0140  135.5980 C   0  0  0  0  0  0  0  0  0  0  0  0
  140.2350  156.9750  135.4710 C   0  0  0  0  0  0  0  0  0  0  0  0
  140.8120  156.7000  133.0350 C   0  0  0  0  0  0  0  0  0  0  0  0
  143.8120  153.8480  135.9390 H   0  0  0  0  0  0  0  0  0  0  0  0
  144.7743  151.1696  132.9725 H   0  0  0  0  0  0  0  0  0  0  0  0
  143.4054  148.8463  132.0025 H   0  0  0  0  0  0  0  0  0  0  0  0
  141.1169  147.9675  131.4285 H   0  0  0  0  0  0  0  0  0  0  0  0
  138.3351  148.7394  132.4722 H   0  0  0  0  0  0  0  0  0  0  0  0
  138.0602  150.1379  131.3700 H   0  0  0  0  0  0  0  0  0  0  0  0
  139.3637  151.7995  132.5472 H   0  0  0  0  0  0  0  0  0  0  0  0
  141.6694  153.6347  138.3497 H   0  0  0  0  0  0  0  0  0  0  0  0
  142.7290  154.9879  138.8677 H   0  0  0  0  0  0  0  0  0  0  0  0
  142.9376  156.5671  135.7970 H   0  0  0  0  0  0  0  0  0  0  0  0
  143.3585  156.3794  134.0521 H   0  0  0  0  0  0  0  0  0  0  0  0
  143.7065  158.7283  134.8058 H   0  0  0  0  0  0  0  0  0  0  0  0
  142.3115  159.8344  133.0458 H   0  0  0  0  0  0  0  0  0  0  0  0
  142.9784  158.2753  132.4512 H   0  0  0  0  0  0  0  0  0  0  0  0
  140.5539  158.5073  131.8566 H   0  0  0  0  0  0  0  0  0  0  0  0
  139.8941  159.9765  133.7592 H   0  0  0  0  0  0  0  0  0  0  0  0
  138.8467  158.5211  133.6747 H   0  0  0  0  0  0  0  0  0  0  0  0
  139.5741  158.9712  136.0234 H   0  0  0  0  0  0  0  0  0  0  0  0
  141.7348  160.1076  135.4831 H   0  0  0  0  0  0  0  0  0  0  0  0
  141.9902  158.7446  136.6254 H   0  0  0  0  0  0  0  0  0  0  0  0
  140.5169  156.7129  136.5014 H   0  0  0  0  0  0  0  0  0  0  0  0
  139.2156  156.6269  135.2484 H   0  0  0  0  0  0  0  0  0  0  0  0
  139.7917  156.3412  132.8342 H   0  0  0  0  0  0  0  0  0  0  0  0
  141.5212  156.2571  132.3202 H   0  0  0  0  0  0  0  0  0  0  0  0
  1  2  1  0
  2  3  2  0
  2  4  1  0
  4  5  2  0
  5  6  1  0
  6  7  2  0
  7  8  1  0
  8  9  2  0
  9 10  1  0
 10 11  1  0
 11 12  2  0
 11 13  1  0
  9 14  1  0
 14 15  2  0
 15 16  1  0
 16 17  1  0
 17 18  2  0
 17 19  1  0
 19 20  1  0
 20 21  2  0
 20 22  1  0
 22 23  1  0
 23 24  1  0
 24 25  2  0
 24 26  1  0
 27 19  1  6
 27 28  1  0
 28 29  1  0
 29 30  1  0
 30 31  1  0
 31 32  1  0
 32 33  1  0
 33 34  1  0
 33 35  1  0
 31 36  1  0
 16  4  1  0
 35 27  1  0
 15  6  1  0
 36 27  1  0
 34 29  1  0
  1 37  1  0
  5 38  1  0
  7 39  1  0
  8 40  1  0
 10 41  1  0
 10 42  1  0
 14 43  1  0
 23 44  1  0
 23 45  1  0
 28 46  1  0
 28 47  1  0
 29 48  1  1
 30 49  1  0
 30 50  1  0
 31 51  1  6
 32 52  1  0
 32 53  1  0
 33 54  1  1
 34 55  1  0
 34 56  1  0
 35 57  1  0
 35 58  1  0
 36 59  1  0
 36 60  1  0
M  CHG  3   1  -1  13  -1  26  -1
M  END
>  <UniqueID>  (28) 
28

>  <SMILES>  (28) 
[NH-]C(=O)c1cc2ccc(CC(=O)[O-])cc2n1C(=O)N(C(=O)OCC(=O)[O-])C12CC3CC(CC(C3)C1)C2

>  <Energy>  (28) 
111.13801330544713

>  <Genealogy>  (28) 
[NH-]C(=O)c1cc2ccc(CC(=O)[O-])cc2n1C(=O)N(C(=O)OCC(=O)[O-])C12CC3CC(CC(C3)C1)C2 (protonated)
[NH-]C(=O)c1cc2ccc(CC(=O)[O-])cc2n1C(=O)N(C(=O)OCC(=O)[O-])C12CC3CC(CC(C3)C1)C2 (3D coordinates assigned)
[NH-]C(=O)c1cc2ccc(CC(=O)[O-])cc2n1C(=O)N(C(=O)OCC(=O)[O-])C12CC3CC(CC(C3)C1)C2 (nonaromatic ring conformer: 111.13801330544713 kcal/mol)

>  <smiles>  (28) 
NC(=O)c1cc2ccc(CC(=O)O)cc2n1C(=O)N(C(=O)OCC(=O)O)C12CC3CC(CC(C3)C1)C2

>  <score_type>  (28) 
oracle

>  <origin>  (28) 
adg

>  <m_score__min__energy>  (28) 
-10.49

>  <m_primary>  (28) 
energy

$$$$
28:0
     RDKit          3D

 35 37  0  0  0  0  0  0  0  0999 V2000
  149.8050  151.8540  132.2660 C   0  0  0  0  0  0  0  0  0  0  0  0
  148.9010  152.8900  132.7480 N   0  0  0  0  0  0  0  0  0  0  0  0
  149.0570  154.2170  132.5830 C   0  0  0  0  0  0  0  0  0  0  0  0
  147.9440  154.8560  133.1120 C   0  0  0  0  0  0  0  0  0  0  0  0
  147.6720  156.3160  133.1550 C   0  0  0  0  0  0  0  0  0  0  0  0
  148.7180  157.2530  132.9360 C   0  0  0  0  0  0  0  0  0  0  0  0
  148.4720  158.6350  132.9830 C   0  0  0  0  0  0  0  0  0  0  0  0
  147.1750  159.0590  133.2470 C   0  0  0  0  0  0  0  0  0  0  0  0
  146.6610  160.3310  133.3650 C   0  0  0  0  0  0  0  0  0  0  0  0
  145.3050  160.1570  133.6430 C   0  0  0  0  0  0  0  0  0  0  0  0
  144.3430  161.2700  133.7770 C   0  0  0  0  0  0  0  0  0  0  0  0
  142.9440  161.0190  133.6560 N   0  0  0  0  0  0  0  0  0  0  0  0
  144.7410  162.4390  134.0210 O   0  0  0  0  0  0  0  0  0  0  0  0
  145.0000  158.8310  133.7000 N   0  0  0  0  0  0  0  0  0  0  0  0
  143.7350  158.2280  134.0080 C   0  0  0  0  0  0  0  0  0  0  0  0
  143.1890  158.4560  135.1210 O   0  0  0  0  0  0  0  0  0  0  0  0
  143.0090  157.4170  132.9820 C   0  0  0  0  0  0  0  0  0  0  0  0
  143.1620  155.6890  133.3750 Cl  0  0  0  0  0  0  0  0  0  0  0  0
  146.1500  158.1730  133.4510 C   0  0  0  0  0  0  0  0  0  0  0  0
  146.3640  156.7920  133.4200 C   0  0  0  0  0  0  0  0  0  0  0  0
  147.1310  153.8300  133.5770 C   0  0  0  0  0  0  0  0  0  0  0  0
  147.7390  152.6540  133.3330 N   0  0  0  0  0  0  0  0  0  0  0  0
  150.2581  151.3348  133.1234 H   0  0  0  0  0  0  0  0  0  0  0  0
  149.2430  151.1320  131.6554 H   0  0  0  0  0  0  0  0  0  0  0  0
  150.5964  152.3130  131.6554 H   0  0  0  0  0  0  0  0  0  0  0  0
  149.9189  154.7104  132.1100 H   0  0  0  0  0  0  0  0  0  0  0  0
  149.7352  156.8905  132.7266 H   0  0  0  0  0  0  0  0  0  0  0  0
  149.2819  159.3603  132.8158 H   0  0  0  0  0  0  0  0  0  0  0  0
  147.2041  161.2820  133.2620 H   0  0  0  0  0  0  0  0  0  0  0  0
  142.4770  160.2910  134.2390 H   0  0  0  0  0  0  0  0  0  0  0  0
  141.9458  157.6991  132.9768 H   0  0  0  0  0  0  0  0  0  0  0  0
  143.4437  157.6072  131.9896 H   0  0  0  0  0  0  0  0  0  0  0  0
  145.5355  156.0905  133.5974 H   0  0  0  0  0  0  0  0  0  0  0  0
  146.1528  153.9574  134.0638 H   0  0  0  0  0  0  0  0  0  0  0  0
  147.3590  151.7060  133.5520 H   0  0  0  0  0  0  0  0  0  0  0  0
  1  2  1  0
  2  3  1  0
  3  4  2  0
  4  5  1  0
  5  6  2  0
  6  7  1  0
  7  8  2  0
  8  9  1  0
  9 10  2  0
 10 11  1  0
 11 12  1  0
 11 13  2  0
 10 14  1  0
 14 15  1  0
 15 16  2  0
 15 17  1  0
 17 18  1  0
 14 19  1  0
 19 20  2  0
  4 21  1  0
 21 22  2  0
 22  2  1  0
 20  5  1  0
 19  8  1  0
  1 23  1  0
  1 24  1  0
  1 25  1  0
  3 26  1  0
  6 27  1  0
  7 28  1  0
  9 29  1  0
 12 30  1  0
 17 31  1  0
 17 32  1  0
 20 33  1  0
 21 34  1  0
 22 35  1  0
M  CHG  2  12  -1  22   1
M  END
>  <UniqueID>  (29) 
29

>  <SMILES>  (29) 
Cn1cc(-c2ccc3cc(C([NH-])=O)n(C(=O)CCl)c3c2)c[nH+]1

>  <Energy>  (29) 
107.10381405935338

>  <Genealogy>  (29) 
Cn1cc(-c2ccc3cc(C([NH-])=O)n(C(=O)CCl)c3c2)c[nH+]1 (protonated)
Cn1cc(-c2ccc3cc(C([NH-])=O)n(C(=O)CCl)c3c2)c[nH+]1 (3D coordinates assigned)
Cn1cc(-c2ccc3cc(C([NH-])=O)n(C(=O)CCl)c3c2)c[nH+]1 (optimized conformer: 107.10381405935338 kcal/mol)

>  <smiles>  (29) 
Cn1cc(-c2ccc3cc(C(N)=O)n(C(=O)CCl)c3c2)cn1

>  <score_type>  (29) 
oracle

>  <origin>  (29) 
adg

>  <m_score__min__energy>  (29) 
-7.1299999999999999

>  <m_primary>  (29) 
energy

$$$$
29:0
     RDKit          3D

 48 49  0  0  0  0  0  0  0  0999 V2000
  142.3610  150.0810  132.4540 C   0  0  0  0  0  0  0  0  0  0  0  0
  141.2860  150.8750  133.0870 N   0  0  0  0  0  0  0  0  0  0  0  0
  140.0920  150.8360  132.2140 C   0  0  0  0  0  0  0  0  0  0  0  0
  141.6940  152.2600  133.5150 C   0  0  0  0  0  0  0  0  0  0  0  0
  143.1000  152.6470  132.9810 C   0  0  0  0  0  0  0  0  0  0  0  0
  141.7340  152.3970  135.0640 C   0  0  0  0  0  0  0  0  0  0  0  0
  140.6630  153.3010  132.9850 C   0  0  0  0  0  0  0  0  0  0  0  0
  141.0290  154.6730  133.3410 N   0  0  0  0  0  0  0  0  0  0  0  0
  140.1450  155.7960  133.4250 C   0  0  0  0  0  0  0  0  0  0  0  0
  139.1130  155.8120  132.7020 O   0  0  0  0  0  0  0  0  0  0  0  0
  140.3840  156.8790  134.3360 N   0  0  0  0  0  0  0  0  0  0  0  0
  140.0550  158.1900  134.1690 C   0  0  0  0  0  0  0  0  0  0  0  0
  139.5150  158.7920  132.9320 C   0  0  0  0  0  0  0  0  0  0  0  0
  138.1830  158.4940  132.5200 N   0  0  0  0  0  0  0  0  0  0  0  0
  140.2110  159.5830  132.2420 O   0  0  0  0  0  0  0  0  0  0  0  0
  140.3430  158.9150  135.3240 C   0  0  0  0  0  0  0  0  0  0  0  0
  140.8420  157.9940  136.2170 C   0  0  0  0  0  0  0  0  0  0  0  0
  141.2520  158.1560  137.5380 C   0  0  0  0  0  0  0  0  0  0  0  0
  141.6720  157.0150  138.2420 C   0  0  0  0  0  0  0  0  0  0  0  0
  141.6690  155.7410  137.6190 C   0  0  0  0  0  0  0  0  0  0  0  0
  142.0730  154.5210  138.3960 C   0  0  0  0  0  0  0  0  0  0  0  0
  140.6140  153.7500  139.1590 P   0  0  0  0  0  0  0  0  0  0  0  0
  139.4200  154.6600  138.9920 O   0  0  0  0  0  0  0  0  0  0  0  0
  140.2980  152.2670  138.4110 O   0  0  0  0  0  0  0  0  0  0  0  0
  140.9000  153.4980  140.8080 O   0  0  0  0  0  0  0  0  0  0  0  0
  141.2310  155.6140  136.2830 C   0  0  0  0  0  0  0  0  0  0  0  0
  140.8450  156.7710  135.5990 C   0  0  0  0  0  0  0  0  0  0  0  0
  142.9846  149.6204  133.2343 H   0  0  0  0  0  0  0  0  0  0  0  0
  141.9154  149.2935  131.8284 H   0  0  0  0  0  0  0  0  0  0  0  0
  142.9826  150.7384  131.8284 H   0  0  0  0  0  0  0  0  0  0  0  0
  139.1845  150.8064  132.8350 H   0  0  0  0  0  0  0  0  0  0  0  0
  140.0726  151.7340  131.5790 H   0  0  0  0  0  0  0  0  0  0  0  0
  140.1312  149.9387  131.5790 H   0  0  0  0  0  0  0  0  0  0  0  0
  143.7758  152.8330  133.8288 H   0  0  0  0  0  0  0  0  0  0  0  0
  143.4984  151.8251  132.3680 H   0  0  0  0  0  0  0  0  0  0  0  0
  143.0217  153.5570  132.3680 H   0  0  0  0  0  0  0  0  0  0  0  0
  141.4540  151.4380  135.5243 H   0  0  0  0  0  0  0  0  0  0  0  0
  142.7503  152.6733  135.3815 H   0  0  0  0  0  0  0  0  0  0  0  0
  141.0259  153.1766  135.3815 H   0  0  0  0  0  0  0  0  0  0  0  0
  140.6107  153.2214  131.8891 H   0  0  0  0  0  0  0  0  0  0  0  0
  139.6907  153.0797  133.4495 H   0  0  0  0  0  0  0  0  0  0  0  0
  137.8000  157.5250  132.6030 H   0  0  0  0  0  0  0  0  0  0  0  0
  140.2016  159.9936  135.4872 H   0  0  0  0  0  0  0  0  0  0  0  0
  141.2472  159.1469  138.0156 H   0  0  0  0  0  0  0  0  0  0  0  0
  142.0061  157.1107  139.2857 H   0  0  0  0  0  0  0  0  0  0  0  0
  142.5516  153.7999  137.7170 H   0  0  0  0  0  0  0  0  0  0  0  0
  142.7775  154.8168  139.1874 H   0  0  0  0  0  0  0  0  0  0  0  0
  141.1943  154.6301  135.7926 H   0  0  0  0  0  0  0  0  0  0  0  0
  1  2  1  0
  2  3  1  0
  2  4  1  0
  4  5  1  0
  4  6  1  0
  4  7  1  0
  7  8  1  0
  8  9  1  0
  9 10  2  0
  9 11  1  0
 11 12  1  0
 12 13  1  0
 13 14  1  0
 13 15  2  0
 12 16  2  0
 16 17  1  0
 17 18  2  0
 18 19  1  0
 19 20  2  0
 20 21  1  0
 21 22  1  0
 22 23  2  0
 22 24  1  0
 22 25  1  0
 20 26  1  0
 26 27  2  0
 27 11  1  0
 27 17  1  0
  1 28  1  0
  1 29  1  0
  1 30  1  0
  3 31  1  0
  3 32  1  0
  3 33  1  0
  5 34  1  0
  5 35  1  0
  5 36  1  0
  6 37  1  0
  6 38  1  0
  6 39  1  0
  7 40  1  0
  7 41  1  0
 14 42  1  0
 16 43  1  0
 18 44  1  0
 19 45  1  0
 21 46  1  0
 21 47  1  0
 26 48  1  0
M  CHG  4   8  -1  14  -1  24  -1  25  -1
M  END
>  <UniqueID>  (30) 
30

>  <SMILES>  (30) 
CN(C)C(C)(C)C[N-]C(=O)n1c(C([NH-])=O)cc2ccc(CP(=O)([O-])[O-])cc21

>  <Energy>  (30) 
86.80424348364156

>  <Genealogy>  (30) 
CN(C)C(C)(C)C[N-]C(=O)n1c(C([NH-])=O)cc2ccc(CP(=O)([O-])[O-])cc21 (protonated)
CN(C)C(C)(C)C[N-]C(=O)n1c(C([NH-])=O)cc2ccc(CP(=O)([O-])[O-])cc21 (3D coordinates assigned)
CN(C)C(C)(C)C[N-]C(=O)n1c(C([NH-])=O)cc2ccc(CP(=O)([O-])[O-])cc21 (optimized conformer: 86.80424348364156 kcal/mol)

>  <smiles>  (30) 
CN(C)C(C)(C)CNC(=O)n1c(C(N)=O)cc2ccc(CP(=O)(O)O)cc21

>  <score_type>  (30) 
oracle

>  <origin>  (30) 
adg

>  <m_score__min__energy>  (30) 
-7.9199999999999999

>  <m_primary>  (30) 
energy

$$$$
30:0
     RDKit          3D

 40 41  0  0  0  0  0  0  0  0999 V2000
  143.5290  156.0490  134.2600 C   0  0  0  0  0  0  0  0  0  0  0  0
  144.5170  155.1780  133.6210 N   0  0  0  0  0  0  0  0  0  0  0  0
  144.1090  154.3070  132.5070 C   0  0  0  0  0  0  0  0  0  0  0  0
  144.4460  152.8210  132.7640 C   0  0  2  0  0  0  0  0  0  0  0  0
  144.8150  152.6070  134.1010 O   0  0  0  0  0  0  0  0  0  0  0  0
  145.5480  152.2960  131.8320 C   0  0  0  0  0  0  0  0  0  0  0  0
  146.3920  151.4030  132.5080 O   0  0  0  0  0  0  0  0  0  0  0  0
  145.8600  155.1360  134.1440 C   0  0  0  0  0  0  0  0  0  0  0  0
  146.0950  154.5120  135.2150 O   0  0  0  0  0  0  0  0  0  0  0  0
  146.9230  155.8650  133.5050 N   0  0  0  0  0  0  0  0  0  0  0  0
  148.1300  155.3920  133.0860 C   0  0  0  0  0  0  0  0  0  0  0  0
  148.5550  153.9760  133.0970 C   0  0  0  0  0  0  0  0  0  0  0  0
  147.9840  153.0720  134.0390 N   0  0  0  0  0  0  0  0  0  0  0  0
  149.4200  153.5580  132.2860 O   0  0  0  0  0  0  0  0  0  0  0  0
  148.9180  156.4340  132.5970 C   0  0  0  0  0  0  0  0  0  0  0  0
  148.1560  157.5690  132.7480 C   0  0  0  0  0  0  0  0  0  0  0  0
  148.4690  158.9010  132.4890 C   0  0  0  0  0  0  0  0  0  0  0  0
  147.5120  159.8810  132.8130 C   0  0  0  0  0  0  0  0  0  0  0  0
  146.2660  159.5100  133.3790 C   0  0  0  0  0  0  0  0  0  0  0  0
  145.2560  160.5580  133.7360 C   0  0  0  0  0  0  0  0  0  0  0  0
  143.9810  160.0380  133.6050 F   0  0  0  0  0  0  0  0  0  0  0  0
  145.9980  158.1540  133.6590 C   0  0  0  0  0  0  0  0  0  0  0  0
  146.9590  157.1990  133.3020 C   0  0  0  0  0  0  0  0  0  0  0  0
  143.6211  155.9678  135.3531 H   0  0  0  0  0  0  0  0  0  0  0  0
  143.7057  157.0906  133.9535 H   0  0  0  0  0  0  0  0  0  0  0  0
  142.5178  155.7431  133.9535 H   0  0  0  0  0  0  0  0  0  0  0  0
  143.0225  154.4028  132.3639 H   0  0  0  0  0  0  0  0  0  0  0  0
  144.6642  154.6259  131.6126 H   0  0  0  0  0  0  0  0  0  0  0  0
  143.5265  152.2574  132.5475 H   0  0  0  0  0  0  0  0  0  0  0  0
  145.8050  152.6660  134.1350 H   0  0  0  0  0  0  0  0  0  0  0  0
  145.0828  151.7775  130.9807 H   0  0  0  0  0  0  0  0  0  0  0  0
  146.1475  153.1490  131.4814 H   0  0  0  0  0  0  0  0  0  0  0  0
  146.6280  151.8470  133.3630 H   0  0  0  0  0  0  0  0  0  0  0  0
  146.9590  152.8740  134.0360 H   0  0  0  0  0  0  0  0  0  0  0  0
  149.9332  156.3630  132.1794 H   0  0  0  0  0  0  0  0  0  0  0  0
  149.4358  159.1792  132.0442 H   0  0  0  0  0  0  0  0  0  0  0  0
  147.7323  160.9423  132.6258 H   0  0  0  0  0  0  0  0  0  0  0  0
  145.4148  160.8802  134.7757 H   0  0  0  0  0  0  0  0  0  0  0  0
  145.3699  161.4196  133.0617 H   0  0  0  0  0  0  0  0  0  0  0  0
  145.0582  157.8537  134.1454 H   0  0  0  0  0  0  0  0  0  0  0  0
  1  2  1  0
  2  3  1  0
  3  4  1  0
  4  5  1  0
  4  6  1  0
  6  7  1  0
  2  8  1  0
  8  9  2  0
  8 10  1  0
 10 11  1  0
 11 12  1  0
 12 13  1  0
 12 14  2  0
 11 15  2  0
 15 16  1  0
 16 17  2  0
 17 18  1  0
 18 19  2  0
 19 20  1  0
 20 21  1  0
 19 22  1  0
 22 23  2  0
 23 10  1  0
 23 16  1  0
  1 24  1  0
  1 25  1  0
  1 26  1  0
  3 27  1  0
  3 28  1  0
  4 29  1  6
  5 30  1  0
  6 31  1  0
  6 32  1  0
  7 33  1  0
 13 34  1  0
 15 35  1  0
 17 36  1  0
 18 37  1  0
 20 38  1  0
 20 39  1  0
 22 40  1  0
M  CHG  1  13  -1
M  END
>  <UniqueID>  (31) 
31

>  <SMILES>  (31) 
CN(C[C@H](O)CO)C(=O)n1c(C([NH-])=O)cc2ccc(CF)cc21

>  <Energy>  (31) 
74.37924098374002

>  <Genealogy>  (31) 
CN(CC(O)CO)C(=O)n1c(C([NH-])=O)cc2ccc(CF)cc21 (protonated)
CN(C[C@H](O)CO)C(=O)n1c(C([NH-])=O)cc2ccc(CF)cc21 (chirality)
CN(C[C@H](O)CO)C(=O)n1c(C([NH-])=O)cc2ccc(CF)cc21 (3D coordinates assigned)
CN(C[C@H](O)CO)C(=O)n1c(C([NH-])=O)cc2ccc(CF)cc21 (optimized conformer: 74.37924098374002 kcal/mol)

>  <smiles>  (31) 
CN(CC(O)CO)C(=O)n1c(C(N)=O)cc2ccc(CF)cc21

>  <score_type>  (31) 
oracle

>  <origin>  (31) 
adg

>  <m_score__min__energy>  (31) 
-5.2800000000000002

>  <m_primary>  (31) 
energy

$$$$
31:0
     RDKit          3D

 43 44  0  0  0  0  0  0  0  0999 V2000
  148.9480  157.3460  133.1100 N   0  0  0  0  0  0  0  0  0  0  0  0
  148.5060  158.6930  132.9230 C   0  0  0  0  0  0  0  0  0  0  0  0
  149.3430  159.5660  132.5730 O   0  0  0  0  0  0  0  0  0  0  0  0
  147.0920  159.0720  133.1520 C   0  0  0  0  0  0  0  0  0  0  0  0
  146.6380  160.3770  133.3560 C   0  0  0  0  0  0  0  0  0  0  0  0
  145.2710  160.2720  133.4880 C   0  0  0  0  0  0  0  0  0  0  0  0
  144.3130  161.2490  133.7360 C   0  0  0  0  0  0  0  0  0  0  0  0
  142.9720  160.8430  133.8530 C   0  0  0  0  0  0  0  0  0  0  0  0
  142.6100  159.4790  133.7050 C   0  0  0  0  0  0  0  0  0  0  0  0
  141.1750  159.0510  133.8830 C   0  0  0  0  0  0  0  0  0  0  0  0
  141.0460  157.6850  133.6950 F   0  0  0  0  0  0  0  0  0  0  0  0
  140.3570  159.6910  132.9680 F   0  0  0  0  0  0  0  0  0  0  0  0
  140.7590  159.3710  135.1620 F   0  0  0  0  0  0  0  0  0  0  0  0
  143.6160  158.5120  133.4780 C   0  0  0  0  0  0  0  0  0  0  0  0
  144.9390  158.9500  133.3620 C   0  0  0  0  0  0  0  0  0  0  0  0
  146.0420  158.2060  133.1550 N   0  0  0  0  0  0  0  0  0  0  0  0
  146.0830  156.7790  133.0470 C   0  0  0  0  0  0  0  0  0  0  0  0
  146.7000  156.2490  132.0830 O   0  0  0  0  0  0  0  0  0  0  0  0
  145.4070  155.9330  134.0930 C   0  0  0  0  0  0  0  0  0  0  0  0
  146.3990  155.1630  134.9810 C   0  0  0  0  0  0  0  0  0  0  0  0
  147.6680  154.9400  134.2730 N   0  0  0  0  0  0  0  0  0  0  0  0
  148.1140  153.5390  134.3630 C   0  0  0  0  0  0  0  0  0  0  0  0
  148.4510  152.9140  132.9910 C   0  0  0  0  0  0  0  0  0  0  0  0
  149.5980  153.6210  132.2520 C   0  0  0  0  0  0  0  0  0  0  0  0
  149.5580  155.0050  132.4740 O   0  0  0  0  0  0  0  0  0  0  0  0
  148.2830  156.5770  133.3380 H   0  0  0  0  0  0  0  0  0  0  0  0
  149.9590  157.1100  132.9930 H   0  0  0  0  0  0  0  0  0  0  0  0
  147.2437  161.2941  133.4016 H   0  0  0  0  0  0  0  0  0  0  0  0
  144.5957  162.3072  133.8375 H   0  0  0  0  0  0  0  0  0  0  0  0
  142.1939  161.5920  134.0618 H   0  0  0  0  0  0  0  0  0  0  0  0
  143.3649  157.4443  133.3949 H   0  0  0  0  0  0  0  0  0  0  0  0
  144.7994  156.5885  134.7342 H   0  0  0  0  0  0  0  0  0  0  0  0
  144.7932  155.1881  133.5654 H   0  0  0  0  0  0  0  0  0  0  0  0
  146.5928  155.7450  135.8941 H   0  0  0  0  0  0  0  0  0  0  0  0
  145.9606  154.1868  135.2355 H   0  0  0  0  0  0  0  0  0  0  0  0
  147.5770  155.2270  133.2730 H   0  0  0  0  0  0  0  0  0  0  0  0
  149.0135  153.4992  134.9949 H   0  0  0  0  0  0  0  0  0  0  0  0
  147.2815  152.9595  134.7886 H   0  0  0  0  0  0  0  0  0  0  0  0
  148.7359  151.8634  133.1491 H   0  0  0  0  0  0  0  0  0  0  0  0
  147.5538  153.0171  132.3630 H   0  0  0  0  0  0  0  0  0  0  0  0
  150.5582  153.2256  132.6149 H   0  0  0  0  0  0  0  0  0  0  0  0
  149.4890  153.4346  131.1734 H   0  0  0  0  0  0  0  0  0  0  0  0
  148.6180  155.2930  132.3330 H   0  0  0  0  0  0  0  0  0  0  0  0
  1  2  1  0
  2  3  2  0
  2  4  1  0
  4  5  2  0
  5  6  1  0
  6  7  2  0
  7  8  1  0
  8  9  2  0
  9 10  1  0
 10 11  1  0
 10 12  1  0
 10 13  1  0
  9 14  1  0
 14 15  2  0
 15 16  1  0
 16 17  1  0
 17 18  2  0
 17 19  1  0
 19 20  1  0
 20 21  1  0
 21 22  1  0
 22 23  1  0
 23 24  1  0
 24 25  1  0
 16  4  1  0
 15  6  1  0
  1 26  1  0
  1 27  1  0
  5 28  1  0
  7 29  1  0
  8 30  1  0
 14 31  1  0
 19 32  1  0
 19 33  1  0
 20 34  1  0
 20 35  1  0
 21 36  1  0
 22 37  1  0
 22 38  1  0
 23 39  1  0
 23 40  1  0
 24 41  1  0
 24 42  1  0
 25 43  1  0
M  END
>  <UniqueID>  (32) 
32

>  <SMILES>  (32) 
NC(=O)c1cc2ccc(C(F)(F)F)cc2n1C(=O)CCNCCCO

>  <Energy>  (32) 
81.9783452998525

>  <Genealogy>  (32) 
NC(=O)c1cc2ccc(C(F)(F)F)cc2n1C(=O)CCNCCCO (3D coordinates assigned)
NC(=O)c1cc2ccc(C(F)(F)F)cc2n1C(=O)CCNCCCO (optimized conformer: 81.9783452998525 kcal/mol)

>  <smiles>  (32) 
NC(=O)c1cc2ccc(C(F)(F)F)cc2n1C(=O)CCNCCCO

>  <score_type>  (32) 
oracle

>  <origin>  (32) 
adg

>  <m_score__min__energy>  (32) 
-6.29

>  <m_primary>  (32) 
energy

$$$$
32:0
     RDKit          3D

 42 43  0  0  0  0  0  0  0  0999 V2000
  148.2840  155.1810  132.6220 C   0  0  0  0  0  0  0  0  0  0  0  0
  147.8950  156.6130  132.8460 C   0  0  0  0  0  0  0  0  0  0  0  0
  148.8790  157.6310  132.8100 C   0  0  0  0  0  0  0  0  0  0  0  0
  148.5240  158.9750  133.0050 C   0  0  0  0  0  0  0  0  0  0  0  0
  147.1790  159.2720  133.2040 C   0  0  0  0  0  0  0  0  0  0  0  0
  146.5690  160.4820  133.4450 C   0  0  0  0  0  0  0  0  0  0  0  0
  145.2150  160.1910  133.5730 C   0  0  0  0  0  0  0  0  0  0  0  0
  144.1820  161.2230  133.7900 C   0  0  0  0  0  0  0  0  0  0  0  0
  142.8100  160.8670  133.9730 N   0  0  0  0  0  0  0  0  0  0  0  0
  144.5060  162.4400  133.7580 O   0  0  0  0  0  0  0  0  0  0  0  0
  144.9910  158.8540  133.4290 N   0  0  0  0  0  0  0  0  0  0  0  0
  143.7460  158.1580  133.6160 C   0  0  0  0  0  0  0  0  0  0  0  0
  143.1510  157.6480  132.6290 O   0  0  0  0  0  0  0  0  0  0  0  0
  143.1980  158.0540  134.8970 O   0  0  0  0  0  0  0  0  0  0  0  0
  142.4920  156.9020  135.3440 C   0  0  0  0  0  0  0  0  0  0  0  0
  141.0920  157.1580  135.3150 O   0  0  0  0  0  0  0  0  0  0  0  0
  140.5350  158.2800  134.6920 C   0  0  0  0  0  0  0  0  0  0  0  0
  140.8000  159.4370  135.1190 O   0  0  0  0  0  0  0  0  0  0  0  0
  139.6590  158.1120  133.5620 N   0  0  0  0  0  0  0  0  0  0  0  0
  138.3800  157.4160  133.7330 C   0  0  0  0  0  0  0  0  0  0  0  0
  140.0680  158.5830  132.2330 C   0  0  0  0  0  0  0  0  0  0  0  0
  139.9160  160.0690  132.1450 C   0  0  0  0  0  0  0  0  0  0  0  0
  140.5970  160.8210  132.8910 O   0  0  0  0  0  0  0  0  0  0  0  0
  139.0640  160.6250  131.1980 O   0  0  0  0  0  0  0  0  0  0  0  0
  146.2070  158.3040  133.2030 C   0  0  0  0  0  0  0  0  0  0  0  0
  146.5390  156.9520  133.0380 C   0  0  0  0  0  0  0  0  0  0  0  0
  148.4196  154.6817  133.5927 H   0  0  0  0  0  0  0  0  0  0  0  0
  147.4920  154.6704  132.0545 H   0  0  0  0  0  0  0  0  0  0  0  0
  149.2255  155.1413  132.0545 H   0  0  0  0  0  0  0  0  0  0  0  0
  149.9309  157.3661  132.6276 H   0  0  0  0  0  0  0  0  0  0  0  0
  149.2854  159.7689  133.0007 H   0  0  0  0  0  0  0  0  0  0  0  0
  147.0497  161.4685  133.5203 H   0  0  0  0  0  0  0  0  0  0  0  0
  142.4860  159.8830  133.8470 H   0  0  0  0  0  0  0  0  0  0  0  0
  142.0970  161.6080  134.1540 H   0  0  0  0  0  0  0  0  0  0  0  0
  142.7225  156.0526  134.6841 H   0  0  0  0  0  0  0  0  0  0  0  0
  142.7981  156.6628  136.3731 H   0  0  0  0  0  0  0  0  0  0  0  0
  138.1664  157.2998  134.8058 H   0  0  0  0  0  0  0  0  0  0  0  0
  137.5777  158.0019  133.2608 H   0  0  0  0  0  0  0  0  0  0  0  0
  138.4363  156.4241  133.2608 H   0  0  0  0  0  0  0  0  0  0  0  0
  141.1204  158.3140  132.0596 H   0  0  0  0  0  0  0  0  0  0  0  0
  139.4305  158.1101  131.4714 H   0  0  0  0  0  0  0  0  0  0  0  0
  145.7612  156.1744  133.0577 H   0  0  0  0  0  0  0  0  0  0  0  0
  1  2  1  0
  2  3  2  0
  3  4  1  0
  4  5  2  0
  5  6  1  0
  6  7  2  0
  7  8  1  0
  8  9  1  0
  8 10  2  0
  7 11  1  0
 11 12  1  0
 12 13  2  0
 12 14  1  0
 14 15  1  0
 15 16  1  0
 16 17  1  0
 17 18  2  0
 17 19  1  0
 19 20  1  0
 19 21  1  0
 21 22  1  0
 22 23  2  0
 22 24  1  0
 11 25  1  0
 25 26  2  0
 26  2  1  0
 25  5  1  0
  1 27  1  0
  1 28  1  0
  1 29  1  0
  3 30  1  0
  4 31  1  0
  6 32  1  0
  9 33  1  0
  9 34  1  0
 15 35  1  0
 15 36  1  0
 20 37  1  0
 20 38  1  0
 20 39  1  0
 21 40  1  0
 21 41  1  0
 26 42  1  0
M  CHG  1  24  -1
M  END
>  <UniqueID>  (33) 
33

>  <SMILES>  (33) 
Cc1ccc2cc(C(N)=O)n(C(=O)OCOC(=O)N(C)CC(=O)[O-])c2c1

>  <Energy>  (33) 
73.12428559073109

>  <Genealogy>  (33) 
Cc1ccc2cc(C(N)=O)n(C(=O)OCOC(=O)N(C)CC(=O)[O-])c2c1 (protonated)
Cc1ccc2cc(C(N)=O)n(C(=O)OCOC(=O)N(C)CC(=O)[O-])c2c1 (3D coordinates assigned)
Cc1ccc2cc(C(N)=O)n(C(=O)OCOC(=O)N(C)CC(=O)[O-])c2c1 (optimized conformer: 73.12428559073109 kcal/mol)

>  <smiles>  (33) 
Cc1ccc2cc(C(N)=O)n(C(=O)OCOC(=O)N(C)CC(=O)O)c2c1

>  <score_type>  (33) 
oracle

>  <origin>  (33) 
adg

>  <m_score__min__energy>  (33) 
-6.9000000000000004

>  <m_primary>  (33) 
energy

$$$$
33:0
     RDKit          3D

 44 45  0  0  0  0  0  0  0  0999 V2000
  140.9860  160.4120  135.7060 N   0  0  0  0  0  0  0  0  0  0  0  0
  141.3940  160.0530  134.3880 C   0  0  0  0  0  0  0  0  0  0  0  0
  140.5370  160.0210  133.4650 O   0  0  0  0  0  0  0  0  0  0  0  0
  142.8080  159.7420  134.0840 C   0  0  0  0  0  0  0  0  0  0  0  0
  143.8230  160.6960  134.0550 C   0  0  0  0  0  0  0  0  0  0  0  0
  144.9750  159.9960  133.7760 C   0  0  0  0  0  0  0  0  0  0  0  0
  146.2860  160.4410  133.6300 C   0  0  0  0  0  0  0  0  0  0  0  0
  147.2750  159.4900  133.3290 C   0  0  0  0  0  0  0  0  0  0  0  0
  146.9390  158.1210  133.1570 C   0  0  0  0  0  0  0  0  0  0  0  0
  148.0150  157.1050  132.8720 C   0  0  0  0  0  0  0  0  0  0  0  0
  147.5190  156.0700  132.0990 F   0  0  0  0  0  0  0  0  0  0  0  0
  149.0700  157.6880  132.1900 F   0  0  0  0  0  0  0  0  0  0  0  0
  148.4820  156.5900  134.0680 F   0  0  0  0  0  0  0  0  0  0  0  0
  145.5980  157.7060  133.3370 C   0  0  0  0  0  0  0  0  0  0  0  0
  144.6390  158.6740  133.6450 C   0  0  0  0  0  0  0  0  0  0  0  0
  143.3140  158.5040  133.8250 N   0  0  0  0  0  0  0  0  0  0  0  0
  142.6040  157.2610  133.7220 C   0  0  0  0  0  0  0  0  0  0  0  0
  142.9080  156.4610  132.7960 O   0  0  0  0  0  0  0  0  0  0  0  0
  141.5200  156.9500  134.6250 N   0  0  0  0  0  0  0  0  0  0  0  0
  140.2530  156.4310  134.0870 C   0  0  0  0  0  0  0  0  0  0  0  0
  139.1900  157.5300  134.0750 C   0  0  0  0  0  0  0  0  0  0  0  0
  139.1980  158.2260  135.2910 O   0  0  0  0  0  0  0  0  0  0  0  0
  141.7260  156.9830  136.0530 C   0  0  0  0  0  0  0  0  0  0  0  0
  141.5140  158.0440  136.7010 O   0  0  0  0  0  0  0  0  0  0  0  0
  142.1590  155.8060  136.7450 N   0  0  0  0  0  0  0  0  0  0  0  0
  141.9440  155.5740  138.1710 C   0  0  0  0  0  0  0  0  0  0  0  0
  140.4550  155.6320  138.5220 C   0  0  0  0  0  0  0  0  0  0  0  0
  140.0280  154.4170  139.2850 C   0  0  0  0  0  0  0  0  0  0  0  0
  139.4850  154.5350  140.4150 O   0  0  0  0  0  0  0  0  0  0  0  0
  140.2680  153.1510  138.7650 O   0  0  0  0  0  0  0  0  0  0  0  0
  140.3290  159.8070  136.2480 H   0  0  0  0  0  0  0  0  0  0  0  0
  143.7246  161.7791  134.2201 H   0  0  0  0  0  0  0  0  0  0  0  0
  146.5397  161.5050  133.7468 H   0  0  0  0  0  0  0  0  0  0  0  0
  148.3224  159.8096  133.2252 H   0  0  0  0  0  0  0  0  0  0  0  0
  145.3177  156.6470  133.2368 H   0  0  0  0  0  0  0  0  0  0  0  0
  140.4151  156.0721  133.0599 H   0  0  0  0  0  0  0  0  0  0  0  0
  139.9057  155.6051  134.7251 H   0  0  0  0  0  0  0  0  0  0  0  0
  139.4016  158.2309  133.2541 H   0  0  0  0  0  0  0  0  0  0  0  0
  138.2010  157.0703  133.9317 H   0  0  0  0  0  0  0  0  0  0  0  0
  140.0140  158.7910  135.2890 H   0  0  0  0  0  0  0  0  0  0  0  0
  142.3370  154.5815  138.4365 H   0  0  0  0  0  0  0  0  0  0  0  0
  142.4662  156.3610  138.7350 H   0  0  0  0  0  0  0  0  0  0  0  0
  140.2661  156.5252  139.1357 H   0  0  0  0  0  0  0  0  0  0  0  0
  139.8791  155.6740  137.5857 H   0  0  0  0  0  0  0  0  0  0  0  0
  1  2  1  0
  2  3  2  0
  2  4  1  0
  4  5  2  0
  5  6  1  0
  6  7  2  0
  7  8  1  0
  8  9  2  0
  9 10  1  0
 10 11  1  0
 10 12  1  0
 10 13  1  0
  9 14  1  0
 14 15  2  0
 15 16  1  0
 16 17  1  0
 17 18  2  0
 17 19  1  0
 19 20  1  0
 20 21  1  0
 21 22  1  0
 19 23  1  0
 23 24  2  0
 23 25  1  0
 25 26  1  0
 26 27  1  0
 27 28  1  0
 28 29  2  0
 28 30  1  0
 16  4  1  0
 15  6  1  0
  1 31  1  0
  5 32  1  0
  7 33  1  0
  8 34  1  0
 14 35  1  0
 20 36  1  0
 20 37  1  0
 21 38  1  0
 21 39  1  0
 22 40  1  0
 26 41  1  0
 26 42  1  0
 27 43  1  0
 27 44  1  0
M  CHG  3   1  -1  25  -1  30  -1
M  END
>  <UniqueID>  (34) 
34

>  <SMILES>  (34) 
[NH-]C(=O)c1cc2ccc(C(F)(F)F)cc2n1C(=O)N(CCO)C(=O)[N-]CCC(=O)[O-]

>  <Energy>  (34) 
77.98484608892005

>  <Genealogy>  (34) 
[NH-]C(=O)c1cc2ccc(C(F)(F)F)cc2n1C(=O)N(CCO)C(=O)[N-]CCC(=O)[O-] (protonated)
[NH-]C(=O)c1cc2ccc(C(F)(F)F)cc2n1C(=O)N(CCO)C(=O)[N-]CCC(=O)[O-] (3D coordinates assigned)
[NH-]C(=O)c1cc2ccc(C(F)(F)F)cc2n1C(=O)N(CCO)C(=O)[N-]CCC(=O)[O-] (optimized conformer: 77.98484608892005 kcal/mol)

>  <smiles>  (34) 
NC(=O)c1cc2ccc(C(F)(F)F)cc2n1C(=O)N(CCO)C(=O)NCCC(=O)O

>  <score_type>  (34) 
oracle

>  <origin>  (34) 
adg

>  <m_score__min__energy>  (34) 
-6.7199999999999998

>  <m_primary>  (34) 
energy

$$$$
34:0
     RDKit          3D

 42 43  0  0  0  0  0  0  0  0999 V2000
  143.5780  157.1030  134.6570 C   0  0  0  0  0  0  0  0  0  0  0  0
  143.8510  157.9790  133.4780 C   0  0  0  0  0  0  0  0  0  0  0  0
  142.9600  158.1260  132.6000 O   0  0  0  0  0  0  0  0  0  0  0  0
  145.1080  158.6610  133.3420 N   0  0  0  0  0  0  0  0  0  0  0  0
  145.3600  159.9850  133.5500 C   0  0  0  0  0  0  0  0  0  0  0  0
  144.3500  161.0270  133.8330 C   0  0  0  0  0  0  0  0  0  0  0  0
  142.9880  160.8560  133.4480 N   0  0  0  0  0  0  0  0  0  0  0  0
  144.7000  162.1000  134.3930 O   0  0  0  0  0  0  0  0  0  0  0  0
  146.7200  160.2510  133.4010 C   0  0  0  0  0  0  0  0  0  0  0  0
  147.2980  159.0400  133.0940 C   0  0  0  0  0  0  0  0  0  0  0  0
  148.6300  158.7200  132.8520 C   0  0  0  0  0  0  0  0  0  0  0  0
  148.9460  157.3770  132.5900 C   0  0  0  0  0  0  0  0  0  0  0  0
  147.9390  156.3760  132.5980 C   0  0  0  0  0  0  0  0  0  0  0  0
  148.2760  154.9920  132.3250 N   0  0  0  0  0  0  0  0  0  0  0  0
  147.6490  153.9950  133.2460 C   0  0  0  0  0  0  0  0  0  0  0  0
  147.6910  154.4940  134.7200 C   0  0  0  0  0  0  0  0  0  0  0  0
  147.1580  153.5280  135.5860 O   0  0  0  0  0  0  0  0  0  0  0  0
  148.4640  152.6710  133.1280 C   0  0  0  0  0  0  0  0  0  0  0  0
  147.6850  151.6250  132.6110 O   0  0  0  0  0  0  0  0  0  0  0  0
  146.1700  153.7280  132.8260 C   0  0  0  0  0  0  0  0  0  0  0  0
  145.5290  152.8270  133.6920 O   0  0  0  0  0  0  0  0  0  0  0  0
  146.5920  156.7500  132.8270 C   0  0  0  0  0  0  0  0  0  0  0  0
  146.3040  158.0970  133.0670 C   0  0  0  0  0  0  0  0  0  0  0  0
  143.7545  157.6694  135.5833 H   0  0  0  0  0  0  0  0  0  0  0  0
  142.5318  156.7645  134.6279 H   0  0  0  0  0  0  0  0  0  0  0  0
  144.2467  156.2301  134.6279 H   0  0  0  0  0  0  0  0  0  0  0  0
  142.7340  160.2750  132.6190 H   0  0  0  0  0  0  0  0  0  0  0  0
  147.2246  161.2228  133.5064 H   0  0  0  0  0  0  0  0  0  0  0  0
  149.4111  159.4944  132.8655 H   0  0  0  0  0  0  0  0  0  0  0  0
  149.9879  157.0967  132.3756 H   0  0  0  0  0  0  0  0  0  0  0  0
  149.3180  154.8940  132.3500 H   0  0  0  0  0  0  0  0  0  0  0  0
  147.9980  154.7730  131.3390 H   0  0  0  0  0  0  0  0  0  0  0  0
  148.7345  154.6963  135.0031 H   0  0  0  0  0  0  0  0  0  0  0  0
  147.0891  155.4112  134.8000 H   0  0  0  0  0  0  0  0  0  0  0  0
  146.1740  153.6540  135.5700 H   0  0  0  0  0  0  0  0  0  0  0  0
  149.3223  152.8393  132.4609 H   0  0  0  0  0  0  0  0  0  0  0  0
  148.7977  152.3834  134.1360 H   0  0  0  0  0  0  0  0  0  0  0  0
  147.0680  151.3530  133.3390 H   0  0  0  0  0  0  0  0  0  0  0  0
  145.6209  154.6811  132.8360 H   0  0  0  0  0  0  0  0  0  0  0  0
  146.1787  153.2828  131.8201 H   0  0  0  0  0  0  0  0  0  0  0  0
  146.2350  152.2580  134.0970 H   0  0  0  0  0  0  0  0  0  0  0  0
  145.7901  155.9971  132.8162 H   0  0  0  0  0  0  0  0  0  0  0  0
  1  2  1  0
  2  3  2  0
  2  4  1  0
  4  5  1  0
  5  6  1  0
  6  7  1  0
  6  8  2  0
  5  9  2  0
  9 10  1  0
 10 11  2  0
 11 12  1  0
 12 13  2  0
 13 14  1  0
 14 15  1  0
 15 16  1  0
 16 17  1  0
 15 18  1  0
 18 19  1  0
 15 20  1  0
 20 21  1  0
 13 22  1  0
 22 23  2  0
 23  4  1  0
 23 10  1  0
  1 24  1  0
  1 25  1  0
  1 26  1  0
  7 27  1  0
  9 28  1  0
 11 29  1  0
 12 30  1  0
 14 31  1  0
 14 32  1  0
 16 33  1  0
 16 34  1  0
 17 35  1  0
 18 36  1  0
 18 37  1  0
 19 38  1  0
 20 39  1  0
 20 40  1  0
 21 41  1  0
 22 42  1  0
M  CHG  2   7  -1  14   1
M  END
>  <UniqueID>  (35) 
35

>  <SMILES>  (35) 
CC(=O)n1c(C([NH-])=O)cc2ccc([NH2+]C(CO)(CO)CO)cc21

>  <Energy>  (35) 
85.54099895416599

>  <Genealogy>  (35) 
CC(=O)n1c(C([NH-])=O)cc2ccc([NH2+]C(CO)(CO)CO)cc21 (protonated)
CC(=O)n1c(C([NH-])=O)cc2ccc([NH2+]C(CO)(CO)CO)cc21 (3D coordinates assigned)
CC(=O)n1c(C([NH-])=O)cc2ccc([NH2+]C(CO)(CO)CO)cc21 (optimized conformer: 85.54099895416599 kcal/mol)

>  <smiles>  (35) 
CC(=O)n1c(C(N)=O)cc2ccc(NC(CO)(CO)CO)cc21

>  <score_type>  (35) 
oracle

>  <origin>  (35) 
adg

>  <m_score__min__energy>  (35) 
-5.8200000000000003

>  <m_primary>  (35) 
energy

$$$$
35:0
     RDKit          3D

 41 42  0  0  0  0  0  0  0  0999 V2000
  145.5230  152.6360  132.9880 C   0  0  0  0  0  0  0  0  0  0  0  0
  145.7200  154.0830  133.1260 N   0  0  0  0  0  0  0  0  0  0  0  0
  147.0420  154.5640  133.5430 C   0  0  0  0  0  0  0  0  0  0  0  0
  147.0710  154.7850  135.0200 C   0  0  0  0  0  0  0  0  0  0  0  0
  147.2220  155.9460  135.4830 O   0  0  0  0  0  0  0  0  0  0  0  0
  146.9670  153.7060  135.8880 O   0  0  0  0  0  0  0  0  0  0  0  0
  144.7270  155.0170  132.6490 C   0  0  0  0  0  0  0  0  0  0  0  0
  144.2940  154.9230  131.4680 O   0  0  0  0  0  0  0  0  0  0  0  0
  144.2020  156.0470  133.5050 N   0  0  0  0  0  0  0  0  0  0  0  0
  144.0340  155.7690  134.9330 C   0  0  0  0  0  0  0  0  0  0  0  0
  143.6980  157.2790  132.9540 C   0  0  0  0  0  0  0  0  0  0  0  0
  142.6770  157.2660  132.2130 O   0  0  0  0  0  0  0  0  0  0  0  0
  144.3320  158.5330  133.2470 N   0  0  0  0  0  0  0  0  0  0  0  0
  143.7500  159.6930  133.6630 C   0  0  0  0  0  0  0  0  0  0  0  0
  142.3220  159.8750  133.9990 C   0  0  0  0  0  0  0  0  0  0  0  0
  141.3070  159.6750  133.0200 N   0  0  0  0  0  0  0  0  0  0  0  0
  141.9910  160.1800  135.1760 O   0  0  0  0  0  0  0  0  0  0  0  0
  144.7080  160.6960  133.8020 C   0  0  0  0  0  0  0  0  0  0  0  0
  145.9060  160.1040  133.4670 C   0  0  0  0  0  0  0  0  0  0  0  0
  147.1890  160.6400  133.4180 C   0  0  0  0  0  0  0  0  0  0  0  0
  148.2400  159.7960  133.0190 C   0  0  0  0  0  0  0  0  0  0  0  0
  147.9910  158.4420  132.6810 C   0  0  0  0  0  0  0  0  0  0  0  0
  149.1250  157.5610  132.2420 C   0  0  0  0  0  0  0  0  0  0  0  0
  149.2200  156.4680  133.0830 F   0  0  0  0  0  0  0  0  0  0  0  0
  150.3100  158.2740  132.2830 F   0  0  0  0  0  0  0  0  0  0  0  0
  146.6750  157.9340  132.7440 C   0  0  0  0  0  0  0  0  0  0  0  0
  145.6510  158.7970  133.1450 C   0  0  0  0  0  0  0  0  0  0  0  0
  145.4606  152.1776  133.9860 H   0  0  0  0  0  0  0  0  0  0  0  0
  144.5904  152.4438  132.4373 H   0  0  0  0  0  0  0  0  0  0  0  0
  146.3703  152.2015  132.4373 H   0  0  0  0  0  0  0  0  0  0  0  0
  147.8021  153.8161  133.2730 H   0  0  0  0  0  0  0  0  0  0  0  0
  147.2531  155.5163  133.0345 H   0  0  0  0  0  0  0  0  0  0  0  0
  144.5150  156.5649  135.5206 H   0  0  0  0  0  0  0  0  0  0  0  0
  142.9617  155.7312  135.1755 H   0  0  0  0  0  0  0  0  0  0  0  0
  144.4991  154.8021  135.1755 H   0  0  0  0  0  0  0  0  0  0  0  0
  141.5020  159.1390  132.1450 H   0  0  0  0  0  0  0  0  0  0  0  0
  144.5426  161.7381  134.1129 H   0  0  0  0  0  0  0  0  0  0  0  0
  147.3751  161.6912  133.6832 H   0  0  0  0  0  0  0  0  0  0  0  0
  149.2657  160.1901  132.9686 H   0  0  0  0  0  0  0  0  0  0  0  0
  148.9372  157.2170  131.2142 H   0  0  0  0  0  0  0  0  0  0  0  0
  146.4612  156.8867  132.4844 H   0  0  0  0  0  0  0  0  0  0  0  0
  1  2  1  0
  2  3  1  0
  3  4  1  0
  4  5  2  0
  4  6  1  0
  2  7  1  0
  7  8  2  0
  7  9  1  0
  9 10  1  0
  9 11  1  0
 11 12  2  0
 11 13  1  0
 13 14  1  0
 14 15  1  0
 15 16  1  0
 15 17  2  0
 14 18  2  0
 18 19  1  0
 19 20  2  0
 20 21  1  0
 21 22  2  0
 22 23  1  0
 23 24  1  0
 23 25  1  0
 22 26  1  0
 26 27  2  0
 27 13  1  0
 27 19  1  0
  1 28  1  0
  1 29  1  0
  1 30  1  0
  3 31  1  0
  3 32  1  0
 10 33  1  0
 10 34  1  0
 10 35  1  0
 16 36  1  0
 18 37  1  0
 20 38  1  0
 21 39  1  0
 23 40  1  0
 26 41  1  0
M  CHG  2   6  -1  16  -1
M  END
>  <UniqueID>  (36) 
36

>  <SMILES>  (36) 
CN(CC(=O)[O-])C(=O)N(C)C(=O)n1c(C([NH-])=O)cc2ccc(C(F)F)cc21

>  <Energy>  (36) 
79.42060982125093

>  <Genealogy>  (36) 
CN(CC(=O)[O-])C(=O)N(C)C(=O)n1c(C([NH-])=O)cc2ccc(C(F)F)cc21 (protonated)
CN(CC(=O)[O-])C(=O)N(C)C(=O)n1c(C([NH-])=O)cc2ccc(C(F)F)cc21 (3D coordinates assigned)
CN(CC(=O)[O-])C(=O)N(C)C(=O)n1c(C([NH-])=O)cc2ccc(C(F)F)cc21 (optimized conformer: 79.42060982125093 kcal/mol)

>  <smiles>  (36) 
CN(CC(=O)O)C(=O)N(C)C(=O)n1c(C(N)=O)cc2ccc(C(F)F)cc21

>  <score_type>  (36) 
oracle

>  <origin>  (36) 
adg

>  <m_score__min__energy>  (36) 
-6.2300000000000004

>  <m_primary>  (36) 
energy

$$$$
36:0
     RDKit          3D

 45 47  0  0  0  0  0  0  0  0999 V2000
  138.3900  149.1500  130.8550 C   0  0  0  0  0  0  0  0  0  0  0  0
  139.6780  149.4150  131.4810 N   0  0  0  0  0  0  0  0  0  0  0  0
  140.6060  148.4920  131.7980 C   0  0  0  0  0  0  0  0  0  0  0  0
  141.7040  149.1420  132.3170 C   0  0  0  0  0  0  0  0  0  0  0  0
  141.3740  150.4840  132.2550 C   0  0  0  0  0  0  0  0  0  0  0  0
  142.2190  151.6150  132.7640 C   0  0  0  0  0  0  0  0  0  0  0  0
  141.4510  152.5530  133.7090 C   0  0  0  0  0  0  0  0  0  0  0  0
  140.5550  153.5630  132.9810 C   0  0  0  0  0  0  0  0  0  0  0  0
  140.7270  154.8730  133.5200 O   0  0  0  0  0  0  0  0  0  0  0  0
  139.8460  155.9360  133.2820 C   0  0  0  0  0  0  0  0  0  0  0  0
  138.7800  155.7480  132.6340 O   0  0  0  0  0  0  0  0  0  0  0  0
  140.1620  157.2460  133.7790 N   0  0  0  0  0  0  0  0  0  0  0  0
  139.9740  158.4360  133.1440 C   0  0  0  0  0  0  0  0  0  0  0  0
  139.5690  158.6110  131.7350 C   0  0  0  0  0  0  0  0  0  0  0  0
  138.3220  158.1050  131.2550 N   0  0  0  0  0  0  0  0  0  0  0  0
  140.3590  159.1690  130.9290 O   0  0  0  0  0  0  0  0  0  0  0  0
  140.2560  159.4990  133.9980 C   0  0  0  0  0  0  0  0  0  0  0  0
  140.6390  158.9190  135.1850 C   0  0  0  0  0  0  0  0  0  0  0  0
  141.0000  159.5100  136.3930 C   0  0  0  0  0  0  0  0  0  0  0  0
  141.2960  158.6660  137.4760 C   0  0  0  0  0  0  0  0  0  0  0  0
  141.2370  157.2560  137.3360 C   0  0  0  0  0  0  0  0  0  0  0  0
  141.4910  156.3630  138.5230 C   0  0  0  0  0  0  0  0  0  0  0  0
  142.4590  155.4320  138.1940 F   0  0  0  0  0  0  0  0  0  0  0  0
  141.9290  157.1040  139.6070 F   0  0  0  0  0  0  0  0  0  0  0  0
  140.3340  155.7000  138.8920 F   0  0  0  0  0  0  0  0  0  0  0  0
  140.8430  156.6960  136.0980 C   0  0  0  0  0  0  0  0  0  0  0  0
  140.5730  157.5580  135.0290 C   0  0  0  0  0  0  0  0  0  0  0  0
  140.1320  150.6280  131.7520 N   0  0  0  0  0  0  0  0  0  0  0  0
  137.6291  148.9934  131.6338 H   0  0  0  0  0  0  0  0  0  0  0  0
  138.1030  150.0079  130.2292 H   0  0  0  0  0  0  0  0  0  0  0  0
  138.4650  148.2485  130.2292 H   0  0  0  0  0  0  0  0  0  0  0  0
  140.5045  147.4048  131.6652 H   0  0  0  0  0  0  0  0  0  0  0  0
  142.6346  148.6943  132.6958 H   0  0  0  0  0  0  0  0  0  0  0  0
  143.0783  151.1950  133.3074 H   0  0  0  0  0  0  0  0  0  0  0  0
  142.5372  152.2086  131.8943 H   0  0  0  0  0  0  0  0  0  0  0  0
  140.8189  151.9402  134.3685 H   0  0  0  0  0  0  0  0  0  0  0  0
  142.2015  153.1324  134.2667 H   0  0  0  0  0  0  0  0  0  0  0  0
  140.8185  153.5749  131.9131 H   0  0  0  0  0  0  0  0  0  0  0  0
  139.5051  153.2624  133.1128 H   0  0  0  0  0  0  0  0  0  0  0  0
  138.0340  158.2740  130.2670 H   0  0  0  0  0  0  0  0  0  0  0  0
  137.7220  157.4940  131.8530 H   0  0  0  0  0  0  0  0  0  0  0  0
  140.1872  160.5733  133.7717 H   0  0  0  0  0  0  0  0  0  0  0  0
  141.0518  160.6039  136.4960 H   0  0  0  0  0  0  0  0  0  0  0  0
  141.5771  159.1042  138.4450 H   0  0  0  0  0  0  0  0  0  0  0  0
  140.7508  155.6064  135.9782 H   0  0  0  0  0  0  0  0  0  0  0  0
  1  2  1  0
  2  3  1  0
  3  4  2  0
  4  5  1  0
  5  6  1  0
  6  7  1  0
  7  8  1  0
  8  9  1  0
  9 10  1  0
 10 11  2  0
 10 12  1  0
 12 13  1  0
 13 14  1  0
 14 15  1  0
 14 16  2  0
 13 17  2  0
 17 18  1  0
 18 19  2  0
 19 20  1  0
 20 21  2  0
 21 22  1  0
 22 23  1  0
 22 24  1  0
 22 25  1  0
 21 26  1  0
 26 27  2  0
  5 28  2  0
 28  2  1  0
 27 12  1  0
 27 18  1  0
  1 29  1  0
  1 30  1  0
  1 31  1  0
  3 32  1  0
  4 33  1  0
  6 34  1  0
  6 35  1  0
  7 36  1  0
  7 37  1  0
  8 38  1  0
  8 39  1  0
 15 40  1  0
 15 41  1  0
 17 42  1  0
 19 43  1  0
 20 44  1  0
 26 45  1  0
M  END
>  <UniqueID>  (37) 
37

>  <SMILES>  (37) 
Cn1ccc(CCCOC(=O)n2c(C(N)=O)cc3ccc(C(F)(F)F)cc32)n1

>  <Energy>  (37) 
109.91678149297678

>  <Genealogy>  (37) 
Cn1ccc(CCCOC(=O)n2c(C(N)=O)cc3ccc(C(F)(F)F)cc32)n1 (3D coordinates assigned)
Cn1ccc(CCCOC(=O)n2c(C(N)=O)cc3ccc(C(F)(F)F)cc32)n1 (optimized conformer: 109.91678149297678 kcal/mol)

>  <smiles>  (37) 
Cn1ccc(CCCOC(=O)n2c(C(N)=O)cc3ccc(C(F)(F)F)cc32)n1

>  <score_type>  (37) 
oracle

>  <origin>  (37) 
adg

>  <m_score__min__energy>  (37) 
-7.9900000000000002

>  <m_primary>  (37) 
energy

$$$$
37:0
     RDKit          3D

 39 41  0  0  0  0  0  0  0  0999 V2000
  140.6140  159.7650  136.5020 N   0  0  0  0  0  0  0  0  0  0  0  0
  141.0930  158.6060  137.1770 C   0  0  0  0  0  0  0  0  0  0  0  0
  141.4180  158.6890  138.3910 O   0  0  0  0  0  0  0  0  0  0  0  0
  141.2580  157.3240  136.4620 C   0  0  0  0  0  0  0  0  0  0  0  0
  142.1930  156.3550  136.8230 C   0  0  0  0  0  0  0  0  0  0  0  0
  142.0820  155.3690  135.8690 C   0  0  0  0  0  0  0  0  0  0  0  0
  142.7670  154.1630  135.7400 C   0  0  0  0  0  0  0  0  0  0  0  0
  142.4280  153.3260  134.6630 C   0  0  0  0  0  0  0  0  0  0  0  0
  141.4170  153.7020  133.7450 C   0  0  0  0  0  0  0  0  0  0  0  0
  141.0620  152.7870  132.6080 C   0  0  0  0  0  0  0  0  0  0  0  0
  141.7450  151.5910  132.7430 F   0  0  0  0  0  0  0  0  0  0  0  0
  139.7020  152.5400  132.6160 F   0  0  0  0  0  0  0  0  0  0  0  0
  140.7420  154.9330  133.9100 C   0  0  0  0  0  0  0  0  0  0  0  0
  141.1100  155.7510  134.9830 C   0  0  0  0  0  0  0  0  0  0  0  0
  140.5920  156.9460  135.3350 N   0  0  0  0  0  0  0  0  0  0  0  0
  139.4960  157.6100  134.6850 C   0  0  0  0  0  0  0  0  0  0  0  0
  138.6450  158.2280  135.3810 O   0  0  0  0  0  0  0  0  0  0  0  0
  139.4540  157.7070  133.1840 C   0  0  0  0  0  0  0  0  0  0  0  0
  140.0300  159.0350  132.6760 C   0  0  0  0  0  0  0  0  0  0  0  0
  141.4690  159.1780  133.0900 C   0  0  0  0  0  0  0  0  0  0  0  0
  141.9370  160.3750  133.6500 C   0  0  0  0  0  0  0  0  0  0  0  0
  143.2670  160.4810  134.0610 C   0  0  0  0  0  0  0  0  0  0  0  0
  144.1160  159.3820  133.9180 C   0  0  0  0  0  0  0  0  0  0  0  0
  143.6460  158.2220  133.3880 N   0  0  0  0  0  0  0  0  0  0  0  0
  142.3550  158.0950  132.9800 C   0  0  0  0  0  0  0  0  0  0  0  0
  139.5930  159.9140  136.3490 H   0  0  0  0  0  0  0  0  0  0  0  0
  142.8743  156.3743  137.6864 H   0  0  0  0  0  0  0  0  0  0  0  0
  143.5486  153.8748  136.4584 H   0  0  0  0  0  0  0  0  0  0  0  0
  142.9535  152.3686  134.5316 H   0  0  0  0  0  0  0  0  0  0  0  0
  141.3424  153.2659  131.6582 H   0  0  0  0  0  0  0  0  0  0  0  0
  139.9482  155.2394  133.2128 H   0  0  0  0  0  0  0  0  0  0  0  0
  140.0409  156.8797  132.7584 H   0  0  0  0  0  0  0  0  0  0  0  0
  138.4012  157.6518  132.8700 H   0  0  0  0  0  0  0  0  0  0  0  0
  139.9648  159.0615  131.5782 H   0  0  0  0  0  0  0  0  0  0  0  0
  139.4509  159.8632  133.1104 H   0  0  0  0  0  0  0  0  0  0  0  0
  141.2560  161.2311  133.7656 H   0  0  0  0  0  0  0  0  0  0  0  0
  143.6420  161.4206  134.4930 H   0  0  0  0  0  0  0  0  0  0  0  0
  145.1669  159.4550  134.2347 H   0  0  0  0  0  0  0  0  0  0  0  0
  142.0038  157.1400  132.5622 H   0  0  0  0  0  0  0  0  0  0  0  0
  1  2  1  0
  2  3  2  0
  2  4  1  0
  4  5  2  0
  5  6  1  0
  6  7  2  0
  7  8  1  0
  8  9  2  0
  9 10  1  0
 10 11  1  0
 10 12  1  0
  9 13  1  0
 13 14  2  0
 14 15  1  0
 15 16  1  0
 16 17  2  0
 16 18  1  0
 18 19  1  0
 19 20  1  0
 20 21  2  0
 21 22  1  0
 22 23  2  0
 23 24  1  0
 24 25  2  0
 15  4  1  0
 25 20  1  0
 14  6  1  0
  1 26  1  0
  5 27  1  0
  7 28  1  0
  8 29  1  0
 10 30  1  0
 13 31  1  0
 18 32  1  0
 18 33  1  0
 19 34  1  0
 19 35  1  0
 21 36  1  0
 22 37  1  0
 23 38  1  0
 25 39  1  0
M  CHG  1   1  -1
M  END
>  <UniqueID>  (38) 
38

>  <SMILES>  (38) 
[NH-]C(=O)c1cc2ccc(C(F)F)cc2n1C(=O)CCc1cccnc1

>  <Energy>  (38) 
79.37243797294884

>  <Genealogy>  (38) 
[NH-]C(=O)c1cc2ccc(C(F)F)cc2n1C(=O)CCc1cccnc1 (protonated)
[NH-]C(=O)c1cc2ccc(C(F)F)cc2n1C(=O)CCc1cccnc1 (3D coordinates assigned)
[NH-]C(=O)c1cc2ccc(C(F)F)cc2n1C(=O)CCc1cccnc1 (optimized conformer: 79.37243797294884 kcal/mol)

>  <smiles>  (38) 
NC(=O)c1cc2ccc(C(F)F)cc2n1C(=O)CCc1cccnc1

>  <score_type>  (38) 
oracle

>  <origin>  (38) 
adg

>  <m_score__min__energy>  (38) 
-7.4000000000000004

>  <m_primary>  (38) 
energy

$$$$
38:0
     RDKit          3D

 39 40  0  0  0  0  0  0  0  0999 V2000
  140.4450  159.3340  132.1320 C   0  0  0  0  0  0  0  0  0  0  0  0
  140.1270  159.2240  133.6250 C   0  0  2  0  0  0  0  0  0  0  0  0
  141.1750  159.8120  134.3960 O   0  0  0  0  0  0  0  0  0  0  0  0
  142.1790  160.6220  133.8520 C   0  0  0  0  0  0  0  0  0  0  0  0
  141.8980  161.7560  133.3780 O   0  0  0  0  0  0  0  0  0  0  0  0
  143.5310  160.1410  133.8090 N   0  0  0  0  0  0  0  0  0  0  0  0
  144.6840  160.8620  133.9110 C   0  0  0  0  0  0  0  0  0  0  0  0
  144.7840  162.2930  134.2670 C   0  0  0  0  0  0  0  0  0  0  0  0
  144.0820  163.2850  133.5240 N   0  0  0  0  0  0  0  0  0  0  0  0
  145.4630  162.6400  135.2700 O   0  0  0  0  0  0  0  0  0  0  0  0
  145.7920  160.0420  133.7110 C   0  0  0  0  0  0  0  0  0  0  0  0
  145.2810  158.7850  133.4890 C   0  0  0  0  0  0  0  0  0  0  0  0
  145.9360  157.5880  133.2130 C   0  0  0  0  0  0  0  0  0  0  0  0
  145.1510  156.4440  132.9880 C   0  0  0  0  0  0  0  0  0  0  0  0
  143.7350  156.5160  133.0360 C   0  0  0  0  0  0  0  0  0  0  0  0
  142.9400  155.3390  132.7770 N   0  0  0  0  0  0  0  0  0  0  0  0
  142.9860  154.3890  133.9030 C   0  0  0  0  0  0  0  0  0  0  0  0
  141.7200  153.5270  134.0020 C   0  0  0  0  0  0  0  0  0  0  0  0
  140.8610  153.8000  132.9540 F   0  0  0  0  0  0  0  0  0  0  0  0
  143.1070  157.7500  133.3200 C   0  0  0  0  0  0  0  0  0  0  0  0
  143.9140  158.8700  133.5550 C   0  0  0  0  0  0  0  0  0  0  0  0
  139.9910  157.7830  134.0090 C   0  0  0  0  0  0  0  0  0  0  0  0
  139.4850  157.4680  135.1170 O   0  0  0  0  0  0  0  0  0  0  0  0
  140.3830  156.7850  133.1240 O   0  0  0  0  0  0  0  0  0  0  0  0
  141.4773  159.6911  132.0023 H   0  0  0  0  0  0  0  0  0  0  0  0
  140.3367  158.3462  131.6603 H   0  0  0  0  0  0  0  0  0  0  0  0
  139.7495  160.0438  131.6603 H   0  0  0  0  0  0  0  0  0  0  0  0
  139.1840  159.7543  133.8235 H   0  0  0  0  0  0  0  0  0  0  0  0
  143.5010  163.0260  132.6950 H   0  0  0  0  0  0  0  0  0  0  0  0
  146.8515  160.3375  133.7272 H   0  0  0  0  0  0  0  0  0  0  0  0
  147.0342  157.5390  133.1722 H   0  0  0  0  0  0  0  0  0  0  0  0
  145.6399  155.4825  132.7724 H   0  0  0  0  0  0  0  0  0  0  0  0
  143.2510  154.8670  131.8960 H   0  0  0  0  0  0  0  0  0  0  0  0
  141.9460  155.6320  132.6310 H   0  0  0  0  0  0  0  0  0  0  0  0
  143.8536  153.7262  133.7691 H   0  0  0  0  0  0  0  0  0  0  0  0
  143.0620  154.9759  134.8303 H   0  0  0  0  0  0  0  0  0  0  0  0
  142.0029  152.4645  133.9698 H   0  0  0  0  0  0  0  0  0  0  0  0
  141.2083  153.7567  134.9483 H   0  0  0  0  0  0  0  0  0  0  0  0
  142.0104  157.8287  133.3556 H   0  0  0  0  0  0  0  0  0  0  0  0
  1  2  1  0
  2  3  1  0
  3  4  1  0
  4  5  2  0
  4  6  1  0
  6  7  1  0
  7  8  1  0
  8  9  1  0
  8 10  2  0
  7 11  2  0
 11 12  1  0
 12 13  2  0
 13 14  1  0
 14 15  2  0
 15 16  1  0
 16 17  1  0
 17 18  1  0
 18 19  1  0
 15 20  1  0
 20 21  2  0
  2 22  1  0
 22 23  2  0
 22 24  1  0
 21  6  1  0
 21 12  1  0
  1 25  1  0
  1 26  1  0
  1 27  1  0
  2 28  1  6
  9 29  1  0
 11 30  1  0
 13 31  1  0
 14 32  1  0
 16 33  1  0
 16 34  1  0
 17 35  1  0
 17 36  1  0
 18 37  1  0
 18 38  1  0
 20 39  1  0
M  CHG  3   9  -1  16   1  24  -1
M  END
>  <UniqueID>  (39) 
39

>  <SMILES>  (39) 
C[C@H](OC(=O)n1c(C([NH-])=O)cc2ccc([NH2+]CCF)cc21)C(=O)[O-]

>  <Energy>  (39) 
73.13180160152123

>  <Genealogy>  (39) 
CC(OC(=O)n1c(C([NH-])=O)cc2ccc([NH2+]CCF)cc21)C(=O)[O-] (protonated)
C[C@H](OC(=O)n1c(C([NH-])=O)cc2ccc([NH2+]CCF)cc21)C(=O)[O-] (chirality)
C[C@H](OC(=O)n1c(C([NH-])=O)cc2ccc([NH2+]CCF)cc21)C(=O)[O-] (3D coordinates assigned)
C[C@H](OC(=O)n1c(C([NH-])=O)cc2ccc([NH2+]CCF)cc21)C(=O)[O-] (optimized conformer: 73.13180160152123 kcal/mol)

>  <smiles>  (39) 
CC(OC(=O)n1c(C(N)=O)cc2ccc(NCCF)cc21)C(=O)O

>  <score_type>  (39) 
oracle

>  <origin>  (39) 
adg

>  <m_score__min__energy>  (39) 
-5.7199999999999998

>  <m_primary>  (39) 
energy

$$$$
39:0
     RDKit          3D

 35 36  0  0  0  0  0  0  0  0999 V2000
  149.5170  161.9230  130.3610 C   0  0  0  0  0  0  0  0  0  0  0  0
  148.2450  161.2530  130.6130 N   0  0  0  0  0  0  0  0  0  0  0  0
  148.1130  160.0850  131.4460 C   0  0  0  0  0  0  0  0  0  0  0  0
  149.2510  159.2720  131.6810 C   0  0  0  0  0  0  0  0  0  0  0  0
  149.1620  158.1220  132.4870 C   0  0  0  0  0  0  0  0  0  0  0  0
  147.9290  157.8160  133.0540 C   0  0  0  0  0  0  0  0  0  0  0  0
  147.5540  156.7540  133.8480 C   0  0  0  0  0  0  0  0  0  0  0  0
  146.1920  156.9390  134.0990 C   0  0  0  0  0  0  0  0  0  0  0  0
  145.3330  156.0050  134.8690 C   0  0  0  0  0  0  0  0  0  0  0  0
  143.9070  156.0840  134.8020 N   0  0  0  0  0  0  0  0  0  0  0  0
  145.8600  155.1300  135.6080 O   0  0  0  0  0  0  0  0  0  0  0  0
  145.7570  158.0780  133.4890 N   0  0  0  0  0  0  0  0  0  0  0  0
  144.4250  158.6110  133.4780 C   0  0  0  0  0  0  0  0  0  0  0  0
  143.6150  158.2250  132.5910 O   0  0  0  0  0  0  0  0  0  0  0  0
  143.9970  159.6780  134.4540 C   0  0  1  0  0  0  0  0  0  0  0  0
  144.6910  161.2730  134.0250 Cl  0  0  0  0  0  0  0  0  0  0  0  0
  142.4650  159.7640  134.5140 C   0  0  0  0  0  0  0  0  0  0  0  0
  141.9110  158.9330  135.6320 C   0  0  0  0  0  0  0  0  0  0  0  0
  141.3080  159.4800  136.5910 O   0  0  0  0  0  0  0  0  0  0  0  0
  142.0600  157.5520  135.6130 O   0  0  0  0  0  0  0  0  0  0  0  0
  146.8230  158.5940  132.8440 C   0  0  0  0  0  0  0  0  0  0  0  0
  146.8730  159.7330  132.0360 C   0  0  0  0  0  0  0  0  0  0  0  0
  149.9950  162.1748  131.3192 H   0  0  0  0  0  0  0  0  0  0  0  0
  150.1759  161.2549  129.7869 H   0  0  0  0  0  0  0  0  0  0  0  0
  149.3388  162.8442  129.7869 H   0  0  0  0  0  0  0  0  0  0  0  0
  147.3910  161.6480  130.1570 H   0  0  0  0  0  0  0  0  0  0  0  0
  150.2156  159.5439  131.2274 H   0  0  0  0  0  0  0  0  0  0  0  0
  150.0407  157.4843  132.6634 H   0  0  0  0  0  0  0  0  0  0  0  0
  148.1922  155.9337  134.2082 H   0  0  0  0  0  0  0  0  0  0  0  0
  143.4190  156.7370  134.1520 H   0  0  0  0  0  0  0  0  0  0  0  0
  143.3240  155.4690  135.4110 H   0  0  0  0  0  0  0  0  0  0  0  0
  144.3794  159.3983  135.4467 H   0  0  0  0  0  0  0  0  0  0  0  0
  142.1718  160.8128  134.6691 H   0  0  0  0  0  0  0  0  0  0  0  0
  142.0606  159.3802  133.5658 H   0  0  0  0  0  0  0  0  0  0  0  0
  145.9730  160.3411  131.8622 H   0  0  0  0  0  0  0  0  0  0  0  0
  1  2  1  0
  2  3  1  0
  3  4  2  0
  4  5  1  0
  5  6  2  0
  6  7  1  0
  7  8  2  0
  8  9  1  0
  9 10  1  0
  9 11  2  0
  8 12  1  0
 12 13  1  0
 13 14  2  0
 13 15  1  0
 15 16  1  0
 15 17  1  0
 17 18  1  0
 18 19  2  0
 18 20  1  0
 12 21  1  0
 21 22  2  0
 22  3  1  0
 21  6  1  0
  1 23  1  0
  1 24  1  0
  1 25  1  0
  2 26  1  0
  4 27  1  0
  5 28  1  0
  7 29  1  0
 10 30  1  0
 10 31  1  0
 15 32  1  1
 17 33  1  0
 17 34  1  0
 22 35  1  0
M  CHG  1  20  -1
M  END
>  <UniqueID>  (40) 
40

>  <SMILES>  (40) 
CNc1ccc2cc(C(N)=O)n(C(=O)[C@@H](Cl)CC(=O)[O-])c2c1

>  <Energy>  (40) 
71.6811959546504

>  <Genealogy>  (40) 
CNc1ccc2cc(C(N)=O)n(C(=O)C(Cl)CC(=O)[O-])c2c1 (protonated)
CNc1ccc2cc(C(N)=O)n(C(=O)[C@@H](Cl)CC(=O)[O-])c2c1 (chirality)
CNc1ccc2cc(C(N)=O)n(C(=O)[C@@H](Cl)CC(=O)[O-])c2c1 (3D coordinates assigned)
CNc1ccc2cc(C(N)=O)n(C(=O)[C@@H](Cl)CC(=O)[O-])c2c1 (optimized conformer: 71.6811959546504 kcal/mol)

>  <smiles>  (40) 
CNc1ccc2cc(C(N)=O)n(C(=O)C(Cl)CC(=O)O)c2c1

>  <score_type>  (40) 
oracle

>  <origin>  (40) 
adg

>  <m_score__min__energy>  (40) 
-6.9299999999999997

>  <m_primary>  (40) 
energy

$$$$
40:0
     RDKit          3D

 41 42  0  0  0  0  0  0  0  0999 V2000
  147.0010  152.6360  132.6900 C   0  0  0  0  0  0  0  0  0  0  0  0
  148.4080  152.9080  133.0020 N   0  0  0  0  0  0  0  0  0  0  0  0
  149.2160  151.8420  133.6190 C   0  0  0  0  0  0  0  0  0  0  0  0
  150.0690  151.1340  132.5680 C   0  0  0  0  0  0  0  0  0  0  0  0
  149.9840  151.8080  131.3450 O   0  0  0  0  0  0  0  0  0  0  0  0
  148.9070  154.2570  132.8420 C   0  0  0  0  0  0  0  0  0  0  0  0
  149.9850  154.4530  132.2110 O   0  0  0  0  0  0  0  0  0  0  0  0
  148.2010  155.4530  133.4250 C   0  0  0  0  0  0  0  0  0  0  0  0
  148.7530  156.7050  132.8860 N   0  0  0  0  0  0  0  0  0  0  0  0
  147.7760  157.7610  132.9970 C   0  0  0  0  0  0  0  0  0  0  0  0
  148.1760  159.1160  132.8560 C   0  0  0  0  0  0  0  0  0  0  0  0
  147.2460  160.1580  133.0000 C   0  0  0  0  0  0  0  0  0  0  0  0
  145.9280  159.8200  133.2930 C   0  0  0  0  0  0  0  0  0  0  0  0
  144.8290  160.6280  133.4660 C   0  0  0  0  0  0  0  0  0  0  0  0
  143.7750  159.7600  133.7380 C   0  0  0  0  0  0  0  0  0  0  0  0
  142.4190  160.2230  134.0970 C   0  0  0  0  0  0  0  0  0  0  0  0
  141.7600  159.7330  135.2600 N   0  0  0  0  0  0  0  0  0  0  0  0
  141.8580  161.1070  133.3960 O   0  0  0  0  0  0  0  0  0  0  0  0
  144.2000  158.4640  133.7210 N   0  0  0  0  0  0  0  0  0  0  0  0
  143.4010  157.2750  133.8570 C   0  0  0  0  0  0  0  0  0  0  0  0
  143.1170  156.5790  132.8480 O   0  0  0  0  0  0  0  0  0  0  0  0
  142.9190  156.8920  135.1040 O   0  0  0  0  0  0  0  0  0  0  0  0
  145.5250  158.5180  133.4530 C   0  0  0  0  0  0  0  0  0  0  0  0
  146.4270  157.4590  133.2980 C   0  0  0  0  0  0  0  0  0  0  0  0
  146.4326  152.5261  133.6254 H   0  0  0  0  0  0  0  0  0  0  0  0
  146.5871  153.4708  132.1053 H   0  0  0  0  0  0  0  0  0  0  0  0
  146.9280  151.7071  132.1053 H   0  0  0  0  0  0  0  0  0  0  0  0
  149.8749  152.2836  134.3811 H   0  0  0  0  0  0  0  0  0  0  0  0
  148.5394  151.1068  134.0791 H   0  0  0  0  0  0  0  0  0  0  0  0
  151.1170  151.1168  132.9016 H   0  0  0  0  0  0  0  0  0  0  0  0
  149.7000  150.1059  132.4384 H   0  0  0  0  0  0  0  0  0  0  0  0
  150.4560  152.6710  131.4730 H   0  0  0  0  0  0  0  0  0  0  0  0
  147.1309  155.3954  133.1769 H   0  0  0  0  0  0  0  0  0  0  0  0
  148.3444  155.4475  134.5156 H   0  0  0  0  0  0  0  0  0  0  0  0
  149.6160  156.9810  133.4100 H   0  0  0  0  0  0  0  0  0  0  0  0
  149.0230  156.5670  131.8840 H   0  0  0  0  0  0  0  0  0  0  0  0
  149.2266  159.3522  132.6314 H   0  0  0  0  0  0  0  0  0  0  0  0
  147.5497  161.2090  132.8848 H   0  0  0  0  0  0  0  0  0  0  0  0
  144.7907  161.7255  133.4030 H   0  0  0  0  0  0  0  0  0  0  0  0
  141.8720  158.7400  135.5590 H   0  0  0  0  0  0  0  0  0  0  0  0
  146.0947  156.4161  133.4077 H   0  0  0  0  0  0  0  0  0  0  0  0
  1  2  1  0
  2  3  1  0
  3  4  1  0
  4  5  1  0
  2  6  1  0
  6  7  2  0
  6  8  1  0
  8  9  1  0
  9 10  1  0
 10 11  2  0
 11 12  1  0
 12 13  2  0
 13 14  1  0
 14 15  2  0
 15 16  1  0
 16 17  1  0
 16 18  2  0
 15 19  1  0
 19 20  1  0
 20 21  2  0
 20 22  1  0
 19 23  1  0
 23 24  2  0
 24 10  1  0
 23 13  1  0
  1 25  1  0
  1 26  1  0
  1 27  1  0
  3 28  1  0
  3 29  1  0
  4 30  1  0
  4 31  1  0
  5 32  1  0
  8 33  1  0
  8 34  1  0
  9 35  1  0
  9 36  1  0
 11 37  1  0
 12 38  1  0
 14 39  1  0
 17 40  1  0
 24 41  1  0
M  CHG  3   9   1  17  -1  22  -1
M  END
>  <UniqueID>  (41) 
41

>  <SMILES>  (41) 
CN(CCO)C(=O)C[NH2+]c1ccc2cc(C([NH-])=O)n(C(=O)[O-])c2c1

>  <Energy>  (41) 
77.92398493899778

>  <Genealogy>  (41) 
CN(CCO)C(=O)C[NH2+]c1ccc2cc(C([NH-])=O)n(C(=O)[O-])c2c1 (protonated)
CN(CCO)C(=O)C[NH2+]c1ccc2cc(C([NH-])=O)n(C(=O)[O-])c2c1 (3D coordinates assigned)
CN(CCO)C(=O)C[NH2+]c1ccc2cc(C([NH-])=O)n(C(=O)[O-])c2c1 (optimized conformer: 77.92398493899778 kcal/mol)

>  <smiles>  (41) 
CN(CCO)C(=O)CNc1ccc2cc(C(N)=O)n(C(=O)O)c2c1

>  <score_type>  (41) 
oracle

>  <origin>  (41) 
adg

>  <m_score__min__energy>  (41) 
-6.6799999999999997

>  <m_primary>  (41) 
energy

$$$$
41:0
     RDKit          3D

 36 37  0  0  0  0  0  0  0  0999 V2000
  148.4860  155.2000  132.6040 C   0  0  0  0  0  0  0  0  0  0  0  0
  147.9770  156.5860  132.8630 C   0  0  0  0  0  0  0  0  0  0  0  0
  148.8740  157.6830  132.8710 C   0  0  0  0  0  0  0  0  0  0  0  0
  148.4010  158.9930  133.0630 C   0  0  0  0  0  0  0  0  0  0  0  0
  147.0320  159.1720  133.2390 C   0  0  0  0  0  0  0  0  0  0  0  0
  146.3050  160.3270  133.4240 C   0  0  0  0  0  0  0  0  0  0  0  0
  144.9740  159.9170  133.5260 C   0  0  0  0  0  0  0  0  0  0  0  0
  143.8270  160.8250  133.7770 C   0  0  0  0  0  0  0  0  0  0  0  0
  142.5360  160.3110  134.1100 N   0  0  0  0  0  0  0  0  0  0  0  0
  143.9780  162.0720  133.6890 O   0  0  0  0  0  0  0  0  0  0  0  0
  144.8920  158.5600  133.4180 N   0  0  0  0  0  0  0  0  0  0  0  0
  143.7120  157.7490  133.5000 C   0  0  0  0  0  0  0  0  0  0  0  0
  142.8190  157.8560  132.6160 O   0  0  0  0  0  0  0  0  0  0  0  0
  143.4880  156.8410  134.6730 C   0  0  0  0  0  0  0  0  0  0  0  0
  142.5450  157.4230  135.5700 O   0  0  0  0  0  0  0  0  0  0  0  0
  141.3000  156.8510  135.8570 C   0  0  0  0  0  0  0  0  0  0  0  0
  141.2230  155.7170  136.4050 O   0  0  0  0  0  0  0  0  0  0  0  0
  140.0500  157.6080  135.5370 C   0  0  1  0  0  0  0  0  0  0  0  0
  139.2320  157.6590  136.6530 F   0  0  0  0  0  0  0  0  0  0  0  0
  140.3890  158.9960  135.0950 C   0  0  0  0  0  0  0  0  0  0  0  0
  140.8650  159.8250  135.9140 O   0  0  0  0  0  0  0  0  0  0  0  0
  140.2070  159.3660  133.7690 O   0  0  0  0  0  0  0  0  0  0  0  0
  146.1540  158.1210  133.2370 C   0  0  0  0  0  0  0  0  0  0  0  0
  146.5930  156.8090  133.0300 C   0  0  0  0  0  0  0  0  0  0  0  0
  148.6723  154.6928  133.5621 H   0  0  0  0  0  0  0  0  0  0  0  0
  147.7365  154.6355  132.0299 H   0  0  0  0  0  0  0  0  0  0  0  0
  149.4227  155.2547  132.0299 H   0  0  0  0  0  0  0  0  0  0  0  0
  149.9502  157.5080  132.7257 H   0  0  0  0  0  0  0  0  0  0  0  0
  149.0912  159.8495  133.0738 H   0  0  0  0  0  0  0  0  0  0  0  0
  146.6913  161.3554  133.4797 H   0  0  0  0  0  0  0  0  0  0  0  0
  141.7330  160.9670  134.2430 H   0  0  0  0  0  0  0  0  0  0  0  0
  142.3700  159.2930  134.2610 H   0  0  0  0  0  0  0  0  0  0  0  0
  143.1024  155.8745  134.3165 H   0  0  0  0  0  0  0  0  0  0  0  0
  144.4418  156.6920  135.2002 H   0  0  0  0  0  0  0  0  0  0  0  0
  139.5200  157.0922  134.7227 H   0  0  0  0  0  0  0  0  0  0  0  0
  145.8787  155.9731  132.9982 H   0  0  0  0  0  0  0  0  0  0  0  0
  1  2  1  0
  2  3  2  0
  3  4  1  0
  4  5  2  0
  5  6  1  0
  6  7  2  0
  7  8  1  0
  8  9  1  0
  8 10  2  0
  7 11  1  0
 11 12  1  0
 12 13  2  0
 12 14  1  0
 14 15  1  0
 15 16  1  0
 16 17  2  0
 16 18  1  0
 18 19  1  0
 18 20  1  0
 20 21  2  0
 20 22  1  0
 11 23  1  0
 23 24  2  0
 24  2  1  0
 23  5  1  0
  1 25  1  0
  1 26  1  0
  1 27  1  0
  3 28  1  0
  4 29  1  0
  6 30  1  0
  9 31  1  0
  9 32  1  0
 14 33  1  0
 14 34  1  0
 18 35  1  6
 24 36  1  0
M  CHG  1  22  -1
M  END
>  <UniqueID>  (42) 
42

>  <SMILES>  (42) 
Cc1ccc2cc(C(N)=O)n(C(=O)COC(=O)[C@@H](F)C(=O)[O-])c2c1

>  <Energy>  (42) 
69.55204115642398

>  <Genealogy>  (42) 
Cc1ccc2cc(C(N)=O)n(C(=O)COC(=O)C(F)C(=O)[O-])c2c1 (protonated)
Cc1ccc2cc(C(N)=O)n(C(=O)COC(=O)[C@@H](F)C(=O)[O-])c2c1 (chirality)
Cc1ccc2cc(C(N)=O)n(C(=O)COC(=O)[C@@H](F)C(=O)[O-])c2c1 (3D coordinates assigned)
Cc1ccc2cc(C(N)=O)n(C(=O)COC(=O)[C@@H](F)C(=O)[O-])c2c1 (optimized conformer: 69.55204115642398 kcal/mol)

>  <smiles>  (42) 
Cc1ccc2cc(C(N)=O)n(C(=O)COC(=O)C(F)C(=O)O)c2c1

>  <score_type>  (42) 
oracle

>  <origin>  (42) 
adg

>  <m_score__min__energy>  (42) 
-6.5

>  <m_primary>  (42) 
energy

$$$$
42:0
     RDKit          3D

 44 46  0  0  0  0  0  0  0  0999 V2000
  142.9470  161.1380  133.6300 N   0  0  0  0  0  0  0  0  0  0  0  0
  144.3510  161.3540  133.7410 C   0  0  0  0  0  0  0  0  0  0  0  0
  144.7740  162.4910  134.0800 O   0  0  0  0  0  0  0  0  0  0  0  0
  145.3100  160.2510  133.5270 C   0  0  0  0  0  0  0  0  0  0  0  0
  146.6770  160.4510  133.3500 C   0  0  0  0  0  0  0  0  0  0  0  0
  147.2250  159.1900  133.2820 C   0  0  0  0  0  0  0  0  0  0  0  0
  148.5470  158.7980  133.0990 C   0  0  0  0  0  0  0  0  0  0  0  0
  148.8260  157.4220  133.0390 C   0  0  0  0  0  0  0  0  0  0  0  0
  147.7850  156.4660  133.1650 C   0  0  0  0  0  0  0  0  0  0  0  0
  148.0630  154.9870  133.0710 C   0  0  0  0  0  0  0  0  0  0  0  0
  149.2460  154.7890  132.3840 F   0  0  0  0  0  0  0  0  0  0  0  0
  148.1710  154.4100  134.3240 F   0  0  0  0  0  0  0  0  0  0  0  0
  147.0350  154.3610  132.3890 F   0  0  0  0  0  0  0  0  0  0  0  0
  146.4510  156.9070  133.3320 C   0  0  0  0  0  0  0  0  0  0  0  0
  146.2050  158.2830  133.4070 C   0  0  0  0  0  0  0  0  0  0  0  0
  145.0210  158.9190  133.5530 N   0  0  0  0  0  0  0  0  0  0  0  0
  143.7290  158.2960  133.6270 C   0  0  0  0  0  0  0  0  0  0  0  0
  143.1440  157.9270  132.5720 O   0  0  0  0  0  0  0  0  0  0  0  0
  143.1410  158.0670  134.8730 O   0  0  0  0  0  0  0  0  0  0  0  0
  142.4940  159.0870  135.6260 C   0  0  0  0  0  0  0  0  0  0  0  0
  141.0410  159.2240  135.1650 C   0  0  0  0  0  0  0  0  0  0  0  0
  140.8770  158.8210  133.7500 N   0  0  0  0  0  0  0  0  0  0  0  0
  140.2720  159.9030  132.9370 C   0  0  0  0  0  0  0  0  0  0  0  0
  139.5760  159.3370  131.6880 C   0  0  0  0  0  0  0  0  0  0  0  0
  138.5160  158.4370  131.9850 O   0  0  0  0  0  0  0  0  0  0  0  0
  138.6690  157.7620  133.2250 C   0  0  0  0  0  0  0  0  0  0  0  0
  140.1380  157.5410  133.6290 C   0  0  0  0  0  0  0  0  0  0  0  0
  142.5570  160.1740  133.5470 H   0  0  0  0  0  0  0  0  0  0  0  0
  147.2064  161.4126  133.2795 H   0  0  0  0  0  0  0  0  0  0  0  0
  149.3505  159.5432  133.0040 H   0  0  0  0  0  0  0  0  0  0  0  0
  149.8621  157.0825  132.8929 H   0  0  0  0  0  0  0  0  0  0  0  0
  145.6249  156.1840  133.4014 H   0  0  0  0  0  0  0  0  0  0  0  0
  142.5157  158.8231  136.6937 H   0  0  0  0  0  0  0  0  0  0  0  0
  143.0173  160.0421  135.4714 H   0  0  0  0  0  0  0  0  0  0  0  0
  140.4051  158.5839  135.7943 H   0  0  0  0  0  0  0  0  0  0  0  0
  140.7493  160.2806  135.2574 H   0  0  0  0  0  0  0  0  0  0  0  0
  139.5315  160.4398  133.5482 H   0  0  0  0  0  0  0  0  0  0  0  0
  141.0727  160.5834  132.6115 H   0  0  0  0  0  0  0  0  0  0  0  0
  139.1666  160.1769  131.1075 H   0  0  0  0  0  0  0  0  0  0  0  0
  140.3328  158.7696  131.1266 H   0  0  0  0  0  0  0  0  0  0  0  0
  138.1788  158.3585  134.0085 H   0  0  0  0  0  0  0  0  0  0  0  0
  138.2130  156.7676  133.1095 H   0  0  0  0  0  0  0  0  0  0  0  0
  140.1660  157.0213  134.5981 H   0  0  0  0  0  0  0  0  0  0  0  0
  140.6211  156.9415  132.8433 H   0  0  0  0  0  0  0  0  0  0  0  0
  1  2  1  0
  2  3  2  0
  2  4  1  0
  4  5  2  0
  5  6  1  0
  6  7  2  0
  7  8  1  0
  8  9  2  0
  9 10  1  0
 10 11  1  0
 10 12  1  0
 10 13  1  0
  9 14  1  0
 14 15  2  0
 15 16  1  0
 16 17  1  0
 17 18  2  0
 17 19  1  0
 19 20  1  0
 20 21  1  0
 21 22  1  0
 22 23  1  0
 23 24  1  0
 24 25  1  0
 25 26  1  0
 26 27  1  0
 16  4  1  0
 27 22  1  0
 15  6  1  0
  1 28  1  0
  5 29  1  0
  7 30  1  0
  8 31  1  0
 14 32  1  0
 20 33  1  0
 20 34  1  0
 21 35  1  0
 21 36  1  0
 23 37  1  0
 23 38  1  0
 24 39  1  0
 24 40  1  0
 26 41  1  0
 26 42  1  0
 27 43  1  0
 27 44  1  0
M  CHG  1   1  -1
M  END
>  <UniqueID>  (43) 
43

>  <SMILES>  (43) 
[NH-]C(=O)c1cc2ccc(C(F)(F)F)cc2n1C(=O)OCCN1CCOCC1

>  <Energy>  (43) 
94.22503929205841

>  <Genealogy>  (43) 
[NH-]C(=O)c1cc2ccc(C(F)(F)F)cc2n1C(=O)OCCN1CCOCC1 (protonated)
[NH-]C(=O)c1cc2ccc(C(F)(F)F)cc2n1C(=O)OCCN1CCOCC1 (3D coordinates assigned)
[NH-]C(=O)c1cc2ccc(C(F)(F)F)cc2n1C(=O)OCCN1CCOCC1 (nonaromatic ring conformer: 94.22503929205841 kcal/mol)

>  <smiles>  (43) 
NC(=O)c1cc2ccc(C(F)(F)F)cc2n1C(=O)OCCN1CCOCC1

>  <score_type>  (43) 
oracle

>  <origin>  (43) 
adg

>  <m_score__min__energy>  (43) 
-6.75

>  <m_primary>  (43) 
energy

$$$$
43:0
     RDKit          3D

 41 42  0  0  0  0  0  0  0  0999 V2000
  139.8380  157.9090  136.2380 C   0  0  0  0  0  0  0  0  0  0  0  0
  140.7250  157.9070  135.0720 N   0  0  0  0  0  0  0  0  0  0  0  0
  140.2220  157.4220  133.7770 C   0  0  0  0  0  0  0  0  0  0  0  0
  139.7140  158.5550  132.9320 C   0  0  0  0  0  0  0  0  0  0  0  0
  140.4870  159.4740  132.5500 O   0  0  0  0  0  0  0  0  0  0  0  0
  138.3630  158.6120  132.6010 O   0  0  0  0  0  0  0  0  0  0  0  0
  142.1260  158.2040  135.2540 C   0  0  0  0  0  0  0  0  0  0  0  0
  142.4790  159.1270  136.0370 O   0  0  0  0  0  0  0  0  0  0  0  0
  143.1340  157.4490  134.5670 N   0  0  0  0  0  0  0  0  0  0  0  0
  143.4690  156.1040  135.0390 C   0  0  0  0  0  0  0  0  0  0  0  0
  143.7030  157.9560  133.3470 C   0  0  0  0  0  0  0  0  0  0  0  0
  143.0670  157.8610  132.2620 O   0  0  0  0  0  0  0  0  0  0  0  0
  144.9840  158.5980  133.3510 N   0  0  0  0  0  0  0  0  0  0  0  0
  145.2510  159.9260  133.4760 C   0  0  0  0  0  0  0  0  0  0  0  0
  144.2500  160.9900  133.7050 C   0  0  0  0  0  0  0  0  0  0  0  0
  142.8810  160.7950  133.3570 N   0  0  0  0  0  0  0  0  0  0  0  0
  144.6020  162.0780  134.2320 O   0  0  0  0  0  0  0  0  0  0  0  0
  146.6250  160.1520  133.3930 C   0  0  0  0  0  0  0  0  0  0  0  0
  147.1900  158.9090  133.2110 C   0  0  0  0  0  0  0  0  0  0  0  0
  148.5250  158.5370  133.0670 C   0  0  0  0  0  0  0  0  0  0  0  0
  148.8120  157.1730  132.8850 C   0  0  0  0  0  0  0  0  0  0  0  0
  147.7680  156.2150  132.8350 C   0  0  0  0  0  0  0  0  0  0  0  0
  148.0930  154.7590  132.6700 C   0  0  0  0  0  0  0  0  0  0  0  0
  149.4650  154.5970  132.5930 F   0  0  0  0  0  0  0  0  0  0  0  0
  146.4280  156.6280  132.9990 C   0  0  0  0  0  0  0  0  0  0  0  0
  146.1750  157.9890  133.1870 C   0  0  0  0  0  0  0  0  0  0  0  0
  140.4414  157.9076  137.1577 H   0  0  0  0  0  0  0  0  0  0  0  0
  139.2053  158.8086  136.2159 H   0  0  0  0  0  0  0  0  0  0  0  0
  139.2013  157.0123  136.2159 H   0  0  0  0  0  0  0  0  0  0  0  0
  141.0383  156.9140  133.2426 H   0  0  0  0  0  0  0  0  0  0  0  0
  139.3898  156.7277  133.9649 H   0  0  0  0  0  0  0  0  0  0  0  0
  143.4721  156.0916  136.1389 H   0  0  0  0  0  0  0  0  0  0  0  0
  142.7218  155.3879  134.6663 H   0  0  0  0  0  0  0  0  0  0  0  0
  144.4648  155.8221  134.6663 H   0  0  0  0  0  0  0  0  0  0  0  0
  142.5900  160.0090  132.7340 H   0  0  0  0  0  0  0  0  0  0  0  0
  147.1468  161.1181  133.4589 H   0  0  0  0  0  0  0  0  0  0  0  0
  149.3291  159.2871  133.0949 H   0  0  0  0  0  0  0  0  0  0  0  0
  149.8569  156.8457  132.7803 H   0  0  0  0  0  0  0  0  0  0  0  0
  147.7056  154.1971  133.5326 H   0  0  0  0  0  0  0  0  0  0  0  0
  147.6277  154.3824  131.7471 H   0  0  0  0  0  0  0  0  0  0  0  0
  145.6054  155.8980  132.9793 H   0  0  0  0  0  0  0  0  0  0  0  0
  1  2  1  0
  2  3  1  0
  3  4  1  0
  4  5  2  0
  4  6  1  0
  2  7  1  0
  7  8  2  0
  7  9  1  0
  9 10  1  0
  9 11  1  0
 11 12  2  0
 11 13  1  0
 13 14  1  0
 14 15  1  0
 15 16  1  0
 15 17  2  0
 14 18  2  0
 18 19  1  0
 19 20  2  0
 20 21  1  0
 21 22  2  0
 22 23  1  0
 23 24  1  0
 22 25  1  0
 25 26  2  0
 26 13  1  0
 26 19  1  0
  1 27  1  0
  1 28  1  0
  1 29  1  0
  3 30  1  0
  3 31  1  0
 10 32  1  0
 10 33  1  0
 10 34  1  0
 16 35  1  0
 18 36  1  0
 20 37  1  0
 21 38  1  0
 23 39  1  0
 23 40  1  0
 25 41  1  0
M  CHG  2   6  -1  16  -1
M  END
>  <UniqueID>  (44) 
44

>  <SMILES>  (44) 
CN(CC(=O)[O-])C(=O)N(C)C(=O)n1c(C([NH-])=O)cc2ccc(CF)cc21

>  <Energy>  (44) 
82.81312274282902

>  <Genealogy>  (44) 
CN(CC(=O)[O-])C(=O)N(C)C(=O)n1c(C([NH-])=O)cc2ccc(CF)cc21 (protonated)
CN(CC(=O)[O-])C(=O)N(C)C(=O)n1c(C([NH-])=O)cc2ccc(CF)cc21 (3D coordinates assigned)
CN(CC(=O)[O-])C(=O)N(C)C(=O)n1c(C([NH-])=O)cc2ccc(CF)cc21 (optimized conformer: 82.81312274282902 kcal/mol)

>  <smiles>  (44) 
CN(CC(=O)O)C(=O)N(C)C(=O)n1c(C(N)=O)cc2ccc(CF)cc21

>  <score_type>  (44) 
oracle

>  <origin>  (44) 
adg

>  <m_score__min__energy>  (44) 
-6.1900000000000004

>  <m_primary>  (44) 
energy

$$$$
44:0
     RDKit          3D

 42 43  0  0  0  0  0  0  0  0999 V2000
  139.5540  158.2230  135.6950 C   0  0  0  0  0  0  0  0  0  0  0  0
  139.7040  157.6790  134.3410 N   0  0  0  0  0  0  0  0  0  0  0  0
  138.9630  158.2970  133.2300 C   0  0  0  0  0  0  0  0  0  0  0  0
  139.8350  159.3230  132.4990 C   0  0  0  0  0  0  0  0  0  0  0  0
  140.8920  158.6880  131.8310 O   0  0  0  0  0  0  0  0  0  0  0  0
  140.6060  156.5670  134.1350 C   0  0  0  0  0  0  0  0  0  0  0  0
  140.2740  155.6290  133.3580 O   0  0  0  0  0  0  0  0  0  0  0  0
  141.9630  156.5120  134.7730 C   0  0  0  0  0  0  0  0  0  0  0  0
  142.6710  157.7080  134.4700 O   0  0  0  0  0  0  0  0  0  0  0  0
  143.4370  157.8630  133.3120 C   0  0  0  0  0  0  0  0  0  0  0  0
  143.0550  157.3490  132.2250 O   0  0  0  0  0  0  0  0  0  0  0  0
  144.6500  158.6300  133.3570 N   0  0  0  0  0  0  0  0  0  0  0  0
  144.7890  159.9630  133.6050 C   0  0  0  0  0  0  0  0  0  0  0  0
  143.6910  160.9450  133.7250 C   0  0  0  0  0  0  0  0  0  0  0  0
  142.3280  160.5280  133.7070 N   0  0  0  0  0  0  0  0  0  0  0  0
  143.9590  162.1740  133.7940 O   0  0  0  0  0  0  0  0  0  0  0  0
  146.1370  160.3140  133.6460 C   0  0  0  0  0  0  0  0  0  0  0  0
  146.8250  159.1480  133.4030 C   0  0  0  0  0  0  0  0  0  0  0  0
  148.1960  158.9160  133.3350 C   0  0  0  0  0  0  0  0  0  0  0  0
  148.6300  157.6020  133.0920 C   0  0  0  0  0  0  0  0  0  0  0  0
  147.6940  156.5510  132.9290 C   0  0  0  0  0  0  0  0  0  0  0  0
  148.1790  155.1510  132.6850 C   0  0  0  0  0  0  0  0  0  0  0  0
  147.8930  154.3600  133.7830 F   0  0  0  0  0  0  0  0  0  0  0  0
  149.5460  155.1610  132.4750 F   0  0  0  0  0  0  0  0  0  0  0  0
  146.3100  156.8240  133.0060 C   0  0  0  0  0  0  0  0  0  0  0  0
  145.9060  158.1460  133.2310 C   0  0  0  0  0  0  0  0  0  0  0  0
  139.7710  157.4361  136.4324 H   0  0  0  0  0  0  0  0  0  0  0  0
  140.2551  159.0591  135.8340 H   0  0  0  0  0  0  0  0  0  0  0  0
  138.5234  158.5817  135.8340 H   0  0  0  0  0  0  0  0  0  0  0  0
  138.6565  157.5138  132.5210 H   0  0  0  0  0  0  0  0  0  0  0  0
  138.0801  158.8111  133.6376 H   0  0  0  0  0  0  0  0  0  0  0  0
  139.2184  159.8647  131.7667 H   0  0  0  0  0  0  0  0  0  0  0  0
  140.2527  160.0229  133.2377 H   0  0  0  0  0  0  0  0  0  0  0  0
  141.7320  159.0510  132.2200 H   0  0  0  0  0  0  0  0  0  0  0  0
  141.8533  156.4155  135.8633 H   0  0  0  0  0  0  0  0  0  0  0  0
  142.5187  155.6453  134.3856 H   0  0  0  0  0  0  0  0  0  0  0  0
  142.0700  159.5440  133.4720 H   0  0  0  0  0  0  0  0  0  0  0  0
  146.5608  161.3117  133.8330 H   0  0  0  0  0  0  0  0  0  0  0  0
  148.9171  159.7360  133.4674 H   0  0  0  0  0  0  0  0  0  0  0  0
  149.7069  157.3872  133.0277 H   0  0  0  0  0  0  0  0  0  0  0  0
  147.6727  154.7451  131.7968 H   0  0  0  0  0  0  0  0  0  0  0  0
  145.5689  156.0191  132.8922 H   0  0  0  0  0  0  0  0  0  0  0  0
  1  2  1  0
  2  3  1  0
  3  4  1  0
  4  5  1  0
  2  6  1  0
  6  7  2  0
  6  8  1  0
  8  9  1  0
  9 10  1  0
 10 11  2  0
 10 12  1  0
 12 13  1  0
 13 14  1  0
 14 15  1  0
 14 16  2  0
 13 17  2  0
 17 18  1  0
 18 19  2  0
 19 20  1  0
 20 21  2  0
 21 22  1  0
 22 23  1  0
 22 24  1  0
 21 25  1  0
 25 26  2  0
 26 12  1  0
 26 18  1  0
  1 27  1  0
  1 28  1  0
  1 29  1  0
  3 30  1  0
  3 31  1  0
  4 32  1  0
  4 33  1  0
  5 34  1  0
  8 35  1  0
  8 36  1  0
 15 37  1  0
 17 38  1  0
 19 39  1  0
 20 40  1  0
 22 41  1  0
 25 42  1  0
M  CHG  1  15  -1
M  END
>  <UniqueID>  (45) 
45

>  <SMILES>  (45) 
CN(CCO)C(=O)COC(=O)n1c(C([NH-])=O)cc2ccc(C(F)F)cc21

>  <Energy>  (45) 
74.00990798651857

>  <Genealogy>  (45) 
CN(CCO)C(=O)COC(=O)n1c(C([NH-])=O)cc2ccc(C(F)F)cc21 (protonated)
CN(CCO)C(=O)COC(=O)n1c(C([NH-])=O)cc2ccc(C(F)F)cc21 (3D coordinates assigned)
CN(CCO)C(=O)COC(=O)n1c(C([NH-])=O)cc2ccc(C(F)F)cc21 (optimized conformer: 74.00990798651857 kcal/mol)

>  <smiles>  (45) 
CN(CCO)C(=O)COC(=O)n1c(C(N)=O)cc2ccc(C(F)F)cc21

>  <score_type>  (45) 
oracle

>  <origin>  (45) 
adg

>  <m_score__min__energy>  (45) 
-5.6699999999999999

>  <m_primary>  (45) 
energy

$$$$
45:0
     RDKit          3D

 41 42  0  0  0  0  0  0  0  0999 V2000
  140.9070  155.0110  133.3770 C   0  0  0  0  0  0  0  0  0  0  0  0
  141.1740  156.4260  133.1000 N   0  0  0  0  0  0  0  0  0  0  0  0
  140.0450  157.3590  132.9600 C   0  0  0  0  0  0  0  0  0  0  0  0
  139.0160  157.1790  134.0890 C   0  0  0  0  0  0  0  0  0  0  0  0
  139.1730  158.2090  135.2160 C   0  0  0  0  0  0  0  0  0  0  0  0
  140.2120  157.8500  136.0860 O   0  0  0  0  0  0  0  0  0  0  0  0
  142.5250  156.9270  133.0390 C   0  0  0  0  0  0  0  0  0  0  0  0
  143.2340  156.6630  132.0290 O   0  0  0  0  0  0  0  0  0  0  0  0
  143.1210  157.7200  134.1360 C   0  0  0  0  0  0  0  0  0  0  0  0
  142.8590  157.4530  135.3370 O   0  0  0  0  0  0  0  0  0  0  0  0
  144.0490  158.7710  133.8420 N   0  0  0  0  0  0  0  0  0  0  0  0
  143.8250  160.1150  133.8740 C   0  0  0  0  0  0  0  0  0  0  0  0
  142.5200  160.7690  134.1110 C   0  0  0  0  0  0  0  0  0  0  0  0
  141.5060  160.1290  134.8780 N   0  0  0  0  0  0  0  0  0  0  0  0
  142.2890  161.9010  133.6130 O   0  0  0  0  0  0  0  0  0  0  0  0
  145.0030  160.8100  133.5930 C   0  0  0  0  0  0  0  0  0  0  0  0
  145.9600  159.8390  133.3960 C   0  0  0  0  0  0  0  0  0  0  0  0
  147.3130  159.9590  133.0930 C   0  0  0  0  0  0  0  0  0  0  0  0
  148.0660  158.7780  132.9600 C   0  0  0  0  0  0  0  0  0  0  0  0
  147.4630  157.5050  133.1530 C   0  0  0  0  0  0  0  0  0  0  0  0
  148.2680  156.2430  132.9750 C   0  0  0  0  0  0  0  0  0  0  0  0
  148.4150  155.5890  134.1850 F   0  0  0  0  0  0  0  0  0  0  0  0
  149.5270  156.5300  132.4810 F   0  0  0  0  0  0  0  0  0  0  0  0
  147.6160  155.4060  132.0870 F   0  0  0  0  0  0  0  0  0  0  0  0
  146.0800  157.4270  133.4360 C   0  0  0  0  0  0  0  0  0  0  0  0
  145.3580  158.6180  133.5530 C   0  0  0  0  0  0  0  0  0  0  0  0
  140.8766  154.8497  134.4647 H   0  0  0  0  0  0  0  0  0  0  0  0
  139.9395  154.7275  132.9371 H   0  0  0  0  0  0  0  0  0  0  0  0
  141.7046  154.3944  132.9371 H   0  0  0  0  0  0  0  0  0  0  0  0
  140.4285  158.3896  132.9879 H   0  0  0  0  0  0  0  0  0  0  0  0
  139.5444  157.1509  132.0029 H   0  0  0  0  0  0  0  0  0  0  0  0
  138.0070  157.2780  133.6622 H   0  0  0  0  0  0  0  0  0  0  0  0
  139.1814  156.1842  134.5282 H   0  0  0  0  0  0  0  0  0  0  0  0
  139.3964  159.1920  134.7758 H   0  0  0  0  0  0  0  0  0  0  0  0
  138.2346  158.2463  135.7887 H   0  0  0  0  0  0  0  0  0  0  0  0
  141.0490  158.2230  135.7010 H   0  0  0  0  0  0  0  0  0  0  0  0
  141.7120  159.2730  135.4390 H   0  0  0  0  0  0  0  0  0  0  0  0
  145.1380  161.9004  133.5402 H   0  0  0  0  0  0  0  0  0  0  0  0
  147.7792  160.9466  132.9616 H   0  0  0  0  0  0  0  0  0  0  0  0
  149.1339  158.8403  132.7037 H   0  0  0  0  0  0  0  0  0  0  0  0
  145.5844  156.4530  133.5610 H   0  0  0  0  0  0  0  0  0  0  0  0
  1  2  1  0
  2  3  1  0
  3  4  1  0
  4  5  1  0
  5  6  1  0
  2  7  1  0
  7  8  2  0
  7  9  1  0
  9 10  2  0
  9 11  1  0
 11 12  1  0
 12 13  1  0
 13 14  1  0
 13 15  2  0
 12 16  2  0
 16 17  1  0
 17 18  2  0
 18 19  1  0
 19 20  2  0
 20 21  1  0
 21 22  1  0
 21 23  1  0
 21 24  1  0
 20 25  1  0
 25 26  2  0
 26 11  1  0
 26 17  1  0
  1 27  1  0
  1 28  1  0
  1 29  1  0
  3 30  1  0
  3 31  1  0
  4 32  1  0
  4 33  1  0
  5 34  1  0
  5 35  1  0
  6 36  1  0
 14 37  1  0
 16 38  1  0
 18 39  1  0
 19 40  1  0
 25 41  1  0
M  CHG  1  14  -1
M  END
>  <UniqueID>  (46) 
46

>  <SMILES>  (46) 
CN(CCCO)C(=O)C(=O)n1c(C([NH-])=O)cc2ccc(C(F)(F)F)cc21

>  <Energy>  (46) 
77.85138989048764

>  <Genealogy>  (46) 
CN(CCCO)C(=O)C(=O)n1c(C([NH-])=O)cc2ccc(C(F)(F)F)cc21 (protonated)
CN(CCCO)C(=O)C(=O)n1c(C([NH-])=O)cc2ccc(C(F)(F)F)cc21 (3D coordinates assigned)
CN(CCCO)C(=O)C(=O)n1c(C([NH-])=O)cc2ccc(C(F)(F)F)cc21 (optimized conformer: 77.85138989048764 kcal/mol)

>  <smiles>  (46) 
CN(CCCO)C(=O)C(=O)n1c(C(N)=O)cc2ccc(C(F)(F)F)cc21

>  <score_type>  (46) 
oracle

>  <origin>  (46) 
adg

>  <m_score__min__energy>  (46) 
-5.7000000000000002

>  <m_primary>  (46) 
energy

$$$$
46:0
     RDKit          3D

 56 57  0  0  0  0  0  0  0  0999 V2000
  148.2040  150.6830  132.3490 C   0  0  0  0  0  0  0  0  0  0  0  0
  148.8360  151.6060  133.3000 N   0  0  0  0  0  0  0  0  0  0  0  0
  149.6610  151.1010  134.4020 C   0  0  0  0  0  0  0  0  0  0  0  0
  148.8940  153.0070  132.9850 C   0  0  0  0  0  0  0  0  0  0  0  0
  149.9400  153.4680  132.4470 O   0  0  0  0  0  0  0  0  0  0  0  0
  147.6880  153.9280  133.1740 C   0  0  0  0  0  0  0  0  0  0  0  0
  147.7480  154.6630  134.5390 C   0  0  0  0  0  0  0  0  0  0  0  0
  146.4260  153.0300  133.1660 C   0  0  0  0  0  0  0  0  0  0  0  0
  147.5780  154.9130  132.0560 N   0  0  0  0  0  0  0  0  0  0  0  0
  147.5110  156.3010  132.4760 C   0  0  0  0  0  0  0  0  0  0  0  0
  148.6980  157.0720  132.6120 C   0  0  0  0  0  0  0  0  0  0  0  0
  148.6410  158.4240  132.9910 C   0  0  0  0  0  0  0  0  0  0  0  0
  147.3900  158.9850  133.2240 C   0  0  0  0  0  0  0  0  0  0  0  0
  147.0580  160.2550  133.6280 C   0  0  0  0  0  0  0  0  0  0  0  0
  145.6700  160.2600  133.7310 C   0  0  0  0  0  0  0  0  0  0  0  0
  144.8990  161.4670  134.0880 C   0  0  0  0  0  0  0  0  0  0  0  0
  143.5250  161.5990  133.7260 N   0  0  0  0  0  0  0  0  0  0  0  0
  145.4730  162.4230  134.6800 O   0  0  0  0  0  0  0  0  0  0  0  0
  145.1560  159.0350  133.4110 N   0  0  0  0  0  0  0  0  0  0  0  0
  143.8000  158.5790  133.5770 C   0  0  0  0  0  0  0  0  0  0  0  0
  143.2560  157.8930  132.6710 O   0  0  0  0  0  0  0  0  0  0  0  0
  143.0810  158.9400  134.7250 O   0  0  0  0  0  0  0  0  0  0  0  0
  141.6690  158.7900  134.9360 C   0  0  0  0  0  0  0  0  0  0  0  0
  141.2610  159.3880  136.2940 C   0  0  0  0  0  0  0  0  0  0  0  0
  141.2550  157.3070  134.8520 C   0  0  0  0  0  0  0  0  0  0  0  0
  140.9620  159.5610  133.8090 C   0  0  0  0  0  0  0  0  0  0  0  0
  146.2280  158.2670  133.0910 C   0  0  0  0  0  0  0  0  0  0  0  0
  146.2570  156.9190  132.7080 C   0  0  0  0  0  0  0  0  0  0  0  0
  147.6667  149.8982  132.9017 H   0  0  0  0  0  0  0  0  0  0  0  0
  147.4949  151.2371  131.7164 H   0  0  0  0  0  0  0  0  0  0  0  0
  148.9770  150.2222  131.7164 H   0  0  0  0  0  0  0  0  0  0  0  0
  149.2025  151.3816  135.3617 H   0  0  0  0  0  0  0  0  0  0  0  0
  149.7308  150.0052  134.3355 H   0  0  0  0  0  0  0  0  0  0  0  0
  150.6686  151.5373  134.3355 H   0  0  0  0  0  0  0  0  0  0  0  0
  147.6879  153.9273  135.3545 H   0  0  0  0  0  0  0  0  0  0  0  0
  148.6945  155.2183  134.6151 H   0  0  0  0  0  0  0  0  0  0  0  0
  146.9041  155.3645  134.6151 H   0  0  0  0  0  0  0  0  0  0  0  0
  146.1229  152.8143  134.2012 H   0  0  0  0  0  0  0  0  0  0  0  0
  145.6087  153.5508  132.6456 H   0  0  0  0  0  0  0  0  0  0  0  0
  146.6501  152.0872  132.6456 H   0  0  0  0  0  0  0  0  0  0  0  0
  146.7240  154.7040  131.4940 H   0  0  0  0  0  0  0  0  0  0  0  0
  148.3830  154.7940  131.3960 H   0  0  0  0  0  0  0  0  0  0  0  0
  149.6742  156.6037  132.4179 H   0  0  0  0  0  0  0  0  0  0  0  0
  149.5586  159.0208  133.1001 H   0  0  0  0  0  0  0  0  0  0  0  0
  147.7440  161.0913  133.8279 H   0  0  0  0  0  0  0  0  0  0  0  0
  142.9390  160.7510  133.5500 H   0  0  0  0  0  0  0  0  0  0  0  0
  141.6796  158.7745  137.1054 H   0  0  0  0  0  0  0  0  0  0  0  0
  141.6478  160.4147  136.3736 H   0  0  0  0  0  0  0  0  0  0  0  0
  140.1640  159.4023  136.3736 H   0  0  0  0  0  0  0  0  0  0  0  0
  141.1414  156.9000  135.8676 H   0  0  0  0  0  0  0  0  0  0  0  0
  140.2991  157.2231  134.3143 H   0  0  0  0  0  0  0  0  0  0  0  0
  142.0292  156.7401  134.3143 H   0  0  0  0  0  0  0  0  0  0  0  0
  140.2797  160.3051  134.2458 H   0  0  0  0  0  0  0  0  0  0  0  0
  141.7122  160.0718  133.1875 H   0  0  0  0  0  0  0  0  0  0  0  0
  140.3883  158.8577  133.1875 H   0  0  0  0  0  0  0  0  0  0  0  0
  145.3227  156.3507  132.5895 H   0  0  0  0  0  0  0  0  0  0  0  0
  1  2  1  0
  2  3  1  0
  2  4  1  0
  4  5  2  0
  4  6  1  0
  6  7  1  0
  6  8  1  0
  6  9  1  0
  9 10  1  0
 10 11  2  0
 11 12  1  0
 12 13  2  0
 13 14  1  0
 14 15  2  0
 15 16  1  0
 16 17  1  0
 16 18  2  0
 15 19  1  0
 19 20  1  0
 20 21  2  0
 20 22  1  0
 22 23  1  0
 23 24  1  0
 23 25  1  0
 23 26  1  0
 19 27  1  0
 27 28  2  0
 28 10  1  0
 27 13  1  0
  1 29  1  0
  1 30  1  0
  1 31  1  0
  3 32  1  0
  3 33  1  0
  3 34  1  0
  7 35  1  0
  7 36  1  0
  7 37  1  0
  8 38  1  0
  8 39  1  0
  8 40  1  0
  9 41  1  0
  9 42  1  0
 11 43  1  0
 12 44  1  0
 14 45  1  0
 17 46  1  0
 24 47  1  0
 24 48  1  0
 24 49  1  0
 25 50  1  0
 25 51  1  0
 25 52  1  0
 26 53  1  0
 26 54  1  0
 26 55  1  0
 28 56  1  0
M  CHG  2   9   1  17  -1
M  END
>  <UniqueID>  (47) 
47

>  <SMILES>  (47) 
CN(C)C(=O)C(C)(C)[NH2+]c1ccc2cc(C([NH-])=O)n(C(=O)OC(C)(C)C)c2c1

>  <Energy>  (47) 
96.78354417495923

>  <Genealogy>  (47) 
CN(C)C(=O)C(C)(C)[NH2+]c1ccc2cc(C([NH-])=O)n(C(=O)OC(C)(C)C)c2c1 (protonated)
CN(C)C(=O)C(C)(C)[NH2+]c1ccc2cc(C([NH-])=O)n(C(=O)OC(C)(C)C)c2c1 (3D coordinates assigned)
CN(C)C(=O)C(C)(C)[NH2+]c1ccc2cc(C([NH-])=O)n(C(=O)OC(C)(C)C)c2c1 (optimized conformer: 96.78354417495923 kcal/mol)

>  <smiles>  (47) 
CN(C)C(=O)C(C)(C)Nc1ccc2cc(C(N)=O)n(C(=O)OC(C)(C)C)c2c1

>  <score_type>  (47) 
oracle

>  <origin>  (47) 
adg

>  <m_score__min__energy>  (47) 
-8.5299999999999994

>  <m_primary>  (47) 
energy

$$$$
47:0
     RDKit          3D

 38 39  0  0  0  0  0  0  0  0999 V2000
  140.9820  159.2560  137.1340 C   0  0  0  0  0  0  0  0  0  0  0  0
  141.0610  158.3650  136.0280 O   0  0  0  0  0  0  0  0  0  0  0  0
  140.1130  158.3520  135.0000 C   0  0  0  0  0  0  0  0  0  0  0  0
  138.8850  158.2170  135.2620 O   0  0  0  0  0  0  0  0  0  0  0  0
  140.5720  158.4370  133.5760 C   0  0  1  0  0  0  0  0  0  0  0  0
  139.5060  158.8380  132.7890 F   0  0  0  0  0  0  0  0  0  0  0  0
  141.7300  159.4270  133.3980 C   0  0  0  0  0  0  0  0  0  0  0  0
  142.9310  158.7720  132.9890 O   0  0  0  0  0  0  0  0  0  0  0  0
  144.1990  159.1080  133.4820 C   0  0  0  0  0  0  0  0  0  0  0  0
  144.4040  160.2520  133.9700 O   0  0  0  0  0  0  0  0  0  0  0  0
  145.2590  158.1320  133.4590 N   0  0  0  0  0  0  0  0  0  0  0  0
  145.2730  156.9140  134.0710 C   0  0  0  0  0  0  0  0  0  0  0  0
  144.1270  156.2680  134.7390 C   0  0  0  0  0  0  0  0  0  0  0  0
  143.0280  157.0380  135.2240 N   0  0  0  0  0  0  0  0  0  0  0  0
  144.0900  155.0120  134.8300 O   0  0  0  0  0  0  0  0  0  0  0  0
  146.5200  156.3130  133.9550 C   0  0  0  0  0  0  0  0  0  0  0  0
  147.2840  157.2010  133.2350 C   0  0  0  0  0  0  0  0  0  0  0  0
  148.6130  157.1120  132.8370 C   0  0  0  0  0  0  0  0  0  0  0  0
  149.1640  158.1950  132.1320 C   0  0  0  0  0  0  0  0  0  0  0  0
  148.3910  159.3530  131.8630 C   0  0  0  0  0  0  0  0  0  0  0  0
  148.9860  160.4930  131.0750 C   0  0  0  0  0  0  0  0  0  0  0  0
  150.3600  160.4690  131.2070 F   0  0  0  0  0  0  0  0  0  0  0  0
  148.5090  161.7070  131.5360 F   0  0  0  0  0  0  0  0  0  0  0  0
  148.6590  160.3820  129.7340 F   0  0  0  0  0  0  0  0  0  0  0  0
  147.0360  159.3950  132.2650 C   0  0  0  0  0  0  0  0  0  0  0  0
  146.5040  158.2930  132.9490 C   0  0  0  0  0  0  0  0  0  0  0  0
  141.0329  158.6824  138.0713 H   0  0  0  0  0  0  0  0  0  0  0  0
  141.8206  159.9666  137.0930 H   0  0  0  0  0  0  0  0  0  0  0  0
  140.0314  159.8079  137.0930 H   0  0  0  0  0  0  0  0  0  0  0  0
  140.9356  157.4433  133.2754 H   0  0  0  0  0  0  0  0  0  0  0  0
  141.4507  160.1676  132.6341 H   0  0  0  0  0  0  0  0  0  0  0  0
  141.9181  159.9103  134.3681 H   0  0  0  0  0  0  0  0  0  0  0  0
  142.2380  156.5670  135.7180 H   0  0  0  0  0  0  0  0  0  0  0  0
  142.9580  158.0600  135.0210 H   0  0  0  0  0  0  0  0  0  0  0  0
  146.8299  155.3358  134.3538 H   0  0  0  0  0  0  0  0  0  0  0  0
  149.2150  156.2205  133.0671 H   0  0  0  0  0  0  0  0  0  0  0  0
  150.2065  158.1442  131.7848 H   0  0  0  0  0  0  0  0  0  0  0  0
  146.4123  160.2741  132.0456 H   0  0  0  0  0  0  0  0  0  0  0  0
  1  2  1  0
  2  3  1  0
  3  4  2  0
  3  5  1  0
  5  6  1  0
  5  7  1  0
  7  8  1  0
  8  9  1  0
  9 10  2  0
  9 11  1  0
 11 12  1  0
 12 13  1  0
 13 14  1  0
 13 15  2  0
 12 16  2  0
 16 17  1  0
 17 18  2  0
 18 19  1  0
 19 20  2  0
 20 21  1  0
 21 22  1  0
 21 23  1  0
 21 24  1  0
 20 25  1  0
 25 26  2  0
 26 11  1  0
 26 17  1  0
  1 27  1  0
  1 28  1  0
  1 29  1  0
  5 30  1  6
  7 31  1  0
  7 32  1  0
 14 33  1  0
 14 34  1  0
 16 35  1  0
 18 36  1  0
 19 37  1  0
 25 38  1  0
M  END
>  <UniqueID>  (48) 
48

>  <SMILES>  (48) 
COC(=O)[C@@H](F)COC(=O)n1c(C(N)=O)cc2ccc(C(F)(F)F)cc21

>  <Energy>  (48) 
71.62826357509073

>  <Genealogy>  (48) 
COC(=O)[C@@H](F)COC(=O)n1c(C(N)=O)cc2ccc(C(F)(F)F)cc21 (chirality)
COC(=O)[C@@H](F)COC(=O)n1c(C(N)=O)cc2ccc(C(F)(F)F)cc21 (3D coordinates assigned)
COC(=O)[C@@H](F)COC(=O)n1c(C(N)=O)cc2ccc(C(F)(F)F)cc21 (optimized conformer: 71.62826357509073 kcal/mol)

>  <smiles>  (48) 
COC(=O)C(F)COC(=O)n1c(C(N)=O)cc2ccc(C(F)(F)F)cc21

>  <score_type>  (48) 
oracle

>  <origin>  (48) 
adg

>  <m_score__min__energy>  (48) 
-5.5199999999999996

>  <m_primary>  (48) 
energy

$$$$
48:0
     RDKit          3D

 40 41  0  0  0  0  0  0  0  0999 V2000
  140.6330  159.3930  132.1810 C   0  0  0  0  0  0  0  0  0  0  0  0
  141.0710  158.5760  133.3290 N   0  0  1  0  0  0  0  0  0  0  0  0
  140.1150  157.4850  133.6340 C   0  0  0  0  0  0  0  0  0  0  0  0
  139.1520  157.8510  134.7770 C   0  0  0  0  0  0  0  0  0  0  0  0
  139.9110  158.3780  135.9530 C   0  0  0  0  0  0  0  0  0  0  0  0
  139.8560  157.7820  137.0620 O   0  0  0  0  0  0  0  0  0  0  0  0
  140.6410  159.5550  135.8390 O   0  0  0  0  0  0  0  0  0  0  0  0
  142.3730  158.0110  133.0360 C   0  0  0  0  0  0  0  0  0  0  0  0
  142.5880  157.4810  131.9090 O   0  0  0  0  0  0  0  0  0  0  0  0
  143.4760  158.0580  134.0210 C   0  0  0  0  0  0  0  0  0  0  0  0
  143.3310  157.5420  135.1630 O   0  0  0  0  0  0  0  0  0  0  0  0
  144.7190  158.6960  133.6900 N   0  0  0  0  0  0  0  0  0  0  0  0
  144.9810  160.0320  133.6350 C   0  0  0  0  0  0  0  0  0  0  0  0
  143.9880  161.1130  133.8170 C   0  0  0  0  0  0  0  0  0  0  0  0
  142.6150  160.7880  134.0240 N   0  0  0  0  0  0  0  0  0  0  0  0
  144.3420  162.3200  133.8100 O   0  0  0  0  0  0  0  0  0  0  0  0
  146.3230  160.2520  133.3280 C   0  0  0  0  0  0  0  0  0  0  0  0
  146.8790  158.9980  133.2020 C   0  0  0  0  0  0  0  0  0  0  0  0
  148.1890  158.6220  132.9210 C   0  0  0  0  0  0  0  0  0  0  0  0
  148.4870  157.2490  132.8840 C   0  0  0  0  0  0  0  0  0  0  0  0
  147.4790  156.2840  133.1350 C   0  0  0  0  0  0  0  0  0  0  0  0
  147.8240  154.8220  133.1110 C   0  0  0  0  0  0  0  0  0  0  0  0
  147.6640  154.2840  134.3750 F   0  0  0  0  0  0  0  0  0  0  0  0
  149.1360  154.6590  132.7070 F   0  0  0  0  0  0  0  0  0  0  0  0
  146.1590  156.7030  133.4150 C   0  0  0  0  0  0  0  0  0  0  0  0
  145.8900  158.0770  133.4280 C   0  0  0  0  0  0  0  0  0  0  0  0
  140.1429  160.3071  132.5473 H   0  0  0  0  0  0  0  0  0  0  0  0
  141.5063  159.6648  131.5700 H   0  0  0  0  0  0  0  0  0  0  0  0
  139.9232  158.8161  131.5700 H   0  0  0  0  0  0  0  0  0  0  0  0
  141.1390  159.2030  134.1640 H   0  0  0  0  0  0  0  0  0  0  0  0
  139.5254  157.2693  132.7308 H   0  0  0  0  0  0  0  0  0  0  0  0
  140.6975  156.6085  133.9541 H   0  0  0  0  0  0  0  0  0  0  0  0
  138.4489  158.6205  134.4255 H   0  0  0  0  0  0  0  0  0  0  0  0
  138.6037  156.9478  135.0832 H   0  0  0  0  0  0  0  0  0  0  0  0
  142.3400  159.9290  134.5490 H   0  0  0  0  0  0  0  0  0  0  0  0
  146.8301  161.2211  133.2112 H   0  0  0  0  0  0  0  0  0  0  0  0
  148.9674  159.3763  132.7336 H   0  0  0  0  0  0  0  0  0  0  0  0
  149.5120  156.9199  132.6582 H   0  0  0  0  0  0  0  0  0  0  0  0
  147.1561  154.3062  132.4055 H   0  0  0  0  0  0  0  0  0  0  0  0
  145.3644  155.9698  133.6172 H   0  0  0  0  0  0  0  0  0  0  0  0
  1  2  1  0
  2  3  1  0
  3  4  1  0
  4  5  1  0
  5  6  2  0
  5  7  1  0
  2  8  1  0
  8  9  2  0
  8 10  1  0
 10 11  2  0
 10 12  1  0
 12 13  1  0
 13 14  1  0
 14 15  1  0
 14 16  2  0
 13 17  2  0
 17 18  1  0
 18 19  2  0
 19 20  1  0
 20 21  2  0
 21 22  1  0
 22 23  1  0
 22 24  1  0
 21 25  1  0
 25 26  2  0
 26 12  1  0
 26 18  1  0
  1 27  1  0
  1 28  1  0
  1 29  1  0
  2 30  1  1
  3 31  1  0
  3 32  1  0
  4 33  1  0
  4 34  1  0
 15 35  1  0
 17 36  1  0
 19 37  1  0
 20 38  1  0
 22 39  1  0
 25 40  1  0
M  CHG  3   2   1   7  -1  15  -1
M  END
>  <UniqueID>  (49) 
49

>  <SMILES>  (49) 
C[N@@H+](CCC(=O)[O-])C(=O)C(=O)n1c(C([NH-])=O)cc2ccc(C(F)F)cc21

>  <Energy>  (49) 
79.08702713954307

>  <Genealogy>  (49) 
C[NH+](CCC(=O)[O-])C(=O)C(=O)n1c(C([NH-])=O)cc2ccc(C(F)F)cc21 (protonated)
C[N@@H+](CCC(=O)[O-])C(=O)C(=O)n1c(C([NH-])=O)cc2ccc(C(F)F)cc21 (chirality)
C[N@@H+](CCC(=O)[O-])C(=O)C(=O)n1c(C([NH-])=O)cc2ccc(C(F)F)cc21 (3D coordinates assigned)
C[N@@H+](CCC(=O)[O-])C(=O)C(=O)n1c(C([NH-])=O)cc2ccc(C(F)F)cc21 (optimized conformer: 79.08702713954307 kcal/mol)

>  <smiles>  (49) 
CN(CCC(=O)O)C(=O)C(=O)n1c(C(N)=O)cc2ccc(C(F)F)cc21

>  <score_type>  (49) 
oracle

>  <origin>  (49) 
adg

>  <m_score__min__energy>  (49) 
-5.2800000000000002

>  <m_primary>  (49) 
energy

$$$$
49:0
     RDKit          3D

 48 49  0  0  0  0  0  0  0  0999 V2000
  140.3360  154.8870  133.6110 C   0  0  0  0  0  0  0  0  0  0  0  0
  140.8010  156.1170  132.9810 N   0  0  0  0  0  0  0  0  0  0  0  0
  139.9320  157.2310  132.7660 C   0  0  0  0  0  0  0  0  0  0  0  0
  138.7220  157.1720  133.1220 O   0  0  0  0  0  0  0  0  0  0  0  0
  140.4370  158.3870  132.1580 O   0  0  0  0  0  0  0  0  0  0  0  0
  140.0930  159.7060  132.5800 C   0  0  0  0  0  0  0  0  0  0  0  0
  141.0880  160.2310  133.5860 C   0  0  0  0  0  0  0  0  0  0  0  0
  141.5450  161.3970  133.4250 O   0  0  0  0  0  0  0  0  0  0  0  0
  141.4540  159.4830  134.7680 N   0  0  0  0  0  0  0  0  0  0  0  0
  140.4050  158.7400  135.4780 C   0  0  0  0  0  0  0  0  0  0  0  0
  142.8490  159.3920  135.2310 C   0  0  0  0  0  0  0  0  0  0  0  0
  143.8410  159.5650  134.0680 C   0  0  0  0  0  0  0  0  0  0  0  0
  144.0570  158.2950  133.2930 C   0  0  0  0  0  0  0  0  0  0  0  0
  143.1550  157.8680  132.5230 O   0  0  0  0  0  0  0  0  0  0  0  0
  145.2400  157.5080  133.5000 N   0  0  0  0  0  0  0  0  0  0  0  0
  145.3320  156.3030  134.1300 C   0  0  0  0  0  0  0  0  0  0  0  0
  144.2380  155.6150  134.8490 C   0  0  0  0  0  0  0  0  0  0  0  0
  144.5050  154.8010  135.9880 N   0  0  0  0  0  0  0  0  0  0  0  0
  143.0540  155.7200  134.4310 O   0  0  0  0  0  0  0  0  0  0  0  0
  146.6350  155.8140  134.0580 C   0  0  0  0  0  0  0  0  0  0  0  0
  147.3450  156.7660  133.3630 C   0  0  0  0  0  0  0  0  0  0  0  0
  148.6820  156.7840  132.9810 C   0  0  0  0  0  0  0  0  0  0  0  0
  149.1390  157.8830  132.2340 C   0  0  0  0  0  0  0  0  0  0  0  0
  148.2620  158.9450  131.8920 C   0  0  0  0  0  0  0  0  0  0  0  0
  148.7500  160.0870  131.0390 C   0  0  0  0  0  0  0  0  0  0  0  0
  147.6940  160.8830  130.6340 F   0  0  0  0  0  0  0  0  0  0  0  0
  149.3870  159.5800  129.9220 F   0  0  0  0  0  0  0  0  0  0  0  0
  149.6410  160.8760  131.7470 F   0  0  0  0  0  0  0  0  0  0  0  0
  146.9030  158.8740  132.2780 C   0  0  0  0  0  0  0  0  0  0  0  0
  146.4800  157.7770  133.0360 C   0  0  0  0  0  0  0  0  0  0  0  0
  140.3775  154.9968  134.7047 H   0  0  0  0  0  0  0  0  0  0  0  0
  139.2997  154.6857  133.3018 H   0  0  0  0  0  0  0  0  0  0  0  0
  140.9800  154.0505  133.3018 H   0  0  0  0  0  0  0  0  0  0  0  0
  141.7980  156.1870  132.6770 H   0  0  0  0  0  0  0  0  0  0  0  0
  140.0818  160.3719  131.7045 H   0  0  0  0  0  0  0  0  0  0  0  0
  139.1008  159.6738  133.0538 H   0  0  0  0  0  0  0  0  0  0  0  0
  140.5523  158.8443  136.5631 H   0  0  0  0  0  0  0  0  0  0  0  0
  139.4194  159.1425  135.2014 H   0  0  0  0  0  0  0  0  0  0  0  0
  140.4576  157.6767  135.2014 H   0  0  0  0  0  0  0  0  0  0  0  0
  143.0306  160.1806  135.9761 H   0  0  0  0  0  0  0  0  0  0  0  0
  143.0026  158.3954  135.6706 H   0  0  0  0  0  0  0  0  0  0  0  0
  143.4499  160.3322  133.3836 H   0  0  0  0  0  0  0  0  0  0  0  0
  144.8093  159.8586  134.4994 H   0  0  0  0  0  0  0  0  0  0  0  0
  144.7610  155.2280  136.9060 H   0  0  0  0  0  0  0  0  0  0  0  0
  147.0153  154.8675  134.4696 H   0  0  0  0  0  0  0  0  0  0  0  0
  149.3610  155.9631  133.2552 H   0  0  0  0  0  0  0  0  0  0  0  0
  150.1896  157.9206  131.9103 H   0  0  0  0  0  0  0  0  0  0  0  0
  146.1944  159.6640  131.9885 H   0  0  0  0  0  0  0  0  0  0  0  0
  1  2  1  0
  2  3  1  0
  3  4  2  0
  3  5  1  0
  5  6  1  0
  6  7  1  0
  7  8  2  0
  7  9  1  0
  9 10  1  0
  9 11  1  0
 11 12  1  0
 12 13  1  0
 13 14  2  0
 13 15  1  0
 15 16  1  0
 16 17  1  0
 17 18  1  0
 17 19  2  0
 16 20  2  0
 20 21  1  0
 21 22  2  0
 22 23  1  0
 23 24  2  0
 24 25  1  0
 25 26  1  0
 25 27  1  0
 25 28  1  0
 24 29  1  0
 29 30  2  0
 30 15  1  0
 30 21  1  0
  1 31  1  0
  1 32  1  0
  1 33  1  0
  2 34  1  0
  6 35  1  0
  6 36  1  0
 10 37  1  0
 10 38  1  0
 10 39  1  0
 11 40  1  0
 11 41  1  0
 12 42  1  0
 12 43  1  0
 18 44  1  0
 20 45  1  0
 22 46  1  0
 23 47  1  0
 29 48  1  0
M  CHG  1  18  -1
M  END
>  <UniqueID>  (50) 
50

>  <SMILES>  (50) 
CNC(=O)OCC(=O)N(C)CCC(=O)n1c(C([NH-])=O)cc2ccc(C(F)(F)F)cc21

>  <Energy>  (50) 
80.28479621728177

>  <Genealogy>  (50) 
CNC(=O)OCC(=O)N(C)CCC(=O)n1c(C([NH-])=O)cc2ccc(C(F)(F)F)cc21 (protonated)
CNC(=O)OCC(=O)N(C)CCC(=O)n1c(C([NH-])=O)cc2ccc(C(F)(F)F)cc21 (3D coordinates assigned)
CNC(=O)OCC(=O)N(C)CCC(=O)n1c(C([NH-])=O)cc2ccc(C(F)(F)F)cc21 (optimized conformer: 80.28479621728177 kcal/mol)

>  <smiles>  (50) 
CNC(=O)OCC(=O)N(C)CCC(=O)n1c(C(N)=O)cc2ccc(C(F)(F)F)cc21

>  <score_type>  (50) 
oracle

>  <origin>  (50) 
adg

>  <m_score__min__energy>  (50) 
-6.8700000000000001

>  <m_primary>  (50) 
energy

$$$$
50:0
     RDKit          3D

 45 46  0  0  0  0  0  0  0  0999 V2000
  140.5790  159.3640  132.5830 C   0  0  0  0  0  0  0  0  0  0  0  0
  139.5900  158.4720  132.7190 C   0  0  0  0  0  0  0  0  0  0  0  0
  138.3360  158.6140  131.9020 C   0  0  0  0  0  0  0  0  0  0  0  0
  139.6920  157.3840  133.7160 C   0  0  0  0  0  0  0  0  0  0  0  0
  140.1460  156.2590  133.3680 O   0  0  0  0  0  0  0  0  0  0  0  0
  139.2790  157.5990  135.0380 O   0  0  0  0  0  0  0  0  0  0  0  0
  139.8530  158.5860  135.8920 C   0  0  0  0  0  0  0  0  0  0  0  0
  141.2770  158.1830  136.3140 C   0  0  1  0  0  0  0  0  0  0  0  0
  141.4800  156.8130  136.0840 O   0  0  0  0  0  0  0  0  0  0  0  0
  142.3260  158.9850  135.5390 C   0  0  0  0  0  0  0  0  0  0  0  0
  142.8190  158.2210  134.4410 O   0  0  0  0  0  0  0  0  0  0  0  0
  143.9460  158.5940  133.7040 C   0  0  0  0  0  0  0  0  0  0  0  0
  143.9390  159.6560  133.0250 O   0  0  0  0  0  0  0  0  0  0  0  0
  145.1080  157.7500  133.7060 N   0  0  0  0  0  0  0  0  0  0  0  0
  145.1850  156.4430  134.0870 C   0  0  0  0  0  0  0  0  0  0  0  0
  144.1180  155.6700  134.7550 C   0  0  0  0  0  0  0  0  0  0  0  0
  142.8590  155.4620  134.1230 N   0  0  0  0  0  0  0  0  0  0  0  0
  144.3030  155.2300  135.9220 O   0  0  0  0  0  0  0  0  0  0  0  0
  146.4570  155.9340  133.8350 C   0  0  0  0  0  0  0  0  0  0  0  0
  147.1670  156.9780  133.2890 C   0  0  0  0  0  0  0  0  0  0  0  0
  148.4810  157.0260  132.8340 C   0  0  0  0  0  0  0  0  0  0  0  0
  148.9440  158.2310  132.2810 C   0  0  0  0  0  0  0  0  0  0  0  0
  148.0880  159.3580  132.1880 C   0  0  0  0  0  0  0  0  0  0  0  0
  148.5810  160.6390  131.5770 C   0  0  0  0  0  0  0  0  0  0  0  0
  149.9440  160.5560  131.3600 F   0  0  0  0  0  0  0  0  0  0  0  0
  147.9400  160.8590  130.3720 F   0  0  0  0  0  0  0  0  0  0  0  0
  146.7590  159.2710  132.6570 C   0  0  0  0  0  0  0  0  0  0  0  0
  146.3310  158.0630  133.2210 C   0  0  0  0  0  0  0  0  0  0  0  0
  141.4974  159.2621  133.1797 H   0  0  0  0  0  0  0  0  0  0  0  0
  140.4732  160.1988  131.8745 H   0  0  0  0  0  0  0  0  0  0  0  0
  137.4701  158.7120  132.5733 H   0  0  0  0  0  0  0  0  0  0  0  0
  138.4112  159.5094  131.2674 H   0  0  0  0  0  0  0  0  0  0  0  0
  138.2091  157.7245  131.2674 H   0  0  0  0  0  0  0  0  0  0  0  0
  139.8937  159.5462  135.3568 H   0  0  0  0  0  0  0  0  0  0  0  0
  139.2304  158.6763  136.7943 H   0  0  0  0  0  0  0  0  0  0  0  0
  141.3856  158.3991  137.3871 H   0  0  0  0  0  0  0  0  0  0  0  0
  141.3800  156.6660  135.1070 H   0  0  0  0  0  0  0  0  0  0  0  0
  141.8686  159.9111  135.1607 H   0  0  0  0  0  0  0  0  0  0  0  0
  143.1620  159.2261  136.2120 H   0  0  0  0  0  0  0  0  0  0  0  0
  142.1260  156.2070  134.1250 H   0  0  0  0  0  0  0  0  0  0  0  0
  146.8173  154.9134  134.0311 H   0  0  0  0  0  0  0  0  0  0  0  0
  149.1376  156.1463  132.9053 H   0  0  0  0  0  0  0  0  0  0  0  0
  149.9796  158.3014  131.9168 H   0  0  0  0  0  0  0  0  0  0  0  0
  148.3667  161.4711  132.2638 H   0  0  0  0  0  0  0  0  0  0  0  0
  146.0770  160.1307  132.5812 H   0  0  0  0  0  0  0  0  0  0  0  0
  1  2  2  0
  2  3  1  0
  2  4  1  0
  4  5  2  0
  4  6  1  0
  6  7  1  0
  7  8  1  0
  8  9  1  0
  8 10  1  0
 10 11  1  0
 11 12  1  0
 12 13  2  0
 12 14  1  0
 14 15  1  0
 15 16  1  0
 16 17  1  0
 16 18  2  0
 15 19  2  0
 19 20  1  0
 20 21  2  0
 21 22  1  0
 22 23  2  0
 23 24  1  0
 24 25  1  0
 24 26  1  0
 23 27  1  0
 27 28  2  0
 28 14  1  0
 28 20  1  0
  1 29  1  0
  1 30  1  0
  3 31  1  0
  3 32  1  0
  3 33  1  0
  7 34  1  0
  7 35  1  0
  8 36  1  1
  9 37  1  0
 10 38  1  0
 10 39  1  0
 17 40  1  0
 19 41  1  0
 21 42  1  0
 22 43  1  0
 24 44  1  0
 27 45  1  0
M  CHG  1  17  -1
M  END
>  <UniqueID>  (51) 
51

>  <SMILES>  (51) 
C=C(C)C(=O)OC[C@@H](O)COC(=O)n1c(C([NH-])=O)cc2ccc(C(F)F)cc21

>  <Energy>  (51) 
74.86373779094201

>  <Genealogy>  (51) 
C=C(C)C(=O)OCC(O)COC(=O)n1c(C([NH-])=O)cc2ccc(C(F)F)cc21 (protonated)
C=C(C)C(=O)OC[C@@H](O)COC(=O)n1c(C([NH-])=O)cc2ccc(C(F)F)cc21 (chirality)
C=C(C)C(=O)OC[C@@H](O)COC(=O)n1c(C([NH-])=O)cc2ccc(C(F)F)cc21 (3D coordinates assigned)
C=C(C)C(=O)OC[C@@H](O)COC(=O)n1c(C([NH-])=O)cc2ccc(C(F)F)cc21 (optimized conformer: 74.86373779094201 kcal/mol)

>  <smiles>  (51) 
C=C(C)C(=O)OCC(O)COC(=O)n1c(C(N)=O)cc2ccc(C(F)F)cc21

>  <score_type>  (51) 
oracle

>  <origin>  (51) 
adg

>  <m_score__min__energy>  (51) 
-5.8899999999999997

>  <m_primary>  (51) 
energy

$$$$
51:0
     RDKit          3D

 39 41  0  0  0  0  0  0  0  0999 V2000
  138.4910  157.1280  133.3700 N   0  0  0  0  0  0  0  0  0  0  0  0
  139.4090  156.0380  133.2650 C   0  0  0  0  0  0  0  0  0  0  0  0
  138.9690  154.8810  133.0290 O   0  0  0  0  0  0  0  0  0  0  0  0
  140.8660  156.2540  133.3650 C   0  0  0  0  0  0  0  0  0  0  0  0
  141.7560  155.2830  133.8140 C   0  0  0  0  0  0  0  0  0  0  0  0
  143.0030  155.8500  133.6930 C   0  0  0  0  0  0  0  0  0  0  0  0
  144.2540  155.3310  134.0080 C   0  0  0  0  0  0  0  0  0  0  0  0
  145.3760  156.1530  133.8180 C   0  0  0  0  0  0  0  0  0  0  0  0
  145.2330  157.4780  133.3260 C   0  0  0  0  0  0  0  0  0  0  0  0
  146.4260  158.3420  133.1420 C   0  0  0  0  0  0  0  0  0  0  0  0
  146.3460  159.7300  133.3510 C   0  0  0  0  0  0  0  0  0  0  0  0
  147.4800  160.5240  133.1720 C   0  0  0  0  0  0  0  0  0  0  0  0
  148.6560  159.9590  132.7960 N   0  0  0  0  0  0  0  0  0  0  0  0
  148.7680  158.6210  132.5850 C   0  0  0  0  0  0  0  0  0  0  0  0
  149.9590  158.0960  132.2060 F   0  0  0  0  0  0  0  0  0  0  0  0
  147.6580  157.7890  132.7540 C   0  0  0  0  0  0  0  0  0  0  0  0
  143.9410  157.9690  133.0200 C   0  0  0  0  0  0  0  0  0  0  0  0
  142.8420  157.1190  133.1990 C   0  0  0  0  0  0  0  0  0  0  0  0
  141.5320  157.3840  132.9940 N   0  0  0  0  0  0  0  0  0  0  0  0
  140.9630  158.6390  132.5880 C   0  0  0  0  0  0  0  0  0  0  0  0
  141.3820  159.7120  133.1010 O   0  0  0  0  0  0  0  0  0  0  0  0
  139.9550  158.6640  131.6160 O   0  0  0  0  0  0  0  0  0  0  0  0
  139.3630  159.8640  131.1190 C   0  0  0  0  0  0  0  0  0  0  0  0
  137.8420  159.7360  131.0630 C   0  0  0  0  0  0  0  0  0  0  0  0
  137.4180  158.6420  131.8280 O   0  0  0  0  0  0  0  0  0  0  0  0
  138.8280  158.1150  133.3880 H   0  0  0  0  0  0  0  0  0  0  0  0
  137.4620  156.9500  133.3420 H   0  0  0  0  0  0  0  0  0  0  0  0
  141.5137  154.2767  134.1863 H   0  0  0  0  0  0  0  0  0  0  0  0
  144.3612  154.3068  134.3946 H   0  0  0  0  0  0  0  0  0  0  0  0
  146.3786  155.7662  134.0530 H   0  0  0  0  0  0  0  0  0  0  0  0
  145.3933  160.1886  133.6545 H   0  0  0  0  0  0  0  0  0  0  0  0
  147.4208  161.6101  133.3359 H   0  0  0  0  0  0  0  0  0  0  0  0
  147.7484  156.7060  132.5840 H   0  0  0  0  0  0  0  0  0  0  0  0
  143.8030  158.9956  132.6497 H   0  0  0  0  0  0  0  0  0  0  0  0
  139.6303  160.6996  131.7826 H   0  0  0  0  0  0  0  0  0  0  0  0
  139.7390  160.0473  130.1016 H   0  0  0  0  0  0  0  0  0  0  0  0
  137.3856  160.6549  131.4597 H   0  0  0  0  0  0  0  0  0  0  0  0
  137.5339  159.5830  130.0182 H   0  0  0  0  0  0  0  0  0  0  0  0
  137.9530  157.8660  131.5180 H   0  0  0  0  0  0  0  0  0  0  0  0
  1  2  1  0
  2  3  2  0
  2  4  1  0
  4  5  2  0
  5  6  1  0
  6  7  2  0
  7  8  1  0
  8  9  2  0
  9 10  1  0
 10 11  2  0
 11 12  1  0
 12 13  2  0
 13 14  1  0
 14 15  1  0
 14 16  2  0
  9 17  1  0
 17 18  2  0
 18 19  1  0
 19 20  1  0
 20 21  2  0
 20 22  1  0
 22 23  1  0
 23 24  1  0
 24 25  1  0
 19  4  1  0
 18  6  1  0
 16 10  1  0
  1 26  1  0
  1 27  1  0
  5 28  1  0
  7 29  1  0
  8 30  1  0
 11 31  1  0
 12 32  1  0
 16 33  1  0
 17 34  1  0
 23 35  1  0
 23 36  1  0
 24 37  1  0
 24 38  1  0
 25 39  1  0
M  END
>  <UniqueID>  (52) 
52

>  <SMILES>  (52) 
NC(=O)c1cc2ccc(-c3ccnc(F)c3)cc2n1C(=O)OCCO

>  <Energy>  (52) 
83.50195114387745

>  <Genealogy>  (52) 
NC(=O)c1cc2ccc(-c3ccnc(F)c3)cc2n1C(=O)OCCO (3D coordinates assigned)
NC(=O)c1cc2ccc(-c3ccnc(F)c3)cc2n1C(=O)OCCO (optimized conformer: 83.50195114387745 kcal/mol)

>  <smiles>  (52) 
NC(=O)c1cc2ccc(-c3ccnc(F)c3)cc2n1C(=O)OCCO

>  <score_type>  (52) 
oracle

>  <origin>  (52) 
adg

>  <m_score__min__energy>  (52) 
-7.0300000000000002

>  <m_primary>  (52) 
energy

$$$$
52:0
     RDKit          3D

 48 49  0  0  0  0  0  0  0  0999 V2000
  140.5190  159.1580  131.8480 C   0  0  0  0  0  0  0  0  0  0  0  0
  139.0970  159.0780  132.4510 C   0  0  1  0  0  0  0  0  0  0  0  0
  138.0510  159.4900  131.4410 C   0  0  0  0  0  0  0  0  0  0  0  0
  136.8970  158.9810  131.4570 O   0  0  0  0  0  0  0  0  0  0  0  0
  138.3460  160.4810  130.5150 O   0  0  0  0  0  0  0  0  0  0  0  0
  138.7530  157.7810  133.1150 N   0  0  2  0  0  0  0  0  0  0  0  0
  138.7670  157.8680  134.5880 C   0  0  0  0  0  0  0  0  0  0  0  0
  139.4600  156.5680  132.6170 C   0  0  0  0  0  0  0  0  0  0  0  0
  140.2220  155.8060  133.6730 C   0  0  0  0  0  0  0  0  0  0  0  0
  141.2870  155.0430  133.3760 C   0  0  0  0  0  0  0  0  0  0  0  0
  142.0850  154.3670  134.4550 C   0  0  0  0  0  0  0  0  0  0  0  0
  142.5870  155.3840  135.4340 C   0  0  0  0  0  0  0  0  0  0  0  0
  143.6640  156.0010  135.2060 O   0  0  0  0  0  0  0  0  0  0  0  0
  141.7990  155.7350  136.5770 N   0  0  0  0  0  0  0  0  0  0  0  0
  141.4010  156.9750  136.9750 C   0  0  0  0  0  0  0  0  0  0  0  0
  141.6160  158.2320  136.2260 C   0  0  0  0  0  0  0  0  0  0  0  0
  141.8180  158.2210  134.8150 N   0  0  0  0  0  0  0  0  0  0  0  0
  141.5890  159.3360  136.8350 O   0  0  0  0  0  0  0  0  0  0  0  0
  140.6990  156.8940  138.1780 C   0  0  0  0  0  0  0  0  0  0  0  0
  140.6850  155.5540  138.5050 C   0  0  0  0  0  0  0  0  0  0  0  0
  140.1140  154.8950  139.5900 C   0  0  0  0  0  0  0  0  0  0  0  0
  140.2580  153.4980  139.6660 C   0  0  0  0  0  0  0  0  0  0  0  0
  140.9830  152.7900  138.6700 C   0  0  0  0  0  0  0  0  0  0  0  0
  141.1100  151.2900  138.7440 C   0  0  0  0  0  0  0  0  0  0  0  0
  140.3210  150.8180  139.7750 F   0  0  0  0  0  0  0  0  0  0  0  0
  142.4220  150.9170  138.9730 F   0  0  0  0  0  0  0  0  0  0  0  0
  140.6960  150.7120  137.5550 F   0  0  0  0  0  0  0  0  0  0  0  0
  141.5210  153.4930  137.5680 C   0  0  0  0  0  0  0  0  0  0  0  0
  141.3550  154.8800  137.5190 C   0  0  0  0  0  0  0  0  0  0  0  0
  141.2598  159.1997  132.6601 H   0  0  0  0  0  0  0  0  0  0  0  0
  140.7047  158.2689  131.2275 H   0  0  0  0  0  0  0  0  0  0  0  0
  140.6038  160.0623  131.2275 H   0  0  0  0  0  0  0  0  0  0  0  0
  139.1003  159.8055  133.2761 H   0  0  0  0  0  0  0  0  0  0  0  0
  137.7450  157.6110  132.8740 H   0  0  0  0  0  0  0  0  0  0  0  0
  138.6061  156.8675  135.0159 H   0  0  0  0  0  0  0  0  0  0  0  0
  139.7394  158.2580  134.9230 H   0  0  0  0  0  0  0  0  0  0  0  0
  137.9659  158.5433  134.9230 H   0  0  0  0  0  0  0  0  0  0  0  0
  138.7121  155.8911  132.1783 H   0  0  0  0  0  0  0  0  0  0  0  0
  140.2051  156.9193  131.8880 H   0  0  0  0  0  0  0  0  0  0  0  0
  139.8947  155.8776  134.7207 H   0  0  0  0  0  0  0  0  0  0  0  0
  141.5802  154.9107  132.3241 H   0  0  0  0  0  0  0  0  0  0  0  0
  141.4467  153.6406  134.9793 H   0  0  0  0  0  0  0  0  0  0  0  0
  142.9425  153.8497  133.9998 H   0  0  0  0  0  0  0  0  0  0  0  0
  142.6110  157.6930  134.3870 H   0  0  0  0  0  0  0  0  0  0  0  0
  140.2514  157.7232  138.7455 H   0  0  0  0  0  0  0  0  0  0  0  0
  139.5661  155.4506  140.3653 H   0  0  0  0  0  0  0  0  0  0  0  0
  139.8051  152.9484  140.5043 H   0  0  0  0  0  0  0  0  0  0  0  0
  142.0574  152.9613  136.7682 H   0  0  0  0  0  0  0  0  0  0  0  0
  1  2  1  0
  2  3  1  0
  3  4  2  0
  3  5  1  0
  2  6  1  0
  6  7  1  0
  6  8  1  0
  8  9  1  0
  9 10  2  3
 10 11  1  0
 11 12  1  0
 12 13  2  0
 12 14  1  0
 14 15  1  0
 15 16  1  0
 16 17  1  0
 16 18  2  0
 15 19  2  0
 19 20  1  0
 20 21  2  0
 21 22  1  0
 22 23  2  0
 23 24  1  0
 24 25  1  0
 24 26  1  0
 24 27  1  0
 23 28  1  0
 28 29  2  0
 29 14  1  0
 29 20  1  0
  1 30  1  0
  1 31  1  0
  1 32  1  0
  2 33  1  1
  6 34  1  6
  7 35  1  0
  7 36  1  0
  7 37  1  0
  8 38  1  0
  8 39  1  0
  9 40  1  0
 10 41  1  0
 11 42  1  0
 11 43  1  0
 17 44  1  0
 19 45  1  0
 21 46  1  0
 22 47  1  0
 28 48  1  0
M  CHG  3   5  -1   6   1  17  -1
M  END
>  <UniqueID>  (53) 
53

>  <SMILES>  (53) 
C[C@@H](C(=O)[O-])[N@H+](C)CC=CCC(=O)n1c(C([NH-])=O)cc2ccc(C(F)(F)F)cc21

>  <Energy>  (53) 
92.66457491626281

>  <Genealogy>  (53) 
C[C@@H](C(=O)[O-])[NH+](C)CC=CCC(=O)n1c(C([NH-])=O)cc2ccc(C(F)(F)F)cc21 (protonated)
C[C@@H](C(=O)[O-])[N@H+](C)CC=CCC(=O)n1c(C([NH-])=O)cc2ccc(C(F)(F)F)cc21 (chirality)
C[C@@H](C(=O)[O-])[N@H+](C)CC=CCC(=O)n1c(C([NH-])=O)cc2ccc(C(F)(F)F)cc21 (3D coordinates assigned)
C[C@@H](C(=O)[O-])[N@H+](C)CC=CCC(=O)n1c(C([NH-])=O)cc2ccc(C(F)(F)F)cc21 (optimized conformer: 92.66457491626281 kcal/mol)

>  <smiles>  (53) 
C[C@@H](C(=O)O)N(C)CC=CCC(=O)n1c(C(N)=O)cc2ccc(C(F)(F)F)cc21

>  <score_type>  (53) 
oracle

>  <origin>  (53) 
adg

>  <m_score__min__energy>  (53) 
-6.5599999999999996

>  <m_primary>  (53) 
energy

$$$$
53:0
     RDKit          3D

 45 47  0  0  0  0  0  0  0  0999 V2000
  142.6000  160.2560  133.9460 N   0  0  0  0  0  0  0  0  0  0  0  0
  143.9810  160.5670  133.7590 C   0  0  0  0  0  0  0  0  0  0  0  0
  144.3520  161.7690  133.8130 O   0  0  0  0  0  0  0  0  0  0  0  0
  144.9660  159.5010  133.4770 C   0  0  0  0  0  0  0  0  0  0  0  0
  146.3440  159.7060  133.4130 C   0  0  0  0  0  0  0  0  0  0  0  0
  146.8910  158.4550  133.2340 C   0  0  0  0  0  0  0  0  0  0  0  0
  148.2210  158.0680  133.1080 C   0  0  0  0  0  0  0  0  0  0  0  0
  148.4960  156.7030  132.9190 C   0  0  0  0  0  0  0  0  0  0  0  0
  147.4400  155.7510  132.8500 C   0  0  0  0  0  0  0  0  0  0  0  0
  147.6930  154.3450  132.6590 N   0  0  0  0  0  0  0  0  0  0  0  0
  148.9570  153.6710  132.9770 C   0  0  0  0  0  0  0  0  0  0  0  0
  148.8820  152.1340  132.8020 C   0  0  0  0  0  0  0  0  0  0  0  0
  147.5790  151.6780  132.5460 O   0  0  0  0  0  0  0  0  0  0  0  0
  149.5900  151.3050  133.8580 C   0  0  0  0  0  0  0  0  0  0  0  0
  150.4880  150.7600  132.9210 O   0  0  0  0  0  0  0  0  0  0  0  0
  149.8920  151.4900  131.8740 C   0  0  0  0  0  0  0  0  0  0  0  0
  146.1050  156.1880  132.9970 C   0  0  0  0  0  0  0  0  0  0  0  0
  145.8640  157.5510  133.1950 C   0  0  0  0  0  0  0  0  0  0  0  0
  144.6770  158.1760  133.3390 N   0  0  0  0  0  0  0  0  0  0  0  0
  143.3840  157.5520  133.2860 C   0  0  0  0  0  0  0  0  0  0  0  0
  142.5850  157.8580  132.3590 O   0  0  0  0  0  0  0  0  0  0  0  0
  142.9230  156.6570  134.4040 C   0  0  0  0  0  0  0  0  0  0  0  0
  142.4460  157.4600  135.6170 C   0  0  0  0  0  0  0  0  0  0  0  0
  140.8280  158.2260  135.2860 P   0  0  0  0  0  0  0  0  0  0  0  0
  140.4620  158.0370  133.8320 O   0  0  0  0  0  0  0  0  0  0  0  0
  139.6480  157.5110  136.2620 O   0  0  0  0  0  0  0  0  0  0  0  0
  140.9140  159.8790  135.6300 O   0  0  0  0  0  0  0  0  0  0  0  0
  142.2620  159.2690  133.9670 H   0  0  0  0  0  0  0  0  0  0  0  0
  141.9080  161.0230  134.1080 H   0  0  0  0  0  0  0  0  0  0  0  0
  146.8800  160.6635  133.4893 H   0  0  0  0  0  0  0  0  0  0  0  0
  149.0332  158.8083  133.1549 H   0  0  0  0  0  0  0  0  0  0  0  0
  149.5389  156.3664  132.8233 H   0  0  0  0  0  0  0  0  0  0  0  0
  146.9640  153.7770  132.1710 H   0  0  0  0  0  0  0  0  0  0  0  0
  149.7404  154.0621  132.3111 H   0  0  0  0  0  0  0  0  0  0  0  0
  149.1807  153.8719  134.0351 H   0  0  0  0  0  0  0  0  0  0  0  0
  147.3210  151.1080  133.3170 H   0  0  0  0  0  0  0  0  0  0  0  0
  150.0802  151.9101  134.6348 H   0  0  0  0  0  0  0  0  0  0  0  0
  148.9975  150.6242  134.4870 H   0  0  0  0  0  0  0  0  0  0  0  0
  150.5734  152.2113  131.3992 H   0  0  0  0  0  0  0  0  0  0  0  0
  149.5309  150.9497  130.9865 H   0  0  0  0  0  0  0  0  0  0  0  0
  145.2719  155.4708  132.9565 H   0  0  0  0  0  0  0  0  0  0  0  0
  142.0926  156.0334  134.0412 H   0  0  0  0  0  0  0  0  0  0  0  0
  143.7756  156.0372  134.7187 H   0  0  0  0  0  0  0  0  0  0  0  0
  142.3567  156.7874  136.4828 H   0  0  0  0  0  0  0  0  0  0  0  0
  143.1776  158.2547  135.8248 H   0  0  0  0  0  0  0  0  0  0  0  0
  1  2  1  0
  2  3  2  0
  2  4  1  0
  4  5  2  0
  5  6  1  0
  6  7  2  0
  7  8  1  0
  8  9  2  0
  9 10  1  0
 10 11  1  0
 11 12  1  0
 12 13  1  0
 12 14  1  0
 14 15  1  0
 15 16  1  0
  9 17  1  0
 17 18  2  0
 18 19  1  0
 19 20  1  0
 20 21  2  0
 20 22  1  0
 22 23  1  0
 23 24  1  0
 24 25  2  0
 24 26  1  0
 24 27  1  0
 19  4  1  0
 18  6  1  0
 16 12  1  0
  1 28  1  0
  1 29  1  0
  5 30  1  0
  7 31  1  0
  8 32  1  0
 10 33  1  0
 11 34  1  0
 11 35  1  0
 13 36  1  0
 14 37  1  0
 14 38  1  0
 16 39  1  0
 16 40  1  0
 17 41  1  0
 22 42  1  0
 22 43  1  0
 23 44  1  0
 23 45  1  0
M  CHG  2  26  -1  27  -1
M  END
>  <UniqueID>  (54) 
54

>  <SMILES>  (54) 
NC(=O)c1cc2ccc(NCC3(O)COC3)cc2n1C(=O)CCP(=O)([O-])[O-]

>  <Energy>  (54) 
146.631613878099

>  <Genealogy>  (54) 
NC(=O)c1cc2ccc(NCC3(O)COC3)cc2n1C(=O)CCP(=O)([O-])[O-] (protonated)
NC(=O)c1cc2ccc(NCC3(O)COC3)cc2n1C(=O)CCP(=O)([O-])[O-] (3D coordinates assigned)
NC(=O)c1cc2ccc(NCC3(O)COC3)cc2n1C(=O)CCP(=O)([O-])[O-] (nonaromatic ring conformer: 146.631613878099 kcal/mol)

>  <smiles>  (54) 
NC(=O)c1cc2ccc(NCC3(O)COC3)cc2n1C(=O)CCP(=O)(O)O

>  <score_type>  (54) 
oracle

>  <origin>  (54) 
adg

>  <m_score__min__energy>  (54) 
-7.6699999999999999

>  <m_primary>  (54) 
energy

$$$$
54:0
     RDKit          3D

 37 38  0  0  0  0  0  0  0  0999 V2000
  142.7580  157.7210  133.8040 N   0  0  0  0  0  0  0  0  0  0  0  0
  143.8190  156.7770  133.6510 C   0  0  0  0  0  0  0  0  0  0  0  0
  145.0090  157.1880  133.6730 O   0  0  0  0  0  0  0  0  0  0  0  0
  143.5350  155.3380  133.4500 C   0  0  0  0  0  0  0  0  0  0  0  0
  144.4640  154.4030  132.9910 C   0  0  0  0  0  0  0  0  0  0  0  0
  143.8050  153.1950  133.0020 C   0  0  0  0  0  0  0  0  0  0  0  0
  144.2430  151.9320  132.6160 C   0  0  0  0  0  0  0  0  0  0  0  0
  143.3310  150.8660  132.6950 C   0  0  0  0  0  0  0  0  0  0  0  0
  142.0070  151.0750  133.1640 C   0  0  0  0  0  0  0  0  0  0  0  0
  141.0210  149.9350  133.1850 C   0  0  0  0  0  0  0  0  0  0  0  0
  141.6160  148.8080  132.6510 F   0  0  0  0  0  0  0  0  0  0  0  0
  140.6170  149.6630  134.4810 F   0  0  0  0  0  0  0  0  0  0  0  0
  139.8980  150.2500  132.4390 F   0  0  0  0  0  0  0  0  0  0  0  0
  141.5950  152.3790  133.5230 C   0  0  0  0  0  0  0  0  0  0  0  0
  142.5320  153.4160  133.4550 C   0  0  0  0  0  0  0  0  0  0  0  0
  142.3530  154.7240  133.7410 N   0  0  0  0  0  0  0  0  0  0  0  0
  141.1330  155.3430  134.1790 C   0  0  0  0  0  0  0  0  0  0  0  0
  140.9750  155.6170  135.3990 O   0  0  0  0  0  0  0  0  0  0  0  0
  140.0630  155.6580  133.2210 C   0  0  0  0  0  0  0  0  0  0  0  0
  139.1500  154.8180  132.9980 O   0  0  0  0  0  0  0  0  0  0  0  0
  140.0580  156.9240  132.5510 N   0  0  0  0  0  0  0  0  0  0  0  0
  139.2480  158.0600  132.9840 C   0  0  1  0  0  0  0  0  0  0  0  0
  138.8190  157.8660  134.4420 C   0  0  0  0  0  0  0  0  0  0  0  0
  139.9400  157.8520  135.2850 O   0  0  0  0  0  0  0  0  0  0  0  0
  140.0280  159.3350  132.8400 C   0  0  0  0  0  0  0  0  0  0  0  0
  141.0600  159.5350  133.5350 O   0  0  0  0  0  0  0  0  0  0  0  0
  139.5970  160.3160  131.9560 O   0  0  0  0  0  0  0  0  0  0  0  0
  142.9740  158.7370  133.9100 H   0  0  0  0  0  0  0  0  0  0  0  0
  141.7600  157.4190  133.8590 H   0  0  0  0  0  0  0  0  0  0  0  0
  145.5036  154.5919  132.6850 H   0  0  0  0  0  0  0  0  0  0  0  0
  145.2716  151.7729  132.2599 H   0  0  0  0  0  0  0  0  0  0  0  0
  143.6464  149.8573  132.3899 H   0  0  0  0  0  0  0  0  0  0  0  0
  140.5623  152.5737  133.8480 H   0  0  0  0  0  0  0  0  0  0  0  0
  138.3502  158.1224  132.3515 H   0  0  0  0  0  0  0  0  0  0  0  0
  138.1543  158.6914  134.7369 H   0  0  0  0  0  0  0  0  0  0  0  0
  138.2924  156.9046  134.5335 H   0  0  0  0  0  0  0  0  0  0  0  0
  140.7310  157.6920  134.7060 H   0  0  0  0  0  0  0  0  0  0  0  0
  1  2  1  0
  2  3  2  0
  2  4  1  0
  4  5  2  0
  5  6  1  0
  6  7  2  0
  7  8  1  0
  8  9  2  0
  9 10  1  0
 10 11  1  0
 10 12  1  0
 10 13  1  0
  9 14  1  0
 14 15  2  0
 15 16  1  0
 16 17  1  0
 17 18  2  0
 17 19  1  0
 19 20  2  0
 19 21  1  0
 21 22  1  0
 22 23  1  0
 23 24  1  0
 22 25  1  0
 25 26  2  0
 25 27  1  0
 16  4  1  0
 15  6  1  0
  1 28  1  0
  1 29  1  0
  5 30  1  0
  7 31  1  0
  8 32  1  0
 14 33  1  0
 22 34  1  6
 23 35  1  0
 23 36  1  0
 24 37  1  0
M  CHG  2  21  -1  27  -1
M  END
>  <UniqueID>  (55) 
55

>  <SMILES>  (55) 
NC(=O)c1cc2ccc(C(F)(F)F)cc2n1C(=O)C(=O)[N-][C@@H](CO)C(=O)[O-]

>  <Energy>  (55) 
72.29710893741621

>  <Genealogy>  (55) 
NC(=O)c1cc2ccc(C(F)(F)F)cc2n1C(=O)C(=O)[N-][C@@H](CO)C(=O)[O-] (protonated)
NC(=O)c1cc2ccc(C(F)(F)F)cc2n1C(=O)C(=O)[N-][C@@H](CO)C(=O)[O-] (3D coordinates assigned)
NC(=O)c1cc2ccc(C(F)(F)F)cc2n1C(=O)C(=O)[N-][C@@H](CO)C(=O)[O-] (optimized conformer: 72.29710893741621 kcal/mol)

>  <smiles>  (55) 
NC(=O)c1cc2ccc(C(F)(F)F)cc2n1C(=O)C(=O)N[C@@H](CO)C(=O)O

>  <score_type>  (55) 
oracle

>  <origin>  (55) 
adg

>  <m_score__min__energy>  (55) 
-6.0499999999999998

>  <m_primary>  (55) 
energy

$$$$
55:0
     RDKit          3D

 42 43  0  0  0  0  0  0  0  0999 V2000
  144.1630  154.6680  132.9210 C   0  0  0  0  0  0  0  0  0  0  0  0
  145.0330  155.4820  133.7750 N   0  0  0  0  0  0  0  0  0  0  0  0
  145.0790  155.2380  135.2240 C   0  0  0  0  0  0  0  0  0  0  0  0
  146.4440  154.7820  135.6350 C   0  0  0  0  0  0  0  0  0  0  0  0
  146.5950  153.6750  136.2150 O   0  0  0  0  0  0  0  0  0  0  0  0
  147.5550  155.5670  135.3540 O   0  0  0  0  0  0  0  0  0  0  0  0
  145.8060  156.5440  133.1810 C   0  0  0  0  0  0  0  0  0  0  0  0
  146.7990  156.2750  132.4520 O   0  0  0  0  0  0  0  0  0  0  0  0
  145.4480  157.9170  133.3870 N   0  0  0  0  0  0  0  0  0  0  0  0
  146.2800  158.9830  133.5380 C   0  0  0  0  0  0  0  0  0  0  0  0
  147.7620  158.9150  133.5030 C   0  0  0  0  0  0  0  0  0  0  0  0
  148.4600  157.7270  133.8830 N   0  0  0  0  0  0  0  0  0  0  0  0
  148.4300  159.9170  133.1340 O   0  0  0  0  0  0  0  0  0  0  0  0
  145.5320  160.1470  133.7330 C   0  0  0  0  0  0  0  0  0  0  0  0
  144.2140  159.7470  133.6930 C   0  0  0  0  0  0  0  0  0  0  0  0
  143.0460  160.4800  133.8630 C   0  0  0  0  0  0  0  0  0  0  0  0
  141.8200  159.7950  133.8100 C   0  0  0  0  0  0  0  0  0  0  0  0
  141.7700  158.3880  133.5720 C   0  0  0  0  0  0  0  0  0  0  0  0
  140.4520  157.5990  133.5770 C   0  0  0  0  0  0  0  0  0  0  0  0
  139.6150  158.0090  132.3520 C   0  0  0  0  0  0  0  0  0  0  0  0
  140.6520  156.0690  133.5570 C   0  0  0  0  0  0  0  0  0  0  0  0
  139.6910  157.9210  134.8030 C   0  0  0  0  0  0  0  0  0  0  0  0
  139.0940  158.1730  135.7620 N   0  0  0  0  0  0  0  0  0  0  0  0
  142.9950  157.6870  133.4170 C   0  0  0  0  0  0  0  0  0  0  0  0
  144.1940  158.3990  133.4760 C   0  0  0  0  0  0  0  0  0  0  0  0
  143.5042  154.0516  133.5503 H   0  0  0  0  0  0  0  0  0  0  0  0
  143.5523  155.3266  132.2859 H   0  0  0  0  0  0  0  0  0  0  0  0
  144.7796  154.0149  132.2859 H   0  0  0  0  0  0  0  0  0  0  0  0
  144.8327  156.1688  135.7559 H   0  0  0  0  0  0  0  0  0  0  0  0
  144.3505  154.4534  135.4763 H   0  0  0  0  0  0  0  0  0  0  0  0
  149.5030  157.7010  133.8450 H   0  0  0  0  0  0  0  0  0  0  0  0
  147.9610  156.8690  134.2030 H   0  0  0  0  0  0  0  0  0  0  0  0
  145.9144  161.1670  133.8861 H   0  0  0  0  0  0  0  0  0  0  0  0
  143.0799  161.5660  134.0343 H   0  0  0  0  0  0  0  0  0  0  0  0
  140.8827  160.3524  133.9543 H   0  0  0  0  0  0  0  0  0  0  0  0
  138.6744  158.4698  132.6882 H   0  0  0  0  0  0  0  0  0  0  0  0
  140.1813  158.7317  131.7462 H   0  0  0  0  0  0  0  0  0  0  0  0
  139.3911  157.1186  131.7462 H   0  0  0  0  0  0  0  0  0  0  0  0
  140.7013  155.6921  134.5893 H   0  0  0  0  0  0  0  0  0  0  0  0
  139.8081  155.5957  133.0338 H   0  0  0  0  0  0  0  0  0  0  0  0
  141.5892  155.8285  133.0338 H   0  0  0  0  0  0  0  0  0  0  0  0
  142.9990  156.5993  133.2529 H   0  0  0  0  0  0  0  0  0  0  0  0
  1  2  1  0
  2  3  1  0
  3  4  1  0
  4  5  2  0
  4  6  1  0
  2  7  1  0
  7  8  2  0
  7  9  1  0
  9 10  1  0
 10 11  1  0
 11 12  1  0
 11 13  2  0
 10 14  2  0
 14 15  1  0
 15 16  2  0
 16 17  1  0
 17 18  2  0
 18 19  1  0
 19 20  1  0
 19 21  1  0
 19 22  1  0
 22 23  3  0
 18 24  1  0
 24 25  2  0
 25  9  1  0
 25 15  1  0
  1 26  1  0
  1 27  1  0
  1 28  1  0
  3 29  1  0
  3 30  1  0
 12 31  1  0
 12 32  1  0
 14 33  1  0
 16 34  1  0
 17 35  1  0
 20 36  1  0
 20 37  1  0
 20 38  1  0
 21 39  1  0
 21 40  1  0
 21 41  1  0
 24 42  1  0
M  CHG  1   6  -1
M  END
>  <UniqueID>  (56) 
56

>  <SMILES>  (56) 
CN(CC(=O)[O-])C(=O)n1c(C(N)=O)cc2ccc(C(C)(C)C#N)cc21

>  <Energy>  (56) 
78.36684870119765

>  <Genealogy>  (56) 
CN(CC(=O)[O-])C(=O)n1c(C(N)=O)cc2ccc(C(C)(C)C#N)cc21 (protonated)
CN(CC(=O)[O-])C(=O)n1c(C(N)=O)cc2ccc(C(C)(C)C#N)cc21 (3D coordinates assigned)
CN(CC(=O)[O-])C(=O)n1c(C(N)=O)cc2ccc(C(C)(C)C#N)cc21 (optimized conformer: 78.36684870119765 kcal/mol)

>  <smiles>  (56) 
CN(CC(=O)O)C(=O)n1c(C(N)=O)cc2ccc(C(C)(C)C#N)cc21

>  <score_type>  (56) 
oracle

>  <origin>  (56) 
adg

>  <m_score__min__energy>  (56) 
-7.6799999999999997

>  <m_primary>  (56) 
energy

$$$$
56:0
     RDKit          3D

 44 45  0  0  0  0  0  0  0  0999 V2000
  148.8100  155.9260  132.8620 C   0  0  0  0  0  0  0  0  0  0  0  0
  148.0260  156.8310  133.0150 C   0  0  0  0  0  0  0  0  0  0  0  0
  147.0830  157.9040  133.2160 C   0  0  0  0  0  0  0  0  0  0  0  0
  147.5450  159.2210  133.4030 C   0  0  0  0  0  0  0  0  0  0  0  0
  146.6350  160.2650  133.6230 C   0  0  0  0  0  0  0  0  0  0  0  0
  145.2780  159.9530  133.6770 C   0  0  0  0  0  0  0  0  0  0  0  0
  144.2120  160.7850  133.8610 C   0  0  0  0  0  0  0  0  0  0  0  0
  143.0880  159.9700  133.7950 C   0  0  0  0  0  0  0  0  0  0  0  0
  141.7280  160.5410  133.8690 C   0  0  0  0  0  0  0  0  0  0  0  0
  140.6370  159.7060  134.2560 N   0  0  0  0  0  0  0  0  0  0  0  0
  141.5380  161.7720  133.7250 O   0  0  0  0  0  0  0  0  0  0  0  0
  143.4340  158.6540  133.6200 N   0  0  0  0  0  0  0  0  0  0  0  0
  142.5220  157.5220  133.6590 C   0  0  0  0  0  0  0  0  0  0  0  0
  142.3200  156.8640  132.6090 O   0  0  0  0  0  0  0  0  0  0  0  0
  141.7740  157.1620  134.8490 N   0  0  1  0  0  0  0  0  0  0  0  0
  140.5210  156.4650  134.4970 C   0  0  0  0  0  0  0  0  0  0  0  0
  142.6050  156.3730  135.7980 C   0  0  0  0  0  0  0  0  0  0  0  0
  141.8070  155.4850  136.7290 C   0  0  0  0  0  0  0  0  0  0  0  0
  141.7690  154.2460  136.4860 O   0  0  0  0  0  0  0  0  0  0  0  0
  141.1210  156.0060  137.8910 N   0  0  0  0  0  0  0  0  0  0  0  0
  140.2690  155.1400  138.7150 C   0  0  0  0  0  0  0  0  0  0  0  0
  141.4000  157.3770  138.3440 C   0  0  0  0  0  0  0  0  0  0  0  0
  140.9470  158.3910  137.3350 C   0  0  0  0  0  0  0  0  0  0  0  0
  141.6900  159.3560  137.0150 O   0  0  0  0  0  0  0  0  0  0  0  0
  139.7240  158.2230  136.6930 O   0  0  0  0  0  0  0  0  0  0  0  0
  144.8000  158.6730  133.5220 C   0  0  0  0  0  0  0  0  0  0  0  0
  145.7030  157.6230  133.2580 C   0  0  0  0  0  0  0  0  0  0  0  0
  149.5244  155.1013  132.7226 H   0  0  0  0  0  0  0  0  0  0  0  0
  148.6243  159.4317  133.3764 H   0  0  0  0  0  0  0  0  0  0  0  0
  146.9826  161.3010  133.7494 H   0  0  0  0  0  0  0  0  0  0  0  0
  144.2370  161.8722  134.0267 H   0  0  0  0  0  0  0  0  0  0  0  0
  140.7020  159.1160  135.1100 H   0  0  0  0  0  0  0  0  0  0  0  0
  141.4540  158.0330  135.3230 H   0  0  0  0  0  0  0  0  0  0  0  0
  139.9937  156.1717  135.4168 H   0  0  0  0  0  0  0  0  0  0  0  0
  139.8812  157.1369  133.9060 H   0  0  0  0  0  0  0  0  0  0  0  0
  140.7545  155.5671  133.9060 H   0  0  0  0  0  0  0  0  0  0  0  0
  143.2863  155.7370  135.2139 H   0  0  0  0  0  0  0  0  0  0  0  0
  143.1377  157.0980  136.4310 H   0  0  0  0  0  0  0  0  0  0  0  0
  140.4645  155.3387  139.7791 H   0  0  0  0  0  0  0  0  0  0  0  0
  139.2118  155.3461  138.4917 H   0  0  0  0  0  0  0  0  0  0  0  0
  140.4923  154.0863  138.4917 H   0  0  0  0  0  0  0  0  0  0  0  0
  140.8714  157.5550  139.2921 H   0  0  0  0  0  0  0  0  0  0  0  0
  142.4868  157.4829  138.4765 H   0  0  0  0  0  0  0  0  0  0  0  0
  145.3358  156.6002  133.0874 H   0  0  0  0  0  0  0  0  0  0  0  0
  1  2  3  0
  2  3  1  0
  3  4  2  0
  4  5  1  0
  5  6  2  0
  6  7  1  0
  7  8  2  0
  8  9  1  0
  9 10  1  0
  9 11  2  0
  8 12  1  0
 12 13  1  0
 13 14  2  0
 13 15  1  0
 15 16  1  0
 15 17  1  0
 17 18  1  0
 18 19  2  0
 18 20  1  0
 20 21  1  0
 20 22  1  0
 22 23  1  0
 23 24  2  0
 23 25  1  0
 12 26  1  0
 26 27  2  0
 27  3  1  0
 26  6  1  0
  1 28  1  0
  4 29  1  0
  5 30  1  0
  7 31  1  0
 10 32  1  0
 15 33  1  1
 16 34  1  0
 16 35  1  0
 16 36  1  0
 17 37  1  0
 17 38  1  0
 21 39  1  0
 21 40  1  0
 21 41  1  0
 22 42  1  0
 22 43  1  0
 27 44  1  0
M  CHG  3  10  -1  15   1  25  -1
M  END
>  <UniqueID>  (57) 
57

>  <SMILES>  (57) 
C#Cc1ccc2cc(C([NH-])=O)n(C(=O)[N@@H+](C)CC(=O)N(C)CC(=O)[O-])c2c1

>  <Energy>  (57) 
93.3086897086388

>  <Genealogy>  (57) 
C#Cc1ccc2cc(C([NH-])=O)n(C(=O)[NH+](C)CC(=O)N(C)CC(=O)[O-])c2c1 (protonated)
C#Cc1ccc2cc(C([NH-])=O)n(C(=O)[N@@H+](C)CC(=O)N(C)CC(=O)[O-])c2c1 (chirality)
C#Cc1ccc2cc(C([NH-])=O)n(C(=O)[N@@H+](C)CC(=O)N(C)CC(=O)[O-])c2c1 (3D coordinates assigned)
C#Cc1ccc2cc(C([NH-])=O)n(C(=O)[N@@H+](C)CC(=O)N(C)CC(=O)[O-])c2c1 (optimized conformer: 93.3086897086388 kcal/mol)

>  <smiles>  (57) 
C#Cc1ccc2cc(C(N)=O)n(C(=O)N(C)CC(=O)N(C)CC(=O)O)c2c1

>  <score_type>  (57) 
oracle

>  <origin>  (57) 
adg

>  <m_score__min__energy>  (57) 
-6.9699999999999998

>  <m_primary>  (57) 
energy

$$$$
57:0
     RDKit          3D

 50 51  0  0  0  0  0  0  0  0999 V2000
  139.0450  160.8640  131.8740 C   0  0  0  0  0  0  0  0  0  0  0  0
  139.1460  159.4260  131.6060 N   0  0  0  0  0  0  0  0  0  0  0  0
  139.0560  158.9230  130.2310 C   0  0  0  0  0  0  0  0  0  0  0  0
  139.3260  158.5150  132.7120 C   0  0  0  0  0  0  0  0  0  0  0  0
  139.4100  158.9730  133.8860 O   0  0  0  0  0  0  0  0  0  0  0  0
  139.3950  157.0220  132.4870 C   0  0  0  0  0  0  0  0  0  0  0  0
  139.7970  156.2390  133.7460 C   0  0  0  0  0  0  0  0  0  0  0  0
  141.3140  156.0380  133.8390 C   0  0  0  0  0  0  0  0  0  0  0  0
  142.0110  157.3230  133.8260 N   0  0  0  0  0  0  0  0  0  0  0  0
  143.4410  157.4360  133.8560 C   0  0  0  0  0  0  0  0  0  0  0  0
  144.1600  156.4030  133.9480 O   0  0  0  0  0  0  0  0  0  0  0  0
  144.0610  158.7310  133.8240 N   0  0  0  0  0  0  0  0  0  0  0  0
  143.5030  159.9320  134.1440 C   0  0  0  0  0  0  0  0  0  0  0  0
  142.0760  160.1740  134.4430 C   0  0  0  0  0  0  0  0  0  0  0  0
  141.4530  159.5790  135.5790 N   0  0  0  0  0  0  0  0  0  0  0  0
  141.3840  160.8800  133.6610 O   0  0  0  0  0  0  0  0  0  0  0  0
  144.4520  160.9480  134.0640 C   0  0  0  0  0  0  0  0  0  0  0  0
  145.6150  160.3290  133.6670 C   0  0  0  0  0  0  0  0  0  0  0  0
  146.8750  160.8630  133.4250 C   0  0  0  0  0  0  0  0  0  0  0  0
  147.9000  159.9850  133.0330 C   0  0  0  0  0  0  0  0  0  0  0  0
  147.6580  158.5900  132.8980 C   0  0  0  0  0  0  0  0  0  0  0  0
  148.7260  157.6950  132.4950 N   0  0  0  0  0  0  0  0  0  0  0  0
  149.9360  158.2220  131.8540 C   0  0  0  0  0  0  0  0  0  0  0  0
  148.6160  156.2530  132.7350 C   0  0  0  0  0  0  0  0  0  0  0  0
  146.3580  158.0900  133.1630 C   0  0  0  0  0  0  0  0  0  0  0  0
  145.3540  158.9920  133.5300 C   0  0  0  0  0  0  0  0  0  0  0  0
  139.0330  161.0345  132.9606 H   0  0  0  0  0  0  0  0  0  0  0  0
  139.9090  161.3811  131.4312 H   0  0  0  0  0  0  0  0  0  0  0  0
  138.1172  161.2552  131.4312 H   0  0  0  0  0  0  0  0  0  0  0  0
  138.8623  157.8403  130.2486 H   0  0  0  0  0  0  0  0  0  0  0  0
  138.2350  159.4339  129.7067 H   0  0  0  0  0  0  0  0  0  0  0  0
  140.0032  159.1176  129.7067 H   0  0  0  0  0  0  0  0  0  0  0  0
  138.4054  156.6717  132.1584 H   0  0  0  0  0  0  0  0  0  0  0  0
  140.1701  156.8410  131.7277 H   0  0  0  0  0  0  0  0  0  0  0  0
  139.4576  156.7944  134.6328 H   0  0  0  0  0  0  0  0  0  0  0  0
  139.3259  155.2464  133.6929 H   0  0  0  0  0  0  0  0  0  0  0  0
  141.5508  155.5090  134.7739 H   0  0  0  0  0  0  0  0  0  0  0  0
  141.6449  155.4492  132.9708 H   0  0  0  0  0  0  0  0  0  0  0  0
  141.4380  158.1940  133.8850 H   0  0  0  0  0  0  0  0  0  0  0  0
  140.4150  159.5770  135.6830 H   0  0  0  0  0  0  0  0  0  0  0  0
  144.3035  162.0176  134.2735 H   0  0  0  0  0  0  0  0  0  0  0  0
  147.0644  161.9408  133.5369 H   0  0  0  0  0  0  0  0  0  0  0  0
  148.9047  160.3828  132.8275 H   0  0  0  0  0  0  0  0  0  0  0  0
  150.6538  158.5346  132.6267 H   0  0  0  0  0  0  0  0  0  0  0  0
  150.3893  157.4398  131.2274 H   0  0  0  0  0  0  0  0  0  0  0  0
  149.6721  159.0867  131.2274 H   0  0  0  0  0  0  0  0  0  0  0  0
  148.6014  156.0616  133.8181 H   0  0  0  0  0  0  0  0  0  0  0  0
  147.6865  155.8760  132.2835 H   0  0  0  0  0  0  0  0  0  0  0  0
  149.4776  155.7394  132.2835 H   0  0  0  0  0  0  0  0  0  0  0  0
  146.1433  157.0142  133.0816 H   0  0  0  0  0  0  0  0  0  0  0  0
  1  2  1  0
  2  3  1  0
  2  4  1  0
  4  5  2  0
  4  6  1  0
  6  7  1  0
  7  8  1  0
  8  9  1  0
  9 10  1  0
 10 11  2  0
 10 12  1  0
 12 13  1  0
 13 14  1  0
 14 15  1  0
 14 16  2  0
 13 17  2  0
 17 18  1  0
 18 19  2  0
 19 20  1  0
 20 21  2  0
 21 22  1  0
 22 23  1  0
 22 24  1  0
 21 25  1  0
 25 26  2  0
 26 12  1  0
 26 18  1  0
  1 27  1  0
  1 28  1  0
  1 29  1  0
  3 30  1  0
  3 31  1  0
  3 32  1  0
  6 33  1  0
  6 34  1  0
  7 35  1  0
  7 36  1  0
  8 37  1  0
  8 38  1  0
  9 39  1  0
 15 40  1  0
 17 41  1  0
 19 42  1  0
 20 43  1  0
 23 44  1  0
 23 45  1  0
 23 46  1  0
 24 47  1  0
 24 48  1  0
 24 49  1  0
 25 50  1  0
M  CHG  1  15  -1
M  END
>  <UniqueID>  (58) 
58

>  <SMILES>  (58) 
CN(C)C(=O)CCCNC(=O)n1c(C([NH-])=O)cc2ccc(N(C)C)cc21

>  <Energy>  (58) 
81.46005419179927

>  <Genealogy>  (58) 
CN(C)C(=O)CCCNC(=O)n1c(C([NH-])=O)cc2ccc(N(C)C)cc21 (protonated)
CN(C)C(=O)CCCNC(=O)n1c(C([NH-])=O)cc2ccc(N(C)C)cc21 (3D coordinates assigned)
CN(C)C(=O)CCCNC(=O)n1c(C([NH-])=O)cc2ccc(N(C)C)cc21 (optimized conformer: 81.46005419179927 kcal/mol)

>  <smiles>  (58) 
CN(C)C(=O)CCCNC(=O)n1c(C(N)=O)cc2ccc(N(C)C)cc21

>  <score_type>  (58) 
oracle

>  <origin>  (58) 
adg

>  <m_score__min__energy>  (58) 
-7.6699999999999999

>  <m_primary>  (58) 
energy

$$$$
58:0
     RDKit          3D

 75 79  0  0  0  0  0  0  0  0999 V2000
  145.3780  151.9500  139.3020 C   0  0  0  0  0  0  0  0  0  0  0  0
  144.6570  150.6070  139.4750 C   0  0  0  0  0  0  0  0  0  0  0  0
  143.2120  150.6770  140.0690 C   0  0  2  0  0  0  0  0  0  0  0  0
  143.1620  149.7530  141.1380 O   0  0  0  0  0  0  0  0  0  0  0  0
  142.1410  150.2110  138.9980 C   0  0  0  0  0  0  0  0  0  0  0  0
  141.0200  151.2220  138.6930 C   0  0  1  0  0  0  0  0  0  0  0  0
  140.5660  151.8630  139.9900 C   0  0  0  0  0  0  0  0  0  0  0  0
  141.6930  152.8690  140.2080 C   0  0  2  0  0  0  0  0  0  0  0  0
  141.2870  153.9760  141.1960 C   0  0  0  0  0  0  0  0  0  0  0  0
  141.9310  153.4290  138.7940 C   0  0  0  0  0  0  0  0  0  0  0  0
  141.5500  152.3340  137.9150 N   0  0  0  0  0  0  0  0  0  0  0  0
  141.7710  152.2880  136.4930 C   0  0  0  0  0  0  0  0  0  0  0  0
  140.9820  151.6250  135.7660 O   0  0  0  0  0  0  0  0  0  0  0  0
  142.9020  152.9880  135.8540 C   0  0  0  0  0  0  0  0  0  0  0  0
  143.1080  152.8660  134.4710 C   0  0  0  0  0  0  0  0  0  0  0  0
  144.1280  153.5840  133.8400 C   0  0  0  0  0  0  0  0  0  0  0  0
  144.9600  154.4400  134.5810 C   0  0  0  0  0  0  0  0  0  0  0  0
  146.0140  155.2380  133.9090 C   0  0  0  0  0  0  0  0  0  0  0  0
  147.2340  154.6280  133.5190 C   0  0  0  0  0  0  0  0  0  0  0  0
  148.2490  155.3810  132.9060 C   0  0  0  0  0  0  0  0  0  0  0  0
  148.0270  156.7400  132.7110 C   0  0  0  0  0  0  0  0  0  0  0  0
  148.8430  157.6990  132.1560 C   0  0  0  0  0  0  0  0  0  0  0  0
  148.1260  158.8900  132.2400 C   0  0  0  0  0  0  0  0  0  0  0  0
  148.6930  160.2030  131.8640 C   0  0  0  0  0  0  0  0  0  0  0  0
  149.9020  160.2650  131.1130 N   0  0  0  0  0  0  0  0  0  0  0  0
  148.1460  161.2750  132.2360 O   0  0  0  0  0  0  0  0  0  0  0  0
  146.9060  158.6740  132.8100 N   0  0  0  0  0  0  0  0  0  0  0  0
  145.8540  159.6330  133.0130 C   0  0  0  0  0  0  0  0  0  0  0  0
  146.1390  160.8060  133.3780 O   0  0  0  0  0  0  0  0  0  0  0  0
  144.5200  159.2470  132.8130 O   0  0  0  0  0  0  0  0  0  0  0  0
  143.4510  159.3490  133.7670 C   0  0  0  0  0  0  0  0  0  0  0  0
  143.7270  160.4750  134.7810 C   0  0  0  0  0  0  0  0  0  0  0  0
  143.2450  158.0030  134.4880 C   0  0  0  0  0  0  0  0  0  0  0  0
  142.1750  159.6920  132.9820 C   0  0  0  0  0  0  0  0  0  0  0  0
  146.8620  157.3530  133.0950 C   0  0  0  0  0  0  0  0  0  0  0  0
  145.8210  156.6220  133.6810 C   0  0  0  0  0  0  0  0  0  0  0  0
  144.7530  154.5600  135.9650 C   0  0  0  0  0  0  0  0  0  0  0  0
  143.7250  153.8520  136.5930 C   0  0  0  0  0  0  0  0  0  0  0  0
  142.9470  152.0980  140.7160 C   0  0  0  0  0  0  0  0  0  0  0  0
  145.6057  152.3740  140.2911 H   0  0  0  0  0  0  0  0  0  0  0  0
  146.3140  151.7946  138.7454 H   0  0  0  0  0  0  0  0  0  0  0  0
  144.7314  152.6443  138.7454 H   0  0  0  0  0  0  0  0  0  0  0  0
  144.5917  150.1301  138.4859 H   0  0  0  0  0  0  0  0  0  0  0  0
  145.2523  150.0427  140.2080 H   0  0  0  0  0  0  0  0  0  0  0  0
  143.2390  148.8340  140.7680 H   0  0  0  0  0  0  0  0  0  0  0  0
  142.6721  150.0010  138.0579 H   0  0  0  0  0  0  0  0  0  0  0  0
  141.6428  149.3325  139.4339 H   0  0  0  0  0  0  0  0  0  0  0  0
  140.2170  150.6853  138.1665 H   0  0  0  0  0  0  0  0  0  0  0  0
  139.5918  152.3615  139.8781 H   0  0  0  0  0  0  0  0  0  0  0  0
  140.4107  151.1593  140.8210 H   0  0  0  0  0  0  0  0  0  0  0  0
  141.4196  153.6145  142.2264 H   0  0  0  0  0  0  0  0  0  0  0  0
  141.9188  154.8618  141.0340 H   0  0  0  0  0  0  0  0  0  0  0  0
  140.2323  154.2433  141.0340 H   0  0  0  0  0  0  0  0  0  0  0  0
  141.3025  154.3134  138.6125 H   0  0  0  0  0  0  0  0  0  0  0  0
  142.9691  153.7573  138.6371 H   0  0  0  0  0  0  0  0  0  0  0  0
  142.4621  152.2006  133.8794 H   0  0  0  0  0  0  0  0  0  0  0  0
  144.2803  153.4781  132.7558 H   0  0  0  0  0  0  0  0  0  0  0  0
  147.3868  153.5536  133.6986 H   0  0  0  0  0  0  0  0  0  0  0  0
  149.1913  154.9099  132.5896 H   0  0  0  0  0  0  0  0  0  0  0  0
  149.8490  157.5553  131.7350 H   0  0  0  0  0  0  0  0  0  0  0  0
  150.7540  160.7180  131.5100 H   0  0  0  0  0  0  0  0  0  0  0  0
  143.6302  160.0799  135.8030 H   0  0  0  0  0  0  0  0  0  0  0  0
  144.7463  160.8608  134.6321 H   0  0  0  0  0  0  0  0  0  0  0  0
  143.0017  161.2885  134.6321 H   0  0  0  0  0  0  0  0  0  0  0  0
  143.2694  158.1624  135.5761 H   0  0  0  0  0  0  0  0  0  0  0  0
  142.2715  157.5787  134.2013 H   0  0  0  0  0  0  0  0  0  0  0  0
  144.0471  157.3069  134.2013 H   0  0  0  0  0  0  0  0  0  0  0  0
  141.3590  159.9113  133.6863 H   0  0  0  0  0  0  0  0  0  0  0  0
  142.3595  160.5724  132.3489 H   0  0  0  0  0  0  0  0  0  0  0  0
  141.8932  158.8377  132.3489 H   0  0  0  0  0  0  0  0  0  0  0  0
  144.8756  157.1116  133.9576 H   0  0  0  0  0  0  0  0  0  0  0  0
  145.4054  155.2166  136.5593 H   0  0  0  0  0  0  0  0  0  0  0  0
  143.5596  153.9726  137.6738 H   0  0  0  0  0  0  0  0  0  0  0  0
  143.8284  152.7254  140.5174 H   0  0  0  0  0  0  0  0  0  0  0  0
  142.7568  151.9022  141.7816 H   0  0  0  0  0  0  0  0  0  0  0  0
  1  2  1  0
  2  3  1  0
  3  4  1  1
  3  5  1  0
  5  6  1  0
  6  7  1  0
  7  8  1  0
  8  9  1  1
  8 10  1  0
 10 11  1  0
 11 12  1  0
 12 13  2  0
 12 14  1  0
 14 15  2  0
 15 16  1  0
 16 17  2  0
 17 18  1  0
 18 19  2  0
 19 20  1  0
 20 21  2  0
 21 22  1  0
 22 23  2  0
 23 24  1  0
 24 25  1  0
 24 26  2  0
 23 27  1  0
 27 28  1  0
 28 29  2  0
 28 30  1  0
 30 31  1  0
 31 32  1  0
 31 33  1  0
 31 34  1  0
 27 35  1  0
 35 36  2  0
 17 37  1  0
 37 38  2  0
  8 39  1  0
 39  3  1  0
 11  6  1  0
 38 14  1  0
 36 18  1  0
 35 21  1  0
  1 40  1  0
  1 41  1  0
  1 42  1  0
  2 43  1  0
  2 44  1  0
  4 45  1  0
  5 46  1  0
  5 47  1  0
  6 48  1  6
  7 49  1  0
  7 50  1  0
  9 51  1  0
  9 52  1  0
  9 53  1  0
 10 54  1  0
 10 55  1  0
 15 56  1  0
 16 57  1  0
 19 58  1  0
 20 59  1  0
 22 60  1  0
 25 61  1  0
 32 62  1  0
 32 63  1  0
 32 64  1  0
 33 65  1  0
 33 66  1  0
 33 67  1  0
 34 68  1  0
 34 69  1  0
 34 70  1  0
 36 71  1  0
 37 72  1  0
 38 73  1  0
 39 74  1  0
 39 75  1  0
M  CHG  1  25  -1
M  END
>  <UniqueID>  (59) 
59

>  <SMILES>  (59) 
CC[C@]1(O)C[C@H]2CC(C)(CN2C(=O)c2ccc(-c3ccc4cc(C([NH-])=O)n(C(=O)OC(C)(C)C)c4c3)cc2)C1

>  <Energy>  (59) 
142.09420890716876

>  <Genealogy>  (59) 
CCC1(O)CC2CC(C)(CN2C(=O)c2ccc(-c3ccc4cc(C([NH-])=O)n(C(=O)OC(C)(C)C)c4c3)cc2)C1 (protonated)
CC[C@]1(O)C[C@H]2CC(C)(CN2C(=O)c2ccc(-c3ccc4cc(C([NH-])=O)n(C(=O)OC(C)(C)C)c4c3)cc2)C1 (chirality)
CC[C@]1(O)C[C@H]2CC(C)(CN2C(=O)c2ccc(-c3ccc4cc(C([NH-])=O)n(C(=O)OC(C)(C)C)c4c3)cc2)C1 (3D coordinates assigned)
CC[C@]1(O)C[C@H]2CC(C)(CN2C(=O)c2ccc(-c3ccc4cc(C([NH-])=O)n(C(=O)OC(C)(C)C)c4c3)cc2)C1 (nonaromatic ring conformer: 142.09420890716876 kcal/mol)

>  <smiles>  (59) 
CCC1(O)CC2CC(C)(CN2C(=O)c2ccc(-c3ccc4cc(C(N)=O)n(C(=O)OC(C)(C)C)c4c3)cc2)C1

>  <score_type>  (59) 
oracle

>  <origin>  (59) 
adg

>  <m_score__min__energy>  (59) 
-10.279999999999999

>  <m_primary>  (59) 
energy

$$$$
59:0
     RDKit          3D

 38 39  0  0  0  0  0  0  0  0999 V2000
  144.4445  154.3372  135.9132 H   0  0  0  0  0  0  0  0  0  0  0  0
  145.2290  154.8540  135.3410 C   0  0  0  0  0  0  0  0  0  0  0  0
  146.6270  154.6040  135.7330 C   0  0  0  0  0  0  0  0  0  0  0  0
  147.4910  155.5000  135.5430 O   0  0  0  0  0  0  0  0  0  0  0  0
  146.9930  153.4350  136.3870 O   0  0  0  0  0  0  0  0  0  0  0  0
  144.8340  155.6590  134.3450 C   0  0  0  0  0  0  0  0  0  0  0  0
  143.7756  155.6106  134.0492 H   0  0  0  0  0  0  0  0  0  0  0  0
  145.6980  156.6060  133.6100 C   0  0  0  0  0  0  0  0  0  0  0  0
  146.5790  156.1370  132.8410 O   0  0  0  0  0  0  0  0  0  0  0  0
  145.5100  158.0320  133.6830 N   0  0  0  0  0  0  0  0  0  0  0  0
  146.4610  159.0090  133.6560 C   0  0  0  0  0  0  0  0  0  0  0  0
  147.9220  158.7980  133.6850 C   0  0  0  0  0  0  0  0  0  0  0  0
  148.6920  159.7600  133.4190 O   0  0  0  0  0  0  0  0  0  0  0  0
  148.4800  157.5410  134.0680 N   0  0  0  0  0  0  0  0  0  0  0  0
  147.8790  156.7780  134.4500 H   0  0  0  0  0  0  0  0  0  0  0  0
  149.5140  157.3960  134.0420 H   0  0  0  0  0  0  0  0  0  0  0  0
  145.8720  160.2700  133.6620 C   0  0  0  0  0  0  0  0  0  0  0  0
  146.3805  161.2448  133.6264 H   0  0  0  0  0  0  0  0  0  0  0  0
  144.5170  160.0360  133.7220 C   0  0  0  0  0  0  0  0  0  0  0  0
  143.4560  160.9330  133.7480 C   0  0  0  0  0  0  0  0  0  0  0  0
  143.6317  162.0189  133.7429 H   0  0  0  0  0  0  0  0  0  0  0  0
  142.1520  160.4110  133.7810 C   0  0  0  0  0  0  0  0  0  0  0  0
  141.2947  161.0997  133.8097 H   0  0  0  0  0  0  0  0  0  0  0  0
  141.9210  159.0070  133.7780 C   0  0  0  0  0  0  0  0  0  0  0  0
  140.5690  158.4820  133.8000 N   0  0  0  0  0  0  0  0  0  0  0  0
  139.8920  158.2380  135.0800 C   0  0  0  0  0  0  0  0  0  0  0  0
  140.5734  158.4836  135.9079 H   0  0  0  0  0  0  0  0  0  0  0  0
  138.9932  158.8688  135.1455 H   0  0  0  0  0  0  0  0  0  0  0  0
  139.6022  157.1789  135.1455 H   0  0  0  0  0  0  0  0  0  0  0  0
  139.8560  158.1540  132.5560 C   0  0  0  0  0  0  0  0  0  0  0  0
  140.4677  157.4592  131.9618 H   0  0  0  0  0  0  0  0  0  0  0  0
  138.8921  157.6904  132.8129 H   0  0  0  0  0  0  0  0  0  0  0  0
  139.5960  159.3910  131.7520 C   0  0  0  0  0  0  0  0  0  0  0  0
  139.4180  160.4950  132.3290 O   0  0  0  0  0  0  0  0  0  0  0  0
  139.5080  159.3180  130.3670 O   0  0  0  0  0  0  0  0  0  0  0  0
  143.0390  158.1320  133.7520 C   0  0  0  0  0  0  0  0  0  0  0  0
  142.8961  157.0414  133.7430 H   0  0  0  0  0  0  0  0  0  0  0  0
  144.3240  158.6810  133.7380 C   0  0  0  0  0  0  0  0  0  0  0  0
  1  2  1  0
  2  3  1  0
  3  4  2  0
  3  5  1  0
  2  6  2  0
  6  7  1  0
  6  8  1  0
  8  9  2  0
  8 10  1  0
 10 11  1  0
 11 12  1  0
 12 13  2  0
 12 14  1  0
 14 15  1  0
 14 16  1  0
 11 17  2  0
 17 18  1  0
 17 19  1  0
 19 20  2  0
 20 21  1  0
 20 22  1  0
 22 23  1  0
 22 24  2  0
 24 25  1  0
 25 26  1  0
 26 27  1  0
 26 28  1  0
 26 29  1  0
 25 30  1  0
 30 31  1  0
 30 32  1  0
 30 33  1  0
 33 34  2  0
 33 35  1  0
 24 36  1  0
 36 37  1  0
 36 38  2  0
 38 10  1  0
 38 19  1  0
M  CHG  2   5  -1  35  -1
M  END
>  <UniqueID>  (60) 
60

>  <SMILES>  (60) 
CN(CC(=O)[O-])c1ccc2cc(C(N)=O)n(C(=O)/C=C\C(=O)[O-])c2c1

>  <Energy>  (60) 
84.89158646436488

>  <Genealogy>  (60) 
CN(CC(=O)[O-])c1ccc2cc(C(N)=O)n(C(=O)/C=C\C(=O)[O-])c2c1 (protonated)
CN(CC(=O)[O-])c1ccc2cc(C(N)=O)n(C(=O)/C=C\C(=O)[O-])c2c1 (cis-trans isomerization)
CN(CC(=O)[O-])c1ccc2cc(C(N)=O)n(C(=O)/C=C\C(=O)[O-])c2c1 (3D coordinates assigned)
CN(CC(=O)[O-])c1ccc2cc(C(N)=O)n(C(=O)/C=C\C(=O)[O-])c2c1 (optimized conformer: 84.89158646436488 kcal/mol)

>  <smiles>  (60) 
CN(CC(=O)O)c1ccc2cc(C(N)=O)n(C(=O)/C=C\C(=O)O)c2c1

>  <score_type>  (60) 
oracle

>  <origin>  (60) 
adg

>  <m_score__min__energy>  (60) 
-7.2400000000000002

>  <m_primary>  (60) 
energy

$$$$
60:0
     RDKit          3D

 39 40  0  0  0  0  0  0  0  0999 V2000
  141.2260  159.8470  134.9050 N   0  0  0  0  0  0  0  0  0  0  0  0
  141.0120  158.9440  135.9910 C   0  0  0  0  0  0  0  0  0  0  0  0
  140.6110  159.4000  137.0950 O   0  0  0  0  0  0  0  0  0  0  0  0
  141.2380  157.4890  135.8290 C   0  0  0  0  0  0  0  0  0  0  0  0
  141.5970  156.6240  136.8640 C   0  0  0  0  0  0  0  0  0  0  0  0
  141.7540  155.3910  136.2720 C   0  0  0  0  0  0  0  0  0  0  0  0
  142.0760  154.1610  136.8360 C   0  0  0  0  0  0  0  0  0  0  0  0
  142.1270  153.0400  135.9890 C   0  0  0  0  0  0  0  0  0  0  0  0
  141.8650  153.1680  134.6010 C   0  0  0  0  0  0  0  0  0  0  0  0
  141.8620  151.9480  133.7150 C   0  0  0  0  0  0  0  0  0  0  0  0
  143.1510  151.6230  133.3270 F   0  0  0  0  0  0  0  0  0  0  0  0
  141.3250  150.8610  134.3820 F   0  0  0  0  0  0  0  0  0  0  0  0
  141.1040  152.2060  132.5880 F   0  0  0  0  0  0  0  0  0  0  0  0
  141.5160  154.4310  134.0710 C   0  0  0  0  0  0  0  0  0  0  0  0
  141.4940  155.5310  134.9350 C   0  0  0  0  0  0  0  0  0  0  0  0
  141.1830  156.8140  134.6480 N   0  0  0  0  0  0  0  0  0  0  0  0
  140.7930  157.3310  133.3650 C   0  0  0  0  0  0  0  0  0  0  0  0
  141.6130  158.0120  132.6940 O   0  0  0  0  0  0  0  0  0  0  0  0
  139.4580  157.0590  132.8150 C   0  0  0  0  0  0  0  0  0  0  0  0
  139.1100  155.8720  132.5680 O   0  0  0  0  0  0  0  0  0  0  0  0
  138.5910  158.1250  132.5560 O   0  0  0  0  0  0  0  0  0  0  0  0
  138.2320  158.5560  131.2430 C   0  0  0  0  0  0  0  0  0  0  0  0
  139.0990  159.7400  130.7750 C   0  0  2  0  0  0  0  0  0  0  0  0
  140.3840  159.3040  130.4040 O   0  0  0  0  0  0  0  0  0  0  0  0
  139.1770  160.8670  131.8250 C   0  0  0  0  0  0  0  0  0  0  0  0
  140.1110  160.5550  132.8240 O   0  0  0  0  0  0  0  0  0  0  0  0
  141.0280  160.8660  135.0260 H   0  0  0  0  0  0  0  0  0  0  0  0
  141.6210  159.5250  133.9950 H   0  0  0  0  0  0  0  0  0  0  0  0
  141.7269  156.8744  137.9272 H   0  0  0  0  0  0  0  0  0  0  0  0
  142.2844  154.0681  137.9121 H   0  0  0  0  0  0  0  0  0  0  0  0
  142.3728  152.0528  136.4074 H   0  0  0  0  0  0  0  0  0  0  0  0
  141.2679  154.5461  133.0056 H   0  0  0  0  0  0  0  0  0  0  0  0
  138.3660  157.7177  130.5435 H   0  0  0  0  0  0  0  0  0  0  0  0
  137.1832  158.8869  131.2655 H   0  0  0  0  0  0  0  0  0  0  0  0
  138.6062  160.1674  129.8893 H   0  0  0  0  0  0  0  0  0  0  0  0
  140.9850  159.4250  131.1860 H   0  0  0  0  0  0  0  0  0  0  0  0
  139.4784  161.8014  131.3290 H   0  0  0  0  0  0  0  0  0  0  0  0
  138.1876  160.9823  132.2917 H   0  0  0  0  0  0  0  0  0  0  0  0
  140.2960  159.5830  132.7470 H   0  0  0  0  0  0  0  0  0  0  0  0
  1  2  1  0
  2  3  2  0
  2  4  1  0
  4  5  2  0
  5  6  1  0
  6  7  2  0
  7  8  1  0
  8  9  2  0
  9 10  1  0
 10 11  1  0
 10 12  1  0
 10 13  1  0
  9 14  1  0
 14 15  2  0
 15 16  1  0
 16 17  1  0
 17 18  2  0
 17 19  1  0
 19 20  2  0
 19 21  1  0
 21 22  1  0
 22 23  1  0
 23 24  1  0
 23 25  1  0
 25 26  1  0
 16  4  1  0
 15  6  1  0
  1 27  1  0
  1 28  1  0
  5 29  1  0
  7 30  1  0
  8 31  1  0
 14 32  1  0
 22 33  1  0
 22 34  1  0
 23 35  1  6
 24 36  1  0
 25 37  1  0
 25 38  1  0
 26 39  1  0
M  END
>  <UniqueID>  (61) 
61

>  <SMILES>  (61) 
NC(=O)c1cc2ccc(C(F)(F)F)cc2n1C(=O)C(=O)OC[C@H](O)CO

>  <Energy>  (61) 
75.85470157026285

>  <Genealogy>  (61) 
NC(=O)c1cc2ccc(C(F)(F)F)cc2n1C(=O)C(=O)OC[C@H](O)CO (chirality)
NC(=O)c1cc2ccc(C(F)(F)F)cc2n1C(=O)C(=O)OC[C@H](O)CO (3D coordinates assigned)
NC(=O)c1cc2ccc(C(F)(F)F)cc2n1C(=O)C(=O)OC[C@H](O)CO (optimized conformer: 75.85470157026285 kcal/mol)

>  <smiles>  (61) 
NC(=O)c1cc2ccc(C(F)(F)F)cc2n1C(=O)C(=O)OCC(O)CO

>  <score_type>  (61) 
oracle

>  <origin>  (61) 
adg

>  <m_score__min__energy>  (61) 
-5.3899999999999997

>  <m_primary>  (61) 
energy

$$$$
61:0
     RDKit          3D

 50 53  0  0  0  0  0  0  0  0999 V2000
  148.1250  152.3650  132.9480 C   0  0  0  0  0  0  0  0  0  0  0  0
  147.3020  153.5700  132.8150 N   0  0  0  0  0  0  0  0  0  0  0  0
  145.8490  153.5080  132.9870 C   0  0  0  0  0  0  0  0  0  0  0  0
  147.9190  154.8270  132.4920 C   0  0  0  0  0  0  0  0  0  0  0  0
  149.1580  154.8790  132.2590 O   0  0  0  0  0  0  0  0  0  0  0  0
  147.1370  155.9910  132.4510 O   0  0  0  0  0  0  0  0  0  0  0  0
  146.7930  156.7700  133.5630 C   0  0  0  0  0  0  0  0  0  0  0  0
  146.6530  156.2410  134.7000 O   0  0  0  0  0  0  0  0  0  0  0  0
  146.6380  158.1920  133.4120 N   0  0  0  0  0  0  0  0  0  0  0  0
  147.5470  159.0880  132.9280 C   0  0  0  0  0  0  0  0  0  0  0  0
  148.9560  158.8000  132.5870 C   0  0  0  0  0  0  0  0  0  0  0  0
  149.3540  157.4660  132.2810 N   0  0  0  0  0  0  0  0  0  0  0  0
  149.8070  159.7270  132.5250 O   0  0  0  0  0  0  0  0  0  0  0  0
  146.9940  160.3650  132.8740 C   0  0  0  0  0  0  0  0  0  0  0  0
  145.7120  160.2280  133.3550 C   0  0  0  0  0  0  0  0  0  0  0  0
  144.7100  161.1820  133.5130 C   0  0  0  0  0  0  0  0  0  0  0  0
  143.4700  160.7560  134.0130 C   0  0  0  0  0  0  0  0  0  0  0  0
  143.2510  159.3950  134.3430 C   0  0  0  0  0  0  0  0  0  0  0  0
  141.9750  158.9640  134.8480 N   0  0  0  0  0  0  0  0  0  0  0  0
  140.7540  159.2390  134.0670 C   0  0  0  0  0  0  0  0  0  0  0  0
  139.6060  158.2940  134.4930 C   0  0  1  0  0  0  0  0  0  0  0  0
  139.9730  156.8340  134.2080 C   0  0  0  0  0  0  0  0  0  0  0  0
  140.6450  156.3640  135.4960 C   0  0  0  0  0  0  0  0  0  0  0  0
  140.6020  157.5940  136.4070 C   0  0  1  0  0  0  0  0  0  0  0  0
  141.8790  158.4490  136.2280 C   0  0  0  0  0  0  0  0  0  0  0  0
  139.4460  158.3550  135.9430 N   0  0  0  0  0  0  0  0  0  0  0  0
  144.2890  158.4550  134.1570 C   0  0  0  0  0  0  0  0  0  0  0  0
  145.5210  158.9090  133.6750 C   0  0  0  0  0  0  0  0  0  0  0  0
  148.2779  152.1412  134.0141 H   0  0  0  0  0  0  0  0  0  0  0  0
  147.6158  151.5181  132.4649 H   0  0  0  0  0  0  0  0  0  0  0  0
  149.0992  152.5312  132.4649 H   0  0  0  0  0  0  0  0  0  0  0  0
  145.6069  153.4977  134.0600 H   0  0  0  0  0  0  0  0  0  0  0  0
  145.3861  154.3872  132.5151 H   0  0  0  0  0  0  0  0  0  0  0  0
  145.4626  152.5925  132.5151 H   0  0  0  0  0  0  0  0  0  0  0  0
  148.8530  156.9110  131.5530 H   0  0  0  0  0  0  0  0  0  0  0  0
  147.4790  161.2873  132.5217 H   0  0  0  0  0  0  0  0  0  0  0  0
  144.8851  162.2366  133.2540 H   0  0  0  0  0  0  0  0  0  0  0  0
  142.6590  161.4863  134.1504 H   0  0  0  0  0  0  0  0  0  0  0  0
  140.4449  160.2811  134.2357 H   0  0  0  0  0  0  0  0  0  0  0  0
  140.9715  159.0722  133.0017 H   0  0  0  0  0  0  0  0  0  0  0  0
  138.7049  158.6041  133.9437 H   0  0  0  0  0  0  0  0  0  0  0  0
  139.0725  156.2385  133.9969 H   0  0  0  0  0  0  0  0  0  0  0  0
  140.6228  156.7249  133.3272 H   0  0  0  0  0  0  0  0  0  0  0  0
  140.0897  155.5265  135.9435 H   0  0  0  0  0  0  0  0  0  0  0  0
  141.6683  155.9962  135.3296 H   0  0  0  0  0  0  0  0  0  0  0  0
  140.5385  157.3145  137.4690 H   0  0  0  0  0  0  0  0  0  0  0  0
  141.8465  159.2969  136.9280 H   0  0  0  0  0  0  0  0  0  0  0  0
  142.7572  157.8185  136.4312 H   0  0  0  0  0  0  0  0  0  0  0  0
  139.4750  159.3450  136.2890 H   0  0  0  0  0  0  0  0  0  0  0  0
  144.1320  157.3906  134.3859 H   0  0  0  0  0  0  0  0  0  0  0  0
  1  2  1  0
  2  3  1  0
  2  4  1  0
  4  5  2  0
  4  6  1  0
  6  7  1  0
  7  8  2  0
  7  9  1  0
  9 10  1  0
 10 11  1  0
 11 12  1  0
 11 13  2  0
 10 14  2  0
 14 15  1  0
 15 16  2  0
 16 17  1  0
 17 18  2  0
 18 19  1  0
 19 20  1  0
 20 21  1  0
 21 22  1  0
 22 23  1  0
 23 24  1  0
 24 25  1  0
 24 26  1  0
 18 27  1  0
 27 28  2  0
 28  9  1  0
 28 15  1  0
 25 19  1  0
 26 21  1  0
  1 29  1  0
  1 30  1  0
  1 31  1  0
  3 32  1  0
  3 33  1  0
  3 34  1  0
 12 35  1  0
 14 36  1  0
 16 37  1  0
 17 38  1  0
 20 39  1  0
 20 40  1  0
 21 41  1  6
 22 42  1  0
 22 43  1  0
 23 44  1  0
 23 45  1  0
 24 46  1  1
 25 47  1  0
 25 48  1  0
 26 49  1  0
 27 50  1  0
M  CHG  1  12  -1
M  END
>  <UniqueID>  (62) 
62

>  <SMILES>  (62) 
CN(C)C(=O)OC(=O)n1c(C([NH-])=O)cc2ccc(N3C[C@H]4CC[C@@H](C3)N4)cc21

>  <Energy>  (62) 
99.23951512324906

>  <Genealogy>  (62) 
CN(C)C(=O)OC(=O)n1c(C([NH-])=O)cc2ccc(N3CC4CCC(C3)N4)cc21 (protonated)
CN(C)C(=O)OC(=O)n1c(C([NH-])=O)cc2ccc(N3C[C@H]4CC[C@@H](C3)N4)cc21 (chirality)
CN(C)C(=O)OC(=O)n1c(C([NH-])=O)cc2ccc(N3C[C@H]4CC[C@@H](C3)N4)cc21 (3D coordinates assigned)
CN(C)C(=O)OC(=O)n1c(C([NH-])=O)cc2ccc(N3C[C@H]4CC[C@@H](C3)N4)cc21 (nonaromatic ring conformer: 99.23951512324906 kcal/mol)

>  <smiles>  (62) 
CN(C)C(=O)OC(=O)n1c(C(N)=O)cc2ccc(N3CC4CCC(C3)N4)cc21

>  <score_type>  (62) 
oracle

>  <origin>  (62) 
adg

>  <m_score__min__energy>  (62) 
-8.0600000000000005

>  <m_primary>  (62) 
energy

$$$$
62:0
     RDKit          3D

 50 52  0  0  0  0  0  0  0  0999 V2000
  138.4930  158.1360  133.3610 C   0  0  0  0  0  0  0  0  0  0  0  0
  139.7930  157.6930  133.9010 N   0  0  1  0  0  0  0  0  0  0  0  0
  139.7600  157.4760  135.3660 C   0  0  0  0  0  0  0  0  0  0  0  0
  140.3610  158.6080  136.1580 C   0  0  0  0  0  0  0  0  0  0  0  0
  140.6090  159.7070  135.5980 O   0  0  0  0  0  0  0  0  0  0  0  0
  140.5970  158.4640  137.5190 O   0  0  0  0  0  0  0  0  0  0  0  0
  140.2970  156.5210  133.2160 C   0  0  0  0  0  0  0  0  0  0  0  0
  139.5060  155.7270  132.6330 O   0  0  0  0  0  0  0  0  0  0  0  0
  141.6880  156.1730  133.3160 N   0  0  0  0  0  0  0  0  0  0  0  0
  142.7320  156.9830  133.6460 C   0  0  0  0  0  0  0  0  0  0  0  0
  142.6800  158.4520  133.7590 C   0  0  0  0  0  0  0  0  0  0  0  0
  141.7360  159.2040  133.0040 N   0  0  0  0  0  0  0  0  0  0  0  0
  143.5100  159.0550  134.4900 O   0  0  0  0  0  0  0  0  0  0  0  0
  143.9020  156.2390  133.7930 C   0  0  0  0  0  0  0  0  0  0  0  0
  143.5380  154.9360  133.5350 C   0  0  0  0  0  0  0  0  0  0  0  0
  144.3000  153.7710  133.5540 C   0  0  0  0  0  0  0  0  0  0  0  0
  143.6500  152.5550  133.2780 C   0  0  0  0  0  0  0  0  0  0  0  0
  142.2660  152.5320  132.9920 C   0  0  0  0  0  0  0  0  0  0  0  0
  141.6130  151.2780  132.7310 C   0  0  0  0  0  0  0  0  0  0  0  0
  141.0730  150.2220  132.5170 C   0  0  0  0  0  0  0  0  0  0  0  0
  140.4330  148.9280  132.2500 C   0  0  0  0  0  0  0  0  0  0  0  0
  140.6320  148.5390  130.8350 N   0  0  0  0  0  0  0  0  0  0  0  0
  140.1020  149.5520  129.8920 C   0  0  0  0  0  0  0  0  0  0  0  0
  138.6440  149.2750  129.4730 C   0  0  0  0  0  0  0  0  0  0  0  0
  137.9830  148.4960  130.4460 O   0  0  0  0  0  0  0  0  0  0  0  0
  138.5400  147.1940  130.4820 C   0  0  0  0  0  0  0  0  0  0  0  0
  140.0860  147.1990  130.5320 C   0  0  0  0  0  0  0  0  0  0  0  0
  141.5240  153.7290  132.9750 C   0  0  0  0  0  0  0  0  0  0  0  0
  142.1980  154.9240  133.2470 C   0  0  0  0  0  0  0  0  0  0  0  0
  137.8108  158.3685  134.1920 H   0  0  0  0  0  0  0  0  0  0  0  0
  138.6393  159.0350  132.7442 H   0  0  0  0  0  0  0  0  0  0  0  0
  138.0599  157.3347  132.7442 H   0  0  0  0  0  0  0  0  0  0  0  0
  140.4680  158.4750  133.7290 H   0  0  0  0  0  0  0  0  0  0  0  0
  138.7116  157.3533  135.6757 H   0  0  0  0  0  0  0  0  0  0  0  0
  140.3653  156.5811  135.5729 H   0  0  0  0  0  0  0  0  0  0  0  0
  140.9310  159.6800  133.4700 H   0  0  0  0  0  0  0  0  0  0  0  0
  144.9019  156.6128  134.0583 H   0  0  0  0  0  0  0  0  0  0  0  0
  145.3766  153.8008  133.7779 H   0  0  0  0  0  0  0  0  0  0  0  0
  144.2223  151.6156  133.2847 H   0  0  0  0  0  0  0  0  0  0  0  0
  140.8768  148.1620  132.9029 H   0  0  0  0  0  0  0  0  0  0  0  0
  139.3546  149.0140  132.4494 H   0  0  0  0  0  0  0  0  0  0  0  0
  140.1471  150.5392  130.3751 H   0  0  0  0  0  0  0  0  0  0  0  0
  140.7204  149.5132  128.9831 H   0  0  0  0  0  0  0  0  0  0  0  0
  138.1142  150.2319  129.3562 H   0  0  0  0  0  0  0  0  0  0  0  0
  138.6492  148.7219  128.5222 H   0  0  0  0  0  0  0  0  0  0  0  0
  138.1621  146.6757  131.3756 H   0  0  0  0  0  0  0  0  0  0  0  0
  138.2425  146.6832  129.5543 H   0  0  0  0  0  0  0  0  0  0  0  0
  140.4172  146.4972  131.3116 H   0  0  0  0  0  0  0  0  0  0  0  0
  140.4563  146.9006  129.5401 H   0  0  0  0  0  0  0  0  0  0  0  0
  140.4464  153.7242  132.7544 H   0  0  0  0  0  0  0  0  0  0  0  0
  1  2  1  0
  2  3  1  0
  3  4  1  0
  4  5  2  0
  4  6  1  0
  2  7  1  0
  7  8  2  0
  7  9  1  0
  9 10  1  0
 10 11  1  0
 11 12  1  0
 11 13  2  0
 10 14  2  0
 14 15  1  0
 15 16  2  0
 16 17  1  0
 17 18  2  0
 18 19  1  0
 19 20  3  0
 20 21  1  0
 21 22  1  0
 22 23  1  0
 23 24  1  0
 24 25  1  0
 25 26  1  0
 26 27  1  0
 18 28  1  0
 28 29  2  0
 29  9  1  0
 29 15  1  0
 27 22  1  0
  1 30  1  0
  1 31  1  0
  1 32  1  0
  2 33  1  1
  3 34  1  0
  3 35  1  0
 12 36  1  0
 14 37  1  0
 16 38  1  0
 17 39  1  0
 21 40  1  0
 21 41  1  0
 23 42  1  0
 23 43  1  0
 24 44  1  0
 24 45  1  0
 26 46  1  0
 26 47  1  0
 27 48  1  0
 27 49  1  0
 28 50  1  0
M  CHG  3   2   1   6  -1  12  -1
M  END
>  <UniqueID>  (63) 
63

>  <SMILES>  (63) 
C[N@@H+](CC(=O)[O-])C(=O)n1c(C([NH-])=O)cc2ccc(C#CCN3CCOCC3)cc21

>  <Energy>  (63) 
103.64273494782516

>  <Genealogy>  (63) 
C[NH+](CC(=O)[O-])C(=O)n1c(C([NH-])=O)cc2ccc(C#CCN3CCOCC3)cc21 (protonated)
C[N@@H+](CC(=O)[O-])C(=O)n1c(C([NH-])=O)cc2ccc(C#CCN3CCOCC3)cc21 (chirality)
C[N@@H+](CC(=O)[O-])C(=O)n1c(C([NH-])=O)cc2ccc(C#CCN3CCOCC3)cc21 (3D coordinates assigned)
C[N@@H+](CC(=O)[O-])C(=O)n1c(C([NH-])=O)cc2ccc(C#CCN3CCOCC3)cc21 (nonaromatic ring conformer: 103.64273494782516 kcal/mol)

>  <smiles>  (63) 
CN(CC(=O)O)C(=O)n1c(C(N)=O)cc2ccc(C#CCN3CCOCC3)cc21

>  <score_type>  (63) 
oracle

>  <origin>  (63) 
adg

>  <m_score__min__energy>  (63) 
-7.3700000000000001

>  <m_primary>  (63) 
energy

$$$$
63:0
     RDKit          3D

 43 45  0  0  0  0  0  0  0  0999 V2000
  144.5760  155.3050  135.0370 C   0  0  0  0  0  0  0  0  0  0  0  0
  145.9060  155.6950  134.5610 N   0  0  0  0  0  0  0  0  0  0  0  0
  147.0670  155.5310  135.4440 C   0  0  0  0  0  0  0  0  0  0  0  0
  147.4080  154.0830  135.5740 C   0  0  0  0  0  0  0  0  0  0  0  0
  148.1180  153.5170  134.7000 O   0  0  0  0  0  0  0  0  0  0  0  0
  146.9790  153.3640  136.6830 O   0  0  0  0  0  0  0  0  0  0  0  0
  146.0210  156.4110  133.3150 C   0  0  0  0  0  0  0  0  0  0  0  0
  146.2120  155.7780  132.2420 O   0  0  0  0  0  0  0  0  0  0  0  0
  145.9230  157.8430  133.2720 N   0  0  0  0  0  0  0  0  0  0  0  0
  146.9150  158.7440  133.0320 C   0  0  0  0  0  0  0  0  0  0  0  0
  148.3130  158.4170  132.6800 C   0  0  0  0  0  0  0  0  0  0  0  0
  148.6330  157.2940  131.8580 N   0  0  0  0  0  0  0  0  0  0  0  0
  149.2420  159.1640  133.0880 O   0  0  0  0  0  0  0  0  0  0  0  0
  146.4380  160.0440  133.1780 C   0  0  0  0  0  0  0  0  0  0  0  0
  145.1060  159.9090  133.4990 C   0  0  0  0  0  0  0  0  0  0  0  0
  144.1460  160.8780  133.7710 C   0  0  0  0  0  0  0  0  0  0  0  0
  142.8530  160.4470  134.1090 C   0  0  0  0  0  0  0  0  0  0  0  0
  142.5420  159.0610  134.1800 C   0  0  0  0  0  0  0  0  0  0  0  0
  141.1480  158.5900  134.5550 C   0  0  2  0  0  0  0  0  0  0  0  0
  140.6440  159.2380  135.8280 C   0  0  0  0  0  0  0  0  0  0  0  0
  140.6180  158.1040  136.8430 C   0  0  0  0  0  0  0  0  0  0  0  0
  141.1910  156.9490  136.2750 O   0  0  0  0  0  0  0  0  0  0  0  0
  141.1100  157.1020  134.8800 C   0  0  0  0  0  0  0  0  0  0  0  0
  143.5480  158.1100  133.8950 C   0  0  0  0  0  0  0  0  0  0  0  0
  144.8210  158.5710  133.5480 C   0  0  0  0  0  0  0  0  0  0  0  0
  144.5665  155.3022  136.1370 H   0  0  0  0  0  0  0  0  0  0  0  0
  143.8289  156.0219  134.6657 H   0  0  0  0  0  0  0  0  0  0  0  0
  144.3343  154.2982  134.6657 H   0  0  0  0  0  0  0  0  0  0  0  0
  147.9264  156.0712  135.0202 H   0  0  0  0  0  0  0  0  0  0  0  0
  146.8255  155.9362  136.4377 H   0  0  0  0  0  0  0  0  0  0  0  0
  147.8930  156.7770  131.3350 H   0  0  0  0  0  0  0  0  0  0  0  0
  149.6310  157.0350  131.6920 H   0  0  0  0  0  0  0  0  0  0  0  0
  147.0047  160.9796  133.0616 H   0  0  0  0  0  0  0  0  0  0  0  0
  144.3921  161.9490  133.7228 H   0  0  0  0  0  0  0  0  0  0  0  0
  142.0708  161.1907  134.3215 H   0  0  0  0  0  0  0  0  0  0  0  0
  140.5382  158.8497  133.6771 H   0  0  0  0  0  0  0  0  0  0  0  0
  141.3254  160.0375  136.1544 H   0  0  0  0  0  0  0  0  0  0  0  0
  139.6581  159.7083  135.6982 H   0  0  0  0  0  0  0  0  0  0  0  0
  141.1920  158.3971  137.7344 H   0  0  0  0  0  0  0  0  0  0  0  0
  139.5770  157.8930  137.1288 H   0  0  0  0  0  0  0  0  0  0  0  0
  141.9609  156.5955  134.4010 H   0  0  0  0  0  0  0  0  0  0  0  0
  140.1762  156.6576  134.5052 H   0  0  0  0  0  0  0  0  0  0  0  0
  143.3340  157.0322  133.9451 H   0  0  0  0  0  0  0  0  0  0  0  0
  1  2  1  0
  2  3  1  0
  3  4  1  0
  4  5  2  0
  4  6  1  0
  2  7  1  0
  7  8  2  0
  7  9  1  0
  9 10  1  0
 10 11  1  0
 11 12  1  0
 11 13  2  0
 10 14  2  0
 14 15  1  0
 15 16  2  0
 16 17  1  0
 17 18  2  0
 18 19  1  0
 19 20  1  0
 20 21  1  0
 21 22  1  0
 22 23  1  0
 18 24  1  0
 24 25  2  0
 25  9  1  0
 25 15  1  0
 23 19  1  0
  1 26  1  0
  1 27  1  0
  1 28  1  0
  3 29  1  0
  3 30  1  0
 12 31  1  0
 12 32  1  0
 14 33  1  0
 16 34  1  0
 17 35  1  0
 19 36  1  6
 20 37  1  0
 20 38  1  0
 21 39  1  0
 21 40  1  0
 23 41  1  0
 23 42  1  0
 24 43  1  0
M  CHG  1   6  -1
M  END
>  <UniqueID>  (64) 
64

>  <SMILES>  (64) 
CN(CC(=O)[O-])C(=O)n1c(C(N)=O)cc2ccc([C@@H]3CCOC3)cc21

>  <Energy>  (64) 
83.72162457621496

>  <Genealogy>  (64) 
CN(CC(=O)[O-])C(=O)n1c(C(N)=O)cc2ccc([C@@H]3CCOC3)cc21 (protonated)
CN(CC(=O)[O-])C(=O)n1c(C(N)=O)cc2ccc([C@@H]3CCOC3)cc21 (3D coordinates assigned)
CN(CC(=O)[O-])C(=O)n1c(C(N)=O)cc2ccc([C@@H]3CCOC3)cc21 (nonaromatic ring conformer: 83.72162457621496 kcal/mol)

>  <smiles>  (64) 
CN(CC(=O)O)C(=O)n1c(C(N)=O)cc2ccc([C@@H]3CCOC3)cc21

>  <score_type>  (64) 
oracle

>  <origin>  (64) 
adg

>  <m_score__min__energy>  (64) 
-7.5499999999999998

>  <m_primary>  (64) 
energy

$$$$
64:0
     RDKit          3D

 41 43  0  0  0  0  0  0  0  0999 V2000
  139.4530  157.8060  136.6520 N   0  0  0  0  0  0  0  0  0  0  0  0
  139.7490  157.8490  135.2590 C   0  0  0  0  0  0  0  0  0  0  0  0
  138.8620  157.5140  134.4290 O   0  0  0  0  0  0  0  0  0  0  0  0
  141.0560  158.3380  134.7730 C   0  0  0  0  0  0  0  0  0  0  0  0
  141.3790  159.6900  134.6810 C   0  0  0  0  0  0  0  0  0  0  0  0
  142.6990  159.7240  134.2940 C   0  0  0  0  0  0  0  0  0  0  0  0
  143.5300  160.8120  134.0520 C   0  0  0  0  0  0  0  0  0  0  0  0
  144.8500  160.5550  133.6440 C   0  0  0  0  0  0  0  0  0  0  0  0
  145.3140  159.2230  133.4770 C   0  0  0  0  0  0  0  0  0  0  0  0
  146.7090  158.9640  133.0400 C   0  0  0  0  0  0  0  0  0  0  0  0
  147.4960  160.0020  132.5070 C   0  0  0  0  0  0  0  0  0  0  0  0
  148.8110  159.7560  132.0990 C   0  0  0  0  0  0  0  0  0  0  0  0
  149.3540  158.4750  132.2190 C   0  0  0  0  0  0  0  0  0  0  0  0
  150.6290  158.2390  131.8240 F   0  0  0  0  0  0  0  0  0  0  0  0
  148.5830  157.4360  132.7450 C   0  0  0  0  0  0  0  0  0  0  0  0
  147.2670  157.6770  133.1540 C   0  0  0  0  0  0  0  0  0  0  0  0
  144.4340  158.1460  133.7320 C   0  0  0  0  0  0  0  0  0  0  0  0
  143.1300  158.4310  134.1560 C   0  0  0  0  0  0  0  0  0  0  0  0
  142.1300  157.5650  134.4420 N   0  0  0  0  0  0  0  0  0  0  0  0
  142.1890  156.1340  134.3360 C   0  0  0  0  0  0  0  0  0  0  0  0
  141.6270  155.5490  133.3700 O   0  0  0  0  0  0  0  0  0  0  0  0
  142.8960  155.3980  135.2900 O   0  0  0  0  0  0  0  0  0  0  0  0
  144.0690  154.6530  134.9810 C   0  0  0  0  0  0  0  0  0  0  0  0
  145.3100  155.5060  135.2310 C   0  0  0  0  0  0  0  0  0  0  0  0
  146.7940  154.4730  135.4520 P   0  0  0  0  0  0  0  0  0  0  0  0
  147.1230  153.7880  134.1450 O   0  0  0  0  0  0  0  0  0  0  0  0
  146.5060  153.3030  136.6380 O   0  0  0  0  0  0  0  0  0  0  0  0
  148.1030  155.4380  135.9180 O   0  0  0  0  0  0  0  0  0  0  0  0
  139.1060  158.6540  137.1530 H   0  0  0  0  0  0  0  0  0  0  0  0
  140.7190  160.5481  134.8763 H   0  0  0  0  0  0  0  0  0  0  0  0
  143.1655  161.8424  134.1761 H   0  0  0  0  0  0  0  0  0  0  0  0
  145.5325  161.3960  133.4515 H   0  0  0  0  0  0  0  0  0  0  0  0
  147.0741  161.0133  132.4107 H   0  0  0  0  0  0  0  0  0  0  0  0
  149.4186  160.5731  131.6828 H   0  0  0  0  0  0  0  0  0  0  0  0
  149.0110  156.4270  132.8378 H   0  0  0  0  0  0  0  0  0  0  0  0
  146.6643  156.8550  133.5675 H   0  0  0  0  0  0  0  0  0  0  0  0
  144.7667  157.1059  133.6001 H   0  0  0  0  0  0  0  0  0  0  0  0
  144.1091  153.7563  135.6169 H   0  0  0  0  0  0  0  0  0  0  0  0
  144.0409  154.3581  133.9217 H   0  0  0  0  0  0  0  0  0  0  0  0
  145.4641  156.1742  134.3709 H   0  0  0  0  0  0  0  0  0  0  0  0
  145.1515  156.0855  136.1525 H   0  0  0  0  0  0  0  0  0  0  0  0
  1  2  1  0
  2  3  2  0
  2  4  1  0
  4  5  2  0
  5  6  1  0
  6  7  2  0
  7  8  1  0
  8  9  2  0
  9 10  1  0
 10 11  2  0
 11 12  1  0
 12 13  2  0
 13 14  1  0
 13 15  1  0
 15 16  2  0
  9 17  1  0
 17 18  2  0
 18 19  1  0
 19 20  1  0
 20 21  2  0
 20 22  1  0
 22 23  1  0
 23 24  1  0
 24 25  1  0
 25 26  2  0
 25 27  1  0
 25 28  1  0
 19  4  1  0
 18  6  1  0
 16 10  1  0
  1 29  1  0
  5 30  1  0
  7 31  1  0
  8 32  1  0
 11 33  1  0
 12 34  1  0
 15 35  1  0
 16 36  1  0
 17 37  1  0
 23 38  1  0
 23 39  1  0
 24 40  1  0
 24 41  1  0
M  CHG  3   1  -1  27  -1  28  -1
M  END
>  <UniqueID>  (65) 
65

>  <SMILES>  (65) 
[NH-]C(=O)c1cc2ccc(-c3ccc(F)cc3)cc2n1C(=O)OCCP(=O)([O-])[O-]

>  <Energy>  (65) 
79.49230235757722

>  <Genealogy>  (65) 
[NH-]C(=O)c1cc2ccc(-c3ccc(F)cc3)cc2n1C(=O)OCCP(=O)([O-])[O-] (protonated)
[NH-]C(=O)c1cc2ccc(-c3ccc(F)cc3)cc2n1C(=O)OCCP(=O)([O-])[O-] (3D coordinates assigned)
[NH-]C(=O)c1cc2ccc(-c3ccc(F)cc3)cc2n1C(=O)OCCP(=O)([O-])[O-] (optimized conformer: 79.49230235757722 kcal/mol)

>  <smiles>  (65) 
NC(=O)c1cc2ccc(-c3ccc(F)cc3)cc2n1C(=O)OCCP(=O)(O)O

>  <score_type>  (65) 
oracle

>  <origin>  (65) 
adg

>  <m_score__min__energy>  (65) 
-8.0600000000000005

>  <m_primary>  (65) 
energy

$$$$
65:0
     RDKit          3D

 34 36  0  0  0  0  0  0  0  0999 V2000
  139.3800  155.8400  133.0250 N   0  0  0  0  0  0  0  0  0  0  0  0
  139.8590  156.9980  133.7060 C   0  0  0  0  0  0  0  0  0  0  0  0
  139.0510  157.7050  134.3650 O   0  0  0  0  0  0  0  0  0  0  0  0
  141.2950  157.3450  133.6490 C   0  0  0  0  0  0  0  0  0  0  0  0
  142.3250  156.4230  133.8250 C   0  0  0  0  0  0  0  0  0  0  0  0
  143.4890  157.1560  133.7460 C   0  0  0  0  0  0  0  0  0  0  0  0
  144.8160  156.7460  133.8330 C   0  0  0  0  0  0  0  0  0  0  0  0
  145.8160  157.7210  133.6830 C   0  0  0  0  0  0  0  0  0  0  0  0
  145.4760  159.0750  133.4410 C   0  0  0  0  0  0  0  0  0  0  0  0
  146.5620  160.1000  133.2680 C   0  0  0  0  0  0  0  0  0  0  0  0
  146.2290  161.2520  133.9530 F   0  0  0  0  0  0  0  0  0  0  0  0
  147.7530  159.6010  133.7620 F   0  0  0  0  0  0  0  0  0  0  0  0
  144.1170  159.4520  133.3530 C   0  0  0  0  0  0  0  0  0  0  0  0
  143.1440  158.4640  133.5280 C   0  0  0  0  0  0  0  0  0  0  0  0
  141.8030  158.5960  133.4710 N   0  0  0  0  0  0  0  0  0  0  0  0
  141.0820  159.8110  133.2360 C   0  0  0  0  0  0  0  0  0  0  0  0
  141.3540  160.8440  133.9040 O   0  0  0  0  0  0  0  0  0  0  0  0
  140.0580  159.8590  132.2450 N   0  0  0  0  0  0  0  0  0  0  0  0
  139.0860  160.8450  131.7380 C   0  0  0  0  0  0  0  0  0  0  0  0
  138.5400  159.9790  130.6470 C   0  0  0  0  0  0  0  0  0  0  0  0
  137.2220  159.5760  130.8910 O   0  0  0  0  0  0  0  0  0  0  0  0
  139.5340  158.9940  131.1720 C   0  0  0  0  0  0  0  0  0  0  0  0
  138.3570  155.6460  132.9530 H   0  0  0  0  0  0  0  0  0  0  0  0
  142.2291  155.3399  133.9916 H   0  0  0  0  0  0  0  0  0  0  0  0
  145.0736  155.6919  134.0135 H   0  0  0  0  0  0  0  0  0  0  0  0
  146.8745  157.4302  133.7542 H   0  0  0  0  0  0  0  0  0  0  0  0
  146.6748  160.3304  132.1983 H   0  0  0  0  0  0  0  0  0  0  0  0
  143.8324  160.4954  133.1521 H   0  0  0  0  0  0  0  0  0  0  0  0
  138.3263  161.1161  132.4858 H   0  0  0  0  0  0  0  0  0  0  0  0
  139.4766  161.8315  131.4478 H   0  0  0  0  0  0  0  0  0  0  0  0
  138.4658  160.2880  129.5939 H   0  0  0  0  0  0  0  0  0  0  0  0
  137.0760  158.7760  130.3230 H   0  0  0  0  0  0  0  0  0  0  0  0
  139.0618  158.0782  131.5572 H   0  0  0  0  0  0  0  0  0  0  0  0
  140.2626  158.5867  130.4556 H   0  0  0  0  0  0  0  0  0  0  0  0
  1  2  1  0
  2  3  2  0
  2  4  1  0
  4  5  2  0
  5  6  1  0
  6  7  2  0
  7  8  1  0
  8  9  2  0
  9 10  1  0
 10 11  1  0
 10 12  1  0
  9 13  1  0
 13 14  2  0
 14 15  1  0
 15 16  1  0
 16 17  2  0
 16 18  1  0
 18 19  1  0
 19 20  1  0
 20 21  1  0
 20 22  1  0
 15  4  1  0
 22 18  1  0
 14  6  1  0
  1 23  1  0
  5 24  1  0
  7 25  1  0
  8 26  1  0
 10 27  1  0
 13 28  1  0
 19 29  1  0
 19 30  1  0
 20 31  1  0
 21 32  1  0
 22 33  1  0
 22 34  1  0
M  CHG  1   1  -1
M  END
>  <UniqueID>  (66) 
66

>  <SMILES>  (66) 
[NH-]C(=O)c1cc2ccc(C(F)F)cc2n1C(=O)N1CC(O)C1

>  <Energy>  (66) 
117.7142588048308

>  <Genealogy>  (66) 
[NH-]C(=O)c1cc2ccc(C(F)F)cc2n1C(=O)N1CC(O)C1 (protonated)
[NH-]C(=O)c1cc2ccc(C(F)F)cc2n1C(=O)N1CC(O)C1 (3D coordinates assigned)
[NH-]C(=O)c1cc2ccc(C(F)F)cc2n1C(=O)N1CC(O)C1 (nonaromatic ring conformer: 117.7142588048308 kcal/mol)

>  <smiles>  (66) 
NC(=O)c1cc2ccc(C(F)F)cc2n1C(=O)N1CC(O)C1

>  <score_type>  (66) 
oracle

>  <origin>  (66) 
adg

>  <m_score__min__energy>  (66) 
-6.7599999999999998

>  <m_primary>  (66) 
energy

$$$$
66:0
     RDKit          3D

 44 46  0  0  0  0  0  0  0  0999 V2000
  138.7390  160.5290  131.7950 C   0  0  0  0  0  0  0  0  0  0  0  0
  138.1070  158.8960  131.4700 S   0  0  0  0  0  0  0  0  0  0  0  0
  136.6260  158.9820  131.2290 O   0  0  0  0  0  0  0  0  0  0  0  0
  138.7610  158.3280  130.2420 O   0  0  0  0  0  0  0  0  0  0  0  0
  138.3950  157.8660  132.8370 N   0  0  0  0  0  0  0  0  0  0  0  0
  139.4020  158.1290  133.8250 C   0  0  0  0  0  0  0  0  0  0  0  0
  139.0790  157.9910  135.1390 N   0  0  0  0  0  0  0  0  0  0  0  0
  139.9710  158.2360  136.1320 C   0  0  0  0  0  0  0  0  0  0  0  0
  141.2670  158.6470  135.8250 C   0  0  0  0  0  0  0  0  0  0  0  0
  141.6410  158.8180  134.4830 C   0  0  0  0  0  0  0  0  0  0  0  0
  143.0140  159.2680  134.1490 C   0  0  0  0  0  0  0  0  0  0  0  0
  143.3200  160.6520  134.0820 C   0  0  0  0  0  0  0  0  0  0  0  0
  144.6190  161.0870  133.7710 C   0  0  0  0  0  0  0  0  0  0  0  0
  145.5870  160.1200  133.5220 C   0  0  0  0  0  0  0  0  0  0  0  0
  146.9230  160.2630  133.2220 C   0  0  0  0  0  0  0  0  0  0  0  0
  147.4100  158.9660  133.0800 C   0  0  0  0  0  0  0  0  0  0  0  0
  148.7950  158.6590  132.6660 C   0  0  0  0  0  0  0  0  0  0  0  0
  149.2150  157.3150  132.4440 N   0  0  0  0  0  0  0  0  0  0  0  0
  149.6080  159.6000  132.4580 O   0  0  0  0  0  0  0  0  0  0  0  0
  146.4170  158.0560  133.2940 N   0  0  0  0  0  0  0  0  0  0  0  0
  146.5210  156.6240  133.3170 C   0  0  0  0  0  0  0  0  0  0  0  0
  146.7560  155.9940  132.2500 O   0  0  0  0  0  0  0  0  0  0  0  0
  146.3850  155.9380  134.5290 O   0  0  0  0  0  0  0  0  0  0  0  0
  147.0310  154.6980  134.8050 C   0  0  0  0  0  0  0  0  0  0  0  0
  146.2910  153.9500  135.8670 C   0  0  0  0  0  0  0  0  0  0  0  0
  145.0400  154.0570  135.9600 O   0  0  0  0  0  0  0  0  0  0  0  0
  146.9760  153.1100  136.7350 O   0  0  0  0  0  0  0  0  0  0  0  0
  145.3070  158.7800  133.5580 C   0  0  0  0  0  0  0  0  0  0  0  0
  144.0270  158.3170  133.8840 C   0  0  0  0  0  0  0  0  0  0  0  0
  140.6920  158.5700  133.4730 C   0  0  0  0  0  0  0  0  0  0  0  0
  140.9970  158.8370  132.1790 F   0  0  0  0  0  0  0  0  0  0  0  0
  138.8008  160.6887  132.8816 H   0  0  0  0  0  0  0  0  0  0  0  0
  139.7409  160.6293  131.3521 H   0  0  0  0  0  0  0  0  0  0  0  0
  138.0657  161.2776  131.3521 H   0  0  0  0  0  0  0  0  0  0  0  0
  138.0120  156.8970  132.7780 H   0  0  0  0  0  0  0  0  0  0  0  0
  139.6703  158.1098  137.1825 H   0  0  0  0  0  0  0  0  0  0  0  0
  141.9925  158.8363  136.6298 H   0  0  0  0  0  0  0  0  0  0  0  0
  142.5306  161.3931  134.2759 H   0  0  0  0  0  0  0  0  0  0  0  0
  144.8628  162.1587  133.7258 H   0  0  0  0  0  0  0  0  0  0  0  0
  147.4861  161.2021  133.1168 H   0  0  0  0  0  0  0  0  0  0  0  0
  148.7270  156.7060  131.7500 H   0  0  0  0  0  0  0  0  0  0  0  0
  147.0592  154.0919  133.8875 H   0  0  0  0  0  0  0  0  0  0  0  0
  148.0537  154.8989  135.1568 H   0  0  0  0  0  0  0  0  0  0  0  0
  143.8138  157.2390  133.9330 H   0  0  0  0  0  0  0  0  0  0  0  0
  1  2  1  0
  2  3  2  0
  2  4  2  0
  2  5  1  0
  5  6  1  0
  6  7  2  0
  7  8  1  0
  8  9  2  0
  9 10  1  0
 10 11  1  0
 11 12  2  0
 12 13  1  0
 13 14  2  0
 14 15  1  0
 15 16  2  0
 16 17  1  0
 17 18  1  0
 17 19  2  0
 16 20  1  0
 20 21  1  0
 21 22  2  0
 21 23  1  0
 23 24  1  0
 24 25  1  0
 25 26  2  0
 25 27  1  0
 20 28  1  0
 28 29  2  0
 10 30  2  0
 30 31  1  0
 30  6  1  0
 29 11  1  0
 28 14  1  0
  1 32  1  0
  1 33  1  0
  1 34  1  0
  5 35  1  0
  8 36  1  0
  9 37  1  0
 12 38  1  0
 13 39  1  0
 15 40  1  0
 18 41  1  0
 24 42  1  0
 24 43  1  0
 29 44  1  0
M  CHG  2  18  -1  27  -1
M  END
>  <UniqueID>  (67) 
67

>  <SMILES>  (67) 
CS(=O)(=O)Nc1nccc(-c2ccc3cc(C([NH-])=O)n(C(=O)OCC(=O)[O-])c3c2)c1F

>  <Energy>  (67) 
91.35410664185173

>  <Genealogy>  (67) 
CS(=O)(=O)Nc1nccc(-c2ccc3cc(C([NH-])=O)n(C(=O)OCC(=O)[O-])c3c2)c1F (protonated)
CS(=O)(=O)Nc1nccc(-c2ccc3cc(C([NH-])=O)n(C(=O)OCC(=O)[O-])c3c2)c1F (3D coordinates assigned)
CS(=O)(=O)Nc1nccc(-c2ccc3cc(C([NH-])=O)n(C(=O)OCC(=O)[O-])c3c2)c1F (optimized conformer: 91.35410664185173 kcal/mol)

>  <smiles>  (67) 
CS(=O)(=O)Nc1nccc(-c2ccc3cc(C(N)=O)n(C(=O)OCC(=O)O)c3c2)c1F

>  <score_type>  (67) 
oracle

>  <origin>  (67) 
adg

>  <m_score__min__energy>  (67) 
-9.6999999999999993

>  <m_primary>  (67) 
energy

$$$$
67:0
     RDKit          3D

 48 51  0  0  0  0  0  0  0  0999 V2000
  139.8620  159.8830  132.0450 C   0  0  0  0  0  0  0  0  0  0  0  0
  140.3350  158.6770  132.7450 N   0  0  0  0  0  0  0  0  0  0  0  0
  139.2110  157.9950  133.4190 C   0  0  0  0  0  0  0  0  0  0  0  0
  139.7080  157.1230  134.5840 C   0  0  2  0  0  0  0  0  0  0  0  0
  140.3250  157.9890  135.6970 C   0  0  0  0  0  0  0  0  0  0  0  0
  141.0320  159.2180  135.1170 C   0  0  0  0  0  0  0  0  0  0  0  0
  141.4700  158.9770  133.6560 C   0  0  1  0  0  0  0  0  0  0  0  0
  142.5230  157.8590  133.5630 C   0  0  0  0  0  0  0  0  0  0  0  0
  142.0530  156.4540  133.7050 N   0  0  0  0  0  0  0  0  0  0  0  0
  143.0280  155.3920  133.4430 C   0  0  0  0  0  0  0  0  0  0  0  0
  142.6140  154.1000  132.9890 C   0  0  0  0  0  0  0  0  0  0  0  0
  143.5430  153.0800  132.7270 C   0  0  0  0  0  0  0  0  0  0  0  0
  144.8890  153.3580  132.9170 C   0  0  0  0  0  0  0  0  0  0  0  0
  145.9980  152.5660  132.7110 C   0  0  0  0  0  0  0  0  0  0  0  0
  147.0910  153.3710  133.0370 C   0  0  0  0  0  0  0  0  0  0  0  0
  148.5110  152.9540  132.9500 C   0  0  0  0  0  0  0  0  0  0  0  0
  149.3790  153.4940  131.9530 N   0  0  0  0  0  0  0  0  0  0  0  0
  148.9710  152.1120  133.7650 O   0  0  0  0  0  0  0  0  0  0  0  0
  146.6630  154.5990  133.4350 N   0  0  0  0  0  0  0  0  0  0  0  0
  147.4680  155.7390  133.7610 C   0  0  0  0  0  0  0  0  0  0  0  0
  147.4820  156.1770  134.9420 O   0  0  0  0  0  0  0  0  0  0  0  0
  148.2760  156.3950  132.7270 C   0  0  0  0  0  0  0  0  0  0  0  0
  149.4560  156.0110  132.5090 O   0  0  0  0  0  0  0  0  0  0  0  0
  147.7450  157.4420  131.9850 O   0  0  0  0  0  0  0  0  0  0  0  0
  145.3180  154.5790  133.3500 C   0  0  0  0  0  0  0  0  0  0  0  0
  144.4240  155.6150  133.6250 C   0  0  0  0  0  0  0  0  0  0  0  0
  140.6780  156.0330  134.0880 C   0  0  0  0  0  0  0  0  0  0  0  0
  139.5642  160.6423  132.7831 H   0  0  0  0  0  0  0  0  0  0  0  0
  140.6704  160.2818  131.4145 H   0  0  0  0  0  0  0  0  0  0  0  0
  138.9981  159.6259  131.4145 H   0  0  0  0  0  0  0  0  0  0  0  0
  138.5141  158.7515  133.8089 H   0  0  0  0  0  0  0  0  0  0  0  0
  138.7085  157.3454  132.6873 H   0  0  0  0  0  0  0  0  0  0  0  0
  138.8413  156.6053  135.0209 H   0  0  0  0  0  0  0  0  0  0  0  0
  139.5265  158.3220  136.3764 H   0  0  0  0  0  0  0  0  0  0  0  0
  141.0675  157.3835  136.2374 H   0  0  0  0  0  0  0  0  0  0  0  0
  140.3432  160.0751  135.1477 H   0  0  0  0  0  0  0  0  0  0  0  0
  141.9301  159.4181  135.7198 H   0  0  0  0  0  0  0  0  0  0  0  0
  141.9157  159.9253  133.3213 H   0  0  0  0  0  0  0  0  0  0  0  0
  143.0084  157.9455  132.5797 H   0  0  0  0  0  0  0  0  0  0  0  0
  143.1797  158.0220  134.4303 H   0  0  0  0  0  0  0  0  0  0  0  0
  141.5423  153.9008  132.8416 H   0  0  0  0  0  0  0  0  0  0  0  0
  143.2131  152.0893  132.3811 H   0  0  0  0  0  0  0  0  0  0  0  0
  146.0177  151.5224  132.3638 H   0  0  0  0  0  0  0  0  0  0  0  0
  149.0630  154.2370  131.2930 H   0  0  0  0  0  0  0  0  0  0  0  0
  150.3720  153.1750  131.8970 H   0  0  0  0  0  0  0  0  0  0  0  0
  144.7917  156.5900  133.9773 H   0  0  0  0  0  0  0  0  0  0  0  0
  140.2203  155.5628  133.2052 H   0  0  0  0  0  0  0  0  0  0  0  0
  140.8208  155.3718  134.9554 H   0  0  0  0  0  0  0  0  0  0  0  0
  1  2  1  0
  2  3  1  0
  3  4  1  0
  4  5  1  0
  5  6  1  0
  6  7  1  0
  7  8  1  0
  8  9  1  0
  9 10  1  0
 10 11  2  0
 11 12  1  0
 12 13  2  0
 13 14  1  0
 14 15  2  0
 15 16  1  0
 16 17  1  0
 16 18  2  0
 15 19  1  0
 19 20  1  0
 20 21  2  0
 20 22  1  0
 22 23  2  0
 22 24  1  0
 19 25  1  0
 25 26  2  0
  9 27  1  0
  7  2  1  0
 26 10  1  0
 27  4  1  0
 25 13  1  0
  1 28  1  0
  1 29  1  0
  1 30  1  0
  3 31  1  0
  3 32  1  0
  4 33  1  1
  5 34  1  0
  5 35  1  0
  6 36  1  0
  6 37  1  0
  7 38  1  6
  8 39  1  0
  8 40  1  0
 11 41  1  0
 12 42  1  0
 14 43  1  0
 17 44  1  0
 17 45  1  0
 26 46  1  0
 27 47  1  0
 27 48  1  0
M  CHG  1  24  -1
M  END
>  <UniqueID>  (68) 
68

>  <SMILES>  (68) 
CN1C[C@@H]2CC[C@H]1CN(c1ccc3cc(C(N)=O)n(C(=O)C(=O)[O-])c3c1)C2

>  <Energy>  (68) 
113.48547383887608

>  <Genealogy>  (68) 
CN1CC2CCC1CN(c1ccc3cc(C(N)=O)n(C(=O)C(=O)[O-])c3c1)C2 (protonated)
CN1C[C@@H]2CC[C@H]1CN(c1ccc3cc(C(N)=O)n(C(=O)C(=O)[O-])c3c1)C2 (chirality)
CN1C[C@@H]2CC[C@H]1CN(c1ccc3cc(C(N)=O)n(C(=O)C(=O)[O-])c3c1)C2 (3D coordinates assigned)
CN1C[C@@H]2CC[C@H]1CN(c1ccc3cc(C(N)=O)n(C(=O)C(=O)[O-])c3c1)C2 (nonaromatic ring conformer: 113.48547383887608 kcal/mol)

>  <smiles>  (68) 
CN1CC2CCC1CN(c1ccc3cc(C(N)=O)n(C(=O)C(=O)O)c3c1)C2

>  <score_type>  (68) 
oracle

>  <origin>  (68) 
adg

>  <m_score__min__energy>  (68) 
-6.9800000000000004

>  <m_primary>  (68) 
energy

$$$$
68:0
     RDKit          3D

 40 41  0  0  0  0  0  0  0  0999 V2000
  140.5890  159.6210  134.2750 N   0  0  0  0  0  0  0  0  0  0  0  0
  139.5600  158.9950  133.5130 C   0  0  0  0  0  0  0  0  0  0  0  0
  139.0710  159.5880  132.5150 O   0  0  0  0  0  0  0  0  0  0  0  0
  139.1080  157.7280  133.8860 O   0  0  0  0  0  0  0  0  0  0  0  0
  139.2400  156.5860  133.0440 C   0  0  0  0  0  0  0  0  0  0  0  0
  140.7080  156.1570  132.9800 C   0  0  1  0  0  0  0  0  0  0  0  0
  141.5280  157.0530  133.8020 N   0  0  0  0  0  0  0  0  0  0  0  0
  142.8150  157.5310  133.3760 C   0  0  0  0  0  0  0  0  0  0  0  0
  143.3250  157.1080  132.3050 O   0  0  0  0  0  0  0  0  0  0  0  0
  143.5450  158.5320  134.1760 C   0  0  0  0  0  0  0  0  0  0  0  0
  143.0390  158.9780  135.2420 O   0  0  0  0  0  0  0  0  0  0  0  0
  144.8270  159.0160  133.7480 N   0  0  0  0  0  0  0  0  0  0  0  0
  145.2300  160.3120  133.6310 C   0  0  0  0  0  0  0  0  0  0  0  0
  144.3750  161.5010  133.8310 C   0  0  0  0  0  0  0  0  0  0  0  0
  142.9630  161.3980  133.6720 N   0  0  0  0  0  0  0  0  0  0  0  0
  144.8790  162.6080  134.1610 O   0  0  0  0  0  0  0  0  0  0  0  0
  146.5670  160.3740  133.2400 C   0  0  0  0  0  0  0  0  0  0  0  0
  146.9740  159.0630  133.1260 C   0  0  0  0  0  0  0  0  0  0  0  0
  148.2180  158.5360  132.7910 C   0  0  0  0  0  0  0  0  0  0  0  0
  148.3600  157.1370  132.7850 C   0  0  0  0  0  0  0  0  0  0  0  0
  147.2640  156.2990  133.1080 C   0  0  0  0  0  0  0  0  0  0  0  0
  147.4420  154.8100  133.1450 C   0  0  0  0  0  0  0  0  0  0  0  0
  148.7710  154.4990  132.9270 F   0  0  0  0  0  0  0  0  0  0  0  0
  146.0220  156.8700  133.4600 C   0  0  0  0  0  0  0  0  0  0  0  0
  145.9060  158.2640  133.4400 C   0  0  0  0  0  0  0  0  0  0  0  0
  140.8630  154.7430  133.4650 C   0  0  0  0  0  0  0  0  0  0  0  0
  140.5470  153.7800  132.7180 O   0  0  0  0  0  0  0  0  0  0  0  0
  141.3610  154.4880  134.7380 O   0  0  0  0  0  0  0  0  0  0  0  0
  141.5390  159.7730  133.8700 H   0  0  0  0  0  0  0  0  0  0  0  0
  138.6357  155.7612  133.4496 H   0  0  0  0  0  0  0  0  0  0  0  0
  138.8904  156.8381  132.0320 H   0  0  0  0  0  0  0  0  0  0  0  0
  141.0436  156.2132  131.9339 H   0  0  0  0  0  0  0  0  0  0  0  0
  141.0980  157.4680  134.6600 H   0  0  0  0  0  0  0  0  0  0  0  0
  142.3890  160.8230  134.3270 H   0  0  0  0  0  0  0  0  0  0  0  0
  147.1685  161.2773  133.0608 H   0  0  0  0  0  0  0  0  0  0  0  0
  149.0633  159.1932  132.5389 H   0  0  0  0  0  0  0  0  0  0  0  0
  149.3310  156.6890  132.5272 H   0  0  0  0  0  0  0  0  0  0  0  0
  147.1328  154.4282  134.1292 H   0  0  0  0  0  0  0  0  0  0  0  0
  146.8240  154.3474  132.3614 H   0  0  0  0  0  0  0  0  0  0  0  0
  145.1685  156.2361  133.7424 H   0  0  0  0  0  0  0  0  0  0  0  0
  1  2  1  0
  2  3  2  0
  2  4  1  0
  4  5  1  0
  5  6  1  0
  6  7  1  0
  7  8  1  0
  8  9  2  0
  8 10  1  0
 10 11  2  0
 10 12  1  0
 12 13  1  0
 13 14  1  0
 14 15  1  0
 14 16  2  0
 13 17  2  0
 17 18  1  0
 18 19  2  0
 19 20  1  0
 20 21  2  0
 21 22  1  0
 22 23  1  0
 21 24  1  0
 24 25  2  0
  6 26  1  0
 26 27  2  0
 26 28  1  0
 25 12  1  0
 25 18  1  0
  1 29  1  0
  5 30  1  0
  5 31  1  0
  6 32  1  6
  7 33  1  0
 15 34  1  0
 17 35  1  0
 19 36  1  0
 20 37  1  0
 22 38  1  0
 22 39  1  0
 24 40  1  0
M  CHG  3   1  -1  15  -1  28  -1
M  END
>  <UniqueID>  (69) 
69

>  <SMILES>  (69) 
[NH-]C(=O)OC[C@@H](NC(=O)C(=O)n1c(C([NH-])=O)cc2ccc(CF)cc21)C(=O)[O-]

>  <Energy>  (69) 
72.34119627233515

>  <Genealogy>  (69) 
[NH-]C(=O)OCC(NC(=O)C(=O)n1c(C([NH-])=O)cc2ccc(CF)cc21)C(=O)[O-] (protonated)
[NH-]C(=O)OC[C@@H](NC(=O)C(=O)n1c(C([NH-])=O)cc2ccc(CF)cc21)C(=O)[O-] (chirality)
[NH-]C(=O)OC[C@@H](NC(=O)C(=O)n1c(C([NH-])=O)cc2ccc(CF)cc21)C(=O)[O-] (3D coordinates assigned)
[NH-]C(=O)OC[C@@H](NC(=O)C(=O)n1c(C([NH-])=O)cc2ccc(CF)cc21)C(=O)[O-] (optimized conformer: 72.34119627233515 kcal/mol)

>  <smiles>  (69) 
NC(=O)OCC(NC(=O)C(=O)n1c(C(N)=O)cc2ccc(CF)cc21)C(=O)O

>  <score_type>  (69) 
oracle

>  <origin>  (69) 
adg

>  <m_score__min__energy>  (69) 
-6.6100000000000003

>  <m_primary>  (69) 
energy

$$$$
70:0
     RDKit          3D

 38 39  0  0  0  0  0  0  0  0999 V2000
  142.3550  160.3370  133.9580 H   0  0  0  0  0  0  0  0  0  0  0  0
  142.8350  161.2350  133.7300 N   0  0  0  0  0  0  0  0  0  0  0  0
  144.2450  161.3740  133.8850 C   0  0  0  0  0  0  0  0  0  0  0  0
  144.7300  162.5140  134.1150 O   0  0  0  0  0  0  0  0  0  0  0  0
  145.1480  160.2160  133.7190 C   0  0  0  0  0  0  0  0  0  0  0  0
  146.5150  160.3410  133.4840 C   0  0  0  0  0  0  0  0  0  0  0  0
  147.1061  161.2684  133.4614 H   0  0  0  0  0  0  0  0  0  0  0  0
  146.9690  159.0560  133.2860 C   0  0  0  0  0  0  0  0  0  0  0  0
  148.2510  158.5960  133.0140 C   0  0  0  0  0  0  0  0  0  0  0  0
  149.0937  159.2954  132.9106 H   0  0  0  0  0  0  0  0  0  0  0  0
  148.4390  157.2120  132.8750 C   0  0  0  0  0  0  0  0  0  0  0  0
  149.4436  156.8227  132.6532 H   0  0  0  0  0  0  0  0  0  0  0  0
  147.3520  156.3030  133.0160 C   0  0  0  0  0  0  0  0  0  0  0  0
  147.5580  154.8730  132.8780 N   0  0  0  0  0  0  0  0  0  0  0  0
  148.8980  154.3350  132.6100 C   0  0  0  0  0  0  0  0  0  0  0  0
  149.4082  154.1302  133.5628 H   0  0  0  0  0  0  0  0  0  0  0  0
  148.8101  153.4025  132.0332 H   0  0  0  0  0  0  0  0  0  0  0  0
  149.4794  155.0694  132.0332 H   0  0  0  0  0  0  0  0  0  0  0  0
  146.4330  153.9400  133.0100 C   0  0  0  0  0  0  0  0  0  0  0  0
  146.2237  153.7664  134.0759 H   0  0  0  0  0  0  0  0  0  0  0  0
  145.5427  154.3684  132.5265 H   0  0  0  0  0  0  0  0  0  0  0  0
  146.6894  152.9858  132.5265 H   0  0  0  0  0  0  0  0  0  0  0  0
  146.0620  156.8230  133.2980 C   0  0  0  0  0  0  0  0  0  0  0  0
  145.2030  156.1481  133.4272 H   0  0  0  0  0  0  0  0  0  0  0  0
  145.9010  158.2090  133.4090 C   0  0  0  0  0  0  0  0  0  0  0  0
  144.7740  158.9040  133.6820 N   0  0  0  0  0  0  0  0  0  0  0  0
  143.4730  158.3480  133.9390 C   0  0  0  0  0  0  0  0  0  0  0  0
  143.2340  157.7990  135.0480 O   0  0  0  0  0  0  0  0  0  0  0  0
  142.4970  158.3950  132.9350 O   0  0  0  0  0  0  0  0  0  0  0  0
  141.1440  158.6960  133.1320 C   0  0  0  0  0  0  0  0  0  0  0  0
  140.6530  159.7760  132.7030 O   0  0  0  0  0  0  0  0  0  0  0  0
  140.2850  157.7910  133.9170 C   0  0  0  0  0  0  0  0  0  0  0  0
  139.8684  156.9178  133.3937 H   0  0  0  0  0  0  0  0  0  0  0  0
  139.9650  157.9360  135.2130 C   0  0  0  0  0  0  0  0  0  0  0  0
  139.1676  157.2880  135.6057 H   0  0  0  0  0  0  0  0  0  0  0  0
  140.5840  158.8840  136.1590 C   0  0  0  0  0  0  0  0  0  0  0  0
  140.6140  158.6530  137.3950 O   0  0  0  0  0  0  0  0  0  0  0  0
  141.0560  160.1010  135.6850 O   0  0  0  0  0  0  0  0  0  0  0  0
  1  2  1  0
  2  3  1  0
  3  4  2  0
  3  5  1  0
  5  6  2  0
  6  7  1  0
  6  8  1  0
  8  9  2  0
  9 10  1  0
  9 11  1  0
 11 12  1  0
 11 13  2  0
 13 14  1  0
 14 15  1  0
 15 16  1  0
 15 17  1  0
 15 18  1  0
 14 19  1  0
 19 20  1  0
 19 21  1  0
 19 22  1  0
 13 23  1  0
 23 24  1  0
 23 25  2  0
 25 26  1  0
 26 27  1  0
 27 28  2  0
 27 29  1  0
 29 30  1  0
 30 31  2  0
 30 32  1  0
 32 33  1  0
 32 34  2  0
 34 35  1  0
 34 36  1  0
 36 37  2  0
 36 38  1  0
 26  5  1  0
 25  8  1  0
M  CHG  2   2  -1  38  -1
M  END
>  <UniqueID>  (70) 
70

>  <SMILES>  (70) 
CN(C)c1ccc2cc(C([NH-])=O)n(C(=O)OC(=O)/C=C\C(=O)[O-])c2c1

>  <Energy>  (70) 
83.66368611067713

>  <Genealogy>  (70) 
CN(C)c1ccc2cc(C([NH-])=O)n(C(=O)OC(=O)/C=C\C(=O)[O-])c2c1 (protonated)
CN(C)c1ccc2cc(C([NH-])=O)n(C(=O)OC(=O)/C=C\C(=O)[O-])c2c1 (cis-trans isomerization)
CN(C)c1ccc2cc(C([NH-])=O)n(C(=O)OC(=O)/C=C\C(=O)[O-])c2c1 (3D coordinates assigned)
CN(C)c1ccc2cc(C([NH-])=O)n(C(=O)OC(=O)/C=C\C(=O)[O-])c2c1 (optimized conformer: 83.66368611067713 kcal/mol)

>  <smiles>  (70) 
CN(C)c1ccc2cc(C(N)=O)n(C(=O)OC(=O)/C=C\C(=O)O)c2c1

>  <score_type>  (70) 
oracle

>  <origin>  (70) 
adg

>  <m_score__min__energy>  (70) 
-6.6900000000000004

>  <m_primary>  (70) 
energy

$$$$
71:0
     RDKit          3D

 36 37  0  0  0  0  0  0  0  0999 V2000
  147.7540  161.8500  131.8690 H   0  0  0  0  0  0  0  0  0  0  0  0
  148.2440  161.2410  131.1760 N   0  0  0  0  0  0  0  0  0  0  0  0
  149.1060  160.1890  131.6060 C   0  0  0  0  0  0  0  0  0  0  0  0
  150.3520  160.3180  131.4720 O   0  0  0  0  0  0  0  0  0  0  0  0
  148.5310  158.9490  132.1660 C   0  0  0  0  0  0  0  0  0  0  0  0
  149.1190  157.6940  132.0240 C   0  0  0  0  0  0  0  0  0  0  0  0
  150.0180  157.4405  131.4430 H   0  0  0  0  0  0  0  0  0  0  0  0
  148.3350  156.8380  132.7660 C   0  0  0  0  0  0  0  0  0  0  0  0
  148.4630  155.4710  132.9870 C   0  0  0  0  0  0  0  0  0  0  0  0
  149.2926  154.9002  132.5443 H   0  0  0  0  0  0  0  0  0  0  0  0
  147.4990  154.8410  133.7940 C   0  0  0  0  0  0  0  0  0  0  0  0
  147.5825  153.7638  134.0007 H   0  0  0  0  0  0  0  0  0  0  0  0
  146.4190  155.5800  134.3450 C   0  0  0  0  0  0  0  0  0  0  0  0
  145.4150  154.9060  135.2460 C   0  0  0  0  0  0  0  0  0  0  0  0
  146.0410  154.5240  136.4180 F   0  0  0  0  0  0  0  0  0  0  0  0
  144.3780  155.7720  135.5480 F   0  0  0  0  0  0  0  0  0  0  0  0
  144.8790  153.7850  134.6350 F   0  0  0  0  0  0  0  0  0  0  0  0
  146.3400  156.9730  134.1160 C   0  0  0  0  0  0  0  0  0  0  0  0
  145.5269  157.5706  134.5539 H   0  0  0  0  0  0  0  0  0  0  0  0
  147.3210  157.5730  133.3190 C   0  0  0  0  0  0  0  0  0  0  0  0
  147.4230  158.8700  132.9560 N   0  0  0  0  0  0  0  0  0  0  0  0
  146.5060  159.9190  133.3050 C   0  0  0  0  0  0  0  0  0  0  0  0
  146.9540  161.0210  133.7250 O   0  0  0  0  0  0  0  0  0  0  0  0
  145.0510  159.6870  133.2200 C   0  0  0  0  0  0  0  0  0  0  0  0
  144.6721  158.9592  132.4874 H   0  0  0  0  0  0  0  0  0  0  0  0
  144.1760  160.3300  134.0020 C   0  0  0  0  0  0  0  0  0  0  0  0
  144.5551  161.0559  134.7364 H   0  0  0  0  0  0  0  0  0  0  0  0
  142.7240  160.1010  133.9150 C   0  0  0  0  0  0  0  0  0  0  0  0
  141.9290  161.0660  133.7430 O   0  0  0  0  0  0  0  0  0  0  0  0
  142.2400  158.7940  134.0290 O   0  0  0  0  0  0  0  0  0  0  0  0
  141.9860  158.1580  135.2790 C   0  0  0  0  0  0  0  0  0  0  0  0
  141.8025  157.0866  135.1102 H   0  0  0  0  0  0  0  0  0  0  0  0
  142.8604  158.2925  135.9327 H   0  0  0  0  0  0  0  0  0  0  0  0
  140.7880  158.7660  135.9380 C   0  0  0  0  0  0  0  0  0  0  0  0
  140.9220  159.7210  136.7460 O   0  0  0  0  0  0  0  0  0  0  0  0
  139.5180  158.2880  135.6420 O   0  0  0  0  0  0  0  0  0  0  0  0
  1  2  1  0
  2  3  1  0
  3  4  2  0
  3  5  1  0
  5  6  2  0
  6  7  1  0
  6  8  1  0
  8  9  2  0
  9 10  1  0
  9 11  1  0
 11 12  1  0
 11 13  2  0
 13 14  1  0
 14 15  1  0
 14 16  1  0
 14 17  1  0
 13 18  1  0
 18 19  1  0
 18 20  2  0
 20 21  1  0
 21 22  1  0
 22 23  2  0
 22 24  1  0
 24 25  1  0
 24 26  2  0
 26 27  1  0
 26 28  1  0
 28 29  2  0
 28 30  1  0
 30 31  1  0
 31 32  1  0
 31 33  1  0
 31 34  1  0
 34 35  2  0
 34 36  1  0
 21  5  1  0
 20  8  1  0
M  CHG  2   2  -1  36  -1
M  END
>  <UniqueID>  (71) 
71

>  <SMILES>  (71) 
[NH-]C(=O)c1cc2ccc(C(F)(F)F)cc2n1C(=O)/C=C/C(=O)OCC(=O)[O-]

>  <Energy>  (71) 
72.63817565497816

>  <Genealogy>  (71) 
[NH-]C(=O)c1cc2ccc(C(F)(F)F)cc2n1C(=O)/C=C/C(=O)OCC(=O)[O-] (protonated)
[NH-]C(=O)c1cc2ccc(C(F)(F)F)cc2n1C(=O)/C=C/C(=O)OCC(=O)[O-] (cis-trans isomerization)
[NH-]C(=O)c1cc2ccc(C(F)(F)F)cc2n1C(=O)/C=C/C(=O)OCC(=O)[O-] (3D coordinates assigned)
[NH-]C(=O)c1cc2ccc(C(F)(F)F)cc2n1C(=O)/C=C/C(=O)OCC(=O)[O-] (optimized conformer: 72.63817565497816 kcal/mol)

>  <smiles>  (71) 
NC(=O)c1cc2ccc(C(F)(F)F)cc2n1C(=O)/C=C/C(=O)OCC(=O)O

>  <score_type>  (71) 
oracle

>  <origin>  (71) 
adg

>  <m_score__min__energy>  (71) 
-6.9199999999999999

>  <m_primary>  (71) 
energy

$$$$
72:0
     RDKit          3D

 42 43  0  0  0  0  0  0  0  0999 V2000
  148.8480  152.4780  133.5650 C   0  0  0  0  0  0  0  0  0  0  0  0
  148.2880  153.8750  133.8630 C   0  0  1  0  0  0  0  0  0  0  0  0
  147.7700  154.5330  132.6040 C   0  0  0  0  0  0  0  0  0  0  0  0
  147.4450  155.8300  132.4630 C   0  0  0  0  0  0  0  0  0  0  0  0
  147.5980  156.8930  133.4770 C   0  0  0  0  0  0  0  0  0  0  0  0
  148.4560  156.7330  134.3850 O   0  0  0  0  0  0  0  0  0  0  0  0
  146.7670  158.0630  133.5060 N   0  0  0  0  0  0  0  0  0  0  0  0
  147.0880  159.3130  133.0660 C   0  0  0  0  0  0  0  0  0  0  0  0
  148.4120  159.7370  132.5760 C   0  0  0  0  0  0  0  0  0  0  0  0
  149.5990  159.0290  132.9310 N   0  0  0  0  0  0  0  0  0  0  0  0
  148.5030  160.7740  131.8650 O   0  0  0  0  0  0  0  0  0  0  0  0
  145.9490  160.1100  132.9770 C   0  0  0  0  0  0  0  0  0  0  0  0
  144.9060  159.2990  133.3620 C   0  0  0  0  0  0  0  0  0  0  0  0
  143.5400  159.5590  133.4230 C   0  0  0  0  0  0  0  0  0  0  0  0
  142.6870  158.5090  133.8010 C   0  0  0  0  0  0  0  0  0  0  0  0
  143.2070  157.2230  134.0910 C   0  0  0  0  0  0  0  0  0  0  0  0
  142.2780  156.1140  134.4950 C   0  0  0  0  0  0  0  0  0  0  0  0
  141.9900  156.2160  135.8440 F   0  0  0  0  0  0  0  0  0  0  0  0
  141.1050  156.2000  133.7680 F   0  0  0  0  0  0  0  0  0  0  0  0
  144.5980  156.9940  134.0060 C   0  0  0  0  0  0  0  0  0  0  0  0
  145.4250  158.0650  133.6490 C   0  0  0  0  0  0  0  0  0  0  0  0
  147.2170  153.8030  134.8800 N   0  0  0  0  0  0  0  0  0  0  0  0
  145.8010  153.7510  134.4900 C   0  0  0  0  0  0  0  0  0  0  0  0
  147.5390  153.8110  136.2870 C   0  0  0  0  0  0  0  0  0  0  0  0
  146.9920  152.9870  137.0680 O   0  0  0  0  0  0  0  0  0  0  0  0
  148.4500  154.7220  136.8080 O   0  0  0  0  0  0  0  0  0  0  0  0
  149.0568  151.9572  134.5111 H   0  0  0  0  0  0  0  0  0  0  0  0
  148.1107  151.9034  132.9851 H   0  0  0  0  0  0  0  0  0  0  0  0
  149.7780  152.5718  132.9851 H   0  0  0  0  0  0  0  0  0  0  0  0
  149.1100  154.4887  134.2601 H   0  0  0  0  0  0  0  0  0  0  0  0
  147.6475  153.8899  131.7201 H   0  0  0  0  0  0  0  0  0  0  0  0
  147.0218  156.1302  131.4931 H   0  0  0  0  0  0  0  0  0  0  0  0
  149.6000  158.3500  133.7220 H   0  0  0  0  0  0  0  0  0  0  0  0
  150.5130  159.2910  132.5010 H   0  0  0  0  0  0  0  0  0  0  0  0
  145.8948  161.1635  132.6653 H   0  0  0  0  0  0  0  0  0  0  0  0
  143.1410  160.5555  133.1827 H   0  0  0  0  0  0  0  0  0  0  0  0
  141.6038  158.6868  133.8727 H   0  0  0  0  0  0  0  0  0  0  0  0
  142.7626  155.1469  134.2953 H   0  0  0  0  0  0  0  0  0  0  0  0
  145.0203  156.0000  134.2149 H   0  0  0  0  0  0  0  0  0  0  0  0
  145.1727  153.7279  135.3926 H   0  0  0  0  0  0  0  0  0  0  0  0
  145.5523  154.6406  133.8927 H   0  0  0  0  0  0  0  0  0  0  0  0
  145.6182  152.8455  133.8927 H   0  0  0  0  0  0  0  0  0  0  0  0
  1  2  1  0
  2  3  1  0
  3  4  2  3
  4  5  1  0
  5  6  2  0
  5  7  1  0
  7  8  1  0
  8  9  1  0
  9 10  1  0
  9 11  2  0
  8 12  2  0
 12 13  1  0
 13 14  2  0
 14 15  1  0
 15 16  2  0
 16 17  1  0
 17 18  1  0
 17 19  1  0
 16 20  1  0
 20 21  2  0
  2 22  1  0
 22 23  1  0
 22 24  1  0
 24 25  2  0
 24 26  1  0
 21  7  1  0
 21 13  1  0
  1 27  1  0
  1 28  1  0
  1 29  1  0
  2 30  1  1
  3 31  1  0
  4 32  1  0
 10 33  1  0
 10 34  1  0
 12 35  1  0
 14 36  1  0
 15 37  1  0
 17 38  1  0
 20 39  1  0
 23 40  1  0
 23 41  1  0
 23 42  1  0
M  CHG  1  26  -1
M  END
>  <UniqueID>  (72) 
72

>  <SMILES>  (72) 
C[C@@H](C=CC(=O)n1c(C(N)=O)cc2ccc(C(F)F)cc21)N(C)C(=O)[O-]

>  <Energy>  (72) 
86.66681980910387

>  <Genealogy>  (72) 
C[C@@H](C=CC(=O)n1c(C(N)=O)cc2ccc(C(F)F)cc21)N(C)C(=O)[O-] (protonated)
C[C@@H](C=CC(=O)n1c(C(N)=O)cc2ccc(C(F)F)cc21)N(C)C(=O)[O-] (3D coordinates assigned)
C[C@@H](C=CC(=O)n1c(C(N)=O)cc2ccc(C(F)F)cc21)N(C)C(=O)[O-] (optimized conformer: 86.66681980910387 kcal/mol)

>  <smiles>  (72) 
C[C@@H](C=CC(=O)n1c(C(N)=O)cc2ccc(C(F)F)cc21)N(C)C(=O)O

>  <score_type>  (72) 
oracle

>  <origin>  (72) 
adg

>  <m_score__min__energy>  (72) 
-7.4000000000000004

>  <m_primary>  (72) 
energy

$$$$
73:0
     RDKit          3D

 38 39  0  0  0  0  0  0  0  0999 V2000
  144.4620  155.8880  129.5210 H   0  0  0  0  0  0  0  0  0  0  0  0
  144.3670  154.8570  129.6600 N   0  0  0  0  0  0  0  0  0  0  0  0
  144.3510  154.3280  130.8410 C   0  0  0  0  0  0  0  0  0  0  0  0
  144.2936  153.2344  130.9442 H   0  0  0  0  0  0  0  0  0  0  0  0
  144.4070  155.1460  132.0160 N   0  0  0  0  0  0  0  0  0  0  0  0
  144.8760  154.7950  133.1810 C   0  0  0  0  0  0  0  0  0  0  0  0
  144.8640  155.8010  134.2670 C   0  0  0  0  0  0  0  0  0  0  0  0
  144.9840  155.4340  135.4670 O   0  0  0  0  0  0  0  0  0  0  0  0
  144.7030  157.1980  133.9720 N   0  0  0  0  0  0  0  0  0  0  0  0
  145.5770  158.0100  133.3150 C   0  0  0  0  0  0  0  0  0  0  0  0
  146.9420  157.6250  132.8880 C   0  0  0  0  0  0  0  0  0  0  0  0
  147.9450  158.2160  133.3690 O   0  0  0  0  0  0  0  0  0  0  0  0
  147.1450  156.5990  131.9140 N   0  0  0  0  0  0  0  0  0  0  0  0
  146.3490  156.0350  131.5420 H   0  0  0  0  0  0  0  0  0  0  0  0
  148.1100  156.3730  131.5870 H   0  0  0  0  0  0  0  0  0  0  0  0
  145.0350  159.2870  133.1660 C   0  0  0  0  0  0  0  0  0  0  0  0
  145.5028  160.1580  132.6838 H   0  0  0  0  0  0  0  0  0  0  0  0
  143.7900  159.2250  133.7510 C   0  0  0  0  0  0  0  0  0  0  0  0
  142.8170  160.2090  133.8930 C   0  0  0  0  0  0  0  0  0  0  0  0
  142.9834  161.2291  133.5166 H   0  0  0  0  0  0  0  0  0  0  0  0
  141.6150  159.8600  134.5320 C   0  0  0  0  0  0  0  0  0  0  0  0
  140.8360  160.6227  134.6783 H   0  0  0  0  0  0  0  0  0  0  0  0
  141.3940  158.5350  134.9910 C   0  0  0  0  0  0  0  0  0  0  0  0
  140.1200  158.1810  135.7140 C   0  0  0  0  0  0  0  0  0  0  0  0
  139.9370  159.0570  136.7680 F   0  0  0  0  0  0  0  0  0  0  0  0
  140.1820  156.8890  136.2060 F   0  0  0  0  0  0  0  0  0  0  0  0
  139.0320  158.2680  134.8620 F   0  0  0  0  0  0  0  0  0  0  0  0
  142.4170  157.5700  134.8450 C   0  0  0  0  0  0  0  0  0  0  0  0
  142.2775  156.5421  135.2111 H   0  0  0  0  0  0  0  0  0  0  0  0
  143.6110  157.9530  134.2240 C   0  0  0  0  0  0  0  0  0  0  0  0
  145.2720  153.3670  133.4960 C   0  0  0  0  0  0  0  0  0  0  0  0
  145.1728  153.1953  134.5780 H   0  0  0  0  0  0  0  0  0  0  0  0
  144.6116  152.6863  132.9388 H   0  0  0  0  0  0  0  0  0  0  0  0
  146.7160  153.1010  133.0770 C   0  0  0  0  0  0  0  0  0  0  0  0
  147.3286  152.9140  133.9713 H   0  0  0  0  0  0  0  0  0  0  0  0
  146.7500  152.2208  132.4181 H   0  0  0  0  0  0  0  0  0  0  0  0
  147.2170  154.2150  132.3930 O   0  0  0  0  0  0  0  0  0  0  0  0
  146.5190  154.4710  131.7350 H   0  0  0  0  0  0  0  0  0  0  0  0
  1  2  1  0
  2  3  2  0
  3  4  1  0
  3  5  1  0
  5  6  2  0
  6  7  1  0
  7  8  2  0
  7  9  1  0
  9 10  1  0
 10 11  1  0
 11 12  2  0
 11 13  1  0
 13 14  1  0
 13 15  1  0
 10 16  2  0
 16 17  1  0
 16 18  1  0
 18 19  2  0
 19 20  1  0
 19 21  1  0
 21 22  1  0
 21 23  2  0
 23 24  1  0
 24 25  1  0
 24 26  1  0
 24 27  1  0
 23 28  1  0
 28 29  1  0
 28 30  2  0
  6 31  1  0
 31 32  1  0
 31 33  1  0
 31 34  1  0
 34 35  1  0
 34 36  1  0
 34 37  1  0
 37 38  1  0
 30  9  1  0
 30 18  1  0
M  END
>  <UniqueID>  (73) 
73

>  <SMILES>  (73) 
N=C/N=C(\CCO)C(=O)n1c(C(N)=O)cc2ccc(C(F)(F)F)cc21

>  <Energy>  (73) 
82.33911231692774

>  <Genealogy>  (73) 
N=C/N=C(\CCO)C(=O)n1c(C(N)=O)cc2ccc(C(F)(F)F)cc21 (cis-trans isomerization)
N=C/N=C(\CCO)C(=O)n1c(C(N)=O)cc2ccc(C(F)(F)F)cc21 (3D coordinates assigned)
N=C/N=C(\CCO)C(=O)n1c(C(N)=O)cc2ccc(C(F)(F)F)cc21 (optimized conformer: 82.33911231692774 kcal/mol)

>  <smiles>  (73) 
N=C/N=C(\CCO)C(=O)n1c(C(N)=O)cc2ccc(C(F)(F)F)cc21

>  <score_type>  (73) 
oracle

>  <origin>  (73) 
adg

>  <m_score__min__energy>  (73) 
-5.8799999999999999

>  <m_primary>  (73) 
energy

$$$$
74:0
     RDKit          3D

 38 39  0  0  0  0  0  0  0  0999 V2000
  140.1890  160.0990  132.6240 C   0  0  0  0  0  0  0  0  0  0  0  0
  140.4460  158.6300  133.0130 C   0  0  0  0  0  0  0  0  0  0  0  0
  140.2610  158.4770  134.5290 C   0  0  0  0  0  0  0  0  0  0  0  0
  141.8310  158.2720  132.6900 N   0  0  0  0  0  0  0  0  0  0  0  0
  142.9990  158.7240  133.3870 C   0  0  0  0  0  0  0  0  0  0  0  0
  143.0770  159.9150  133.7910 O   0  0  0  0  0  0  0  0  0  0  0  0
  144.0940  157.8180  133.6070 N   0  0  0  0  0  0  0  0  0  0  0  0
  144.0220  156.5040  133.9630 C   0  0  0  0  0  0  0  0  0  0  0  0
  142.8050  155.7950  134.4040 C   0  0  0  0  0  0  0  0  0  0  0  0
  141.6850  155.6380  133.5310 N   0  0  0  0  0  0  0  0  0  0  0  0
  142.7280  155.3760  135.5890 O   0  0  0  0  0  0  0  0  0  0  0  0
  145.2810  155.9140  133.9330 C   0  0  0  0  0  0  0  0  0  0  0  0
  146.1440  156.9190  133.5610 C   0  0  0  0  0  0  0  0  0  0  0  0
  147.5220  156.8890  133.3700 C   0  0  0  0  0  0  0  0  0  0  0  0
  148.1560  158.0730  132.9580 C   0  0  0  0  0  0  0  0  0  0  0  0
  147.4050  159.2520  132.7260 C   0  0  0  0  0  0  0  0  0  0  0  0
  148.0980  160.5170  132.3050 C   0  0  0  0  0  0  0  0  0  0  0  0
  149.0040  160.2420  131.1860 C   0  0  0  0  0  0  0  0  0  0  0  0
  149.7190  160.0250  130.3010 N   0  0  0  0  0  0  0  0  0  0  0  0
  146.0080  159.2470  132.9360 C   0  0  0  0  0  0  0  0  0  0  0  0
  145.4040  158.0580  133.3680 C   0  0  0  0  0  0  0  0  0  0  0  0
  139.4970  157.6810  132.3120 C   0  0  0  0  0  0  0  0  0  0  0  0
  138.7060  158.0930  131.4210 O   0  0  0  0  0  0  0  0  0  0  0  0
  139.4780  156.3360  132.6650 O   0  0  0  0  0  0  0  0  0  0  0  0
  140.0827  160.7063  133.5350 H   0  0  0  0  0  0  0  0  0  0  0  0
  141.0351  160.4743  132.0297 H   0  0  0  0  0  0  0  0  0  0  0  0
  139.2657  160.1648  132.0297 H   0  0  0  0  0  0  0  0  0  0  0  0
  141.0062  159.0933  135.0534 H   0  0  0  0  0  0  0  0  0  0  0  0
  139.2497  158.8062  134.8101 H   0  0  0  0  0  0  0  0  0  0  0  0
  140.3945  157.4219  134.8101 H   0  0  0  0  0  0  0  0  0  0  0  0
  141.6530  156.1160  132.6040 H   0  0  0  0  0  0  0  0  0  0  0  0
  140.8470  155.1000  133.8440 H   0  0  0  0  0  0  0  0  0  0  0  0
  145.5331  154.8673  134.1585 H   0  0  0  0  0  0  0  0  0  0  0  0
  148.0973  155.9664  133.5365 H   0  0  0  0  0  0  0  0  0  0  0  0
  149.2465  158.0850  132.8140 H   0  0  0  0  0  0  0  0  0  0  0  0
  147.3470  161.2574  131.9925 H   0  0  0  0  0  0  0  0  0  0  0  0
  148.6787  160.9105  133.1523 H   0  0  0  0  0  0  0  0  0  0  0  0
  145.4090  160.1536  132.7648 H   0  0  0  0  0  0  0  0  0  0  0  0
  1  2  1  0
  2  3  1  0
  2  4  1  0
  4  5  1  0
  5  6  2  0
  5  7  1  0
  7  8  1  0
  8  9  1  0
  9 10  1  0
  9 11  2  0
  8 12  2  0
 12 13  1  0
 13 14  2  0
 14 15  1  0
 15 16  2  0
 16 17  1  0
 17 18  1  0
 18 19  3  0
 16 20  1  0
 20 21  2  0
  2 22  1  0
 22 23  2  0
 22 24  1  0
 21  7  1  0
 21 13  1  0
  1 25  1  0
  1 26  1  0
  1 27  1  0
  3 28  1  0
  3 29  1  0
  3 30  1  0
 10 31  1  0
 10 32  1  0
 12 33  1  0
 14 34  1  0
 15 35  1  0
 17 36  1  0
 17 37  1  0
 20 38  1  0
M  CHG  2   4  -1  24  -1
M  END
>  <UniqueID>  (74) 
74

>  <SMILES>  (74) 
CC(C)([N-]C(=O)n1c(C(N)=O)cc2ccc(CC#N)cc21)C(=O)[O-]

>  <Energy>  (74) 
72.11314153477242

>  <Genealogy>  (74) 
CC(C)([N-]C(=O)n1c(C(N)=O)cc2ccc(CC#N)cc21)C(=O)[O-] (protonated)
CC(C)([N-]C(=O)n1c(C(N)=O)cc2ccc(CC#N)cc21)C(=O)[O-] (3D coordinates assigned)
CC(C)([N-]C(=O)n1c(C(N)=O)cc2ccc(CC#N)cc21)C(=O)[O-] (optimized conformer: 72.11314153477242 kcal/mol)

>  <smiles>  (74) 
CC(C)(NC(=O)n1c(C(N)=O)cc2ccc(CC#N)cc21)C(=O)O

>  <score_type>  (74) 
oracle

>  <origin>  (74) 
adg

>  <m_score__min__energy>  (74) 
-7.6299999999999999

>  <m_primary>  (74) 
energy

$$$$
75:0
     RDKit          3D

 43 45  0  0  0  0  0  0  0  0999 V2000
  139.8470  150.7500  138.2040 C   0  0  0  0  0  0  0  0  0  0  0  0
  141.1440  151.0440  138.8900 C   0  0  0  0  0  0  0  0  0  0  0  0
  141.4980  150.4600  140.0540 N   0  0  0  0  0  0  0  0  0  0  0  0
  142.7410  150.9250  140.2960 C   0  0  0  0  0  0  0  0  0  0  0  0
  143.1250  151.7680  139.2770 C   0  0  0  0  0  0  0  0  0  0  0  0
  142.1150  151.8450  138.3950 N   0  0  0  0  0  0  0  0  0  0  0  0
  142.1380  152.5740  137.1250 C   0  0  0  0  0  0  0  0  0  0  0  0
  141.9250  154.0430  137.3680 C   0  0  0  0  0  0  0  0  0  0  0  0
  142.0230  154.5650  138.6810 C   0  0  0  0  0  0  0  0  0  0  0  0
  141.8480  155.9390  138.9200 C   0  0  0  0  0  0  0  0  0  0  0  0
  141.5970  156.7640  137.8280 C   0  0  0  0  0  0  0  0  0  0  0  0
  141.3770  158.1220  137.7730 C   0  0  0  0  0  0  0  0  0  0  0  0
  141.1860  158.4120  136.4240 C   0  0  0  0  0  0  0  0  0  0  0  0
  141.0070  159.7850  135.9050 C   0  0  0  0  0  0  0  0  0  0  0  0
  141.3270  160.1080  134.5550 N   0  0  0  0  0  0  0  0  0  0  0  0
  140.6080  160.6950  136.6790 O   0  0  0  0  0  0  0  0  0  0  0  0
  141.2740  157.2760  135.6740 N   0  0  0  0  0  0  0  0  0  0  0  0
  141.0890  157.1300  134.2590 C   0  0  0  0  0  0  0  0  0  0  0  0
  142.0070  157.4740  133.4640 O   0  0  0  0  0  0  0  0  0  0  0  0
  139.8770  156.6330  133.7680 O   0  0  0  0  0  0  0  0  0  0  0  0
  138.7070  157.4310  133.6320 C   0  0  0  0  0  0  0  0  0  0  0  0
  139.0710  158.7910  133.6530 O   0  0  0  0  0  0  0  0  0  0  0  0
  139.3030  159.3100  132.0450 P   0  0  2  0  0  0  0  0  0  0  0  0
  138.7550  160.7090  131.8670 O   0  0  0  0  0  0  0  0  0  0  0  0
  138.4820  158.2610  131.0060 O   0  0  0  0  0  0  0  0  0  0  0  0
  140.9510  159.2970  131.6530 O   0  0  0  0  0  0  0  0  0  0  0  0
  141.5260  156.2780  136.5480 C   0  0  0  0  0  0  0  0  0  0  0  0
  141.6670  154.9110  136.2850 C   0  0  0  0  0  0  0  0  0  0  0  0
  139.0655  150.5729  138.9576 H   0  0  0  0  0  0  0  0  0  0  0  0
  139.5625  151.6064  137.5751 H   0  0  0  0  0  0  0  0  0  0  0  0
  139.9596  149.8546  137.5751 H   0  0  0  0  0  0  0  0  0  0  0  0
  143.3540  150.6699  141.1730 H   0  0  0  0  0  0  0  0  0  0  0  0
  144.0912  152.2880  139.1989 H   0  0  0  0  0  0  0  0  0  0  0  0
  143.1122  152.4235  136.6368 H   0  0  0  0  0  0  0  0  0  0  0  0
  141.3327  152.1957  136.4782 H   0  0  0  0  0  0  0  0  0  0  0  0
  142.2381  153.8888  139.5215 H   0  0  0  0  0  0  0  0  0  0  0  0
  141.9077  156.3494  139.9388 H   0  0  0  0  0  0  0  0  0  0  0  0
  141.3564  158.8284  138.6159 H   0  0  0  0  0  0  0  0  0  0  0  0
  141.1400  159.4310  133.7820 H   0  0  0  0  0  0  0  0  0  0  0  0
  138.2107  157.1973  132.6785 H   0  0  0  0  0  0  0  0  0  0  0  0
  138.0163  157.2197  134.4616 H   0  0  0  0  0  0  0  0  0  0  0  0
  141.4170  159.3270  132.5270 H   0  0  0  0  0  0  0  0  0  0  0  0
  141.5790  154.5223  135.2597 H   0  0  0  0  0  0  0  0  0  0  0  0
  1  2  1  0
  2  3  2  0
  3  4  1  0
  4  5  2  0
  5  6  1  0
  6  7  1  0
  7  8  1  0
  8  9  2  0
  9 10  1  0
 10 11  2  0
 11 12  1  0
 12 13  2  0
 13 14  1  0
 14 15  1  0
 14 16  2  0
 13 17  1  0
 17 18  1  0
 18 19  2  0
 18 20  1  0
 20 21  1  0
 21 22  1  0
 22 23  1  0
 23 24  2  0
 23 25  1  6
 23 26  1  0
 17 27  1  0
 27 28  2  0
  6  2  1  0
 28  8  1  0
 27 11  1  0
  1 29  1  0
  1 30  1  0
  1 31  1  0
  4 32  1  0
  5 33  1  0
  7 34  1  0
  7 35  1  0
  9 36  1  0
 10 37  1  0
 12 38  1  0
 15 39  1  0
 21 40  1  0
 21 41  1  0
 26 42  1  0
 28 43  1  0
M  CHG  2  15  -1  25  -1
M  END
>  <UniqueID>  (75) 
75

>  <SMILES>  (75) 
Cc1nccn1Cc1ccc2cc(C([NH-])=O)n(C(=O)OCO[P@](=O)([O-])O)c2c1

>  <Energy>  (75) 
106.30486118887366

>  <Genealogy>  (75) 
Cc1nccn1Cc1ccc2cc(C([NH-])=O)n(C(=O)OCOP(=O)([O-])O)c2c1 (protonated)
Cc1nccn1Cc1ccc2cc(C([NH-])=O)n(C(=O)OCO[P@](=O)([O-])O)c2c1 (chirality)
Cc1nccn1Cc1ccc2cc(C([NH-])=O)n(C(=O)OCO[P@](=O)([O-])O)c2c1 (3D coordinates assigned)
Cc1nccn1Cc1ccc2cc(C([NH-])=O)n(C(=O)OCO[P@](=O)([O-])O)c2c1 (optimized conformer: 106.30486118887366 kcal/mol)

>  <smiles>  (75) 
Cc1nccn1Cc1ccc2cc(C(N)=O)n(C(=O)OCOP(=O)(O)O)c2c1

>  <score_type>  (75) 
oracle

>  <origin>  (75) 
adg

>  <m_score__min__energy>  (75) 
-6.2800000000000002

>  <m_primary>  (75) 
energy

$$$$
77:0
     RDKit          3D

 47 48  0  0  0  0  0  0  0  0999 V2000
  141.5640  155.0110  139.6250 C   0  0  0  0  0  0  0  0  0  0  0  0
  141.5170  156.1930  138.7050 C   0  0  0  0  0  0  0  0  0  0  0  0
  141.7850  157.4930  139.2000 C   0  0  0  0  0  0  0  0  0  0  0  0
  141.7110  158.6120  138.3530 C   0  0  0  0  0  0  0  0  0  0  0  0
  141.3440  158.4030  137.0270 C   0  0  0  0  0  0  0  0  0  0  0  0
  141.2410  159.2940  135.9820 C   0  0  0  0  0  0  0  0  0  0  0  0
  140.8840  158.5260  134.8750 C   0  0  0  0  0  0  0  0  0  0  0  0
  140.6480  159.0890  133.5300 C   0  0  0  0  0  0  0  0  0  0  0  0
  141.7120  159.2590  132.5920 N   0  0  0  0  0  0  0  0  0  0  0  0
  139.4710  159.3760  133.1810 O   0  0  0  0  0  0  0  0  0  0  0  0
  140.7720  157.2140  135.2220 N   0  0  0  0  0  0  0  0  0  0  0  0
  140.6120  156.0850  134.3520 C   0  0  0  0  0  0  0  0  0  0  0  0
  139.6980  156.0880  133.4840 O   0  0  0  0  0  0  0  0  0  0  0  0
  141.4510  154.8540  134.5390 C   0  0  0  0  0  0  0  0  0  0  0  0
  142.4680  154.7770  133.4800 N   0  0  0  0  0  0  0  0  0  0  0  0
  142.4980  153.6220  132.5760 C   0  0  0  0  0  0  0  0  0  0  0  0
  143.3700  155.8870  133.2780 C   0  0  0  0  0  0  0  0  0  0  0  0
  143.0830  156.7550  132.4100 O   0  0  0  0  0  0  0  0  0  0  0  0
  144.5750  156.0640  134.1280 C   0  0  0  0  0  0  0  0  0  0  0  0
  144.5120  155.7080  135.3360 O   0  0  0  0  0  0  0  0  0  0  0  0
  145.7970  156.6690  133.6410 N   0  0  0  0  0  0  0  0  0  0  0  0
  146.7900  155.8130  132.9840 C   0  0  0  0  0  0  0  0  0  0  0  0
  146.0570  158.1130  133.7340 C   0  0  0  0  0  0  0  0  0  0  0  0
  144.7850  158.8910  133.5830 C   0  0  0  0  0  0  0  0  0  0  0  0
  144.6470  159.6960  132.6250 O   0  0  0  0  0  0  0  0  0  0  0  0
  143.7740  158.7740  134.5280 O   0  0  0  0  0  0  0  0  0  0  0  0
  141.0530  157.1550  136.5400 C   0  0  0  0  0  0  0  0  0  0  0  0
  141.1370  156.0210  137.3550 C   0  0  0  0  0  0  0  0  0  0  0  0
  141.5502  155.3580  140.6687 H   0  0  0  0  0  0  0  0  0  0  0  0
  140.6907  154.3680  139.4408 H   0  0  0  0  0  0  0  0  0  0  0  0
  142.4856  154.4394  139.4408 H   0  0  0  0  0  0  0  0  0  0  0  0
  142.0538  157.6279  140.2581 H   0  0  0  0  0  0  0  0  0  0  0  0
  141.9362  159.6218  138.7266 H   0  0  0  0  0  0  0  0  0  0  0  0
  141.4056  160.3812  136.0141 H   0  0  0  0  0  0  0  0  0  0  0  0
  141.5250  159.7070  131.6670 H   0  0  0  0  0  0  0  0  0  0  0  0
  142.6570  158.8510  132.7610 H   0  0  0  0  0  0  0  0  0  0  0  0
  141.9477  154.8965  135.5195 H   0  0  0  0  0  0  0  0  0  0  0  0
  140.8060  153.9644  134.4876 H   0  0  0  0  0  0  0  0  0  0  0  0
  142.5221  152.6945  133.1669 H   0  0  0  0  0  0  0  0  0  0  0  0
  141.5994  153.6294  131.9417 H   0  0  0  0  0  0  0  0  0  0  0  0
  143.3950  153.6761  131.9417 H   0  0  0  0  0  0  0  0  0  0  0  0
  147.3902  155.2956  133.7469 H   0  0  0  0  0  0  0  0  0  0  0  0
  146.2759  155.0704  132.3561 H   0  0  0  0  0  0  0  0  0  0  0  0
  147.4487  156.4309  132.3561 H   0  0  0  0  0  0  0  0  0  0  0  0
  146.5032  158.3372  134.7141 H   0  0  0  0  0  0  0  0  0  0  0  0
  146.7458  158.4011  132.9262 H   0  0  0  0  0  0  0  0  0  0  0  0
  140.9129  155.0211  136.9551 H   0  0  0  0  0  0  0  0  0  0  0  0
  1  2  1  0
  2  3  2  0
  3  4  1  0
  4  5  2  0
  5  6  1  0
  6  7  2  0
  7  8  1  0
  8  9  1  0
  8 10  2  0
  7 11  1  0
 11 12  1  0
 12 13  2  0
 12 14  1  0
 14 15  1  0
 15 16  1  0
 15 17  1  0
 17 18  2  0
 17 19  1  0
 19 20  2  0
 19 21  1  0
 21 22  1  0
 21 23  1  0
 23 24  1  0
 24 25  2  0
 24 26  1  0
 11 27  1  0
 27 28  2  0
 28  2  1  0
 27  5  1  0
  1 29  1  0
  1 30  1  0
  1 31  1  0
  3 32  1  0
  4 33  1  0
  6 34  1  0
  9 35  1  0
  9 36  1  0
 14 37  1  0
 14 38  1  0
 16 39  1  0
 16 40  1  0
 16 41  1  0
 22 42  1  0
 22 43  1  0
 22 44  1  0
 23 45  1  0
 23 46  1  0
 28 47  1  0
M  CHG  1  26  -1
M  END
>  <UniqueID>  (76) 
76

>  <SMILES>  (76) 
Cc1ccc2cc(C(N)=O)n(C(=O)CN(C)C(=O)C(=O)N(C)CC(=O)[O-])c2c1

>  <Energy>  (76) 
83.91121272063832

>  <Genealogy>  (76) 
Cc1ccc2cc(C(N)=O)n(C(=O)CN(C)C(=O)C(=O)N(C)CC(=O)[O-])c2c1 (protonated)
Cc1ccc2cc(C(N)=O)n(C(=O)CN(C)C(=O)C(=O)N(C)CC(=O)[O-])c2c1 (3D coordinates assigned)
Cc1ccc2cc(C(N)=O)n(C(=O)CN(C)C(=O)C(=O)N(C)CC(=O)[O-])c2c1 (optimized conformer: 83.91121272063832 kcal/mol)

>  <smiles>  (76) 
Cc1ccc2cc(C(N)=O)n(C(=O)CN(C)C(=O)C(=O)N(C)CC(=O)O)c2c1

>  <score_type>  (76) 
oracle

>  <origin>  (76) 
adg

>  <m_score__min__energy>  (76) 
-7.4900000000000002

>  <m_primary>  (76) 
energy

$$$$
78:0
     RDKit          3D

 42 43  0  0  0  0  0  0  0  0999 V2000
  142.6140  156.7100  133.9700 N   0  0  0  0  0  0  0  0  0  0  0  0
  143.9280  156.4580  134.4850 C   0  0  0  0  0  0  0  0  0  0  0  0
  144.0880  155.5960  135.3990 O   0  0  0  0  0  0  0  0  0  0  0  0
  145.1110  157.1480  133.9240 C   0  0  0  0  0  0  0  0  0  0  0  0
  146.3480  156.5300  133.7630 C   0  0  0  0  0  0  0  0  0  0  0  0
  147.1390  157.4610  133.1300 C   0  0  0  0  0  0  0  0  0  0  0  0
  148.4690  157.3740  132.7230 C   0  0  0  0  0  0  0  0  0  0  0  0
  149.0450  158.4950  132.0990 C   0  0  0  0  0  0  0  0  0  0  0  0
  148.2860  159.6730  131.8940 C   0  0  0  0  0  0  0  0  0  0  0  0
  148.9120  160.8730  131.2340 C   0  0  0  0  0  0  0  0  0  0  0  0
  149.8610  160.4380  130.1570 C   0  0  0  0  0  0  0  0  0  0  0  0
  150.8870  159.7660  130.4490 O   0  0  0  0  0  0  0  0  0  0  0  0
  149.5940  160.7460  128.8260 O   0  0  0  0  0  0  0  0  0  0  0  0
  146.9440  159.7320  132.3370 C   0  0  0  0  0  0  0  0  0  0  0  0
  146.3880  158.5940  132.9410 C   0  0  0  0  0  0  0  0  0  0  0  0
  145.1370  158.4220  133.4360 N   0  0  0  0  0  0  0  0  0  0  0  0
  144.0980  159.4110  133.5360 C   0  0  0  0  0  0  0  0  0  0  0  0
  144.3230  160.5130  134.1080 O   0  0  0  0  0  0  0  0  0  0  0  0
  142.8370  159.1550  132.9870 O   0  0  0  0  0  0  0  0  0  0  0  0
  141.6200  159.5900  133.5860 C   0  0  0  0  0  0  0  0  0  0  0  0
  140.8780  158.4590  134.0530 O   0  0  0  0  0  0  0  0  0  0  0  0
  140.0370  157.7160  133.2220 C   0  0  0  0  0  0  0  0  0  0  0  0
  140.4150  156.6080  132.7490 O   0  0  0  0  0  0  0  0  0  0  0  0
  138.6660  158.2380  132.9120 C   0  0  0  0  0  0  0  0  0  0  0  0
  138.4940  158.5350  131.4160 C   0  0  0  0  0  0  0  0  0  0  0  0
  138.2460  159.9920  131.1680 C   0  0  0  0  0  0  0  0  0  0  0  0
  139.1340  160.8410  131.4480 O   0  0  0  0  0  0  0  0  0  0  0  0
  137.0250  160.4170  130.6530 O   0  0  0  0  0  0  0  0  0  0  0  0
  142.4730  157.2870  133.1060 H   0  0  0  0  0  0  0  0  0  0  0  0
  141.7790  156.2830  134.4300 H   0  0  0  0  0  0  0  0  0  0  0  0
  146.6323  155.5143  134.0752 H   0  0  0  0  0  0  0  0  0  0  0  0
  149.0514  156.4550  132.8851 H   0  0  0  0  0  0  0  0  0  0  0  0
  150.0932  158.4566  131.7676 H   0  0  0  0  0  0  0  0  0  0  0  0
  148.1218  161.4972  130.7912 H   0  0  0  0  0  0  0  0  0  0  0  0
  149.4672  161.4483  131.9895 H   0  0  0  0  0  0  0  0  0  0  0  0
  146.3498  160.6491  132.2109 H   0  0  0  0  0  0  0  0  0  0  0  0
  141.8469  160.2532  134.4338 H   0  0  0  0  0  0  0  0  0  0  0  0
  141.0220  160.1336  132.8398 H   0  0  0  0  0  0  0  0  0  0  0  0
  137.9221  157.4859  133.2135 H   0  0  0  0  0  0  0  0  0  0  0  0
  138.5247  159.1780  133.4657 H   0  0  0  0  0  0  0  0  0  0  0  0
  139.4086  158.2330  130.8846 H   0  0  0  0  0  0  0  0  0  0  0  0
  137.6232  157.9707  131.0510 H   0  0  0  0  0  0  0  0  0  0  0  0
  1  2  1  0
  2  3  2  0
  2  4  1  0
  4  5  2  0
  5  6  1  0
  6  7  2  0
  7  8  1  0
  8  9  2  0
  9 10  1  0
 10 11  1  0
 11 12  2  0
 11 13  1  0
  9 14  1  0
 14 15  2  0
 15 16  1  0
 16 17  1  0
 17 18  2  0
 17 19  1  0
 19 20  1  0
 20 21  1  0
 21 22  1  0
 22 23  2  0
 22 24  1  0
 24 25  1  0
 25 26  1  0
 26 27  2  0
 26 28  1  0
 16  4  1  0
 15  6  1  0
  1 29  1  0
  1 30  1  0
  5 31  1  0
  7 32  1  0
  8 33  1  0
 10 34  1  0
 10 35  1  0
 14 36  1  0
 20 37  1  0
 20 38  1  0
 24 39  1  0
 24 40  1  0
 25 41  1  0
 25 42  1  0
M  CHG  2  13  -1  28  -1
M  END
>  <UniqueID>  (77) 
77

>  <SMILES>  (77) 
NC(=O)c1cc2ccc(CC(=O)[O-])cc2n1C(=O)OCOC(=O)CCC(=O)[O-]

>  <Energy>  (77) 
73.26362594753039

>  <Genealogy>  (77) 
NC(=O)c1cc2ccc(CC(=O)[O-])cc2n1C(=O)OCOC(=O)CCC(=O)[O-] (protonated)
NC(=O)c1cc2ccc(CC(=O)[O-])cc2n1C(=O)OCOC(=O)CCC(=O)[O-] (3D coordinates assigned)
NC(=O)c1cc2ccc(CC(=O)[O-])cc2n1C(=O)OCOC(=O)CCC(=O)[O-] (optimized conformer: 73.26362594753039 kcal/mol)

>  <smiles>  (77) 
NC(=O)c1cc2ccc(CC(=O)O)cc2n1C(=O)OCOC(=O)CCC(=O)O

>  <score_type>  (77) 
oracle

>  <origin>  (77) 
adg

>  <m_score__min__energy>  (77) 
-6.5999999999999996

>  <m_primary>  (77) 
energy

$$$$
79:0
     RDKit          3D

 44 45  0  0  0  0  0  0  0  0999 V2000
  149.2390  159.2780  133.1300 C   0  0  0  0  0  0  0  0  0  0  0  0
  147.8500  159.7300  132.6670 C   0  0  0  0  0  0  0  0  0  0  0  0
  147.8680  160.1240  131.1860 C   0  0  0  0  0  0  0  0  0  0  0  0
  146.8440  158.6790  132.9180 N   0  0  0  0  0  0  0  0  0  0  0  0
  147.1630  157.2640  132.7240 C   0  0  0  0  0  0  0  0  0  0  0  0
  145.5240  159.0120  133.3750 C   0  0  0  0  0  0  0  0  0  0  0  0
  145.1070  160.3630  133.4040 C   0  0  0  0  0  0  0  0  0  0  0  0
  143.8280  160.7060  133.8720 C   0  0  0  0  0  0  0  0  0  0  0  0
  142.9950  159.6770  134.3040 C   0  0  0  0  0  0  0  0  0  0  0  0
  141.7210  159.7260  134.8220 C   0  0  0  0  0  0  0  0  0  0  0  0
  141.3800  158.4020  135.0930 C   0  0  0  0  0  0  0  0  0  0  0  0
  140.0470  157.9880  135.5790 C   0  0  0  0  0  0  0  0  0  0  0  0
  139.7830  157.9520  136.9790 N   0  0  0  0  0  0  0  0  0  0  0  0
  139.1260  157.7020  134.7700 O   0  0  0  0  0  0  0  0  0  0  0  0
  142.4070  157.5670  134.7640 N   0  0  0  0  0  0  0  0  0  0  0  0
  142.4820  156.1450  134.9490 C   0  0  0  0  0  0  0  0  0  0  0  0
  141.6330  155.3920  134.4000 O   0  0  0  0  0  0  0  0  0  0  0  0
  143.5380  155.5810  135.7320 N   0  0  0  0  0  0  0  0  0  0  0  0
  144.0950  154.2610  135.4740 C   0  0  0  0  0  0  0  0  0  0  0  0
  145.4600  154.4030  134.8070 C   0  0  0  0  0  0  0  0  0  0  0  0
  146.5550  154.3280  135.8220 C   0  0  0  0  0  0  0  0  0  0  0  0
  147.4090  155.2520  135.9010 O   0  0  0  0  0  0  0  0  0  0  0  0
  146.6110  153.2610  136.7100 O   0  0  0  0  0  0  0  0  0  0  0  0
  143.3860  158.3620  134.2800 C   0  0  0  0  0  0  0  0  0  0  0  0
  144.6610  157.9970  133.8350 C   0  0  0  0  0  0  0  0  0  0  0  0
  149.2734  159.2668  134.2294 H   0  0  0  0  0  0  0  0  0  0  0  0
  149.4424  158.2673  132.7465 H   0  0  0  0  0  0  0  0  0  0  0  0
  149.9983  159.9754  132.7465 H   0  0  0  0  0  0  0  0  0  0  0  0
  147.5695  160.6181  133.2523 H   0  0  0  0  0  0  0  0  0  0  0  0
  147.9180  161.2194  131.0986 H   0  0  0  0  0  0  0  0  0  0  0  0
  148.7467  159.6767  130.6982 H   0  0  0  0  0  0  0  0  0  0  0  0
  146.9522  159.7587  130.6982 H   0  0  0  0  0  0  0  0  0  0  0  0
  147.2732  156.7754  133.7033 H   0  0  0  0  0  0  0  0  0  0  0  0
  146.3516  156.7790  132.1614 H   0  0  0  0  0  0  0  0  0  0  0  0
  148.1040  157.1741  132.1614 H   0  0  0  0  0  0  0  0  0  0  0  0
  145.7903  161.1521  133.0570 H   0  0  0  0  0  0  0  0  0  0  0  0
  143.4949  161.7540  133.8965 H   0  0  0  0  0  0  0  0  0  0  0  0
  141.1027  160.6206  134.9872 H   0  0  0  0  0  0  0  0  0  0  0  0
  139.1230  158.6320  137.4170 H   0  0  0  0  0  0  0  0  0  0  0  0
  144.2066  153.7186  136.4244 H   0  0  0  0  0  0  0  0  0  0  0  0
  143.4196  153.7031  134.8088 H   0  0  0  0  0  0  0  0  0  0  0  0
  145.5902  153.5923  134.0750 H   0  0  0  0  0  0  0  0  0  0  0  0
  145.5086  155.3812  134.3062 H   0  0  0  0  0  0  0  0  0  0  0  0
  144.9818  156.9449  133.8439 H   0  0  0  0  0  0  0  0  0  0  0  0
  1  2  1  0
  2  3  1  0
  2  4  1  0
  4  5  1  0
  4  6  1  0
  6  7  2  0
  7  8  1  0
  8  9  2  0
  9 10  1  0
 10 11  2  0
 11 12  1  0
 12 13  1  0
 12 14  2  0
 11 15  1  0
 15 16  1  0
 16 17  2  0
 16 18  1  0
 18 19  1  0
 19 20  1  0
 20 21  1  0
 21 22  2  0
 21 23  1  0
 15 24  1  0
 24 25  2  0
 25  6  1  0
 24  9  1  0
  1 26  1  0
  1 27  1  0
  1 28  1  0
  2 29  1  0
  3 30  1  0
  3 31  1  0
  3 32  1  0
  5 33  1  0
  5 34  1  0
  5 35  1  0
  7 36  1  0
  8 37  1  0
 10 38  1  0
 13 39  1  0
 19 40  1  0
 19 41  1  0
 20 42  1  0
 20 43  1  0
 25 44  1  0
M  CHG  3  13  -1  18  -1  23  -1
M  END
>  <UniqueID>  (78) 
78

>  <SMILES>  (78) 
CC(C)N(C)c1ccc2cc(C([NH-])=O)n(C(=O)[N-]CCC(=O)[O-])c2c1

>  <Energy>  (78) 
77.15568669611234

>  <Genealogy>  (78) 
CC(C)N(C)c1ccc2cc(C([NH-])=O)n(C(=O)[N-]CCC(=O)[O-])c2c1 (protonated)
CC(C)N(C)c1ccc2cc(C([NH-])=O)n(C(=O)[N-]CCC(=O)[O-])c2c1 (3D coordinates assigned)
CC(C)N(C)c1ccc2cc(C([NH-])=O)n(C(=O)[N-]CCC(=O)[O-])c2c1 (optimized conformer: 77.15568669611234 kcal/mol)

>  <smiles>  (78) 
CC(C)N(C)c1ccc2cc(C(N)=O)n(C(=O)NCCC(=O)O)c2c1

>  <score_type>  (78) 
oracle

>  <origin>  (78) 
adg

>  <m_score__min__energy>  (78) 
-7.2599999999999998

>  <m_primary>  (78) 
energy

$$$$
80:0
     RDKit          3D

 47 48  0  0  0  0  0  0  0  0999 V2000
  139.2240  147.7530  130.3210 C   0  0  0  0  0  0  0  0  0  0  0  0
  139.5350  149.5230  130.6070 S   0  0  0  0  0  0  0  0  0  0  0  0
  140.2440  149.2940  132.2800 C   0  0  0  0  0  0  0  0  0  0  0  0
  141.5040  150.1580  132.4730 C   0  0  0  0  0  0  0  0  0  0  0  0
  141.2200  151.6110  132.9170 C   0  0  2  0  0  0  0  0  0  0  0  0
  141.6840  152.5630  131.9050 N   0  0  0  0  0  0  0  0  0  0  0  0
  141.8560  151.9150  134.2450 C   0  0  0  0  0  0  0  0  0  0  0  0
  141.3590  151.4370  135.3010 O   0  0  0  0  0  0  0  0  0  0  0  0
  143.0290  152.6730  134.2900 O   0  0  0  0  0  0  0  0  0  0  0  0
  143.0420  154.0590  134.6040 C   0  0  0  0  0  0  0  0  0  0  0  0
  143.1590  154.8010  133.3980 O   0  0  0  0  0  0  0  0  0  0  0  0
  144.0480  154.4540  132.3780 C   0  0  0  0  0  0  0  0  0  0  0  0
  143.6120  154.1050  131.2470 O   0  0  0  0  0  0  0  0  0  0  0  0
  145.4640  154.4980  132.6200 N   0  0  0  0  0  0  0  0  0  0  0  0
  146.3300  153.4460  132.6700 C   0  0  0  0  0  0  0  0  0  0  0  0
  146.0110  152.0460  132.3260 C   0  0  0  0  0  0  0  0  0  0  0  0
  144.6580  151.5930  132.2550 N   0  0  0  0  0  0  0  0  0  0  0  0
  146.9450  151.2530  132.0330 O   0  0  0  0  0  0  0  0  0  0  0  0
  147.6020  153.8730  133.0400 C   0  0  0  0  0  0  0  0  0  0  0  0
  147.4950  155.2360  133.2010 C   0  0  0  0  0  0  0  0  0  0  0  0
  148.4580  156.1700  133.5690 C   0  0  0  0  0  0  0  0  0  0  0  0
  148.0630  157.5130  133.6870 C   0  0  0  0  0  0  0  0  0  0  0  0
  146.7160  157.8900  133.4590 C   0  0  0  0  0  0  0  0  0  0  0  0
  146.3100  159.3300  133.5660 C   0  0  0  0  0  0  0  0  0  0  0  0
  145.0300  159.4870  133.0660 F   0  0  0  0  0  0  0  0  0  0  0  0
  145.7680  156.9170  133.0760 C   0  0  0  0  0  0  0  0  0  0  0  0
  146.1940  155.5890  132.9430 C   0  0  0  0  0  0  0  0  0  0  0  0
  139.1331  147.2358  131.2876 H   0  0  0  0  0  0  0  0  0  0  0  0
  138.2908  147.6321  129.7513 H   0  0  0  0  0  0  0  0  0  0  0  0
  140.0600  147.3212  129.7513 H   0  0  0  0  0  0  0  0  0  0  0  0
  139.4931  149.5817  133.0305 H   0  0  0  0  0  0  0  0  0  0  0  0
  140.5246  148.2370  132.3981 H   0  0  0  0  0  0  0  0  0  0  0  0
  142.1341  149.6813  133.2384 H   0  0  0  0  0  0  0  0  0  0  0  0
  141.9954  150.2202  131.4909 H   0  0  0  0  0  0  0  0  0  0  0  0
  140.1306  151.7148  133.0289 H   0  0  0  0  0  0  0  0  0  0  0  0
  142.5670  152.1910  131.4820 H   0  0  0  0  0  0  0  0  0  0  0  0
  141.9480  153.4540  132.3860 H   0  0  0  0  0  0  0  0  0  0  0  0
  142.1071  154.3308  135.1160 H   0  0  0  0  0  0  0  0  0  0  0  0
  143.8918  154.2843  135.2652 H   0  0  0  0  0  0  0  0  0  0  0  0
  144.4530  150.5900  132.0500 H   0  0  0  0  0  0  0  0  0  0  0  0
  143.8610  152.2630  132.3190 H   0  0  0  0  0  0  0  0  0  0  0  0
  148.5009  153.2536  133.1749 H   0  0  0  0  0  0  0  0  0  0  0  0
  149.4975  155.8661  133.7618 H   0  0  0  0  0  0  0  0  0  0  0  0
  148.8052  158.2781  133.9585 H   0  0  0  0  0  0  0  0  0  0  0  0
  146.3318  159.6396  134.6213 H   0  0  0  0  0  0  0  0  0  0  0  0
  147.0085  159.9517  132.9867 H   0  0  0  0  0  0  0  0  0  0  0  0
  144.7206  157.1945  132.8866 H   0  0  0  0  0  0  0  0  0  0  0  0
  1  2  1  0
  2  3  1  0
  3  4  1  0
  4  5  1  0
  5  6  1  0
  5  7  1  0
  7  8  2  0
  7  9  1  0
  9 10  1  0
 10 11  1  0
 11 12  1  0
 12 13  2  0
 12 14  1  0
 14 15  1  0
 15 16  1  0
 16 17  1  0
 16 18  2  0
 15 19  2  0
 19 20  1  0
 20 21  2  0
 21 22  1  0
 22 23  2  0
 23 24  1  0
 24 25  1  0
 23 26  1  0
 26 27  2  0
 27 14  1  0
 27 20  1  0
  1 28  1  0
  1 29  1  0
  1 30  1  0
  3 31  1  0
  3 32  1  0
  4 33  1  0
  4 34  1  0
  5 35  1  1
  6 36  1  0
  6 37  1  0
 10 38  1  0
 10 39  1  0
 17 40  1  0
 17 41  1  0
 19 42  1  0
 21 43  1  0
 22 44  1  0
 24 45  1  0
 24 46  1  0
 26 47  1  0
M  END
>  <UniqueID>  (79) 
79

>  <SMILES>  (79) 
CSCC[C@H](N)C(=O)OCOC(=O)n1c(C(N)=O)cc2ccc(CF)cc21

>  <Energy>  (79) 
74.27168860125781

>  <Genealogy>  (79) 
CSCC[C@H](N)C(=O)OCOC(=O)n1c(C(N)=O)cc2ccc(CF)cc21 (3D coordinates assigned)
CSCC[C@H](N)C(=O)OCOC(=O)n1c(C(N)=O)cc2ccc(CF)cc21 (optimized conformer: 74.27168860125781 kcal/mol)

>  <smiles>  (79) 
CSCC[C@H](N)C(=O)OCOC(=O)n1c(C(N)=O)cc2ccc(CF)cc21

>  <score_type>  (79) 
oracle

>  <origin>  (79) 
adg

>  <m_score__min__energy>  (79) 
-6.8099999999999996

>  <m_primary>  (79) 
energy

$$$$
81:0
     RDKit          3D

 58 60  0  0  0  0  0  0  0  0999 V2000
  139.8510  154.4890  139.3520 C   0  0  0  0  0  0  0  0  0  0  0  0
  140.8480  155.3390  138.5780 C   0  0  0  0  0  0  0  0  0  0  0  0
  141.4250  154.5630  137.5320 O   0  0  0  0  0  0  0  0  0  0  0  0
  142.3370  155.0940  136.6130 C   0  0  0  0  0  0  0  0  0  0  0  0
  142.1550  156.2450  136.1230 O   0  0  0  0  0  0  0  0  0  0  0  0
  143.5120  154.2570  136.1900 C   0  0  2  0  0  0  0  0  0  0  0  0
  144.5840  155.0970  135.6280 N   0  0  0  0  0  0  0  0  0  0  0  0
  145.9650  154.6900  135.6270 C   0  0  0  0  0  0  0  0  0  0  0  0
  146.3520  153.7840  136.4120 O   0  0  0  0  0  0  0  0  0  0  0  0
  146.9360  155.3540  134.7270 C   0  0  0  0  0  0  0  0  0  0  0  0
  148.1040  155.5480  135.1570 O   0  0  0  0  0  0  0  0  0  0  0  0
  146.5710  155.8050  133.3970 N   0  0  0  0  0  0  0  0  0  0  0  0
  147.3590  155.3680  132.2290 C   0  0  0  0  0  0  0  0  0  0  0  0
  148.7920  155.0050  132.6220 C   0  0  0  0  0  0  0  0  0  0  0  0
  149.5720  156.1650  132.6720 O   0  0  0  0  0  0  0  0  0  0  0  0
  145.3510  156.5540  133.1720 C   0  0  0  0  0  0  0  0  0  0  0  0
  144.2800  155.9510  132.8870 O   0  0  0  0  0  0  0  0  0  0  0  0
  145.3220  157.9840  133.2760 N   0  0  0  0  0  0  0  0  0  0  0  0
  146.3850  158.8270  133.3670 C   0  0  0  0  0  0  0  0  0  0  0  0
  147.8060  158.4220  133.3040 C   0  0  0  0  0  0  0  0  0  0  0  0
  148.5110  158.1030  134.5030 N   0  0  0  0  0  0  0  0  0  0  0  0
  148.4050  158.3590  132.2000 O   0  0  0  0  0  0  0  0  0  0  0  0
  145.9500  160.1410  133.5310 C   0  0  0  0  0  0  0  0  0  0  0  0
  144.5740  160.0660  133.5580 C   0  0  0  0  0  0  0  0  0  0  0  0
  143.6220  161.0640  133.7460 C   0  0  0  0  0  0  0  0  0  0  0  0
  142.2670  160.6850  133.7780 C   0  0  0  0  0  0  0  0  0  0  0  0
  141.8860  159.3280  133.6010 C   0  0  0  0  0  0  0  0  0  0  0  0
  140.4340  158.9290  133.7080 C   0  0  0  0  0  0  0  0  0  0  0  0
  139.6680  159.7850  132.9380 F   0  0  0  0  0  0  0  0  0  0  0  0
  140.2510  157.6310  133.2620 F   0  0  0  0  0  0  0  0  0  0  0  0
  140.0020  158.9980  135.0210 F   0  0  0  0  0  0  0  0  0  0  0  0
  142.8850  158.3430  133.4330 C   0  0  0  0  0  0  0  0  0  0  0  0
  144.2220  158.7500  133.4060 C   0  0  0  0  0  0  0  0  0  0  0  0
  143.0320  153.1370  135.2310 C   0  0  0  0  0  0  0  0  0  0  0  0
  142.1020  153.5440  134.0950 C   0  0  0  0  0  0  0  0  0  0  0  0
  143.5380  153.1380  133.7910 C   0  0  0  0  0  0  0  0  0  0  0  0
  140.0122  154.6264  140.4314 H   0  0  0  0  0  0  0  0  0  0  0  0
  138.8274  154.7965  139.0920 H   0  0  0  0  0  0  0  0  0  0  0  0
  139.9927  153.4296  139.0920 H   0  0  0  0  0  0  0  0  0  0  0  0
  140.3307  156.2086  138.1464 H   0  0  0  0  0  0  0  0  0  0  0  0
  141.6409  155.6833  139.2582 H   0  0  0  0  0  0  0  0  0  0  0  0
  143.9557  153.7631  137.0671 H   0  0  0  0  0  0  0  0  0  0  0  0
  144.3210  155.9580  135.0940 H   0  0  0  0  0  0  0  0  0  0  0  0
  146.8767  154.4859  131.7825 H   0  0  0  0  0  0  0  0  0  0  0  0
  147.3990  156.1993  131.5098 H   0  0  0  0  0  0  0  0  0  0  0  0
  148.7896  154.5223  133.6104 H   0  0  0  0  0  0  0  0  0  0  0  0
  149.2118  154.3139  131.8763 H   0  0  0  0  0  0  0  0  0  0  0  0
  149.2220  156.7030  133.4320 H   0  0  0  0  0  0  0  0  0  0  0  0
  149.2040  157.3210  134.5280 H   0  0  0  0  0  0  0  0  0  0  0  0
  146.5716  161.0442  133.6198 H   0  0  0  0  0  0  0  0  0  0  0  0
  143.9195  162.1162  133.8658 H   0  0  0  0  0  0  0  0  0  0  0  0
  141.4931  161.4493  133.9422 H   0  0  0  0  0  0  0  0  0  0  0  0
  142.6171  157.2815  133.3260 H   0  0  0  0  0  0  0  0  0  0  0  0
  143.0089  152.3903  136.0384 H   0  0  0  0  0  0  0  0  0  0  0  0
  141.2709  152.8855  133.8023 H   0  0  0  0  0  0  0  0  0  0  0  0
  141.4810  154.4254  133.8771 H   0  0  0  0  0  0  0  0  0  0  0  0
  143.7441  152.1861  133.2796 H   0  0  0  0  0  0  0  0  0  0  0  0
  144.3833  153.6041  133.2636 H   0  0  0  0  0  0  0  0  0  0  0  0
  1  2  1  0
  2  3  1  0
  3  4  1  0
  4  5  2  0
  4  6  1  0
  6  7  1  0
  7  8  1  0
  8  9  2  0
  8 10  1  0
 10 11  2  0
 10 12  1  0
 12 13  1  0
 13 14  1  0
 14 15  1  0
 12 16  1  0
 16 17  2  0
 16 18  1  0
 18 19  1  0
 19 20  1  0
 20 21  1  0
 20 22  2  0
 19 23  2  0
 23 24  1  0
 24 25  2  0
 25 26  1  0
 26 27  2  0
 27 28  1  0
 28 29  1  0
 28 30  1  0
 28 31  1  0
 27 32  1  0
 32 33  2  0
  6 34  1  0
 34 35  1  0
 35 36  1  0
 33 18  1  0
 36 34  1  0
 33 24  1  0
  1 37  1  0
  1 38  1  0
  1 39  1  0
  2 40  1  0
  2 41  1  0
  6 42  1  1
  7 43  1  0
 13 44  1  0
 13 45  1  0
 14 46  1  0
 14 47  1  0
 15 48  1  0
 21 49  1  0
 23 50  1  0
 25 51  1  0
 26 52  1  0
 32 53  1  0
 34 54  1  0
 35 55  1  0
 35 56  1  0
 36 57  1  0
 36 58  1  0
M  CHG  1  21  -1
M  END
>  <UniqueID>  (80) 
80

>  <SMILES>  (80) 
CCOC(=O)[C@H](NC(=O)C(=O)N(CCO)C(=O)n1c(C([NH-])=O)cc2ccc(C(F)(F)F)cc21)C1CC1

>  <Energy>  (80) 
363.3006636475402

>  <Genealogy>  (80) 
CCOC(=O)C(NC(=O)C(=O)N(CCO)C(=O)n1c(C([NH-])=O)cc2ccc(C(F)(F)F)cc21)C1CC1 (protonated)
CCOC(=O)[C@H](NC(=O)C(=O)N(CCO)C(=O)n1c(C([NH-])=O)cc2ccc(C(F)(F)F)cc21)C1CC1 (chirality)
CCOC(=O)[C@H](NC(=O)C(=O)N(CCO)C(=O)n1c(C([NH-])=O)cc2ccc(C(F)(F)F)cc21)C1CC1 (3D coordinates assigned)
CCOC(=O)[C@H](NC(=O)C(=O)N(CCO)C(=O)n1c(C([NH-])=O)cc2ccc(C(F)(F)F)cc21)C1CC1 (nonaromatic ring conformer: 363.3006636475402 kcal/mol)

>  <smiles>  (80) 
CCOC(=O)C(NC(=O)C(=O)N(CCO)C(=O)n1c(C(N)=O)cc2ccc(C(F)(F)F)cc21)C1CC1

>  <score_type>  (80) 
oracle

>  <origin>  (80) 
adg

>  <m_score__min__energy>  (80) 
-7.3200000000000003

>  <m_primary>  (80) 
energy

$$$$
82:0
     RDKit          3D

 41 42  0  0  0  0  0  0  0  0999 V2000
  140.8360  156.0730  141.0400 N   0  0  0  0  0  0  0  0  0  0  0  0
  141.7340  156.8760  140.2780 C   0  0  0  0  0  0  0  0  0  0  0  0
  142.6880  157.4570  140.8610 O   0  0  0  0  0  0  0  0  0  0  0  0
  141.5370  157.0680  138.8250 C   0  0  0  0  0  0  0  0  0  0  0  0
  141.3700  158.3160  138.2280 C   0  0  0  0  0  0  0  0  0  0  0  0
  141.1350  158.0550  136.8970 C   0  0  0  0  0  0  0  0  0  0  0  0
  140.8930  158.9280  135.8390 C   0  0  0  0  0  0  0  0  0  0  0  0
  140.6890  158.3750  134.5640 C   0  0  0  0  0  0  0  0  0  0  0  0
  140.7400  156.9720  134.3670 C   0  0  0  0  0  0  0  0  0  0  0  0
  140.4700  156.3860  133.0070 C   0  0  0  0  0  0  0  0  0  0  0  0
  139.3700  155.3240  133.0650 C   0  0  0  0  0  0  0  0  0  0  0  0
  139.9650  153.9760  133.1130 N   0  0  0  0  0  0  0  0  0  0  0  0
  141.4360  153.9930  133.0310 C   0  0  0  0  0  0  0  0  0  0  0  0
  142.1030  152.9560  133.9530 C   0  0  0  0  0  0  0  0  0  0  0  0
  141.4250  151.2770  133.7250 P   0  0  2  0  0  0  0  0  0  0  0  0
  140.9950  150.7340  135.0690 O   0  0  0  0  0  0  0  0  0  0  0  0
  142.5970  150.2470  133.0720 O   0  0  0  0  0  0  0  0  0  0  0  0
  140.0860  151.3250  132.6910 O   0  0  0  0  0  0  0  0  0  0  0  0
  140.9800  156.1180  135.4670 C   0  0  0  0  0  0  0  0  0  0  0  0
  141.1690  156.6960  136.7250 C   0  0  0  0  0  0  0  0  0  0  0  0
  141.4210  156.0770  137.8970 N   0  0  0  0  0  0  0  0  0  0  0  0
  141.5810  154.6630  138.0830 C   0  0  0  0  0  0  0  0  0  0  0  0
  142.6650  154.1130  137.7540 O   0  0  0  0  0  0  0  0  0  0  0  0
  140.5150  153.8600  138.7020 C   0  0  0  0  0  0  0  0  0  0  0  0
  139.5260  154.4240  139.2400 O   0  0  0  0  0  0  0  0  0  0  0  0
  140.6110  152.1080  138.7140 Cl  0  0  0  0  0  0  0  0  0  0  0  0
  139.8390  155.9610  140.7520 H   0  0  0  0  0  0  0  0  0  0  0  0
  141.4161  159.3005  138.7165 H   0  0  0  0  0  0  0  0  0  0  0  0
  140.8626  160.0162  135.9969 H   0  0  0  0  0  0  0  0  0  0  0  0
  140.4875  159.0376  133.7093 H   0  0  0  0  0  0  0  0  0  0  0  0
  140.1549  157.1909  132.3266 H   0  0  0  0  0  0  0  0  0  0  0  0
  141.3931  155.9089  132.6462 H   0  0  0  0  0  0  0  0  0  0  0  0
  138.7583  155.4834  133.9653 H   0  0  0  0  0  0  0  0  0  0  0  0
  138.7430  155.4075  132.1650 H   0  0  0  0  0  0  0  0  0  0  0  0
  139.5700  153.3870  132.3450 H   0  0  0  0  0  0  0  0  0  0  0  0
  141.7315  153.7803  131.9930 H   0  0  0  0  0  0  0  0  0  0  0  0
  141.7719  154.9880  133.3585 H   0  0  0  0  0  0  0  0  0  0  0  0
  143.1811  152.9332  133.7360 H   0  0  0  0  0  0  0  0  0  0  0  0
  141.9051  153.2574  134.9922 H   0  0  0  0  0  0  0  0  0  0  0  0
  139.4120  151.8700  133.1720 H   0  0  0  0  0  0  0  0  0  0  0  0
  141.0171  155.0264  135.3363 H   0  0  0  0  0  0  0  0  0  0  0  0
  1  2  1  0
  2  3  2  0
  2  4  1  0
  4  5  2  0
  5  6  1  0
  6  7  2  0
  7  8  1  0
  8  9  2  0
  9 10  1  0
 10 11  1  0
 11 12  1  0
 12 13  1  0
 13 14  1  0
 14 15  1  0
 15 16  2  0
 15 17  1  6
 15 18  1  0
  9 19  1  0
 19 20  2  0
 20 21  1  0
 21 22  1  0
 22 23  2  0
 22 24  1  0
 24 25  2  0
 24 26  1  0
 21  4  1  0
 20  6  1  0
  1 27  1  0
  5 28  1  0
  7 29  1  0
  8 30  1  0
 10 31  1  0
 10 32  1  0
 11 33  1  0
 11 34  1  0
 12 35  1  0
 13 36  1  0
 13 37  1  0
 14 38  1  0
 14 39  1  0
 18 40  1  0
 19 41  1  0
M  CHG  2   1  -1  17  -1
M  END
>  <UniqueID>  (81) 
81

>  <SMILES>  (81) 
[NH-]C(=O)c1cc2ccc(CCNCC[P@](=O)([O-])O)cc2n1C(=O)C(=O)Cl

>  <Energy>  (81) 
74.12117958959357

>  <Genealogy>  (81) 
[NH-]C(=O)c1cc2ccc(CCNCCP(=O)([O-])O)cc2n1C(=O)C(=O)Cl (protonated)
[NH-]C(=O)c1cc2ccc(CCNCC[P@](=O)([O-])O)cc2n1C(=O)C(=O)Cl (chirality)
[NH-]C(=O)c1cc2ccc(CCNCC[P@](=O)([O-])O)cc2n1C(=O)C(=O)Cl (3D coordinates assigned)
[NH-]C(=O)c1cc2ccc(CCNCC[P@](=O)([O-])O)cc2n1C(=O)C(=O)Cl (optimized conformer: 74.12117958959357 kcal/mol)

>  <smiles>  (81) 
NC(=O)c1cc2ccc(CCNCCP(=O)(O)O)cc2n1C(=O)C(=O)Cl

>  <score_type>  (81) 
oracle

>  <origin>  (81) 
adg

>  <m_score__min__energy>  (81) 
-7.5

>  <m_primary>  (81) 
energy

$$$$
83:0
     RDKit          3D

 44 45  0  0  0  0  0  0  0  0999 V2000
  149.7340  151.1020  131.1240 C   0  0  0  0  0  0  0  0  0  0  0  0
  148.7040  151.8940  131.8190 N   0  0  0  0  0  0  0  0  0  0  0  0
  147.4470  151.1310  131.8640 C   0  0  0  0  0  0  0  0  0  0  0  0
  149.1370  152.2420  133.1910 C   0  0  0  0  0  0  0  0  0  0  0  0
  148.3690  153.4650  133.7110 C   0  0  0  0  0  0  0  0  0  0  0  0
  148.0450  154.3790  132.6140 N   0  0  0  0  0  0  0  0  0  0  0  0
  147.8240  155.7960  132.7680 C   0  0  0  0  0  0  0  0  0  0  0  0
  148.9190  156.6810  132.6080 C   0  0  0  0  0  0  0  0  0  0  0  0
  148.7560  158.0670  132.7570 C   0  0  0  0  0  0  0  0  0  0  0  0
  147.4850  158.5450  133.0600 C   0  0  0  0  0  0  0  0  0  0  0  0
  147.0560  159.8320  133.2860 C   0  0  0  0  0  0  0  0  0  0  0  0
  145.6940  159.7240  133.5600 C   0  0  0  0  0  0  0  0  0  0  0  0
  144.8010  160.8830  133.7800 C   0  0  0  0  0  0  0  0  0  0  0  0
  143.4360  160.8420  133.3620 N   0  0  0  0  0  0  0  0  0  0  0  0
  145.2310  161.9090  134.3700 O   0  0  0  0  0  0  0  0  0  0  0  0
  145.2980  158.4200  133.5070 N   0  0  0  0  0  0  0  0  0  0  0  0
  143.9960  157.8930  133.8090 C   0  0  0  0  0  0  0  0  0  0  0  0
  143.8410  157.1190  134.7920 O   0  0  0  0  0  0  0  0  0  0  0  0
  142.9010  158.2540  133.0190 O   0  0  0  0  0  0  0  0  0  0  0  0
  141.5540  158.0480  133.4270 C   0  0  0  0  0  0  0  0  0  0  0  0
  141.0230  159.3100  134.0210 C   0  0  0  0  0  0  0  0  0  0  0  0
  140.6350  159.3350  135.2180 O   0  0  0  0  0  0  0  0  0  0  0  0
  140.9810  160.4690  133.2570 O   0  0  0  0  0  0  0  0  0  0  0  0
  146.4070  157.7110  133.1990 C   0  0  0  0  0  0  0  0  0  0  0  0
  146.5440  156.3240  133.0720 C   0  0  0  0  0  0  0  0  0  0  0  0
  150.3781  150.6067  131.8655 H   0  0  0  0  0  0  0  0  0  0  0  0
  149.2489  150.3420  130.4938 H   0  0  0  0  0  0  0  0  0  0  0  0
  150.3439  151.7660  130.4938 H   0  0  0  0  0  0  0  0  0  0  0  0
  147.1608  150.9573  132.9118 H   0  0  0  0  0  0  0  0  0  0  0  0
  146.6541  151.7004  131.3569 H   0  0  0  0  0  0  0  0  0  0  0  0
  147.5862  150.1648  131.3569 H   0  0  0  0  0  0  0  0  0  0  0  0
  148.9473  151.3872  133.8568 H   0  0  0  0  0  0  0  0  0  0  0  0
  150.2104  152.4816  133.1719 H   0  0  0  0  0  0  0  0  0  0  0  0
  147.4366  153.1294  134.1884 H   0  0  0  0  0  0  0  0  0  0  0  0
  149.0011  153.9960  134.4380 H   0  0  0  0  0  0  0  0  0  0  0  0
  147.9200  153.9570  131.6660 H   0  0  0  0  0  0  0  0  0  0  0  0
  149.9119  156.2756  132.3633 H   0  0  0  0  0  0  0  0  0  0  0  0
  149.6067  158.7541  132.6379 H   0  0  0  0  0  0  0  0  0  0  0  0
  147.6596  160.7511  133.2567 H   0  0  0  0  0  0  0  0  0  0  0  0
  143.0580  160.0340  132.8210 H   0  0  0  0  0  0  0  0  0  0  0  0
  142.8030  161.6490  133.5590 H   0  0  0  0  0  0  0  0  0  0  0  0
  140.9445  157.7666  132.5556 H   0  0  0  0  0  0  0  0  0  0  0  0
  141.5133  157.2419  134.1744 H   0  0  0  0  0  0  0  0  0  0  0  0
  145.6782  155.6587  133.2051 H   0  0  0  0  0  0  0  0  0  0  0  0
  1  2  1  0
  2  3  1  0
  2  4  1  0
  4  5  1  0
  5  6  1  0
  6  7  1  0
  7  8  2  0
  8  9  1  0
  9 10  2  0
 10 11  1  0
 11 12  2  0
 12 13  1  0
 13 14  1  0
 13 15  2  0
 12 16  1  0
 16 17  1  0
 17 18  2  0
 17 19  1  0
 19 20  1  0
 20 21  1  0
 21 22  2  0
 21 23  1  0
 16 24  1  0
 24 25  2  0
 25  7  1  0
 24 10  1  0
  1 26  1  0
  1 27  1  0
  1 28  1  0
  3 29  1  0
  3 30  1  0
  3 31  1  0
  4 32  1  0
  4 33  1  0
  5 34  1  0
  5 35  1  0
  6 36  1  0
  8 37  1  0
  9 38  1  0
 11 39  1  0
 14 40  1  0
 14 41  1  0
 20 42  1  0
 20 43  1  0
 25 44  1  0
M  CHG  1  23  -1
M  END
>  <UniqueID>  (82) 
82

>  <SMILES>  (82) 
CN(C)CCNc1ccc2cc(C(N)=O)n(C(=O)OCC(=O)[O-])c2c1

>  <Energy>  (82) 
77.64861732412642

>  <Genealogy>  (82) 
CN(C)CCNc1ccc2cc(C(N)=O)n(C(=O)OCC(=O)[O-])c2c1 (protonated)
CN(C)CCNc1ccc2cc(C(N)=O)n(C(=O)OCC(=O)[O-])c2c1 (3D coordinates assigned)
CN(C)CCNc1ccc2cc(C(N)=O)n(C(=O)OCC(=O)[O-])c2c1 (optimized conformer: 77.64861732412642 kcal/mol)

>  <smiles>  (82) 
CN(C)CCNc1ccc2cc(C(N)=O)n(C(=O)OCC(=O)O)c2c1

>  <score_type>  (82) 
oracle

>  <origin>  (82) 
adg

>  <m_score__min__energy>  (82) 
-6.9699999999999998

>  <m_primary>  (82) 
energy

$$$$
84:0
     RDKit          3D

 39 40  0  0  0  0  0  0  0  0999 V2000
  143.3400  160.5980  133.3490 N   0  0  0  0  0  0  0  0  0  0  0  0
  144.6380  160.5930  133.9490 C   0  0  0  0  0  0  0  0  0  0  0  0
  144.9670  161.5540  134.6950 O   0  0  0  0  0  0  0  0  0  0  0  0
  145.5800  159.4730  133.7200 C   0  0  0  0  0  0  0  0  0  0  0  0
  146.9100  159.6270  133.3290 C   0  0  0  0  0  0  0  0  0  0  0  0
  147.3900  158.3490  133.1470 C   0  0  0  0  0  0  0  0  0  0  0  0
  148.6540  157.9100  132.7610 C   0  0  0  0  0  0  0  0  0  0  0  0
  148.8700  156.5240  132.6660 C   0  0  0  0  0  0  0  0  0  0  0  0
  147.8260  155.6090  132.9580 C   0  0  0  0  0  0  0  0  0  0  0  0
  148.0620  154.1290  132.8620 C   0  0  0  0  0  0  0  0  0  0  0  0
  146.8710  153.4840  132.5890 F   0  0  0  0  0  0  0  0  0  0  0  0
  148.9670  153.8660  131.8520 F   0  0  0  0  0  0  0  0  0  0  0  0
  146.5570  156.0930  133.3460 C   0  0  0  0  0  0  0  0  0  0  0  0
  146.3700  157.4770  133.4220 C   0  0  0  0  0  0  0  0  0  0  0  0
  145.2570  158.1500  133.7790 N   0  0  0  0  0  0  0  0  0  0  0  0
  144.0030  157.5610  134.1600 C   0  0  0  0  0  0  0  0  0  0  0  0
  143.9760  156.6950  135.0730 O   0  0  0  0  0  0  0  0  0  0  0  0
  142.7440  157.9940  133.5330 C   0  0  0  0  0  0  0  0  0  0  0  0
  142.5680  157.8250  132.2960 O   0  0  0  0  0  0  0  0  0  0  0  0
  141.7300  158.6120  134.3310 N   0  0  0  0  0  0  0  0  0  0  0  0
  140.3010  158.5150  134.0510 C   0  0  0  0  0  0  0  0  0  0  0  0
  139.8910  159.5280  132.9660 C   0  0  1  0  0  0  0  0  0  0  0  0
  140.9580  160.3870  132.6500 O   0  0  0  0  0  0  0  0  0  0  0  0
  139.3860  158.8240  131.6940 C   0  0  0  0  0  0  0  0  0  0  0  0
  140.2930  158.9860  130.6360 O   0  0  0  0  0  0  0  0  0  0  0  0
  143.0410  159.8520  132.6810 H   0  0  0  0  0  0  0  0  0  0  0  0
  142.6810  161.3850  133.5380 H   0  0  0  0  0  0  0  0  0  0  0  0
  147.4596  160.5703  133.1944 H   0  0  0  0  0  0  0  0  0  0  0  0
  149.4588  158.6257  132.5373 H   0  0  0  0  0  0  0  0  0  0  0  0
  149.8573  156.1457  132.3625 H   0  0  0  0  0  0  0  0  0  0  0  0
  148.4648  153.7657  133.8190 H   0  0  0  0  0  0  0  0  0  0  0  0
  145.7368  155.3992  133.5823 H   0  0  0  0  0  0  0  0  0  0  0  0
  140.0693  157.4979  133.7020 H   0  0  0  0  0  0  0  0  0  0  0  0
  139.7433  158.7375  134.9726 H   0  0  0  0  0  0  0  0  0  0  0  0
  139.0643  160.1259  133.3772 H   0  0  0  0  0  0  0  0  0  0  0  0
  141.6750  159.8360  132.2360 H   0  0  0  0  0  0  0  0  0  0  0  0
  139.2633  157.7507  131.9015 H   0  0  0  0  0  0  0  0  0  0  0  0
  138.4247  159.2727  131.4033 H   0  0  0  0  0  0  0  0  0  0  0  0
  141.2030  158.9640  131.0330 H   0  0  0  0  0  0  0  0  0  0  0  0
  1  2  1  0
  2  3  2  0
  2  4  1  0
  4  5  2  0
  5  6  1  0
  6  7  2  0
  7  8  1  0
  8  9  2  0
  9 10  1  0
 10 11  1  0
 10 12  1  0
  9 13  1  0
 13 14  2  0
 14 15  1  0
 15 16  1  0
 16 17  2  0
 16 18  1  0
 18 19  2  0
 18 20  1  0
 20 21  1  0
 21 22  1  0
 22 23  1  0
 22 24  1  0
 24 25  1  0
 15  4  1  0
 14  6  1  0
  1 26  1  0
  1 27  1  0
  5 28  1  0
  7 29  1  0
  8 30  1  0
 10 31  1  0
 13 32  1  0
 21 33  1  0
 21 34  1  0
 22 35  1  1
 23 36  1  0
 24 37  1  0
 24 38  1  0
 25 39  1  0
M  CHG  1  20  -1
M  END
>  <UniqueID>  (83) 
83

>  <SMILES>  (83) 
NC(=O)c1cc2ccc(C(F)F)cc2n1C(=O)C(=O)[N-]C[C@@H](O)CO

>  <Energy>  (83) 
73.91828522609275

>  <Genealogy>  (83) 
NC(=O)c1cc2ccc(C(F)F)cc2n1C(=O)C(=O)[N-]C[C@@H](O)CO (protonated)
NC(=O)c1cc2ccc(C(F)F)cc2n1C(=O)C(=O)[N-]C[C@@H](O)CO (3D coordinates assigned)
NC(=O)c1cc2ccc(C(F)F)cc2n1C(=O)C(=O)[N-]C[C@@H](O)CO (optimized conformer: 73.91828522609275 kcal/mol)

>  <smiles>  (83) 
NC(=O)c1cc2ccc(C(F)F)cc2n1C(=O)C(=O)NC[C@@H](O)CO

>  <score_type>  (83) 
oracle

>  <origin>  (83) 
adg

>  <m_score__min__energy>  (83) 
-5.6100000000000003

>  <m_primary>  (83) 
energy

$$$$
85:0
     RDKit          3D

 46 47  0  0  0  0  0  0  0  0999 V2000
  149.8820  153.7040  138.9460 C   0  0  0  0  0  0  0  0  0  0  0  0
  148.6820  153.0600  138.4060 N   0  0  0  0  0  0  0  0  0  0  0  0
  148.1430  151.8430  139.0160 C   0  0  0  0  0  0  0  0  0  0  0  0
  148.0270  153.6200  137.2550 C   0  0  0  0  0  0  0  0  0  0  0  0
  148.4800  154.6680  136.7180 O   0  0  0  0  0  0  0  0  0  0  0  0
  146.8840  153.0000  136.7340 O   0  0  0  0  0  0  0  0  0  0  0  0
  145.7630  153.7310  136.2460 C   0  0  0  0  0  0  0  0  0  0  0  0
  146.2070  154.9650  135.6940 O   0  0  0  0  0  0  0  0  0  0  0  0
  146.0820  155.2820  134.3390 C   0  0  0  0  0  0  0  0  0  0  0  0
  145.0780  154.8920  133.6820 O   0  0  0  0  0  0  0  0  0  0  0  0
  147.0900  156.0860  133.7040 N   0  0  0  0  0  0  0  0  0  0  0  0
  148.2490  155.6750  133.1150 C   0  0  0  0  0  0  0  0  0  0  0  0
  148.7920  154.3010  133.1240 C   0  0  0  0  0  0  0  0  0  0  0  0
  148.4150  153.3690  134.1360 N   0  0  0  0  0  0  0  0  0  0  0  0
  149.6390  153.9580  132.2560 O   0  0  0  0  0  0  0  0  0  0  0  0
  148.9290  156.7600  132.5650 C   0  0  0  0  0  0  0  0  0  0  0  0
  148.1510  157.8600  132.8460 C   0  0  0  0  0  0  0  0  0  0  0  0
  148.3520  159.2040  132.5420 C   0  0  0  0  0  0  0  0  0  0  0  0
  147.3730  160.1260  132.9490 C   0  0  0  0  0  0  0  0  0  0  0  0
  146.2110  159.6890  133.6330 C   0  0  0  0  0  0  0  0  0  0  0  0
  145.1690  160.6820  134.0800 C   0  0  0  0  0  0  0  0  0  0  0  0
  143.8180  160.4520  133.3830 C   0  0  0  0  0  0  0  0  0  0  0  0
  143.0820  159.2100  133.8930 C   0  0  0  0  0  0  0  0  0  0  0  0
  143.0470  158.2250  132.8980 O   0  0  0  0  0  0  0  0  0  0  0  0
  146.0420  158.3180  133.9230 C   0  0  0  0  0  0  0  0  0  0  0  0
  147.0450  157.4260  133.5310 C   0  0  0  0  0  0  0  0  0  0  0  0
  149.8455  153.6844  140.0452 H   0  0  0  0  0  0  0  0  0  0  0  0
  150.7755  153.1642  138.5991 H   0  0  0  0  0  0  0  0  0  0  0  0
  149.9260  154.7469  138.5991 H   0  0  0  0  0  0  0  0  0  0  0  0
  148.1830  151.9333  140.1116 H   0  0  0  0  0  0  0  0  0  0  0  0
  147.0993  151.7044  138.6974 H   0  0  0  0  0  0  0  0  0  0  0  0
  148.7417  150.9770  138.6974 H   0  0  0  0  0  0  0  0  0  0  0  0
  145.2523  153.1439  135.4685 H   0  0  0  0  0  0  0  0  0  0  0  0
  145.0651  153.9286  137.0730 H   0  0  0  0  0  0  0  0  0  0  0  0
  147.8010  153.6570  134.9300 H   0  0  0  0  0  0  0  0  0  0  0  0
  149.8851  156.7412  132.0214 H   0  0  0  0  0  0  0  0  0  0  0  0
  149.2503  159.5339  131.9995 H   0  0  0  0  0  0  0  0  0  0  0  0
  147.5095  161.1963  132.7350 H   0  0  0  0  0  0  0  0  0  0  0  0
  145.0291  160.5850  135.1667 H   0  0  0  0  0  0  0  0  0  0  0  0
  145.5223  161.6889  133.8127 H   0  0  0  0  0  0  0  0  0  0  0  0
  143.1808  161.3319  133.5557 H   0  0  0  0  0  0  0  0  0  0  0  0
  144.0234  160.2952  132.3138 H   0  0  0  0  0  0  0  0  0  0  0  0
  143.6049  158.8153  134.7766 H   0  0  0  0  0  0  0  0  0  0  0  0
  142.0514  159.4879  134.1589 H   0  0  0  0  0  0  0  0  0  0  0  0
  142.5100  158.6040  132.1550 H   0  0  0  0  0  0  0  0  0  0  0  0
  145.1425  157.9597  134.4451 H   0  0  0  0  0  0  0  0  0  0  0  0
  1  2  1  0
  2  3  1  0
  2  4  1  0
  4  5  2  0
  4  6  1  0
  6  7  1  0
  7  8  1  0
  8  9  1  0
  9 10  2  0
  9 11  1  0
 11 12  1  0
 12 13  1  0
 13 14  1  0
 13 15  2  0
 12 16  2  0
 16 17  1  0
 17 18  2  0
 18 19  1  0
 19 20  2  0
 20 21  1  0
 21 22  1  0
 22 23  1  0
 23 24  1  0
 20 25  1  0
 25 26  2  0
 26 11  1  0
 26 17  1  0
  1 27  1  0
  1 28  1  0
  1 29  1  0
  3 30  1  0
  3 31  1  0
  3 32  1  0
  7 33  1  0
  7 34  1  0
 14 35  1  0
 16 36  1  0
 18 37  1  0
 19 38  1  0
 21 39  1  0
 21 40  1  0
 22 41  1  0
 22 42  1  0
 23 43  1  0
 23 44  1  0
 24 45  1  0
 25 46  1  0
M  CHG  1  14  -1
M  END
>  <UniqueID>  (84) 
84

>  <SMILES>  (84) 
CN(C)C(=O)OCOC(=O)n1c(C([NH-])=O)cc2ccc(CCCO)cc21

>  <Energy>  (84) 
71.63208886806306

>  <Genealogy>  (84) 
CN(C)C(=O)OCOC(=O)n1c(C([NH-])=O)cc2ccc(CCCO)cc21 (protonated)
CN(C)C(=O)OCOC(=O)n1c(C([NH-])=O)cc2ccc(CCCO)cc21 (3D coordinates assigned)
CN(C)C(=O)OCOC(=O)n1c(C([NH-])=O)cc2ccc(CCCO)cc21 (optimized conformer: 71.63208886806306 kcal/mol)

>  <smiles>  (84) 
CN(C)C(=O)OCOC(=O)n1c(C(N)=O)cc2ccc(CCCO)cc21

>  <score_type>  (84) 
oracle

>  <origin>  (84) 
adg

>  <m_score__min__energy>  (84) 
-6.4199999999999999

>  <m_primary>  (84) 
energy

$$$$
86:0
     RDKit          3D

 37 38  0  0  0  0  0  0  0  0999 V2000
  149.2260  157.0190  132.6100 C   0  0  0  0  0  0  0  0  0  0  0  0
  148.4180  158.2380  132.7000 N   0  0  0  0  0  0  0  0  0  0  0  0
  149.0530  159.5510  132.5210 C   0  0  0  0  0  0  0  0  0  0  0  0
  149.2750  159.8430  131.0250 C   0  0  2  0  0  0  0  0  0  0  0  0
  150.6420  159.7590  130.7010 O   0  0  0  0  0  0  0  0  0  0  0  0
  148.7210  161.2200  130.6200 C   0  0  0  0  0  0  0  0  0  0  0  0
  149.7670  162.1180  130.3630 O   0  0  0  0  0  0  0  0  0  0  0  0
  147.0230  158.1450  133.0390 C   0  0  0  0  0  0  0  0  0  0  0  0
  146.3850  156.8800  133.1080 C   0  0  0  0  0  0  0  0  0  0  0  0
  145.0280  156.7780  133.4500 C   0  0  0  0  0  0  0  0  0  0  0  0
  144.3300  157.9550  133.7080 C   0  0  0  0  0  0  0  0  0  0  0  0
  143.0190  158.1400  134.0840 C   0  0  0  0  0  0  0  0  0  0  0  0
  142.8640  159.5200  134.2110 C   0  0  0  0  0  0  0  0  0  0  0  0
  141.5720  160.1660  134.5180 C   0  0  0  0  0  0  0  0  0  0  0  0
  140.9950  160.0720  135.8170 N   0  0  0  0  0  0  0  0  0  0  0  0
  140.9940  160.8540  133.6340 O   0  0  0  0  0  0  0  0  0  0  0  0
  144.0360  160.1610  133.9350 N   0  0  0  0  0  0  0  0  0  0  0  0
  144.3150  161.5650  134.0480 C   0  0  0  0  0  0  0  0  0  0  0  0
  143.6280  162.4050  133.4080 O   0  0  0  0  0  0  0  0  0  0  0  0
  145.3660  162.0100  134.8400 O   0  0  0  0  0  0  0  0  0  0  0  0
  144.9220  159.1880  133.6260 C   0  0  0  0  0  0  0  0  0  0  0  0
  146.2780  159.3170  133.3040 C   0  0  0  0  0  0  0  0  0  0  0  0
  149.4634  156.6609  133.6226 H   0  0  0  0  0  0  0  0  0  0  0  0
  148.6620  156.2443  132.0699 H   0  0  0  0  0  0  0  0  0  0  0  0
  150.1592  157.2367  132.0699 H   0  0  0  0  0  0  0  0  0  0  0  0
  148.4035  160.3287  132.9492 H   0  0  0  0  0  0  0  0  0  0  0  0
  150.0274  159.5476  133.0314 H   0  0  0  0  0  0  0  0  0  0  0  0
  148.7220  159.0786  130.4594 H   0  0  0  0  0  0  0  0  0  0  0  0
  151.0860  160.5690  131.0640 H   0  0  0  0  0  0  0  0  0  0  0  0
  148.1080  161.1103  129.7132 H   0  0  0  0  0  0  0  0  0  0  0  0
  148.1115  161.6136  131.4468 H   0  0  0  0  0  0  0  0  0  0  0  0
  150.5070  161.8860  130.9830 H   0  0  0  0  0  0  0  0  0  0  0  0
  146.9608  155.9683  132.8908 H   0  0  0  0  0  0  0  0  0  0  0  0
  144.5310  155.7987  133.5124 H   0  0  0  0  0  0  0  0  0  0  0  0
  142.2563  157.3647  134.2491 H   0  0  0  0  0  0  0  0  0  0  0  0
  139.9600  160.1110  135.9490 H   0  0  0  0  0  0  0  0  0  0  0  0
  146.7533  160.3079  133.2582 H   0  0  0  0  0  0  0  0  0  0  0  0
  1  2  1  0
  2  3  1  0
  3  4  1  0
  4  5  1  0
  4  6  1  0
  6  7  1  0
  2  8  1  0
  8  9  2  0
  9 10  1  0
 10 11  2  0
 11 12  1  0
 12 13  2  0
 13 14  1  0
 14 15  1  0
 14 16  2  0
 13 17  1  0
 17 18  1  0
 18 19  2  0
 18 20  1  0
 17 21  1  0
 21 22  2  0
 22  8  1  0
 21 11  1  0
  1 23  1  0
  1 24  1  0
  1 25  1  0
  3 26  1  0
  3 27  1  0
  4 28  1  6
  5 29  1  0
  6 30  1  0
  6 31  1  0
  7 32  1  0
  9 33  1  0
 10 34  1  0
 12 35  1  0
 15 36  1  0
 22 37  1  0
M  CHG  2  15  -1  20  -1
M  END
>  <UniqueID>  (85) 
85

>  <SMILES>  (85) 
CN(C[C@H](O)CO)c1ccc2cc(C([NH-])=O)n(C(=O)[O-])c2c1

>  <Energy>  (85) 
77.2758029640242

>  <Genealogy>  (85) 
CN(CC(O)CO)c1ccc2cc(C([NH-])=O)n(C(=O)[O-])c2c1 (protonated)
CN(C[C@H](O)CO)c1ccc2cc(C([NH-])=O)n(C(=O)[O-])c2c1 (chirality)
CN(C[C@H](O)CO)c1ccc2cc(C([NH-])=O)n(C(=O)[O-])c2c1 (3D coordinates assigned)
CN(C[C@H](O)CO)c1ccc2cc(C([NH-])=O)n(C(=O)[O-])c2c1 (optimized conformer: 77.2758029640242 kcal/mol)

>  <smiles>  (85) 
CN(CC(O)CO)c1ccc2cc(C(N)=O)n(C(=O)O)c2c1

>  <score_type>  (85) 
oracle

>  <origin>  (85) 
adg

>  <m_score__min__energy>  (85) 
-6.4699999999999998

>  <m_primary>  (85) 
energy

$$$$
87:0
     RDKit          3D

 38 39  0  0  0  0  0  0  0  0999 V2000
  150.9730  152.7070  132.0640 H   0  0  0  0  0  0  0  0  0  0  0  0
  150.6520  151.9020  132.5490 O   0  0  0  0  0  0  0  0  0  0  0  0
  149.2530  151.9710  132.5610 C   0  0  0  0  0  0  0  0  0  0  0  0
  148.8674  151.4058  133.4223 H   0  0  0  0  0  0  0  0  0  0  0  0
  148.8612  151.5401  131.6278 H   0  0  0  0  0  0  0  0  0  0  0  0
  148.8230  153.3690  132.6650 C   0  0  0  0  0  0  0  0  0  0  0  0
  148.4740  154.5210  132.7530 C   0  0  0  0  0  0  0  0  0  0  0  0
  148.0500  155.8930  132.8540 C   0  0  0  0  0  0  0  0  0  0  0  0
  148.9810  156.9340  132.6440 C   0  0  0  0  0  0  0  0  0  0  0  0
  150.0251  156.6922  132.3961 H   0  0  0  0  0  0  0  0  0  0  0  0
  148.5810  158.2770  132.7500 C   0  0  0  0  0  0  0  0  0  0  0  0
  149.2995  159.0961  132.5991 H   0  0  0  0  0  0  0  0  0  0  0  0
  147.2470  158.5390  133.0520 C   0  0  0  0  0  0  0  0  0  0  0  0
  146.6070  159.7410  133.2510 C   0  0  0  0  0  0  0  0  0  0  0  0
  147.0454  160.7481  133.1912 H   0  0  0  0  0  0  0  0  0  0  0  0
  145.2870  159.4110  133.5440 C   0  0  0  0  0  0  0  0  0  0  0  0
  144.2270  160.4210  133.7520 C   0  0  0  0  0  0  0  0  0  0  0  0
  144.5000  161.4890  134.3640 O   0  0  0  0  0  0  0  0  0  0  0  0
  142.9160  160.2400  133.2120 N   0  0  0  0  0  0  0  0  0  0  0  0
  142.6890  159.4180  132.6100 H   0  0  0  0  0  0  0  0  0  0  0  0
  142.1670  160.9400  133.4060 H   0  0  0  0  0  0  0  0  0  0  0  0
  145.1170  158.0580  133.5460 N   0  0  0  0  0  0  0  0  0  0  0  0
  143.9330  157.3330  133.9230 C   0  0  0  0  0  0  0  0  0  0  0  0
  143.9840  156.4680  134.8370 O   0  0  0  0  0  0  0  0  0  0  0  0
  142.7330  157.5700  133.2510 O   0  0  0  0  0  0  0  0  0  0  0  0
  141.5740  156.7620  133.4120 C   0  0  0  0  0  0  0  0  0  0  0  0
  141.5208  156.0263  132.5960 H   0  0  0  0  0  0  0  0  0  0  0  0
  141.6215  156.2304  134.3739 H   0  0  0  0  0  0  0  0  0  0  0  0
  140.3520  157.6460  133.3770 C   0  0  0  0  0  0  0  0  0  0  0  0
  140.5260  159.1190  133.4480 C   0  0  0  0  0  0  0  0  0  0  0  0
  140.6520  159.7090  134.5580 O   0  0  0  0  0  0  0  0  0  0  0  0
  140.5780  159.8690  132.2800 O   0  0  0  0  0  0  0  0  0  0  0  0
  139.1350  157.0760  133.3760 C   0  0  0  0  0  0  0  0  0  0  0  0
  139.0618  155.9790  133.3400 H   0  0  0  0  0  0  0  0  0  0  0  0
  137.9910  157.8100  133.4180 F   0  0  0  0  0  0  0  0  0  0  0  0
  146.3270  157.5370  133.2370 C   0  0  0  0  0  0  0  0  0  0  0  0
  146.7070  156.1910  133.1630 C   0  0  0  0  0  0  0  0  0  0  0  0
  145.9770  155.3876  133.3412 H   0  0  0  0  0  0  0  0  0  0  0  0
  1  2  1  0
  2  3  1  0
  3  4  1  0
  3  5  1  0
  3  6  1  0
  6  7  3  0
  7  8  1  0
  8  9  2  0
  9 10  1  0
  9 11  1  0
 11 12  1  0
 11 13  2  0
 13 14  1  0
 14 15  1  0
 14 16  2  0
 16 17  1  0
 17 18  2  0
 17 19  1  0
 19 20  1  0
 19 21  1  0
 16 22  1  0
 22 23  1  0
 23 24  2  0
 23 25  1  0
 25 26  1  0
 26 27  1  0
 26 28  1  0
 26 29  1  0
 29 30  1  0
 30 31  2  0
 30 32  1  0
 29 33  2  0
 33 34  1  0
 33 35  1  0
 22 36  1  0
 36 37  2  0
 37 38  1  0
 37  8  1  0
 36 13  1  0
M  CHG  1  32  -1
M  END
>  <UniqueID>  (86) 
86

>  <SMILES>  (86) 
NC(=O)c1cc2ccc(C#CCO)cc2n1C(=O)OC/C(=C/F)C(=O)[O-]

>  <Energy>  (86) 
70.79225761680443

>  <Genealogy>  (86) 
NC(=O)c1cc2ccc(C#CCO)cc2n1C(=O)OC/C(=C/F)C(=O)[O-] (protonated)
NC(=O)c1cc2ccc(C#CCO)cc2n1C(=O)OC/C(=C/F)C(=O)[O-] (cis-trans isomerization)
NC(=O)c1cc2ccc(C#CCO)cc2n1C(=O)OC/C(=C/F)C(=O)[O-] (3D coordinates assigned)
NC(=O)c1cc2ccc(C#CCO)cc2n1C(=O)OC/C(=C/F)C(=O)[O-] (optimized conformer: 70.79225761680443 kcal/mol)

>  <smiles>  (86) 
NC(=O)c1cc2ccc(C#CCO)cc2n1C(=O)OC/C(=C/F)C(=O)O

>  <score_type>  (86) 
oracle

>  <origin>  (86) 
adg

>  <m_score__min__energy>  (86) 
-7.1500000000000004

>  <m_primary>  (86) 
energy

$$$$
88:0
     RDKit          3D

 52 54  0  0  0  0  0  0  0  0999 V2000
  139.2310  156.2060  133.0340 C   0  0  0  0  0  0  0  0  0  0  0  0
  138.9470  157.6500  133.0860 N   0  0  0  0  0  0  0  0  0  0  0  0
  139.7200  158.4030  132.0630 C   0  0  0  0  0  0  0  0  0  0  0  0
  140.9140  159.1890  132.6350 C   0  0  0  0  0  0  0  0  0  0  0  0
  141.4700  158.4950  133.8010 N   0  0  0  0  0  0  0  0  0  0  0  0
  142.8650  158.1400  133.8680 C   0  0  0  0  0  0  0  0  0  0  0  0
  143.8680  159.1240  133.6690 C   0  0  0  0  0  0  0  0  0  0  0  0
  145.2300  158.7860  133.7240 C   0  0  0  0  0  0  0  0  0  0  0  0
  145.5620  157.4570  133.9640 C   0  0  0  0  0  0  0  0  0  0  0  0
  146.7960  156.8570  134.0870 C   0  0  0  0  0  0  0  0  0  0  0  0
  146.5300  155.5100  134.3300 C   0  0  0  0  0  0  0  0  0  0  0  0
  147.5780  154.4780  134.4800 C   0  0  0  0  0  0  0  0  0  0  0  0
  147.5990  153.6520  135.6400 N   0  0  0  0  0  0  0  0  0  0  0  0
  148.4670  154.3300  133.6000 O   0  0  0  0  0  0  0  0  0  0  0  0
  145.1860  155.2880  134.3530 N   0  0  0  0  0  0  0  0  0  0  0  0
  144.5060  154.0500  134.6140 C   0  0  0  0  0  0  0  0  0  0  0  0
  144.3280  153.2290  133.6740 O   0  0  0  0  0  0  0  0  0  0  0  0
  144.0080  153.7380  135.9670 C   0  0  0  0  0  0  0  0  0  0  0  0
  144.7820  153.8620  136.9540 O   0  0  0  0  0  0  0  0  0  0  0  0
  142.6510  153.3100  136.1660 N   0  0  0  0  0  0  0  0  0  0  0  0
  142.0880  153.0890  137.5050 C   0  0  1  0  0  0  0  0  0  0  0  0
  141.3390  154.3500  137.9790 C   0  0  0  0  0  0  0  0  0  0  0  0
  141.3800  155.4570  136.9680 C   0  0  0  0  0  0  0  0  0  0  0  0
  141.7500  156.6120  137.3090 O   0  0  0  0  0  0  0  0  0  0  0  0
  141.0380  155.2070  135.6450 O   0  0  0  0  0  0  0  0  0  0  0  0
  141.2100  151.8610  137.5250 C   0  0  0  0  0  0  0  0  0  0  0  0
  140.6180  151.5150  138.5820 O   0  0  0  0  0  0  0  0  0  0  0  0
  140.9630  151.1580  136.3510 O   0  0  0  0  0  0  0  0  0  0  0  0
  144.6080  156.4880  134.1320 C   0  0  0  0  0  0  0  0  0  0  0  0
  143.2460  156.7990  134.1030 C   0  0  0  0  0  0  0  0  0  0  0  0
  140.5700  158.1680  134.9130 C   0  0  0  0  0  0  0  0  0  0  0  0
  139.1030  158.1920  134.4530 C   0  0  0  0  0  0  0  0  0  0  0  0
  139.3088  155.8105  134.0575 H   0  0  0  0  0  0  0  0  0  0  0  0
  138.4169  155.6911  132.5028 H   0  0  0  0  0  0  0  0  0  0  0  0
  140.1794  156.0377  132.5028 H   0  0  0  0  0  0  0  0  0  0  0  0
  140.1011  157.6865  131.3205 H   0  0  0  0  0  0  0  0  0  0  0  0
  139.0330  159.1416  131.6243 H   0  0  0  0  0  0  0  0  0  0  0  0
  141.6917  159.2803  131.8624 H   0  0  0  0  0  0  0  0  0  0  0  0
  140.5698  160.1871  132.9438 H   0  0  0  0  0  0  0  0  0  0  0  0
  143.5748  160.1652  133.4691 H   0  0  0  0  0  0  0  0  0  0  0  0
  146.0098  159.5486  133.5817 H   0  0  0  0  0  0  0  0  0  0  0  0
  147.7820  157.3384  134.0099 H   0  0  0  0  0  0  0  0  0  0  0  0
  146.7130  153.3730  136.1180 H   0  0  0  0  0  0  0  0  0  0  0  0
  142.0100  153.2760  135.3410 H   0  0  0  0  0  0  0  0  0  0  0  0
  142.9087  152.9030  138.2134 H   0  0  0  0  0  0  0  0  0  0  0  0
  140.2885  154.0854  138.1698 H   0  0  0  0  0  0  0  0  0  0  0  0
  141.8373  154.7116  138.8906 H   0  0  0  0  0  0  0  0  0  0  0  0
  142.4874  156.0180  134.2595 H   0  0  0  0  0  0  0  0  0  0  0  0
  140.8132  157.1639  135.2905 H   0  0  0  0  0  0  0  0  0  0  0  0
  140.7031  158.9179  135.7066 H   0  0  0  0  0  0  0  0  0  0  0  0
  138.5023  157.5858  135.1470 H   0  0  0  0  0  0  0  0  0  0  0  0
  138.7638  159.2384  134.4466 H   0  0  0  0  0  0  0  0  0  0  0  0
  1  2  1  0
  2  3  1  0
  3  4  1  0
  4  5  1  0
  5  6  1  0
  6  7  2  0
  7  8  1  0
  8  9  2  0
  9 10  1  0
 10 11  2  0
 11 12  1  0
 12 13  1  0
 12 14  2  0
 11 15  1  0
 15 16  1  0
 16 17  2  0
 16 18  1  0
 18 19  2  0
 18 20  1  0
 20 21  1  0
 21 22  1  0
 22 23  1  0
 23 24  2  0
 23 25  1  0
 21 26  1  0
 26 27  2  0
 26 28  1  0
 15 29  1  0
 29 30  2  0
  5 31  1  0
 31 32  1  0
 32  2  1  0
 30  6  1  0
 29  9  1  0
  1 33  1  0
  1 34  1  0
  1 35  1  0
  3 36  1  0
  3 37  1  0
  4 38  1  0
  4 39  1  0
  7 40  1  0
  8 41  1  0
 10 42  1  0
 13 43  1  0
 20 44  1  0
 21 45  1  1
 22 46  1  0
 22 47  1  0
 30 48  1  0
 31 49  1  0
 31 50  1  0
 32 51  1  0
 32 52  1  0
M  CHG  3  13  -1  25  -1  28  -1
M  END
>  <UniqueID>  (87) 
87

>  <SMILES>  (87) 
CN1CCN(c2ccc3cc(C([NH-])=O)n(C(=O)C(=O)N[C@@H](CC(=O)[O-])C(=O)[O-])c3c2)CC1

>  <Energy>  (87) 
100.92358886006315

>  <Genealogy>  (87) 
CN1CCN(c2ccc3cc(C([NH-])=O)n(C(=O)C(=O)NC(CC(=O)[O-])C(=O)[O-])c3c2)CC1 (protonated)
CN1CCN(c2ccc3cc(C([NH-])=O)n(C(=O)C(=O)N[C@@H](CC(=O)[O-])C(=O)[O-])c3c2)CC1 (chirality)
CN1CCN(c2ccc3cc(C([NH-])=O)n(C(=O)C(=O)N[C@@H](CC(=O)[O-])C(=O)[O-])c3c2)CC1 (3D coordinates assigned)
CN1CCN(c2ccc3cc(C([NH-])=O)n(C(=O)C(=O)N[C@@H](CC(=O)[O-])C(=O)[O-])c3c2)CC1 (nonaromatic ring conformer: 100.92358886006315 kcal/mol)

>  <smiles>  (87) 
CN1CCN(c2ccc3cc(C(N)=O)n(C(=O)C(=O)NC(CC(=O)O)C(=O)O)c3c2)CC1

>  <score_type>  (87) 
oracle

>  <origin>  (87) 
adg

>  <m_score__min__energy>  (87) 
-7.9100000000000001

>  <m_primary>  (87) 
energy

$$$$
89:0
     RDKit          3D

 52 53  0  0  0  0  0  0  0  0999 V2000
  149.6430  151.8040  131.6880 C   0  0  0  0  0  0  0  0  0  0  0  0
  149.3660  153.0990  132.2070 O   0  0  0  0  0  0  0  0  0  0  0  0
  148.6160  153.3010  133.3720 C   0  0  0  0  0  0  0  0  0  0  0  0
  148.8410  152.5970  134.3950 O   0  0  0  0  0  0  0  0  0  0  0  0
  147.5580  154.3950  133.4000 C   0  0  0  0  0  0  0  0  0  0  0  0
  146.1750  153.7050  133.3680 C   0  0  0  0  0  0  0  0  0  0  0  0
  147.7120  155.1720  134.7280 C   0  0  0  0  0  0  0  0  0  0  0  0
  147.7370  155.2990  132.2260 N   0  0  0  0  0  0  0  0  0  0  0  0
  147.6310  156.7110  132.5330 C   0  0  0  0  0  0  0  0  0  0  0  0
  148.7700  157.5550  132.4390 C   0  0  0  0  0  0  0  0  0  0  0  0
  148.6770  158.9250  132.7350 C   0  0  0  0  0  0  0  0  0  0  0  0
  147.4360  159.4300  133.1060 C   0  0  0  0  0  0  0  0  0  0  0  0
  147.0710  160.7060  133.4700 C   0  0  0  0  0  0  0  0  0  0  0  0
  145.7080  160.6360  133.7480 C   0  0  0  0  0  0  0  0  0  0  0  0
  144.8870  161.8130  134.1040 C   0  0  0  0  0  0  0  0  0  0  0  0
  143.5250  161.8780  133.6900 N   0  0  0  0  0  0  0  0  0  0  0  0
  145.3660  162.7480  134.7990 O   0  0  0  0  0  0  0  0  0  0  0  0
  145.2490  159.3640  133.5700 N   0  0  0  0  0  0  0  0  0  0  0  0
  143.9300  158.8550  133.8200 C   0  0  0  0  0  0  0  0  0  0  0  0
  143.2550  159.3110  134.7830 O   0  0  0  0  0  0  0  0  0  0  0  0
  143.4250  157.8300  133.0080 O   0  0  0  0  0  0  0  0  0  0  0  0
  143.0180  156.5230  133.4390 C   0  0  0  0  0  0  0  0  0  0  0  0
  143.6260  155.4380  132.5300 C   0  0  0  0  0  0  0  0  0  0  0  0
  141.4810  156.4170  133.4640 C   0  0  0  0  0  0  0  0  0  0  0  0
  143.5510  156.3310  134.8670 C   0  0  0  0  0  0  0  0  0  0  0  0
  146.3180  158.6400  133.1720 C   0  0  0  0  0  0  0  0  0  0  0  0
  146.3830  157.2700  132.8970 C   0  0  0  0  0  0  0  0  0  0  0  0
  149.7936  151.1001  132.5198 H   0  0  0  0  0  0  0  0  0  0  0  0
  148.7966  151.4673  131.0714 H   0  0  0  0  0  0  0  0  0  0  0  0
  150.5531  151.8431  131.0714 H   0  0  0  0  0  0  0  0  0  0  0  0
  145.8278  153.5318  134.3973 H   0  0  0  0  0  0  0  0  0  0  0  0
  145.4556  154.3498  132.8420 H   0  0  0  0  0  0  0  0  0  0  0  0
  146.2575  152.7425  132.8420 H   0  0  0  0  0  0  0  0  0  0  0  0
  147.5754  154.4826  135.5742 H   0  0  0  0  0  0  0  0  0  0  0  0
  148.7161  155.6185  134.7773 H   0  0  0  0  0  0  0  0  0  0  0  0
  146.9541  155.9677  134.7773 H   0  0  0  0  0  0  0  0  0  0  0  0
  148.6740  155.1220  131.7900 H   0  0  0  0  0  0  0  0  0  0  0  0
  147.0250  155.0680  131.4930 H   0  0  0  0  0  0  0  0  0  0  0  0
  149.7367  157.1303  132.1306 H   0  0  0  0  0  0  0  0  0  0  0  0
  149.5597  159.5787  132.6750 H   0  0  0  0  0  0  0  0  0  0  0  0
  147.7185  161.5933  133.5289 H   0  0  0  0  0  0  0  0  0  0  0  0
  142.9840  161.0090  133.4820 H   0  0  0  0  0  0  0  0  0  0  0  0
  144.0699  154.6459  133.1509 H   0  0  0  0  0  0  0  0  0  0  0  0
  142.8376  155.0076  131.8950 H   0  0  0  0  0  0  0  0  0  0  0  0
  144.4047  155.8857  131.8950 H   0  0  0  0  0  0  0  0  0  0  0  0
  141.1320  156.3929  134.5069 H   0  0  0  0  0  0  0  0  0  0  0  0
  141.0451  157.2872  132.9515 H   0  0  0  0  0  0  0  0  0  0  0  0
  141.1686  155.4952  132.9515 H   0  0  0  0  0  0  0  0  0  0  0  0
  142.7713  156.6119  135.5903 H   0  0  0  0  0  0  0  0  0  0  0  0
  143.8273  155.2768  135.0166 H   0  0  0  0  0  0  0  0  0  0  0  0
  144.4361  156.9668  135.0166 H   0  0  0  0  0  0  0  0  0  0  0  0
  145.4832  156.6406  132.9623 H   0  0  0  0  0  0  0  0  0  0  0  0
  1  2  1  0
  2  3  1  0
  3  4  2  0
  3  5  1  0
  5  6  1  0
  5  7  1  0
  5  8  1  0
  8  9  1  0
  9 10  2  0
 10 11  1  0
 11 12  2  0
 12 13  1  0
 13 14  2  0
 14 15  1  0
 15 16  1  0
 15 17  2  0
 14 18  1  0
 18 19  1  0
 19 20  2  0
 19 21  1  0
 21 22  1  0
 22 23  1  0
 22 24  1  0
 22 25  1  0
 18 26  1  0
 26 27  2  0
 27  9  1  0
 26 12  1  0
  1 28  1  0
  1 29  1  0
  1 30  1  0
  6 31  1  0
  6 32  1  0
  6 33  1  0
  7 34  1  0
  7 35  1  0
  7 36  1  0
  8 37  1  0
  8 38  1  0
 10 39  1  0
 11 40  1  0
 13 41  1  0
 16 42  1  0
 23 43  1  0
 23 44  1  0
 23 45  1  0
 24 46  1  0
 24 47  1  0
 24 48  1  0
 25 49  1  0
 25 50  1  0
 25 51  1  0
 27 52  1  0
M  CHG  2   8   1  16  -1
M  END
>  <UniqueID>  (88) 
88

>  <SMILES>  (88) 
COC(=O)C(C)(C)[NH2+]c1ccc2cc(C([NH-])=O)n(C(=O)OC(C)(C)C)c2c1

>  <Energy>  (88) 
86.06249005113463

>  <Genealogy>  (88) 
COC(=O)C(C)(C)[NH2+]c1ccc2cc(C([NH-])=O)n(C(=O)OC(C)(C)C)c2c1 (protonated)
COC(=O)C(C)(C)[NH2+]c1ccc2cc(C([NH-])=O)n(C(=O)OC(C)(C)C)c2c1 (3D coordinates assigned)
COC(=O)C(C)(C)[NH2+]c1ccc2cc(C([NH-])=O)n(C(=O)OC(C)(C)C)c2c1 (optimized conformer: 86.06249005113463 kcal/mol)

>  <smiles>  (88) 
COC(=O)C(C)(C)Nc1ccc2cc(C(N)=O)n(C(=O)OC(C)(C)C)c2c1

>  <score_type>  (88) 
oracle

>  <origin>  (88) 
adg

>  <m_score__min__energy>  (88) 
-7.2000000000000002

>  <m_primary>  (88) 
energy

$$$$
90:0
     RDKit          3D

 47 48  0  0  0  0  0  0  0  0999 V2000
  139.7760  158.6740  131.9890 C   0  0  0  0  0  0  0  0  0  0  0  0
  140.0390  159.0270  133.3860 N   0  0  0  0  0  0  0  0  0  0  0  0
  140.9720  160.1220  133.6830 C   0  0  0  0  0  0  0  0  0  0  0  0
  142.3390  159.8680  133.0410 C   0  0  0  0  0  0  0  0  0  0  0  0
  143.3700  159.6150  134.1000 C   0  0  0  0  0  0  0  0  0  0  0  0
  143.0070  159.2420  135.2480 O   0  0  0  0  0  0  0  0  0  0  0  0
  144.7680  159.7110  133.7940 N   0  0  0  0  0  0  0  0  0  0  0  0
  145.5440  160.8290  133.7580 C   0  0  0  0  0  0  0  0  0  0  0  0
  145.0990  162.1940  134.1000 C   0  0  0  0  0  0  0  0  0  0  0  0
  145.9260  163.0310  134.9060 N   0  0  0  0  0  0  0  0  0  0  0  0
  143.9830  162.6220  133.7100 O   0  0  0  0  0  0  0  0  0  0  0  0
  146.8570  160.4950  133.4200 C   0  0  0  0  0  0  0  0  0  0  0  0
  146.8570  159.1280  133.2560 C   0  0  0  0  0  0  0  0  0  0  0  0
  147.8930  158.2610  132.9190 C   0  0  0  0  0  0  0  0  0  0  0  0
  147.5960  156.8930  132.8070 C   0  0  0  0  0  0  0  0  0  0  0  0
  146.2790  156.4130  133.0370 C   0  0  0  0  0  0  0  0  0  0  0  0
  145.9890  154.9420  132.8720 C   0  0  0  0  0  0  0  0  0  0  0  0
  147.1700  154.2660  132.6290 F   0  0  0  0  0  0  0  0  0  0  0  0
  145.1180  154.7140  131.8200 F   0  0  0  0  0  0  0  0  0  0  0  0
  145.4130  154.4430  134.0300 F   0  0  0  0  0  0  0  0  0  0  0  0
  145.2510  157.3280  133.3700 C   0  0  0  0  0  0  0  0  0  0  0  0
  145.5820  158.6810  133.4870 C   0  0  0  0  0  0  0  0  0  0  0  0
  139.6160  158.1290  134.4280 C   0  0  0  0  0  0  0  0  0  0  0  0
  138.3790  157.9490  134.6150 O   0  0  0  0  0  0  0  0  0  0  0  0
  140.5710  157.4630  135.2860 N   0  0  0  0  0  0  0  0  0  0  0  0
  141.5490  156.5470  134.6840 C   0  0  0  0  0  0  0  0  0  0  0  0
  140.4080  157.4680  136.7490 C   0  0  0  0  0  0  0  0  0  0  0  0
  140.9680  158.7200  137.3560 C   0  0  0  0  0  0  0  0  0  0  0  0
  141.7160  158.6430  138.3660 O   0  0  0  0  0  0  0  0  0  0  0  0
  140.6320  159.9680  136.8430 O   0  0  0  0  0  0  0  0  0  0  0  0
  139.1192  157.7924  131.9510 H   0  0  0  0  0  0  0  0  0  0  0  0
  139.2854  159.5188  131.4834 H   0  0  0  0  0  0  0  0  0  0  0  0
  140.7259  158.4456  131.4834 H   0  0  0  0  0  0  0  0  0  0  0  0
  140.5592  161.0628  133.2899 H   0  0  0  0  0  0  0  0  0  0  0  0
  141.1032  160.1844  134.7734 H   0  0  0  0  0  0  0  0  0  0  0  0
  142.2730  158.9903  132.3812 H   0  0  0  0  0  0  0  0  0  0  0  0
  142.6323  160.7543  132.4592 H   0  0  0  0  0  0  0  0  0  0  0  0
  146.9630  163.0150  134.8020 H   0  0  0  0  0  0  0  0  0  0  0  0
  147.7109  161.1794  133.3084 H   0  0  0  0  0  0  0  0  0  0  0  0
  148.9125  158.6359  132.7459 H   0  0  0  0  0  0  0  0  0  0  0  0
  148.3931  156.1844  132.5378 H   0  0  0  0  0  0  0  0  0  0  0  0
  144.2191  156.9832  133.5323 H   0  0  0  0  0  0  0  0  0  0  0  0
  142.1033  156.0278  135.4798 H   0  0  0  0  0  0  0  0  0  0  0  0
  141.0240  155.8081  134.0607 H   0  0  0  0  0  0  0  0  0  0  0  0
  142.2520  157.1191  134.0607 H   0  0  0  0  0  0  0  0  0  0  0  0
  139.3369  157.4010  136.9903 H   0  0  0  0  0  0  0  0  0  0  0  0
  140.9549  156.6075  137.1620 H   0  0  0  0  0  0  0  0  0  0  0  0
  1  2  1  0
  2  3  1  0
  3  4  1  0
  4  5  1  0
  5  6  2  0
  5  7  1  0
  7  8  1  0
  8  9  1  0
  9 10  1  0
  9 11  2  0
  8 12  2  0
 12 13  1  0
 13 14  2  0
 14 15  1  0
 15 16  2  0
 16 17  1  0
 17 18  1  0
 17 19  1  0
 17 20  1  0
 16 21  1  0
 21 22  2  0
  2 23  1  0
 23 24  2  0
 23 25  1  0
 25 26  1  0
 25 27  1  0
 27 28  1  0
 28 29  2  0
 28 30  1  0
 22  7  1  0
 22 13  1  0
  1 31  1  0
  1 32  1  0
  1 33  1  0
  3 34  1  0
  3 35  1  0
  4 36  1  0
  4 37  1  0
 10 38  1  0
 12 39  1  0
 14 40  1  0
 15 41  1  0
 21 42  1  0
 26 43  1  0
 26 44  1  0
 26 45  1  0
 27 46  1  0
 27 47  1  0
M  CHG  2  10  -1  30  -1
M  END
>  <UniqueID>  (89) 
89

>  <SMILES>  (89) 
CN(CCC(=O)n1c(C([NH-])=O)cc2ccc(C(F)(F)F)cc21)C(=O)N(C)CC(=O)[O-]

>  <Energy>  (89) 
84.40140502496818

>  <Genealogy>  (89) 
CN(CCC(=O)n1c(C([NH-])=O)cc2ccc(C(F)(F)F)cc21)C(=O)N(C)CC(=O)[O-] (protonated)
CN(CCC(=O)n1c(C([NH-])=O)cc2ccc(C(F)(F)F)cc21)C(=O)N(C)CC(=O)[O-] (3D coordinates assigned)
CN(CCC(=O)n1c(C([NH-])=O)cc2ccc(C(F)(F)F)cc21)C(=O)N(C)CC(=O)[O-] (optimized conformer: 84.40140502496818 kcal/mol)

>  <smiles>  (89) 
CN(CCC(=O)n1c(C(N)=O)cc2ccc(C(F)(F)F)cc21)C(=O)N(C)CC(=O)O

>  <score_type>  (89) 
oracle

>  <origin>  (89) 
adg

>  <m_score__min__energy>  (89) 
-7.0099999999999998

>  <m_primary>  (89) 
energy

$$$$
91:0
     RDKit          3D

 36 38  0  0  0  0  0  0  0  0999 V2000
  147.9400  153.4400  132.5430 N   0  0  0  0  0  0  0  0  0  0  0  0
  148.7140  154.6350  132.5610 C   0  0  0  0  0  0  0  0  0  0  0  0
  149.9580  154.5640  132.3770 O   0  0  0  0  0  0  0  0  0  0  0  0
  148.0860  155.9540  132.7980 C   0  0  0  0  0  0  0  0  0  0  0  0
  148.7810  157.1610  132.7360 C   0  0  0  0  0  0  0  0  0  0  0  0
  147.8480  158.1350  133.0150 C   0  0  0  0  0  0  0  0  0  0  0  0
  147.9820  159.5190  133.0570 C   0  0  0  0  0  0  0  0  0  0  0  0
  146.8370  160.2830  133.3370 C   0  0  0  0  0  0  0  0  0  0  0  0
  145.5870  159.6560  133.5790 C   0  0  0  0  0  0  0  0  0  0  0  0
  144.3530  160.4890  133.8200 C   0  0  0  0  0  0  0  0  0  0  0  0
  143.9550  160.3990  135.1420 F   0  0  0  0  0  0  0  0  0  0  0  0
  143.3080  160.0560  133.0230 F   0  0  0  0  0  0  0  0  0  0  0  0
  144.6290  161.8100  133.5210 F   0  0  0  0  0  0  0  0  0  0  0  0
  145.4890  158.2480  133.5000 C   0  0  0  0  0  0  0  0  0  0  0  0
  146.6480  157.5140  133.2350 C   0  0  0  0  0  0  0  0  0  0  0  0
  146.7780  156.1750  133.1150 N   0  0  0  0  0  0  0  0  0  0  0  0
  145.7270  155.2050  133.2390 C   0  0  0  0  0  0  0  0  0  0  0  0
  144.8480  155.1370  132.3370 O   0  0  0  0  0  0  0  0  0  0  0  0
  145.7000  154.2240  134.3980 C   0  0  2  0  0  0  0  0  0  0  0  0
  145.6020  152.9160  133.8780 O   0  0  0  0  0  0  0  0  0  0  0  0
  144.4730  154.5350  135.2890 C   0  0  0  0  0  0  0  0  0  0  0  0
  144.5060  153.7640  136.5290 N   0  0  0  0  0  0  0  0  0  0  0  0
  145.7450  153.3770  137.1220 C   0  0  0  0  0  0  0  0  0  0  0  0
  145.7550  152.7970  138.2380 O   0  0  0  0  0  0  0  0  0  0  0  0
  146.9390  153.5760  136.4280 O   0  0  0  0  0  0  0  0  0  0  0  0
  146.9930  154.3710  135.2420 C   0  0  0  0  0  0  0  0  0  0  0  0
  146.9440  153.4470  132.2340 H   0  0  0  0  0  0  0  0  0  0  0  0
  149.8483  157.3049  132.5118 H   0  0  0  0  0  0  0  0  0  0  0  0
  148.9545  160.0002  132.8765 H   0  0  0  0  0  0  0  0  0  0  0  0
  146.9101  161.3801  133.3691 H   0  0  0  0  0  0  0  0  0  0  0  0
  144.5229  157.7421  133.6438 H   0  0  0  0  0  0  0  0  0  0  0  0
  146.5080  152.5130  133.8520 H   0  0  0  0  0  0  0  0  0  0  0  0
  144.4713  155.6073  135.5342 H   0  0  0  0  0  0  0  0  0  0  0  0
  143.5637  154.2601  134.7344 H   0  0  0  0  0  0  0  0  0  0  0  0
  147.1167  155.4267  135.5250 H   0  0  0  0  0  0  0  0  0  0  0  0
  147.8423  154.0257  134.6342 H   0  0  0  0  0  0  0  0  0  0  0  0
  1  2  1  0
  2  3  2  0
  2  4  1  0
  4  5  2  0
  5  6  1  0
  6  7  2  0
  7  8  1  0
  8  9  2  0
  9 10  1  0
 10 11  1  0
 10 12  1  0
 10 13  1  0
  9 14  1  0
 14 15  2  0
 15 16  1  0
 16 17  1  0
 17 18  2  0
 17 19  1  0
 19 20  1  6
 19 21  1  0
 21 22  1  0
 22 23  1  0
 23 24  2  0
 23 25  1  0
 25 26  1  0
 16  4  1  0
 26 19  1  0
 15  6  1  0
  1 27  1  0
  5 28  1  0
  7 29  1  0
  8 30  1  0
 14 31  1  0
 20 32  1  0
 21 33  1  0
 21 34  1  0
 26 35  1  0
 26 36  1  0
M  CHG  2   1  -1  22  -1
M  END
>  <UniqueID>  (90) 
90

>  <SMILES>  (90) 
[NH-]C(=O)c1cc2ccc(C(F)(F)F)cc2n1C(=O)[C@]1(O)C[N-]C(=O)OC1

>  <Energy>  (90) 
80.3520369005154

>  <Genealogy>  (90) 
[NH-]C(=O)c1cc2ccc(C(F)(F)F)cc2n1C(=O)C1(O)C[N-]C(=O)OC1 (protonated)
[NH-]C(=O)c1cc2ccc(C(F)(F)F)cc2n1C(=O)[C@]1(O)C[N-]C(=O)OC1 (chirality)
[NH-]C(=O)c1cc2ccc(C(F)(F)F)cc2n1C(=O)[C@]1(O)C[N-]C(=O)OC1 (3D coordinates assigned)
[NH-]C(=O)c1cc2ccc(C(F)(F)F)cc2n1C(=O)[C@]1(O)C[N-]C(=O)OC1 (nonaromatic ring conformer: 80.3520369005154 kcal/mol)

>  <smiles>  (90) 
NC(=O)c1cc2ccc(C(F)(F)F)cc2n1C(=O)C1(O)CNC(=O)OC1

>  <score_type>  (90) 
oracle

>  <origin>  (90) 
adg

>  <m_score__min__energy>  (90) 
-6.6600000000000001

>  <m_primary>  (90) 
energy

$$$$
92:0
     RDKit          3D

 37 38  0  0  0  0  0  0  0  0999 V2000
  147.5650  153.3480  134.7570 N   0  0  0  0  0  0  0  0  0  0  0  0
  146.5980  154.3540  134.4690 C   0  0  0  0  0  0  0  0  0  0  0  0
  145.3930  154.1570  134.7770 O   0  0  0  0  0  0  0  0  0  0  0  0
  146.9960  155.6390  133.8550 C   0  0  0  0  0  0  0  0  0  0  0  0
  146.3410  156.8460  134.1020 C   0  0  0  0  0  0  0  0  0  0  0  0
  147.0520  157.7970  133.4070 C   0  0  0  0  0  0  0  0  0  0  0  0
  146.8370  159.1670  133.2850 C   0  0  0  0  0  0  0  0  0  0  0  0
  147.7150  159.9010  132.4700 C   0  0  0  0  0  0  0  0  0  0  0  0
  148.7800  159.2580  131.7900 C   0  0  0  0  0  0  0  0  0  0  0  0
  149.6960  160.0580  130.9100 C   0  0  0  0  0  0  0  0  0  0  0  0
  149.4940  159.7060  129.5880 F   0  0  0  0  0  0  0  0  0  0  0  0
  149.4370  161.4070  131.0680 F   0  0  0  0  0  0  0  0  0  0  0  0
  148.9630  157.8640  131.9340 C   0  0  0  0  0  0  0  0  0  0  0  0
  148.0870  157.1630  132.7700 C   0  0  0  0  0  0  0  0  0  0  0  0
  148.0660  155.8380  133.0360 N   0  0  0  0  0  0  0  0  0  0  0  0
  148.9550  154.8530  132.4910 C   0  0  0  0  0  0  0  0  0  0  0  0
  150.1530  155.1580  132.2400 O   0  0  0  0  0  0  0  0  0  0  0  0
  148.4860  153.5200  132.2490 N   0  0  0  0  0  0  0  0  0  0  0  0
  149.3990  152.4480  131.8560 C   0  0  0  0  0  0  0  0  0  0  0  0
  148.8870  151.0680  132.3190 C   0  0  1  0  0  0  0  0  0  0  0  0
  148.9560  150.9840  133.7190 O   0  0  0  0  0  0  0  0  0  0  0  0
  147.4390  150.8070  131.8720 C   0  0  0  0  0  0  0  0  0  0  0  0
  146.5320  151.5980  132.5930 O   0  0  0  0  0  0  0  0  0  0  0  0
  147.7060  152.5390  134.1120 H   0  0  0  0  0  0  0  0  0  0  0  0
  145.4457  157.0038  134.7213 H   0  0  0  0  0  0  0  0  0  0  0  0
  146.0055  159.6595  133.8104 H   0  0  0  0  0  0  0  0  0  0  0  0
  147.5746  160.9863  132.3583 H   0  0  0  0  0  0  0  0  0  0  0  0
  150.7386  159.8501  131.1923 H   0  0  0  0  0  0  0  0  0  0  0  0
  149.7733  157.3435  131.4025 H   0  0  0  0  0  0  0  0  0  0  0  0
  147.4630  153.3320  132.3490 H   0  0  0  0  0  0  0  0  0  0  0  0
  149.4945  152.4441  130.7602 H   0  0  0  0  0  0  0  0  0  0  0  0
  150.3723  152.6322  132.3343 H   0  0  0  0  0  0  0  0  0  0  0  0
  149.5295  150.3061  131.8534 H   0  0  0  0  0  0  0  0  0  0  0  0
  148.1100  151.3650  134.0730 H   0  0  0  0  0  0  0  0  0  0  0  0
  147.3468  151.0418  130.8013 H   0  0  0  0  0  0  0  0  0  0  0  0
  147.2030  149.7493  132.0604 H   0  0  0  0  0  0  0  0  0  0  0  0
  146.9370  151.7560  133.4850 H   0  0  0  0  0  0  0  0  0  0  0  0
  1  2  1  0
  2  3  2  0
  2  4  1  0
  4  5  2  0
  5  6  1  0
  6  7  2  0
  7  8  1  0
  8  9  2  0
  9 10  1  0
 10 11  1  0
 10 12  1  0
  9 13  1  0
 13 14  2  0
 14 15  1  0
 15 16  1  0
 16 17  2  0
 16 18  1  0
 18 19  1  0
 19 20  1  0
 20 21  1  0
 20 22  1  0
 22 23  1  0
 15  4  1  0
 14  6  1  0
  1 24  1  0
  5 25  1  0
  7 26  1  0
  8 27  1  0
 10 28  1  0
 13 29  1  0
 18 30  1  0
 19 31  1  0
 19 32  1  0
 20 33  1  6
 21 34  1  0
 22 35  1  0
 22 36  1  0
 23 37  1  0
M  CHG  1   1  -1
M  END
>  <UniqueID>  (91) 
91

>  <SMILES>  (91) 
[NH-]C(=O)c1cc2ccc(C(F)F)cc2n1C(=O)NC[C@@H](O)CO

>  <Energy>  (91) 
70.81633284139224

>  <Genealogy>  (91) 
[NH-]C(=O)c1cc2ccc(C(F)F)cc2n1C(=O)NCC(O)CO (protonated)
[NH-]C(=O)c1cc2ccc(C(F)F)cc2n1C(=O)NC[C@@H](O)CO (chirality)
[NH-]C(=O)c1cc2ccc(C(F)F)cc2n1C(=O)NC[C@@H](O)CO (3D coordinates assigned)
[NH-]C(=O)c1cc2ccc(C(F)F)cc2n1C(=O)NC[C@@H](O)CO (optimized conformer: 70.81633284139224 kcal/mol)

>  <smiles>  (91) 
NC(=O)c1cc2ccc(C(F)F)cc2n1C(=O)NCC(O)CO

>  <score_type>  (91) 
oracle

>  <origin>  (91) 
adg

>  <m_score__min__energy>  (91) 
-5.8899999999999997

>  <m_primary>  (91) 
energy

$$$$
93:0
     RDKit          3D

 36 37  0  0  0  0  0  0  0  0999 V2000
  147.2250  155.1850  132.9530 C   0  0  0  0  0  0  0  0  0  0  0  0
  145.9330  155.8030  132.6170 N   0  0  1  0  0  0  0  0  0  0  0  0
  144.9550  154.8630  132.0090 C   0  0  0  0  0  0  0  0  0  0  0  0
  143.5310  154.9020  132.6070 C   0  0  0  0  0  0  0  0  0  0  0  0
  142.8820  152.9770  133.2940 I   0  0  0  0  0  0  0  0  0  0  0  0
  145.3990  156.5050  133.7650 C   0  0  0  0  0  0  0  0  0  0  0  0
  145.3660  155.9530  134.8990 O   0  0  0  0  0  0  0  0  0  0  0  0
  144.9770  157.8730  133.6440 N   0  0  0  0  0  0  0  0  0  0  0  0
  145.7490  158.9550  133.3480 C   0  0  0  0  0  0  0  0  0  0  0  0
  147.1880  158.9230  133.0100 C   0  0  0  0  0  0  0  0  0  0  0  0
  147.6730  157.9730  132.0630 N   0  0  0  0  0  0  0  0  0  0  0  0
  147.9980  159.7150  133.5580 O   0  0  0  0  0  0  0  0  0  0  0  0
  144.9810  160.1190  133.3580 C   0  0  0  0  0  0  0  0  0  0  0  0
  143.7050  159.7110  133.6750 C   0  0  0  0  0  0  0  0  0  0  0  0
  142.5410  160.4550  133.8360 C   0  0  0  0  0  0  0  0  0  0  0  0
  141.3660  159.7700  134.1940 C   0  0  0  0  0  0  0  0  0  0  0  0
  141.3780  158.3670  134.3870 C   0  0  0  0  0  0  0  0  0  0  0  0
  140.1160  157.6570  134.7830 C   0  0  0  0  0  0  0  0  0  0  0  0
  139.8640  157.8670  136.1270 F   0  0  0  0  0  0  0  0  0  0  0  0
  140.2520  156.3010  134.5500 F   0  0  0  0  0  0  0  0  0  0  0  0
  142.5810  157.6450  134.2170 C   0  0  0  0  0  0  0  0  0  0  0  0
  143.7300  158.3510  133.8450 C   0  0  0  0  0  0  0  0  0  0  0  0
  147.3333  155.1332  134.0464 H   0  0  0  0  0  0  0  0  0  0  0  0
  147.2663  154.1696  132.5319 H   0  0  0  0  0  0  0  0  0  0  0  0
  148.0414  155.7901  132.5319 H   0  0  0  0  0  0  0  0  0  0  0  0
  146.1410  156.5210  131.8830 H   0  0  0  0  0  0  0  0  0  0  0  0
  144.8787  155.1002  130.9376 H   0  0  0  0  0  0  0  0  0  0  0  0
  145.3402  153.8534  132.2147 H   0  0  0  0  0  0  0  0  0  0  0  0
  143.5231  155.6015  133.4559 H   0  0  0  0  0  0  0  0  0  0  0  0
  142.8419  155.2252  131.8129 H   0  0  0  0  0  0  0  0  0  0  0  0
  147.0120  157.4110  131.4820 H   0  0  0  0  0  0  0  0  0  0  0  0
  145.3222  161.1450  133.1556 H   0  0  0  0  0  0  0  0  0  0  0  0
  142.5394  161.5450  133.6880 H   0  0  0  0  0  0  0  0  0  0  0  0
  140.4282  160.3296  134.3254 H   0  0  0  0  0  0  0  0  0  0  0  0
  139.2794  158.0505  134.1870 H   0  0  0  0  0  0  0  0  0  0  0  0
  142.6130  156.5566  134.3731 H   0  0  0  0  0  0  0  0  0  0  0  0
  1  2  1  0
  2  3  1  0
  3  4  1  0
  4  5  1  0
  2  6  1  0
  6  7  2  0
  6  8  1  0
  8  9  1  0
  9 10  1  0
 10 11  1  0
 10 12  2  0
  9 13  2  0
 13 14  1  0
 14 15  2  0
 15 16  1  0
 16 17  2  0
 17 18  1  0
 18 19  1  0
 18 20  1  0
 17 21  1  0
 21 22  2  0
 22  8  1  0
 22 14  1  0
  1 23  1  0
  1 24  1  0
  1 25  1  0
  2 26  1  6
  3 27  1  0
  3 28  1  0
  4 29  1  0
  4 30  1  0
 11 31  1  0
 13 32  1  0
 15 33  1  0
 16 34  1  0
 18 35  1  0
 21 36  1  0
M  CHG  2   2   1  11  -1
M  END
>  <UniqueID>  (92) 
92

>  <SMILES>  (92) 
C[N@@H+](CCI)C(=O)n1c(C([NH-])=O)cc2ccc(C(F)F)cc21

>  <Energy>  (92) 
80.87996877161865

>  <Genealogy>  (92) 
C[NH+](CCI)C(=O)n1c(C([NH-])=O)cc2ccc(C(F)F)cc21 (protonated)
C[N@@H+](CCI)C(=O)n1c(C([NH-])=O)cc2ccc(C(F)F)cc21 (chirality)
C[N@@H+](CCI)C(=O)n1c(C([NH-])=O)cc2ccc(C(F)F)cc21 (3D coordinates assigned)
C[N@@H+](CCI)C(=O)n1c(C([NH-])=O)cc2ccc(C(F)F)cc21 (optimized conformer: 80.87996877161865 kcal/mol)

>  <smiles>  (92) 
CN(CCI)C(=O)n1c(C(N)=O)cc2ccc(C(F)F)cc21

>  <score_type>  (92) 
oracle

>  <origin>  (92) 
adg

>  <m_score__min__energy>  (92) 
-6.3200000000000003

>  <m_primary>  (92) 
energy

$$$$
94:0
     RDKit          3D

 41 42  0  0  0  0  0  0  0  0999 V2000
  147.0800  154.1090  136.1650 C   0  0  0  0  0  0  0  0  0  0  0  0
  146.7100  154.7060  134.8770 N   0  0  0  0  0  0  0  0  0  0  0  0
  147.5720  155.7010  134.2910 C   0  0  0  0  0  0  0  0  0  0  0  0
  147.7820  156.7960  134.8780 O   0  0  0  0  0  0  0  0  0  0  0  0
  148.2070  155.4570  133.0790 O   0  0  0  0  0  0  0  0  0  0  0  0
  145.4430  154.3900  134.2650 C   0  0  0  0  0  0  0  0  0  0  0  0
  144.7010  153.5110  134.7830 O   0  0  0  0  0  0  0  0  0  0  0  0
  144.9960  155.0580  132.9910 C   0  0  0  0  0  0  0  0  0  0  0  0
  144.4870  156.4460  133.2720 C   0  0  0  0  0  0  0  0  0  0  0  0
  143.1290  156.6560  133.6170 C   0  0  0  0  0  0  0  0  0  0  0  0
  142.6560  157.9460  133.9080 C   0  0  0  0  0  0  0  0  0  0  0  0
  143.5600  159.0030  133.8470 C   0  0  0  0  0  0  0  0  0  0  0  0
  143.3660  160.3470  134.0720 C   0  0  0  0  0  0  0  0  0  0  0  0
  144.6120  160.9370  133.8750 C   0  0  0  0  0  0  0  0  0  0  0  0
  144.8780  162.3700  134.1140 C   0  0  0  0  0  0  0  0  0  0  0  0
  146.0460  162.7660  134.8270 N   0  0  0  0  0  0  0  0  0  0  0  0
  144.1020  163.2530  133.6620 O   0  0  0  0  0  0  0  0  0  0  0  0
  145.5390  159.9960  133.5350 N   0  0  0  0  0  0  0  0  0  0  0  0
  146.9140  160.2080  133.1740 C   0  0  0  0  0  0  0  0  0  0  0  0
  147.7650  160.4750  134.0650 O   0  0  0  0  0  0  0  0  0  0  0  0
  147.3050  160.0960  131.8350 O   0  0  0  0  0  0  0  0  0  0  0  0
  148.6670  160.1110  131.4130 C   0  0  0  0  0  0  0  0  0  0  0  0
  149.3940  158.9240  131.9720 C   0  0  0  0  0  0  0  0  0  0  0  0
  148.8150  158.1380  133.0120 N   0  0  0  0  0  0  0  0  0  0  0  0
  150.5140  158.6030  131.4960 O   0  0  0  0  0  0  0  0  0  0  0  0
  144.8790  158.8170  133.5250 C   0  0  0  0  0  0  0  0  0  0  0  0
  145.3730  157.5460  133.2090 C   0  0  0  0  0  0  0  0  0  0  0  0
  146.6928  154.7337  136.9834 H   0  0  0  0  0  0  0  0  0  0  0  0
  146.6489  153.0997  136.2387 H   0  0  0  0  0  0  0  0  0  0  0  0
  148.1757  154.0460  136.2387 H   0  0  0  0  0  0  0  0  0  0  0  0
  145.8470  155.1185  132.2966 H   0  0  0  0  0  0  0  0  0  0  0  0
  144.1834  154.4653  132.5457 H   0  0  0  0  0  0  0  0  0  0  0  0
  142.4386  155.8006  133.6573 H   0  0  0  0  0  0  0  0  0  0  0  0
  141.6028  158.1161  134.1761 H   0  0  0  0  0  0  0  0  0  0  0  0
  142.4267  160.8483  134.3486 H   0  0  0  0  0  0  0  0  0  0  0  0
  146.9910  162.4320  134.5360 H   0  0  0  0  0  0  0  0  0  0  0  0
  148.7076  160.0780  130.3142 H   0  0  0  0  0  0  0  0  0  0  0  0
  149.1465  161.0311  131.7783 H   0  0  0  0  0  0  0  0  0  0  0  0
  149.3220  157.3050  133.3860 H   0  0  0  0  0  0  0  0  0  0  0  0
  147.8820  158.3850  133.4110 H   0  0  0  0  0  0  0  0  0  0  0  0
  146.4248  157.4064  132.9188 H   0  0  0  0  0  0  0  0  0  0  0  0
  1  2  1  0
  2  3  1  0
  3  4  2  0
  3  5  1  0
  2  6  1  0
  6  7  2  0
  6  8  1  0
  8  9  1  0
  9 10  2  0
 10 11  1  0
 11 12  2  0
 12 13  1  0
 13 14  2  0
 14 15  1  0
 15 16  1  0
 15 17  2  0
 14 18  1  0
 18 19  1  0
 19 20  2  0
 19 21  1  0
 21 22  1  0
 22 23  1  0
 23 24  1  0
 23 25  2  0
 18 26  1  0
 26 27  2  0
 27  9  1  0
 26 12  1  0
  1 28  1  0
  1 29  1  0
  1 30  1  0
  8 31  1  0
  8 32  1  0
 10 33  1  0
 11 34  1  0
 13 35  1  0
 16 36  1  0
 22 37  1  0
 22 38  1  0
 24 39  1  0
 24 40  1  0
 27 41  1  0
M  CHG  2   5  -1  16  -1
M  END
>  <UniqueID>  (93) 
93

>  <SMILES>  (93) 
CN(C(=O)[O-])C(=O)Cc1ccc2cc(C([NH-])=O)n(C(=O)OCC(N)=O)c2c1

>  <Energy>  (93) 
77.20433303103056

>  <Genealogy>  (93) 
CN(C(=O)[O-])C(=O)Cc1ccc2cc(C([NH-])=O)n(C(=O)OCC(N)=O)c2c1 (protonated)
CN(C(=O)[O-])C(=O)Cc1ccc2cc(C([NH-])=O)n(C(=O)OCC(N)=O)c2c1 (3D coordinates assigned)
CN(C(=O)[O-])C(=O)Cc1ccc2cc(C([NH-])=O)n(C(=O)OCC(N)=O)c2c1 (optimized conformer: 77.20433303103056 kcal/mol)

>  <smiles>  (93) 
CN(C(=O)O)C(=O)Cc1ccc2cc(C(N)=O)n(C(=O)OCC(N)=O)c2c1

>  <score_type>  (93) 
oracle

>  <origin>  (93) 
adg

>  <m_score__min__energy>  (93) 
-6.4800000000000004

>  <m_primary>  (93) 
energy

$$$$
95:0
     RDKit          3D

 44 45  0  0  0  0  0  0  0  0999 V2000
  140.0900  159.0040  131.8520 C   0  0  0  0  0  0  0  0  0  0  0  0
  139.9430  158.7640  133.3590 C   0  0  0  0  0  0  0  0  0  0  0  0
  138.7810  157.8020  133.6270 C   0  0  0  0  0  0  0  0  0  0  0  0
  141.1900  158.2160  133.9090 N   0  0  0  0  0  0  0  0  0  0  0  0
  142.4830  158.8440  133.7940 C   0  0  0  0  0  0  0  0  0  0  0  0
  142.6460  160.2560  133.8560 C   0  0  0  0  0  0  0  0  0  0  0  0
  143.9180  160.8400  133.7300 C   0  0  0  0  0  0  0  0  0  0  0  0
  145.0090  159.9970  133.5480 C   0  0  0  0  0  0  0  0  0  0  0  0
  146.3420  160.2960  133.3660 C   0  0  0  0  0  0  0  0  0  0  0  0
  146.9760  159.0650  133.2060 C   0  0  0  0  0  0  0  0  0  0  0  0
  148.4310  158.9070  133.0030 C   0  0  0  0  0  0  0  0  0  0  0  0
  148.9250  158.3920  131.7690 N   0  0  0  0  0  0  0  0  0  0  0  0
  149.2470  159.2340  133.9040 O   0  0  0  0  0  0  0  0  0  0  0  0
  146.0730  158.0500  133.2950 N   0  0  0  0  0  0  0  0  0  0  0  0
  146.3170  156.6440  133.1330 C   0  0  0  0  0  0  0  0  0  0  0  0
  146.9800  156.2470  132.1380 O   0  0  0  0  0  0  0  0  0  0  0  0
  145.7640  155.6740  134.1020 C   0  0  0  0  0  0  0  0  0  0  0  0
  146.3630  155.4970  135.1970 O   0  0  0  0  0  0  0  0  0  0  0  0
  144.5490  154.9460  133.8420 N   0  0  0  0  0  0  0  0  0  0  0  0
  144.1150  154.8000  132.4500 C   0  0  0  0  0  0  0  0  0  0  0  0
  143.6700  154.5150  134.9400 C   0  0  0  0  0  0  0  0  0  0  0  0
  142.4510  155.3800  135.0010 C   0  0  0  0  0  0  0  0  0  0  0  0
  141.5060  155.1970  134.1890 O   0  0  0  0  0  0  0  0  0  0  0  0
  142.3580  156.3910  135.9500 O   0  0  0  0  0  0  0  0  0  0  0  0
  144.8740  158.6360  133.4960 C   0  0  0  0  0  0  0  0  0  0  0  0
  143.6200  158.0270  133.5990 C   0  0  0  0  0  0  0  0  0  0  0  0
  140.6577  159.9307  131.6820 H   0  0  0  0  0  0  0  0  0  0  0  0
  140.6248  158.1576  131.3964 H   0  0  0  0  0  0  0  0  0  0  0  0
  139.0930  159.0959  131.3964 H   0  0  0  0  0  0  0  0  0  0  0  0
  139.7310  159.7242  133.8521 H   0  0  0  0  0  0  0  0  0  0  0  0
  138.6427  157.6875  134.7122 H   0  0  0  0  0  0  0  0  0  0  0  0
  137.8603  158.2058  133.1806 H   0  0  0  0  0  0  0  0  0  0  0  0
  139.0058  156.8221  133.1806 H   0  0  0  0  0  0  0  0  0  0  0  0
  141.1370  157.3160  134.4410 H   0  0  0  0  0  0  0  0  0  0  0  0
  141.7655  160.8985  134.0044 H   0  0  0  0  0  0  0  0  0  0  0  0
  144.0469  161.9315  133.7740 H   0  0  0  0  0  0  0  0  0  0  0  0
  146.8064  161.2931  133.3503 H   0  0  0  0  0  0  0  0  0  0  0  0
  148.6390  157.4460  131.4290 H   0  0  0  0  0  0  0  0  0  0  0  0
  143.0727  154.4494  132.4258 H   0  0  0  0  0  0  0  0  0  0  0  0
  144.1869  155.7718  131.9397 H   0  0  0  0  0  0  0  0  0  0  0  0
  144.7597  154.0693  131.9397 H   0  0  0  0  0  0  0  0  0  0  0  0
  143.3659  153.4712  134.7727 H   0  0  0  0  0  0  0  0  0  0  0  0
  144.2171  154.6011  135.8904 H   0  0  0  0  0  0  0  0  0  0  0  0
  143.5199  156.9337  133.5297 H   0  0  0  0  0  0  0  0  0  0  0  0
  1  2  1  0
  2  3  1  0
  2  4  1  0
  4  5  1  0
  5  6  2  0
  6  7  1  0
  7  8  2  0
  8  9  1  0
  9 10  2  0
 10 11  1  0
 11 12  1  0
 11 13  2  0
 10 14  1  0
 14 15  1  0
 15 16  2  0
 15 17  1  0
 17 18  2  0
 17 19  1  0
 19 20  1  0
 19 21  1  0
 21 22  1  0
 22 23  2  0
 22 24  1  0
 14 25  1  0
 25 26  2  0
 26  5  1  0
 25  8  1  0
  1 27  1  0
  1 28  1  0
  1 29  1  0
  2 30  1  0
  3 31  1  0
  3 32  1  0
  3 33  1  0
  4 34  1  0
  6 35  1  0
  7 36  1  0
  9 37  1  0
 12 38  1  0
 20 39  1  0
 20 40  1  0
 20 41  1  0
 21 42  1  0
 21 43  1  0
 26 44  1  0
M  CHG  2  12  -1  24  -1
M  END
>  <UniqueID>  (94) 
94

>  <SMILES>  (94) 
CC(C)Nc1ccc2cc(C([NH-])=O)n(C(=O)C(=O)N(C)CC(=O)[O-])c2c1

>  <Energy>  (94) 
80.8654375408472

>  <Genealogy>  (94) 
CC(C)Nc1ccc2cc(C([NH-])=O)n(C(=O)C(=O)N(C)CC(=O)[O-])c2c1 (protonated)
CC(C)Nc1ccc2cc(C([NH-])=O)n(C(=O)C(=O)N(C)CC(=O)[O-])c2c1 (3D coordinates assigned)
CC(C)Nc1ccc2cc(C([NH-])=O)n(C(=O)C(=O)N(C)CC(=O)[O-])c2c1 (optimized conformer: 80.8654375408472 kcal/mol)

>  <smiles>  (94) 
CC(C)Nc1ccc2cc(C(N)=O)n(C(=O)C(=O)N(C)CC(=O)O)c2c1

>  <score_type>  (94) 
oracle

>  <origin>  (94) 
adg

>  <m_score__min__energy>  (94) 
-7.6399999999999997

>  <m_primary>  (94) 
energy

$$$$
96:0
     RDKit          3D

 47 49  0  0  0  0  0  0  0  0999 V2000
  142.8900  160.5090  133.3750 N   0  0  0  0  0  0  0  0  0  0  0  0
  144.2530  160.7780  133.6930 C   0  0  0  0  0  0  0  0  0  0  0  0
  144.5740  161.9230  134.1070 O   0  0  0  0  0  0  0  0  0  0  0  0
  145.2660  159.7090  133.5550 C   0  0  0  0  0  0  0  0  0  0  0  0
  146.6300  159.9510  133.4100 C   0  0  0  0  0  0  0  0  0  0  0  0
  147.2070  158.7140  133.2440 C   0  0  0  0  0  0  0  0  0  0  0  0
  148.5380  158.3650  133.0530 C   0  0  0  0  0  0  0  0  0  0  0  0
  148.8510  157.0030  132.9160 C   0  0  0  0  0  0  0  0  0  0  0  0
  147.8350  156.0100  132.9780 C   0  0  0  0  0  0  0  0  0  0  0  0
  148.1670  154.6090  132.8330 N   0  0  0  0  0  0  0  0  0  0  0  0
  147.2060  153.5260  132.9830 C   0  0  0  0  0  0  0  0  0  0  0  0
  147.9360  152.2590  132.5650 C   0  0  0  0  0  0  0  0  0  0  0  0
  149.4210  152.6030  132.5990 C   0  0  0  0  0  0  0  0  0  0  0  0
  149.4970  154.1200  132.5020 C   0  0  0  0  0  0  0  0  0  0  0  0
  146.4920  156.4120  133.1820 C   0  0  0  0  0  0  0  0  0  0  0  0
  146.2100  157.7780  133.2940 C   0  0  0  0  0  0  0  0  0  0  0  0
  145.0110  158.3720  133.4800 N   0  0  0  0  0  0  0  0  0  0  0  0
  143.7330  157.7210  133.5780 C   0  0  0  0  0  0  0  0  0  0  0  0
  142.9570  157.7250  132.5870 O   0  0  0  0  0  0  0  0  0  0  0  0
  143.2880  157.0520  134.8500 C   0  0  0  0  0  0  0  0  0  0  0  0
  143.5860  155.6570  134.8360 O   0  0  0  0  0  0  0  0  0  0  0  0
  143.4470  154.8300  135.9580 C   0  0  0  0  0  0  0  0  0  0  0  0
  142.3710  154.8140  136.6200 O   0  0  0  0  0  0  0  0  0  0  0  0
  144.5930  153.9690  136.3810 C   0  0  0  0  0  0  0  0  0  0  0  0
  145.9010  154.4820  135.7800 C   0  0  0  0  0  0  0  0  0  0  0  0
  147.0710  153.9350  136.5370 C   0  0  0  0  0  0  0  0  0  0  0  0
  148.1360  154.6000  136.6250 O   0  0  0  0  0  0  0  0  0  0  0  0
  146.9980  152.6710  137.1110 O   0  0  0  0  0  0  0  0  0  0  0  0
  142.6370  159.8560  132.5990 H   0  0  0  0  0  0  0  0  0  0  0  0
  147.1385  160.9263  133.4251 H   0  0  0  0  0  0  0  0  0  0  0  0
  149.3240  159.1334  133.0103 H   0  0  0  0  0  0  0  0  0  0  0  0
  149.8966  156.7000  132.7585 H   0  0  0  0  0  0  0  0  0  0  0  0
  146.8760  153.4497  134.0296 H   0  0  0  0  0  0  0  0  0  0  0  0
  146.3083  153.6953  132.3702 H   0  0  0  0  0  0  0  0  0  0  0  0
  147.7163  151.4413  133.2672 H   0  0  0  0  0  0  0  0  0  0  0  0
  147.6218  151.9223  131.5661 H   0  0  0  0  0  0  0  0  0  0  0  0
  149.8732  152.2561  133.5398 H   0  0  0  0  0  0  0  0  0  0  0  0
  149.9684  152.1167  131.7781 H   0  0  0  0  0  0  0  0  0  0  0  0
  150.2371  154.5122  133.2151 H   0  0  0  0  0  0  0  0  0  0  0  0
  149.8080  154.4450  131.4982 H   0  0  0  0  0  0  0  0  0  0  0  0
  145.6871  155.6654  133.2510 H   0  0  0  0  0  0  0  0  0  0  0  0
  143.8053  157.5200  135.7005 H   0  0  0  0  0  0  0  0  0  0  0  0
  142.1985  157.1724  134.9418 H   0  0  0  0  0  0  0  0  0  0  0  0
  144.6695  153.9822  137.4783 H   0  0  0  0  0  0  0  0  0  0  0  0
  144.4168  152.9434  136.0244 H   0  0  0  0  0  0  0  0  0  0  0  0
  145.9673  154.1628  134.7294 H   0  0  0  0  0  0  0  0  0  0  0  0
  145.9166  155.5801  135.8422 H   0  0  0  0  0  0  0  0  0  0  0  0
  1  2  1  0
  2  3  2  0
  2  4  1  0
  4  5  2  0
  5  6  1  0
  6  7  2  0
  7  8  1  0
  8  9  2  0
  9 10  1  0
 10 11  1  0
 11 12  1  0
 12 13  1  0
 13 14  1  0
  9 15  1  0
 15 16  2  0
 16 17  1  0
 17 18  1  0
 18 19  2  0
 18 20  1  0
 20 21  1  0
 21 22  1  0
 22 23  2  0
 22 24  1  0
 24 25  1  0
 25 26  1  0
 26 27  2  0
 26 28  1  0
 17  4  1  0
 16  6  1  0
 14 10  1  0
  1 29  1  0
  5 30  1  0
  7 31  1  0
  8 32  1  0
 11 33  1  0
 11 34  1  0
 12 35  1  0
 12 36  1  0
 13 37  1  0
 13 38  1  0
 14 39  1  0
 14 40  1  0
 15 41  1  0
 20 42  1  0
 20 43  1  0
 24 44  1  0
 24 45  1  0
 25 46  1  0
 25 47  1  0
M  CHG  2   1  -1  28  -1
M  END
>  <UniqueID>  (95) 
95

>  <SMILES>  (95) 
[NH-]C(=O)c1cc2ccc(N3CCCC3)cc2n1C(=O)COC(=O)CCC(=O)[O-]

>  <Energy>  (95) 
80.68823855828141

>  <Genealogy>  (95) 
[NH-]C(=O)c1cc2ccc(N3CCCC3)cc2n1C(=O)COC(=O)CCC(=O)[O-] (protonated)
[NH-]C(=O)c1cc2ccc(N3CCCC3)cc2n1C(=O)COC(=O)CCC(=O)[O-] (3D coordinates assigned)
[NH-]C(=O)c1cc2ccc(N3CCCC3)cc2n1C(=O)COC(=O)CCC(=O)[O-] (nonaromatic ring conformer: 80.68823855828141 kcal/mol)

>  <smiles>  (95) 
NC(=O)c1cc2ccc(N3CCCC3)cc2n1C(=O)COC(=O)CCC(=O)O

>  <score_type>  (95) 
oracle

>  <origin>  (95) 
adg

>  <m_score__min__energy>  (95) 
-7.54

>  <m_primary>  (95) 
energy

$$$$
97:0
     RDKit          3D

 42 44  0  0  0  0  0  0  0  0999 V2000
  140.6580  153.7020  133.0240 C   0  0  0  0  0  0  0  0  0  0  0  0
  140.9610  154.9610  133.3640 C   0  0  0  0  0  0  0  0  0  0  0  0
  139.8980  155.9980  133.3470 C   0  0  0  0  0  0  0  0  0  0  0  0
  138.7380  155.6970  132.9540 O   0  0  0  0  0  0  0  0  0  0  0  0
  140.1650  157.3420  133.7800 N   0  0  0  0  0  0  0  0  0  0  0  0
  139.9800  158.5010  133.0860 C   0  0  0  0  0  0  0  0  0  0  0  0
  139.5910  158.6090  131.6650 C   0  0  0  0  0  0  0  0  0  0  0  0
  138.4800  157.8780  131.1440 N   0  0  0  0  0  0  0  0  0  0  0  0
  140.2800  159.3220  130.8890 O   0  0  0  0  0  0  0  0  0  0  0  0
  140.2430  159.6050  133.8940 C   0  0  0  0  0  0  0  0  0  0  0  0
  140.6180  159.0830  135.1110 C   0  0  0  0  0  0  0  0  0  0  0  0
  140.9830  159.7280  136.2890 C   0  0  0  0  0  0  0  0  0  0  0  0
  141.2890  158.9330  137.4070 C   0  0  0  0  0  0  0  0  0  0  0  0
  141.2050  157.5210  137.3340 C   0  0  0  0  0  0  0  0  0  0  0  0
  141.5590  156.6840  138.5260 C   0  0  0  0  0  0  0  0  0  0  0  0
  140.8450  156.9000  136.1170 C   0  0  0  0  0  0  0  0  0  0  0  0
  140.5650  157.7160  135.0160 C   0  0  0  0  0  0  0  0  0  0  0  0
  142.3110  155.3090  133.7320 N   0  0  0  0  0  0  0  0  0  0  0  0
  143.0680  154.6330  134.7870 C   0  0  0  0  0  0  0  0  0  0  0  0
  144.3420  155.3790  134.7950 C   0  0  0  0  0  0  0  0  0  0  0  0
  145.3100  155.1330  135.5620 O   0  0  0  0  0  0  0  0  0  0  0  0
  144.3510  156.4120  133.8270 N   0  0  0  0  0  0  0  0  0  0  0  0
  145.4540  157.3310  133.5750 C   0  0  0  0  0  0  0  0  0  0  0  0
  143.0670  156.4250  133.1480 C   0  0  0  0  0  0  0  0  0  0  0  0
  141.4383  152.9268  133.0335 H   0  0  0  0  0  0  0  0  0  0  0  0
  139.6287  153.4428  132.7352 H   0  0  0  0  0  0  0  0  0  0  0  0
  138.1860  158.0120  130.1510 H   0  0  0  0  0  0  0  0  0  0  0  0
  137.9980  157.1490  131.7120 H   0  0  0  0  0  0  0  0  0  0  0  0
  140.1671  160.6672  133.6182 H   0  0  0  0  0  0  0  0  0  0  0  0
  141.0305  160.8256  136.3434 H   0  0  0  0  0  0  0  0  0  0  0  0
  141.5968  159.4122  138.3481 H   0  0  0  0  0  0  0  0  0  0  0  0
  141.3243  157.2389  139.4464 H   0  0  0  0  0  0  0  0  0  0  0  0
  140.9790  155.7496  138.5032 H   0  0  0  0  0  0  0  0  0  0  0  0
  142.6334  156.4493  138.5032 H   0  0  0  0  0  0  0  0  0  0  0  0
  140.7865  155.8044  136.0375 H   0  0  0  0  0  0  0  0  0  0  0  0
  142.5552  154.7118  135.7570 H   0  0  0  0  0  0  0  0  0  0  0  0
  143.1930  153.5539  134.6140 H   0  0  0  0  0  0  0  0  0  0  0  0
  145.8692  157.6769  134.5331 H   0  0  0  0  0  0  0  0  0  0  0  0
  146.2375  156.8148  133.0009 H   0  0  0  0  0  0  0  0  0  0  0  0
  145.0877  158.1948  133.0009 H   0  0  0  0  0  0  0  0  0  0  0  0
  142.5467  157.3779  133.3250 H   0  0  0  0  0  0  0  0  0  0  0  0
  143.1771  156.3214  132.0584 H   0  0  0  0  0  0  0  0  0  0  0  0
  1  2  2  0
  2  3  1  0
  3  4  2  0
  3  5  1  0
  5  6  1  0
  6  7  1  0
  7  8  1  0
  7  9  2  0
  6 10  2  0
 10 11  1  0
 11 12  2  0
 12 13  1  0
 13 14  2  0
 14 15  1  0
 14 16  1  0
 16 17  2  0
  2 18  1  0
 18 19  1  0
 19 20  1  0
 20 21  2  0
 20 22  1  0
 22 23  1  0
 22 24  1  0
 17  5  1  0
 24 18  1  0
 17 11  1  0
  1 25  1  0
  1 26  1  0
  8 27  1  0
  8 28  1  0
 10 29  1  0
 12 30  1  0
 13 31  1  0
 15 32  1  0
 15 33  1  0
 15 34  1  0
 16 35  1  0
 19 36  1  0
 19 37  1  0
 23 38  1  0
 23 39  1  0
 23 40  1  0
 24 41  1  0
 24 42  1  0
M  END
>  <UniqueID>  (96) 
96

>  <SMILES>  (96) 
C=C(C(=O)n1c(C(N)=O)cc2ccc(C)cc21)N1CC(=O)N(C)C1

>  <Energy>  (96) 
91.65923087370628

>  <Genealogy>  (96) 
C=C(C(=O)n1c(C(N)=O)cc2ccc(C)cc21)N1CC(=O)N(C)C1 (3D coordinates assigned)
C=C(C(=O)n1c(C(N)=O)cc2ccc(C)cc21)N1CC(=O)N(C)C1 (nonaromatic ring conformer: 91.65923087370628 kcal/mol)

>  <smiles>  (96) 
C=C(C(=O)n1c(C(N)=O)cc2ccc(C)cc21)N1CC(=O)N(C)C1

>  <score_type>  (96) 
oracle

>  <origin>  (96) 
adg

>  <m_score__min__energy>  (96) 
-7.2999999999999998

>  <m_primary>  (96) 
energy

$$$$
98:0
     RDKit          3D

 52 54  0  0  0  0  0  0  0  0999 V2000
  140.7730  156.6420  134.4720 N   0  0  0  0  0  0  0  0  0  0  0  0
  140.9930  157.9200  133.8790 C   0  0  0  0  0  0  0  0  0  0  0  0
  140.0150  158.5550  133.4060 O   0  0  0  0  0  0  0  0  0  0  0  0
  142.3630  158.4710  133.8050 C   0  0  0  0  0  0  0  0  0  0  0  0
  142.6570  159.8290  133.9230 C   0  0  0  0  0  0  0  0  0  0  0  0
  144.0280  159.9120  133.8440 C   0  0  0  0  0  0  0  0  0  0  0  0
  144.8610  161.0280  133.8720 C   0  0  0  0  0  0  0  0  0  0  0  0
  146.2440  160.8220  133.7240 C   0  0  0  0  0  0  0  0  0  0  0  0
  146.7650  159.5160  133.5490 C   0  0  0  0  0  0  0  0  0  0  0  0
  148.2460  159.3010  133.3840 C   0  0  0  0  0  0  0  0  0  0  0  0
  148.7390  160.0080  132.1630 C   0  0  0  0  0  0  0  0  0  0  0  0
  148.4290  161.2150  131.9680 O   0  0  0  0  0  0  0  0  0  0  0  0
  149.4870  159.2980  131.2170 O   0  0  0  0  0  0  0  0  0  0  0  0
  149.2250  159.3420  129.8170 C   0  0  0  0  0  0  0  0  0  0  0  0
  149.9740  160.5080  129.1750 C   0  0  0  0  0  0  0  0  0  0  0  0
  149.9880  161.5950  130.0570 O   0  0  0  0  0  0  0  0  0  0  0  0
  145.8860  158.4100  133.5320 C   0  0  0  0  0  0  0  0  0  0  0  0
  144.5160  158.6420  133.6890 C   0  0  0  0  0  0  0  0  0  0  0  0
  143.5080  157.7440  133.6630 N   0  0  0  0  0  0  0  0  0  0  0  0
  143.6230  156.3290  133.4380 C   0  0  0  0  0  0  0  0  0  0  0  0
  144.1070  155.9170  132.3470 O   0  0  0  0  0  0  0  0  0  0  0  0
  143.0970  155.3860  134.4030 N   0  0  2  0  0  0  0  0  0  0  0  0
  144.0230  155.2190  135.5620 C   0  0  0  0  0  0  0  0  0  0  0  0
  144.0360  153.7930  136.1530 C   0  0  0  0  0  0  0  0  0  0  0  0
  142.6600  153.1080  136.0900 C   0  0  1  0  0  0  0  0  0  0  0  0
  141.7230  153.6860  137.1230 C   0  0  0  0  0  0  0  0  0  0  0  0
  141.3390  154.8810  137.0220 O   0  0  0  0  0  0  0  0  0  0  0  0
  141.2490  152.9060  138.1710 O   0  0  0  0  0  0  0  0  0  0  0  0
  142.0540  153.1470  134.6630 C   0  0  0  0  0  0  0  0  0  0  0  0
  142.7950  154.1130  133.7210 C   0  0  0  0  0  0  0  0  0  0  0  0
  141.2090  156.3920  135.3870 H   0  0  0  0  0  0  0  0  0  0  0  0
  141.9447  160.6572  134.0518 H   0  0  0  0  0  0  0  0  0  0  0  0
  144.4495  162.0393  134.0058 H   0  0  0  0  0  0  0  0  0  0  0  0
  146.9282  161.6831  133.7443 H   0  0  0  0  0  0  0  0  0  0  0  0
  148.7705  159.6937  134.2676 H   0  0  0  0  0  0  0  0  0  0  0  0
  148.4420  158.2238  133.2779 H   0  0  0  0  0  0  0  0  0  0  0  0
  149.5562  158.3998  129.3559 H   0  0  0  0  0  0  0  0  0  0  0  0
  148.1451  159.4793  129.6588 H   0  0  0  0  0  0  0  0  0  0  0  0
  151.0071  160.2025  128.9529 H   0  0  0  0  0  0  0  0  0  0  0  0
  149.4694  160.7990  128.2419 H   0  0  0  0  0  0  0  0  0  0  0  0
  150.3520  161.2490  130.9130 H   0  0  0  0  0  0  0  0  0  0  0  0
  146.2711  157.3883  133.3981 H   0  0  0  0  0  0  0  0  0  0  0  0
  142.1910  155.7700  134.7590 H   0  0  0  0  0  0  0  0  0  0  0  0
  145.0421  155.4650  135.2291 H   0  0  0  0  0  0  0  0  0  0  0  0
  143.6640  155.8901  136.3562 H   0  0  0  0  0  0  0  0  0  0  0  0
  144.7573  153.1849  135.5874 H   0  0  0  0  0  0  0  0  0  0  0  0
  144.3154  153.8770  137.2136 H   0  0  0  0  0  0  0  0  0  0  0  0
  142.8057  152.0451  136.3328 H   0  0  0  0  0  0  0  0  0  0  0  0
  142.1006  152.1349  134.2346 H   0  0  0  0  0  0  0  0  0  0  0  0
  141.0185  153.5067  134.7550 H   0  0  0  0  0  0  0  0  0  0  0  0
  143.7366  153.6468  133.3952 H   0  0  0  0  0  0  0  0  0  0  0  0
  142.1501  154.3229  132.8549 H   0  0  0  0  0  0  0  0  0  0  0  0
  1  2  1  0
  2  3  2  0
  2  4  1  0
  4  5  2  0
  5  6  1  0
  6  7  2  0
  7  8  1  0
  8  9  2  0
  9 10  1  0
 10 11  1  0
 11 12  2  0
 11 13  1  0
 13 14  1  0
 14 15  1  0
 15 16  1  0
  9 17  1  0
 17 18  2  0
 18 19  1  0
 19 20  1  0
 20 21  2  0
 20 22  1  0
 22 23  1  0
 23 24  1  0
 24 25  1  0
 25 26  1  0
 26 27  2  0
 26 28  1  0
 25 29  1  0
 29 30  1  0
 19  4  1  0
 30 22  1  0
 18  6  1  0
  1 31  1  0
  5 32  1  0
  7 33  1  0
  8 34  1  0
 10 35  1  0
 10 36  1  0
 14 37  1  0
 14 38  1  0
 15 39  1  0
 15 40  1  0
 16 41  1  0
 17 42  1  0
 22 43  1  1
 23 44  1  0
 23 45  1  0
 24 46  1  0
 24 47  1  0
 25 48  1  1
 29 49  1  0
 29 50  1  0
 30 51  1  0
 30 52  1  0
M  CHG  3   1  -1  22   1  28  -1
M  END
>  <UniqueID>  (97) 
97

>  <SMILES>  (97) 
[NH-]C(=O)c1cc2ccc(CC(=O)OCCO)cc2n1C(=O)[NH+]1CCC(C(=O)[O-])CC1

>  <Energy>  (97) 
94.94386913364109

>  <Genealogy>  (97) 
[NH-]C(=O)c1cc2ccc(CC(=O)OCCO)cc2n1C(=O)[NH+]1CCC(C(=O)[O-])CC1 (protonated)
[NH-]C(=O)c1cc2ccc(CC(=O)OCCO)cc2n1C(=O)[NH+]1CCC(C(=O)[O-])CC1 (3D coordinates assigned)
[NH-]C(=O)c1cc2ccc(CC(=O)OCCO)cc2n1C(=O)[NH+]1CCC(C(=O)[O-])CC1 (nonaromatic ring conformer: 94.94386913364109 kcal/mol)

>  <smiles>  (97) 
NC(=O)c1cc2ccc(CC(=O)OCCO)cc2n1C(=O)N1CCC(C(=O)O)CC1

>  <score_type>  (97) 
oracle

>  <origin>  (97) 
adg

>  <m_score__min__energy>  (97) 
-6.5800000000000001

>  <m_primary>  (97) 
energy

$$$$
