0:0
     RDKit          3D

 51 52  0  0  0  0  0  0  0  0999 V2000
  139.0060  157.0490  133.3290 C   0  0  0  0  0  0  0  0  0  0  0  0
  140.1750  157.9830  133.4380 C   0  0  0  0  0  0  0  0  0  0  0  0
  139.9670  159.3840  133.4020 C   0  0  0  0  0  0  0  0  0  0  0  0
  141.0560  160.2700  133.4700 C   0  0  0  0  0  0  0  0  0  0  0  0
  142.3350  159.7270  133.5530 C   0  0  0  0  0  0  0  0  0  0  0  0
  143.5560  160.3530  133.6500 C   0  0  0  0  0  0  0  0  0  0  0  0
  144.4950  159.3240  133.7060 C   0  0  0  0  0  0  0  0  0  0  0  0
  145.9590  159.5450  133.7290 C   0  0  0  0  0  0  0  0  0  0  0  0
  146.8620  158.4410  133.8150 N   0  0  0  0  0  0  0  0  0  0  0  0
  146.4230  160.7160  133.7010 O   0  0  0  0  0  0  0  0  0  0  0  0
  143.8780  158.1100  133.6470 N   0  0  0  0  0  0  0  0  0  0  0  0
  144.4860  156.8100  133.7270 C   0  0  0  0  0  0  0  0  0  0  0  0
  144.9110  156.3850  134.8370 O   0  0  0  0  0  0  0  0  0  0  0  0
  144.5820  156.0210  132.5720 O   0  0  0  0  0  0  0  0  0  0  0  0
  144.3220  154.6460  132.5110 C   0  0  0  0  0  0  0  0  0  0  0  0
  143.1870  154.1850  132.8130 O   0  0  0  0  0  0  0  0  0  0  0  0
  145.3530  153.7890  132.1180 O   0  0  0  0  0  0  0  0  0  0  0  0
  145.9700  152.8460  132.9900 C   0  0  0  0  0  0  0  0  0  0  0  0
  147.0140  153.4780  133.7300 O   0  0  0  0  0  0  0  0  0  0  0  0
  148.3000  153.7100  133.2280 C   0  0  0  0  0  0  0  0  0  0  0  0
  149.2250  152.8750  133.4240 O   0  0  0  0  0  0  0  0  0  0  0  0
  148.5360  154.8920  132.5150 O   0  0  0  0  0  0  0  0  0  0  0  0
  148.3150  156.1860  133.0060 C   0  0  0  0  0  0  0  0  0  0  0  0
  148.3870  156.4290  134.2430 O   0  0  0  0  0  0  0  0  0  0  0  0
  148.0120  157.2020  132.0920 O   0  0  0  0  0  0  0  0  0  0  0  0
  148.8740  158.2460  131.7340 C   0  0  0  0  0  0  0  0  0  0  0  0
  149.6410  158.7770  132.5850 O   0  0  0  0  0  0  0  0  0  0  0  0
  148.8690  158.6950  130.4100 O   0  0  0  0  0  0  0  0  0  0  0  0
  148.8980  160.0750  130.0440 C   0  0  0  0  0  0  0  0  0  0  0  0
  148.4560  160.9150  131.2410 C   0  0  0  0  0  0  0  0  0  0  0  0
  150.3080  160.4740  129.6010 C   0  0  0  0  0  0  0  0  0  0  0  0
  142.5560  158.3740  133.5550 C   0  0  0  0  0  0  0  0  0  0  0  0
  141.4870  157.4680  133.5070 C   0  0  0  0  0  0  0  0  0  0  0  0
  138.6614  156.7737  134.3367 H   0  0  0  0  0  0  0  0  0  0  0  0
  138.1891  157.5459  132.7852 H   0  0  0  0  0  0  0  0  0  0  0  0
  139.3104  156.1426  132.7852 H   0  0  0  0  0  0  0  0  0  0  0  0
  138.9447  159.7817  133.3201 H   0  0  0  0  0  0  0  0  0  0  0  0
  140.9023  161.3591  133.4580 H   0  0  0  0  0  0  0  0  0  0  0  0
  143.7502  161.4354  133.6775 H   0  0  0  0  0  0  0  0  0  0  0  0
  147.8930  158.6070  133.8570 H   0  0  0  0  0  0  0  0  0  0  0  0
  146.5180  157.4560  133.7800 H   0  0  0  0  0  0  0  0  0  0  0  0
  145.2181  152.4481  133.6874 H   0  0  0  0  0  0  0  0  0  0  0  0
  146.3952  152.0256  132.3931 H   0  0  0  0  0  0  0  0  0  0  0  0
  148.2120  160.2499  129.2021 H   0  0  0  0  0  0  0  0  0  0  0  0
  148.7283  160.3975  132.1727 H   0  0  0  0  0  0  0  0  0  0  0  0
  148.9555  161.8944  131.2061 H   0  0  0  0  0  0  0  0  0  0  0  0
  147.3659  161.0579  131.2061 H   0  0  0  0  0  0  0  0  0  0  0  0
  150.9345  160.6513  130.4876 H   0  0  0  0  0  0  0  0  0  0  0  0
  150.7459  159.6645  128.9985 H   0  0  0  0  0  0  0  0  0  0  0  0
  150.2568  161.3929  128.9985 H   0  0  0  0  0  0  0  0  0  0  0  0
  141.6666  156.3829  133.5227 H   0  0  0  0  0  0  0  0  0  0  0  0
  1  2  1  0
  2  3  2  0
  3  4  1  0
  4  5  2  0
  5  6  1  0
  6  7  2  0
  7  8  1  0
  8  9  1  0
  8 10  2  0
  7 11  1  0
 11 12  1  0
 12 13  2  0
 12 14  1  0
 14 15  1  0
 15 16  2  0
 15 17  1  0
 17 18  1  0
 18 19  1  0
 19 20  1  0
 20 21  2  0
 20 22  1  0
 22 23  1  0
 23 24  2  0
 23 25  1  0
 25 26  1  0
 26 27  2  0
 26 28  1  0
 28 29  1  0
 29 30  1  0
 29 31  1  0
 11 32  1  0
 32 33  2  0
 33  2  1  0
 32  5  1  0
  1 34  1  0
  1 35  1  0
  1 36  1  0
  3 37  1  0
  4 38  1  0
  6 39  1  0
  9 40  1  0
  9 41  1  0
 18 42  1  0
 18 43  1  0
 29 44  1  0
 30 45  1  0
 30 46  1  0
 30 47  1  0
 31 48  1  0
 31 49  1  0
 31 50  1  0
 33 51  1  0
M  END
>  <UniqueID>  (1) 
1

>  <SMILES>  (1) 
Cc1ccc2cc(C(N)=O)n(C(=O)OC(=O)OCOC(=O)OC(=O)OC(=O)OC(C)C)c2c1

>  <Energy>  (1) 
85.74953289778081

>  <Genealogy>  (1) 
Cc1ccc2cc(C(N)=O)n(C(=O)OC(=O)OCOC(=O)OC(=O)OC(=O)OC(C)C)c2c1 (3D coordinates assigned)
Cc1ccc2cc(C(N)=O)n(C(=O)OC(=O)OCOC(=O)OC(=O)OC(=O)OC(C)C)c2c1 (optimized conformer: 85.74953289778081 kcal/mol)

>  <smiles>  (1) 
Cc1ccc2cc(C(N)=O)n(C(=O)OC(=O)OCOC(=O)OC(=O)OC(=O)OC(C)C)c2c1

>  <score_type>  (1) 
oracle

>  <origin>  (1) 
adg

>  <m_score__min__energy>  (1) 
-6.9299999999999997

>  <m_primary>  (1) 
energy

$$$$
1:0
     RDKit          3D

 28 29  0  0  0  0  0  0  0  0999 V2000
  142.1080  157.3830  135.3950 C   0  0  0  0  0  0  0  0  0  0  0  0
  143.2540  157.1130  134.7720 C   0  0  0  0  0  0  0  0  0  0  0  0
  143.6930  157.8330  133.5630 C   0  0  0  0  0  0  0  0  0  0  0  0
  142.9410  157.8460  132.5520 O   0  0  0  0  0  0  0  0  0  0  0  0
  144.9570  158.5130  133.5080 N   0  0  0  0  0  0  0  0  0  0  0  0
  145.1810  159.8570  133.5030 C   0  0  0  0  0  0  0  0  0  0  0  0
  144.1540  160.9050  133.6730 C   0  0  0  0  0  0  0  0  0  0  0  0
  142.7840  160.6480  133.3770 N   0  0  0  0  0  0  0  0  0  0  0  0
  144.4870  162.0400  134.1100 O   0  0  0  0  0  0  0  0  0  0  0  0
  146.5420  160.1210  133.3540 C   0  0  0  0  0  0  0  0  0  0  0  0
  147.1460  158.8880  133.2610 C   0  0  0  0  0  0  0  0  0  0  0  0
  148.4870  158.5540  133.1000 C   0  0  0  0  0  0  0  0  0  0  0  0
  148.8230  157.1920  133.0180 C   0  0  0  0  0  0  0  0  0  0  0  0
  147.8170  156.1910  133.0740 C   0  0  0  0  0  0  0  0  0  0  0  0
  148.1930  154.7320  133.0290 C   0  0  0  0  0  0  0  0  0  0  0  0
  149.3120  154.5410  132.2370 F   0  0  0  0  0  0  0  0  0  0  0  0
  147.1400  154.0080  132.5030 F   0  0  0  0  0  0  0  0  0  0  0  0
  148.4760  154.2600  134.2990 F   0  0  0  0  0  0  0  0  0  0  0  0
  146.4670  156.5710  133.2590 C   0  0  0  0  0  0  0  0  0  0  0  0
  146.1670  157.9350  133.3520 C   0  0  0  0  0  0  0  0  0  0  0  0
  141.8245  156.8171  136.2947 H   0  0  0  0  0  0  0  0  0  0  0  0
  141.4451  158.1718  135.0098 H   0  0  0  0  0  0  0  0  0  0  0  0
  143.8997  156.3197  135.1766 H   0  0  0  0  0  0  0  0  0  0  0  0
  142.5140  159.9790  132.6210 H   0  0  0  0  0  0  0  0  0  0  0  0
  147.0297  161.1063  133.3183 H   0  0  0  0  0  0  0  0  0  0  0  0
  149.2612  159.3330  133.0387 H   0  0  0  0  0  0  0  0  0  0  0  0
  149.8773  156.8977  132.9092 H   0  0  0  0  0  0  0  0  0  0  0  0
  145.6726  155.8133  133.3281 H   0  0  0  0  0  0  0  0  0  0  0  0
  1  2  2  0
  2  3  1  0
  3  4  2  0
  3  5  1  0
  5  6  1  0
  6  7  1  0
  7  8  1  0
  7  9  2  0
  6 10  2  0
 10 11  1  0
 11 12  2  0
 12 13  1  0
 13 14  2  0
 14 15  1  0
 15 16  1  0
 15 17  1  0
 15 18  1  0
 14 19  1  0
 19 20  2  0
 20  5  1  0
 20 11  1  0
  1 21  1  0
  1 22  1  0
  2 23  1  0
  8 24  1  0
 10 25  1  0
 12 26  1  0
 13 27  1  0
 19 28  1  0
M  CHG  1   8  -1
M  END
>  <UniqueID>  (2) 
2

>  <SMILES>  (2) 
C=CC(=O)n1c(C([NH-])=O)cc2ccc(C(F)(F)F)cc21

>  <Energy>  (2) 
67.65074280252361

>  <Genealogy>  (2) 
C=CC(=O)n1c(C([NH-])=O)cc2ccc(C(F)(F)F)cc21 (protonated)
C=CC(=O)n1c(C([NH-])=O)cc2ccc(C(F)(F)F)cc21 (3D coordinates assigned)
C=CC(=O)n1c(C([NH-])=O)cc2ccc(C(F)(F)F)cc21 (optimized conformer: 67.65074280252361 kcal/mol)

>  <smiles>  (2) 
C=CC(=O)n1c(C(N)=O)cc2ccc(C(F)(F)F)cc21

>  <score_type>  (2) 
oracle

>  <origin>  (2) 
adg

>  <m_score__min__energy>  (2) 
-5.9199999999999999

>  <m_primary>  (2) 
energy

$$$$
2:0
     RDKit          3D

 37 38  0  0  0  0  0  0  0  0999 V2000
  146.7000  154.0560  132.9810 C   0  0  0  0  0  0  0  0  0  0  0  0
  147.8540  154.9560  132.8660 N   0  0  0  0  0  0  0  0  0  0  0  0
  149.1780  154.3810  132.5960 C   0  0  0  0  0  0  0  0  0  0  0  0
  147.6900  156.3900  133.0150 C   0  0  0  0  0  0  0  0  0  0  0  0
  148.8170  157.2600  132.9670 C   0  0  0  0  0  0  0  0  0  0  0  0
  148.6670  158.6500  133.1010 C   0  0  0  0  0  0  0  0  0  0  0  0
  147.3870  159.1540  133.2890 C   0  0  0  0  0  0  0  0  0  0  0  0
  146.9590  160.4560  133.4220 C   0  0  0  0  0  0  0  0  0  0  0  0
  145.5760  160.3750  133.5750 C   0  0  0  0  0  0  0  0  0  0  0  0
  144.7180  161.5490  133.8400 C   0  0  0  0  0  0  0  0  0  0  0  0
  143.3170  161.5070  133.5810 N   0  0  0  0  0  0  0  0  0  0  0  0
  145.2210  162.5870  134.3470 O   0  0  0  0  0  0  0  0  0  0  0  0
  145.1660  159.0760  133.5290 N   0  0  0  0  0  0  0  0  0  0  0  0
  143.8230  158.5740  133.5720 C   0  0  0  0  0  0  0  0  0  0  0  0
  143.3910  157.8500  132.6320 O   0  0  0  0  0  0  0  0  0  0  0  0
  143.0060  158.8680  134.6700 O   0  0  0  0  0  0  0  0  0  0  0  0
  141.6260  158.5160  134.7420 C   0  0  0  0  0  0  0  0  0  0  0  0
  140.7760  159.4710  133.9000 C   0  0  0  0  0  0  0  0  0  0  0  0
  141.3330  159.6290  132.6240 O   0  0  0  0  0  0  0  0  0  0  0  0
  146.2880  158.3410  133.3580 C   0  0  0  0  0  0  0  0  0  0  0  0
  146.4020  156.9540  133.2080 C   0  0  0  0  0  0  0  0  0  0  0  0
  146.4758  153.8812  134.0436 H   0  0  0  0  0  0  0  0  0  0  0  0
  145.8274  154.5144  132.4928 H   0  0  0  0  0  0  0  0  0  0  0  0
  146.9321  153.0980  132.4928 H   0  0  0  0  0  0  0  0  0  0  0  0
  149.6835  154.1615  133.5480 H   0  0  0  0  0  0  0  0  0  0  0  0
  149.0634  153.4516  132.0189 H   0  0  0  0  0  0  0  0  0  0  0  0
  149.7789  155.0992  132.0189 H   0  0  0  0  0  0  0  0  0  0  0  0
  149.8217  156.8360  132.8225 H   0  0  0  0  0  0  0  0  0  0  0  0
  149.5384  159.3200  133.0582 H   0  0  0  0  0  0  0  0  0  0  0  0
  147.5769  161.3660  133.4100 H   0  0  0  0  0  0  0  0  0  0  0  0
  142.7810  160.6150  133.6690 H   0  0  0  0  0  0  0  0  0  0  0  0
  141.4955  157.4905  134.3661 H   0  0  0  0  0  0  0  0  0  0  0  0
  141.2992  158.5845  135.7901 H   0  0  0  0  0  0  0  0  0  0  0  0
  139.7598  159.0612  133.8031 H   0  0  0  0  0  0  0  0  0  0  0  0
  140.7439  160.4514  134.3978 H   0  0  0  0  0  0  0  0  0  0  0  0
  142.3120  159.7380  132.7510 H   0  0  0  0  0  0  0  0  0  0  0  0
  145.5090  156.3124  133.2391 H   0  0  0  0  0  0  0  0  0  0  0  0
  1  2  1  0
  2  3  1  0
  2  4  1  0
  4  5  2  0
  5  6  1  0
  6  7  2  0
  7  8  1  0
  8  9  2  0
  9 10  1  0
 10 11  1  0
 10 12  2  0
  9 13  1  0
 13 14  1  0
 14 15  2  0
 14 16  1  0
 16 17  1  0
 17 18  1  0
 18 19  1  0
 13 20  1  0
 20 21  2  0
 21  4  1  0
 20  7  1  0
  1 22  1  0
  1 23  1  0
  1 24  1  0
  3 25  1  0
  3 26  1  0
  3 27  1  0
  5 28  1  0
  6 29  1  0
  8 30  1  0
 11 31  1  0
 17 32  1  0
 17 33  1  0
 18 34  1  0
 18 35  1  0
 19 36  1  0
 21 37  1  0
M  CHG  1  11  -1
M  END
>  <UniqueID>  (3) 
3

>  <SMILES>  (3) 
CN(C)c1ccc2cc(C([NH-])=O)n(C(=O)OCCO)c2c1

>  <Energy>  (3) 
73.920030711854

>  <Genealogy>  (3) 
CN(C)c1ccc2cc(C([NH-])=O)n(C(=O)OCCO)c2c1 (protonated)
CN(C)c1ccc2cc(C([NH-])=O)n(C(=O)OCCO)c2c1 (3D coordinates assigned)
CN(C)c1ccc2cc(C([NH-])=O)n(C(=O)OCCO)c2c1 (optimized conformer: 73.920030711854 kcal/mol)

>  <smiles>  (3) 
CN(C)c1ccc2cc(C(N)=O)n(C(=O)OCCO)c2c1

>  <score_type>  (3) 
oracle

>  <origin>  (3) 
adg

>  <m_score__min__energy>  (3) 
-5.2999999999999998

>  <m_primary>  (3) 
energy

$$$$
3:0
     RDKit          3D

 35 36  0  0  0  0  0  0  0  0999 V2000
  149.7130  150.7300  134.7880 C   0  0  0  0  0  0  0  0  0  0  0  0
  149.2860  150.2030  133.5360 O   0  0  0  0  0  0  0  0  0  0  0  0
  148.6410  150.9830  132.5720 C   0  0  0  0  0  0  0  0  0  0  0  0
  147.4780  150.6940  132.1830 O   0  0  0  0  0  0  0  0  0  0  0  0
  149.3550  152.1560  131.9780 C   0  0  0  0  0  0  0  0  0  0  0  0
  148.5000  153.2970  131.9480 O   0  0  0  0  0  0  0  0  0  0  0  0
  148.8520  154.5350  132.4980 C   0  0  0  0  0  0  0  0  0  0  0  0
  150.0670  154.8600  132.6080 O   0  0  0  0  0  0  0  0  0  0  0  0
  147.8270  155.4350  132.9470 N   0  0  0  0  0  0  0  0  0  0  0  0
  146.6400  155.1170  133.5380 C   0  0  0  0  0  0  0  0  0  0  0  0
  146.2320  153.7620  133.9700 C   0  0  0  0  0  0  0  0  0  0  0  0
  146.2480  152.6670  133.0520 N   0  0  0  0  0  0  0  0  0  0  0  0
  145.8340  153.5670  135.1500 O   0  0  0  0  0  0  0  0  0  0  0  0
  145.8910  156.2680  133.7750 C   0  0  0  0  0  0  0  0  0  0  0  0
  146.6620  157.3090  133.3100 C   0  0  0  0  0  0  0  0  0  0  0  0
  146.4010  158.6760  133.2890 C   0  0  0  0  0  0  0  0  0  0  0  0
  147.3710  159.5220  132.7260 C   0  0  0  0  0  0  0  0  0  0  0  0
  148.5720  158.9920  132.1930 C   0  0  0  0  0  0  0  0  0  0  0  0
  149.5870  159.9130  131.5810 C   0  0  0  0  0  0  0  0  0  0  0  0
  149.9870  159.4140  130.3540 F   0  0  0  0  0  0  0  0  0  0  0  0
  149.0340  161.1680  131.4060 F   0  0  0  0  0  0  0  0  0  0  0  0
  148.8020  157.5980  132.2320 C   0  0  0  0  0  0  0  0  0  0  0  0
  147.8270  156.7800  132.8160 C   0  0  0  0  0  0  0  0  0  0  0  0
  149.2489  150.1572  135.6044 H   0  0  0  0  0  0  0  0  0  0  0  0
  150.8078  150.6545  134.8634 H   0  0  0  0  0  0  0  0  0  0  0  0
  149.4122  151.7854  134.8634 H   0  0  0  0  0  0  0  0  0  0  0  0
  150.2432  152.3848  132.5852 H   0  0  0  0  0  0  0  0  0  0  0  0
  149.6536  151.9075  130.9489 H   0  0  0  0  0  0  0  0  0  0  0  0
  145.9200  151.7230  133.3570 H   0  0  0  0  0  0  0  0  0  0  0  0
  146.6220  152.7760  132.0840 H   0  0  0  0  0  0  0  0  0  0  0  0
  144.8944  156.3312  134.2362 H   0  0  0  0  0  0  0  0  0  0  0  0
  145.4647  159.0812  133.7003 H   0  0  0  0  0  0  0  0  0  0  0  0
  147.1962  160.6077  132.6987 H   0  0  0  0  0  0  0  0  0  0  0  0
  150.4569  159.9865  132.2503 H   0  0  0  0  0  0  0  0  0  0  0  0
  149.7236  157.1666  131.8142 H   0  0  0  0  0  0  0  0  0  0  0  0
  1  2  1  0
  2  3  1  0
  3  4  2  0
  3  5  1  0
  5  6  1  0
  6  7  1  0
  7  8  2  0
  7  9  1  0
  9 10  1  0
 10 11  1  0
 11 12  1  0
 11 13  2  0
 10 14  2  0
 14 15  1  0
 15 16  2  0
 16 17  1  0
 17 18  2  0
 18 19  1  0
 19 20  1  0
 19 21  1  0
 18 22  1  0
 22 23  2  0
 23  9  1  0
 23 15  1  0
  1 24  1  0
  1 25  1  0
  1 26  1  0
  5 27  1  0
  5 28  1  0
 12 29  1  0
 12 30  1  0
 14 31  1  0
 16 32  1  0
 17 33  1  0
 19 34  1  0
 22 35  1  0
M  END
>  <UniqueID>  (4) 
4

>  <SMILES>  (4) 
COC(=O)COC(=O)n1c(C(N)=O)cc2ccc(C(F)F)cc21

>  <Energy>  (4) 
68.59251780085424

>  <Genealogy>  (4) 
COC(=O)COC(=O)n1c(C(N)=O)cc2ccc(C(F)F)cc21 (3D coordinates assigned)
COC(=O)COC(=O)n1c(C(N)=O)cc2ccc(C(F)F)cc21 (optimized conformer: 68.59251780085424 kcal/mol)

>  <smiles>  (4) 
COC(=O)COC(=O)n1c(C(N)=O)cc2ccc(C(F)F)cc21

>  <score_type>  (4) 
oracle

>  <origin>  (4) 
adg

>  <m_score__min__energy>  (4) 
-5.8799999999999999

>  <m_primary>  (4) 
energy

$$$$
4:0
     RDKit          3D

 44 46  0  0  0  0  0  0  0  0999 V2000
  148.4850  158.7190  134.1360 C   0  0  0  0  0  0  0  0  0  0  0  0
  147.8510  158.9710  132.7840 C   0  0  0  0  0  0  0  0  0  0  0  0
  146.8450  160.1130  132.9650 C   0  0  0  0  0  0  0  0  0  0  0  0
  148.9490  159.3600  131.8190 C   0  0  0  0  0  0  0  0  0  0  0  0
  147.1250  157.8280  132.3640 O   0  0  0  0  0  0  0  0  0  0  0  0
  146.6130  156.9280  133.2680 C   0  0  0  0  0  0  0  0  0  0  0  0
  147.0660  155.7640  133.4160 O   0  0  0  0  0  0  0  0  0  0  0  0
  145.5390  157.3180  134.0580 O   0  0  0  0  0  0  0  0  0  0  0  0
  144.2480  157.4330  133.5830 C   0  0  0  0  0  0  0  0  0  0  0  0
  144.0060  158.5260  132.9610 O   0  0  0  0  0  0  0  0  0  0  0  0
  143.2260  156.4680  133.7310 N   0  0  0  0  0  0  0  0  0  0  0  0
  143.3310  155.2350  134.2530 C   0  0  0  0  0  0  0  0  0  0  0  0
  144.4650  154.5320  134.8040 C   0  0  0  0  0  0  0  0  0  0  0  0
  145.3340  155.2170  135.7230 N   0  0  0  0  0  0  0  0  0  0  0  0
  144.7870  153.3480  134.5600 O   0  0  0  0  0  0  0  0  0  0  0  0
  142.0550  154.6580  134.1850 C   0  0  0  0  0  0  0  0  0  0  0  0
  141.1890  155.5610  133.6170 C   0  0  0  0  0  0  0  0  0  0  0  0
  139.8330  155.4750  133.3320 C   0  0  0  0  0  0  0  0  0  0  0  0
  139.1950  156.5320  132.7550 C   0  0  0  0  0  0  0  0  0  0  0  0
  139.9120  157.6730  132.4640 C   0  0  0  0  0  0  0  0  0  0  0  0
  139.2470  158.8190  131.8440 C   0  0  0  0  0  0  0  0  0  0  0  0
  139.4370  160.1060  132.1750 N   0  0  0  0  0  0  0  0  0  0  0  0
  138.6720  160.8530  131.4080 O   0  0  0  0  0  0  0  0  0  0  0  0
  137.9860  160.1050  130.5830 C   0  0  0  0  0  0  0  0  0  0  0  0
  137.1540  160.4900  129.7060 O   0  0  0  0  0  0  0  0  0  0  0  0
  138.3420  158.8350  130.8520 N   0  0  0  0  0  0  0  0  0  0  0  0
  141.2670  157.7410  132.7560 C   0  0  0  0  0  0  0  0  0  0  0  0
  141.9450  156.6760  133.3450 C   0  0  0  0  0  0  0  0  0  0  0  0
  147.7781  159.0000  134.9306 H   0  0  0  0  0  0  0  0  0  0  0  0
  148.7370  157.6524  134.2297 H   0  0  0  0  0  0  0  0  0  0  0  0
  149.4005  159.3216  134.2297 H   0  0  0  0  0  0  0  0  0  0  0  0
  146.6853  160.2943  134.0381 H   0  0  0  0  0  0  0  0  0  0  0  0
  147.2378  161.0259  132.4934 H   0  0  0  0  0  0  0  0  0  0  0  0
  145.8899  159.8385  132.4934 H   0  0  0  0  0  0  0  0  0  0  0  0
  149.8388  159.6752  132.3837 H   0  0  0  0  0  0  0  0  0  0  0  0
  149.2033  158.4972  131.1858 H   0  0  0  0  0  0  0  0  0  0  0  0
  148.6034  160.1904  131.1858 H   0  0  0  0  0  0  0  0  0  0  0  0
  146.2220  155.6820  135.3890 H   0  0  0  0  0  0  0  0  0  0  0  0
  145.0430  155.2320  136.7350 H   0  0  0  0  0  0  0  0  0  0  0  0
  141.7904  153.6476  134.5300 H   0  0  0  0  0  0  0  0  0  0  0  0
  139.2757  154.5572  133.5710 H   0  0  0  0  0  0  0  0  0  0  0  0
  138.1210  156.4755  132.5242 H   0  0  0  0  0  0  0  0  0  0  0  0
  137.9620  158.0070  130.3550 H   0  0  0  0  0  0  0  0  0  0  0  0
  141.8207  158.6607  132.5159 H   0  0  0  0  0  0  0  0  0  0  0  0
  1  2  1  0
  2  3  1  0
  2  4  1  0
  2  5  1  0
  5  6  1  0
  6  7  2  0
  6  8  1  0
  8  9  1  0
  9 10  2  0
  9 11  1  0
 11 12  1  0
 12 13  1  0
 13 14  1  0
 13 15  2  0
 12 16  2  0
 16 17  1  0
 17 18  2  0
 18 19  1  0
 19 20  2  0
 20 21  1  0
 21 22  2  0
 22 23  1  0
 23 24  1  0
 24 25  2  0
 24 26  1  0
 20 27  1  0
 27 28  2  0
 28 11  1  0
 28 17  1  0
 26 21  1  0
  1 29  1  0
  1 30  1  0
  1 31  1  0
  3 32  1  0
  3 33  1  0
  3 34  1  0
  4 35  1  0
  4 36  1  0
  4 37  1  0
 14 38  1  0
 14 39  1  0
 16 40  1  0
 18 41  1  0
 19 42  1  0
 26 43  1  0
 27 44  1  0
M  END
>  <smiles>  (5) 
CC(C)(C)OC(=O)OC(=O)n1c(C(N)=O)cc2ccc(-c3noc(=O)[nH]3)cc21

>  <score_type>  (5) 
oracle

>  <origin>  (5) 
adg

>  <m_score__min__energy>  (5) 
-8.8599999999999994

>  <m_primary>  (5) 
energy

$$$$
5:0
     RDKit          3D

 35 36  0  0  0  0  0  0  0  0999 V2000
  149.0430  157.2400  132.6030 C   0  0  0  0  0  0  0  0  0  0  0  0
  147.9280  158.2010  132.8890 C   0  0  0  0  0  0  0  0  0  0  0  0
  148.2080  159.5770  133.0810 C   0  0  0  0  0  0  0  0  0  0  0  0
  147.1740  160.4840  133.3680 C   0  0  0  0  0  0  0  0  0  0  0  0
  145.8800  159.9840  133.4830 C   0  0  0  0  0  0  0  0  0  0  0  0
  144.6940  160.6420  133.7120 C   0  0  0  0  0  0  0  0  0  0  0  0
  143.7160  159.6500  133.7060 C   0  0  0  0  0  0  0  0  0  0  0  0
  142.2820  159.9150  133.9450 C   0  0  0  0  0  0  0  0  0  0  0  0
  141.3580  160.0330  132.8620 N   0  0  0  0  0  0  0  0  0  0  0  0
  141.8580  159.9910  135.1290 O   0  0  0  0  0  0  0  0  0  0  0  0
  144.2730  158.4270  133.4790 N   0  0  0  0  0  0  0  0  0  0  0  0
  143.5900  157.1790  133.2800 C   0  0  0  0  0  0  0  0  0  0  0  0
  144.2020  156.2160  132.7450 O   0  0  0  0  0  0  0  0  0  0  0  0
  142.2120  157.0480  133.6630 N   0  0  0  0  0  0  0  0  0  0  0  0
  141.4890  155.8100  133.6510 C   0  0  0  0  0  0  0  0  0  0  0  0
  142.0630  154.7320  133.3350 O   0  0  0  0  0  0  0  0  0  0  0  0
  140.1350  155.8110  134.0030 O   0  0  0  0  0  0  0  0  0  0  0  0
  139.1310  156.4900  133.2530 C   0  0  0  0  0  0  0  0  0  0  0  0
  139.4360  157.9520  133.1790 C   0  0  0  0  0  0  0  0  0  0  0  0
  139.6280  158.6160  134.2310 O   0  0  0  0  0  0  0  0  0  0  0  0
  139.5350  158.5780  131.9420 O   0  0  0  0  0  0  0  0  0  0  0  0
  145.5990  158.6490  133.3400 C   0  0  0  0  0  0  0  0  0  0  0  0
  146.6050  157.7270  133.0250 C   0  0  0  0  0  0  0  0  0  0  0  0
  149.4655  156.8759  133.5511 H   0  0  0  0  0  0  0  0  0  0  0  0
  148.6544  156.3893  132.0240 H   0  0  0  0  0  0  0  0  0  0  0  0
  149.8271  157.7499  132.0240 H   0  0  0  0  0  0  0  0  0  0  0  0
  149.2442  159.9382  133.0046 H   0  0  0  0  0  0  0  0  0  0  0  0
  147.3808  161.5566  133.4979 H   0  0  0  0  0  0  0  0  0  0  0  0
  144.5488  161.7213  133.8669 H   0  0  0  0  0  0  0  0  0  0  0  0
  140.3600  160.2720  133.0510 H   0  0  0  0  0  0  0  0  0  0  0  0
  141.6340  159.7910  131.8850 H   0  0  0  0  0  0  0  0  0  0  0  0
  141.6960  157.9070  133.9540 H   0  0  0  0  0  0  0  0  0  0  0  0
  139.0961  156.0749  132.2349 H   0  0  0  0  0  0  0  0  0  0  0  0
  138.1595  156.3526  133.7504 H   0  0  0  0  0  0  0  0  0  0  0  0
  146.3705  156.6612  132.8871 H   0  0  0  0  0  0  0  0  0  0  0  0
  1  2  1  0
  2  3  2  0
  3  4  1  0
  4  5  2  0
  5  6  1  0
  6  7  2  0
  7  8  1  0
  8  9  1  0
  8 10  2  0
  7 11  1  0
 11 12  1  0
 12 13  2  0
 12 14  1  0
 14 15  1  0
 15 16  2  0
 15 17  1  0
 17 18  1  0
 18 19  1  0
 19 20  2  0
 19 21  1  0
 11 22  1  0
 22 23  2  0
 23  2  1  0
 22  5  1  0
  1 24  1  0
  1 25  1  0
  1 26  1  0
  3 27  1  0
  4 28  1  0
  6 29  1  0
  9 30  1  0
  9 31  1  0
 14 32  1  0
 18 33  1  0
 18 34  1  0
 23 35  1  0
M  CHG  1  21  -1
M  END
>  <UniqueID>  (6) 
5

>  <SMILES>  (6) 
Cc1ccc2cc(C(N)=O)n(C(=O)NC(=O)OCC(=O)[O-])c2c1

>  <Energy>  (6) 
72.02782839636902

>  <Genealogy>  (6) 
Cc1ccc2cc(C(N)=O)n(C(=O)NC(=O)OCC(=O)[O-])c2c1 (protonated)
Cc1ccc2cc(C(N)=O)n(C(=O)NC(=O)OCC(=O)[O-])c2c1 (3D coordinates assigned)
Cc1ccc2cc(C(N)=O)n(C(=O)NC(=O)OCC(=O)[O-])c2c1 (optimized conformer: 72.02782839636902 kcal/mol)

>  <smiles>  (6) 
Cc1ccc2cc(C(N)=O)n(C(=O)NC(=O)OCC(=O)O)c2c1

>  <score_type>  (6) 
oracle

>  <origin>  (6) 
adg

>  <m_score__min__energy>  (6) 
-6.3300000000000001

>  <m_primary>  (6) 
energy

$$$$
6:0
     RDKit          3D

 34 35  0  0  0  0  0  0  0  0999 V2000
  149.1080  161.7050  130.3670 C   0  0  0  0  0  0  0  0  0  0  0  0
  148.9270  160.4310  131.1370 C   0  0  0  0  0  0  0  0  0  0  0  0
  150.0230  159.5540  131.3270 C   0  0  0  0  0  0  0  0  0  0  0  0
  149.8740  158.3720  132.0740 C   0  0  0  0  0  0  0  0  0  0  0  0
  148.6260  158.1060  132.6320 C   0  0  0  0  0  0  0  0  0  0  0  0
  148.1960  157.0360  133.3860 C   0  0  0  0  0  0  0  0  0  0  0  0
  146.8550  157.2960  133.6630 C   0  0  0  0  0  0  0  0  0  0  0  0
  145.9910  156.4140  134.4770 C   0  0  0  0  0  0  0  0  0  0  0  0
  144.5930  156.3440  134.2080 N   0  0  0  0  0  0  0  0  0  0  0  0
  146.4800  155.7120  135.4000 O   0  0  0  0  0  0  0  0  0  0  0  0
  146.4770  158.4800  133.1100 N   0  0  0  0  0  0  0  0  0  0  0  0
  145.1740  159.0780  133.1220 C   0  0  0  0  0  0  0  0  0  0  0  0
  144.2750  158.6070  132.3740 O   0  0  0  0  0  0  0  0  0  0  0  0
  144.8910  160.2090  133.9720 N   0  0  0  0  0  0  0  0  0  0  0  0
  143.6010  160.2900  134.6640 C   0  0  0  0  0  0  0  0  0  0  0  0
  145.8710  161.2950  134.1010 C   0  0  0  0  0  0  0  0  0  0  0  0
  145.1780  162.5670  134.4720 C   0  0  0  0  0  0  0  0  0  0  0  0
  144.2750  163.0340  133.7300 O   0  0  0  0  0  0  0  0  0  0  0  0
  145.4980  163.2140  135.6580 O   0  0  0  0  0  0  0  0  0  0  0  0
  147.5660  158.9610  132.4770 C   0  0  0  0  0  0  0  0  0  0  0  0
  147.6800  160.1360  131.7290 C   0  0  0  0  0  0  0  0  0  0  0  0
  149.2272  162.5437  131.0687 H   0  0  0  0  0  0  0  0  0  0  0  0
  150.0040  161.6266  129.7338 H   0  0  0  0  0  0  0  0  0  0  0  0
  148.2256  161.8792  129.7338 H   0  0  0  0  0  0  0  0  0  0  0  0
  151.0002  159.8000  130.8859 H   0  0  0  0  0  0  0  0  0  0  0  0
  150.7169  157.6791  132.2133 H   0  0  0  0  0  0  0  0  0  0  0  0
  148.7854  156.1627  133.7020 H   0  0  0  0  0  0  0  0  0  0  0  0
  144.0440  157.2070  133.9990 H   0  0  0  0  0  0  0  0  0  0  0  0
  143.7669  160.2796  135.7514 H   0  0  0  0  0  0  0  0  0  0  0  0
  143.0904  161.2220  134.3799 H   0  0  0  0  0  0  0  0  0  0  0  0
  142.9778  159.4292  134.3799 H   0  0  0  0  0  0  0  0  0  0  0  0
  146.6008  161.0364  134.8824 H   0  0  0  0  0  0  0  0  0  0  0  0
  146.3872  161.4320  133.1394 H   0  0  0  0  0  0  0  0  0  0  0  0
  146.8215  160.8124  131.6050 H   0  0  0  0  0  0  0  0  0  0  0  0
  1  2  1  0
  2  3  2  0
  3  4  1  0
  4  5  2  0
  5  6  1  0
  6  7  2  0
  7  8  1  0
  8  9  1  0
  8 10  2  0
  7 11  1  0
 11 12  1  0
 12 13  2  0
 12 14  1  0
 14 15  1  0
 14 16  1  0
 16 17  1  0
 17 18  2  0
 17 19  1  0
 11 20  1  0
 20 21  2  0
 21  2  1  0
 20  5  1  0
  1 22  1  0
  1 23  1  0
  1 24  1  0
  3 25  1  0
  4 26  1  0
  6 27  1  0
  9 28  1  0
 15 29  1  0
 15 30  1  0
 15 31  1  0
 16 32  1  0
 16 33  1  0
 21 34  1  0
M  CHG  2   9  -1  19  -1
M  END
>  <UniqueID>  (7) 
6

>  <SMILES>  (7) 
Cc1ccc2cc(C([NH-])=O)n(C(=O)N(C)CC(=O)[O-])c2c1

>  <Energy>  (7) 
69.56787896510562

>  <Genealogy>  (7) 
Cc1ccc2cc(C([NH-])=O)n(C(=O)N(C)CC(=O)[O-])c2c1 (protonated)
Cc1ccc2cc(C([NH-])=O)n(C(=O)N(C)CC(=O)[O-])c2c1 (3D coordinates assigned)
Cc1ccc2cc(C([NH-])=O)n(C(=O)N(C)CC(=O)[O-])c2c1 (optimized conformer: 69.56787896510562 kcal/mol)

>  <smiles>  (7) 
Cc1ccc2cc(C(N)=O)n(C(=O)N(C)CC(=O)O)c2c1

>  <score_type>  (7) 
oracle

>  <origin>  (7) 
adg

>  <m_score__min__energy>  (7) 
-6.3700000000000001

>  <m_primary>  (7) 
energy

$$$$
7:0
     RDKit          3D

 41 44  0  0  0  0  0  0  0  0999 V2000
  139.6900  156.8450  133.9780 C   0  0  0  0  0  0  0  0  0  0  0  0
  140.3480  157.7430  134.9730 C   0  0  0  0  0  0  0  0  0  0  0  0
  139.8650  158.8970  135.3680 O   0  0  0  0  0  0  0  0  0  0  0  0
  140.7430  159.3820  136.2170 C   0  0  0  0  0  0  0  0  0  0  0  0
  140.6070  160.4860  136.8060 O   0  0  0  0  0  0  0  0  0  0  0  0
  141.7770  158.5900  136.3830 O   0  0  0  0  0  0  0  0  0  0  0  0
  141.5630  157.5520  135.6090 C   0  0  0  0  0  0  0  0  0  0  0  0
  142.4910  156.3820  135.4810 C   0  0  0  0  0  0  0  0  0  0  0  0
  143.6920  156.7580  134.8100 O   0  0  0  0  0  0  0  0  0  0  0  0
  143.7280  157.6900  133.7680 C   0  0  0  0  0  0  0  0  0  0  0  0
  142.7320  157.8410  133.0080 O   0  0  0  0  0  0  0  0  0  0  0  0
  144.9260  158.4430  133.5320 N   0  0  0  0  0  0  0  0  0  0  0  0
  145.0950  159.7910  133.6210 C   0  0  0  0  0  0  0  0  0  0  0  0
  144.0220  160.7890  133.8180 C   0  0  0  0  0  0  0  0  0  0  0  0
  142.6780  160.3820  134.0660 N   0  0  0  0  0  0  0  0  0  0  0  0
  144.2870  162.0170  133.7260 O   0  0  0  0  0  0  0  0  0  0  0  0
  146.4350  160.1270  133.4350 C   0  0  0  0  0  0  0  0  0  0  0  0
  147.0840  158.9320  133.2290 C   0  0  0  0  0  0  0  0  0  0  0  0
  148.4340  158.6700  133.0190 C   0  0  0  0  0  0  0  0  0  0  0  0
  148.8340  157.3300  132.8850 C   0  0  0  0  0  0  0  0  0  0  0  0
  147.8870  156.2740  132.9710 C   0  0  0  0  0  0  0  0  0  0  0  0
  148.3220  154.8580  132.8460 C   0  0  0  0  0  0  0  0  0  0  0  0
  147.5350  153.7280  132.9910 C   0  0  0  0  0  0  0  0  0  0  0  0
  148.3740  152.6530  132.7860 C   0  0  0  0  0  0  0  0  0  0  0  0
  149.5890  153.0810  132.5360 O   0  0  0  0  0  0  0  0  0  0  0  0
  149.5960  154.3940  132.5650 C   0  0  0  0  0  0  0  0  0  0  0  0
  146.5220  156.5860  133.1850 C   0  0  0  0  0  0  0  0  0  0  0  0
  146.1520  157.9310  133.2940 C   0  0  0  0  0  0  0  0  0  0  0  0
  139.1199  156.0670  134.5069 H   0  0  0  0  0  0  0  0  0  0  0  0
  139.0082  157.4341  133.3470 H   0  0  0  0  0  0  0  0  0  0  0  0
  140.4571  156.3724  133.3470 H   0  0  0  0  0  0  0  0  0  0  0  0
  142.7408  156.0086  136.4851 H   0  0  0  0  0  0  0  0  0  0  0  0
  141.9903  155.5980  134.8940 H   0  0  0  0  0  0  0  0  0  0  0  0
  142.4680  159.4490  134.4850 H   0  0  0  0  0  0  0  0  0  0  0  0
  146.8788  161.1334  133.4498 H   0  0  0  0  0  0  0  0  0  0  0  0
  149.1669  159.4882  132.9596 H   0  0  0  0  0  0  0  0  0  0  0  0
  149.8945  157.0950  132.7112 H   0  0  0  0  0  0  0  0  0  0  0  0
  146.4601  153.6946  133.2224 H   0  0  0  0  0  0  0  0  0  0  0  0
  148.0706  151.5964  132.8260 H   0  0  0  0  0  0  0  0  0  0  0  0
  150.4784  155.0278  132.3926 H   0  0  0  0  0  0  0  0  0  0  0  0
  145.7690  155.7880  133.2638 H   0  0  0  0  0  0  0  0  0  0  0  0
  1  2  1  0
  2  3  1  0
  3  4  1  0
  4  5  2  0
  4  6  1  0
  6  7  1  0
  7  8  1  0
  8  9  1  0
  9 10  1  0
 10 11  2  0
 10 12  1  0
 12 13  1  0
 13 14  1  0
 14 15  1  0
 14 16  2  0
 13 17  2  0
 17 18  1  0
 18 19  2  0
 19 20  1  0
 20 21  2  0
 21 22  1  0
 22 23  1  0
 23 24  2  0
 24 25  1  0
 25 26  1  0
 21 27  1  0
 27 28  2  0
  7  2  2  0
 28 12  1  0
 28 18  1  0
 26 22  2  0
  1 29  1  0
  1 30  1  0
  1 31  1  0
  8 32  1  0
  8 33  1  0
 15 34  1  0
 17 35  1  0
 19 36  1  0
 20 37  1  0
 23 38  1  0
 24 39  1  0
 26 40  1  0
 27 41  1  0
M  CHG  1  15  -1
M  END
>  <UniqueID>  (8) 
7

>  <SMILES>  (8) 
Cc1oc(=O)oc1COC(=O)n1c(C([NH-])=O)cc2ccc(-c3ccoc3)cc21

>  <Energy>  (8) 
142.16877668405715

>  <Genealogy>  (8) 
Cc1oc(=O)oc1COC(=O)n1c(C([NH-])=O)cc2ccc(-c3ccoc3)cc21 (protonated)
Cc1oc(=O)oc1COC(=O)n1c(C([NH-])=O)cc2ccc(-c3ccoc3)cc21 (3D coordinates assigned)
Cc1oc(=O)oc1COC(=O)n1c(C([NH-])=O)cc2ccc(-c3ccoc3)cc21 (optimized conformer: 142.16877668405715 kcal/mol)

>  <smiles>  (8) 
Cc1oc(=O)oc1COC(=O)n1c(C(N)=O)cc2ccc(-c3ccoc3)cc21

>  <score_type>  (8) 
oracle

>  <origin>  (8) 
adg

>  <m_score__min__energy>  (8) 
-7.3099999999999996

>  <m_primary>  (8) 
energy

$$$$
8:0
     RDKit          3D

 42 43  0  0  0  0  0  0  0  0999 V2000
  148.3520  155.0220  132.6410 C   0  0  0  0  0  0  0  0  0  0  0  0
  147.8990  156.4430  132.7960 C   0  0  0  0  0  0  0  0  0  0  0  0
  148.8330  157.5010  132.6810 C   0  0  0  0  0  0  0  0  0  0  0  0
  148.4250  158.8360  132.8450 C   0  0  0  0  0  0  0  0  0  0  0  0
  147.0870  159.0770  133.1440 C   0  0  0  0  0  0  0  0  0  0  0  0
  146.4230  160.2690  133.3230 C   0  0  0  0  0  0  0  0  0  0  0  0
  145.1040  159.9160  133.5910 C   0  0  0  0  0  0  0  0  0  0  0  0
  144.0490  160.9010  133.9070 C   0  0  0  0  0  0  0  0  0  0  0  0
  142.6850  160.5020  134.0570 N   0  0  0  0  0  0  0  0  0  0  0  0
  144.3650  162.1040  134.1030 O   0  0  0  0  0  0  0  0  0  0  0  0
  144.9510  158.5630  133.5670 N   0  0  0  0  0  0  0  0  0  0  0  0
  143.7270  157.8170  133.6850 C   0  0  0  0  0  0  0  0  0  0  0  0
  143.5120  157.1310  134.7210 O   0  0  0  0  0  0  0  0  0  0  0  0
  142.7860  157.8630  132.6470 O   0  0  0  0  0  0  0  0  0  0  0  0
  141.4380  158.2090  132.7960 C   0  0  0  0  0  0  0  0  0  0  0  0
  141.0040  159.3250  132.3970 O   0  0  0  0  0  0  0  0  0  0  0  0
  140.5730  157.2900  133.3990 O   0  0  0  0  0  0  0  0  0  0  0  0
  139.7310  157.6160  134.5050 C   0  0  0  0  0  0  0  0  0  0  0  0
  140.4330  158.5290  135.4780 C   0  0  0  0  0  0  0  0  0  0  0  0
  140.5810  159.7460  135.1740 O   0  0  0  0  0  0  0  0  0  0  0  0
  140.8850  158.0550  136.7640 N   0  0  0  0  0  0  0  0  0  0  0  0
  141.5810  158.9820  137.6630 C   0  0  0  0  0  0  0  0  0  0  0  0
  140.6410  156.6700  137.1820 C   0  0  0  0  0  0  0  0  0  0  0  0
  146.1770  158.0610  133.2940 C   0  0  0  0  0  0  0  0  0  0  0  0
  146.5520  156.7240  133.1130 C   0  0  0  0  0  0  0  0  0  0  0  0
  148.4953  154.5724  133.6346 H   0  0  0  0  0  0  0  0  0  0  0  0
  147.5908  154.4528  132.0873 H   0  0  0  0  0  0  0  0  0  0  0  0
  149.3022  154.9984  132.0873 H   0  0  0  0  0  0  0  0  0  0  0  0
  149.8871  157.2762  132.4614 H   0  0  0  0  0  0  0  0  0  0  0  0
  149.1408  159.6646  132.7403 H   0  0  0  0  0  0  0  0  0  0  0  0
  146.8446  161.2834  133.2664 H   0  0  0  0  0  0  0  0  0  0  0  0
  142.4170  159.4940  134.0720 H   0  0  0  0  0  0  0  0  0  0  0  0
  141.9480  161.2190  134.2410 H   0  0  0  0  0  0  0  0  0  0  0  0
  138.8267  158.1183  134.1310 H   0  0  0  0  0  0  0  0  0  0  0  0
  139.4705  156.6847  135.0292 H   0  0  0  0  0  0  0  0  0  0  0  0
  141.3734  158.7054  138.7072 H   0  0  0  0  0  0  0  0  0  0  0  0
  142.6640  158.9286  137.4779 H   0  0  0  0  0  0  0  0  0  0  0  0
  141.2275  160.0071  137.4779 H   0  0  0  0  0  0  0  0  0  0  0  0
  140.6313  156.6149  138.2806 H   0  0  0  0  0  0  0  0  0  0  0  0
  139.6699  156.3342  136.7894 H   0  0  0  0  0  0  0  0  0  0  0  0
  141.4389  156.0225  136.7894 H   0  0  0  0  0  0  0  0  0  0  0  0
  145.8158  155.9131  133.2152 H   0  0  0  0  0  0  0  0  0  0  0  0
  1  2  1  0
  2  3  2  0
  3  4  1  0
  4  5  2  0
  5  6  1  0
  6  7  2  0
  7  8  1  0
  8  9  1  0
  8 10  2  0
  7 11  1  0
 11 12  1  0
 12 13  2  0
 12 14  1  0
 14 15  1  0
 15 16  2  0
 15 17  1  0
 17 18  1  0
 18 19  1  0
 19 20  2  0
 19 21  1  0
 21 22  1  0
 21 23  1  0
 11 24  1  0
 24 25  2  0
 25  2  1  0
 24  5  1  0
  1 26  1  0
  1 27  1  0
  1 28  1  0
  3 29  1  0
  4 30  1  0
  6 31  1  0
  9 32  1  0
  9 33  1  0
 18 34  1  0
 18 35  1  0
 22 36  1  0
 22 37  1  0
 22 38  1  0
 23 39  1  0
 23 40  1  0
 23 41  1  0
 25 42  1  0
M  END
>  <UniqueID>  (9) 
8

>  <SMILES>  (9) 
Cc1ccc2cc(C(N)=O)n(C(=O)OC(=O)OCC(=O)N(C)C)c2c1

>  <Energy>  (9) 
77.96630034491726

>  <Genealogy>  (9) 
Cc1ccc2cc(C(N)=O)n(C(=O)OC(=O)OCC(=O)N(C)C)c2c1 (3D coordinates assigned)
Cc1ccc2cc(C(N)=O)n(C(=O)OC(=O)OCC(=O)N(C)C)c2c1 (optimized conformer: 77.96630034491726 kcal/mol)

>  <smiles>  (9) 
Cc1ccc2cc(C(N)=O)n(C(=O)OC(=O)OCC(=O)N(C)C)c2c1

>  <score_type>  (9) 
oracle

>  <origin>  (9) 
adg

>  <m_score__min__energy>  (9) 
-6.5700000000000003

>  <m_primary>  (9) 
energy

$$$$
9:0
     RDKit          3D

 35 37  0  0  0  0  0  0  0  0999 V2000
  138.9260  156.8360  133.2110 N   0  0  0  0  0  0  0  0  0  0  0  0
  139.4690  157.7820  134.1320 C   0  0  0  0  0  0  0  0  0  0  0  0
  138.7370  158.2380  135.0520 O   0  0  0  0  0  0  0  0  0  0  0  0
  140.8480  158.2870  133.9860 C   0  0  0  0  0  0  0  0  0  0  0  0
  141.1780  159.6390  134.0430 C   0  0  0  0  0  0  0  0  0  0  0  0
  142.5290  159.6920  133.7960 C   0  0  0  0  0  0  0  0  0  0  0  0
  143.3850  160.7880  133.7530 C   0  0  0  0  0  0  0  0  0  0  0  0
  144.7500  160.5500  133.5170 C   0  0  0  0  0  0  0  0  0  0  0  0
  145.2330  159.2300  133.3350 C   0  0  0  0  0  0  0  0  0  0  0  0
  146.6380  158.9910  133.1180 N   0  0  0  0  0  0  0  0  0  0  0  0
  147.5680  160.1170  132.9660 C   0  0  0  0  0  0  0  0  0  0  0  0
  148.6780  159.7930  131.9380 C   0  0  0  0  0  0  0  0  0  0  0  0
  148.6850  158.4400  131.5120 O   0  0  0  0  0  0  0  0  0  0  0  0
  148.5910  157.5780  132.6250 C   0  0  0  0  0  0  0  0  0  0  0  0
  147.1670  157.6240  133.1830 C   0  0  0  0  0  0  0  0  0  0  0  0
  144.3330  158.1420  133.3960 C   0  0  0  0  0  0  0  0  0  0  0  0
  142.9750  158.4090  133.6100 C   0  0  0  0  0  0  0  0  0  0  0  0
  141.9520  157.5320  133.7280 N   0  0  0  0  0  0  0  0  0  0  0  0
  142.0400  156.0960  133.7130 C   0  0  0  0  0  0  0  0  0  0  0  0
  142.9720  155.5070  134.3220 O   0  0  0  0  0  0  0  0  0  0  0  0
  141.0930  155.3420  133.0310 O   0  0  0  0  0  0  0  0  0  0  0  0
  137.9610  156.4620  133.3510 H   0  0  0  0  0  0  0  0  0  0  0  0
  139.4460  156.5660  132.3480 H   0  0  0  0  0  0  0  0  0  0  0  0
  140.5021  160.4835  134.2429 H   0  0  0  0  0  0  0  0  0  0  0  0
  143.0050  161.8099  133.8993 H   0  0  0  0  0  0  0  0  0  0  0  0
  145.4506  161.3969  133.4731 H   0  0  0  0  0  0  0  0  0  0  0  0
  147.0088  161.0001  132.6235 H   0  0  0  0  0  0  0  0  0  0  0  0
  148.0417  160.3106  133.9397 H   0  0  0  0  0  0  0  0  0  0  0  0
  148.5319  160.4338  131.0559 H   0  0  0  0  0  0  0  0  0  0  0  0
  149.6410  159.9774  132.4367 H   0  0  0  0  0  0  0  0  0  0  0  0
  148.8308  156.5503  132.3148 H   0  0  0  0  0  0  0  0  0  0  0  0
  149.3009  157.9003  133.4010 H   0  0  0  0  0  0  0  0  0  0  0  0
  146.5234  156.9574  132.5902 H   0  0  0  0  0  0  0  0  0  0  0  0
  147.1836  157.2965  134.2330 H   0  0  0  0  0  0  0  0  0  0  0  0
  144.6911  157.1086  133.2780 H   0  0  0  0  0  0  0  0  0  0  0  0
  1  2  1  0
  2  3  2  0
  2  4  1  0
  4  5  2  0
  5  6  1  0
  6  7  2  0
  7  8  1  0
  8  9  2  0
  9 10  1  0
 10 11  1  0
 11 12  1  0
 12 13  1  0
 13 14  1  0
 14 15  1  0
  9 16  1  0
 16 17  2  0
 17 18  1  0
 18 19  1  0
 19 20  2  0
 19 21  1  0
 18  4  1  0
 17  6  1  0
 15 10  1  0
  1 22  1  0
  1 23  1  0
  5 24  1  0
  7 25  1  0
  8 26  1  0
 11 27  1  0
 11 28  1  0
 12 29  1  0
 12 30  1  0
 14 31  1  0
 14 32  1  0
 15 33  1  0
 15 34  1  0
 16 35  1  0
M  CHG  1  21  -1
M  END
>  <UniqueID>  (10) 
9

>  <SMILES>  (10) 
NC(=O)c1cc2ccc(N3CCOCC3)cc2n1C(=O)[O-]

>  <Energy>  (10) 
87.2712592177788

>  <Genealogy>  (10) 
NC(=O)c1cc2ccc(N3CCOCC3)cc2n1C(=O)[O-] (protonated)
NC(=O)c1cc2ccc(N3CCOCC3)cc2n1C(=O)[O-] (3D coordinates assigned)
NC(=O)c1cc2ccc(N3CCOCC3)cc2n1C(=O)[O-] (nonaromatic ring conformer: 87.2712592177788 kcal/mol)

>  <smiles>  (10) 
NC(=O)c1cc2ccc(N3CCOCC3)cc2n1C(=O)O

>  <score_type>  (10) 
oracle

>  <origin>  (10) 
adg

>  <m_score__min__energy>  (10) 
-6.5800000000000001

>  <m_primary>  (10) 
energy

$$$$
10:0
     RDKit          3D

 39 41  0  0  0  0  0  0  0  0999 V2000
  145.2690  152.4470  133.2180 N   0  0  0  0  0  0  0  0  0  0  0  0
  144.4950  153.6000  133.5390 C   0  0  0  0  0  0  0  0  0  0  0  0
  143.2880  153.4590  133.8690 O   0  0  0  0  0  0  0  0  0  0  0  0
  145.1210  154.9400  133.5070 C   0  0  0  0  0  0  0  0  0  0  0  0
  144.3960  156.1290  133.4600 C   0  0  0  0  0  0  0  0  0  0  0  0
  145.3400  157.1270  133.3790 C   0  0  0  0  0  0  0  0  0  0  0  0
  145.1770  158.5090  133.3240 C   0  0  0  0  0  0  0  0  0  0  0  0
  146.3330  159.3060  133.2740 C   0  0  0  0  0  0  0  0  0  0  0  0
  147.6200  158.7120  133.2780 C   0  0  0  0  0  0  0  0  0  0  0  0
  148.8510  159.5740  133.2750 C   0  0  0  0  0  0  0  0  0  0  0  0
  149.1450  160.0130  131.9150 N   0  0  0  0  0  0  0  0  0  0  0  0
  149.8060  159.3040  130.9810 C   0  0  0  0  0  0  0  0  0  0  0  0
  149.9410  160.0920  129.8590 C   0  0  0  0  0  0  0  0  0  0  0  0
  149.3380  161.2890  130.1940 C   0  0  0  0  0  0  0  0  0  0  0  0
  148.8670  161.2210  131.4540 N   0  0  0  0  0  0  0  0  0  0  0  0
  147.7450  157.3070  133.3540 C   0  0  0  0  0  0  0  0  0  0  0  0
  146.5770  156.5370  133.3830 C   0  0  0  0  0  0  0  0  0  0  0  0
  146.4600  155.1920  133.4580 N   0  0  0  0  0  0  0  0  0  0  0  0
  147.5300  154.2340  133.5250 C   0  0  0  0  0  0  0  0  0  0  0  0
  147.6790  153.5390  134.5650 O   0  0  0  0  0  0  0  0  0  0  0  0
  148.4990  154.0640  132.3920 C   0  0  0  0  0  0  0  0  0  0  0  0
  149.6280  153.3480  132.8350 O   0  0  0  0  0  0  0  0  0  0  0  0
  149.3510  151.6870  132.5740 P   0  0  1  0  0  0  0  0  0  0  0  0
  149.9630  151.2910  131.2510 O   0  0  0  0  0  0  0  0  0  0  0  0
  150.0770  150.7830  133.8080 O   0  0  0  0  0  0  0  0  0  0  0  0
  147.6890  151.3640  132.5300 O   0  0  0  0  0  0  0  0  0  0  0  0
  146.1520  152.2330  133.7340 H   0  0  0  0  0  0  0  0  0  0  0  0
  143.3024  156.2451  133.4828 H   0  0  0  0  0  0  0  0  0  0  0  0
  144.1748  158.9623  133.3198 H   0  0  0  0  0  0  0  0  0  0  0  0
  146.2384  160.4011  133.2314 H   0  0  0  0  0  0  0  0  0  0  0  0
  148.6823  160.4534  133.9139 H   0  0  0  0  0  0  0  0  0  0  0  0
  149.7017  158.9928  133.6604 H   0  0  0  0  0  0  0  0  0  0  0  0
  150.1746  158.2738  131.0940 H   0  0  0  0  0  0  0  0  0  0  0  0
  150.4227  159.8266  128.9064 H   0  0  0  0  0  0  0  0  0  0  0  0
  149.2552  162.1641  129.5326 H   0  0  0  0  0  0  0  0  0  0  0  0
  148.7357  156.8302  133.3895 H   0  0  0  0  0  0  0  0  0  0  0  0
  148.0127  153.5106  131.5751 H   0  0  0  0  0  0  0  0  0  0  0  0
  148.8146  155.0542  132.0315 H   0  0  0  0  0  0  0  0  0  0  0  0
  147.3270  151.7730  133.3560 H   0  0  0  0  0  0  0  0  0  0  0  0
  1  2  1  0
  2  3  2  0
  2  4  1  0
  4  5  2  0
  5  6  1  0
  6  7  2  0
  7  8  1  0
  8  9  2  0
  9 10  1  0
 10 11  1  0
 11 12  1  0
 12 13  2  0
 13 14  1  0
 14 15  2  0
  9 16  1  0
 16 17  2  0
 17 18  1  0
 18 19  1  0
 19 20  2  0
 19 21  1  0
 21 22  1  0
 22 23  1  0
 23 24  2  0
 23 25  1  1
 23 26  1  0
 18  4  1  0
 17  6  1  0
 15 11  1  0
  1 27  1  0
  5 28  1  0
  7 29  1  0
  8 30  1  0
 10 31  1  0
 10 32  1  0
 12 33  1  0
 13 34  1  0
 14 35  1  0
 16 36  1  0
 21 37  1  0
 21 38  1  0
 26 39  1  0
M  CHG  2   1  -1  25  -1
M  END
>  <UniqueID>  (11) 
10

>  <SMILES>  (11) 
[NH-]C(=O)c1cc2ccc(Cn3cccn3)cc2n1C(=O)CO[P@@](=O)([O-])O

>  <Energy>  (11) 
104.61233788264897

>  <Genealogy>  (11) 
[NH-]C(=O)c1cc2ccc(Cn3cccn3)cc2n1C(=O)COP(=O)([O-])O (protonated)
[NH-]C(=O)c1cc2ccc(Cn3cccn3)cc2n1C(=O)CO[P@@](=O)([O-])O (chirality)
[NH-]C(=O)c1cc2ccc(Cn3cccn3)cc2n1C(=O)CO[P@@](=O)([O-])O (3D coordinates assigned)
[NH-]C(=O)c1cc2ccc(Cn3cccn3)cc2n1C(=O)CO[P@@](=O)([O-])O (optimized conformer: 104.61233788264897 kcal/mol)

>  <smiles>  (11) 
NC(=O)c1cc2ccc(Cn3cccn3)cc2n1C(=O)COP(=O)(O)O

>  <score_type>  (11) 
oracle

>  <origin>  (11) 
adg

>  <m_score__min__energy>  (11) 
-6.9800000000000004

>  <m_primary>  (11) 
energy

$$$$
11:0
     RDKit          3D

 39 40  0  0  0  0  0  0  0  0999 V2000
  142.0510  158.1530  135.5300 C   0  0  0  0  0  0  0  0  0  0  0  0
  141.6700  157.4070  134.3180 N   0  0  1  0  0  0  0  0  0  0  0  0
  140.2950  157.7350  133.8710 C   0  0  0  0  0  0  0  0  0  0  0  0
  139.6890  156.6410  132.9760 C   0  0  0  0  0  0  0  0  0  0  0  0
  140.4640  155.4750  133.0470 O   0  0  0  0  0  0  0  0  0  0  0  0
  142.6170  157.7110  133.2640 C   0  0  0  0  0  0  0  0  0  0  0  0
  142.2960  157.5260  132.0560 O   0  0  0  0  0  0  0  0  0  0  0  0
  143.9400  158.2960  133.5670 C   0  0  0  0  0  0  0  0  0  0  0  0
  144.0570  159.5360  133.7530 O   0  0  0  0  0  0  0  0  0  0  0  0
  145.1050  157.4590  133.6390 N   0  0  0  0  0  0  0  0  0  0  0  0
  145.1800  156.1720  134.0790 C   0  0  0  0  0  0  0  0  0  0  0  0
  144.0790  155.4020  134.6960 C   0  0  0  0  0  0  0  0  0  0  0  0
  142.9420  155.0050  133.9340 N   0  0  0  0  0  0  0  0  0  0  0  0
  144.1290  155.1160  135.9220 O   0  0  0  0  0  0  0  0  0  0  0  0
  146.4740  155.6800  133.9210 C   0  0  0  0  0  0  0  0  0  0  0  0
  147.1940  156.7150  133.3660 C   0  0  0  0  0  0  0  0  0  0  0  0
  148.5290  156.7740  132.9810 C   0  0  0  0  0  0  0  0  0  0  0  0
  148.9960  157.9670  132.4050 C   0  0  0  0  0  0  0  0  0  0  0  0
  148.1290  159.0760  132.2280 C   0  0  0  0  0  0  0  0  0  0  0  0
  148.6500  160.3260  131.5660 C   0  0  0  0  0  0  0  0  0  0  0  0
  148.3200  160.3600  130.2220 F   0  0  0  0  0  0  0  0  0  0  0  0
  150.0260  160.3700  131.6910 F   0  0  0  0  0  0  0  0  0  0  0  0
  148.1070  161.4440  132.1750 F   0  0  0  0  0  0  0  0  0  0  0  0
  146.7730  158.9690  132.6140 C   0  0  0  0  0  0  0  0  0  0  0  0
  146.3420  157.7750  133.2030 C   0  0  0  0  0  0  0  0  0  0  0  0
  141.7578  157.5789  136.4213 H   0  0  0  0  0  0  0  0  0  0  0  0
  143.1397  158.3101  135.5368 H   0  0  0  0  0  0  0  0  0  0  0  0
  141.5400  159.1271  135.5368 H   0  0  0  0  0  0  0  0  0  0  0  0
  141.7110  156.3840  134.5350 H   0  0  0  0  0  0  0  0  0  0  0  0
  139.6561  157.8590  134.7578 H   0  0  0  0  0  0  0  0  0  0  0  0
  140.3485  158.6599  133.2779 H   0  0  0  0  0  0  0  0  0  0  0  0
  138.6663  156.4191  133.3149 H   0  0  0  0  0  0  0  0  0  0  0  0
  139.6700  156.9973  131.9355 H   0  0  0  0  0  0  0  0  0  0  0  0
  141.3320  155.6840  132.6140 H   0  0  0  0  0  0  0  0  0  0  0  0
  142.6080  155.5810  133.1300 H   0  0  0  0  0  0  0  0  0  0  0  0
  146.8426  154.6774  134.1838 H   0  0  0  0  0  0  0  0  0  0  0  0
  149.1986  155.9130  133.1232 H   0  0  0  0  0  0  0  0  0  0  0  0
  150.0465  158.0423  132.0874 H   0  0  0  0  0  0  0  0  0  0  0  0
  146.0742  159.8036  132.4553 H   0  0  0  0  0  0  0  0  0  0  0  0
  1  2  1  0
  2  3  1  0
  3  4  1  0
  4  5  1  0
  2  6  1  0
  6  7  2  0
  6  8  1  0
  8  9  2  0
  8 10  1  0
 10 11  1  0
 11 12  1  0
 12 13  1  0
 12 14  2  0
 11 15  2  0
 15 16  1  0
 16 17  2  0
 17 18  1  0
 18 19  2  0
 19 20  1  0
 20 21  1  0
 20 22  1  0
 20 23  1  0
 19 24  1  0
 24 25  2  0
 25 10  1  0
 25 16  1  0
  1 26  1  0
  1 27  1  0
  1 28  1  0
  2 29  1  1
  3 30  1  0
  3 31  1  0
  4 32  1  0
  4 33  1  0
  5 34  1  0
 13 35  1  0
 15 36  1  0
 17 37  1  0
 18 38  1  0
 24 39  1  0
M  CHG  2   2   1  13  -1
M  END
>  <UniqueID>  (12) 
11

>  <SMILES>  (12) 
C[N@@H+](CCO)C(=O)C(=O)n1c(C([NH-])=O)cc2ccc(C(F)(F)F)cc21

>  <Energy>  (12) 
80.25918311252109

>  <Genealogy>  (12) 
C[NH+](CCO)C(=O)C(=O)n1c(C([NH-])=O)cc2ccc(C(F)(F)F)cc21 (protonated)
C[N@@H+](CCO)C(=O)C(=O)n1c(C([NH-])=O)cc2ccc(C(F)(F)F)cc21 (chirality)
C[N@@H+](CCO)C(=O)C(=O)n1c(C([NH-])=O)cc2ccc(C(F)(F)F)cc21 (3D coordinates assigned)
C[N@@H+](CCO)C(=O)C(=O)n1c(C([NH-])=O)cc2ccc(C(F)(F)F)cc21 (optimized conformer: 80.25918311252109 kcal/mol)

>  <smiles>  (12) 
CN(CCO)C(=O)C(=O)n1c(C(N)=O)cc2ccc(C(F)(F)F)cc21

>  <score_type>  (12) 
oracle

>  <origin>  (12) 
adg

>  <m_score__min__energy>  (12) 
-4.6399999999999997

>  <m_primary>  (12) 
energy

$$$$
12:0
     RDKit          3D

 51 53  0  0  0  0  0  0  0  0999 V2000
  142.7110  154.5720  135.4320 C   0  0  0  0  0  0  0  0  0  0  0  0
  141.8740  154.6360  134.1400 C   0  0  0  0  0  0  0  0  0  0  0  0
  141.3850  153.2320  133.7360 C   0  0  0  0  0  0  0  0  0  0  0  0
  142.7490  155.2000  133.0100 C   0  0  0  0  0  0  0  0  0  0  0  0
  140.7640  155.5310  134.3030 O   0  0  0  0  0  0  0  0  0  0  0  0
  139.8590  155.9200  133.3030 C   0  0  0  0  0  0  0  0  0  0  0  0
  139.7510  155.2490  132.2380 O   0  0  0  0  0  0  0  0  0  0  0  0
  138.9990  157.0600  133.5430 N   0  0  0  0  0  0  0  0  0  0  0  0
  139.0380  157.9920  132.3980 C   0  0  0  0  0  0  0  0  0  0  0  0
  140.4380  158.5930  132.2070 C   0  0  0  0  0  0  0  0  0  0  0  0
  141.0730  158.8690  133.5010 N   0  0  0  0  0  0  0  0  0  0  0  0
  142.4470  159.2960  133.5340 C   0  0  0  0  0  0  0  0  0  0  0  0
  142.7670  160.6650  133.7200 C   0  0  0  0  0  0  0  0  0  0  0  0
  144.1060  161.0890  133.7580 C   0  0  0  0  0  0  0  0  0  0  0  0
  145.1000  160.1280  133.6060 C   0  0  0  0  0  0  0  0  0  0  0  0
  146.4690  160.2600  133.6290 C   0  0  0  0  0  0  0  0  0  0  0  0
  146.9680  158.9720  133.4400 C   0  0  0  0  0  0  0  0  0  0  0  0
  148.4080  158.6710  133.3080 C   0  0  0  0  0  0  0  0  0  0  0  0
  148.9270  158.0830  132.1170 N   0  0  0  0  0  0  0  0  0  0  0  0
  149.2000  158.9880  134.2360 O   0  0  0  0  0  0  0  0  0  0  0  0
  145.9470  158.0770  133.3150 N   0  0  0  0  0  0  0  0  0  0  0  0
  146.0420  156.6460  133.2090 C   0  0  0  0  0  0  0  0  0  0  0  0
  146.6800  156.1200  132.2600 O   0  0  0  0  0  0  0  0  0  0  0  0
  145.4010  155.8290  134.1340 O   0  0  0  0  0  0  0  0  0  0  0  0
  144.8100  158.8020  133.4130 C   0  0  0  0  0  0  0  0  0  0  0  0
  143.4860  158.3500  133.3870 C   0  0  0  0  0  0  0  0  0  0  0  0
  140.2500  158.9460  134.7130 C   0  0  0  0  0  0  0  0  0  0  0  0
  139.2890  157.7400  134.8340 C   0  0  0  0  0  0  0  0  0  0  0  0
  142.0431  154.6231  136.3045 H   0  0  0  0  0  0  0  0  0  0  0  0
  143.2753  153.6281  135.4570 H   0  0  0  0  0  0  0  0  0  0  0  0
  143.4122  155.4192  135.4570 H   0  0  0  0  0  0  0  0  0  0  0  0
  141.1792  152.6410  134.6406 H   0  0  0  0  0  0  0  0  0  0  0  0
  140.4652  153.3217  133.1394 H   0  0  0  0  0  0  0  0  0  0  0  0
  142.1615  152.7309  133.1394 H   0  0  0  0  0  0  0  0  0  0  0  0
  143.5989  155.7478  133.4430 H   0  0  0  0  0  0  0  0  0  0  0  0
  143.1238  154.3731  132.3890 H   0  0  0  0  0  0  0  0  0  0  0  0
  142.1507  155.8829  132.3890 H   0  0  0  0  0  0  0  0  0  0  0  0
  138.0220  156.6870  133.6030 H   0  0  0  0  0  0  0  0  0  0  0  0
  138.7553  157.4478  131.4848 H   0  0  0  0  0  0  0  0  0  0  0  0
  138.3348  158.8138  132.5986 H   0  0  0  0  0  0  0  0  0  0  0  0
  141.0611  157.8818  131.6450 H   0  0  0  0  0  0  0  0  0  0  0  0
  140.3407  159.5397  131.6554 H   0  0  0  0  0  0  0  0  0  0  0  0
  141.9589  161.4022  133.8357 H   0  0  0  0  0  0  0  0  0  0  0  0
  144.3606  162.1492  133.9036 H   0  0  0  0  0  0  0  0  0  0  0  0
  147.0473  161.1854  133.7672 H   0  0  0  0  0  0  0  0  0  0  0  0
  148.4630  157.2540  131.6840 H   0  0  0  0  0  0  0  0  0  0  0  0
  143.2591  157.2818  133.2550 H   0  0  0  0  0  0  0  0  0  0  0  0
  140.9115  158.9634  135.5917 H   0  0  0  0  0  0  0  0  0  0  0  0
  139.6431  159.8617  134.6559 H   0  0  0  0  0  0  0  0  0  0  0  0
  139.7412  157.0057  135.5169 H   0  0  0  0  0  0  0  0  0  0  0  0
  138.3318  158.1344  135.2058 H   0  0  0  0  0  0  0  0  0  0  0  0
  1  2  1  0
  2  3  1  0
  2  4  1  0
  2  5  1  0
  5  6  1  0
  6  7  2  0
  6  8  1  0
  8  9  1  0
  9 10  1  0
 10 11  1  0
 11 12  1  0
 12 13  2  0
 13 14  1  0
 14 15  2  0
 15 16  1  0
 16 17  2  0
 17 18  1  0
 18 19  1  0
 18 20  2  0
 17 21  1  0
 21 22  1  0
 22 23  2  0
 22 24  1  0
 21 25  1  0
 25 26  2  0
 11 27  1  0
 27 28  1  0
 28  8  1  0
 26 12  1  0
 25 15  1  0
  1 29  1  0
  1 30  1  0
  1 31  1  0
  3 32  1  0
  3 33  1  0
  3 34  1  0
  4 35  1  0
  4 36  1  0
  4 37  1  0
  8 38  1  0
  9 39  1  0
  9 40  1  0
 10 41  1  0
 10 42  1  0
 13 43  1  0
 14 44  1  0
 16 45  1  0
 19 46  1  0
 26 47  1  0
 27 48  1  0
 27 49  1  0
 28 50  1  0
 28 51  1  0
M  CHG  3   8   1  19  -1  24  -1
M  END
>  <UniqueID>  (13) 
12

>  <SMILES>  (13) 
CC(C)(C)OC(=O)[NH+]1CCN(c2ccc3cc(C([NH-])=O)n(C(=O)[O-])c3c2)CC1

>  <Energy>  (13) 
100.00567216682114

>  <Genealogy>  (13) 
CC(C)(C)OC(=O)[NH+]1CCN(c2ccc3cc(C([NH-])=O)n(C(=O)[O-])c3c2)CC1 (protonated)
CC(C)(C)OC(=O)[NH+]1CCN(c2ccc3cc(C([NH-])=O)n(C(=O)[O-])c3c2)CC1 (3D coordinates assigned)
CC(C)(C)OC(=O)[NH+]1CCN(c2ccc3cc(C([NH-])=O)n(C(=O)[O-])c3c2)CC1 (nonaromatic ring conformer: 100.00567216682114 kcal/mol)

>  <smiles>  (13) 
CC(C)(C)OC(=O)N1CCN(c2ccc3cc(C(N)=O)n(C(=O)O)c3c2)CC1

>  <score_type>  (13) 
oracle

>  <origin>  (13) 
adg

>  <m_score__min__energy>  (13) 
-7.3499999999999996

>  <m_primary>  (13) 
energy

$$$$
13:0
     RDKit          3D

 40 41  0  0  0  0  0  0  0  0999 V2000
  138.6320  149.2270  131.4110 C   0  0  0  0  0  0  0  0  0  0  0  0
  139.9220  149.8400  131.8660 C   0  0  0  0  0  0  0  0  0  0  0  0
  141.1100  149.0690  131.8750 C   0  0  0  0  0  0  0  0  0  0  0  0
  142.3350  149.6460  132.2490 C   0  0  0  0  0  0  0  0  0  0  0  0
  142.3400  150.9930  132.6020 C   0  0  0  0  0  0  0  0  0  0  0  0
  143.3870  151.8040  132.9760 C   0  0  0  0  0  0  0  0  0  0  0  0
  142.8220  153.0600  133.1960 C   0  0  0  0  0  0  0  0  0  0  0  0
  143.5770  154.2270  133.7040 C   0  0  0  0  0  0  0  0  0  0  0  0
  143.5110  155.4860  133.0330 N   0  0  0  0  0  0  0  0  0  0  0  0
  144.3120  154.1100  134.7200 O   0  0  0  0  0  0  0  0  0  0  0  0
  141.4780  153.0250  132.9660 N   0  0  0  0  0  0  0  0  0  0  0  0
  140.5580  154.1270  133.0170 C   0  0  0  0  0  0  0  0  0  0  0  0
  139.3410  153.9400  132.7410 O   0  0  0  0  0  0  0  0  0  0  0  0
  141.0280  155.4050  133.3500 O   0  0  0  0  0  0  0  0  0  0  0  0
  140.8060  156.0510  134.5720 C   0  0  0  0  0  0  0  0  0  0  0  0
  141.6680  156.0140  135.4930 O   0  0  0  0  0  0  0  0  0  0  0  0
  139.6130  156.7550  134.7520 O   0  0  0  0  0  0  0  0  0  0  0  0
  139.5730  158.1660  134.9400 C   0  0  0  0  0  0  0  0  0  0  0  0
  140.5750  158.7850  134.1420 O   0  0  0  0  0  0  0  0  0  0  0  0
  141.6710  159.4620  134.6880 C   0  0  0  0  0  0  0  0  0  0  0  0
  141.7100  159.7380  135.9170 O   0  0  0  0  0  0  0  0  0  0  0  0
  142.8260  159.8150  133.8090 C   0  0  0  0  0  0  0  0  0  0  0  0
  143.5330  158.5730  133.3750 C   0  0  0  0  0  0  0  0  0  0  0  0
  144.6090  158.2290  133.9320 O   0  0  0  0  0  0  0  0  0  0  0  0
  143.0330  157.8210  132.3190 O   0  0  0  0  0  0  0  0  0  0  0  0
  141.1980  151.7530  132.6030 C   0  0  0  0  0  0  0  0  0  0  0  0
  139.9680  151.2070  132.2160 C   0  0  0  0  0  0  0  0  0  0  0  0
  138.0321  148.9419  132.2879 H   0  0  0  0  0  0  0  0  0  0  0  0
  138.0731  149.9558  130.8056 H   0  0  0  0  0  0  0  0  0  0  0  0
  138.8441  148.3334  130.8056 H   0  0  0  0  0  0  0  0  0  0  0  0
  141.0731  148.0082  131.5864 H   0  0  0  0  0  0  0  0  0  0  0  0
  143.2611  149.0525  132.2626 H   0  0  0  0  0  0  0  0  0  0  0  0
  144.4451  151.5216  133.0795 H   0  0  0  0  0  0  0  0  0  0  0  0
  144.0770  156.2920  133.3770 H   0  0  0  0  0  0  0  0  0  0  0  0
  142.8710  155.6360  132.2220 H   0  0  0  0  0  0  0  0  0  0  0  0
  138.5839  158.5462  134.6448 H   0  0  0  0  0  0  0  0  0  0  0  0
  139.7568  158.3975  135.9995 H   0  0  0  0  0  0  0  0  0  0  0  0
  142.4588  160.3541  132.9232 H   0  0  0  0  0  0  0  0  0  0  0  0
  143.5256  160.4529  134.3691 H   0  0  0  0  0  0  0  0  0  0  0  0
  139.0603  151.8276  132.1855 H   0  0  0  0  0  0  0  0  0  0  0  0
  1  2  1  0
  2  3  2  0
  3  4  1  0
  4  5  2  0
  5  6  1  0
  6  7  2  0
  7  8  1  0
  8  9  1  0
  8 10  2  0
  7 11  1  0
 11 12  1  0
 12 13  2  0
 12 14  1  0
 14 15  1  0
 15 16  2  0
 15 17  1  0
 17 18  1  0
 18 19  1  0
 19 20  1  0
 20 21  2  0
 20 22  1  0
 22 23  1  0
 23 24  2  0
 23 25  1  0
 11 26  1  0
 26 27  2  0
 27  2  1  0
 26  5  1  0
  1 28  1  0
  1 29  1  0
  1 30  1  0
  3 31  1  0
  4 32  1  0
  6 33  1  0
  9 34  1  0
  9 35  1  0
 18 36  1  0
 18 37  1  0
 22 38  1  0
 22 39  1  0
 27 40  1  0
M  CHG  1  25  -1
M  END
>  <UniqueID>  (14) 
13

>  <SMILES>  (14) 
Cc1ccc2cc(C(N)=O)n(C(=O)OC(=O)OCOC(=O)CC(=O)[O-])c2c1

>  <Energy>  (14) 
73.318623286824

>  <Genealogy>  (14) 
Cc1ccc2cc(C(N)=O)n(C(=O)OC(=O)OCOC(=O)CC(=O)[O-])c2c1 (protonated)
Cc1ccc2cc(C(N)=O)n(C(=O)OC(=O)OCOC(=O)CC(=O)[O-])c2c1 (3D coordinates assigned)
Cc1ccc2cc(C(N)=O)n(C(=O)OC(=O)OCOC(=O)CC(=O)[O-])c2c1 (optimized conformer: 73.318623286824 kcal/mol)

>  <smiles>  (14) 
Cc1ccc2cc(C(N)=O)n(C(=O)OC(=O)OCOC(=O)CC(=O)O)c2c1

>  <score_type>  (14) 
oracle

>  <origin>  (14) 
adg

>  <m_score__min__energy>  (14) 
-6.6299999999999999

>  <m_primary>  (14) 
energy

$$$$
14:0
     RDKit          3D

 39 40  0  0  0  0  0  0  0  0999 V2000
  148.4140  154.8500  132.6290 C   0  0  0  0  0  0  0  0  0  0  0  0
  147.9750  156.2780  132.7590 C   0  0  0  0  0  0  0  0  0  0  0  0
  148.9350  157.3180  132.7060 C   0  0  0  0  0  0  0  0  0  0  0  0
  148.5460  158.6580  132.8730 C   0  0  0  0  0  0  0  0  0  0  0  0
  147.1990  158.9230  133.0990 C   0  0  0  0  0  0  0  0  0  0  0  0
  146.5590  160.1210  133.3230 C   0  0  0  0  0  0  0  0  0  0  0  0
  145.2160  159.7950  133.5070 C   0  0  0  0  0  0  0  0  0  0  0  0
  144.1430  160.7970  133.6900 C   0  0  0  0  0  0  0  0  0  0  0  0
  142.7890  160.4880  133.3530 N   0  0  0  0  0  0  0  0  0  0  0  0
  144.4100  161.9290  134.1730 O   0  0  0  0  0  0  0  0  0  0  0  0
  145.0340  158.4470  133.4000 N   0  0  0  0  0  0  0  0  0  0  0  0
  143.8130  157.7100  133.5760 C   0  0  0  0  0  0  0  0  0  0  0  0
  142.9570  157.6870  132.6500 O   0  0  0  0  0  0  0  0  0  0  0  0
  143.5790  157.0390  134.7850 O   0  0  0  0  0  0  0  0  0  0  0  0
  142.3240  156.8710  135.3840 C   0  0  0  0  0  0  0  0  0  0  0  0
  141.7240  155.7610  135.3360 O   0  0  0  0  0  0  0  0  0  0  0  0
  141.7460  157.9570  136.0440 O   0  0  0  0  0  0  0  0  0  0  0  0
  140.5720  158.6060  135.5720 C   0  0  0  0  0  0  0  0  0  0  0  0
  140.9070  159.4270  134.4600 O   0  0  0  0  0  0  0  0  0  0  0  0
  140.3430  159.2490  133.1940 C   0  0  0  0  0  0  0  0  0  0  0  0
  140.4550  160.1400  132.3080 O   0  0  0  0  0  0  0  0  0  0  0  0
  139.6090  157.9830  132.8900 C   0  0  0  0  0  0  0  0  0  0  0  0
  140.3680  156.8770  133.2950 O   0  0  0  0  0  0  0  0  0  0  0  0
  146.2570  157.9290  133.1510 C   0  0  0  0  0  0  0  0  0  0  0  0
  146.6190  156.5830  133.0060 C   0  0  0  0  0  0  0  0  0  0  0  0
  148.5478  154.4149  133.6304 H   0  0  0  0  0  0  0  0  0  0  0  0
  147.6496  154.2799  132.0806 H   0  0  0  0  0  0  0  0  0  0  0  0
  149.3666  154.8077  132.0806 H   0  0  0  0  0  0  0  0  0  0  0  0
  149.9937  157.0748  132.5327 H   0  0  0  0  0  0  0  0  0  0  0  0
  149.2839  159.4725  132.8265 H   0  0  0  0  0  0  0  0  0  0  0  0
  147.0114  161.1233  133.3509 H   0  0  0  0  0  0  0  0  0  0  0  0
  142.5360  159.5810  132.9010 H   0  0  0  0  0  0  0  0  0  0  0  0
  142.0340  161.1890  133.5190 H   0  0  0  0  0  0  0  0  0  0  0  0
  139.8334  157.8516  135.2632 H   0  0  0  0  0  0  0  0  0  0  0  0
  140.1445  159.2259  136.3738 H   0  0  0  0  0  0  0  0  0  0  0  0
  138.6488  157.9814  133.4266 H   0  0  0  0  0  0  0  0  0  0  0  0
  139.4323  157.9208  131.8061 H   0  0  0  0  0  0  0  0  0  0  0  0
  141.1460  157.2360  133.7980 H   0  0  0  0  0  0  0  0  0  0  0  0
  145.8660  155.7848  133.0827 H   0  0  0  0  0  0  0  0  0  0  0  0
  1  2  1  0
  2  3  2  0
  3  4  1  0
  4  5  2  0
  5  6  1  0
  6  7  2  0
  7  8  1  0
  8  9  1  0
  8 10  2  0
  7 11  1  0
 11 12  1  0
 12 13  2  0
 12 14  1  0
 14 15  1  0
 15 16  2  0
 15 17  1  0
 17 18  1  0
 18 19  1  0
 19 20  1  0
 20 21  2  0
 20 22  1  0
 22 23  1  0
 11 24  1  0
 24 25  2  0
 25  2  1  0
 24  5  1  0
  1 26  1  0
  1 27  1  0
  1 28  1  0
  3 29  1  0
  4 30  1  0
  6 31  1  0
  9 32  1  0
  9 33  1  0
 18 34  1  0
 18 35  1  0
 22 36  1  0
 22 37  1  0
 23 38  1  0
 25 39  1  0
M  END
>  <UniqueID>  (15) 
14

>  <SMILES>  (15) 
Cc1ccc2cc(C(N)=O)n(C(=O)OC(=O)OCOC(=O)CO)c2c1

>  <Energy>  (15) 
73.14897823512514

>  <Genealogy>  (15) 
Cc1ccc2cc(C(N)=O)n(C(=O)OC(=O)OCOC(=O)CO)c2c1 (3D coordinates assigned)
Cc1ccc2cc(C(N)=O)n(C(=O)OC(=O)OCOC(=O)CO)c2c1 (optimized conformer: 73.14897823512514 kcal/mol)

>  <smiles>  (15) 
Cc1ccc2cc(C(N)=O)n(C(=O)OC(=O)OCOC(=O)CO)c2c1

>  <score_type>  (15) 
oracle

>  <origin>  (15) 
adg

>  <m_score__min__energy>  (15) 
-5.3899999999999997

>  <m_primary>  (15) 
energy

$$$$
15:0
     RDKit          3D

 38 39  0  0  0  0  0  0  0  0999 V2000
  139.8700  158.3980  132.5760 C   0  0  0  0  0  0  0  0  0  0  0  0
  140.4360  159.4490  133.3500 O   0  0  0  0  0  0  0  0  0  0  0  0
  140.7050  159.3180  134.7150 C   0  0  0  0  0  0  0  0  0  0  0  0
  141.0340  160.3210  135.4060 O   0  0  0  0  0  0  0  0  0  0  0  0
  140.6430  157.9650  135.3510 C   0  0  0  0  0  0  0  0  0  0  0  0
  141.9210  157.1710  135.0820 C   0  0  0  0  0  0  0  0  0  0  0  0
  143.0360  158.0790  134.8450 N   0  0  0  0  0  0  0  0  0  0  0  0
  143.7480  158.1300  133.6060 C   0  0  0  0  0  0  0  0  0  0  0  0
  143.2490  157.6120  132.5700 O   0  0  0  0  0  0  0  0  0  0  0  0
  145.0290  158.7800  133.5380 N   0  0  0  0  0  0  0  0  0  0  0  0
  145.2780  160.1190  133.5710 C   0  0  0  0  0  0  0  0  0  0  0  0
  144.2840  161.1780  133.8440 C   0  0  0  0  0  0  0  0  0  0  0  0
  142.8850  160.8950  133.8510 N   0  0  0  0  0  0  0  0  0  0  0  0
  144.6810  162.3400  134.1280 O   0  0  0  0  0  0  0  0  0  0  0  0
  146.6300  160.3740  133.3580 C   0  0  0  0  0  0  0  0  0  0  0  0
  147.2130  159.1370  133.2050 C   0  0  0  0  0  0  0  0  0  0  0  0
  148.5380  158.8000  132.9470 C   0  0  0  0  0  0  0  0  0  0  0  0
  148.8540  157.4400  132.7900 C   0  0  0  0  0  0  0  0  0  0  0  0
  147.8460  156.4510  132.8960 C   0  0  0  0  0  0  0  0  0  0  0  0
  148.1870  155.0060  132.6720 C   0  0  0  0  0  0  0  0  0  0  0  0
  146.5090  156.8300  133.1390 C   0  0  0  0  0  0  0  0  0  0  0  0
  146.2250  158.1910  133.3150 C   0  0  0  0  0  0  0  0  0  0  0  0
  139.4566  157.6304  133.2467 H   0  0  0  0  0  0  0  0  0  0  0  0
  139.0671  158.8014  131.9414 H   0  0  0  0  0  0  0  0  0  0  0  0
  140.6486  157.9496  131.9414 H   0  0  0  0  0  0  0  0  0  0  0  0
  140.5161  158.0841  136.4371 H   0  0  0  0  0  0  0  0  0  0  0  0
  139.7932  157.4153  134.9202 H   0  0  0  0  0  0  0  0  0  0  0  0
  142.1462  156.5385  135.9533 H   0  0  0  0  0  0  0  0  0  0  0  0
  141.7732  156.5432  134.1909 H   0  0  0  0  0  0  0  0  0  0  0  0
  142.5320  159.9150  133.7930 H   0  0  0  0  0  0  0  0  0  0  0  0
  142.1960  161.6650  134.0040 H   0  0  0  0  0  0  0  0  0  0  0  0
  147.1263  161.3550  133.3201 H   0  0  0  0  0  0  0  0  0  0  0  0
  149.3147  159.5749  132.8683 H   0  0  0  0  0  0  0  0  0  0  0  0
  149.8922  157.1412  132.5832 H   0  0  0  0  0  0  0  0  0  0  0  0
  148.3058  154.5025  133.6428 H   0  0  0  0  0  0  0  0  0  0  0  0
  147.3784  154.5221  132.1046 H   0  0  0  0  0  0  0  0  0  0  0  0
  149.1266  154.9347  132.1046 H   0  0  0  0  0  0  0  0  0  0  0  0
  145.7095  156.0762  133.1891 H   0  0  0  0  0  0  0  0  0  0  0  0
  1  2  1  0
  2  3  1  0
  3  4  2  0
  3  5  1  0
  5  6  1  0
  6  7  1  0
  7  8  1  0
  8  9  2  0
  8 10  1  0
 10 11  1  0
 11 12  1  0
 12 13  1  0
 12 14  2  0
 11 15  2  0
 15 16  1  0
 16 17  2  0
 17 18  1  0
 18 19  2  0
 19 20  1  0
 19 21  1  0
 21 22  2  0
 22 10  1  0
 22 16  1  0
  1 23  1  0
  1 24  1  0
  1 25  1  0
  5 26  1  0
  5 27  1  0
  6 28  1  0
  6 29  1  0
 13 30  1  0
 13 31  1  0
 15 32  1  0
 17 33  1  0
 18 34  1  0
 20 35  1  0
 20 36  1  0
 20 37  1  0
 21 38  1  0
M  CHG  1   7  -1
M  END
>  <UniqueID>  (16) 
15

>  <SMILES>  (16) 
COC(=O)CC[N-]C(=O)n1c(C(N)=O)cc2ccc(C)cc21

>  <Energy>  (16) 
68.94886816260554

>  <Genealogy>  (16) 
COC(=O)CC[N-]C(=O)n1c(C(N)=O)cc2ccc(C)cc21 (protonated)
COC(=O)CC[N-]C(=O)n1c(C(N)=O)cc2ccc(C)cc21 (3D coordinates assigned)
COC(=O)CC[N-]C(=O)n1c(C(N)=O)cc2ccc(C)cc21 (optimized conformer: 68.94886816260554 kcal/mol)

>  <smiles>  (16) 
COC(=O)CCNC(=O)n1c(C(N)=O)cc2ccc(C)cc21

>  <score_type>  (16) 
oracle

>  <origin>  (16) 
adg

>  <m_score__min__energy>  (16) 
-6.1500000000000004

>  <m_primary>  (16) 
energy

$$$$
16:0
     RDKit          3D

 29 30  0  0  0  0  0  0  0  0999 V2000
  143.3100  161.6900  133.7330 N   0  0  0  0  0  0  0  0  0  0  0  0
  144.7200  161.6940  133.9400 C   0  0  0  0  0  0  0  0  0  0  0  0
  145.2710  162.7240  134.4120 O   0  0  0  0  0  0  0  0  0  0  0  0
  145.5340  160.4920  133.6620 C   0  0  0  0  0  0  0  0  0  0  0  0
  146.9110  160.5320  133.4530 C   0  0  0  0  0  0  0  0  0  0  0  0
  147.2990  159.2180  133.3250 C   0  0  0  0  0  0  0  0  0  0  0  0
  148.5610  158.6760  133.1070 C   0  0  0  0  0  0  0  0  0  0  0  0
  148.6670  157.2780  132.9970 C   0  0  0  0  0  0  0  0  0  0  0  0
  147.5160  156.4540  133.0780 C   0  0  0  0  0  0  0  0  0  0  0  0
  147.6480  154.9550  132.9950 C   0  0  0  0  0  0  0  0  0  0  0  0
  148.7440  154.6020  132.2270 F   0  0  0  0  0  0  0  0  0  0  0  0
  146.5070  154.4280  132.4200 F   0  0  0  0  0  0  0  0  0  0  0  0
  147.8120  154.4070  134.2570 F   0  0  0  0  0  0  0  0  0  0  0  0
  146.2540  157.0440  133.3240 C   0  0  0  0  0  0  0  0  0  0  0  0
  146.1800  158.4360  133.4480 C   0  0  0  0  0  0  0  0  0  0  0  0
  145.0870  159.2040  133.6530 N   0  0  0  0  0  0  0  0  0  0  0  0
  143.7310  158.7390  133.7530 C   0  0  0  0  0  0  0  0  0  0  0  0
  143.2280  158.0690  132.8110 O   0  0  0  0  0  0  0  0  0  0  0  0
  142.9920  159.0170  134.9110 O   0  0  0  0  0  0  0  0  0  0  0  0
  141.6080  159.2350  134.9510 C   0  0  0  0  0  0  0  0  0  0  0  0
  140.9890  159.6920  133.9520 O   0  0  0  0  0  0  0  0  0  0  0  0
  140.8680  158.9260  136.1770 C   0  0  0  0  0  0  0  0  0  0  0  0
  139.7880  158.2820  136.1180 O   0  0  0  0  0  0  0  0  0  0  0  0
  141.3530  159.3410  137.4110 O   0  0  0  0  0  0  0  0  0  0  0  0
  142.7780  160.7930  133.6810 H   0  0  0  0  0  0  0  0  0  0  0  0
  147.5519  161.4245  133.4013 H   0  0  0  0  0  0  0  0  0  0  0  0
  149.4485  159.3205  133.0232 H   0  0  0  0  0  0  0  0  0  0  0  0
  149.6549  156.8182  132.8463 H   0  0  0  0  0  0  0  0  0  0  0  0
  145.3510  156.4225  133.4158 H   0  0  0  0  0  0  0  0  0  0  0  0
  1  2  1  0
  2  3  2  0
  2  4  1  0
  4  5  2  0
  5  6  1  0
  6  7  2  0
  7  8  1  0
  8  9  2  0
  9 10  1  0
 10 11  1  0
 10 12  1  0
 10 13  1  0
  9 14  1  0
 14 15  2  0
 15 16  1  0
 16 17  1  0
 17 18  2  0
 17 19  1  0
 19 20  1  0
 20 21  2  0
 20 22  1  0
 22 23  2  0
 22 24  1  0
 16  4  1  0
 15  6  1  0
  1 25  1  0
  5 26  1  0
  7 27  1  0
  8 28  1  0
 14 29  1  0
M  CHG  2   1  -1  24  -1
M  END
>  <UniqueID>  (17) 
16

>  <SMILES>  (17) 
[NH-]C(=O)c1cc2ccc(C(F)(F)F)cc2n1C(=O)OC(=O)C(=O)[O-]

>  <Energy>  (17) 
69.11675060592239

>  <Genealogy>  (17) 
[NH-]C(=O)c1cc2ccc(C(F)(F)F)cc2n1C(=O)OC(=O)C(=O)[O-] (protonated)
[NH-]C(=O)c1cc2ccc(C(F)(F)F)cc2n1C(=O)OC(=O)C(=O)[O-] (3D coordinates assigned)
[NH-]C(=O)c1cc2ccc(C(F)(F)F)cc2n1C(=O)OC(=O)C(=O)[O-] (optimized conformer: 69.11675060592239 kcal/mol)

>  <smiles>  (17) 
NC(=O)c1cc2ccc(C(F)(F)F)cc2n1C(=O)OC(=O)C(=O)O

>  <score_type>  (17) 
oracle

>  <origin>  (17) 
adg

>  <m_score__min__energy>  (17) 
-5.6699999999999999

>  <m_primary>  (17) 
energy

$$$$
17:0
     RDKit          3D

 35 36  0  0  0  0  0  0  0  0999 V2000
  147.9360  151.7910  132.6140 C   0  0  0  0  0  0  0  0  0  0  0  0
  147.3080  153.1210  132.5970 N   0  0  0  0  0  0  0  0  0  0  0  0
  145.9340  153.0690  133.1190 C   0  0  0  0  0  0  0  0  0  0  0  0
  148.1150  154.0840  133.3240 C   0  0  0  0  0  0  0  0  0  0  0  0
  148.0690  154.1010  134.5470 O   0  0  0  0  0  0  0  0  0  0  0  0
  148.9860  155.1030  132.6220 C   0  0  0  0  0  0  0  0  0  0  0  0
  148.3870  156.4800  132.7350 C   0  0  0  0  0  0  0  0  0  0  0  0
  149.2050  157.6280  132.5910 C   0  0  0  0  0  0  0  0  0  0  0  0
  148.6640  158.9160  132.7390 C   0  0  0  0  0  0  0  0  0  0  0  0
  147.3070  159.0250  133.0260 C   0  0  0  0  0  0  0  0  0  0  0  0
  146.5380  160.1430  133.2490 C   0  0  0  0  0  0  0  0  0  0  0  0
  145.2550  159.6640  133.5080 C   0  0  0  0  0  0  0  0  0  0  0  0
  144.0880  160.5440  133.7200 C   0  0  0  0  0  0  0  0  0  0  0  0
  142.7760  160.1250  133.3550 N   0  0  0  0  0  0  0  0  0  0  0  0
  144.2580  161.7040  134.1850 O   0  0  0  0  0  0  0  0  0  0  0  0
  145.2350  158.3010  133.4570 N   0  0  0  0  0  0  0  0  0  0  0  0
  144.1350  157.4230  133.7500 C   0  0  0  0  0  0  0  0  0  0  0  0
  144.1350  156.7330  134.8030 O   0  0  0  0  0  0  0  0  0  0  0  0
  143.0730  157.3090  132.8620 O   0  0  0  0  0  0  0  0  0  0  0  0
  146.4980  157.9260  133.1570 C   0  0  0  0  0  0  0  0  0  0  0  0
  147.0140  156.6310  133.0340 C   0  0  0  0  0  0  0  0  0  0  0  0
  148.0874  151.4703  133.6553 H   0  0  0  0  0  0  0  0  0  0  0  0
  147.2830  151.0706  132.0997 H   0  0  0  0  0  0  0  0  0  0  0  0
  148.9073  151.8375  132.0997 H   0  0  0  0  0  0  0  0  0  0  0  0
  147.2480  153.4250  131.5940 H   0  0  0  0  0  0  0  0  0  0  0  0
  145.9593  153.0700  134.2187 H   0  0  0  0  0  0  0  0  0  0  0  0
  145.3736  153.9466  132.7644 H   0  0  0  0  0  0  0  0  0  0  0  0
  145.4415  152.1516  132.7644 H   0  0  0  0  0  0  0  0  0  0  0  0
  149.9845  155.1042  133.0834 H   0  0  0  0  0  0  0  0  0  0  0  0
  149.0588  154.8342  131.5578 H   0  0  0  0  0  0  0  0  0  0  0  0
  150.2742  157.5095  132.3611 H   0  0  0  0  0  0  0  0  0  0  0  0
  149.2941  159.8112  132.6312 H   0  0  0  0  0  0  0  0  0  0  0  0
  146.8659  161.1928  133.2275 H   0  0  0  0  0  0  0  0  0  0  0  0
  142.6290  159.4110  132.6070 H   0  0  0  0  0  0  0  0  0  0  0  0
  146.3665  155.7517  133.1668 H   0  0  0  0  0  0  0  0  0  0  0  0
  1  2  1  0
  2  3  1  0
  2  4  1  0
  4  5  2  0
  4  6  1  0
  6  7  1  0
  7  8  2  0
  8  9  1  0
  9 10  2  0
 10 11  1  0
 11 12  2  0
 12 13  1  0
 13 14  1  0
 13 15  2  0
 12 16  1  0
 16 17  1  0
 17 18  2  0
 17 19  1  0
 16 20  1  0
 20 21  2  0
 21  7  1  0
 20 10  1  0
  1 22  1  0
  1 23  1  0
  1 24  1  0
  2 25  1  0
  3 26  1  0
  3 27  1  0
  3 28  1  0
  6 29  1  0
  6 30  1  0
  8 31  1  0
  9 32  1  0
 11 33  1  0
 14 34  1  0
 21 35  1  0
M  CHG  3   2   1  14  -1  19  -1
M  END
>  <UniqueID>  (18) 
17

>  <SMILES>  (18) 
C[NH+](C)C(=O)Cc1ccc2cc(C([NH-])=O)n(C(=O)[O-])c2c1

>  <Energy>  (18) 
74.33170041750984

>  <Genealogy>  (18) 
C[NH+](C)C(=O)Cc1ccc2cc(C([NH-])=O)n(C(=O)[O-])c2c1 (protonated)
C[NH+](C)C(=O)Cc1ccc2cc(C([NH-])=O)n(C(=O)[O-])c2c1 (3D coordinates assigned)
C[NH+](C)C(=O)Cc1ccc2cc(C([NH-])=O)n(C(=O)[O-])c2c1 (optimized conformer: 74.33170041750984 kcal/mol)

>  <smiles>  (18) 
CN(C)C(=O)Cc1ccc2cc(C(N)=O)n(C(=O)O)c2c1

>  <score_type>  (18) 
oracle

>  <origin>  (18) 
adg

>  <m_score__min__energy>  (18) 
-6.4000000000000004

>  <m_primary>  (18) 
energy

$$$$
18:0
     RDKit          3D

 32 33  0  0  0  0  0  0  0  0999 V2000
  143.2770  161.7390  133.7020 N   0  0  0  0  0  0  0  0  0  0  0  0
  144.6960  161.7270  133.8330 C   0  0  0  0  0  0  0  0  0  0  0  0
  145.2950  162.7930  134.1400 O   0  0  0  0  0  0  0  0  0  0  0  0
  145.4650  160.4750  133.6730 C   0  0  0  0  0  0  0  0  0  0  0  0
  146.8450  160.4460  133.4850 C   0  0  0  0  0  0  0  0  0  0  0  0
  147.1840  159.1120  133.4800 C   0  0  0  0  0  0  0  0  0  0  0  0
  148.4260  158.5040  133.3240 C   0  0  0  0  0  0  0  0  0  0  0  0
  148.4810  157.1010  133.3370 C   0  0  0  0  0  0  0  0  0  0  0  0
  147.3000  156.3330  133.4950 C   0  0  0  0  0  0  0  0  0  0  0  0
  147.3700  154.8270  133.4930 C   0  0  0  0  0  0  0  0  0  0  0  0
  147.4350  154.2070  135.1620 Cl  0  0  0  0  0  0  0  0  0  0  0  0
  148.8080  154.2700  132.5960 Cl  0  0  0  0  0  0  0  0  0  0  0  0
  146.0550  156.9870  133.6450 C   0  0  0  0  0  0  0  0  0  0  0  0
  146.0330  158.3870  133.6510 C   0  0  0  0  0  0  0  0  0  0  0  0
  144.9670  159.2100  133.7670 N   0  0  0  0  0  0  0  0  0  0  0  0
  143.5950  158.8040  133.8870 C   0  0  0  0  0  0  0  0  0  0  0  0
  142.9690  159.0070  134.9630 O   0  0  0  0  0  0  0  0  0  0  0  0
  142.9490  158.2180  132.7950 O   0  0  0  0  0  0  0  0  0  0  0  0
  141.7420  157.4760  132.9200 C   0  0  0  0  0  0  0  0  0  0  0  0
  140.3500  158.6290  133.0660 P   0  0  1  0  0  0  0  0  0  0  0  0
  139.5160  158.5740  131.8050 O   0  0  0  0  0  0  0  0  0  0  0  0
  139.3950  158.1920  134.3920 O   0  0  0  0  0  0  0  0  0  0  0  0
  140.9420  160.1980  133.2850 O   0  0  0  0  0  0  0  0  0  0  0  0
  142.6980  160.9450  134.0540 H   0  0  0  0  0  0  0  0  0  0  0  0
  147.5202  161.3062  133.3659 H   0  0  0  0  0  0  0  0  0  0  0  0
  149.3381  159.1050  133.1943 H   0  0  0  0  0  0  0  0  0  0  0  0
  149.4500  156.5929  133.2235 H   0  0  0  0  0  0  0  0  0  0  0  0
  146.4658  154.4423  132.9986 H   0  0  0  0  0  0  0  0  0  0  0  0
  145.1254  156.4092  133.7544 H   0  0  0  0  0  0  0  0  0  0  0  0
  141.6047  156.8433  132.0307 H   0  0  0  0  0  0  0  0  0  0  0  0
  141.7901  156.8375  133.8145 H   0  0  0  0  0  0  0  0  0  0  0  0
  141.9220  160.0880  133.3780 H   0  0  0  0  0  0  0  0  0  0  0  0
  1  2  1  0
  2  3  2  0
  2  4  1  0
  4  5  2  0
  5  6  1  0
  6  7  2  0
  7  8  1  0
  8  9  2  0
  9 10  1  0
 10 11  1  0
 10 12  1  0
  9 13  1  0
 13 14  2  0
 14 15  1  0
 15 16  1  0
 16 17  2  0
 16 18  1  0
 18 19  1  0
 19 20  1  0
 20 21  2  0
 20 22  1  1
 20 23  1  0
 15  4  1  0
 14  6  1  0
  1 24  1  0
  5 25  1  0
  7 26  1  0
  8 27  1  0
 10 28  1  0
 13 29  1  0
 19 30  1  0
 19 31  1  0
 23 32  1  0
M  CHG  2   1  -1  22  -1
M  END
>  <UniqueID>  (19) 
18

>  <SMILES>  (19) 
[NH-]C(=O)c1cc2ccc(C(Cl)Cl)cc2n1C(=O)OC[P@@](=O)([O-])O

>  <Energy>  (19) 
63.68111852709025

>  <Genealogy>  (19) 
[NH-]C(=O)c1cc2ccc(C(Cl)Cl)cc2n1C(=O)OCP(=O)([O-])O (protonated)
[NH-]C(=O)c1cc2ccc(C(Cl)Cl)cc2n1C(=O)OC[P@@](=O)([O-])O (chirality)
[NH-]C(=O)c1cc2ccc(C(Cl)Cl)cc2n1C(=O)OC[P@@](=O)([O-])O (3D coordinates assigned)
[NH-]C(=O)c1cc2ccc(C(Cl)Cl)cc2n1C(=O)OC[P@@](=O)([O-])O (optimized conformer: 63.68111852709025 kcal/mol)

>  <smiles>  (19) 
NC(=O)c1cc2ccc(C(Cl)Cl)cc2n1C(=O)OCP(=O)(O)O

>  <score_type>  (19) 
oracle

>  <origin>  (19) 
adg

>  <m_score__min__energy>  (19) 
-5.8099999999999996

>  <m_primary>  (19) 
energy

$$$$
19:0
     RDKit          3D

 30 31  0  0  0  0  0  0  0  0999 V2000
  149.2540  162.0790  130.3520 C   0  0  0  0  0  0  0  0  0  0  0  0
  149.0720  160.7550  131.0320 C   0  0  0  0  0  0  0  0  0  0  0  0
  150.0950  159.7780  130.9690 C   0  0  0  0  0  0  0  0  0  0  0  0
  149.9470  158.5440  131.6240 C   0  0  0  0  0  0  0  0  0  0  0  0
  148.7780  158.3250  132.3470 C   0  0  0  0  0  0  0  0  0  0  0  0
  148.3680  157.2180  133.0530 C   0  0  0  0  0  0  0  0  0  0  0  0
  147.1180  157.5500  133.5690 C   0  0  0  0  0  0  0  0  0  0  0  0
  146.3500  156.6650  134.4700 C   0  0  0  0  0  0  0  0  0  0  0  0
  144.9310  156.5790  134.3770 N   0  0  0  0  0  0  0  0  0  0  0  0
  146.9510  156.0140  135.3660 O   0  0  0  0  0  0  0  0  0  0  0  0
  146.7630  158.8110  133.1920 N   0  0  0  0  0  0  0  0  0  0  0  0
  145.5160  159.4810  133.4360 C   0  0  0  0  0  0  0  0  0  0  0  0
  145.4760  160.4800  134.2040 O   0  0  0  0  0  0  0  0  0  0  0  0
  144.3540  159.0330  132.8020 O   0  0  0  0  0  0  0  0  0  0  0  0
  143.1190  158.8580  133.4900 C   0  0  0  0  0  0  0  0  0  0  0  0
  142.3310  160.1290  133.4820 C   0  0  0  0  0  0  0  0  0  0  0  0
  141.0900  160.1170  133.2650 O   0  0  0  0  0  0  0  0  0  0  0  0
  142.9740  161.3370  133.7170 O   0  0  0  0  0  0  0  0  0  0  0  0
  147.7910  159.2740  132.4450 C   0  0  0  0  0  0  0  0  0  0  0  0
  147.9050  160.5050  131.7880 C   0  0  0  0  0  0  0  0  0  0  0  0
  149.3625  162.8687  131.1101 H   0  0  0  0  0  0  0  0  0  0  0  0
  150.1563  162.0475  129.7236 H   0  0  0  0  0  0  0  0  0  0  0  0
  148.3767  162.2921  129.7236 H   0  0  0  0  0  0  0  0  0  0  0  0
  151.0141  159.9872  130.4019 H   0  0  0  0  0  0  0  0  0  0  0  0
  150.7310  157.7745  131.5672 H   0  0  0  0  0  0  0  0  0  0  0  0
  148.9123  156.2709  133.1825 H   0  0  0  0  0  0  0  0  0  0  0  0
  144.4170  157.0100  133.5770 H   0  0  0  0  0  0  0  0  0  0  0  0
  142.5367  158.0678  132.9935 H   0  0  0  0  0  0  0  0  0  0  0  0
  143.3290  158.5759  134.5323 H   0  0  0  0  0  0  0  0  0  0  0  0
  147.1064  161.2582  131.8586 H   0  0  0  0  0  0  0  0  0  0  0  0
  1  2  1  0
  2  3  2  0
  3  4  1  0
  4  5  2  0
  5  6  1  0
  6  7  2  0
  7  8  1  0
  8  9  1  0
  8 10  2  0
  7 11  1  0
 11 12  1  0
 12 13  2  0
 12 14  1  0
 14 15  1  0
 15 16  1  0
 16 17  2  0
 16 18  1  0
 11 19  1  0
 19 20  2  0
 20  2  1  0
 19  5  1  0
  1 21  1  0
  1 22  1  0
  1 23  1  0
  3 24  1  0
  4 25  1  0
  6 26  1  0
  9 27  1  0
 15 28  1  0
 15 29  1  0
 20 30  1  0
M  CHG  2   9  -1  18  -1
M  END
>  <UniqueID>  (20) 
19

>  <SMILES>  (20) 
Cc1ccc2cc(C([NH-])=O)n(C(=O)OCC(=O)[O-])c2c1

>  <Energy>  (20) 
66.37993252700836

>  <Genealogy>  (20) 
Cc1ccc2cc(C([NH-])=O)n(C(=O)OCC(=O)[O-])c2c1 (protonated)
Cc1ccc2cc(C([NH-])=O)n(C(=O)OCC(=O)[O-])c2c1 (3D coordinates assigned)
Cc1ccc2cc(C([NH-])=O)n(C(=O)OCC(=O)[O-])c2c1 (optimized conformer: 66.37993252700836 kcal/mol)

>  <smiles>  (20) 
Cc1ccc2cc(C(N)=O)n(C(=O)OCC(=O)O)c2c1

>  <score_type>  (20) 
oracle

>  <origin>  (20) 
adg

>  <m_score__min__energy>  (20) 
-6.1900000000000004

>  <m_primary>  (20) 
energy

$$$$
20:0
     RDKit          3D

 43 44  0  0  0  0  0  0  0  0999 V2000
  149.9480  151.1010  131.1190 C   0  0  0  0  0  0  0  0  0  0  0  0
  148.9160  151.8740  131.8250 N   0  0  0  0  0  0  0  0  0  0  0  0
  147.6680  151.0930  131.8880 C   0  0  0  0  0  0  0  0  0  0  0  0
  149.3770  152.2490  133.1800 C   0  0  0  0  0  0  0  0  0  0  0  0
  148.5140  153.3760  133.7630 C   0  0  0  0  0  0  0  0  0  0  0  0
  147.8950  154.1680  132.6970 N   0  0  0  0  0  0  0  0  0  0  0  0
  146.9380  155.2210  132.9090 C   0  0  0  0  0  0  0  0  0  0  0  0
  145.5400  154.9650  132.9420 C   0  0  0  0  0  0  0  0  0  0  0  0
  144.6230  156.0110  133.1330 C   0  0  0  0  0  0  0  0  0  0  0  0
  145.1250  157.2960  133.3080 C   0  0  0  0  0  0  0  0  0  0  0  0
  144.4620  158.4880  133.4890 C   0  0  0  0  0  0  0  0  0  0  0  0
  145.4610  159.4530  133.6030 C   0  0  0  0  0  0  0  0  0  0  0  0
  145.1880  160.8760  133.8960 C   0  0  0  0  0  0  0  0  0  0  0  0
  146.2720  161.7770  134.1050 N   0  0  0  0  0  0  0  0  0  0  0  0
  144.0070  161.3140  133.9290 O   0  0  0  0  0  0  0  0  0  0  0  0
  146.6930  158.8800  133.4890 N   0  0  0  0  0  0  0  0  0  0  0  0
  147.9730  159.5310  133.4930 C   0  0  0  0  0  0  0  0  0  0  0  0
  148.8160  159.2580  134.3920 O   0  0  0  0  0  0  0  0  0  0  0  0
  148.2700  160.4840  132.5130 O   0  0  0  0  0  0  0  0  0  0  0  0
  148.1380  160.2390  131.1150 C   0  0  0  0  0  0  0  0  0  0  0  0
  149.4790  159.9990  130.4990 C   0  0  0  0  0  0  0  0  0  0  0  0
  150.3690  159.3850  131.1430 O   0  0  0  0  0  0  0  0  0  0  0  0
  149.7580  160.4810  129.2250 O   0  0  0  0  0  0  0  0  0  0  0  0
  146.4690  157.5590  133.3130 C   0  0  0  0  0  0  0  0  0  0  0  0
  147.4050  156.5400  133.1060 C   0  0  0  0  0  0  0  0  0  0  0  0
  150.6041  150.6096  131.8526 H   0  0  0  0  0  0  0  0  0  0  0  0
  149.4676  150.3386  130.4881 H   0  0  0  0  0  0  0  0  0  0  0  0
  150.5445  151.7763  130.4881 H   0  0  0  0  0  0  0  0  0  0  0  0
  147.3951  150.9222  132.9398 H   0  0  0  0  0  0  0  0  0  0  0  0
  146.8622  151.6483  131.3856 H   0  0  0  0  0  0  0  0  0  0  0  0
  147.8151  150.1256  131.3856 H   0  0  0  0  0  0  0  0  0  0  0  0
  149.3126  151.3698  133.8379 H   0  0  0  0  0  0  0  0  0  0  0  0
  150.4159  152.6037  133.1107 H   0  0  0  0  0  0  0  0  0  0  0  0
  147.7240  152.9367  134.3898 H   0  0  0  0  0  0  0  0  0  0  0  0
  149.1581  154.0368  134.3618 H   0  0  0  0  0  0  0  0  0  0  0  0
  148.0950  153.8740  131.7130 H   0  0  0  0  0  0  0  0  0  0  0  0
  145.1725  153.9358  132.8165 H   0  0  0  0  0  0  0  0  0  0  0  0
  143.5398  155.8197  133.1439 H   0  0  0  0  0  0  0  0  0  0  0  0
  143.3743  158.6458  133.5341 H   0  0  0  0  0  0  0  0  0  0  0  0
  146.9560  161.9800  133.3420 H   0  0  0  0  0  0  0  0  0  0  0  0
  147.5044  159.3532  130.9605 H   0  0  0  0  0  0  0  0  0  0  0  0
  147.6796  161.1191  130.6403 H   0  0  0  0  0  0  0  0  0  0  0  0
  148.4825  156.7611  133.0968 H   0  0  0  0  0  0  0  0  0  0  0  0
  1  2  1  0
  2  3  1  0
  2  4  1  0
  4  5  1  0
  5  6  1  0
  6  7  1  0
  7  8  2  0
  8  9  1  0
  9 10  2  0
 10 11  1  0
 11 12  2  0
 12 13  1  0
 13 14  1  0
 13 15  2  0
 12 16  1  0
 16 17  1  0
 17 18  2  0
 17 19  1  0
 19 20  1  0
 20 21  1  0
 21 22  2  0
 21 23  1  0
 16 24  1  0
 24 25  2  0
 25  7  1  0
 24 10  1  0
  1 26  1  0
  1 27  1  0
  1 28  1  0
  3 29  1  0
  3 30  1  0
  3 31  1  0
  4 32  1  0
  4 33  1  0
  5 34  1  0
  5 35  1  0
  6 36  1  0
  8 37  1  0
  9 38  1  0
 11 39  1  0
 14 40  1  0
 20 41  1  0
 20 42  1  0
 25 43  1  0
M  CHG  2  14  -1  23  -1
M  END
>  <UniqueID>  (21) 
20

>  <SMILES>  (21) 
CN(C)CCNc1ccc2cc(C([NH-])=O)n(C(=O)OCC(=O)[O-])c2c1

>  <Energy>  (21) 
78.4409481958923

>  <Genealogy>  (21) 
CN(C)CCNc1ccc2cc(C([NH-])=O)n(C(=O)OCC(=O)[O-])c2c1 (protonated)
CN(C)CCNc1ccc2cc(C([NH-])=O)n(C(=O)OCC(=O)[O-])c2c1 (3D coordinates assigned)
CN(C)CCNc1ccc2cc(C([NH-])=O)n(C(=O)OCC(=O)[O-])c2c1 (optimized conformer: 78.4409481958923 kcal/mol)

>  <smiles>  (21) 
CN(C)CCNc1ccc2cc(C(N)=O)n(C(=O)OCC(=O)O)c2c1

>  <score_type>  (21) 
oracle

>  <origin>  (21) 
adg

>  <m_score__min__energy>  (21) 
-6.71

>  <m_primary>  (21) 
energy

$$$$
21:0
     RDKit          3D

 37 39  0  0  0  0  0  0  0  0999 V2000
  142.5490  161.0740  133.4330 N   0  0  0  0  0  0  0  0  0  0  0  0
  143.9240  161.3010  133.7310 C   0  0  0  0  0  0  0  0  0  0  0  0
  144.3130  162.4710  133.9950 O   0  0  0  0  0  0  0  0  0  0  0  0
  144.9070  160.2000  133.6760 C   0  0  0  0  0  0  0  0  0  0  0  0
  146.2850  160.4020  133.7130 C   0  0  0  0  0  0  0  0  0  0  0  0
  146.8420  159.1550  133.5400 C   0  0  0  0  0  0  0  0  0  0  0  0
  148.1770  158.7700  133.5080 C   0  0  0  0  0  0  0  0  0  0  0  0
  148.4660  157.4040  133.3450 C   0  0  0  0  0  0  0  0  0  0  0  0
  147.4220  156.4530  133.2090 C   0  0  0  0  0  0  0  0  0  0  0  0
  147.7410  154.9840  133.0940 C   0  0  0  0  0  0  0  0  0  0  0  0
  148.8350  154.7860  132.2690 F   0  0  0  0  0  0  0  0  0  0  0  0
  148.0360  154.4490  134.3360 F   0  0  0  0  0  0  0  0  0  0  0  0
  146.6500  154.3220  132.5650 F   0  0  0  0  0  0  0  0  0  0  0  0
  146.0760  156.8840  133.2750 C   0  0  0  0  0  0  0  0  0  0  0  0
  145.8180  158.2520  133.4160 C   0  0  0  0  0  0  0  0  0  0  0  0
  144.6220  158.8770  133.5030 N   0  0  0  0  0  0  0  0  0  0  0  0
  143.3320  158.2450  133.4860 C   0  0  0  0  0  0  0  0  0  0  0  0
  143.0020  157.5210  132.5070 O   0  0  0  0  0  0  0  0  0  0  0  0
  142.4410  158.4740  134.5420 O   0  0  0  0  0  0  0  0  0  0  0  0
  141.0720  158.1730  134.5280 C   0  0  0  0  0  0  0  0  0  0  0  0
  140.5260  157.6090  135.5150 O   0  0  0  0  0  0  0  0  0  0  0  0
  140.2620  158.5260  133.3420 C   0  0  0  0  0  0  0  0  0  0  0  0
  138.8840  158.2480  133.3200 C   0  0  0  0  0  0  0  0  0  0  0  0
  138.1300  158.5910  132.1980 C   0  0  0  0  0  0  0  0  0  0  0  0
  138.7460  159.2040  131.1080 C   0  0  0  0  0  0  0  0  0  0  0  0
  140.1150  159.4680  131.1580 C   0  0  0  0  0  0  0  0  0  0  0  0
  140.8400  159.1290  132.2590 N   0  0  0  0  0  0  0  0  0  0  0  0
  142.2030  160.1210  133.1890 H   0  0  0  0  0  0  0  0  0  0  0  0
  146.8155  161.3557  133.8512 H   0  0  0  0  0  0  0  0  0  0  0  0
  148.9832  159.5118  133.6072 H   0  0  0  0  0  0  0  0  0  0  0  0
  149.5134  157.0687  133.3226 H   0  0  0  0  0  0  0  0  0  0  0  0
  145.2504  156.1595  133.2167 H   0  0  0  0  0  0  0  0  0  0  0  0
  138.4035  157.7629  134.1825 H   0  0  0  0  0  0  0  0  0  0  0  0
  137.0511  158.3782  132.1732 H   0  0  0  0  0  0  0  0  0  0  0  0
  138.1592  159.4765  130.2184 H   0  0  0  0  0  0  0  0  0  0  0  0
  140.6108  159.9523  130.3038 H   0  0  0  0  0  0  0  0  0  0  0  0
  141.8630  159.3440  132.2580 H   0  0  0  0  0  0  0  0  0  0  0  0
  1  2  1  0
  2  3  2  0
  2  4  1  0
  4  5  2  0
  5  6  1  0
  6  7  2  0
  7  8  1  0
  8  9  2  0
  9 10  1  0
 10 11  1  0
 10 12  1  0
 10 13  1  0
  9 14  1  0
 14 15  2  0
 15 16  1  0
 16 17  1  0
 17 18  2  0
 17 19  1  0
 19 20  1  0
 20 21  2  0
 20 22  1  0
 22 23  2  0
 23 24  1  0
 24 25  2  0
 25 26  1  0
 26 27  2  0
 16  4  1  0
 27 22  1  0
 15  6  1  0
  1 28  1  0
  5 29  1  0
  7 30  1  0
  8 31  1  0
 14 32  1  0
 23 33  1  0
 24 34  1  0
 25 35  1  0
 26 36  1  0
 27 37  1  0
M  CHG  2   1  -1  27   1
M  END
>  <UniqueID>  (22) 
21

>  <SMILES>  (22) 
[NH-]C(=O)c1cc2ccc(C(F)(F)F)cc2n1C(=O)OC(=O)c1cccc[nH+]1

>  <Energy>  (22) 
80.67085690819115

>  <Genealogy>  (22) 
[NH-]C(=O)c1cc2ccc(C(F)(F)F)cc2n1C(=O)OC(=O)c1cccc[nH+]1 (protonated)
[NH-]C(=O)c1cc2ccc(C(F)(F)F)cc2n1C(=O)OC(=O)c1cccc[nH+]1 (3D coordinates assigned)
[NH-]C(=O)c1cc2ccc(C(F)(F)F)cc2n1C(=O)OC(=O)c1cccc[nH+]1 (optimized conformer: 80.67085690819115 kcal/mol)

>  <smiles>  (22) 
NC(=O)c1cc2ccc(C(F)(F)F)cc2n1C(=O)OC(=O)c1ccccn1

>  <score_type>  (22) 
oracle

>  <origin>  (22) 
adg

>  <m_score__min__energy>  (22) 
-6.7400000000000002

>  <m_primary>  (22) 
energy

$$$$
22:0
     RDKit          3D

 45 46  0  0  0  0  0  0  0  0999 V2000
  139.1310  157.1320  133.3500 C   0  0  0  0  0  0  0  0  0  0  0  0
  140.5830  156.9590  133.1920 N   0  0  0  0  0  0  0  0  0  0  0  0
  141.2180  155.6580  133.4430 C   0  0  0  0  0  0  0  0  0  0  0  0
  141.3960  158.0810  132.8060 C   0  0  0  0  0  0  0  0  0  0  0  0
  140.8600  159.2080  132.6110 O   0  0  0  0  0  0  0  0  0  0  0  0
  142.7820  157.9140  132.6630 O   0  0  0  0  0  0  0  0  0  0  0  0
  143.7070  157.9470  133.7120 C   0  0  0  0  0  0  0  0  0  0  0  0
  143.4200  157.4740  134.8470 O   0  0  0  0  0  0  0  0  0  0  0  0
  144.9900  158.5540  133.5020 N   0  0  0  0  0  0  0  0  0  0  0  0
  145.3090  159.8800  133.5540 C   0  0  0  0  0  0  0  0  0  0  0  0
  144.3580  160.9980  133.7410 C   0  0  0  0  0  0  0  0  0  0  0  0
  142.9890  160.8350  133.3660 N   0  0  0  0  0  0  0  0  0  0  0  0
  144.7360  162.0930  134.2450 O   0  0  0  0  0  0  0  0  0  0  0  0
  146.6760  160.0550  133.3500 C   0  0  0  0  0  0  0  0  0  0  0  0
  147.1880  158.7880  133.1790 C   0  0  0  0  0  0  0  0  0  0  0  0
  148.4970  158.3710  132.9760 C   0  0  0  0  0  0  0  0  0  0  0  0
  148.7430  156.9920  132.8760 C   0  0  0  0  0  0  0  0  0  0  0  0
  147.6850  156.0410  132.9830 C   0  0  0  0  0  0  0  0  0  0  0  0
  147.9600  154.6140  132.9040 N   0  0  0  0  0  0  0  0  0  0  0  0
  149.3090  154.1400  132.5690 C   0  0  0  0  0  0  0  0  0  0  0  0
  146.9130  153.6060  133.1520 C   0  0  0  0  0  0  0  0  0  0  0  0
  147.3210  152.2300  132.6040 C   0  0  0  0  0  0  0  0  0  0  0  0
  146.2060  151.6010  131.9000 N   0  0  0  0  0  0  0  0  0  0  0  0
  146.3620  156.5210  133.1820 C   0  0  0  0  0  0  0  0  0  0  0  0
  146.1500  157.9010  133.2700 C   0  0  0  0  0  0  0  0  0  0  0  0
  138.8796  157.1620  134.4205 H   0  0  0  0  0  0  0  0  0  0  0  0
  138.8200  158.0736  132.8739 H   0  0  0  0  0  0  0  0  0  0  0  0
  138.6074  156.2899  132.8739 H   0  0  0  0  0  0  0  0  0  0  0  0
  141.2988  155.4925  134.5275 H   0  0  0  0  0  0  0  0  0  0  0  0
  140.6082  154.8598  132.9947 H   0  0  0  0  0  0  0  0  0  0  0  0
  142.2225  155.6477  132.9947 H   0  0  0  0  0  0  0  0  0  0  0  0
  142.7040  160.1040  132.6790 H   0  0  0  0  0  0  0  0  0  0  0  0
  147.2298  161.0052  133.3298 H   0  0  0  0  0  0  0  0  0  0  0  0
  149.3172  159.0996  132.8959 H   0  0  0  0  0  0  0  0  0  0  0  0
  149.7716  156.6382  132.7120 H   0  0  0  0  0  0  0  0  0  0  0  0
  149.8690  153.9432  133.4951 H   0  0  0  0  0  0  0  0  0  0  0  0
  149.2365  153.2135  131.9805 H   0  0  0  0  0  0  0  0  0  0  0  0
  149.8320  154.9082  131.9805 H   0  0  0  0  0  0  0  0  0  0  0  0
  146.7441  153.5242  134.2359 H   0  0  0  0  0  0  0  0  0  0  0  0
  145.9947  153.9259  132.6377 H   0  0  0  0  0  0  0  0  0  0  0  0
  148.1632  152.3544  131.9075 H   0  0  0  0  0  0  0  0  0  0  0  0
  147.6135  151.5871  133.4472 H   0  0  0  0  0  0  0  0  0  0  0  0
  145.9320  152.2270  131.1080 H   0  0  0  0  0  0  0  0  0  0  0  0
  146.5510  150.7120  131.4680 H   0  0  0  0  0  0  0  0  0  0  0  0
  145.5191  155.8192  133.2654 H   0  0  0  0  0  0  0  0  0  0  0  0
  1  2  1  0
  2  3  1  0
  2  4  1  0
  4  5  2  0
  4  6  1  0
  6  7  1  0
  7  8  2  0
  7  9  1  0
  9 10  1  0
 10 11  1  0
 11 12  1  0
 11 13  2  0
 10 14  2  0
 14 15  1  0
 15 16  2  0
 16 17  1  0
 17 18  2  0
 18 19  1  0
 19 20  1  0
 19 21  1  0
 21 22  1  0
 22 23  1  0
 18 24  1  0
 24 25  2  0
 25  9  1  0
 25 15  1  0
  1 26  1  0
  1 27  1  0
  1 28  1  0
  3 29  1  0
  3 30  1  0
  3 31  1  0
 12 32  1  0
 14 33  1  0
 16 34  1  0
 17 35  1  0
 20 36  1  0
 20 37  1  0
 20 38  1  0
 21 39  1  0
 21 40  1  0
 22 41  1  0
 22 42  1  0
 23 43  1  0
 23 44  1  0
 24 45  1  0
M  CHG  1  12  -1
M  END
>  <UniqueID>  (23) 
22

>  <SMILES>  (23) 
CN(C)C(=O)OC(=O)n1c(C([NH-])=O)cc2ccc(N(C)CCN)cc21

>  <Energy>  (23) 
80.47534629211657

>  <Genealogy>  (23) 
CN(C)C(=O)OC(=O)n1c(C([NH-])=O)cc2ccc(N(C)CCN)cc21 (protonated)
CN(C)C(=O)OC(=O)n1c(C([NH-])=O)cc2ccc(N(C)CCN)cc21 (3D coordinates assigned)
CN(C)C(=O)OC(=O)n1c(C([NH-])=O)cc2ccc(N(C)CCN)cc21 (optimized conformer: 80.47534629211657 kcal/mol)

>  <smiles>  (23) 
CN(C)C(=O)OC(=O)n1c(C(N)=O)cc2ccc(N(C)CCN)cc21

>  <score_type>  (23) 
oracle

>  <origin>  (23) 
adg

>  <m_score__min__energy>  (23) 
-6.8200000000000003

>  <m_primary>  (23) 
energy

$$$$
23:0
     RDKit          3D

 46 49  0  0  0  0  0  0  0  0999 V2000
  143.8610  160.0960  133.5970 C   0  0  0  0  0  0  0  0  0  0  0  0
  142.5920  159.3780  133.3610 N   0  0  2  0  0  0  0  0  0  0  0  0
  141.4530  160.0580  134.0270 C   0  0  0  0  0  0  0  0  0  0  0  0
  140.2640  159.0980  134.2980 C   0  0  1  0  0  0  0  0  0  0  0  0
  140.1650  158.0060  133.2090 C   0  0  0  0  0  0  0  0  0  0  0  0
  141.4680  157.1900  133.0770 C   0  0  0  0  0  0  0  0  0  0  0  0
  142.6730  157.9350  133.7070 C   0  0  2  0  0  0  0  0  0  0  0  0
  142.7490  157.6830  135.2430 C   0  0  0  0  0  0  0  0  0  0  0  0
  141.4290  157.5010  135.8720 N   0  0  0  0  0  0  0  0  0  0  0  0
  141.3270  156.5850  136.9760 C   0  0  0  0  0  0  0  0  0  0  0  0
  141.1920  157.0730  138.2990 C   0  0  0  0  0  0  0  0  0  0  0  0
  141.1000  156.1870  139.3850 C   0  0  0  0  0  0  0  0  0  0  0  0
  141.1460  154.8220  139.1170 C   0  0  0  0  0  0  0  0  0  0  0  0
  141.1210  153.7480  139.9780 C   0  0  0  0  0  0  0  0  0  0  0  0
  141.2300  152.6190  139.1690 C   0  0  0  0  0  0  0  0  0  0  0  0
  141.1940  151.2340  139.6900 C   0  0  0  0  0  0  0  0  0  0  0  0
  140.5110  150.9580  140.9150 N   0  0  0  0  0  0  0  0  0  0  0  0
  141.7480  150.2870  139.0610 O   0  0  0  0  0  0  0  0  0  0  0  0
  141.3220  152.9810  137.8560 N   0  0  0  0  0  0  0  0  0  0  0  0
  141.5030  152.1310  136.7120 C   0  0  0  0  0  0  0  0  0  0  0  0
  142.4080  152.3780  135.8700 O   0  0  0  0  0  0  0  0  0  0  0  0
  140.6480  151.0560  136.5020 O   0  0  0  0  0  0  0  0  0  0  0  0
  141.2650  154.3320  137.8420 C   0  0  0  0  0  0  0  0  0  0  0  0
  141.3660  155.1930  136.7430 C   0  0  0  0  0  0  0  0  0  0  0  0
  140.3430  158.4800  135.7120 C   0  0  0  0  0  0  0  0  0  0  0  0
  144.0318  160.1926  134.6794 H   0  0  0  0  0  0  0  0  0  0  0  0
  144.6904  159.5333  133.1437 H   0  0  0  0  0  0  0  0  0  0  0  0
  143.8059  161.0967  133.1437 H   0  0  0  0  0  0  0  0  0  0  0  0
  142.4320  159.4410  132.3260 H   0  0  0  0  0  0  0  0  0  0  0  0
  141.7999  160.4695  134.9863 H   0  0  0  0  0  0  0  0  0  0  0  0
  141.0960  160.8503  133.3526 H   0  0  0  0  0  0  0  0  0  0  0  0
  139.3416  159.6957  134.2542 H   0  0  0  0  0  0  0  0  0  0  0  0
  139.3438  157.3215  133.4682 H   0  0  0  0  0  0  0  0  0  0  0  0
  139.9826  158.5064  132.2465 H   0  0  0  0  0  0  0  0  0  0  0  0
  141.3382  156.2246  133.5880 H   0  0  0  0  0  0  0  0  0  0  0  0
  141.6753  157.0427  132.0068 H   0  0  0  0  0  0  0  0  0  0  0  0
  143.6120  157.5407  133.2914 H   0  0  0  0  0  0  0  0  0  0  0  0
  143.3469  156.7765  135.4185 H   0  0  0  0  0  0  0  0  0  0  0  0
  143.2046  158.5757  135.6964 H   0  0  0  0  0  0  0  0  0  0  0  0
  141.1589  158.1579  138.4778 H   0  0  0  0  0  0  0  0  0  0  0  0
  140.9950  156.5600  140.4145 H   0  0  0  0  0  0  0  0  0  0  0  0
  141.0334  153.7755  141.0742 H   0  0  0  0  0  0  0  0  0  0  0  0
  139.4860  150.7480  140.9180 H   0  0  0  0  0  0  0  0  0  0  0  0
  141.4731  154.7950  135.7231 H   0  0  0  0  0  0  0  0  0  0  0  0
  139.3882  157.9767  135.9244 H   0  0  0  0  0  0  0  0  0  0  0  0
  140.5490  159.3041  136.4109 H   0  0  0  0  0  0  0  0  0  0  0  0
  1  2  1  0
  2  3  1  0
  3  4  1  0
  4  5  1  0
  5  6  1  0
  6  7  1  0
  7  8  1  0
  8  9  1  0
  9 10  1  0
 10 11  2  0
 11 12  1  0
 12 13  2  0
 13 14  1  0
 14 15  2  0
 15 16  1  0
 16 17  1  0
 16 18  2  0
 15 19  1  0
 19 20  1  0
 20 21  2  0
 20 22  1  0
 19 23  1  0
 23 24  2  0
  9 25  1  0
  7  2  1  0
 24 10  1  0
 25  4  1  0
 23 13  1  0
  1 26  1  0
  1 27  1  0
  1 28  1  0
  2 29  1  6
  3 30  1  0
  3 31  1  0
  4 32  1  1
  5 33  1  0
  5 34  1  0
  6 35  1  0
  6 36  1  0
  7 37  1  6
  8 38  1  0
  8 39  1  0
 11 40  1  0
 12 41  1  0
 14 42  1  0
 17 43  1  0
 24 44  1  0
 25 45  1  0
 25 46  1  0
M  CHG  3   2   1  17  -1  22  -1
M  END
>  <UniqueID>  (24) 
23

>  <SMILES>  (24) 
C[N@@H+]1C[C@H]2CCC1CN(c1ccc3cc(C([NH-])=O)n(C(=O)[O-])c3c1)C2

>  <Energy>  (24) 
109.51808159876002

>  <Genealogy>  (24) 
C[NH+]1CC2CCC1CN(c1ccc3cc(C([NH-])=O)n(C(=O)[O-])c3c1)C2 (protonated)
C[N@@H+]1C[C@H]2CCC1CN(c1ccc3cc(C([NH-])=O)n(C(=O)[O-])c3c1)C2 (chirality)
C[N@@H+]1C[C@H]2CCC1CN(c1ccc3cc(C([NH-])=O)n(C(=O)[O-])c3c1)C2 (3D coordinates assigned)
C[N@@H+]1C[C@H]2CCC1CN(c1ccc3cc(C([NH-])=O)n(C(=O)[O-])c3c1)C2 (nonaromatic ring conformer: 109.51808159876002 kcal/mol)

>  <smiles>  (24) 
CN1CC2CCC1CN(c1ccc3cc(C(N)=O)n(C(=O)O)c3c1)C2

>  <score_type>  (24) 
oracle

>  <origin>  (24) 
adg

>  <m_score__min__energy>  (24) 
-6.0899999999999999

>  <m_primary>  (24) 
energy

$$$$
24:0
     RDKit          3D

 50 51  0  0  0  0  0  0  0  0999 V2000
  140.6360  159.3490  133.5050 C   0  0  0  0  0  0  0  0  0  0  0  0
  140.1930  158.0930  134.1170 N   0  0  0  0  0  0  0  0  0  0  0  0
  139.2330  157.2730  133.4230 C   0  0  0  0  0  0  0  0  0  0  0  0
  137.9980  157.4900  133.5580 O   0  0  0  0  0  0  0  0  0  0  0  0
  139.6760  156.2320  132.5990 O   0  0  0  0  0  0  0  0  0  0  0  0
  139.6360  154.8640  132.9920 C   0  0  0  0  0  0  0  0  0  0  0  0
  140.8410  154.5260  133.6700 O   0  0  0  0  0  0  0  0  0  0  0  0
  141.7980  153.6550  133.1370 C   0  0  0  0  0  0  0  0  0  0  0  0
  142.7740  154.1150  132.4800 O   0  0  0  0  0  0  0  0  0  0  0  0
  141.7080  152.1670  133.4160 C   0  0  0  0  0  0  0  0  0  0  0  0
  140.5330  151.5840  132.6130 C   0  0  0  0  0  0  0  0  0  0  0  0
  143.0140  151.4640  132.9940 C   0  0  0  0  0  0  0  0  0  0  0  0
  141.4740  151.9230  134.9220 C   0  0  0  0  0  0  0  0  0  0  0  0
  140.5520  157.8060  135.4860 C   0  0  0  0  0  0  0  0  0  0  0  0
  140.1220  158.5350  136.4230 O   0  0  0  0  0  0  0  0  0  0  0  0
  141.4340  156.7210  135.8030 N   0  0  0  0  0  0  0  0  0  0  0  0
  142.5800  156.3540  135.1620 C   0  0  0  0  0  0  0  0  0  0  0  0
  143.1330  156.9900  133.9480 C   0  0  0  0  0  0  0  0  0  0  0  0
  142.5320  156.8070  132.6660 N   0  0  0  0  0  0  0  0  0  0  0  0
  144.1740  157.6930  134.0410 O   0  0  0  0  0  0  0  0  0  0  0  0
  143.2000  155.3060  135.8400 C   0  0  0  0  0  0  0  0  0  0  0  0
  142.3860  155.0340  136.9180 C   0  0  0  0  0  0  0  0  0  0  0  0
  142.5290  154.1040  137.9420 C   0  0  0  0  0  0  0  0  0  0  0  0
  141.5480  154.0770  138.9500 C   0  0  0  0  0  0  0  0  0  0  0  0
  140.4560  154.9760  138.9150 C   0  0  0  0  0  0  0  0  0  0  0  0
  139.4740  154.9530  139.9550 N   0  0  0  0  0  0  0  0  0  0  0  0
  140.3410  155.9060  137.8600 C   0  0  0  0  0  0  0  0  0  0  0  0
  141.3260  155.9040  136.8690 C   0  0  0  0  0  0  0  0  0  0  0  0
  140.8909  160.0716  134.2943 H   0  0  0  0  0  0  0  0  0  0  0  0
  141.5218  159.1603  132.8807 H   0  0  0  0  0  0  0  0  0  0  0  0
  139.8278  159.7578  132.8807 H   0  0  0  0  0  0  0  0  0  0  0  0
  138.7802  154.7010  133.6635 H   0  0  0  0  0  0  0  0  0  0  0  0
  139.5296  154.2306  132.0990 H   0  0  0  0  0  0  0  0  0  0  0  0
  139.7678  151.2043  133.3061 H   0  0  0  0  0  0  0  0  0  0  0  0
  140.0962  152.3699  131.9793 H   0  0  0  0  0  0  0  0  0  0  0  0
  140.8946  150.7608  131.9793 H   0  0  0  0  0  0  0  0  0  0  0  0
  143.5744  151.1623  133.8912 H   0  0  0  0  0  0  0  0  0  0  0  0
  142.7739  150.5733  132.3949 H   0  0  0  0  0  0  0  0  0  0  0  0
  143.6253  152.1550  132.3949 H   0  0  0  0  0  0  0  0  0  0  0  0
  142.1188  152.5954  135.5069 H   0  0  0  0  0  0  0  0  0  0  0  0
  140.4200  152.1215  135.1662 H   0  0  0  0  0  0  0  0  0  0  0  0
  141.7165  150.8782  135.1662 H   0  0  0  0  0  0  0  0  0  0  0  0
  141.8230  156.0600  132.4980 H   0  0  0  0  0  0  0  0  0  0  0  0
  142.8870  157.3490  131.8450 H   0  0  0  0  0  0  0  0  0  0  0  0
  144.1403  154.8024  135.5713 H   0  0  0  0  0  0  0  0  0  0  0  0
  143.3829  153.4109  137.9632 H   0  0  0  0  0  0  0  0  0  0  0  0
  141.6306  153.3509  139.7722 H   0  0  0  0  0  0  0  0  0  0  0  0
  138.5620  154.4630  139.8180 H   0  0  0  0  0  0  0  0  0  0  0  0
  139.6500  155.4270  140.8680 H   0  0  0  0  0  0  0  0  0  0  0  0
  139.4993  156.6130  137.8189 H   0  0  0  0  0  0  0  0  0  0  0  0
  1  2  1  0
  2  3  1  0
  3  4  2  0
  3  5  1  0
  5  6  1  0
  6  7  1  0
  7  8  1  0
  8  9  2  0
  8 10  1  0
 10 11  1  0
 10 12  1  0
 10 13  1  0
  2 14  1  0
 14 15  2  0
 14 16  1  0
 16 17  1  0
 17 18  1  0
 18 19  1  0
 18 20  2  0
 17 21  2  0
 21 22  1  0
 22 23  2  0
 23 24  1  0
 24 25  2  0
 25 26  1  0
 25 27  1  0
 27 28  2  0
 28 16  1  0
 28 22  1  0
  1 29  1  0
  1 30  1  0
  1 31  1  0
  6 32  1  0
  6 33  1  0
 11 34  1  0
 11 35  1  0
 11 36  1  0
 12 37  1  0
 12 38  1  0
 12 39  1  0
 13 40  1  0
 13 41  1  0
 13 42  1  0
 19 43  1  0
 19 44  1  0
 21 45  1  0
 23 46  1  0
 24 47  1  0
 26 48  1  0
 26 49  1  0
 27 50  1  0
M  END
>  <UniqueID>  (25) 
24

>  <SMILES>  (25) 
CN(C(=O)OCOC(=O)C(C)(C)C)C(=O)n1c(C(N)=O)cc2ccc(N)cc21

>  <Energy>  (25) 
83.96939043316962

>  <Genealogy>  (25) 
CN(C(=O)OCOC(=O)C(C)(C)C)C(=O)n1c(C(N)=O)cc2ccc(N)cc21 (3D coordinates assigned)
CN(C(=O)OCOC(=O)C(C)(C)C)C(=O)n1c(C(N)=O)cc2ccc(N)cc21 (optimized conformer: 83.96939043316962 kcal/mol)

>  <smiles>  (25) 
CN(C(=O)OCOC(=O)C(C)(C)C)C(=O)n1c(C(N)=O)cc2ccc(N)cc21

>  <score_type>  (25) 
oracle

>  <origin>  (25) 
adg

>  <m_score__min__energy>  (25) 
-7.0199999999999996

>  <m_primary>  (25) 
energy

$$$$
25:0
     RDKit          3D

 43 45  0  0  0  0  0  0  0  0999 V2000
  149.1500  157.3470  131.8530 N   0  0  0  0  0  0  0  0  0  0  0  0
  148.7550  158.5960  132.4220 C   0  0  0  0  0  0  0  0  0  0  0  0
  149.6260  159.4820  132.6310 O   0  0  0  0  0  0  0  0  0  0  0  0
  147.3560  158.8440  132.8280 C   0  0  0  0  0  0  0  0  0  0  0  0
  146.8180  160.1170  132.9840 C   0  0  0  0  0  0  0  0  0  0  0  0
  145.5310  159.9140  133.4260 C   0  0  0  0  0  0  0  0  0  0  0  0
  144.5400  160.8330  133.7350 C   0  0  0  0  0  0  0  0  0  0  0  0
  143.2860  160.3460  134.1360 C   0  0  0  0  0  0  0  0  0  0  0  0
  143.0200  158.9450  134.2130 C   0  0  0  0  0  0  0  0  0  0  0  0
  141.7080  158.4470  134.6190 N   0  0  0  0  0  0  0  0  0  0  0  0
  141.3130  158.5220  136.0430 C   0  0  0  0  0  0  0  0  0  0  0  0
  139.9440  157.9020  136.3350 C   0  0  0  0  0  0  0  0  0  0  0  0
  139.0360  158.1710  135.2940 O   0  0  0  0  0  0  0  0  0  0  0  0
  139.4420  157.4510  134.1550 C   0  0  0  0  0  0  0  0  0  0  0  0
  140.7440  158.0170  133.5830 C   0  0  0  0  0  0  0  0  0  0  0  0
  144.0770  158.0460  133.8860 C   0  0  0  0  0  0  0  0  0  0  0  0
  145.3230  158.5640  133.5140 C   0  0  0  0  0  0  0  0  0  0  0  0
  146.4360  157.8910  133.1450 N   0  0  0  0  0  0  0  0  0  0  0  0
  146.5730  156.4670  133.0110 C   0  0  0  0  0  0  0  0  0  0  0  0
  146.4920  155.9340  131.8700 O   0  0  0  0  0  0  0  0  0  0  0  0
  146.7960  155.6790  134.1450 O   0  0  0  0  0  0  0  0  0  0  0  0
  147.0580  154.2770  134.0900 C   0  0  0  0  0  0  0  0  0  0  0  0
  148.4720  154.0160  133.5700 C   0  0  0  0  0  0  0  0  0  0  0  0
  148.5960  154.4730  132.2510 O   0  0  0  0  0  0  0  0  0  0  0  0
  150.1330  157.2060  131.5320 H   0  0  0  0  0  0  0  0  0  0  0  0
  148.4960  156.5340  131.8280 H   0  0  0  0  0  0  0  0  0  0  0  0
  147.3150  161.0799  132.7946 H   0  0  0  0  0  0  0  0  0  0  0  0
  144.7311  161.9142  133.6678 H   0  0  0  0  0  0  0  0  0  0  0  0
  142.4904  161.0595  134.3968 H   0  0  0  0  0  0  0  0  0  0  0  0
  142.0689  157.9925  136.6415 H   0  0  0  0  0  0  0  0  0  0  0  0
  141.2448  159.5889  136.3021 H   0  0  0  0  0  0  0  0  0  0  0  0
  140.0575  156.8130  136.4408 H   0  0  0  0  0  0  0  0  0  0  0  0
  139.5517  158.3407  137.2643 H   0  0  0  0  0  0  0  0  0  0  0  0
  139.5987  156.3981  134.4321 H   0  0  0  0  0  0  0  0  0  0  0  0
  138.6570  157.5355  133.3890 H   0  0  0  0  0  0  0  0  0  0  0  0
  141.2196  157.2402  132.9663 H   0  0  0  0  0  0  0  0  0  0  0  0
  140.4783  158.9103  132.9987 H   0  0  0  0  0  0  0  0  0  0  0  0
  143.9154  156.9587  133.9255 H   0  0  0  0  0  0  0  0  0  0  0  0
  146.9590  153.8505  135.0991 H   0  0  0  0  0  0  0  0  0  0  0  0
  146.3355  153.8068  133.4067 H   0  0  0  0  0  0  0  0  0  0  0  0
  149.1965  154.5446  134.2070 H   0  0  0  0  0  0  0  0  0  0  0  0
  148.6687  152.9340  133.5944 H   0  0  0  0  0  0  0  0  0  0  0  0
  147.6830  154.4730  131.8630 H   0  0  0  0  0  0  0  0  0  0  0  0
  1  2  1  0
  2  3  2  0
  2  4  1  0
  4  5  2  0
  5  6  1  0
  6  7  2  0
  7  8  1  0
  8  9  2  0
  9 10  1  0
 10 11  1  0
 11 12  1  0
 12 13  1  0
 13 14  1  0
 14 15  1  0
  9 16  1  0
 16 17  2  0
 17 18  1  0
 18 19  1  0
 19 20  2  0
 19 21  1  0
 21 22  1  0
 22 23  1  0
 23 24  1  0
 18  4  1  0
 17  6  1  0
 15 10  1  0
  1 25  1  0
  1 26  1  0
  5 27  1  0
  7 28  1  0
  8 29  1  0
 11 30  1  0
 11 31  1  0
 12 32  1  0
 12 33  1  0
 14 34  1  0
 14 35  1  0
 15 36  1  0
 15 37  1  0
 16 38  1  0
 22 39  1  0
 22 40  1  0
 23 41  1  0
 23 42  1  0
 24 43  1  0
M  END
>  <UniqueID>  (26) 
25

>  <SMILES>  (26) 
NC(=O)c1cc2ccc(N3CCOCC3)cc2n1C(=O)OCCO

>  <Energy>  (26) 
87.60575906210238

>  <Genealogy>  (26) 
NC(=O)c1cc2ccc(N3CCOCC3)cc2n1C(=O)OCCO (3D coordinates assigned)
NC(=O)c1cc2ccc(N3CCOCC3)cc2n1C(=O)OCCO (nonaromatic ring conformer: 87.60575906210238 kcal/mol)

>  <smiles>  (26) 
NC(=O)c1cc2ccc(N3CCOCC3)cc2n1C(=O)OCCO

>  <score_type>  (26) 
oracle

>  <origin>  (26) 
adg

>  <m_score__min__energy>  (26) 
-6.5999999999999996

>  <m_primary>  (26) 
energy

$$$$
26:0
     RDKit          3D

 47 49  0  0  0  0  0  0  0  0999 V2000
  147.2170  151.8620  131.1930 H   0  0  0  0  0  0  0  0  0  0  0  0
  148.0200  151.5130  131.7630 N   0  0  0  0  0  0  0  0  0  0  0  0
  148.6930  152.3700  132.6820 C   0  0  0  0  0  0  0  0  0  0  0  0
  149.6130  151.9010  133.4030 O   0  0  0  0  0  0  0  0  0  0  0  0
  148.3160  153.7960  132.7700 C   0  0  0  0  0  0  0  0  0  0  0  0
  149.2170  154.8490  132.6110 C   0  0  0  0  0  0  0  0  0  0  0  0
  150.2909  154.7801  132.3828 H   0  0  0  0  0  0  0  0  0  0  0  0
  148.4740  155.9940  132.8010 C   0  0  0  0  0  0  0  0  0  0  0  0
  148.8560  157.3290  132.7400 C   0  0  0  0  0  0  0  0  0  0  0  0
  149.8992  157.6107  132.5342 H   0  0  0  0  0  0  0  0  0  0  0  0
  147.8700  158.3080  132.9490 C   0  0  0  0  0  0  0  0  0  0  0  0
  148.1468  159.3720  132.9143 H   0  0  0  0  0  0  0  0  0  0  0  0
  146.5180  157.9430  133.2050 C   0  0  0  0  0  0  0  0  0  0  0  0
  145.5070  158.9600  133.4100 N   0  0  0  0  0  0  0  0  0  0  0  0
  145.8110  160.3580  133.6860 C   0  0  0  0  0  0  0  0  0  0  0  0
  146.2803  160.8262  132.8082 H   0  0  0  0  0  0  0  0  0  0  0  0
  146.5135  160.4560  134.5268 H   0  0  0  0  0  0  0  0  0  0  0  0
  144.4800  161.0320  133.9950 C   0  0  0  0  0  0  0  0  0  0  0  0
  144.4150  162.0068  133.4895 H   0  0  0  0  0  0  0  0  0  0  0  0
  144.3568  161.2232  135.0712 H   0  0  0  0  0  0  0  0  0  0  0  0
  143.4060  160.0730  133.4560 C   0  0  2  0  0  0  0  0  0  0  0  0
  143.0753  160.4031  132.4602 H   0  0  0  0  0  0  0  0  0  0  0  0
  142.1090  160.0890  134.1900 N   0  0  0  0  0  0  0  0  0  0  0  0
  140.9070  159.8370  133.3670 C   0  0  0  0  0  0  0  0  0  0  0  0
  140.0438  159.6560  134.0244 H   0  0  0  0  0  0  0  0  0  0  0  0
  140.7071  160.7128  132.7321 H   0  0  0  0  0  0  0  0  0  0  0  0
  141.0757  158.9547  132.7321 H   0  0  0  0  0  0  0  0  0  0  0  0
  142.1460  159.1950  135.3600 C   0  0  0  0  0  0  0  0  0  0  0  0
  142.1211  159.7956  136.2813 H   0  0  0  0  0  0  0  0  0  0  0  0
  141.2749  158.5238  135.3363 H   0  0  0  0  0  0  0  0  0  0  0  0
  143.0696  158.5980  135.3363 H   0  0  0  0  0  0  0  0  0  0  0  0
  144.0750  158.6950  133.3850 C   0  0  0  0  0  0  0  0  0  0  0  0
  143.7951  158.1785  132.4550 H   0  0  0  0  0  0  0  0  0  0  0  0
  143.7640  158.0454  134.2164 H   0  0  0  0  0  0  0  0  0  0  0  0
  146.1760  156.5680  133.2540 C   0  0  0  0  0  0  0  0  0  0  0  0
  145.1378  156.2544  133.4378 H   0  0  0  0  0  0  0  0  0  0  0  0
  147.1850  155.6180  133.0640 C   0  0  0  0  0  0  0  0  0  0  0  0
  147.0730  154.2730  133.0540 N   0  0  0  0  0  0  0  0  0  0  0  0
  145.8720  153.5130  133.2530 C   0  0  0  0  0  0  0  0  0  0  0  0
  145.5950  152.5820  132.4500 O   0  0  0  0  0  0  0  0  0  0  0  0
  144.9430  153.8810  134.3440 C   0  0  0  0  0  0  0  0  0  0  0  0
  143.8894  154.0374  134.0693 H   0  0  0  0  0  0  0  0  0  0  0  0
  145.2640  154.0420  135.6370 C   0  0  0  0  0  0  0  0  0  0  0  0
  144.4326  154.1411  136.3504 H   0  0  0  0  0  0  0  0  0  0  0  0
  146.6290  154.0980  136.1870 C   0  0  0  0  0  0  0  0  0  0  0  0
  147.3260  155.1310  136.0020 O   0  0  0  0  0  0  0  0  0  0  0  0
  147.2010  153.0010  136.8180 O   0  0  0  0  0  0  0  0  0  0  0  0
  1  2  1  0
  2  3  1  0
  3  4  2  0
  3  5  1  0
  5  6  2  0
  6  7  1  0
  6  8  1  0
  8  9  2  0
  9 10  1  0
  9 11  1  0
 11 12  1  0
 11 13  2  0
 13 14  1  0
 14 15  1  0
 15 16  1  0
 15 17  1  0
 15 18  1  0
 18 19  1  0
 18 20  1  0
 18 21  1  0
 21 22  1  6
 21 23  1  0
 23 24  1  0
 24 25  1  0
 24 26  1  0
 24 27  1  0
 23 28  1  0
 28 29  1  0
 28 30  1  0
 28 31  1  0
 21 32  1  0
 32 33  1  0
 32 34  1  0
 13 35  1  0
 35 36  1  0
 35 37  2  0
 37 38  1  0
 38 39  1  0
 39 40  2  0
 39 41  1  0
 41 42  1  0
 41 43  2  0
 43 44  1  0
 43 45  1  0
 45 46  2  0
 45 47  1  0
 38  5  1  0
 37  8  1  0
 32 14  1  0
M  CHG  2   2  -1  47  -1
M  END
>  <UniqueID>  (27) 
26

>  <SMILES>  (27) 
CN(C)[C@H]1CCN(c2ccc3cc(C([NH-])=O)n(C(=O)/C=C\C(=O)[O-])c3c2)C1

>  <Energy>  (27) 
103.88734589246128

>  <Genealogy>  (27) 
CN(C)C1CCN(c2ccc3cc(C([NH-])=O)n(C(=O)/C=C\C(=O)[O-])c3c2)C1 (protonated)
CN(C)[C@H]1CCN(c2ccc3cc(C([NH-])=O)n(C(=O)/C=C\C(=O)[O-])c3c2)C1 (chirality)
CN(C)[C@H]1CCN(c2ccc3cc(C([NH-])=O)n(C(=O)/C=C\C(=O)[O-])c3c2)C1 (cis-trans isomerization)
CN(C)[C@H]1CCN(c2ccc3cc(C([NH-])=O)n(C(=O)/C=C\C(=O)[O-])c3c2)C1 (3D coordinates assigned)
CN(C)[C@H]1CCN(c2ccc3cc(C([NH-])=O)n(C(=O)/C=C\C(=O)[O-])c3c2)C1 (nonaromatic ring conformer: 103.88734589246128 kcal/mol)

>  <smiles>  (27) 
CN(C)C1CCN(c2ccc3cc(C(N)=O)n(C(=O)/C=C\C(=O)O)c3c2)C1

>  <score_type>  (27) 
oracle

>  <origin>  (27) 
adg

>  <m_score__min__energy>  (27) 
-8.4100000000000001

>  <m_primary>  (27) 
energy

$$$$
27:0
     RDKit          3D

 39 40  0  0  0  0  0  0  0  0999 V2000
  144.3850  154.7680  131.8250 C   0  0  0  0  0  0  0  0  0  0  0  0
  144.9480  154.5500  133.2250 C   0  0  0  0  0  0  0  0  0  0  0  0
  145.4230  155.7780  133.7720 O   0  0  0  0  0  0  0  0  0  0  0  0
  146.2210  156.6820  133.0610 C   0  0  0  0  0  0  0  0  0  0  0  0
  147.0880  156.2640  132.2460 O   0  0  0  0  0  0  0  0  0  0  0  0
  146.0620  158.0920  133.2750 N   0  0  0  0  0  0  0  0  0  0  0  0
  147.0210  159.0580  133.2070 C   0  0  0  0  0  0  0  0  0  0  0  0
  148.4750  158.8300  133.0710 C   0  0  0  0  0  0  0  0  0  0  0  0
  149.0300  158.3490  131.8510 N   0  0  0  0  0  0  0  0  0  0  0  0
  149.2310  159.0170  134.0620 O   0  0  0  0  0  0  0  0  0  0  0  0
  146.4550  160.3210  133.3690 C   0  0  0  0  0  0  0  0  0  0  0  0
  145.1090  160.0970  133.5440 C   0  0  0  0  0  0  0  0  0  0  0  0
  144.0710  160.9980  133.7440 C   0  0  0  0  0  0  0  0  0  0  0  0
  142.7670  160.4900  133.8680 C   0  0  0  0  0  0  0  0  0  0  0  0
  142.5090  159.0900  133.7700 C   0  0  0  0  0  0  0  0  0  0  0  0
  141.0970  158.4960  133.9240 C   0  0  0  0  0  0  0  0  0  0  0  0
  140.1640  159.2010  132.9170 C   0  0  0  0  0  0  0  0  0  0  0  0
  141.0410  156.9750  133.6530 C   0  0  0  0  0  0  0  0  0  0  0  0
  140.6070  158.7110  135.3450 C   0  0  0  0  0  0  0  0  0  0  0  0
  141.3480  159.2860  136.1870 O   0  0  0  0  0  0  0  0  0  0  0  0
  139.3660  158.2360  135.7540 O   0  0  0  0  0  0  0  0  0  0  0  0
  143.6090  158.2110  133.5830 C   0  0  0  0  0  0  0  0  0  0  0  0
  144.8970  158.7460  133.4830 C   0  0  0  0  0  0  0  0  0  0  0  0
  143.3615  155.1643  131.8990 H   0  0  0  0  0  0  0  0  0  0  0  0
  145.0179  155.4860  131.2830 H   0  0  0  0  0  0  0  0  0  0  0  0
  144.3693  153.8110  131.2830 H   0  0  0  0  0  0  0  0  0  0  0  0
  144.1566  154.1473  133.8742 H   0  0  0  0  0  0  0  0  0  0  0  0
  145.7870  153.8413  133.1633 H   0  0  0  0  0  0  0  0  0  0  0  0
  148.7290  157.4350  131.4480 H   0  0  0  0  0  0  0  0  0  0  0  0
  146.9740  161.2908  133.3591 H   0  0  0  0  0  0  0  0  0  0  0  0
  144.2645  162.0792  133.8037 H   0  0  0  0  0  0  0  0  0  0  0  0
  141.9310  161.1830  134.0435 H   0  0  0  0  0  0  0  0  0  0  0  0
  139.4024  159.7765  133.4636 H   0  0  0  0  0  0  0  0  0  0  0  0
  140.7537  159.8811  132.2848 H   0  0  0  0  0  0  0  0  0  0  0  0
  139.6708  158.4479  132.2848 H   0  0  0  0  0  0  0  0  0  0  0  0
  141.0210  156.4326  134.6098 H   0  0  0  0  0  0  0  0  0  0  0  0
  140.1335  156.7381  133.0782 H   0  0  0  0  0  0  0  0  0  0  0  0
  141.9286  156.6720  133.0782 H   0  0  0  0  0  0  0  0  0  0  0  0
  143.4498  157.1245  133.5177 H   0  0  0  0  0  0  0  0  0  0  0  0
  1  2  1  0
  2  3  1  0
  3  4  1  0
  4  5  2  0
  4  6  1  0
  6  7  1  0
  7  8  1  0
  8  9  1  0
  8 10  2  0
  7 11  2  0
 11 12  1  0
 12 13  2  0
 13 14  1  0
 14 15  2  0
 15 16  1  0
 16 17  1  0
 16 18  1  0
 16 19  1  0
 19 20  2  0
 19 21  1  0
 15 22  1  0
 22 23  2  0
 23  6  1  0
 23 12  1  0
  1 24  1  0
  1 25  1  0
  1 26  1  0
  2 27  1  0
  2 28  1  0
  9 29  1  0
 11 30  1  0
 13 31  1  0
 14 32  1  0
 17 33  1  0
 17 34  1  0
 17 35  1  0
 18 36  1  0
 18 37  1  0
 18 38  1  0
 22 39  1  0
M  CHG  2   9  -1  21  -1
M  END
>  <UniqueID>  (28) 
27

>  <SMILES>  (28) 
CCOC(=O)n1c(C([NH-])=O)cc2ccc(C(C)(C)C(=O)[O-])cc21

>  <Energy>  (28) 
77.47098144388575

>  <Genealogy>  (28) 
CCOC(=O)n1c(C([NH-])=O)cc2ccc(C(C)(C)C(=O)[O-])cc21 (protonated)
CCOC(=O)n1c(C([NH-])=O)cc2ccc(C(C)(C)C(=O)[O-])cc21 (3D coordinates assigned)
CCOC(=O)n1c(C([NH-])=O)cc2ccc(C(C)(C)C(=O)[O-])cc21 (optimized conformer: 77.47098144388575 kcal/mol)

>  <smiles>  (28) 
CCOC(=O)n1c(C(N)=O)cc2ccc(C(C)(C)C(=O)O)cc21

>  <score_type>  (28) 
oracle

>  <origin>  (28) 
adg

>  <m_score__min__energy>  (28) 
-6.5199999999999996

>  <m_primary>  (28) 
energy

$$$$
28:0
     RDKit          3D

 40 41  0  0  0  0  0  0  0  0999 V2000
  149.9420  158.8530  131.7810 C   0  0  0  0  0  0  0  0  0  0  0  0
  148.6480  159.5460  131.8230 N   0  0  0  0  0  0  0  0  0  0  0  0
  148.5350  160.8740  131.2060 C   0  0  0  0  0  0  0  0  0  0  0  0
  147.5000  158.9280  132.4630 C   0  0  0  0  0  0  0  0  0  0  0  0
  146.2780  159.6450  132.6170 C   0  0  0  0  0  0  0  0  0  0  0  0
  145.1660  159.0560  133.2400 C   0  0  0  0  0  0  0  0  0  0  0  0
  145.2860  157.7490  133.6930 C   0  0  0  0  0  0  0  0  0  0  0  0
  144.3780  156.9490  134.3500 C   0  0  0  0  0  0  0  0  0  0  0  0
  145.0420  155.7430  134.5760 C   0  0  0  0  0  0  0  0  0  0  0  0
  144.4140  154.5690  135.2180 C   0  0  0  0  0  0  0  0  0  0  0  0
  145.1520  153.3700  135.4390 N   0  0  0  0  0  0  0  0  0  0  0  0
  143.1990  154.6130  135.5470 O   0  0  0  0  0  0  0  0  0  0  0  0
  146.3070  155.7990  134.0750 N   0  0  0  0  0  0  0  0  0  0  0  0
  147.3330  154.7970  134.1630 C   0  0  0  0  0  0  0  0  0  0  0  0
  148.1020  154.7840  135.1620 O   0  0  0  0  0  0  0  0  0  0  0  0
  147.4880  153.7910  133.0920 C   0  0  0  0  0  0  0  0  0  0  0  0
  148.4340  153.9230  132.2650 O   0  0  0  0  0  0  0  0  0  0  0  0
  146.5610  152.6870  132.9590 N   0  0  0  0  0  0  0  0  0  0  0  0
  147.1920  151.5730  132.2330 C   0  0  0  0  0  0  0  0  0  0  0  0
  145.3430  153.1370  132.2680 C   0  0  0  0  0  0  0  0  0  0  0  0
  146.4410  157.0330  133.5430 C   0  0  0  0  0  0  0  0  0  0  0  0
  147.5740  157.5980  132.9460 C   0  0  0  0  0  0  0  0  0  0  0  0
  150.2912  158.6660  132.8072 H   0  0  0  0  0  0  0  0  0  0  0  0
  149.8280  157.8952  131.2522 H   0  0  0  0  0  0  0  0  0  0  0  0
  150.6761  159.4787  131.2522 H   0  0  0  0  0  0  0  0  0  0  0  0
  148.4699  161.6397  131.9931 H   0  0  0  0  0  0  0  0  0  0  0  0
  149.4202  161.0646  130.5814 H   0  0  0  0  0  0  0  0  0  0  0  0
  147.6304  160.9123  130.5814 H   0  0  0  0  0  0  0  0  0  0  0  0
  146.2048  160.6764  132.2418 H   0  0  0  0  0  0  0  0  0  0  0  0
  144.2265  159.6142  133.3656 H   0  0  0  0  0  0  0  0  0  0  0  0
  143.3475  157.2063  134.6361 H   0  0  0  0  0  0  0  0  0  0  0  0
  146.1950  153.3660  135.3940 H   0  0  0  0  0  0  0  0  0  0  0  0
  146.2850  152.3280  133.9030 H   0  0  0  0  0  0  0  0  0  0  0  0
  147.6013  150.8504  132.9543 H   0  0  0  0  0  0  0  0  0  0  0  0
  146.4416  151.0754  131.6011 H   0  0  0  0  0  0  0  0  0  0  0  0
  148.0046  151.9607  131.6011 H   0  0  0  0  0  0  0  0  0  0  0  0
  144.5824  153.4180  133.0113 H   0  0  0  0  0  0  0  0  0  0  0  0
  145.5791  154.0072  131.6380 H   0  0  0  0  0  0  0  0  0  0  0  0
  144.9566  152.3223  131.6380 H   0  0  0  0  0  0  0  0  0  0  0  0
  148.5052  157.0198  132.8535 H   0  0  0  0  0  0  0  0  0  0  0  0
  1  2  1  0
  2  3  1  0
  2  4  1  0
  4  5  2  0
  5  6  1  0
  6  7  2  0
  7  8  1  0
  8  9  2  0
  9 10  1  0
 10 11  1  0
 10 12  2  0
  9 13  1  0
 13 14  1  0
 14 15  2  0
 14 16  1  0
 16 17  2  0
 16 18  1  0
 18 19  1  0
 18 20  1  0
 13 21  1  0
 21 22  2  0
 22  4  1  0
 21  7  1  0
  1 23  1  0
  1 24  1  0
  1 25  1  0
  3 26  1  0
  3 27  1  0
  3 28  1  0
  5 29  1  0
  6 30  1  0
  8 31  1  0
 11 32  1  0
 18 33  1  0
 19 34  1  0
 19 35  1  0
 19 36  1  0
 20 37  1  0
 20 38  1  0
 20 39  1  0
 22 40  1  0
M  CHG  2  11  -1  18   1
M  END
>  <UniqueID>  (29) 
28

>  <SMILES>  (29) 
CN(C)c1ccc2cc(C([NH-])=O)n(C(=O)C(=O)[NH+](C)C)c2c1

>  <Energy>  (29) 
81.22789406431511

>  <Genealogy>  (29) 
CN(C)c1ccc2cc(C([NH-])=O)n(C(=O)C(=O)[NH+](C)C)c2c1 (protonated)
CN(C)c1ccc2cc(C([NH-])=O)n(C(=O)C(=O)[NH+](C)C)c2c1 (3D coordinates assigned)
CN(C)c1ccc2cc(C([NH-])=O)n(C(=O)C(=O)[NH+](C)C)c2c1 (optimized conformer: 81.22789406431511 kcal/mol)

>  <smiles>  (29) 
CN(C)C(=O)C(=O)n1c(C(N)=O)cc2ccc(N(C)C)cc21

>  <score_type>  (29) 
oracle

>  <origin>  (29) 
adg

>  <m_score__min__energy>  (29) 
-6

>  <m_primary>  (29) 
energy

$$$$
29:0
     RDKit          3D

 35 36  0  0  0  0  0  0  0  0999 V2000
  146.4410  154.0740  132.9880 C   0  0  0  0  0  0  0  0  0  0  0  0
  147.6250  154.9340  132.8650 N   0  0  0  0  0  0  0  0  0  0  0  0
  148.9280  154.3140  132.5920 C   0  0  0  0  0  0  0  0  0  0  0  0
  147.5090  156.3730  133.0100 C   0  0  0  0  0  0  0  0  0  0  0  0
  148.6550  157.2110  132.8960 C   0  0  0  0  0  0  0  0  0  0  0  0
  148.5510  158.6050  133.0270 C   0  0  0  0  0  0  0  0  0  0  0  0
  147.2970  159.1460  133.2810 C   0  0  0  0  0  0  0  0  0  0  0  0
  146.9130  160.4590  133.4300 C   0  0  0  0  0  0  0  0  0  0  0  0
  145.5410  160.4190  133.6600 C   0  0  0  0  0  0  0  0  0  0  0  0
  144.7330  161.6190  133.9650 C   0  0  0  0  0  0  0  0  0  0  0  0
  143.3270  161.6380  133.7280 N   0  0  0  0  0  0  0  0  0  0  0  0
  145.2830  162.6240  134.4870 O   0  0  0  0  0  0  0  0  0  0  0  0
  145.0910  159.1310  133.6440 N   0  0  0  0  0  0  0  0  0  0  0  0
  143.7380  158.6650  133.7640 C   0  0  0  0  0  0  0  0  0  0  0  0
  143.2220  157.9940  132.8280 O   0  0  0  0  0  0  0  0  0  0  0  0
  143.0160  158.9400  134.9330 O   0  0  0  0  0  0  0  0  0  0  0  0
  141.6420  159.2020  134.9900 C   0  0  0  0  0  0  0  0  0  0  0  0
  140.9990  159.5440  133.9590 O   0  0  0  0  0  0  0  0  0  0  0  0
  140.9150  159.0100  136.2820 C   0  0  0  0  0  0  0  0  0  0  0  0
  140.5990  160.2450  136.8160 F   0  0  0  0  0  0  0  0  0  0  0  0
  139.7500  158.2960  136.0660 F   0  0  0  0  0  0  0  0  0  0  0  0
  141.7110  158.3160  137.1750 F   0  0  0  0  0  0  0  0  0  0  0  0
  146.1810  158.3650  133.4150 C   0  0  0  0  0  0  0  0  0  0  0  0
  146.2500  156.9750  133.2670 C   0  0  0  0  0  0  0  0  0  0  0  0
  146.2157  153.9103  134.0522 H   0  0  0  0  0  0  0  0  0  0  0  0
  145.5824  154.5604  132.5020 H   0  0  0  0  0  0  0  0  0  0  0  0
  146.6381  153.1071  132.5020 H   0  0  0  0  0  0  0  0  0  0  0  0
  149.4274  154.0764  133.5428 H   0  0  0  0  0  0  0  0  0  0  0  0
  148.7804  153.3896  132.0143 H   0  0  0  0  0  0  0  0  0  0  0  0
  149.5522  155.0116  132.0143 H   0  0  0  0  0  0  0  0  0  0  0  0
  149.6385  156.7582  132.7020 H   0  0  0  0  0  0  0  0  0  0  0  0
  149.4368  159.2501  132.9313 H   0  0  0  0  0  0  0  0  0  0  0  0
  147.5545  161.3511  133.3783 H   0  0  0  0  0  0  0  0  0  0  0  0
  142.7590  160.7650  133.7970 H   0  0  0  0  0  0  0  0  0  0  0  0
  145.3424  156.3588  133.3486 H   0  0  0  0  0  0  0  0  0  0  0  0
  1  2  1  0
  2  3  1  0
  2  4  1  0
  4  5  2  0
  5  6  1  0
  6  7  2  0
  7  8  1  0
  8  9  2  0
  9 10  1  0
 10 11  1  0
 10 12  2  0
  9 13  1  0
 13 14  1  0
 14 15  2  0
 14 16  1  0
 16 17  1  0
 17 18  2  0
 17 19  1  0
 19 20  1  0
 19 21  1  0
 19 22  1  0
 13 23  1  0
 23 24  2  0
 24  4  1  0
 23  7  1  0
  1 25  1  0
  1 26  1  0
  1 27  1  0
  3 28  1  0
  3 29  1  0
  3 30  1  0
  5 31  1  0
  6 32  1  0
  8 33  1  0
 11 34  1  0
 24 35  1  0
M  CHG  1  11  -1
M  END
>  <UniqueID>  (30) 
29

>  <SMILES>  (30) 
CN(C)c1ccc2cc(C([NH-])=O)n(C(=O)OC(=O)C(F)(F)F)c2c1

>  <Energy>  (30) 
75.31278191360596

>  <Genealogy>  (30) 
CN(C)c1ccc2cc(C([NH-])=O)n(C(=O)OC(=O)C(F)(F)F)c2c1 (protonated)
CN(C)c1ccc2cc(C([NH-])=O)n(C(=O)OC(=O)C(F)(F)F)c2c1 (3D coordinates assigned)
CN(C)c1ccc2cc(C([NH-])=O)n(C(=O)OC(=O)C(F)(F)F)c2c1 (optimized conformer: 75.31278191360596 kcal/mol)

>  <smiles>  (30) 
CN(C)c1ccc2cc(C(N)=O)n(C(=O)OC(=O)C(F)(F)F)c2c1

>  <score_type>  (30) 
oracle

>  <origin>  (30) 
adg

>  <m_score__min__energy>  (30) 
-5.6299999999999999

>  <m_primary>  (30) 
energy

$$$$
30:0
     RDKit          3D

 41 42  0  0  0  0  0  0  0  0999 V2000
  150.1480  160.0980  129.5770 C   0  0  0  0  0  0  0  0  0  0  0  0
  149.3640  161.2310  130.0720 N   0  0  0  0  0  0  0  0  0  0  0  0
  148.4320  160.7850  131.1150 C   0  0  0  0  0  0  0  0  0  0  0  0
  149.1880  160.0670  132.2400 C   0  0  0  0  0  0  0  0  0  0  0  0
  148.7020  158.6880  132.4200 N   0  0  0  0  0  0  0  0  0  0  0  0
  149.6170  157.5630  132.2010 C   0  0  0  0  0  0  0  0  0  0  0  0
  147.3430  158.4270  132.8410 C   0  0  0  0  0  0  0  0  0  0  0  0
  146.8710  157.0940  132.9720 C   0  0  0  0  0  0  0  0  0  0  0  0
  145.5460  156.8350  133.3600 C   0  0  0  0  0  0  0  0  0  0  0  0
  144.7180  157.9200  133.6200 C   0  0  0  0  0  0  0  0  0  0  0  0
  143.3920  157.9540  133.9850 C   0  0  0  0  0  0  0  0  0  0  0  0
  143.0730  159.3050  134.0970 C   0  0  0  0  0  0  0  0  0  0  0  0
  141.7550  159.7950  134.5560 C   0  0  0  0  0  0  0  0  0  0  0  0
  140.9120  160.5070  133.6540 N   0  0  0  0  0  0  0  0  0  0  0  0
  141.3500  159.5610  135.7250 O   0  0  0  0  0  0  0  0  0  0  0  0
  144.1580  160.0780  133.8070 N   0  0  0  0  0  0  0  0  0  0  0  0
  144.2340  161.5100  133.7490 C   0  0  0  0  0  0  0  0  0  0  0  0
  143.2380  162.1800  133.3600 O   0  0  0  0  0  0  0  0  0  0  0  0
  145.4220  162.1580  134.1030 O   0  0  0  0  0  0  0  0  0  0  0  0
  145.4960  163.1000  135.1660 C   0  0  0  0  0  0  0  0  0  0  0  0
  145.1580  159.2140  133.5200 C   0  0  0  0  0  0  0  0  0  0  0  0
  146.4660  159.5030  133.1180 C   0  0  0  0  0  0  0  0  0  0  0  0
  150.5439  159.5259  130.4290 H   0  0  0  0  0  0  0  0  0  0  0  0
  149.5060  159.4474  128.9650 H   0  0  0  0  0  0  0  0  0  0  0  0
  150.9831  160.4695  128.9650 H   0  0  0  0  0  0  0  0  0  0  0  0
  148.8040  161.5930  129.2650 H   0  0  0  0  0  0  0  0  0  0  0  0
  147.9089  161.6588  131.5307 H   0  0  0  0  0  0  0  0  0  0  0  0
  147.7085  160.0860  130.6702 H   0  0  0  0  0  0  0  0  0  0  0  0
  150.2590  160.0392  131.9904 H   0  0  0  0  0  0  0  0  0  0  0  0
  149.0194  160.6183  133.1768 H   0  0  0  0  0  0  0  0  0  0  0  0
  149.9435  157.1616  133.1717 H   0  0  0  0  0  0  0  0  0  0  0  0
  149.1001  156.7751  131.6335 H   0  0  0  0  0  0  0  0  0  0  0  0
  150.4937  157.9085  131.6335 H   0  0  0  0  0  0  0  0  0  0  0  0
  147.5512  156.2541  132.7672 H   0  0  0  0  0  0  0  0  0  0  0  0
  145.1750  155.8038  133.4552 H   0  0  0  0  0  0  0  0  0  0  0  0
  142.7249  157.0957  134.1529 H   0  0  0  0  0  0  0  0  0  0  0  0
  141.2770  161.3140  133.1010 H   0  0  0  0  0  0  0  0  0  0  0  0
  145.4544  162.5701  136.1291 H   0  0  0  0  0  0  0  0  0  0  0  0
  146.4408  163.6589  135.0955 H   0  0  0  0  0  0  0  0  0  0  0  0
  144.6500  163.7996  135.0955 H   0  0  0  0  0  0  0  0  0  0  0  0
  146.8060  160.5444  133.0192 H   0  0  0  0  0  0  0  0  0  0  0  0
  1  2  1  0
  2  3  1  0
  3  4  1  0
  4  5  1  0
  5  6  1  0
  5  7  1  0
  7  8  2  0
  8  9  1  0
  9 10  2  0
 10 11  1  0
 11 12  2  0
 12 13  1  0
 13 14  1  0
 13 15  2  0
 12 16  1  0
 16 17  1  0
 17 18  2  0
 17 19  1  0
 19 20  1  0
 16 21  1  0
 21 22  2  0
 22  7  1  0
 21 10  1  0
  1 23  1  0
  1 24  1  0
  1 25  1  0
  2 26  1  0
  3 27  1  0
  3 28  1  0
  4 29  1  0
  4 30  1  0
  6 31  1  0
  6 32  1  0
  6 33  1  0
  8 34  1  0
  9 35  1  0
 11 36  1  0
 14 37  1  0
 20 38  1  0
 20 39  1  0
 20 40  1  0
 22 41  1  0
M  CHG  1  14  -1
M  END
>  <UniqueID>  (31) 
30

>  <SMILES>  (31) 
CNCCN(C)c1ccc2cc(C([NH-])=O)n(C(=O)OC)c2c1

>  <Energy>  (31) 
75.42238754056538

>  <Genealogy>  (31) 
CNCCN(C)c1ccc2cc(C([NH-])=O)n(C(=O)OC)c2c1 (protonated)
CNCCN(C)c1ccc2cc(C([NH-])=O)n(C(=O)OC)c2c1 (3D coordinates assigned)
CNCCN(C)c1ccc2cc(C([NH-])=O)n(C(=O)OC)c2c1 (optimized conformer: 75.42238754056538 kcal/mol)

>  <smiles>  (31) 
CNCCN(C)c1ccc2cc(C(N)=O)n(C(=O)OC)c2c1

>  <score_type>  (31) 
oracle

>  <origin>  (31) 
adg

>  <m_score__min__energy>  (31) 
-6.5599999999999996

>  <m_primary>  (31) 
energy

$$$$
31:0
     RDKit          3D

 32 33  0  0  0  0  0  0  0  0999 V2000
  149.6770  151.3570  133.3130 C   0  0  0  0  0  0  0  0  0  0  0  0
  149.3950  152.0840  132.2320 C   0  0  0  0  0  0  0  0  0  0  0  0
  148.5940  153.2360  132.2650 O   0  0  0  0  0  0  0  0  0  0  0  0
  149.0480  154.5350  132.5310 C   0  0  0  0  0  0  0  0  0  0  0  0
  150.2240  154.8770  132.2350 O   0  0  0  0  0  0  0  0  0  0  0  0
  148.1460  155.4990  133.0990 N   0  0  0  0  0  0  0  0  0  0  0  0
  147.0060  155.2570  133.8060 C   0  0  0  0  0  0  0  0  0  0  0  0
  146.5460  153.9360  134.2800 C   0  0  0  0  0  0  0  0  0  0  0  0
  146.2440  152.8840  133.3610 N   0  0  0  0  0  0  0  0  0  0  0  0
  146.4730  153.7140  135.5170 O   0  0  0  0  0  0  0  0  0  0  0  0
  146.3330  156.4450  134.0790 C   0  0  0  0  0  0  0  0  0  0  0  0
  147.1090  157.4360  133.5240 C   0  0  0  0  0  0  0  0  0  0  0  0
  146.9100  158.8130  133.4900 C   0  0  0  0  0  0  0  0  0  0  0  0
  147.8570  159.5990  132.8150 C   0  0  0  0  0  0  0  0  0  0  0  0
  148.9680  158.9970  132.1720 C   0  0  0  0  0  0  0  0  0  0  0  0
  149.9850  159.8510  131.4670 C   0  0  0  0  0  0  0  0  0  0  0  0
  149.3240  160.6600  130.3980 C   0  0  0  0  0  0  0  0  0  0  0  0
  149.5500  161.8950  130.3050 O   0  0  0  0  0  0  0  0  0  0  0  0
  148.4170  160.0590  129.5330 O   0  0  0  0  0  0  0  0  0  0  0  0
  149.1420  157.5970  132.2360 C   0  0  0  0  0  0  0  0  0  0  0  0
  148.1950  156.8400  132.9360 C   0  0  0  0  0  0  0  0  0  0  0  0
  150.3115  150.4628  133.2243 H   0  0  0  0  0  0  0  0  0  0  0  0
  149.2752  151.6512  134.2938 H   0  0  0  0  0  0  0  0  0  0  0  0
  149.8112  151.7649  131.2650 H   0  0  0  0  0  0  0  0  0  0  0  0
  145.8820  151.9700  133.7130 H   0  0  0  0  0  0  0  0  0  0  0  0
  146.4560  152.9790  132.3440 H   0  0  0  0  0  0  0  0  0  0  0  0
  145.3840  156.5653  134.6221 H   0  0  0  0  0  0  0  0  0  0  0  0
  146.0370  159.2715  133.9774 H   0  0  0  0  0  0  0  0  0  0  0  0
  147.7361  160.6919  132.7846 H   0  0  0  0  0  0  0  0  0  0  0  0
  150.4593  160.5268  132.1939 H   0  0  0  0  0  0  0  0  0  0  0  0
  150.7451  159.2013  131.0087 H   0  0  0  0  0  0  0  0  0  0  0  0
  150.0007  157.1131  131.7477 H   0  0  0  0  0  0  0  0  0  0  0  0
  1  2  2  0
  2  3  1  0
  3  4  1  0
  4  5  2  0
  4  6  1  0
  6  7  1  0
  7  8  1  0
  8  9  1  0
  8 10  2  0
  7 11  2  0
 11 12  1  0
 12 13  2  0
 13 14  1  0
 14 15  2  0
 15 16  1  0
 16 17  1  0
 17 18  2  0
 17 19  1  0
 15 20  1  0
 20 21  2  0
 21  6  1  0
 21 12  1  0
  1 22  1  0
  1 23  1  0
  2 24  1  0
  9 25  1  0
  9 26  1  0
 11 27  1  0
 13 28  1  0
 14 29  1  0
 16 30  1  0
 16 31  1  0
 20 32  1  0
M  CHG  1  19  -1
M  END
>  <UniqueID>  (32) 
31

>  <SMILES>  (32) 
C=COC(=O)n1c(C(N)=O)cc2ccc(CC(=O)[O-])cc21

>  <Energy>  (32) 
73.58223517327437

>  <Genealogy>  (32) 
C=COC(=O)n1c(C(N)=O)cc2ccc(CC(=O)[O-])cc21 (protonated)
C=COC(=O)n1c(C(N)=O)cc2ccc(CC(=O)[O-])cc21 (3D coordinates assigned)
C=COC(=O)n1c(C(N)=O)cc2ccc(CC(=O)[O-])cc21 (optimized conformer: 73.58223517327437 kcal/mol)

>  <smiles>  (32) 
C=COC(=O)n1c(C(N)=O)cc2ccc(CC(=O)O)cc21

>  <score_type>  (32) 
oracle

>  <origin>  (32) 
adg

>  <m_score__min__energy>  (32) 
-6.8099999999999996

>  <m_primary>  (32) 
energy

$$$$
32:0
     RDKit          3D

 46 48  0  0  0  0  0  0  0  0999 V2000
  137.4510  160.4180  129.9440 C   0  0  0  0  0  0  0  0  0  0  0  0
  138.7630  160.4890  130.4890 O   0  0  0  0  0  0  0  0  0  0  0  0
  139.1530  159.7620  131.6170 C   0  0  0  0  0  0  0  0  0  0  0  0
  138.3970  158.6600  132.0200 C   0  0  0  0  0  0  0  0  0  0  0  0
  138.7860  157.9330  133.1460 C   0  0  0  0  0  0  0  0  0  0  0  0
  139.9310  158.3070  133.8700 C   0  0  0  0  0  0  0  0  0  0  0  0
  140.3610  157.5420  135.0670 C   0  0  0  0  0  0  0  0  0  0  0  0
  139.8470  157.8650  136.3520 C   0  0  0  0  0  0  0  0  0  0  0  0
  140.2390  157.1390  137.4880 C   0  0  0  0  0  0  0  0  0  0  0  0
  141.1530  156.1030  137.3170 C   0  0  0  0  0  0  0  0  0  0  0  0
  141.6800  155.2250  138.2370 C   0  0  0  0  0  0  0  0  0  0  0  0
  142.5270  154.3920  137.5080 C   0  0  0  0  0  0  0  0  0  0  0  0
  143.3560  153.3320  138.1220 C   0  0  0  0  0  0  0  0  0  0  0  0
  144.7670  153.2930  137.9200 N   0  0  0  0  0  0  0  0  0  0  0  0
  142.8160  152.4700  138.8650 O   0  0  0  0  0  0  0  0  0  0  0  0
  142.5220  154.7410  136.1910 N   0  0  0  0  0  0  0  0  0  0  0  0
  143.2000  154.0950  135.1020 C   0  0  0  0  0  0  0  0  0  0  0  0
  142.5360  153.6840  134.1120 O   0  0  0  0  0  0  0  0  0  0  0  0
  144.6250  153.9300  135.1470 N   0  0  0  0  0  0  0  0  0  0  0  0
  145.4210  153.4970  134.0360 C   0  0  0  0  0  0  0  0  0  0  0  0
  144.8850  153.2390  132.9230 O   0  0  0  0  0  0  0  0  0  0  0  0
  146.8040  153.3700  134.2020 O   0  0  0  0  0  0  0  0  0  0  0  0
  147.6470  154.4270  134.6620 C   0  0  0  0  0  0  0  0  0  0  0  0
  147.6980  154.4580  136.1910 C   0  0  0  0  0  0  0  0  0  0  0  0
  147.0720  153.3270  136.7340 O   0  0  0  0  0  0  0  0  0  0  0  0
  141.6760  155.7880  136.0910 C   0  0  0  0  0  0  0  0  0  0  0  0
  141.2860  156.4790  134.9380 C   0  0  0  0  0  0  0  0  0  0  0  0
  140.6610  159.4250  133.4270 C   0  0  0  0  0  0  0  0  0  0  0  0
  140.2590  160.1160  132.3280 N   0  0  0  0  0  0  0  0  0  0  0  0
  136.7160  160.3782  130.7615 H   0  0  0  0  0  0  0  0  0  0  0  0
  137.2627  161.3073  129.3245 H   0  0  0  0  0  0  0  0  0  0  0  0
  137.3597  159.5136  129.3245 H   0  0  0  0  0  0  0  0  0  0  0  0
  137.5007  158.3666  131.4539 H   0  0  0  0  0  0  0  0  0  0  0  0
  138.1940  157.0637  133.4681 H   0  0  0  0  0  0  0  0  0  0  0  0
  139.1326  158.6947  136.4580 H   0  0  0  0  0  0  0  0  0  0  0  0
  139.8363  157.3814  138.4825 H   0  0  0  0  0  0  0  0  0  0  0  0
  141.4761  155.1886  139.3173 H   0  0  0  0  0  0  0  0  0  0  0  0
  145.2740  154.1110  137.5160 H   0  0  0  0  0  0  0  0  0  0  0  0
  145.1210  154.1580  136.0370 H   0  0  0  0  0  0  0  0  0  0  0  0
  148.6635  154.2733  134.2707 H   0  0  0  0  0  0  0  0  0  0  0  0
  147.2384  155.3836  134.3043 H   0  0  0  0  0  0  0  0  0  0  0  0
  148.7486  154.4795  136.5162 H   0  0  0  0  0  0  0  0  0  0  0  0
  147.1693  155.3561  136.5428 H   0  0  0  0  0  0  0  0  0  0  0  0
  146.1870  153.2480  136.2910 H   0  0  0  0  0  0  0  0  0  0  0  0
  141.6898  156.2018  133.9531 H   0  0  0  0  0  0  0  0  0  0  0  0
  141.5619  159.7415  133.9730 H   0  0  0  0  0  0  0  0  0  0  0  0
  1  2  1  0
  2  3  1  0
  3  4  2  0
  4  5  1  0
  5  6  2  0
  6  7  1  0
  7  8  2  0
  8  9  1  0
  9 10  2  0
 10 11  1  0
 11 12  2  0
 12 13  1  0
 13 14  1  0
 13 15  2  0
 12 16  1  0
 16 17  1  0
 17 18  2  0
 17 19  1  0
 19 20  1  0
 20 21  2  0
 20 22  1  0
 22 23  1  0
 23 24  1  0
 24 25  1  0
 16 26  1  0
 26 27  2  0
  6 28  1  0
 28 29  2  0
 29  3  1  0
 27  7  1  0
 26 10  1  0
  1 30  1  0
  1 31  1  0
  1 32  1  0
  4 33  1  0
  5 34  1  0
  8 35  1  0
  9 36  1  0
 11 37  1  0
 14 38  1  0
 19 39  1  0
 23 40  1  0
 23 41  1  0
 24 42  1  0
 24 43  1  0
 25 44  1  0
 27 45  1  0
 28 46  1  0
M  CHG  1  14  -1
M  END
>  <UniqueID>  (33) 
32

>  <SMILES>  (33) 
COc1ccc(-c2ccc3cc(C([NH-])=O)n(C(=O)NC(=O)OCCO)c3c2)cn1

>  <Energy>  (33) 
88.33933444165255

>  <Genealogy>  (33) 
COc1ccc(-c2ccc3cc(C([NH-])=O)n(C(=O)NC(=O)OCCO)c3c2)cn1 (protonated)
COc1ccc(-c2ccc3cc(C([NH-])=O)n(C(=O)NC(=O)OCCO)c3c2)cn1 (3D coordinates assigned)
COc1ccc(-c2ccc3cc(C([NH-])=O)n(C(=O)NC(=O)OCCO)c3c2)cn1 (optimized conformer: 88.33933444165255 kcal/mol)

>  <smiles>  (33) 
COc1ccc(-c2ccc3cc(C(N)=O)n(C(=O)NC(=O)OCCO)c3c2)cn1

>  <score_type>  (33) 
oracle

>  <origin>  (33) 
adg

>  <m_score__min__energy>  (33) 
-7.79

>  <m_primary>  (33) 
energy

$$$$
33:0
     RDKit          3D

 50 51  0  0  0  0  0  0  0  0999 V2000
  140.2490  149.2520  133.4450 C   0  0  0  0  0  0  0  0  0  0  0  0
  140.7740  150.0670  132.2450 C   0  0  0  0  0  0  0  0  0  0  0  0
  142.3100  150.0180  132.2290 C   0  0  0  0  0  0  0  0  0  0  0  0
  140.2220  149.4470  130.9440 C   0  0  0  0  0  0  0  0  0  0  0  0
  140.3340  151.5140  132.3600 C   0  0  0  0  0  0  0  0  0  0  0  0
  139.1140  151.8110  132.2310 O   0  0  0  0  0  0  0  0  0  0  0  0
  141.2970  152.5200  132.5320 O   0  0  0  0  0  0  0  0  0  0  0  0
  141.5680  153.1870  133.7340 C   0  0  0  0  0  0  0  0  0  0  0  0
  141.3660  152.6210  134.8430 O   0  0  0  0  0  0  0  0  0  0  0  0
  142.0890  154.5260  133.6970 N   0  0  0  0  0  0  0  0  0  0  0  0
  141.3970  155.6750  133.4550 C   0  0  0  0  0  0  0  0  0  0  0  0
  139.9270  155.7830  133.3250 C   0  0  0  0  0  0  0  0  0  0  0  0
  139.1770  154.7600  132.6690 N   0  0  0  0  0  0  0  0  0  0  0  0
  139.3260  156.7980  133.7640 O   0  0  0  0  0  0  0  0  0  0  0  0
  142.2580  156.7700  133.4350 C   0  0  0  0  0  0  0  0  0  0  0  0
  143.5100  156.2540  133.6780 C   0  0  0  0  0  0  0  0  0  0  0  0
  144.7400  156.8990  133.7720 C   0  0  0  0  0  0  0  0  0  0  0  0
  145.8790  156.1140  134.0170 C   0  0  0  0  0  0  0  0  0  0  0  0
  145.7710  154.7060  134.1440 C   0  0  0  0  0  0  0  0  0  0  0  0
  146.9910  153.8730  134.4230 C   0  0  0  0  0  0  0  0  0  0  0  0
  147.4310  154.0770  135.8360 C   0  0  0  0  0  0  0  0  0  0  0  0
  147.8700  155.2000  136.2020 O   0  0  0  0  0  0  0  0  0  0  0  0
  147.2970  153.0260  136.7520 O   0  0  0  0  0  0  0  0  0  0  0  0
  148.3870  152.5040  137.5090 C   0  0  0  0  0  0  0  0  0  0  0  0
  148.3450  153.0480  138.9380 C   0  0  0  0  0  0  0  0  0  0  0  0
  147.4000  154.0770  139.0430 O   0  0  0  0  0  0  0  0  0  0  0  0
  144.5040  154.0870  134.0430 C   0  0  0  0  0  0  0  0  0  0  0  0
  143.3830  154.8970  133.8270 C   0  0  0  0  0  0  0  0  0  0  0  0
  140.5611  149.7365  134.3820 H   0  0  0  0  0  0  0  0  0  0  0  0
  139.1507  149.2056  133.4044 H   0  0  0  0  0  0  0  0  0  0  0  0
  140.6608  148.2328  133.4044 H   0  0  0  0  0  0  0  0  0  0  0  0
  142.6872  150.0060  133.2622 H   0  0  0  0  0  0  0  0  0  0  0  0
  142.6424  149.1088  131.7067 H   0  0  0  0  0  0  0  0  0  0  0  0
  142.6997  150.9042  131.7067 H   0  0  0  0  0  0  0  0  0  0  0  0
  139.5095  148.6467  131.1927 H   0  0  0  0  0  0  0  0  0  0  0  0
  139.7107  150.2234  130.3560 H   0  0  0  0  0  0  0  0  0  0  0  0
  141.0523  149.0290  130.3560 H   0  0  0  0  0  0  0  0  0  0  0  0
  138.1450  154.8610  132.5490 H   0  0  0  0  0  0  0  0  0  0  0  0
  139.6360  153.8840  132.3330 H   0  0  0  0  0  0  0  0  0  0  0  0
  141.9931  157.8235  133.2617 H   0  0  0  0  0  0  0  0  0  0  0  0
  144.8178  157.9903  133.6579 H   0  0  0  0  0  0  0  0  0  0  0  0
  146.8633  156.5959  134.1111 H   0  0  0  0  0  0  0  0  0  0  0  0
  146.7520  152.8110  134.2647 H   0  0  0  0  0  0  0  0  0  0  0  0
  147.8009  154.1761  133.7432 H   0  0  0  0  0  0  0  0  0  0  0  0
  148.3184  151.4065  137.5357 H   0  0  0  0  0  0  0  0  0  0  0  0
  149.3319  152.8094  137.0359 H   0  0  0  0  0  0  0  0  0  0  0  0
  148.0731  152.2349  139.6272 H   0  0  0  0  0  0  0  0  0  0  0  0
  149.3368  153.4477  139.1961 H   0  0  0  0  0  0  0  0  0  0  0  0
  147.2600  154.4290  138.1260 H   0  0  0  0  0  0  0  0  0  0  0  0
  144.4016  152.9954  134.1320 H   0  0  0  0  0  0  0  0  0  0  0  0
  1  2  1  0
  2  3  1  0
  2  4  1  0
  2  5  1  0
  5  6  2  0
  5  7  1  0
  7  8  1  0
  8  9  2  0
  8 10  1  0
 10 11  1  0
 11 12  1  0
 12 13  1  0
 12 14  2  0
 11 15  2  0
 15 16  1  0
 16 17  2  0
 17 18  1  0
 18 19  2  0
 19 20  1  0
 20 21  1  0
 21 22  2  0
 21 23  1  0
 23 24  1  0
 24 25  1  0
 25 26  1  0
 19 27  1  0
 27 28  2  0
 28 10  1  0
 28 16  1  0
  1 29  1  0
  1 30  1  0
  1 31  1  0
  3 32  1  0
  3 33  1  0
  3 34  1  0
  4 35  1  0
  4 36  1  0
  4 37  1  0
 13 38  1  0
 13 39  1  0
 15 40  1  0
 17 41  1  0
 18 42  1  0
 20 43  1  0
 20 44  1  0
 24 45  1  0
 24 46  1  0
 25 47  1  0
 25 48  1  0
 26 49  1  0
 27 50  1  0
M  END
>  <UniqueID>  (34) 
33

>  <SMILES>  (34) 
CC(C)(C)C(=O)OC(=O)n1c(C(N)=O)cc2ccc(CC(=O)OCCO)cc21

>  <Energy>  (34) 
78.33813612238711

>  <Genealogy>  (34) 
CC(C)(C)C(=O)OC(=O)n1c(C(N)=O)cc2ccc(CC(=O)OCCO)cc21 (3D coordinates assigned)
CC(C)(C)C(=O)OC(=O)n1c(C(N)=O)cc2ccc(CC(=O)OCCO)cc21 (optimized conformer: 78.33813612238711 kcal/mol)

>  <smiles>  (34) 
CC(C)(C)C(=O)OC(=O)n1c(C(N)=O)cc2ccc(CC(=O)OCCO)cc21

>  <score_type>  (34) 
oracle

>  <origin>  (34) 
adg

>  <m_score__min__energy>  (34) 
-7.3099999999999996

>  <m_primary>  (34) 
energy

$$$$
34:0
     RDKit          3D

 31 32  0  0  0  0  0  0  0  0999 V2000
  149.2630  160.2370  129.3700 N   0  0  0  0  0  0  0  0  0  0  0  0
  149.0940  160.0580  130.7730 C   0  0  0  0  0  0  0  0  0  0  0  0
  148.7790  161.0390  131.4980 O   0  0  0  0  0  0  0  0  0  0  0  0
  149.2390  158.6990  131.3770 C   0  0  0  0  0  0  0  0  0  0  0  0
  148.6350  158.6900  132.7480 C   0  0  0  0  0  0  0  0  0  0  0  0
  149.2260  159.2810  133.6920 O   0  0  0  0  0  0  0  0  0  0  0  0
  147.4530  157.9240  133.0190 N   0  0  0  0  0  0  0  0  0  0  0  0
  146.1870  158.3810  133.2230 C   0  0  0  0  0  0  0  0  0  0  0  0
  145.8050  159.8070  133.3400 C   0  0  0  0  0  0  0  0  0  0  0  0
  146.7990  160.8340  133.3680 N   0  0  0  0  0  0  0  0  0  0  0  0
  144.5890  160.1310  133.3960 O   0  0  0  0  0  0  0  0  0  0  0  0
  145.3070  157.3120  133.3890 C   0  0  0  0  0  0  0  0  0  0  0  0
  146.0840  156.1790  133.2800 C   0  0  0  0  0  0  0  0  0  0  0  0
  145.7280  154.8360  133.3440 C   0  0  0  0  0  0  0  0  0  0  0  0
  146.7410  153.8770  133.1680 C   0  0  0  0  0  0  0  0  0  0  0  0
  148.0860  154.2730  132.9470 C   0  0  0  0  0  0  0  0  0  0  0  0
  149.1490  153.2330  132.7010 C   0  0  0  0  0  0  0  0  0  0  0  0
  148.7090  152.3520  131.7310 F   0  0  0  0  0  0  0  0  0  0  0  0
  150.3260  153.8240  132.2740 F   0  0  0  0  0  0  0  0  0  0  0  0
  149.4160  152.5280  133.8630 F   0  0  0  0  0  0  0  0  0  0  0  0
  148.4020  155.6490  132.8680 C   0  0  0  0  0  0  0  0  0  0  0  0
  147.3750  156.5780  133.0570 C   0  0  0  0  0  0  0  0  0  0  0  0
  148.4590  160.5090  128.7630 H   0  0  0  0  0  0  0  0  0  0  0  0
  148.7233  157.9609  130.7452 H   0  0  0  0  0  0  0  0  0  0  0  0
  150.3065  158.4429  131.4470 H   0  0  0  0  0  0  0  0  0  0  0  0
  146.5120  161.8370  133.4140 H   0  0  0  0  0  0  0  0  0  0  0  0
  147.8170  160.6080  133.3880 H   0  0  0  0  0  0  0  0  0  0  0  0
  144.2230  157.3624  133.5688 H   0  0  0  0  0  0  0  0  0  0  0  0
  144.6863  154.5335  133.5266 H   0  0  0  0  0  0  0  0  0  0  0  0
  146.4882  152.8070  133.2020 H   0  0  0  0  0  0  0  0  0  0  0  0
  149.4307  155.9801  132.6628 H   0  0  0  0  0  0  0  0  0  0  0  0
  1  2  1  0
  2  3  2  0
  2  4  1  0
  4  5  1  0
  5  6  2  0
  5  7  1  0
  7  8  1  0
  8  9  1  0
  9 10  1  0
  9 11  2  0
  8 12  2  0
 12 13  1  0
 13 14  2  0
 14 15  1  0
 15 16  2  0
 16 17  1  0
 17 18  1  0
 17 19  1  0
 17 20  1  0
 16 21  1  0
 21 22  2  0
 22  7  1  0
 22 13  1  0
  1 23  1  0
  4 24  1  0
  4 25  1  0
 10 26  1  0
 10 27  1  0
 12 28  1  0
 14 29  1  0
 15 30  1  0
 21 31  1  0
M  CHG  1   1  -1
M  END
>  <UniqueID>  (35) 
34

>  <SMILES>  (35) 
[NH-]C(=O)CC(=O)n1c(C(N)=O)cc2ccc(C(F)(F)F)cc21

>  <Energy>  (35) 
68.57985847485736

>  <Genealogy>  (35) 
[NH-]C(=O)CC(=O)n1c(C(N)=O)cc2ccc(C(F)(F)F)cc21 (protonated)
[NH-]C(=O)CC(=O)n1c(C(N)=O)cc2ccc(C(F)(F)F)cc21 (3D coordinates assigned)
[NH-]C(=O)CC(=O)n1c(C(N)=O)cc2ccc(C(F)(F)F)cc21 (optimized conformer: 68.57985847485736 kcal/mol)

>  <smiles>  (35) 
NC(=O)CC(=O)n1c(C(N)=O)cc2ccc(C(F)(F)F)cc21

>  <score_type>  (35) 
oracle

>  <origin>  (35) 
adg

>  <m_score__min__energy>  (35) 
-6.1900000000000004

>  <m_primary>  (35) 
energy

$$$$
35:0
     RDKit          3D

 57 60  0  0  0  0  0  0  0  0999 V2000
  141.3690  156.9560  132.9890 C   0  0  0  0  0  0  0  0  0  0  0  0
  140.5490  156.8950  134.1670 N   0  0  2  0  0  0  0  0  0  0  0  0
  139.7070  158.0600  134.3550 C   0  0  0  0  0  0  0  0  0  0  0  0
  140.2280  158.9680  135.4390 C   0  0  1  0  0  0  0  0  0  0  0  0
  140.3350  158.2560  136.7660 C   0  0  0  0  0  0  0  0  0  0  0  0
  140.4800  156.7560  136.5790 C   0  0  0  0  0  0  0  0  0  0  0  0
  141.3210  156.5680  135.3330 C   0  0  2  0  0  0  0  0  0  0  0  0
  142.6120  157.2940  135.4780 C   0  0  0  0  0  0  0  0  0  0  0  0
  142.5810  158.6590  134.9260 N   0  0  0  0  0  0  0  0  0  0  0  0
  143.7850  159.0050  134.2460 C   0  0  0  0  0  0  0  0  0  0  0  0
  143.9190  160.2680  133.7310 C   0  0  0  0  0  0  0  0  0  0  0  0
  145.0960  160.5730  133.0940 C   0  0  0  0  0  0  0  0  0  0  0  0
  146.0860  159.6290  132.9900 C   0  0  0  0  0  0  0  0  0  0  0  0
  147.3230  159.7190  132.4290 C   0  0  0  0  0  0  0  0  0  0  0  0
  147.9780  158.5100  132.5840 C   0  0  0  0  0  0  0  0  0  0  0  0
  149.3100  158.2780  132.0790 C   0  0  0  0  0  0  0  0  0  0  0  0
  150.0010  159.3630  131.4060 N   0  0  0  0  0  0  0  0  0  0  0  0
  149.9830  157.2290  132.1440 O   0  0  0  0  0  0  0  0  0  0  0  0
  147.1370  157.6530  133.2520 N   0  0  0  0  0  0  0  0  0  0  0  0
  147.5880  156.3930  133.6210 C   0  0  0  0  0  0  0  0  0  0  0  0
  147.6010  155.8990  134.6960 O   0  0  0  0  0  0  0  0  0  0  0  0
  148.2040  155.4360  132.3790 N   0  0  0  0  0  0  0  0  0  0  0  0
  148.3990  154.2830  133.1410 C   0  0  0  0  0  0  0  0  0  0  0  0
  148.3250  153.9090  134.2660 O   0  0  0  0  0  0  0  0  0  0  0  0
  148.8340  153.2240  132.1590 N   0  0  0  0  0  0  0  0  0  0  0  0
  149.1090  151.9080  132.6250 C   0  0  0  0  0  0  0  0  0  0  0  0
  149.7720  151.0690  131.5740 C   0  0  0  0  0  0  0  0  0  0  0  0
  150.1750  149.9100  131.7730 O   0  0  0  0  0  0  0  0  0  0  0  0
  149.9630  151.5940  130.2920 O   0  0  0  0  0  0  0  0  0  0  0  0
  145.9970  158.3440  133.4910 C   0  0  0  0  0  0  0  0  0  0  0  0
  144.7970  158.0560  134.1350 C   0  0  0  0  0  0  0  0  0  0  0  0
  141.5210  159.6430  135.0180 C   0  0  0  0  0  0  0  0  0  0  0  0
  142.4264  157.0346  133.2819 H   0  0  0  0  0  0  0  0  0  0  0  0
  141.2209  156.0444  132.3915 H   0  0  0  0  0  0  0  0  0  0  0  0
  141.0876  157.8357  132.3915 H   0  0  0  0  0  0  0  0  0  0  0  0
  139.8790  156.0750  134.0150 H   0  0  0  0  0  0  0  0  0  0  0  0
  139.6647  158.6229  133.4109 H   0  0  0  0  0  0  0  0  0  0  0  0
  138.7086  157.7107  134.6570 H   0  0  0  0  0  0  0  0  0  0  0  0
  139.4918  159.7714  135.5892 H   0  0  0  0  0  0  0  0  0  0  0  0
  141.2145  158.6361  137.3064 H   0  0  0  0  0  0  0  0  0  0  0  0
  139.4142  158.4466  137.3368 H   0  0  0  0  0  0  0  0  0  0  0  0
  140.9823  156.3094  137.4497 H   0  0  0  0  0  0  0  0  0  0  0  0
  139.4999  156.2665  136.4803 H   0  0  0  0  0  0  0  0  0  0  0  0
  141.6038  155.5137  135.1974 H   0  0  0  0  0  0  0  0  0  0  0  0
  142.8587  157.3563  136.5482 H   0  0  0  0  0  0  0  0  0  0  0  0
  143.3667  156.7310  134.9093 H   0  0  0  0  0  0  0  0  0  0  0  0
  143.1127  161.0103  133.8247 H   0  0  0  0  0  0  0  0  0  0  0  0
  145.2456  161.5754  132.6664 H   0  0  0  0  0  0  0  0  0  0  0  0
  147.7355  160.6096  131.9323 H   0  0  0  0  0  0  0  0  0  0  0  0
  150.8240  159.8240  131.9000 H   0  0  0  0  0  0  0  0  0  0  0  0
  148.0800  156.1710  131.8940 H   0  0  0  0  0  0  0  0  0  0  0  0
  148.9030  153.5520  131.1500 H   0  0  0  0  0  0  0  0  0  0  0  0
  149.7729  151.9721  133.4997 H   0  0  0  0  0  0  0  0  0  0  0  0
  148.1522  151.4326  132.8868 H   0  0  0  0  0  0  0  0  0  0  0  0
  144.6451  157.0554  134.5660 H   0  0  0  0  0  0  0  0  0  0  0  0
  141.7941  160.4055  135.7624 H   0  0  0  0  0  0  0  0  0  0  0  0
  141.3798  160.1178  134.0358 H   0  0  0  0  0  0  0  0  0  0  0  0
  1  2  1  0
  2  3  1  0
  3  4  1  0
  4  5  1  0
  5  6  1  0
  6  7  1  0
  7  8  1  0
  8  9  1  0
  9 10  1  0
 10 11  2  0
 11 12  1  0
 12 13  2  0
 13 14  1  0
 14 15  2  0
 15 16  1  0
 16 17  1  0
 16 18  2  0
 15 19  1  0
 19 20  1  0
 20 21  2  0
 20 22  1  0
 22 23  1  0
 23 24  2  0
 23 25  1  0
 25 26  1  0
 26 27  1  0
 27 28  2  0
 27 29  1  0
 19 30  1  0
 30 31  2  0
  9 32  1  0
  7  2  1  0
 31 10  1  0
 32  4  1  0
 30 13  1  0
  1 33  1  0
  1 34  1  0
  1 35  1  0
  2 36  1  6
  3 37  1  0
  3 38  1  0
  4 39  1  1
  5 40  1  0
  5 41  1  0
  6 42  1  0
  6 43  1  0
  7 44  1  6
  8 45  1  0
  8 46  1  0
 11 47  1  0
 12 48  1  0
 14 49  1  0
 17 50  1  0
 22 51  1  0
 25 52  1  0
 26 53  1  0
 26 54  1  0
 31 55  1  0
 32 56  1  0
 32 57  1  0
M  CHG  3   2   1  17  -1  29  -1
M  END
>  <UniqueID>  (36) 
35

>  <SMILES>  (36) 
C[N@@H+]1C[C@H]2CCC1CN(c1ccc3cc(C([NH-])=O)n(C(=O)NC(=O)NCC(=O)[O-])c3c1)C2

>  <Energy>  (36) 
407.83701841623434

>  <Genealogy>  (36) 
C[NH+]1CC2CCC1CN(c1ccc3cc(C([NH-])=O)n(C(=O)NC(=O)NCC(=O)[O-])c3c1)C2 (protonated)
C[N@@H+]1C[C@H]2CCC1CN(c1ccc3cc(C([NH-])=O)n(C(=O)NC(=O)NCC(=O)[O-])c3c1)C2 (chirality)
C[N@@H+]1C[C@H]2CCC1CN(c1ccc3cc(C([NH-])=O)n(C(=O)NC(=O)NCC(=O)[O-])c3c1)C2 (3D coordinates assigned)
C[N@@H+]1C[C@H]2CCC1CN(c1ccc3cc(C([NH-])=O)n(C(=O)NC(=O)NCC(=O)[O-])c3c1)C2 (nonaromatic ring conformer: 407.83701841623434 kcal/mol)

>  <smiles>  (36) 
CN1CC2CCC1CN(c1ccc3cc(C(N)=O)n(C(=O)NC(=O)NCC(=O)O)c3c1)C2

>  <score_type>  (36) 
oracle

>  <origin>  (36) 
adg

>  <m_score__min__energy>  (36) 
-7.5099999999999998

>  <m_primary>  (36) 
energy

$$$$
36:0
     RDKit          3D

 34 35  0  0  0  0  0  0  0  0999 V2000
  138.9730  157.2760  132.9820 N   0  0  0  0  0  0  0  0  0  0  0  0
  140.0090  156.3320  133.2510 C   0  0  0  0  0  0  0  0  0  0  0  0
  139.7190  155.1140  133.3950 O   0  0  0  0  0  0  0  0  0  0  0  0
  141.4210  156.7490  133.2820 C   0  0  0  0  0  0  0  0  0  0  0  0
  142.4770  155.8520  133.4000 C   0  0  0  0  0  0  0  0  0  0  0  0
  143.6100  156.6310  133.4330 C   0  0  0  0  0  0  0  0  0  0  0  0
  144.9470  156.2590  133.5080 C   0  0  0  0  0  0  0  0  0  0  0  0
  145.9160  157.2750  133.4930 C   0  0  0  0  0  0  0  0  0  0  0  0
  145.5370  158.6390  133.4130 C   0  0  0  0  0  0  0  0  0  0  0  0
  146.5950  159.7090  133.3210 C   0  0  0  0  0  0  0  0  0  0  0  0
  147.7080  159.3700  134.0700 F   0  0  0  0  0  0  0  0  0  0  0  0
  146.9960  159.8810  132.0070 F   0  0  0  0  0  0  0  0  0  0  0  0
  146.0800  160.9010  133.7940 F   0  0  0  0  0  0  0  0  0  0  0  0
  144.1660  158.9770  133.3200 C   0  0  0  0  0  0  0  0  0  0  0  0
  143.2200  157.9440  133.3520 C   0  0  0  0  0  0  0  0  0  0  0  0
  141.8720  158.0350  133.2670 N   0  0  0  0  0  0  0  0  0  0  0  0
  141.0840  159.2380  133.3300 C   0  0  0  0  0  0  0  0  0  0  0  0
  140.8600  159.7950  134.4370 O   0  0  0  0  0  0  0  0  0  0  0  0
  140.5760  159.8220  132.1270 N   0  0  0  0  0  0  0  0  0  0  0  0
  139.3660  160.6350  132.0920 C   0  0  0  0  0  0  0  0  0  0  0  0
  138.5960  160.3840  130.7950 C   0  0  0  0  0  0  0  0  0  0  0  0
  137.2990  159.6840  131.0560 C   0  0  0  0  0  0  0  0  0  0  0  0
  137.2570  158.6960  131.8340 O   0  0  0  0  0  0  0  0  0  0  0  0
  136.1410  160.1050  130.4120 O   0  0  0  0  0  0  0  0  0  0  0  0
  139.2040  158.2570  132.7080 H   0  0  0  0  0  0  0  0  0  0  0  0
  137.9740  156.9750  132.9860 H   0  0  0  0  0  0  0  0  0  0  0  0
  142.4187  154.7549  133.4551 H   0  0  0  0  0  0  0  0  0  0  0  0
  145.2374  155.2003  133.5770 H   0  0  0  0  0  0  0  0  0  0  0  0
  146.9823  157.0095  133.5439 H   0  0  0  0  0  0  0  0  0  0  0  0
  143.8503  160.0264  133.2248 H   0  0  0  0  0  0  0  0  0  0  0  0
  138.7281  160.3736  132.9492 H   0  0  0  0  0  0  0  0  0  0  0  0
  139.6469  161.6974  132.1418 H   0  0  0  0  0  0  0  0  0  0  0  0
  138.3902  161.3489  130.3086 H   0  0  0  0  0  0  0  0  0  0  0  0
  139.2108  159.7428  130.1462 H   0  0  0  0  0  0  0  0  0  0  0  0
  1  2  1  0
  2  3  2  0
  2  4  1  0
  4  5  2  0
  5  6  1  0
  6  7  2  0
  7  8  1  0
  8  9  2  0
  9 10  1  0
 10 11  1  0
 10 12  1  0
 10 13  1  0
  9 14  1  0
 14 15  2  0
 15 16  1  0
 16 17  1  0
 17 18  2  0
 17 19  1  0
 19 20  1  0
 20 21  1  0
 21 22  1  0
 22 23  2  0
 22 24  1  0
 16  4  1  0
 15  6  1  0
  1 25  1  0
  1 26  1  0
  5 27  1  0
  7 28  1  0
  8 29  1  0
 14 30  1  0
 20 31  1  0
 20 32  1  0
 21 33  1  0
 21 34  1  0
M  CHG  2  19  -1  24  -1
M  END
>  <UniqueID>  (37) 
36

>  <SMILES>  (37) 
NC(=O)c1cc2ccc(C(F)(F)F)cc2n1C(=O)[N-]CCC(=O)[O-]

>  <Energy>  (37) 
71.75301146184795

>  <Genealogy>  (37) 
NC(=O)c1cc2ccc(C(F)(F)F)cc2n1C(=O)[N-]CCC(=O)[O-] (protonated)
NC(=O)c1cc2ccc(C(F)(F)F)cc2n1C(=O)[N-]CCC(=O)[O-] (3D coordinates assigned)
NC(=O)c1cc2ccc(C(F)(F)F)cc2n1C(=O)[N-]CCC(=O)[O-] (optimized conformer: 71.75301146184795 kcal/mol)

>  <smiles>  (37) 
NC(=O)c1cc2ccc(C(F)(F)F)cc2n1C(=O)NCCC(=O)O

>  <score_type>  (37) 
oracle

>  <origin>  (37) 
adg

>  <m_score__min__energy>  (37) 
-6.25

>  <m_primary>  (37) 
energy

$$$$
37:0
     RDKit          3D

 38 39  0  0  0  0  0  0  0  0999 V2000
  139.1280  155.9000  132.9880 C   0  0  0  0  0  0  0  0  0  0  0  0
  140.4130  155.6840  133.2910 C   0  0  0  0  0  0  0  0  0  0  0  0
  140.9420  154.2760  133.3110 C   0  0  0  0  0  0  0  0  0  0  0  0
  141.3460  156.8180  133.5010 C   0  0  0  0  0  0  0  0  0  0  0  0
  142.1840  157.1090  132.6040 O   0  0  0  0  0  0  0  0  0  0  0  0
  141.3260  157.5880  134.7130 N   0  0  0  0  0  0  0  0  0  0  0  0
  141.4320  158.9390  134.8450 C   0  0  0  0  0  0  0  0  0  0  0  0
  141.4660  159.9170  133.7360 C   0  0  0  0  0  0  0  0  0  0  0  0
  140.8900  159.6110  132.4690 N   0  0  0  0  0  0  0  0  0  0  0  0
  141.9900  161.0490  133.9180 O   0  0  0  0  0  0  0  0  0  0  0  0
  141.4570  159.2960  136.1920 C   0  0  0  0  0  0  0  0  0  0  0  0
  141.3640  158.1090  136.8850 C   0  0  0  0  0  0  0  0  0  0  0  0
  141.3540  157.8690  138.2530 C   0  0  0  0  0  0  0  0  0  0  0  0
  141.2710  156.5360  138.6890 C   0  0  0  0  0  0  0  0  0  0  0  0
  141.2090  155.4600  137.7580 C   0  0  0  0  0  0  0  0  0  0  0  0
  141.1240  154.0850  138.2130 N   0  0  0  0  0  0  0  0  0  0  0  0
  140.2480  153.7330  139.3380 C   0  0  0  0  0  0  0  0  0  0  0  0
  141.9260  153.0210  137.5890 C   0  0  0  0  0  0  0  0  0  0  0  0
  141.2450  151.6940  137.7210 C   0  0  0  0  0  0  0  0  0  0  0  0
  141.1800  151.1200  138.8390 O   0  0  0  0  0  0  0  0  0  0  0  0
  140.6480  151.1060  136.6130 O   0  0  0  0  0  0  0  0  0  0  0  0
  141.2250  155.7580  136.3710 C   0  0  0  0  0  0  0  0  0  0  0  0
  141.2910  157.0960  135.9710 C   0  0  0  0  0  0  0  0  0  0  0  0
  138.7319  156.9261  132.9708 H   0  0  0  0  0  0  0  0  0  0  0  0
  138.4675  155.0515  132.7561 H   0  0  0  0  0  0  0  0  0  0  0  0
  141.0661  153.9457  134.3529 H   0  0  0  0  0  0  0  0  0  0  0  0
  140.2326  153.6104  132.7974 H   0  0  0  0  0  0  0  0  0  0  0  0
  141.9141  154.2422  132.7974 H   0  0  0  0  0  0  0  0  0  0  0  0
  141.3710  158.9680  131.8020 H   0  0  0  0  0  0  0  0  0  0  0  0
  141.5345  160.3096  136.6122 H   0  0  0  0  0  0  0  0  0  0  0  0
  141.4094  158.6981  138.9738 H   0  0  0  0  0  0  0  0  0  0  0  0
  141.2536  156.3198  139.7674 H   0  0  0  0  0  0  0  0  0  0  0  0
  140.7664  153.9413  140.2855 H   0  0  0  0  0  0  0  0  0  0  0  0
  139.3258  154.3304  139.2855 H   0  0  0  0  0  0  0  0  0  0  0  0
  139.9956  152.6636  139.2855 H   0  0  0  0  0  0  0  0  0  0  0  0
  142.0629  153.2514  136.5222 H   0  0  0  0  0  0  0  0  0  0  0  0
  142.8998  152.9694  138.0980 H   0  0  0  0  0  0  0  0  0  0  0  0
  141.1862  154.9513  135.6242 H   0  0  0  0  0  0  0  0  0  0  0  0
  1  2  2  0
  2  3  1  0
  2  4  1  0
  4  5  2  0
  4  6  1  0
  6  7  1  0
  7  8  1  0
  8  9  1  0
  8 10  2  0
  7 11  2  0
 11 12  1  0
 12 13  2  0
 13 14  1  0
 14 15  2  0
 15 16  1  0
 16 17  1  0
 16 18  1  0
 18 19  1  0
 19 20  2  0
 19 21  1  0
 15 22  1  0
 22 23  2  0
 23  6  1  0
 23 12  1  0
  1 24  1  0
  1 25  1  0
  3 26  1  0
  3 27  1  0
  3 28  1  0
  9 29  1  0
 11 30  1  0
 13 31  1  0
 14 32  1  0
 17 33  1  0
 17 34  1  0
 17 35  1  0
 18 36  1  0
 18 37  1  0
 22 38  1  0
M  CHG  2   9  -1  21  -1
M  END
>  <UniqueID>  (38) 
37

>  <SMILES>  (38) 
C=C(C)C(=O)n1c(C([NH-])=O)cc2ccc(N(C)CC(=O)[O-])cc21

>  <Energy>  (38) 
77.96615387461439

>  <Genealogy>  (38) 
C=C(C)C(=O)n1c(C([NH-])=O)cc2ccc(N(C)CC(=O)[O-])cc21 (protonated)
C=C(C)C(=O)n1c(C([NH-])=O)cc2ccc(N(C)CC(=O)[O-])cc21 (3D coordinates assigned)
C=C(C)C(=O)n1c(C([NH-])=O)cc2ccc(N(C)CC(=O)[O-])cc21 (optimized conformer: 77.96615387461439 kcal/mol)

>  <smiles>  (38) 
C=C(C)C(=O)n1c(C(N)=O)cc2ccc(N(C)CC(=O)O)cc21

>  <score_type>  (38) 
oracle

>  <origin>  (38) 
adg

>  <m_score__min__energy>  (38) 
-6.5999999999999996

>  <m_primary>  (38) 
energy

$$$$
38:0
     RDKit          3D

 28 30  0  0  0  0  0  0  0  0999 V2000
  148.5950  157.3920  131.8570 N   0  0  0  0  0  0  0  0  0  0  0  0
  148.3010  158.5130  132.6930 C   0  0  0  0  0  0  0  0  0  0  0  0
  149.2330  159.2890  133.0350 O   0  0  0  0  0  0  0  0  0  0  0  0
  146.9170  158.8170  133.1060 C   0  0  0  0  0  0  0  0  0  0  0  0
  146.4010  160.1080  133.1600 C   0  0  0  0  0  0  0  0  0  0  0  0
  145.0820  159.9560  133.5190 C   0  0  0  0  0  0  0  0  0  0  0  0
  144.1000  160.9170  133.7340 C   0  0  0  0  0  0  0  0  0  0  0  0
  142.8280  160.4820  134.1360 C   0  0  0  0  0  0  0  0  0  0  0  0
  142.5560  159.1000  134.3280 C   0  0  0  0  0  0  0  0  0  0  0  0
  141.2090  158.6530  134.7660 C   0  0  0  0  0  0  0  0  0  0  0  0
  140.1980  158.1110  133.9930 C   0  0  0  0  0  0  0  0  0  0  0  0
  139.1390  157.8440  134.7790 N   0  0  0  0  0  0  0  0  0  0  0  0
  139.4590  158.1960  135.9900 O   0  0  0  0  0  0  0  0  0  0  0  0
  140.6760  158.6840  136.0420 C   0  0  0  0  0  0  0  0  0  0  0  0
  143.5860  158.1560  134.1000 C   0  0  0  0  0  0  0  0  0  0  0  0
  144.8390  158.6170  133.6780 C   0  0  0  0  0  0  0  0  0  0  0  0
  145.9620  157.9010  133.4310 N   0  0  0  0  0  0  0  0  0  0  0  0
  146.1370  156.4850  133.6030 C   0  0  0  0  0  0  0  0  0  0  0  0
  146.4040  155.7480  132.6180 O   0  0  0  0  0  0  0  0  0  0  0  0
  146.0080  155.9110  134.8630 O   0  0  0  0  0  0  0  0  0  0  0  0
  149.5830  157.1720  131.6060 H   0  0  0  0  0  0  0  0  0  0  0  0
  147.8320  156.8290  131.4230 H   0  0  0  0  0  0  0  0  0  0  0  0
  146.9339  161.0490  132.9587 H   0  0  0  0  0  0  0  0  0  0  0  0
  144.3142  161.9867  133.5930 H   0  0  0  0  0  0  0  0  0  0  0  0
  142.0304  161.2205  134.3049 H   0  0  0  0  0  0  0  0  0  0  0  0
  140.2512  157.9277  132.9097 H   0  0  0  0  0  0  0  0  0  0  0  0
  141.1845  159.0539  136.9446 H   0  0  0  0  0  0  0  0  0  0  0  0
  143.4056  157.0815  134.2514 H   0  0  0  0  0  0  0  0  0  0  0  0
  1  2  1  0
  2  3  2  0
  2  4  1  0
  4  5  2  0
  5  6  1  0
  6  7  2  0
  7  8  1  0
  8  9  2  0
  9 10  1  0
 10 11  1  0
 11 12  2  0
 12 13  1  0
 13 14  1  0
  9 15  1  0
 15 16  2  0
 16 17  1  0
 17 18  1  0
 18 19  2  0
 18 20  1  0
 17  4  1  0
 16  6  1  0
 14 10  2  0
  1 21  1  0
  1 22  1  0
  5 23  1  0
  7 24  1  0
  8 25  1  0
 11 26  1  0
 14 27  1  0
 15 28  1  0
M  CHG  1  20  -1
M  END
>  <UniqueID>  (39) 
38

>  <SMILES>  (39) 
NC(=O)c1cc2ccc(-c3cnoc3)cc2n1C(=O)[O-]

>  <Energy>  (39) 
103.40991672736527

>  <Genealogy>  (39) 
NC(=O)c1cc2ccc(-c3cnoc3)cc2n1C(=O)[O-] (protonated)
NC(=O)c1cc2ccc(-c3cnoc3)cc2n1C(=O)[O-] (3D coordinates assigned)
NC(=O)c1cc2ccc(-c3cnoc3)cc2n1C(=O)[O-] (optimized conformer: 103.40991672736527 kcal/mol)

>  <smiles>  (39) 
NC(=O)c1cc2ccc(-c3cnoc3)cc2n1C(=O)O

>  <score_type>  (39) 
oracle

>  <origin>  (39) 
adg

>  <m_score__min__energy>  (39) 
-6.46

>  <m_primary>  (39) 
energy

$$$$
39:0
     RDKit          3D

 40 42  0  0  0  0  0  0  0  0999 V2000
  149.2670  157.4150  132.2470 N   0  0  0  0  0  0  0  0  0  0  0  0
  148.8250  158.7450  132.5130 C   0  0  0  0  0  0  0  0  0  0  0  0
  149.6340  159.7010  132.3850 O   0  0  0  0  0  0  0  0  0  0  0  0
  147.4420  158.9810  132.9750 C   0  0  0  0  0  0  0  0  0  0  0  0
  146.8720  160.2480  133.0820 C   0  0  0  0  0  0  0  0  0  0  0  0
  145.5660  160.0280  133.4580 C   0  0  0  0  0  0  0  0  0  0  0  0
  144.5480  160.9360  133.7140 C   0  0  0  0  0  0  0  0  0  0  0  0
  143.2990  160.4340  134.1130 C   0  0  0  0  0  0  0  0  0  0  0  0
  143.0740  159.0310  134.2670 C   0  0  0  0  0  0  0  0  0  0  0  0
  141.7750  158.5190  134.6960 N   0  0  0  0  0  0  0  0  0  0  0  0
  141.4130  158.5700  136.1280 C   0  0  0  0  0  0  0  0  0  0  0  0
  140.0560  157.9340  136.4420 C   0  0  0  0  0  0  0  0  0  0  0  0
  139.1210  158.2160  135.4290 O   0  0  0  0  0  0  0  0  0  0  0  0
  139.5030  157.5180  134.2670 C   0  0  0  0  0  0  0  0  0  0  0  0
  140.7890  158.0990  133.6760 C   0  0  0  0  0  0  0  0  0  0  0  0
  144.1560  158.1470  133.9850 C   0  0  0  0  0  0  0  0  0  0  0  0
  145.3810  158.6790  133.5700 C   0  0  0  0  0  0  0  0  0  0  0  0
  146.5250  158.0180  133.2780 N   0  0  0  0  0  0  0  0  0  0  0  0
  146.7360  156.6010  133.3550 C   0  0  0  0  0  0  0  0  0  0  0  0
  146.7570  155.9100  132.3000 O   0  0  0  0  0  0  0  0  0  0  0  0
  146.8990  155.9890  134.6040 O   0  0  0  0  0  0  0  0  0  0  0  0
  146.5970  154.6180  134.8500 C   0  0  0  0  0  0  0  0  0  0  0  0
  147.2310  154.1660  136.1260 C   0  0  0  0  0  0  0  0  0  0  0  0
  148.1330  154.8610  136.6630 O   0  0  0  0  0  0  0  0  0  0  0  0
  146.8090  152.9920  136.7380 O   0  0  0  0  0  0  0  0  0  0  0  0
  148.6630  156.7430  131.7260 H   0  0  0  0  0  0  0  0  0  0  0  0
  147.3611  161.2171  132.9040 H   0  0  0  0  0  0  0  0  0  0  0  0
  144.7150  162.0180  133.6073 H   0  0  0  0  0  0  0  0  0  0  0  0
  142.4756  161.1359  134.3114 H   0  0  0  0  0  0  0  0  0  0  0  0
  142.1868  158.0383  136.7011 H   0  0  0  0  0  0  0  0  0  0  0  0
  141.3422  159.6324  136.4044 H   0  0  0  0  0  0  0  0  0  0  0  0
  140.1798  156.8441  136.5241 H   0  0  0  0  0  0  0  0  0  0  0  0
  139.6837  158.3517  137.3890 H   0  0  0  0  0  0  0  0  0  0  0  0
  139.6695  156.4607  134.5209 H   0  0  0  0  0  0  0  0  0  0  0  0
  138.7002  157.6136  133.5211 H   0  0  0  0  0  0  0  0  0  0  0  0
  141.2544  157.3338  133.0373 H   0  0  0  0  0  0  0  0  0  0  0  0
  140.5056  159.0001  133.1123 H   0  0  0  0  0  0  0  0  0  0  0  0
  144.0290  157.0597  134.0925 H   0  0  0  0  0  0  0  0  0  0  0  0
  145.5064  154.4945  134.9235 H   0  0  0  0  0  0  0  0  0  0  0  0
  146.9909  154.0114  134.0212 H   0  0  0  0  0  0  0  0  0  0  0  0
  1  2  1  0
  2  3  2  0
  2  4  1  0
  4  5  2  0
  5  6  1  0
  6  7  2  0
  7  8  1  0
  8  9  2  0
  9 10  1  0
 10 11  1  0
 11 12  1  0
 12 13  1  0
 13 14  1  0
 14 15  1  0
  9 16  1  0
 16 17  2  0
 17 18  1  0
 18 19  1  0
 19 20  2  0
 19 21  1  0
 21 22  1  0
 22 23  1  0
 23 24  2  0
 23 25  1  0
 18  4  1  0
 17  6  1  0
 15 10  1  0
  1 26  1  0
  5 27  1  0
  7 28  1  0
  8 29  1  0
 11 30  1  0
 11 31  1  0
 12 32  1  0
 12 33  1  0
 14 34  1  0
 14 35  1  0
 15 36  1  0
 15 37  1  0
 16 38  1  0
 22 39  1  0
 22 40  1  0
M  CHG  2   1  -1  25  -1
M  END
>  <UniqueID>  (40) 
39

>  <SMILES>  (40) 
[NH-]C(=O)c1cc2ccc(N3CCOCC3)cc2n1C(=O)OCC(=O)[O-]

>  <Energy>  (40) 
85.77263091361033

>  <Genealogy>  (40) 
[NH-]C(=O)c1cc2ccc(N3CCOCC3)cc2n1C(=O)OCC(=O)[O-] (protonated)
[NH-]C(=O)c1cc2ccc(N3CCOCC3)cc2n1C(=O)OCC(=O)[O-] (3D coordinates assigned)
[NH-]C(=O)c1cc2ccc(N3CCOCC3)cc2n1C(=O)OCC(=O)[O-] (nonaromatic ring conformer: 85.77263091361033 kcal/mol)

>  <smiles>  (40) 
NC(=O)c1cc2ccc(N3CCOCC3)cc2n1C(=O)OCC(=O)O

>  <score_type>  (40) 
oracle

>  <origin>  (40) 
adg

>  <m_score__min__energy>  (40) 
-7.2300000000000004

>  <m_primary>  (40) 
energy

$$$$
40:0
     RDKit          3D

 32 33  0  0  0  0  0  0  0  0999 V2000
  145.9750  163.0990  134.9820 N   0  0  0  0  0  0  0  0  0  0  0  0
  145.0400  162.4270  134.1410 C   0  0  0  0  0  0  0  0  0  0  0  0
  144.0980  163.0820  133.6200 O   0  0  0  0  0  0  0  0  0  0  0  0
  145.1280  160.9690  133.9190 C   0  0  0  0  0  0  0  0  0  0  0  0
  146.3290  160.3030  133.6780 C   0  0  0  0  0  0  0  0  0  0  0  0
  145.9780  158.9950  133.4370 C   0  0  0  0  0  0  0  0  0  0  0  0
  146.7800  157.8920  133.1570 C   0  0  0  0  0  0  0  0  0  0  0  0
  146.1510  156.6470  132.9880 C   0  0  0  0  0  0  0  0  0  0  0  0
  144.7430  156.5280  133.1040 C   0  0  0  0  0  0  0  0  0  0  0  0
  144.0860  155.1830  132.9730 C   0  0  0  0  0  0  0  0  0  0  0  0
  144.8790  153.9780  134.0820 P   0  0  2  0  0  0  0  0  0  0  0  0
  146.1120  153.4220  133.4050 O   0  0  0  0  0  0  0  0  0  0  0  0
  143.8040  152.7130  134.4050 O   0  0  0  0  0  0  0  0  0  0  0  0
  145.3550  154.7830  135.6420 C   0  0  0  0  0  0  0  0  0  0  0  0
  146.7360  154.3680  136.0330 C   0  0  0  0  0  0  0  0  0  0  0  0
  147.7170  155.1140  135.7750 O   0  0  0  0  0  0  0  0  0  0  0  0
  146.9350  153.1800  136.7240 O   0  0  0  0  0  0  0  0  0  0  0  0
  143.9630  157.6690  133.3950 C   0  0  0  0  0  0  0  0  0  0  0  0
  144.6140  158.9000  133.5400 C   0  0  0  0  0  0  0  0  0  0  0  0
  144.0760  160.1040  133.8400 N   0  0  0  0  0  0  0  0  0  0  0  0
  142.6910  160.3720  134.1070 C   0  0  0  0  0  0  0  0  0  0  0  0
  142.0470  161.1740  133.3820 O   0  0  0  0  0  0  0  0  0  0  0  0
  142.0560  159.7700  135.1860 O   0  0  0  0  0  0  0  0  0  0  0  0
  146.9970  163.0800  134.7720 H   0  0  0  0  0  0  0  0  0  0  0  0
  147.3418  160.7322  133.6801 H   0  0  0  0  0  0  0  0  0  0  0  0
  147.8720  157.9921  133.0708 H   0  0  0  0  0  0  0  0  0  0  0  0
  146.7565  155.7565  132.7637 H   0  0  0  0  0  0  0  0  0  0  0  0
  143.0218  155.2724  133.2367 H   0  0  0  0  0  0  0  0  0  0  0  0
  144.1906  154.8347  131.9349 H   0  0  0  0  0  0  0  0  0  0  0  0
  145.3264  155.8749  135.5116 H   0  0  0  0  0  0  0  0  0  0  0  0
  144.6512  154.4820  136.4320 H   0  0  0  0  0  0  0  0  0  0  0  0
  142.8712  157.5924  133.5050 H   0  0  0  0  0  0  0  0  0  0  0  0
  1  2  1  0
  2  3  2  0
  2  4  1  0
  4  5  2  0
  5  6  1  0
  6  7  2  0
  7  8  1  0
  8  9  2  0
  9 10  1  0
 10 11  1  0
 11 12  2  0
 11 13  1  1
 11 14  1  0
 14 15  1  0
 15 16  2  0
 15 17  1  0
  9 18  1  0
 18 19  2  0
 19 20  1  0
 20 21  1  0
 21 22  2  0
 21 23  1  0
 20  4  1  0
 19  6  1  0
  1 24  1  0
  5 25  1  0
  7 26  1  0
  8 27  1  0
 10 28  1  0
 10 29  1  0
 14 30  1  0
 14 31  1  0
 18 32  1  0
M  CHG  4   1  -1  13  -1  17  -1  23  -1
M  END
>  <UniqueID>  (41) 
40

>  <SMILES>  (41) 
[NH-]C(=O)c1cc2ccc(C[P@](=O)([O-])CC(=O)[O-])cc2n1C(=O)[O-]

>  <Energy>  (41) 
62.46731333944987

>  <Genealogy>  (41) 
[NH-]C(=O)c1cc2ccc(CP(=O)([O-])CC(=O)[O-])cc2n1C(=O)[O-] (protonated)
[NH-]C(=O)c1cc2ccc(C[P@](=O)([O-])CC(=O)[O-])cc2n1C(=O)[O-] (chirality)
[NH-]C(=O)c1cc2ccc(C[P@](=O)([O-])CC(=O)[O-])cc2n1C(=O)[O-] (3D coordinates assigned)
[NH-]C(=O)c1cc2ccc(C[P@](=O)([O-])CC(=O)[O-])cc2n1C(=O)[O-] (optimized conformer: 62.46731333944987 kcal/mol)

>  <smiles>  (41) 
NC(=O)c1cc2ccc(CP(=O)(O)CC(=O)O)cc2n1C(=O)O

>  <score_type>  (41) 
oracle

>  <origin>  (41) 
adg

>  <m_score__min__energy>  (41) 
-6.6799999999999997

>  <m_primary>  (41) 
energy

$$$$
41:0
     RDKit          3D

 33 34  0  0  0  0  0  0  0  0999 V2000
  143.2590  157.6120  132.5610 N   0  0  0  0  0  0  0  0  0  0  0  0
  143.1260  156.6760  133.6280 C   0  0  0  0  0  0  0  0  0  0  0  0
  143.2440  157.0770  134.8160 O   0  0  0  0  0  0  0  0  0  0  0  0
  142.8100  155.2570  133.3620 C   0  0  0  0  0  0  0  0  0  0  0  0
  143.7660  154.2430  133.3570 C   0  0  0  0  0  0  0  0  0  0  0  0
  143.0630  153.0800  133.1420 C   0  0  0  0  0  0  0  0  0  0  0  0
  143.5150  151.7700  133.0190 C   0  0  0  0  0  0  0  0  0  0  0  0
  142.5650  150.7660  132.7610 C   0  0  0  0  0  0  0  0  0  0  0  0
  141.1870  151.0840  132.6390 C   0  0  0  0  0  0  0  0  0  0  0  0
  140.1870  150.0070  132.3040 C   0  0  0  0  0  0  0  0  0  0  0  0
  138.9700  150.5630  131.9510 F   0  0  0  0  0  0  0  0  0  0  0  0
  139.9840  149.1750  133.3920 F   0  0  0  0  0  0  0  0  0  0  0  0
  140.6650  149.2560  131.2460 F   0  0  0  0  0  0  0  0  0  0  0  0
  140.7720  152.4330  132.7440 C   0  0  0  0  0  0  0  0  0  0  0  0
  141.7380  153.4070  133.0220 C   0  0  0  0  0  0  0  0  0  0  0  0
  141.5660  154.7400  133.1540 N   0  0  0  0  0  0  0  0  0  0  0  0
  140.3290  155.4540  133.0120 C   0  0  0  0  0  0  0  0  0  0  0  0
  139.2390  154.8680  133.2550 O   0  0  0  0  0  0  0  0  0  0  0  0
  140.3360  156.8290  132.6030 N   0  0  0  0  0  0  0  0  0  0  0  0
  139.1070  157.6040  132.4280 C   0  0  1  0  0  0  0  0  0  0  0  0
  138.4620  157.8560  133.7610 C   0  0  0  0  0  0  0  0  0  0  0  0
  139.1300  157.8330  134.7830 O   0  0  0  0  0  0  0  0  0  0  0  0
  139.4280  158.9090  131.7650 C   0  0  0  0  0  0  0  0  0  0  0  0
  140.6260  159.2270  131.5410 O   0  0  0  0  0  0  0  0  0  0  0  0
  138.4080  159.7820  131.4070 O   0  0  0  0  0  0  0  0  0  0  0  0
  142.4360  158.1530  132.2140 H   0  0  0  0  0  0  0  0  0  0  0  0
  144.8520  154.3498  133.4955 H   0  0  0  0  0  0  0  0  0  0  0  0
  144.5830  151.5271  133.1205 H   0  0  0  0  0  0  0  0  0  0  0  0
  142.8935  149.7218  132.6524 H   0  0  0  0  0  0  0  0  0  0  0  0
  139.7157  152.7094  132.6103 H   0  0  0  0  0  0  0  0  0  0  0  0
  141.2400  157.2350  132.2690 H   0  0  0  0  0  0  0  0  0  0  0  0
  138.4086  157.0349  131.7968 H   0  0  0  0  0  0  0  0  0  0  0  0
  137.3830  158.0622  133.8168 H   0  0  0  0  0  0  0  0  0  0  0  0
  1  2  1  0
  2  3  2  0
  2  4  1  0
  4  5  2  0
  5  6  1  0
  6  7  2  0
  7  8  1  0
  8  9  2  0
  9 10  1  0
 10 11  1  0
 10 12  1  0
 10 13  1  0
  9 14  1  0
 14 15  2  0
 15 16  1  0
 16 17  1  0
 17 18  2  0
 17 19  1  0
 19 20  1  0
 20 21  1  0
 21 22  2  0
 20 23  1  0
 23 24  2  0
 23 25  1  0
 16  4  1  0
 15  6  1  0
  1 26  1  0
  5 27  1  0
  7 28  1  0
  8 29  1  0
 14 30  1  0
 19 31  1  0
 20 32  1  6
 21 33  1  0
M  CHG  2   1  -1  25  -1
M  END
>  <UniqueID>  (42) 
41

>  <SMILES>  (42) 
[NH-]C(=O)c1cc2ccc(C(F)(F)F)cc2n1C(=O)N[C@@H](C=O)C(=O)[O-]

>  <Energy>  (42) 
70.85811302024588

>  <Genealogy>  (42) 
[NH-]C(=O)c1cc2ccc(C(F)(F)F)cc2n1C(=O)NC(C=O)C(=O)[O-] (protonated)
[NH-]C(=O)c1cc2ccc(C(F)(F)F)cc2n1C(=O)N[C@@H](C=O)C(=O)[O-] (chirality)
[NH-]C(=O)c1cc2ccc(C(F)(F)F)cc2n1C(=O)N[C@@H](C=O)C(=O)[O-] (3D coordinates assigned)
[NH-]C(=O)c1cc2ccc(C(F)(F)F)cc2n1C(=O)N[C@@H](C=O)C(=O)[O-] (optimized conformer: 70.85811302024588 kcal/mol)

>  <smiles>  (42) 
NC(=O)c1cc2ccc(C(F)(F)F)cc2n1C(=O)NC(C=O)C(=O)O

>  <score_type>  (42) 
oracle

>  <origin>  (42) 
adg

>  <m_score__min__energy>  (42) 
-6.3499999999999996

>  <m_primary>  (42) 
energy

$$$$
42:0
     RDKit          3D

 36 38  0  0  0  0  0  0  0  0999 V2000
  138.2930  157.7260  133.3790 N   0  0  0  0  0  0  0  0  0  0  0  0
  139.1700  158.1520  134.4180 C   0  0  0  0  0  0  0  0  0  0  0  0
  138.7360  158.2350  135.5970 O   0  0  0  0  0  0  0  0  0  0  0  0
  140.5930  158.4400  134.1410 C   0  0  0  0  0  0  0  0  0  0  0  0
  141.1410  159.7190  134.2110 C   0  0  0  0  0  0  0  0  0  0  0  0
  142.4870  159.5530  133.9770 C   0  0  0  0  0  0  0  0  0  0  0  0
  143.5070  160.4960  133.9210 C   0  0  0  0  0  0  0  0  0  0  0  0
  144.8060  160.0450  133.6310 C   0  0  0  0  0  0  0  0  0  0  0  0
  145.0650  158.6690  133.3950 C   0  0  0  0  0  0  0  0  0  0  0  0
  146.4020  158.2200  133.0840 N   0  0  0  0  0  0  0  0  0  0  0  0
  146.9070  156.9480  133.6160 C   0  0  0  0  0  0  0  0  0  0  0  0
  147.9760  156.3710  132.6800 C   0  0  0  0  0  0  0  0  0  0  0  0
  149.0960  157.3090  132.4450 N   0  0  0  0  0  0  0  0  0  0  0  0
  148.7510  158.7420  132.5660 C   0  0  0  0  0  0  0  0  0  0  0  0
  147.2830  159.0290  132.2300 C   0  0  0  0  0  0  0  0  0  0  0  0
  143.9950  157.7430  133.4610 C   0  0  0  0  0  0  0  0  0  0  0  0
  142.7160  158.2180  133.7700 C   0  0  0  0  0  0  0  0  0  0  0  0
  141.5620  157.5200  133.8650 N   0  0  0  0  0  0  0  0  0  0  0  0
  141.3980  156.1130  133.6290 C   0  0  0  0  0  0  0  0  0  0  0  0
  142.2900  155.2990  133.9870 O   0  0  0  0  0  0  0  0  0  0  0  0
  140.2430  155.6330  133.0240 O   0  0  0  0  0  0  0  0  0  0  0  0
  138.3570  156.7610  132.9830 H   0  0  0  0  0  0  0  0  0  0  0  0
  140.6104  160.6616  134.4109 H   0  0  0  0  0  0  0  0  0  0  0  0
  143.3035  161.5624  134.0983 H   0  0  0  0  0  0  0  0  0  0  0  0
  145.6337  160.7681  133.5862 H   0  0  0  0  0  0  0  0  0  0  0  0
  147.3474  157.1186  134.6094 H   0  0  0  0  0  0  0  0  0  0  0  0
  146.0735  156.2343  133.6929 H   0  0  0  0  0  0  0  0  0  0  0  0
  148.3766  155.4500  133.1287 H   0  0  0  0  0  0  0  0  0  0  0  0
  147.4971  156.1757  131.7092 H   0  0  0  0  0  0  0  0  0  0  0  0
  149.4780  157.1330  131.4860 H   0  0  0  0  0  0  0  0  0  0  0  0
  149.8630  157.0960  133.1260 H   0  0  0  0  0  0  0  0  0  0  0  0
  148.9446  159.0642  133.5998 H   0  0  0  0  0  0  0  0  0  0  0  0
  149.3705  159.2944  131.8441 H   0  0  0  0  0  0  0  0  0  0  0  0
  147.0732  160.0957  132.3979 H   0  0  0  0  0  0  0  0  0  0  0  0
  147.0980  158.7725  131.1765 H   0  0  0  0  0  0  0  0  0  0  0  0
  144.1663  156.6728  133.2732 H   0  0  0  0  0  0  0  0  0  0  0  0
  1  2  1  0
  2  3  2  0
  2  4  1  0
  4  5  2  0
  5  6  1  0
  6  7  2  0
  7  8  1  0
  8  9  2  0
  9 10  1  0
 10 11  1  0
 11 12  1  0
 12 13  1  0
 13 14  1  0
 14 15  1  0
  9 16  1  0
 16 17  2  0
 17 18  1  0
 18 19  1  0
 19 20  2  0
 19 21  1  0
 18  4  1  0
 17  6  1  0
 15 10  1  0
  1 22  1  0
  5 23  1  0
  7 24  1  0
  8 25  1  0
 11 26  1  0
 11 27  1  0
 12 28  1  0
 12 29  1  0
 13 30  1  0
 13 31  1  0
 14 32  1  0
 14 33  1  0
 15 34  1  0
 15 35  1  0
 16 36  1  0
M  CHG  3   1  -1  13   1  21  -1
M  END
>  <UniqueID>  (43) 
42

>  <SMILES>  (43) 
[NH-]C(=O)c1cc2ccc(N3CC[NH2+]CC3)cc2n1C(=O)[O-]

>  <Energy>  (43) 
85.0684501964343

>  <Genealogy>  (43) 
[NH-]C(=O)c1cc2ccc(N3CC[NH2+]CC3)cc2n1C(=O)[O-] (protonated)
[NH-]C(=O)c1cc2ccc(N3CC[NH2+]CC3)cc2n1C(=O)[O-] (3D coordinates assigned)
[NH-]C(=O)c1cc2ccc(N3CC[NH2+]CC3)cc2n1C(=O)[O-] (nonaromatic ring conformer: 85.0684501964343 kcal/mol)

>  <smiles>  (43) 
NC(=O)c1cc2ccc(N3CCNCC3)cc2n1C(=O)O

>  <score_type>  (43) 
oracle

>  <origin>  (43) 
adg

>  <m_score__min__energy>  (43) 
-6.71

>  <m_primary>  (43) 
energy

$$$$
43:0
     RDKit          3D

 54 56  0  0  0  0  0  0  0  0999 V2000
  138.7990  157.8620  131.4980 C   0  0  0  0  0  0  0  0  0  0  0  0
  139.3840  157.6400  132.8600 C   0  0  0  0  0  0  0  0  0  0  0  0
  138.9720  158.4520  133.9450 C   0  0  0  0  0  0  0  0  0  0  0  0
  139.4830  158.2370  135.2370 C   0  0  0  0  0  0  0  0  0  0  0  0
  140.4020  157.2060  135.4110 C   0  0  0  0  0  0  0  0  0  0  0  0
  141.0340  156.7690  136.5530 C   0  0  0  0  0  0  0  0  0  0  0  0
  141.8360  155.7050  136.1460 C   0  0  0  0  0  0  0  0  0  0  0  0
  142.7480  154.9790  137.0560 C   0  0  0  0  0  0  0  0  0  0  0  0
  144.0930  154.6740  136.6770 N   0  0  0  0  0  0  0  0  0  0  0  0
  142.3480  154.6630  138.2090 O   0  0  0  0  0  0  0  0  0  0  0  0
  141.6960  155.4810  134.8090 N   0  0  0  0  0  0  0  0  0  0  0  0
  142.2710  154.4180  134.0300 C   0  0  0  0  0  0  0  0  0  0  0  0
  141.5190  153.6480  133.3700 O   0  0  0  0  0  0  0  0  0  0  0  0
  143.6620  154.2600  134.0060 O   0  0  0  0  0  0  0  0  0  0  0  0
  144.4890  154.5510  132.9110 C   0  0  0  0  0  0  0  0  0  0  0  0
  144.2090  155.4940  132.1220 O   0  0  0  0  0  0  0  0  0  0  0  0
  145.6970  153.6940  132.6320 C   0  0  2  0  0  0  0  0  0  0  0  0
  145.3570  152.1980  132.5730 C   0  0  0  0  0  0  0  0  0  0  0  0
  146.7610  153.9410  133.6280 N   0  0  0  0  0  0  0  0  0  0  0  0
  148.1530  153.6030  133.3120 C   0  0  0  0  0  0  0  0  0  0  0  0
  146.4750  154.5050  134.9260 C   0  0  0  0  0  0  0  0  0  0  0  0
  146.3280  153.7550  135.9320 O   0  0  0  0  0  0  0  0  0  0  0  0
  146.3550  155.8950  135.0680 O   0  0  0  0  0  0  0  0  0  0  0  0
  146.7870  156.8240  134.0790 C   0  0  0  0  0  0  0  0  0  0  0  0
  145.6850  157.7820  133.7420 C   0  0  0  0  0  0  0  0  0  0  0  0
  144.4180  157.5900  134.0220 O   0  0  0  0  0  0  0  0  0  0  0  0
  143.7830  158.6450  133.5620 C   0  0  0  0  0  0  0  0  0  0  0  0
  142.5380  158.8090  133.6550 O   0  0  0  0  0  0  0  0  0  0  0  0
  144.5900  159.5130  132.9960 O   0  0  0  0  0  0  0  0  0  0  0  0
  145.7940  158.9960  133.0880 C   0  0  0  0  0  0  0  0  0  0  0  0
  147.0390  159.6590  132.6020 C   0  0  0  0  0  0  0  0  0  0  0  0
  140.8170  156.4130  134.3710 C   0  0  0  0  0  0  0  0  0  0  0  0
  140.3040  156.5890  133.0790 C   0  0  0  0  0  0  0  0  0  0  0  0
  137.7748  158.2507  131.5978 H   0  0  0  0  0  0  0  0  0  0  0  0
  139.4151  158.5888  130.9483 H   0  0  0  0  0  0  0  0  0  0  0  0
  138.7778  156.9094  130.9483 H   0  0  0  0  0  0  0  0  0  0  0  0
  138.2445  159.2594  133.7749 H   0  0  0  0  0  0  0  0  0  0  0  0
  139.1666  158.8638  136.0838 H   0  0  0  0  0  0  0  0  0  0  0  0
  140.9283  157.1737  137.5704 H   0  0  0  0  0  0  0  0  0  0  0  0
  144.7090  154.1300  137.3230 H   0  0  0  0  0  0  0  0  0  0  0  0
  144.5160  155.0830  135.8170 H   0  0  0  0  0  0  0  0  0  0  0  0
  146.0648  153.9836  131.6366 H   0  0  0  0  0  0  0  0  0  0  0  0
  145.2670  151.8019  133.5952 H   0  0  0  0  0  0  0  0  0  0  0  0
  144.4044  152.0592  132.0407 H   0  0  0  0  0  0  0  0  0  0  0  0
  146.1560  151.6611  132.0407 H   0  0  0  0  0  0  0  0  0  0  0  0
  148.7181  153.4658  134.2457 H   0  0  0  0  0  0  0  0  0  0  0  0
  148.1805  152.6721  132.7266 H   0  0  0  0  0  0  0  0  0  0  0  0
  148.6043  154.4177  132.7266 H   0  0  0  0  0  0  0  0  0  0  0  0
  147.6507  157.3864  134.4633 H   0  0  0  0  0  0  0  0  0  0  0  0
  147.0683  156.2714  133.1704 H   0  0  0  0  0  0  0  0  0  0  0  0
  147.6432  159.9807  133.4631 H   0  0  0  0  0  0  0  0  0  0  0  0
  147.6181  158.9498  131.9923 H   0  0  0  0  0  0  0  0  0  0  0  0
  146.7737  160.5353  131.9923 H   0  0  0  0  0  0  0  0  0  0  0  0
  140.6093  155.9262  132.2559 H   0  0  0  0  0  0  0  0  0  0  0  0
  1  2  1  0
  2  3  2  0
  3  4  1  0
  4  5  2  0
  5  6  1  0
  6  7  2  0
  7  8  1  0
  8  9  1  0
  8 10  2  0
  7 11  1  0
 11 12  1  0
 12 13  2  0
 12 14  1  0
 14 15  1  0
 15 16  2  0
 15 17  1  0
 17 18  1  0
 17 19  1  0
 19 20  1  0
 19 21  1  0
 21 22  2  0
 21 23  1  0
 23 24  1  0
 24 25  1  0
 25 26  1  0
 26 27  1  0
 27 28  2  0
 27 29  1  0
 29 30  1  0
 30 31  1  0
 11 32  1  0
 32 33  2  0
 33  2  1  0
 32  5  1  0
 30 25  2  0
  1 34  1  0
  1 35  1  0
  1 36  1  0
  3 37  1  0
  4 38  1  0
  6 39  1  0
  9 40  1  0
  9 41  1  0
 17 42  1  6
 18 43  1  0
 18 44  1  0
 18 45  1  0
 20 46  1  0
 20 47  1  0
 20 48  1  0
 24 49  1  0
 24 50  1  0
 31 51  1  0
 31 52  1  0
 31 53  1  0
 33 54  1  0
M  END
>  <UniqueID>  (44) 
43

>  <SMILES>  (44) 
Cc1ccc2cc(C(N)=O)n(C(=O)OC(=O)[C@H](C)N(C)C(=O)OCc3oc(=O)oc3C)c2c1

>  <Energy>  (44) 
120.62592756371058

>  <Genealogy>  (44) 
Cc1ccc2cc(C(N)=O)n(C(=O)OC(=O)[C@H](C)N(C)C(=O)OCc3oc(=O)oc3C)c2c1 (chirality)
Cc1ccc2cc(C(N)=O)n(C(=O)OC(=O)[C@H](C)N(C)C(=O)OCc3oc(=O)oc3C)c2c1 (3D coordinates assigned)
Cc1ccc2cc(C(N)=O)n(C(=O)OC(=O)[C@H](C)N(C)C(=O)OCc3oc(=O)oc3C)c2c1 (optimized conformer: 120.62592756371058 kcal/mol)

>  <smiles>  (44) 
Cc1ccc2cc(C(N)=O)n(C(=O)OC(=O)C(C)N(C)C(=O)OCc3oc(=O)oc3C)c2c1

>  <score_type>  (44) 
oracle

>  <origin>  (44) 
adg

>  <m_score__min__energy>  (44) 
-7.75

>  <m_primary>  (44) 
energy

$$$$
44:0
     RDKit          3D

 40 41  0  0  0  0  0  0  0  0999 V2000
  147.6360  154.2060  134.1330 C   0  0  0  0  0  0  0  0  0  0  0  0
  148.2180  154.3020  132.7140 C   0  0  1  0  0  0  0  0  0  0  0  0
  148.9730  155.5550  132.5830 N   0  0  0  0  0  0  0  0  0  0  0  0
  148.4070  156.8730  132.7690 C   0  0  0  0  0  0  0  0  0  0  0  0
  149.2090  158.0480  132.7380 C   0  0  0  0  0  0  0  0  0  0  0  0
  148.6290  159.3180  132.9050 C   0  0  0  0  0  0  0  0  0  0  0  0
  147.2570  159.3890  133.1040 C   0  0  0  0  0  0  0  0  0  0  0  0
  146.4550  160.4840  133.3220 C   0  0  0  0  0  0  0  0  0  0  0  0
  145.1700  159.9700  133.4890 C   0  0  0  0  0  0  0  0  0  0  0  0
  143.9750  160.8260  133.6610 C   0  0  0  0  0  0  0  0  0  0  0  0
  142.6750  160.3790  133.2700 N   0  0  0  0  0  0  0  0  0  0  0  0
  144.1180  162.0060  134.0900 O   0  0  0  0  0  0  0  0  0  0  0  0
  145.1790  158.6100  133.3890 N   0  0  0  0  0  0  0  0  0  0  0  0
  144.0950  157.7070  133.6690 C   0  0  0  0  0  0  0  0  0  0  0  0
  144.1470  156.9270  134.6580 O   0  0  0  0  0  0  0  0  0  0  0  0
  142.9760  157.6840  132.8450 O   0  0  0  0  0  0  0  0  0  0  0  0
  146.4650  158.2680  133.1450 C   0  0  0  0  0  0  0  0  0  0  0  0
  147.0160  156.9910  132.9880 C   0  0  0  0  0  0  0  0  0  0  0  0
  149.1080  153.1120  132.3860 C   0  0  0  0  0  0  0  0  0  0  0  0
  150.3620  153.2230  132.5200 O   0  0  0  0  0  0  0  0  0  0  0  0
  148.5560  151.8420  131.9640 N   0  0  0  0  0  0  0  0  0  0  0  0
  149.4470  150.8580  131.3350 C   0  0  0  0  0  0  0  0  0  0  0  0
  147.1570  151.4930  132.2500 C   0  0  0  0  0  0  0  0  0  0  0  0
  148.4420  154.3390  134.8697 H   0  0  0  0  0  0  0  0  0  0  0  0
  146.8785  154.9913  134.2725 H   0  0  0  0  0  0  0  0  0  0  0  0
  147.1709  153.2190  134.2725 H   0  0  0  0  0  0  0  0  0  0  0  0
  147.3836  154.2920  131.9972 H   0  0  0  0  0  0  0  0  0  0  0  0
  149.9850  155.4900  132.3200 H   0  0  0  0  0  0  0  0  0  0  0  0
  150.2944  157.9619  132.5817 H   0  0  0  0  0  0  0  0  0  0  0  0
  149.2448  160.2291  132.8787 H   0  0  0  0  0  0  0  0  0  0  0  0
  146.7616  161.5398  133.3572 H   0  0  0  0  0  0  0  0  0  0  0  0
  142.5440  159.4870  132.7440 H   0  0  0  0  0  0  0  0  0  0  0  0
  141.8420  160.9910  133.4220 H   0  0  0  0  0  0  0  0  0  0  0  0
  146.3782  156.0960  133.0342 H   0  0  0  0  0  0  0  0  0  0  0  0
  149.9675  150.2832  132.1152 H   0  0  0  0  0  0  0  0  0  0  0  0
  148.8546  150.1741  130.7094 H   0  0  0  0  0  0  0  0  0  0  0  0
  150.1861  151.3798  130.7094 H   0  0  0  0  0  0  0  0  0  0  0  0
  147.0038  151.4548  133.3386 H   0  0  0  0  0  0  0  0  0  0  0  0
  146.4928  152.2530  131.8127 H   0  0  0  0  0  0  0  0  0  0  0  0
  146.9275  150.5101  131.8127 H   0  0  0  0  0  0  0  0  0  0  0  0
  1  2  1  0
  2  3  1  0
  3  4  1  0
  4  5  2  0
  5  6  1  0
  6  7  2  0
  7  8  1  0
  8  9  2  0
  9 10  1  0
 10 11  1  0
 10 12  2  0
  9 13  1  0
 13 14  1  0
 14 15  2  0
 14 16  1  0
 13 17  1  0
 17 18  2  0
  2 19  1  0
 19 20  2  0
 19 21  1  0
 21 22  1  0
 21 23  1  0
 18  4  1  0
 17  7  1  0
  1 24  1  0
  1 25  1  0
  1 26  1  0
  2 27  1  6
  3 28  1  0
  5 29  1  0
  6 30  1  0
  8 31  1  0
 11 32  1  0
 11 33  1  0
 18 34  1  0
 22 35  1  0
 22 36  1  0
 22 37  1  0
 23 38  1  0
 23 39  1  0
 23 40  1  0
M  CHG  1  16  -1
M  END
>  <UniqueID>  (45) 
44

>  <SMILES>  (45) 
C[C@@H](Nc1ccc2cc(C(N)=O)n(C(=O)[O-])c2c1)C(=O)N(C)C

>  <Energy>  (45) 
78.57297312146152

>  <Genealogy>  (45) 
CC(Nc1ccc2cc(C(N)=O)n(C(=O)[O-])c2c1)C(=O)N(C)C (protonated)
C[C@@H](Nc1ccc2cc(C(N)=O)n(C(=O)[O-])c2c1)C(=O)N(C)C (chirality)
C[C@@H](Nc1ccc2cc(C(N)=O)n(C(=O)[O-])c2c1)C(=O)N(C)C (3D coordinates assigned)
C[C@@H](Nc1ccc2cc(C(N)=O)n(C(=O)[O-])c2c1)C(=O)N(C)C (optimized conformer: 78.57297312146152 kcal/mol)

>  <smiles>  (45) 
CC(Nc1ccc2cc(C(N)=O)n(C(=O)O)c2c1)C(=O)N(C)C

>  <score_type>  (45) 
oracle

>  <origin>  (45) 
adg

>  <m_score__min__energy>  (45) 
-7.21

>  <m_primary>  (45) 
energy

$$$$
45:0
     RDKit          3D

 42 44  0  0  0  0  0  0  0  0999 V2000
  142.9050  160.4990  134.4840 N   0  0  0  0  0  0  0  0  0  0  0  0
  144.1450  160.8370  133.8590 C   0  0  0  0  0  0  0  0  0  0  0  0
  144.3270  162.0130  133.4460 O   0  0  0  0  0  0  0  0  0  0  0  0
  145.1880  159.8180  133.6290 C   0  0  0  0  0  0  0  0  0  0  0  0
  146.5220  160.1310  133.3840 C   0  0  0  0  0  0  0  0  0  0  0  0
  147.1430  158.9240  133.1580 C   0  0  0  0  0  0  0  0  0  0  0  0
  148.4750  158.6440  132.8770 C   0  0  0  0  0  0  0  0  0  0  0  0
  148.8490  157.2990  132.7240 C   0  0  0  0  0  0  0  0  0  0  0  0
  147.8940  156.2590  132.8630 C   0  0  0  0  0  0  0  0  0  0  0  0
  148.3250  154.8500  132.7050 C   0  0  0  0  0  0  0  0  0  0  0  0
  147.5760  153.7130  132.9630 C   0  0  0  0  0  0  0  0  0  0  0  0
  148.3980  152.6460  132.6650 C   0  0  0  0  0  0  0  0  0  0  0  0
  149.5930  153.1890  132.2440 C   0  0  0  0  0  0  0  0  0  0  0  0
  149.5180  154.5000  132.2790 O   0  0  0  0  0  0  0  0  0  0  0  0
  146.5480  156.5850  133.1560 C   0  0  0  0  0  0  0  0  0  0  0  0
  146.1980  157.9360  133.2800 C   0  0  0  0  0  0  0  0  0  0  0  0
  144.9910  158.4700  133.5730 N   0  0  0  0  0  0  0  0  0  0  0  0
  143.7850  157.7480  133.8740 C   0  0  0  0  0  0  0  0  0  0  0  0
  143.6010  157.2960  135.0370 O   0  0  0  0  0  0  0  0  0  0  0  0
  142.8310  157.5470  132.8690 O   0  0  0  0  0  0  0  0  0  0  0  0
  141.5390  158.0910  132.8600 C   0  0  0  0  0  0  0  0  0  0  0  0
  140.9110  158.2640  131.7820 O   0  0  0  0  0  0  0  0  0  0  0  0
  140.9160  158.4690  134.1310 C   0  0  0  0  0  0  0  0  0  0  0  0
  140.6040  159.6720  134.3400 O   0  0  0  0  0  0  0  0  0  0  0  0
  140.6670  157.4730  135.1300 N   0  0  0  0  0  0  0  0  0  0  0  0
  140.0530  157.7590  136.4220 C   0  0  0  0  0  0  0  0  0  0  0  0
  141.0810  158.3210  137.4020 C   0  0  0  0  0  0  0  0  0  0  0  0
  142.0740  159.0200  136.7030 O   0  0  0  0  0  0  0  0  0  0  0  0
  142.6550  159.5050  134.6820 H   0  0  0  0  0  0  0  0  0  0  0  0
  142.1950  161.2400  134.6730 H   0  0  0  0  0  0  0  0  0  0  0  0
  146.9818  161.1302  133.3733 H   0  0  0  0  0  0  0  0  0  0  0  0
  149.2146  159.4521  132.7774 H   0  0  0  0  0  0  0  0  0  0  0  0
  149.8951  157.0488  132.4936 H   0  0  0  0  0  0  0  0  0  0  0  0
  146.5398  153.6701  133.3297 H   0  0  0  0  0  0  0  0  0  0  0  0
  148.1499  151.5775  132.7468 H   0  0  0  0  0  0  0  0  0  0  0  0
  150.4747  152.6126  131.9272 H   0  0  0  0  0  0  0  0  0  0  0  0
  145.7933  155.7949  133.2836 H   0  0  0  0  0  0  0  0  0  0  0  0
  139.2479  158.4956  136.2829 H   0  0  0  0  0  0  0  0  0  0  0  0
  139.6500  156.8223  136.8344 H   0  0  0  0  0  0  0  0  0  0  0  0
  140.5802  159.0036  138.1043 H   0  0  0  0  0  0  0  0  0  0  0  0
  141.5442  157.4914  137.9562 H   0  0  0  0  0  0  0  0  0  0  0  0
  142.0640  158.6610  135.7780 H   0  0  0  0  0  0  0  0  0  0  0  0
  1  2  1  0
  2  3  2  0
  2  4  1  0
  4  5  2  0
  5  6  1  0
  6  7  2  0
  7  8  1  0
  8  9  2  0
  9 10  1  0
 10 11  2  0
 11 12  1  0
 12 13  2  0
 13 14  1  0
  9 15  1  0
 15 16  2  0
 16 17  1  0
 17 18  1  0
 18 19  2  0
 18 20  1  0
 20 21  1  0
 21 22  2  0
 21 23  1  0
 23 24  2  0
 23 25  1  0
 25 26  1  0
 26 27  1  0
 27 28  1  0
 17  4  1  0
 16  6  1  0
 14 10  1  0
  1 29  1  0
  1 30  1  0
  5 31  1  0
  7 32  1  0
  8 33  1  0
 11 34  1  0
 12 35  1  0
 13 36  1  0
 15 37  1  0
 26 38  1  0
 26 39  1  0
 27 40  1  0
 27 41  1  0
 28 42  1  0
M  CHG  1  25  -1
M  END
>  <UniqueID>  (46) 
45

>  <SMILES>  (46) 
NC(=O)c1cc2ccc(-c3ccco3)cc2n1C(=O)OC(=O)C(=O)[N-]CCO

>  <Energy>  (46) 
105.55791145333713

>  <Genealogy>  (46) 
NC(=O)c1cc2ccc(-c3ccco3)cc2n1C(=O)OC(=O)C(=O)[N-]CCO (protonated)
NC(=O)c1cc2ccc(-c3ccco3)cc2n1C(=O)OC(=O)C(=O)[N-]CCO (3D coordinates assigned)
NC(=O)c1cc2ccc(-c3ccco3)cc2n1C(=O)OC(=O)C(=O)[N-]CCO (optimized conformer: 105.55791145333713 kcal/mol)

>  <smiles>  (46) 
NC(=O)c1cc2ccc(-c3ccco3)cc2n1C(=O)OC(=O)C(=O)NCCO

>  <score_type>  (46) 
oracle

>  <origin>  (46) 
adg

>  <m_score__min__energy>  (46) 
-6.9400000000000004

>  <m_primary>  (46) 
energy

$$$$
46:0
     RDKit          3D

 45 46  0  0  0  0  0  0  0  0999 V2000
  145.1400  155.2020  134.6260 N   0  0  0  0  0  0  0  0  0  0  0  0
  144.1700  155.2450  133.5820 C   0  0  0  0  0  0  0  0  0  0  0  0
  144.0360  156.3030  132.9120 O   0  0  0  0  0  0  0  0  0  0  0  0
  143.3150  154.0640  133.3250 C   0  0  0  0  0  0  0  0  0  0  0  0
  141.9270  154.0950  133.4360 C   0  0  0  0  0  0  0  0  0  0  0  0
  141.5010  152.8450  133.0520 C   0  0  0  0  0  0  0  0  0  0  0  0
  140.2130  152.3260  132.9740 C   0  0  0  0  0  0  0  0  0  0  0  0
  140.0630  150.9910  132.5620 C   0  0  0  0  0  0  0  0  0  0  0  0
  141.1970  150.1940  132.2630 C   0  0  0  0  0  0  0  0  0  0  0  0
  141.0230  148.7730  131.7890 C   0  0  0  0  0  0  0  0  0  0  0  0
  141.7130  147.8960  132.6080 F   0  0  0  0  0  0  0  0  0  0  0  0
  139.6870  148.4120  131.7970 F   0  0  0  0  0  0  0  0  0  0  0  0
  141.5110  148.6630  130.5000 F   0  0  0  0  0  0  0  0  0  0  0  0
  142.4890  150.7650  132.3340 C   0  0  0  0  0  0  0  0  0  0  0  0
  142.6070  152.1050  132.7270 C   0  0  0  0  0  0  0  0  0  0  0  0
  143.7320  152.8390  132.8910 N   0  0  0  0  0  0  0  0  0  0  0  0
  145.0800  152.3790  132.6840 C   0  0  0  0  0  0  0  0  0  0  0  0
  145.3040  151.1600  132.4520 O   0  0  0  0  0  0  0  0  0  0  0  0
  146.1350  153.2960  132.7020 O   0  0  0  0  0  0  0  0  0  0  0  0
  147.3800  153.0320  133.3410 C   0  0  0  0  0  0  0  0  0  0  0  0
  147.9600  154.2510  133.7980 O   0  0  0  0  0  0  0  0  0  0  0  0
  148.5990  155.1500  132.9390 C   0  0  0  0  0  0  0  0  0  0  0  0
  149.7370  154.8840  132.4620 O   0  0  0  0  0  0  0  0  0  0  0  0
  147.9220  156.4500  132.5920 C   0  0  1  0  0  0  0  0  0  0  0  0
  146.4660  156.3040  132.7100 N   0  0  0  0  0  0  0  0  0  0  0  0
  148.4240  157.6040  133.4900 C   0  0  0  0  0  0  0  0  0  0  0  0
  148.2450  158.9760  132.8280 C   0  0  0  0  0  0  0  0  0  0  0  0
  146.8540  159.4820  133.0380 C   0  0  0  0  0  0  0  0  0  0  0  0
  146.6580  160.5710  133.6400 O   0  0  0  0  0  0  0  0  0  0  0  0
  145.7680  158.7310  132.6060 O   0  0  0  0  0  0  0  0  0  0  0  0
  146.0100  154.6320  134.5330 H   0  0  0  0  0  0  0  0  0  0  0  0
  141.3034  154.9405  133.7619 H   0  0  0  0  0  0  0  0  0  0  0  0
  139.3378  152.9423  133.2273 H   0  0  0  0  0  0  0  0  0  0  0  0
  139.0552  150.5597  132.4705 H   0  0  0  0  0  0  0  0  0  0  0  0
  143.3810  150.1708  132.0864 H   0  0  0  0  0  0  0  0  0  0  0  0
  147.2150  152.3629  134.1984 H   0  0  0  0  0  0  0  0  0  0  0  0
  148.0616  152.5545  132.6217 H   0  0  0  0  0  0  0  0  0  0  0  0
  148.1759  156.7021  131.5518 H   0  0  0  0  0  0  0  0  0  0  0  0
  146.1240  156.8210  133.5520 H   0  0  0  0  0  0  0  0  0  0  0  0
  145.9990  156.7080  131.8660 H   0  0  0  0  0  0  0  0  0  0  0  0
  146.2000  155.2950  132.7990 H   0  0  0  0  0  0  0  0  0  0  0  0
  147.8586  157.5899  134.4335 H   0  0  0  0  0  0  0  0  0  0  0  0
  149.4994  157.4518  133.6642 H   0  0  0  0  0  0  0  0  0  0  0  0
  148.9591  159.6867  133.2695 H   0  0  0  0  0  0  0  0  0  0  0  0
  148.4276  158.8760  131.7479 H   0  0  0  0  0  0  0  0  0  0  0  0
  1  2  1  0
  2  3  2  0
  2  4  1  0
  4  5  2  0
  5  6  1  0
  6  7  2  0
  7  8  1  0
  8  9  2  0
  9 10  1  0
 10 11  1  0
 10 12  1  0
 10 13  1  0
  9 14  1  0
 14 15  2  0
 15 16  1  0
 16 17  1  0
 17 18  2  0
 17 19  1  0
 19 20  1  0
 20 21  1  0
 21 22  1  0
 22 23  2  0
 22 24  1  0
 24 25  1  0
 24 26  1  0
 26 27  1  0
 27 28  1  0
 28 29  2  0
 28 30  1  0
 16  4  1  0
 15  6  1  0
  1 31  1  0
  5 32  1  0
  7 33  1  0
  8 34  1  0
 14 35  1  0
 20 36  1  0
 20 37  1  0
 24 38  1  6
 25 39  1  0
 25 40  1  0
 25 41  1  0
 26 42  1  0
 26 43  1  0
 27 44  1  0
 27 45  1  0
M  CHG  3   1  -1  25   1  30  -1
M  END
>  <UniqueID>  (47) 
46

>  <SMILES>  (47) 
[NH-]C(=O)c1cc2ccc(C(F)(F)F)cc2n1C(=O)OCOC(=O)[C@@H]([NH3+])CCC(=O)[O-]

>  <Energy>  (47) 
74.32315729660853

>  <Genealogy>  (47) 
[NH-]C(=O)c1cc2ccc(C(F)(F)F)cc2n1C(=O)OCOC(=O)[C@@H]([NH3+])CCC(=O)[O-] (protonated)
[NH-]C(=O)c1cc2ccc(C(F)(F)F)cc2n1C(=O)OCOC(=O)[C@@H]([NH3+])CCC(=O)[O-] (3D coordinates assigned)
[NH-]C(=O)c1cc2ccc(C(F)(F)F)cc2n1C(=O)OCOC(=O)[C@@H]([NH3+])CCC(=O)[O-] (optimized conformer: 74.32315729660853 kcal/mol)

>  <smiles>  (47) 
NC(=O)c1cc2ccc(C(F)(F)F)cc2n1C(=O)OCOC(=O)[C@@H](N)CCC(=O)O

>  <score_type>  (47) 
oracle

>  <origin>  (47) 
adg

>  <m_score__min__energy>  (47) 
-5.2400000000000002

>  <m_primary>  (47) 
energy

$$$$
47:0
     RDKit          3D

 30 31  0  0  0  0  0  0  0  0999 V2000
  142.5760  161.0960  133.7130 N   0  0  0  0  0  0  0  0  0  0  0  0
  143.9750  161.3640  133.7340 C   0  0  0  0  0  0  0  0  0  0  0  0
  144.3730  162.5570  133.8070 O   0  0  0  0  0  0  0  0  0  0  0  0
  144.9610  160.2690  133.6150 C   0  0  0  0  0  0  0  0  0  0  0  0
  146.3210  160.4850  133.4010 C   0  0  0  0  0  0  0  0  0  0  0  0
  146.8720  159.2320  133.2600 C   0  0  0  0  0  0  0  0  0  0  0  0
  148.1940  158.8550  133.0510 C   0  0  0  0  0  0  0  0  0  0  0  0
  148.4840  157.4830  132.9810 C   0  0  0  0  0  0  0  0  0  0  0  0
  147.4540  156.5140  133.1110 C   0  0  0  0  0  0  0  0  0  0  0  0
  147.7880  155.0450  133.0990 C   0  0  0  0  0  0  0  0  0  0  0  0
  148.0770  154.6320  134.3870 F   0  0  0  0  0  0  0  0  0  0  0  0
  146.7220  154.3050  132.6170 F   0  0  0  0  0  0  0  0  0  0  0  0
  148.8850  154.7990  132.2910 F   0  0  0  0  0  0  0  0  0  0  0  0
  146.1270  156.9390  133.3480 C   0  0  0  0  0  0  0  0  0  0  0  0
  145.8640  158.3140  133.3940 C   0  0  0  0  0  0  0  0  0  0  0  0
  144.6840  158.9350  133.6160 N   0  0  0  0  0  0  0  0  0  0  0  0
  143.4260  158.2950  133.8820 C   0  0  0  0  0  0  0  0  0  0  0  0
  143.2170  157.7730  135.0120 O   0  0  0  0  0  0  0  0  0  0  0  0
  142.4550  158.2360  132.8730 O   0  0  0  0  0  0  0  0  0  0  0  0
  141.1400  158.7050  132.9910 C   0  0  0  0  0  0  0  0  0  0  0  0
  140.7060  159.6100  132.2260 O   0  0  0  0  0  0  0  0  0  0  0  0
  140.3190  158.1440  133.9780 O   0  0  0  0  0  0  0  0  0  0  0  0
  140.1890  158.6290  135.2850 C   0  0  0  0  0  0  0  0  0  0  0  0
  139.3230  158.1690  136.0750 O   0  0  0  0  0  0  0  0  0  0  0  0
  141.0340  159.6420  135.7180 O   0  0  0  0  0  0  0  0  0  0  0  0
  142.2070  160.1430  133.9250 H   0  0  0  0  0  0  0  0  0  0  0  0
  146.8432  161.4520  133.3546 H   0  0  0  0  0  0  0  0  0  0  0  0
  148.9882  159.6085  132.9438 H   0  0  0  0  0  0  0  0  0  0  0  0
  149.5219  157.1546  132.8235 H   0  0  0  0  0  0  0  0  0  0  0  0
  145.3192  156.2066  133.4930 H   0  0  0  0  0  0  0  0  0  0  0  0
  1  2  1  0
  2  3  2  0
  2  4  1  0
  4  5  2  0
  5  6  1  0
  6  7  2  0
  7  8  1  0
  8  9  2  0
  9 10  1  0
 10 11  1  0
 10 12  1  0
 10 13  1  0
  9 14  1  0
 14 15  2  0
 15 16  1  0
 16 17  1  0
 17 18  2  0
 17 19  1  0
 19 20  1  0
 20 21  2  0
 20 22  1  0
 22 23  1  0
 23 24  2  0
 23 25  1  0
 16  4  1  0
 15  6  1  0
  1 26  1  0
  5 27  1  0
  7 28  1  0
  8 29  1  0
 14 30  1  0
M  CHG  2   1  -1  25  -1
M  END
>  <UniqueID>  (48) 
47

>  <SMILES>  (48) 
[NH-]C(=O)c1cc2ccc(C(F)(F)F)cc2n1C(=O)OC(=O)OC(=O)[O-]

>  <Energy>  (48) 
72.70338082667763

>  <Genealogy>  (48) 
[NH-]C(=O)c1cc2ccc(C(F)(F)F)cc2n1C(=O)OC(=O)OC(=O)[O-] (protonated)
[NH-]C(=O)c1cc2ccc(C(F)(F)F)cc2n1C(=O)OC(=O)OC(=O)[O-] (3D coordinates assigned)
[NH-]C(=O)c1cc2ccc(C(F)(F)F)cc2n1C(=O)OC(=O)OC(=O)[O-] (optimized conformer: 72.70338082667763 kcal/mol)

>  <smiles>  (48) 
NC(=O)c1cc2ccc(C(F)(F)F)cc2n1C(=O)OC(=O)OC(=O)O

>  <score_type>  (48) 
oracle

>  <origin>  (48) 
adg

>  <m_score__min__energy>  (48) 
-5.75

>  <m_primary>  (48) 
energy

$$$$
48:0
     RDKit          3D

 26 27  0  0  0  0  0  0  0  0999 V2000
  141.2170  160.8590  133.8290 N   0  0  0  0  0  0  0  0  0  0  0  0
  142.0950  160.0920  134.6490 C   0  0  0  0  0  0  0  0  0  0  0  0
  141.7130  159.7380  135.7950 O   0  0  0  0  0  0  0  0  0  0  0  0
  143.4310  159.6840  134.1630 C   0  0  0  0  0  0  0  0  0  0  0  0
  143.8200  158.3550  133.9960 C   0  0  0  0  0  0  0  0  0  0  0  0
  145.0990  158.4100  133.4900 C   0  0  0  0  0  0  0  0  0  0  0  0
  145.9700  157.3830  133.1440 C   0  0  0  0  0  0  0  0  0  0  0  0
  147.2460  157.7330  132.6680 C   0  0  0  0  0  0  0  0  0  0  0  0
  147.6370  159.0940  132.5750 C   0  0  0  0  0  0  0  0  0  0  0  0
  148.9940  159.4580  132.0280 C   0  0  0  0  0  0  0  0  0  0  0  0
  149.2300  158.7330  130.8760 F   0  0  0  0  0  0  0  0  0  0  0  0
  149.9850  159.1720  132.9520 F   0  0  0  0  0  0  0  0  0  0  0  0
  149.0560  160.8090  131.7320 F   0  0  0  0  0  0  0  0  0  0  0  0
  146.7140  160.1090  132.9190 C   0  0  0  0  0  0  0  0  0  0  0  0
  145.4450  159.7300  133.3700 C   0  0  0  0  0  0  0  0  0  0  0  0
  144.4300  160.5250  133.7720 N   0  0  0  0  0  0  0  0  0  0  0  0
  144.4530  161.9570  133.8530 C   0  0  0  0  0  0  0  0  0  0  0  0
  143.5090  162.6240  133.3520 O   0  0  0  0  0  0  0  0  0  0  0  0
  145.5670  162.6580  134.5080 C   0  0  0  0  0  0  0  0  0  0  0  0
  146.6120  162.9340  133.8630 O   0  0  0  0  0  0  0  0  0  0  0  0
  145.4650  163.0330  135.8410 O   0  0  0  0  0  0  0  0  0  0  0  0
  141.5480  161.7250  133.3500 H   0  0  0  0  0  0  0  0  0  0  0  0
  143.2300  157.4542  134.2209 H   0  0  0  0  0  0  0  0  0  0  0  0
  145.6701  156.3290  133.2397 H   0  0  0  0  0  0  0  0  0  0  0  0
  147.9488  156.9432  132.3644 H   0  0  0  0  0  0  0  0  0  0  0  0
  146.9874  161.1711  132.8340 H   0  0  0  0  0  0  0  0  0  0  0  0
  1  2  1  0
  2  3  2  0
  2  4  1  0
  4  5  2  0
  5  6  1  0
  6  7  2  0
  7  8  1  0
  8  9  2  0
  9 10  1  0
 10 11  1  0
 10 12  1  0
 10 13  1  0
  9 14  1  0
 14 15  2  0
 15 16  1  0
 16 17  1  0
 17 18  2  0
 17 19  1  0
 19 20  2  0
 19 21  1  0
 16  4  1  0
 15  6  1  0
  1 22  1  0
  5 23  1  0
  7 24  1  0
  8 25  1  0
 14 26  1  0
M  CHG  2   1  -1  21  -1
M  END
>  <UniqueID>  (49) 
48

>  <SMILES>  (49) 
[NH-]C(=O)c1cc2ccc(C(F)(F)F)cc2n1C(=O)C(=O)[O-]

>  <Energy>  (49) 
66.74022536557983

>  <Genealogy>  (49) 
[NH-]C(=O)c1cc2ccc(C(F)(F)F)cc2n1C(=O)C(=O)[O-] (protonated)
[NH-]C(=O)c1cc2ccc(C(F)(F)F)cc2n1C(=O)C(=O)[O-] (3D coordinates assigned)
[NH-]C(=O)c1cc2ccc(C(F)(F)F)cc2n1C(=O)C(=O)[O-] (optimized conformer: 66.74022536557983 kcal/mol)

>  <smiles>  (49) 
NC(=O)c1cc2ccc(C(F)(F)F)cc2n1C(=O)C(=O)O

>  <score_type>  (49) 
oracle

>  <origin>  (49) 
adg

>  <m_score__min__energy>  (49) 
-5.3099999999999996

>  <m_primary>  (49) 
energy

$$$$
49:0
     RDKit          3D

 39 40  0  0  0  0  0  0  0  0999 V2000
  149.2560  161.4570  130.6690 C   0  0  0  0  0  0  0  0  0  0  0  0
  148.7910  160.2900  131.1280 C   0  0  0  0  0  0  0  0  0  0  0  0
  149.2390  159.0140  130.4850 C   0  0  0  0  0  0  0  0  0  0  0  0
  147.9490  160.2090  132.2480 O   0  0  0  0  0  0  0  0  0  0  0  0
  147.9860  159.2020  133.2240 C   0  0  0  0  0  0  0  0  0  0  0  0
  148.8760  159.2090  134.1180 O   0  0  0  0  0  0  0  0  0  0  0  0
  146.9720  158.1850  133.2330 N   0  0  0  0  0  0  0  0  0  0  0  0
  145.6430  158.3350  133.4960 C   0  0  0  0  0  0  0  0  0  0  0  0
  144.9350  159.6200  133.6650 C   0  0  0  0  0  0  0  0  0  0  0  0
  145.4990  160.8440  133.1920 N   0  0  0  0  0  0  0  0  0  0  0  0
  143.7870  159.6300  134.1850 O   0  0  0  0  0  0  0  0  0  0  0  0
  145.0050  157.0990  133.5380 C   0  0  0  0  0  0  0  0  0  0  0  0
  145.9900  156.1740  133.2780 C   0  0  0  0  0  0  0  0  0  0  0  0
  145.9190  154.7850  133.2200 C   0  0  0  0  0  0  0  0  0  0  0  0
  147.1060  154.0740  132.9750 C   0  0  0  0  0  0  0  0  0  0  0  0
  148.3330  154.7600  132.7960 C   0  0  0  0  0  0  0  0  0  0  0  0
  149.6050  153.9860  132.5880 C   0  0  0  0  0  0  0  0  0  0  0  0
  149.3400  152.5220  132.7270 C   0  0  0  0  0  0  0  0  0  0  0  0
  149.2790  152.0030  133.8750 O   0  0  0  0  0  0  0  0  0  0  0  0
  149.1170  151.7520  131.5820 O   0  0  0  0  0  0  0  0  0  0  0  0
  150.0120  150.7310  131.1600 C   0  0  0  0  0  0  0  0  0  0  0  0
  148.3700  156.1690  132.8750 C   0  0  0  0  0  0  0  0  0  0  0  0
  147.1680  156.8540  133.0980 C   0  0  0  0  0  0  0  0  0  0  0  0
  148.9326  162.3995  131.1350 H   0  0  0  0  0  0  0  0  0  0  0  0
  149.9619  161.4743  129.8255 H   0  0  0  0  0  0  0  0  0  0  0  0
  149.4962  158.2814  131.2642 H   0  0  0  0  0  0  0  0  0  0  0  0
  148.4275  158.6141  129.8592 H   0  0  0  0  0  0  0  0  0  0  0  0
  150.1224  159.2092  129.8592 H   0  0  0  0  0  0  0  0  0  0  0  0
  146.3650  160.8480  132.6080 H   0  0  0  0  0  0  0  0  0  0  0  0
  145.0020  161.7470  133.3550 H   0  0  0  0  0  0  0  0  0  0  0  0
  143.9409  156.9033  133.7366 H   0  0  0  0  0  0  0  0  0  0  0  0
  144.9628  154.2600  133.3616 H   0  0  0  0  0  0  0  0  0  0  0  0
  147.0826  152.9755  132.9217 H   0  0  0  0  0  0  0  0  0  0  0  0
  149.9960  154.1915  131.5806 H   0  0  0  0  0  0  0  0  0  0  0  0
  150.3427  154.2931  133.3439 H   0  0  0  0  0  0  0  0  0  0  0  0
  150.4457  150.2362  132.0415 H   0  0  0  0  0  0  0  0  0  0  0  0
  149.4660  149.9914  130.5560 H   0  0  0  0  0  0  0  0  0  0  0  0
  150.8167  151.1755  130.5560 H   0  0  0  0  0  0  0  0  0  0  0  0
  149.3183  156.7153  132.7643 H   0  0  0  0  0  0  0  0  0  0  0  0
  1  2  2  0
  2  3  1  0
  2  4  1  0
  4  5  1  0
  5  6  2  0
  5  7  1  0
  7  8  1  0
  8  9  1  0
  9 10  1  0
  9 11  2  0
  8 12  2  0
 12 13  1  0
 13 14  2  0
 14 15  1  0
 15 16  2  0
 16 17  1  0
 17 18  1  0
 18 19  2  0
 18 20  1  0
 20 21  1  0
 16 22  1  0
 22 23  2  0
 23  7  1  0
 23 13  1  0
  1 24  1  0
  1 25  1  0
  3 26  1  0
  3 27  1  0
  3 28  1  0
 10 29  1  0
 10 30  1  0
 12 31  1  0
 14 32  1  0
 15 33  1  0
 17 34  1  0
 17 35  1  0
 21 36  1  0
 21 37  1  0
 21 38  1  0
 22 39  1  0
M  END
>  <UniqueID>  (50) 
49

>  <SMILES>  (50) 
C=C(C)OC(=O)n1c(C(N)=O)cc2ccc(CC(=O)OC)cc21

>  <Energy>  (50) 
76.39008230936616

>  <Genealogy>  (50) 
C=C(C)OC(=O)n1c(C(N)=O)cc2ccc(CC(=O)OC)cc21 (3D coordinates assigned)
C=C(C)OC(=O)n1c(C(N)=O)cc2ccc(CC(=O)OC)cc21 (optimized conformer: 76.39008230936616 kcal/mol)

>  <smiles>  (50) 
C=C(C)OC(=O)n1c(C(N)=O)cc2ccc(CC(=O)OC)cc21

>  <score_type>  (50) 
oracle

>  <origin>  (50) 
adg

>  <m_score__min__energy>  (50) 
-7.1500000000000004

>  <m_primary>  (50) 
energy

$$$$
50:0
     RDKit          3D

 42 44  0  0  0  0  0  0  0  0999 V2000
  148.4840  161.1750  131.1390 C   0  0  0  0  0  0  0  0  0  0  0  0
  148.7430  159.7760  131.5030 N   0  0  0  0  0  0  0  0  0  0  0  0
  150.0100  159.1590  131.0870 C   0  0  0  0  0  0  0  0  0  0  0  0
  147.7650  159.0160  132.2620 C   0  0  0  0  0  0  0  0  0  0  0  0
  146.5710  159.6330  132.7330 C   0  0  0  0  0  0  0  0  0  0  0  0
  145.6250  158.9100  133.4790 C   0  0  0  0  0  0  0  0  0  0  0  0
  145.8830  157.5690  133.7360 C   0  0  0  0  0  0  0  0  0  0  0  0
  145.1530  156.6480  134.4530 C   0  0  0  0  0  0  0  0  0  0  0  0
  145.8920  155.4670  134.3960 C   0  0  0  0  0  0  0  0  0  0  0  0
  145.4370  154.1890  134.9830 C   0  0  0  0  0  0  0  0  0  0  0  0
  145.5820  153.9590  136.3820 N   0  0  0  0  0  0  0  0  0  0  0  0
  144.8940  153.3080  134.2670 O   0  0  0  0  0  0  0  0  0  0  0  0
  147.0330  155.6550  133.6760 N   0  0  0  0  0  0  0  0  0  0  0  0
  148.0820  154.7070  133.4230 C   0  0  0  0  0  0  0  0  0  0  0  0
  149.1670  155.0990  132.9160 O   0  0  0  0  0  0  0  0  0  0  0  0
  147.8950  153.3260  133.7700 N   0  0  0  0  0  0  0  0  0  0  0  0
  148.7260  152.2490  133.3140 C   0  0  0  0  0  0  0  0  0  0  0  0
  148.6060  151.5360  132.1360 C   0  0  0  0  0  0  0  0  0  0  0  0
  149.6310  150.6160  132.2250 C   0  0  0  0  0  0  0  0  0  0  0  0
  149.9970  149.6070  131.1840 C   0  0  0  0  0  0  0  0  0  0  0  0
  150.7230  150.2730  130.0600 C   0  0  0  0  0  0  0  0  0  0  0  0
  150.2660  151.3290  129.5470 O   0  0  0  0  0  0  0  0  0  0  0  0
  151.8790  149.7010  129.5440 O   0  0  0  0  0  0  0  0  0  0  0  0
  150.3110  150.7930  133.3760 N   0  0  0  0  0  0  0  0  0  0  0  0
  149.7340  151.7750  134.0060 O   0  0  0  0  0  0  0  0  0  0  0  0
  147.0120  156.9460  133.2800 C   0  0  0  0  0  0  0  0  0  0  0  0
  147.9830  157.6450  132.5540 C   0  0  0  0  0  0  0  0  0  0  0  0
  148.3725  161.7770  132.0529 H   0  0  0  0  0  0  0  0  0  0  0  0
  149.3259  161.5614  130.5458 H   0  0  0  0  0  0  0  0  0  0  0  0
  147.5596  161.2344  130.5458 H   0  0  0  0  0  0  0  0  0  0  0  0
  150.5901  158.8765  131.9779 H   0  0  0  0  0  0  0  0  0  0  0  0
  149.8009  158.2618  130.4859 H   0  0  0  0  0  0  0  0  0  0  0  0
  150.5874  159.8768  130.4859 H   0  0  0  0  0  0  0  0  0  0  0  0
  146.3862  160.6939  132.5089 H   0  0  0  0  0  0  0  0  0  0  0  0
  144.7075  159.3912  133.8486 H   0  0  0  0  0  0  0  0  0  0  0  0
  144.1915  156.8094  134.9624 H   0  0  0  0  0  0  0  0  0  0  0  0
  145.0790  154.5520  137.0790 H   0  0  0  0  0  0  0  0  0  0  0  0
  147.1080  153.0860  134.4130 H   0  0  0  0  0  0  0  0  0  0  0  0
  147.8734  151.6691  131.3263 H   0  0  0  0  0  0  0  0  0  0  0  0
  150.6451  148.8396  131.6324 H   0  0  0  0  0  0  0  0  0  0  0  0
  149.0800  149.1400  130.7954 H   0  0  0  0  0  0  0  0  0  0  0  0
  148.8997  157.1399  132.2155 H   0  0  0  0  0  0  0  0  0  0  0  0
  1  2  1  0
  2  3  1  0
  2  4  1  0
  4  5  2  0
  5  6  1  0
  6  7  2  0
  7  8  1  0
  8  9  2  0
  9 10  1  0
 10 11  1  0
 10 12  2  0
  9 13  1  0
 13 14  1  0
 14 15  2  0
 14 16  1  0
 16 17  1  0
 17 18  2  0
 18 19  1  0
 19 20  1  0
 20 21  1  0
 21 22  2  0
 21 23  1  0
 19 24  2  0
 24 25  1  0
 13 26  1  0
 26 27  2  0
 27  4  1  0
 26  7  1  0
 25 17  1  0
  1 28  1  0
  1 29  1  0
  1 30  1  0
  3 31  1  0
  3 32  1  0
  3 33  1  0
  5 34  1  0
  6 35  1  0
  8 36  1  0
 11 37  1  0
 16 38  1  0
 18 39  1  0
 20 40  1  0
 20 41  1  0
 27 42  1  0
M  CHG  2  11  -1  23  -1
M  END
>  <UniqueID>  (51) 
50

>  <SMILES>  (51) 
CN(C)c1ccc2cc(C([NH-])=O)n(C(=O)Nc3cc(CC(=O)[O-])no3)c2c1

>  <Energy>  (51) 
114.2259363949705

>  <Genealogy>  (51) 
CN(C)c1ccc2cc(C([NH-])=O)n(C(=O)Nc3cc(CC(=O)[O-])no3)c2c1 (protonated)
CN(C)c1ccc2cc(C([NH-])=O)n(C(=O)Nc3cc(CC(=O)[O-])no3)c2c1 (3D coordinates assigned)
CN(C)c1ccc2cc(C([NH-])=O)n(C(=O)Nc3cc(CC(=O)[O-])no3)c2c1 (optimized conformer: 114.2259363949705 kcal/mol)

>  <smiles>  (51) 
CN(C)c1ccc2cc(C(N)=O)n(C(=O)Nc3cc(CC(=O)O)no3)c2c1

>  <score_type>  (51) 
oracle

>  <origin>  (51) 
adg

>  <m_score__min__energy>  (51) 
-7.9900000000000002

>  <m_primary>  (51) 
energy

$$$$
51:0
     RDKit          3D

 40 41  0  0  0  0  0  0  0  0999 V2000
  140.4750  158.5650  136.7800 C   0  0  0  0  0  0  0  0  0  0  0  0
  139.4730  157.8960  135.8480 C   0  0  0  0  0  0  0  0  0  0  0  0
  139.5220  158.4860  134.5500 O   0  0  0  0  0  0  0  0  0  0  0  0
  139.1710  157.8030  133.3800 C   0  0  0  0  0  0  0  0  0  0  0  0
  138.3060  158.2740  132.5920 O   0  0  0  0  0  0  0  0  0  0  0  0
  139.8690  156.5250  133.0390 C   0  0  0  0  0  0  0  0  0  0  0  0
  141.1630  156.4530  133.7150 N   0  0  0  0  0  0  0  0  0  0  0  0
  142.1940  157.4160  133.4550 C   0  0  0  0  0  0  0  0  0  0  0  0
  141.9990  158.3370  132.6170 O   0  0  0  0  0  0  0  0  0  0  0  0
  143.4900  157.3360  134.1560 C   0  0  0  0  0  0  0  0  0  0  0  0
  143.6830  156.4390  135.0210 O   0  0  0  0  0  0  0  0  0  0  0  0
  144.5560  158.2400  133.8300 N   0  0  0  0  0  0  0  0  0  0  0  0
  144.5100  159.5990  133.7380 C   0  0  0  0  0  0  0  0  0  0  0  0
  143.3530  160.4520  134.0840 C   0  0  0  0  0  0  0  0  0  0  0  0
  142.2820  159.9510  134.8790 N   0  0  0  0  0  0  0  0  0  0  0  0
  143.3260  161.6520  133.7010 O   0  0  0  0  0  0  0  0  0  0  0  0
  145.7470  160.1020  133.3380 C   0  0  0  0  0  0  0  0  0  0  0  0
  146.5600  158.9980  133.1960 C   0  0  0  0  0  0  0  0  0  0  0  0
  147.8990  158.9110  132.8280 C   0  0  0  0  0  0  0  0  0  0  0  0
  148.4810  157.6340  132.7600 C   0  0  0  0  0  0  0  0  0  0  0  0
  147.7160  156.4710  133.0380 C   0  0  0  0  0  0  0  0  0  0  0  0
  148.3610  155.1080  133.0030 C   0  0  0  0  0  0  0  0  0  0  0  0
  149.6240  155.1750  132.4410 F   0  0  0  0  0  0  0  0  0  0  0  0
  147.5990  154.2310  132.2500 F   0  0  0  0  0  0  0  0  0  0  0  0
  148.4670  154.6210  134.2920 F   0  0  0  0  0  0  0  0  0  0  0  0
  146.3650  156.6050  133.4320 C   0  0  0  0  0  0  0  0  0  0  0  0
  145.8170  157.8890  133.5010 C   0  0  0  0  0  0  0  0  0  0  0  0
  140.1885  158.3737  137.8246 H   0  0  0  0  0  0  0  0  0  0  0  0
  141.4788  158.1553  136.5942 H   0  0  0  0  0  0  0  0  0  0  0  0
  140.4814  159.6492  136.5942 H   0  0  0  0  0  0  0  0  0  0  0  0
  139.7131  156.8255  135.7677 H   0  0  0  0  0  0  0  0  0  0  0  0
  138.4619  158.0297  136.2600 H   0  0  0  0  0  0  0  0  0  0  0  0
  139.2463  155.6761  133.3577 H   0  0  0  0  0  0  0  0  0  0  0  0
  140.0327  156.4878  131.9519 H   0  0  0  0  0  0  0  0  0  0  0  0
  141.3420  155.6920  134.4100 H   0  0  0  0  0  0  0  0  0  0  0  0
  141.5020  159.4070  134.4500 H   0  0  0  0  0  0  0  0  0  0  0  0
  146.0168  161.1553  133.1712 H   0  0  0  0  0  0  0  0  0  0  0  0
  148.4837  159.8138  132.5975 H   0  0  0  0  0  0  0  0  0  0  0  0
  149.5422  157.5342  132.4881 H   0  0  0  0  0  0  0  0  0  0  0  0
  145.7597  155.7202  133.6783 H   0  0  0  0  0  0  0  0  0  0  0  0
  1  2  1  0
  2  3  1  0
  3  4  1  0
  4  5  2  0
  4  6  1  0
  6  7  1  0
  7  8  1  0
  8  9  2  0
  8 10  1  0
 10 11  2  0
 10 12  1  0
 12 13  1  0
 13 14  1  0
 14 15  1  0
 14 16  2  0
 13 17  2  0
 17 18  1  0
 18 19  2  0
 19 20  1  0
 20 21  2  0
 21 22  1  0
 22 23  1  0
 22 24  1  0
 22 25  1  0
 21 26  1  0
 26 27  2  0
 27 12  1  0
 27 18  1  0
  1 28  1  0
  1 29  1  0
  1 30  1  0
  2 31  1  0
  2 32  1  0
  6 33  1  0
  6 34  1  0
  7 35  1  0
 15 36  1  0
 17 37  1  0
 19 38  1  0
 20 39  1  0
 26 40  1  0
M  CHG  1  15  -1
M  END
>  <UniqueID>  (52) 
51

>  <SMILES>  (52) 
CCOC(=O)CNC(=O)C(=O)n1c(C([NH-])=O)cc2ccc(C(F)(F)F)cc21

>  <Energy>  (52) 
73.27390531203028

>  <Genealogy>  (52) 
CCOC(=O)CNC(=O)C(=O)n1c(C([NH-])=O)cc2ccc(C(F)(F)F)cc21 (protonated)
CCOC(=O)CNC(=O)C(=O)n1c(C([NH-])=O)cc2ccc(C(F)(F)F)cc21 (3D coordinates assigned)
CCOC(=O)CNC(=O)C(=O)n1c(C([NH-])=O)cc2ccc(C(F)(F)F)cc21 (optimized conformer: 73.27390531203028 kcal/mol)

>  <smiles>  (52) 
CCOC(=O)CNC(=O)C(=O)n1c(C(N)=O)cc2ccc(C(F)(F)F)cc21

>  <score_type>  (52) 
oracle

>  <origin>  (52) 
adg

>  <m_score__min__energy>  (52) 
-6.2999999999999998

>  <m_primary>  (52) 
energy

$$$$
52:0
     RDKit          3D

 45 47  0  0  0  0  0  0  0  0999 V2000
  140.9920  158.9370  137.3950 C   0  0  0  0  0  0  0  0  0  0  0  0
  140.7910  157.5410  137.3320 O   0  0  0  0  0  0  0  0  0  0  0  0
  141.8820  156.9140  136.6850 C   0  0  0  0  0  0  0  0  0  0  0  0
  141.4190  155.6440  135.9800 C   0  0  0  0  0  0  0  0  0  0  0  0
  141.1270  155.9410  134.6190 O   0  0  0  0  0  0  0  0  0  0  0  0
  142.0380  156.5710  133.7670 C   0  0  0  0  0  0  0  0  0  0  0  0
  142.7510  155.8880  132.9810 O   0  0  0  0  0  0  0  0  0  0  0  0
  142.1340  158.0040  133.7630 N   0  0  0  0  0  0  0  0  0  0  0  0
  141.1300  158.9160  133.9090 C   0  0  0  0  0  0  0  0  0  0  0  0
  139.6840  158.6180  133.9470 C   0  0  0  0  0  0  0  0  0  0  0  0
  139.1020  157.9380  135.0560 N   0  0  0  0  0  0  0  0  0  0  0  0
  138.9580  158.9250  132.9640 O   0  0  0  0  0  0  0  0  0  0  0  0
  141.6460  160.2100  133.9330 C   0  0  0  0  0  0  0  0  0  0  0  0
  143.0060  160.0640  133.7840 C   0  0  0  0  0  0  0  0  0  0  0  0
  144.0120  161.0250  133.7500 C   0  0  0  0  0  0  0  0  0  0  0  0
  145.3400  160.5840  133.6140 C   0  0  0  0  0  0  0  0  0  0  0  0
  145.6390  159.2010  133.5200 C   0  0  0  0  0  0  0  0  0  0  0  0
  147.0040  158.7550  133.4020 N   0  0  0  0  0  0  0  0  0  0  0  0
  147.3110  157.3200  133.3910 C   0  0  0  0  0  0  0  0  0  0  0  0
  148.7450  157.0910  132.9070 C   0  0  0  0  0  0  0  0  0  0  0  0
  149.0380  157.9970  131.8640 O   0  0  0  0  0  0  0  0  0  0  0  0
  149.2010  159.3090  132.3820 C   0  0  0  0  0  0  0  0  0  0  0  0
  148.1100  159.7200  133.4000 C   0  0  0  0  0  0  0  0  0  0  0  0
  144.5890  158.2570  133.5720 C   0  0  0  0  0  0  0  0  0  0  0  0
  143.2750  158.7240  133.6840 C   0  0  0  0  0  0  0  0  0  0  0  0
  141.0376  159.2537  138.4474 H   0  0  0  0  0  0  0  0  0  0  0  0
  141.9365  159.1945  136.8933 H   0  0  0  0  0  0  0  0  0  0  0  0
  140.1585  159.4505  136.8933 H   0  0  0  0  0  0  0  0  0  0  0  0
  142.3105  157.6049  135.9440 H   0  0  0  0  0  0  0  0  0  0  0  0
  142.6407  156.6502  137.4365 H   0  0  0  0  0  0  0  0  0  0  0  0
  142.2148  154.8861  136.0281 H   0  0  0  0  0  0  0  0  0  0  0  0
  140.5160  155.2565  136.4744 H   0  0  0  0  0  0  0  0  0  0  0  0
  139.6160  157.1750  135.5480 H   0  0  0  0  0  0  0  0  0  0  0  0
  141.0850  161.1493  134.0469 H   0  0  0  0  0  0  0  0  0  0  0  0
  143.7754  162.0965  133.8272 H   0  0  0  0  0  0  0  0  0  0  0  0
  146.1565  161.3203  133.5801 H   0  0  0  0  0  0  0  0  0  0  0  0
  147.2021  156.9171  134.4088 H   0  0  0  0  0  0  0  0  0  0  0  0
  146.6156  156.8089  132.7090 H   0  0  0  0  0  0  0  0  0  0  0  0
  149.4440  157.2526  133.7408 H   0  0  0  0  0  0  0  0  0  0  0  0
  148.8482  156.0599  132.5380 H   0  0  0  0  0  0  0  0  0  0  0  0
  150.1796  159.3655  132.8811 H   0  0  0  0  0  0  0  0  0  0  0  0
  149.1212  160.0012  131.5308 H   0  0  0  0  0  0  0  0  0  0  0  0
  148.5534  159.7614  134.4058 H   0  0  0  0  0  0  0  0  0  0  0  0
  147.7153  160.7057  133.1127 H   0  0  0  0  0  0  0  0  0  0  0  0
  144.8001  157.1785  133.5254 H   0  0  0  0  0  0  0  0  0  0  0  0
  1  2  1  0
  2  3  1  0
  3  4  1  0
  4  5  1  0
  5  6  1  0
  6  7  2  0
  6  8  1  0
  8  9  1  0
  9 10  1  0
 10 11  1  0
 10 12  2  0
  9 13  2  0
 13 14  1  0
 14 15  2  0
 15 16  1  0
 16 17  2  0
 17 18  1  0
 18 19  1  0
 19 20  1  0
 20 21  1  0
 21 22  1  0
 22 23  1  0
 17 24  1  0
 24 25  2  0
 25  8  1  0
 25 14  1  0
 23 18  1  0
  1 26  1  0
  1 27  1  0
  1 28  1  0
  3 29  1  0
  3 30  1  0
  4 31  1  0
  4 32  1  0
 11 33  1  0
 13 34  1  0
 15 35  1  0
 16 36  1  0
 19 37  1  0
 19 38  1  0
 20 39  1  0
 20 40  1  0
 22 41  1  0
 22 42  1  0
 23 43  1  0
 23 44  1  0
 24 45  1  0
M  CHG  1  11  -1
M  END
>  <UniqueID>  (53) 
52

>  <SMILES>  (53) 
COCCOC(=O)n1c(C([NH-])=O)cc2ccc(N3CCOCC3)cc21

>  <Energy>  (53) 
93.35676425492841

>  <Genealogy>  (53) 
COCCOC(=O)n1c(C([NH-])=O)cc2ccc(N3CCOCC3)cc21 (protonated)
COCCOC(=O)n1c(C([NH-])=O)cc2ccc(N3CCOCC3)cc21 (3D coordinates assigned)
COCCOC(=O)n1c(C([NH-])=O)cc2ccc(N3CCOCC3)cc21 (nonaromatic ring conformer: 93.35676425492841 kcal/mol)

>  <smiles>  (53) 
COCCOC(=O)n1c(C(N)=O)cc2ccc(N3CCOCC3)cc21

>  <score_type>  (53) 
oracle

>  <origin>  (53) 
adg

>  <m_score__min__energy>  (53) 
-6.6100000000000003

>  <m_primary>  (53) 
energy

$$$$
53:0
     RDKit          3D

 43 44  0  0  0  0  0  0  0  0999 V2000
  149.6170  150.9920  133.8050 C   0  0  0  0  0  0  0  0  0  0  0  0
  148.9830  151.6340  132.5560 C   0  0  0  0  0  0  0  0  0  0  0  0
  147.6720  150.8900  132.2200 C   0  0  0  0  0  0  0  0  0  0  0  0
  149.9530  151.5120  131.3670 C   0  0  0  0  0  0  0  0  0  0  0  0
  148.7270  153.1030  132.8280 C   0  0  0  0  0  0  0  0  0  0  0  0
  149.3690  153.9980  132.2100 O   0  0  0  0  0  0  0  0  0  0  0  0
  147.7880  153.4630  133.8020 O   0  0  0  0  0  0  0  0  0  0  0  0
  147.7570  154.7500  134.4090 C   0  0  0  0  0  0  0  0  0  0  0  0
  146.6840  155.5080  133.8630 O   0  0  0  0  0  0  0  0  0  0  0  0
  146.8320  156.3410  132.7510 C   0  0  0  0  0  0  0  0  0  0  0  0
  146.9730  155.8460  131.6000 O   0  0  0  0  0  0  0  0  0  0  0  0
  146.8410  157.7670  132.9270 N   0  0  0  0  0  0  0  0  0  0  0  0
  147.8380  158.6380  132.6010 C   0  0  0  0  0  0  0  0  0  0  0  0
  149.2000  158.2740  132.1610 C   0  0  0  0  0  0  0  0  0  0  0  0
  149.6600  156.9270  132.2330 N   0  0  0  0  0  0  0  0  0  0  0  0
  149.9880  159.1730  131.7620 O   0  0  0  0  0  0  0  0  0  0  0  0
  147.4290  159.9530  132.8120 C   0  0  0  0  0  0  0  0  0  0  0  0
  146.1400  159.8610  133.2880 C   0  0  0  0  0  0  0  0  0  0  0  0
  145.2540  160.8650  133.6640 C   0  0  0  0  0  0  0  0  0  0  0  0
  143.9740  160.4840  134.0980 C   0  0  0  0  0  0  0  0  0  0  0  0
  143.5930  159.1180  134.1250 C   0  0  0  0  0  0  0  0  0  0  0  0
  142.2270  158.7250  134.6290 C   0  0  0  0  0  0  0  0  0  0  0  0
  141.2570  159.0280  133.6900 F   0  0  0  0  0  0  0  0  0  0  0  0
  142.1700  157.3650  134.8850 F   0  0  0  0  0  0  0  0  0  0  0  0
  141.9560  159.4150  135.7960 F   0  0  0  0  0  0  0  0  0  0  0  0
  144.5320  158.1260  133.7580 C   0  0  0  0  0  0  0  0  0  0  0  0
  145.8080  158.5330  133.3460 C   0  0  0  0  0  0  0  0  0  0  0  0
  149.1772  151.4374  134.7095 H   0  0  0  0  0  0  0  0  0  0  0  0
  149.4242  149.9091  133.7986 H   0  0  0  0  0  0  0  0  0  0  0  0
  150.7023  151.1712  133.7986 H   0  0  0  0  0  0  0  0  0  0  0  0
  147.1645  150.6020  133.1525 H   0  0  0  0  0  0  0  0  0  0  0  0
  147.0156  151.5502  131.6341 H   0  0  0  0  0  0  0  0  0  0  0  0
  147.9021  149.9879  131.6341 H   0  0  0  0  0  0  0  0  0  0  0  0
  150.9789  151.3830  131.7425 H   0  0  0  0  0  0  0  0  0  0  0  0
  149.6746  150.6418  130.7544 H   0  0  0  0  0  0  0  0  0  0  0  0
  149.8987  152.4240  130.7544 H   0  0  0  0  0  0  0  0  0  0  0  0
  147.6129  154.6400  135.4940 H   0  0  0  0  0  0  0  0  0  0  0  0
  148.7073  155.2689  134.2152 H   0  0  0  0  0  0  0  0  0  0  0  0
  149.0900  156.1430  131.8450 H   0  0  0  0  0  0  0  0  0  0  0  0
  148.0115  160.8694  132.6359 H   0  0  0  0  0  0  0  0  0  0  0  0
  145.5468  161.9245  133.6227 H   0  0  0  0  0  0  0  0  0  0  0  0
  143.2581  161.2542  134.4210 H   0  0  0  0  0  0  0  0  0  0  0  0
  144.2666  157.0591  133.7951 H   0  0  0  0  0  0  0  0  0  0  0  0
  1  2  1  0
  2  3  1  0
  2  4  1  0
  2  5  1  0
  5  6  2  0
  5  7  1  0
  7  8  1  0
  8  9  1  0
  9 10  1  0
 10 11  2  0
 10 12  1  0
 12 13  1  0
 13 14  1  0
 14 15  1  0
 14 16  2  0
 13 17  2  0
 17 18  1  0
 18 19  2  0
 19 20  1  0
 20 21  2  0
 21 22  1  0
 22 23  1  0
 22 24  1  0
 22 25  1  0
 21 26  1  0
 26 27  2  0
 27 12  1  0
 27 18  1  0
  1 28  1  0
  1 29  1  0
  1 30  1  0
  3 31  1  0
  3 32  1  0
  3 33  1  0
  4 34  1  0
  4 35  1  0
  4 36  1  0
  8 37  1  0
  8 38  1  0
 15 39  1  0
 17 40  1  0
 19 41  1  0
 20 42  1  0
 26 43  1  0
M  CHG  1  15  -1
M  END
>  <UniqueID>  (54) 
53

>  <SMILES>  (54) 
CC(C)(C)C(=O)OCOC(=O)n1c(C([NH-])=O)cc2ccc(C(F)(F)F)cc21

>  <Energy>  (54) 
74.80392584043193

>  <Genealogy>  (54) 
CC(C)(C)C(=O)OCOC(=O)n1c(C([NH-])=O)cc2ccc(C(F)(F)F)cc21 (protonated)
CC(C)(C)C(=O)OCOC(=O)n1c(C([NH-])=O)cc2ccc(C(F)(F)F)cc21 (3D coordinates assigned)
CC(C)(C)C(=O)OCOC(=O)n1c(C([NH-])=O)cc2ccc(C(F)(F)F)cc21 (optimized conformer: 74.80392584043193 kcal/mol)

>  <smiles>  (54) 
CC(C)(C)C(=O)OCOC(=O)n1c(C(N)=O)cc2ccc(C(F)(F)F)cc21

>  <score_type>  (54) 
oracle

>  <origin>  (54) 
adg

>  <m_score__min__energy>  (54) 
-6.3399999999999999

>  <m_primary>  (54) 
energy

$$$$
54:0
     RDKit          3D

 96103  0  0  0  0  0  0  0  0999 V2000
  142.1420  156.4870  132.9990 C   0  0  0  0  0  0  0  0  0  0  0  0
  140.7000  156.3950  133.1290 N   0  0  0  0  0  0  0  0  0  0  0  0
  140.1150  155.0740  133.0350 C   0  0  0  0  0  0  0  0  0  0  0  0
  138.8860  154.9210  132.7560 O   0  0  0  0  0  0  0  0  0  0  0  0
  140.9260  153.9670  133.3150 O   0  0  0  0  0  0  0  0  0  0  0  0
  139.9760  157.5590  133.6200 C   0  0  0  0  0  0  0  0  0  0  0  0
  138.9830  158.0030  132.9610 O   0  0  0  0  0  0  0  0  0  0  0  0
  140.4870  158.3800  134.6710 N   0  0  0  0  0  0  0  0  0  0  0  0
  140.7400  159.7130  134.5700 C   0  0  0  0  0  0  0  0  0  0  0  0
  140.6840  160.5050  133.3100 C   0  0  0  0  0  0  0  0  0  0  0  0
  140.3930  159.8640  132.0740 N   0  0  0  0  0  0  0  0  0  0  0  0
  140.9590  161.7400  133.3220 O   0  0  0  0  0  0  0  0  0  0  0  0
  141.0750  160.2470  135.8090 C   0  0  0  0  0  0  0  0  0  0  0  0
  140.9470  159.2070  136.6990 C   0  0  0  0  0  0  0  0  0  0  0  0
  141.1810  159.1660  138.0700 C   0  0  0  0  0  0  0  0  0  0  0  0
  141.0970  157.9330  138.7350 C   0  0  0  0  0  0  0  0  0  0  0  0
  140.7100  156.7620  138.0030 C   0  0  0  0  0  0  0  0  0  0  0  0
  140.8530  155.4310  138.6200 C   0  0  0  0  0  0  0  0  0  0  0  0
  140.2840  154.2900  138.0460 C   0  0  0  0  0  0  0  0  0  0  0  0
  140.5620  153.0400  138.6050 C   0  0  0  0  0  0  0  0  0  0  0  0
  141.3040  152.9280  139.7810 C   0  0  0  0  0  0  0  0  0  0  0  0
  141.7940  151.6130  140.2040 C   0  0  0  0  0  0  0  0  0  0  0  0
  140.9700  150.7300  140.5840 O   0  0  0  0  0  0  0  0  0  0  0  0
  143.2070  151.3630  140.2340 N   0  0  0  0  0  0  0  0  0  0  0  0
  143.7770  150.4180  141.1980 C   0  0  0  0  0  0  0  0  0  0  0  0
  145.2780  150.1920  140.9490 C   0  0  0  0  0  0  0  0  0  0  0  0
  146.0210  151.4720  140.7680 N   0  0  0  0  0  0  0  0  0  0  0  0
  147.4090  151.2270  140.2800 C   0  0  0  0  0  0  0  0  0  0  0  0
  147.5340  150.0090  139.3010 C   0  0  0  0  0  0  0  0  0  0  0  0
  148.1290  150.2540  137.8900 C   0  0  0  0  0  0  0  0  0  0  0  0
  148.8290  151.5400  137.7710 N   0  0  0  0  0  0  0  0  0  0  0  0
  148.7270  152.2620  136.5130 C   0  0  0  0  0  0  0  0  0  0  0  0
  149.3930  151.7690  135.3530 C   0  0  0  0  0  0  0  0  0  0  0  0
  149.2100  152.3710  134.1040 C   0  0  0  0  0  0  0  0  0  0  0  0
  148.3250  153.4310  134.0230 C   0  0  0  0  0  0  0  0  0  0  0  0
  147.7250  153.9850  135.1440 C   0  0  0  0  0  0  0  0  0  0  0  0
  147.9010  153.4220  136.4020 C   0  0  0  0  0  0  0  0  0  0  0  0
  147.0340  155.2040  134.7180 C   0  0  0  0  0  0  0  0  0  0  0  0
  146.5170  156.0580  135.4890 O   0  0  0  0  0  0  0  0  0  0  0  0
  147.1740  155.3870  133.3080 N   0  0  0  0  0  0  0  0  0  0  0  0
  146.8970  156.6420  132.5740 C   0  0  2  0  0  0  0  0  0  0  0  0
  148.1950  157.2540  132.0110 C   0  0  0  0  0  0  0  0  0  0  0  0
  149.0710  157.8880  133.1080 C   0  0  0  0  0  0  0  0  0  0  0  0
  148.2750  158.8400  133.9690 C   0  0  0  0  0  0  0  0  0  0  0  0
  148.8840  159.7250  134.6280 O   0  0  0  0  0  0  0  0  0  0  0  0
  146.8580  158.6890  134.1110 N   0  0  0  0  0  0  0  0  0  0  0  0
  146.1480  157.6330  133.4420 C   0  0  0  0  0  0  0  0  0  0  0  0
  144.9110  157.4930  133.6370 O   0  0  0  0  0  0  0  0  0  0  0  0
  147.9510  154.2590  132.8820 C   0  0  0  0  0  0  0  0  0  0  0  0
  148.3080  154.0440  131.6750 O   0  0  0  0  0  0  0  0  0  0  0  0
  149.2800  152.2110  138.9810 C   0  0  0  0  0  0  0  0  0  0  0  0
  148.0310  152.5350  139.7670 C   0  0  0  0  0  0  0  0  0  0  0  0
  145.2900  152.5600  140.0640 C   0  0  0  0  0  0  0  0  0  0  0  0
  144.0980  152.0290  139.2910 C   0  0  0  0  0  0  0  0  0  0  0  0
  141.8570  154.0690  140.3650 C   0  0  0  0  0  0  0  0  0  0  0  0
  141.6270  155.3090  139.8030 C   0  0  0  0  0  0  0  0  0  0  0  0
  140.3840  156.8740  136.6370 C   0  0  0  0  0  0  0  0  0  0  0  0
  140.6000  158.0920  135.9940 C   0  0  0  0  0  0  0  0  0  0  0  0
  142.5992  156.5162  133.9991 H   0  0  0  0  0  0  0  0  0  0  0  0
  142.5173  155.6110  132.4497 H   0  0  0  0  0  0  0  0  0  0  0  0
  142.4029  157.4036  132.4497 H   0  0  0  0  0  0  0  0  0  0  0  0
  140.6770  160.3360  131.1690 H   0  0  0  0  0  0  0  0  0  0  0  0
  139.9990  158.9120  132.0430 H   0  0  0  0  0  0  0  0  0  0  0  0
  141.3779  161.2811  136.0301 H   0  0  0  0  0  0  0  0  0  0  0  0
  141.4276  160.0843  138.6231 H   0  0  0  0  0  0  0  0  0  0  0  0
  141.3261  157.8653  139.8087 H   0  0  0  0  0  0  0  0  0  0  0  0
  139.6274  154.3752  137.1676 H   0  0  0  0  0  0  0  0  0  0  0  0
  140.1902  152.1306  138.1103 H   0  0  0  0  0  0  0  0  0  0  0  0
  143.6397  150.8176  142.2136 H   0  0  0  0  0  0  0  0  0  0  0  0
  143.2599  149.4541  141.0821 H   0  0  0  0  0  0  0  0  0  0  0  0
  145.7025  149.6554  141.8103 H   0  0  0  0  0  0  0  0  0  0  0  0
  145.3811  149.6092  140.0218 H   0  0  0  0  0  0  0  0  0  0  0  0
  148.0156  150.9026  141.1384 H   0  0  0  0  0  0  0  0  0  0  0  0
  148.1682  149.2584  139.7953 H   0  0  0  0  0  0  0  0  0  0  0  0
  146.4932  149.7105  139.1071 H   0  0  0  0  0  0  0  0  0  0  0  0
  148.8415  149.4464  137.6663 H   0  0  0  0  0  0  0  0  0  0  0  0
  147.2887  150.2730  137.1804 H   0  0  0  0  0  0  0  0  0  0  0  0
  150.0621  150.9004  135.4418 H   0  0  0  0  0  0  0  0  0  0  0  0
  149.7517  152.0136  133.2158 H   0  0  0  0  0  0  0  0  0  0  0  0
  147.4173  153.8579  137.2886 H   0  0  0  0  0  0  0  0  0  0  0  0
  146.2481  156.3957  131.7206 H   0  0  0  0  0  0  0  0  0  0  0  0
  148.7721  156.4610  131.5129 H   0  0  0  0  0  0  0  0  0  0  0  0
  147.9117  158.0503  131.3069 H   0  0  0  0  0  0  0  0  0  0  0  0
  149.4821  157.0897  133.7434 H   0  0  0  0  0  0  0  0  0  0  0  0
  149.8782  158.4549  132.6211 H   0  0  0  0  0  0  0  0  0  0  0  0
  149.9371  151.5483  139.5634 H   0  0  0  0  0  0  0  0  0  0  0  0
  149.8563  153.1184  138.7478 H   0  0  0  0  0  0  0  0  0  0  0  0
  148.2890  153.1800  140.6199 H   0  0  0  0  0  0  0  0  0  0  0  0
  147.3117  153.0603  139.1215 H   0  0  0  0  0  0  0  0  0  0  0  0
  144.9361  153.2899  140.8069 H   0  0  0  0  0  0  0  0  0  0  0  0
  145.9810  153.0284  139.3477 H   0  0  0  0  0  0  0  0  0  0  0  0
  143.5696  152.8610  138.8027 H   0  0  0  0  0  0  0  0  0  0  0  0
  144.4302  151.3223  138.5163 H   0  0  0  0  0  0  0  0  0  0  0  0
  142.4746  153.9804  141.2709 H   0  0  0  0  0  0  0  0  0  0  0  0
  142.0469  156.2090  140.2759 H   0  0  0  0  0  0  0  0  0  0  0  0
  139.9670  156.0167  136.0882 H   0  0  0  0  0  0  0  0  0  0  0  0
  1  2  1  0
  2  3  1  0
  3  4  2  0
  3  5  1  0
  2  6  1  0
  6  7  2  0
  6  8  1  0
  8  9  1  0
  9 10  1  0
 10 11  1  0
 10 12  2  0
  9 13  2  0
 13 14  1  0
 14 15  2  0
 15 16  1  0
 16 17  2  0
 17 18  1  0
 18 19  2  0
 19 20  1  0
 20 21  2  0
 21 22  1  0
 22 23  2  0
 22 24  1  0
 24 25  1  0
 25 26  1  0
 26 27  1  0
 27 28  1  0
 28 29  1  0
 29 30  1  0
 30 31  1  0
 31 32  1  0
 32 33  2  0
 33 34  1  0
 34 35  2  0
 35 36  1  0
 36 37  2  0
 36 38  1  0
 38 39  2  0
 38 40  1  0
 40 41  1  0
 41 42  1  0
 42 43  1  0
 43 44  1  0
 44 45  2  0
 44 46  1  0
 46 47  1  0
 47 48  2  0
 40 49  1  0
 49 50  2  0
 31 51  1  0
 51 52  1  0
 27 53  1  0
 53 54  1  0
 21 55  1  0
 55 56  2  0
 17 57  1  0
 57 58  2  0
 58  8  1  0
 58 14  1  0
 56 18  1  0
 54 24  1  0
 52 28  1  0
 37 32  1  0
 47 41  1  0
 49 35  1  0
  1 59  1  0
  1 60  1  0
  1 61  1  0
 11 62  1  0
 11 63  1  0
 13 64  1  0
 15 65  1  0
 16 66  1  0
 19 67  1  0
 20 68  1  0
 25 69  1  0
 25 70  1  0
 26 71  1  0
 26 72  1  0
 28 73  1  0
 29 74  1  0
 29 75  1  0
 30 76  1  0
 30 77  1  0
 33 78  1  0
 34 79  1  0
 37 80  1  0
 41 81  1  6
 42 82  1  0
 42 83  1  0
 43 84  1  0
 43 85  1  0
 51 86  1  0
 51 87  1  0
 52 88  1  0
 52 89  1  0
 53 90  1  0
 53 91  1  0
 54 92  1  0
 54 93  1  0
 55 94  1  0
 56 95  1  0
 57 96  1  0
M  CHG  2   5  -1  46  -1
M  END
>  <UniqueID>  (55) 
54

>  <SMILES>  (55) 
CN(C(=O)[O-])C(=O)n1c(C(N)=O)cc2ccc(-c3ccc(C(=O)N4CCN(C5CCN(c6ccc7c(c6)C(=O)N([C@@H]6CCC(=O)[N-]C6=O)C7=O)CC5)CC4)cc3)cc21

>  <Energy>  (55) 
239.71256517005114

>  <Genealogy>  (55) 
CN(C(=O)[O-])C(=O)n1c(C(N)=O)cc2ccc(-c3ccc(C(=O)N4CCN(C5CCN(c6ccc7c(c6)C(=O)N(C6CCC(=O)[N-]C6=O)C7=O)CC5)CC4)cc3)cc21 (protonated)
CN(C(=O)[O-])C(=O)n1c(C(N)=O)cc2ccc(-c3ccc(C(=O)N4CCN(C5CCN(c6ccc7c(c6)C(=O)N([C@@H]6CCC(=O)[N-]C6=O)C7=O)CC5)CC4)cc3)cc21 (chirality)
CN(C(=O)[O-])C(=O)n1c(C(N)=O)cc2ccc(-c3ccc(C(=O)N4CCN(C5CCN(c6ccc7c(c6)C(=O)N([C@@H]6CCC(=O)[N-]C6=O)C7=O)CC5)CC4)cc3)cc21 (3D coordinates assigned)
CN(C(=O)[O-])C(=O)n1c(C(N)=O)cc2ccc(-c3ccc(C(=O)N4CCN(C5CCN(c6ccc7c(c6)C(=O)N([C@@H]6CCC(=O)[N-]C6=O)C7=O)CC5)CC4)cc3)cc21 (nonaromatic ring conformer: 239.71256517005114 kcal/mol)

>  <smiles>  (55) 
CN(C(=O)O)C(=O)n1c(C(N)=O)cc2ccc(-c3ccc(C(=O)N4CCN(C5CCN(c6ccc7c(c6)C(=O)N(C6CCC(=O)NC6=O)C7=O)CC5)CC4)cc3)cc21

>  <score_type>  (55) 
oracle

>  <origin>  (55) 
adg

>  <m_score__min__energy>  (55) 
-10.550000000000001

>  <m_primary>  (55) 
energy

$$$$
55:0
     RDKit          3D

 41 42  0  0  0  0  0  0  0  0999 V2000
  148.9710  157.7520  132.6630 C   0  0  0  0  0  0  0  0  0  0  0  0
  147.8120  158.6350  133.0140 C   0  0  0  0  0  0  0  0  0  0  0  0
  148.0200  159.9960  133.3540 C   0  0  0  0  0  0  0  0  0  0  0  0
  146.9310  160.8310  133.6640 C   0  0  0  0  0  0  0  0  0  0  0  0
  145.6530  160.2790  133.6180 C   0  0  0  0  0  0  0  0  0  0  0  0
  144.4250  160.8570  133.8550 C   0  0  0  0  0  0  0  0  0  0  0  0
  143.4910  159.8390  133.6520 C   0  0  0  0  0  0  0  0  0  0  0  0
  142.0280  159.9880  133.8190 C   0  0  0  0  0  0  0  0  0  0  0  0
  141.1230  159.5430  132.8060 N   0  0  0  0  0  0  0  0  0  0  0  0
  141.5640  160.5180  134.8630 O   0  0  0  0  0  0  0  0  0  0  0  0
  144.1220  158.6840  133.3000 N   0  0  0  0  0  0  0  0  0  0  0  0
  143.5270  157.4140  132.9960 C   0  0  0  0  0  0  0  0  0  0  0  0
  142.8420  157.2980  131.9450 O   0  0  0  0  0  0  0  0  0  0  0  0
  143.6920  156.2850  133.8800 N   0  0  0  0  0  0  0  0  0  0  0  0
  145.0440  155.8550  134.2440 C   0  0  0  0  0  0  0  0  0  0  0  0
  142.5450  155.4560  134.2740 C   0  0  0  0  0  0  0  0  0  0  0  0
  141.5960  156.2540  135.1090 C   0  0  0  0  0  0  0  0  0  0  0  0
  142.0020  156.7940  136.1750 O   0  0  0  0  0  0  0  0  0  0  0  0
  140.2640  156.3870  134.7010 O   0  0  0  0  0  0  0  0  0  0  0  0
  139.8500  156.2860  133.3420 C   0  0  0  0  0  0  0  0  0  0  0  0
  139.2550  157.5810  132.8890 C   0  0  0  0  0  0  0  0  0  0  0  0
  138.5840  158.2870  133.6860 O   0  0  0  0  0  0  0  0  0  0  0  0
  139.4860  158.0310  131.5940 O   0  0  0  0  0  0  0  0  0  0  0  0
  145.4400  158.9660  133.2880 C   0  0  0  0  0  0  0  0  0  0  0  0
  146.5020  158.1120  132.9740 C   0  0  0  0  0  0  0  0  0  0  0  0
  149.4478  157.3888  133.5854 H   0  0  0  0  0  0  0  0  0  0  0  0
  148.6136  156.8951  132.0730 H   0  0  0  0  0  0  0  0  0  0  0  0
  149.7022  158.3240  132.0730 H   0  0  0  0  0  0  0  0  0  0  0  0
  149.0419  160.4024  133.3755 H   0  0  0  0  0  0  0  0  0  0  0  0
  147.0839  161.8863  133.9341 H   0  0  0  0  0  0  0  0  0  0  0  0
  144.2232  161.8993  134.1430 H   0  0  0  0  0  0  0  0  0  0  0  0
  140.0960  159.6940  132.9190 H   0  0  0  0  0  0  0  0  0  0  0  0
  141.4580  159.0310  131.9590 H   0  0  0  0  0  0  0  0  0  0  0  0
  145.1368  155.8255  135.3397 H   0  0  0  0  0  0  0  0  0  0  0  0
  145.2331  154.8524  133.8328 H   0  0  0  0  0  0  0  0  0  0  0  0
  145.7775  156.5642  133.8328 H   0  0  0  0  0  0  0  0  0  0  0  0
  142.0256  155.1013  133.3716 H   0  0  0  0  0  0  0  0  0  0  0  0
  142.9059  154.5980  134.8602 H   0  0  0  0  0  0  0  0  0  0  0  0
  140.7201  156.0457  132.7134 H   0  0  0  0  0  0  0  0  0  0  0  0
  139.0941  155.4918  133.2538 H   0  0  0  0  0  0  0  0  0  0  0  0
  146.3211  157.0613  132.7032 H   0  0  0  0  0  0  0  0  0  0  0  0
  1  2  1  0
  2  3  2  0
  3  4  1  0
  4  5  2  0
  5  6  1  0
  6  7  2  0
  7  8  1  0
  8  9  1  0
  8 10  2  0
  7 11  1  0
 11 12  1  0
 12 13  2  0
 12 14  1  0
 14 15  1  0
 14 16  1  0
 16 17  1  0
 17 18  2  0
 17 19  1  0
 19 20  1  0
 20 21  1  0
 21 22  2  0
 21 23  1  0
 11 24  1  0
 24 25  2  0
 25  2  1  0
 24  5  1  0
  1 26  1  0
  1 27  1  0
  1 28  1  0
  3 29  1  0
  4 30  1  0
  6 31  1  0
  9 32  1  0
  9 33  1  0
 15 34  1  0
 15 35  1  0
 15 36  1  0
 16 37  1  0
 16 38  1  0
 20 39  1  0
 20 40  1  0
 25 41  1  0
M  CHG  1  23  -1
M  END
>  <UniqueID>  (56) 
55

>  <SMILES>  (56) 
Cc1ccc2cc(C(N)=O)n(C(=O)N(C)CC(=O)OCC(=O)[O-])c2c1

>  <Energy>  (56) 
74.1178564709259

>  <Genealogy>  (56) 
Cc1ccc2cc(C(N)=O)n(C(=O)N(C)CC(=O)OCC(=O)[O-])c2c1 (protonated)
Cc1ccc2cc(C(N)=O)n(C(=O)N(C)CC(=O)OCC(=O)[O-])c2c1 (3D coordinates assigned)
Cc1ccc2cc(C(N)=O)n(C(=O)N(C)CC(=O)OCC(=O)[O-])c2c1 (optimized conformer: 74.1178564709259 kcal/mol)

>  <smiles>  (56) 
Cc1ccc2cc(C(N)=O)n(C(=O)N(C)CC(=O)OCC(=O)O)c2c1

>  <score_type>  (56) 
oracle

>  <origin>  (56) 
adg

>  <m_score__min__energy>  (56) 
-6.4500000000000002

>  <m_primary>  (56) 
energy

$$$$
56:0
     RDKit          3D

 36 38  0  0  0  0  0  0  0  0999 V2000
  145.4640  160.9870  133.8310 C   0  0  0  0  0  0  0  0  0  0  0  0
  146.5040  160.0100  133.3700 C   0  0  0  0  0  0  0  0  0  0  0  0
  147.7290  160.4810  132.8340 C   0  0  0  0  0  0  0  0  0  0  0  0
  148.7250  159.5770  132.4250 C   0  0  0  0  0  0  0  0  0  0  0  0
  148.4740  158.2170  132.5760 C   0  0  0  0  0  0  0  0  0  0  0  0
  149.2500  157.1270  132.2480 C   0  0  0  0  0  0  0  0  0  0  0  0
  148.4950  156.0120  132.6110 C   0  0  0  0  0  0  0  0  0  0  0  0
  148.9540  154.6110  132.4840 C   0  0  0  0  0  0  0  0  0  0  0  0
  148.0210  153.5540  132.2490 N   0  0  0  0  0  0  0  0  0  0  0  0
  150.1790  154.3390  132.5770 O   0  0  0  0  0  0  0  0  0  0  0  0
  147.3020  156.4020  133.1410 N   0  0  0  0  0  0  0  0  0  0  0  0
  146.2310  155.5630  133.6010 C   0  0  0  0  0  0  0  0  0  0  0  0
  145.3100  155.2510  132.7990 O   0  0  0  0  0  0  0  0  0  0  0  0
  146.2130  155.0610  134.9530 N   0  0  0  0  0  0  0  0  0  0  0  0
  147.4480  155.0690  135.7530 C   0  0  0  0  0  0  0  0  0  0  0  0
  147.4760  153.9030  136.6960 C   0  0  0  0  0  0  0  0  0  0  0  0
  148.5710  153.5100  137.1770 O   0  0  0  0  0  0  0  0  0  0  0  0
  146.2620  153.2730  137.0990 N   0  0  0  0  0  0  0  0  0  0  0  0
  145.0000  153.7090  136.5960 C   0  0  0  0  0  0  0  0  0  0  0  0
  143.9440  153.1730  137.0230 O   0  0  0  0  0  0  0  0  0  0  0  0
  144.9210  154.8500  135.6260 C   0  0  0  0  0  0  0  0  0  0  0  0
  147.3040  157.7500  133.1150 C   0  0  0  0  0  0  0  0  0  0  0  0
  146.2900  158.6220  133.5240 C   0  0  0  0  0  0  0  0  0  0  0  0
  145.4421  161.0076  134.9306 H   0  0  0  0  0  0  0  0  0  0  0  0
  145.7085  161.9896  133.4503 H   0  0  0  0  0  0  0  0  0  0  0  0
  144.4786  160.6804  133.4503 H   0  0  0  0  0  0  0  0  0  0  0  0
  147.9017  161.5630  132.7373 H   0  0  0  0  0  0  0  0  0  0  0  0
  149.6740  159.9342  131.9985 H   0  0  0  0  0  0  0  0  0  0  0  0
  150.2527  157.1345  131.7956 H   0  0  0  0  0  0  0  0  0  0  0  0
  146.9930  153.7280  132.2290 H   0  0  0  0  0  0  0  0  0  0  0  0
  148.3600  152.5710  132.1460 H   0  0  0  0  0  0  0  0  0  0  0  0
  148.3153  155.0093  135.0790 H   0  0  0  0  0  0  0  0  0  0  0  0
  147.4837  155.9991  136.3393 H   0  0  0  0  0  0  0  0  0  0  0  0
  144.1538  154.6269  134.8699 H   0  0  0  0  0  0  0  0  0  0  0  0
  144.6615  155.7639  136.1805 H   0  0  0  0  0  0  0  0  0  0  0  0
  145.3527  158.2382  133.9533 H   0  0  0  0  0  0  0  0  0  0  0  0
  1  2  1  0
  2  3  2  0
  3  4  1  0
  4  5  2  0
  5  6  1  0
  6  7  2  0
  7  8  1  0
  8  9  1  0
  8 10  2  0
  7 11  1  0
 11 12  1  0
 12 13  2  0
 12 14  1  0
 14 15  1  0
 15 16  1  0
 16 17  2  0
 16 18  1  0
 18 19  1  0
 19 20  2  0
 19 21  1  0
 11 22  1  0
 22 23  2  0
 23  2  1  0
 22  5  1  0
 21 14  1  0
  1 24  1  0
  1 25  1  0
  1 26  1  0
  3 27  1  0
  4 28  1  0
  6 29  1  0
  9 30  1  0
  9 31  1  0
 15 32  1  0
 15 33  1  0
 21 34  1  0
 21 35  1  0
 23 36  1  0
M  CHG  1  18  -1
M  END
>  <UniqueID>  (57) 
56

>  <SMILES>  (57) 
Cc1ccc2cc(C(N)=O)n(C(=O)N3CC(=O)[N-]C(=O)C3)c2c1

>  <Energy>  (57) 
76.762813066919

>  <Genealogy>  (57) 
Cc1ccc2cc(C(N)=O)n(C(=O)N3CC(=O)[N-]C(=O)C3)c2c1 (protonated)
Cc1ccc2cc(C(N)=O)n(C(=O)N3CC(=O)[N-]C(=O)C3)c2c1 (3D coordinates assigned)
Cc1ccc2cc(C(N)=O)n(C(=O)N3CC(=O)[N-]C(=O)C3)c2c1 (nonaromatic ring conformer: 76.762813066919 kcal/mol)

>  <smiles>  (57) 
Cc1ccc2cc(C(N)=O)n(C(=O)N3CC(=O)NC(=O)C3)c2c1

>  <score_type>  (57) 
oracle

>  <origin>  (57) 
adg

>  <m_score__min__energy>  (57) 
-7.3200000000000003

>  <m_primary>  (57) 
energy

$$$$
57:0
     RDKit          3D

 30 31  0  0  0  0  0  0  0  0999 V2000
  149.4980  159.7280  130.2140 N   0  0  0  0  0  0  0  0  0  0  0  0
  149.3850  159.5680  131.3540 C   0  0  0  0  0  0  0  0  0  0  0  0
  149.2410  159.3640  132.7980 C   0  0  0  0  0  0  0  0  0  0  0  0
  147.9200  158.7120  133.0960 C   0  0  0  0  0  0  0  0  0  0  0  0
  146.7130  159.3380  132.6980 C   0  0  0  0  0  0  0  0  0  0  0  0
  145.4710  158.7460  132.9870 C   0  0  0  0  0  0  0  0  0  0  0  0
  145.4690  157.5420  133.6870 C   0  0  0  0  0  0  0  0  0  0  0  0
  144.4170  156.7480  134.0780 C   0  0  0  0  0  0  0  0  0  0  0  0
  144.9940  155.6680  134.7420 C   0  0  0  0  0  0  0  0  0  0  0  0
  144.2060  154.6100  135.4080 C   0  0  0  0  0  0  0  0  0  0  0  0
  144.5960  154.0950  136.6790 N   0  0  0  0  0  0  0  0  0  0  0  0
  143.1470  154.1890  134.8710 O   0  0  0  0  0  0  0  0  0  0  0  0
  146.3530  155.7840  134.7520 N   0  0  0  0  0  0  0  0  0  0  0  0
  147.3160  154.8500  135.2640 C   0  0  0  0  0  0  0  0  0  0  0  0
  147.8990  154.0580  134.4750 O   0  0  0  0  0  0  0  0  0  0  0  0
  147.6150  154.8490  136.6330 O   0  0  0  0  0  0  0  0  0  0  0  0
  147.5270  153.7340  137.4770 C   0  0  0  0  0  0  0  0  0  0  0  0
  146.9370  152.6820  137.1100 O   0  0  0  0  0  0  0  0  0  0  0  0
  148.1310  153.7960  138.8100 C   0  0  0  0  0  0  0  0  0  0  0  0
  149.3400  153.4860  138.9720 O   0  0  0  0  0  0  0  0  0  0  0  0
  147.3710  154.1950  139.9040 O   0  0  0  0  0  0  0  0  0  0  0  0
  146.6270  156.9390  134.1050 C   0  0  0  0  0  0  0  0  0  0  0  0
  147.8780  157.4960  133.8130 C   0  0  0  0  0  0  0  0  0  0  0  0
  150.0554  158.7179  133.1576 H   0  0  0  0  0  0  0  0  0  0  0  0
  149.2855  160.3384  133.3065 H   0  0  0  0  0  0  0  0  0  0  0  0
  146.7479  160.2957  132.1581 H   0  0  0  0  0  0  0  0  0  0  0  0
  144.5299  159.2191  132.6700 H   0  0  0  0  0  0  0  0  0  0  0  0
  143.3459  156.9276  133.9034 H   0  0  0  0  0  0  0  0  0  0  0  0
  145.5100  154.3600  137.1080 H   0  0  0  0  0  0  0  0  0  0  0  0
  148.8052  156.9988  134.1341 H   0  0  0  0  0  0  0  0  0  0  0  0
  1  2  3  0
  2  3  1  0
  3  4  1  0
  4  5  2  0
  5  6  1  0
  6  7  2  0
  7  8  1  0
  8  9  2  0
  9 10  1  0
 10 11  1  0
 10 12  2  0
  9 13  1  0
 13 14  1  0
 14 15  2  0
 14 16  1  0
 16 17  1  0
 17 18  2  0
 17 19  1  0
 19 20  2  0
 19 21  1  0
 13 22  1  0
 22 23  2  0
 23  4  1  0
 22  7  1  0
  3 24  1  0
  3 25  1  0
  5 26  1  0
  6 27  1  0
  8 28  1  0
 11 29  1  0
 23 30  1  0
M  CHG  2  11  -1  21  -1
M  END
>  <UniqueID>  (58) 
57

>  <SMILES>  (58) 
N#CCc1ccc2cc(C([NH-])=O)n(C(=O)OC(=O)C(=O)[O-])c2c1

>  <Energy>  (58) 
67.45296597473546

>  <Genealogy>  (58) 
N#CCc1ccc2cc(C([NH-])=O)n(C(=O)OC(=O)C(=O)[O-])c2c1 (protonated)
N#CCc1ccc2cc(C([NH-])=O)n(C(=O)OC(=O)C(=O)[O-])c2c1 (3D coordinates assigned)
N#CCc1ccc2cc(C([NH-])=O)n(C(=O)OC(=O)C(=O)[O-])c2c1 (optimized conformer: 67.45296597473546 kcal/mol)

>  <smiles>  (58) 
N#CCc1ccc2cc(C(N)=O)n(C(=O)OC(=O)C(=O)O)c2c1

>  <score_type>  (58) 
oracle

>  <origin>  (58) 
adg

>  <m_score__min__energy>  (58) 
-6.71

>  <m_primary>  (58) 
energy

$$$$
58:0
     RDKit          3D

 46 47  0  0  0  0  0  0  0  0999 V2000
  142.4080  157.5030  132.9950 C   0  0  0  0  0  0  0  0  0  0  0  0
  141.7000  158.7270  133.1490 O   0  0  0  0  0  0  0  0  0  0  0  0
  142.3000  159.8860  133.6490 C   0  0  0  0  0  0  0  0  0  0  0  0
  141.7880  161.0200  133.4360 O   0  0  0  0  0  0  0  0  0  0  0  0
  143.5870  159.7820  134.4040 C   0  0  0  0  0  0  0  0  0  0  0  0
  144.7220  160.4430  133.6190 C   0  0  0  0  0  0  0  0  0  0  0  0
  145.8340  159.4600  133.3680 C   0  0  0  0  0  0  0  0  0  0  0  0
  147.0220  159.8810  132.7200 C   0  0  0  0  0  0  0  0  0  0  0  0
  148.0460  158.9630  132.4370 C   0  0  0  0  0  0  0  0  0  0  0  0
  147.8550  157.6360  132.8110 C   0  0  0  0  0  0  0  0  0  0  0  0
  148.6640  156.5400  132.6260 C   0  0  0  0  0  0  0  0  0  0  0  0
  147.9650  155.4660  133.1740 C   0  0  0  0  0  0  0  0  0  0  0  0
  148.5130  154.0980  133.2600 C   0  0  0  0  0  0  0  0  0  0  0  0
  148.1330  153.2210  134.3180 N   0  0  0  0  0  0  0  0  0  0  0  0
  149.3660  153.7130  132.4160 O   0  0  0  0  0  0  0  0  0  0  0  0
  146.7650  155.8810  133.6720 N   0  0  0  0  0  0  0  0  0  0  0  0
  145.7150  155.0690  134.2200 C   0  0  0  0  0  0  0  0  0  0  0  0
  145.8600  154.5460  135.3560 O   0  0  0  0  0  0  0  0  0  0  0  0
  144.5310  154.8900  133.4880 O   0  0  0  0  0  0  0  0  0  0  0  0
  144.2900  153.8880  132.4900 C   0  0  0  0  0  0  0  0  0  0  0  0
  144.3630  154.4970  131.0770 C   0  0  0  0  0  0  0  0  0  0  0  0
  145.2950  152.7290  132.6340 C   0  0  0  0  0  0  0  0  0  0  0  0
  142.8710  153.3490  132.7240 C   0  0  0  0  0  0  0  0  0  0  0  0
  146.7140  157.2130  133.4430 C   0  0  0  0  0  0  0  0  0  0  0  0
  145.6690  158.1020  133.7200 C   0  0  0  0  0  0  0  0  0  0  0  0
  142.6467  157.0903  133.9863 H   0  0  0  0  0  0  0  0  0  0  0  0
  141.7850  156.7864  132.4398 H   0  0  0  0  0  0  0  0  0  0  0  0
  143.3399  157.6858  132.4398 H   0  0  0  0  0  0  0  0  0  0  0  0
  143.4783  160.2848  135.3763 H   0  0  0  0  0  0  0  0  0  0  0  0
  143.8282  158.7191  134.5525 H   0  0  0  0  0  0  0  0  0  0  0  0
  144.3332  160.8031  132.6551 H   0  0  0  0  0  0  0  0  0  0  0  0
  145.1177  161.2840  134.2073 H   0  0  0  0  0  0  0  0  0  0  0  0
  147.1430  160.9368  132.4361 H   0  0  0  0  0  0  0  0  0  0  0  0
  148.9710  159.2828  131.9350 H   0  0  0  0  0  0  0  0  0  0  0  0
  149.6538  156.5158  132.1468 H   0  0  0  0  0  0  0  0  0  0  0  0
  147.1280  153.0010  134.4970 H   0  0  0  0  0  0  0  0  0  0  0  0
  144.4936  155.5865  131.1536 H   0  0  0  0  0  0  0  0  0  0  0  0
  145.2155  154.0628  130.5342 H   0  0  0  0  0  0  0  0  0  0  0  0
  143.4320  154.2766  130.5342 H   0  0  0  0  0  0  0  0  0  0  0  0
  145.4707  152.5264  133.7008 H   0  0  0  0  0  0  0  0  0  0  0  0
  144.8874  151.8282  132.1520 H   0  0  0  0  0  0  0  0  0  0  0  0
  146.2445  153.0050  132.1520 H   0  0  0  0  0  0  0  0  0  0  0  0
  142.6799  153.2764  133.8048 H   0  0  0  0  0  0  0  0  0  0  0  0
  142.1395  154.0319  132.2674 H   0  0  0  0  0  0  0  0  0  0  0  0
  142.7773  152.3527  132.2674 H   0  0  0  0  0  0  0  0  0  0  0  0
  144.7429  157.7521  134.1996 H   0  0  0  0  0  0  0  0  0  0  0  0
  1  2  1  0
  2  3  1  0
  3  4  2  0
  3  5  1  0
  5  6  1  0
  6  7  1  0
  7  8  2  0
  8  9  1  0
  9 10  2  0
 10 11  1  0
 11 12  2  0
 12 13  1  0
 13 14  1  0
 13 15  2  0
 12 16  1  0
 16 17  1  0
 17 18  2  0
 17 19  1  0
 19 20  1  0
 20 21  1  0
 20 22  1  0
 20 23  1  0
 16 24  1  0
 24 25  2  0
 25  7  1  0
 24 10  1  0
  1 26  1  0
  1 27  1  0
  1 28  1  0
  5 29  1  0
  5 30  1  0
  6 31  1  0
  6 32  1  0
  8 33  1  0
  9 34  1  0
 11 35  1  0
 14 36  1  0
 21 37  1  0
 21 38  1  0
 21 39  1  0
 22 40  1  0
 22 41  1  0
 22 42  1  0
 23 43  1  0
 23 44  1  0
 23 45  1  0
 25 46  1  0
M  CHG  1  14  -1
M  END
>  <UniqueID>  (59) 
58

>  <SMILES>  (59) 
COC(=O)CCc1ccc2cc(C([NH-])=O)n(C(=O)OC(C)(C)C)c2c1

>  <Energy>  (59) 
73.45901183010614

>  <Genealogy>  (59) 
COC(=O)CCc1ccc2cc(C([NH-])=O)n(C(=O)OC(C)(C)C)c2c1 (protonated)
COC(=O)CCc1ccc2cc(C([NH-])=O)n(C(=O)OC(C)(C)C)c2c1 (3D coordinates assigned)
COC(=O)CCc1ccc2cc(C([NH-])=O)n(C(=O)OC(C)(C)C)c2c1 (optimized conformer: 73.45901183010614 kcal/mol)

>  <smiles>  (59) 
COC(=O)CCc1ccc2cc(C(N)=O)n(C(=O)OC(C)(C)C)c2c1

>  <score_type>  (59) 
oracle

>  <origin>  (59) 
adg

>  <m_score__min__energy>  (59) 
-6.9699999999999998

>  <m_primary>  (59) 
energy

$$$$
59:0
     RDKit          3D

 51 53  0  0  0  0  0  0  0  0999 V2000
  138.0730  158.6340  132.2260 C   0  0  0  0  0  0  0  0  0  0  0  0
  139.4100  158.0750  132.7540 C   0  0  0  0  0  0  0  0  0  0  0  0
  140.5720  158.6730  131.9450 C   0  0  0  0  0  0  0  0  0  0  0  0
  139.4040  156.5420  132.5900 C   0  0  0  0  0  0  0  0  0  0  0  0
  139.5970  158.4350  134.2140 C   0  0  0  0  0  0  0  0  0  0  0  0
  138.9030  157.8680  135.1040 O   0  0  0  0  0  0  0  0  0  0  0  0
  140.4860  159.4580  134.5690 O   0  0  0  0  0  0  0  0  0  0  0  0
  141.2010  159.4720  135.8010 C   0  0  0  0  0  0  0  0  0  0  0  0
  142.5030  158.9200  135.6220 O   0  0  0  0  0  0  0  0  0  0  0  0
  143.1640  158.9160  134.3890 C   0  0  0  0  0  0  0  0  0  0  0  0
  143.0230  159.8840  133.5920 O   0  0  0  0  0  0  0  0  0  0  0  0
  143.9850  157.7960  134.0210 N   0  0  0  0  0  0  0  0  0  0  0  0
  143.6280  156.4800  133.9650 C   0  0  0  0  0  0  0  0  0  0  0  0
  142.2620  155.9430  134.1260 C   0  0  0  0  0  0  0  0  0  0  0  0
  141.4450  156.3930  135.2040 N   0  0  0  0  0  0  0  0  0  0  0  0
  141.8190  155.0610  133.3440 O   0  0  0  0  0  0  0  0  0  0  0  0
  144.7290  155.6890  133.6450 C   0  0  0  0  0  0  0  0  0  0  0  0
  145.7790  156.5660  133.4970 C   0  0  0  0  0  0  0  0  0  0  0  0
  147.1140  156.3180  133.1920 C   0  0  0  0  0  0  0  0  0  0  0  0
  147.9900  157.4150  133.1290 C   0  0  0  0  0  0  0  0  0  0  0  0
  147.5170  158.7290  133.3680 C   0  0  0  0  0  0  0  0  0  0  0  0
  148.4710  159.8900  133.3410 C   0  0  0  0  0  0  0  0  0  0  0  0
  148.9120  160.1390  131.9720 N   0  0  0  0  0  0  0  0  0  0  0  0
  149.6920  159.3340  131.2280 C   0  0  0  0  0  0  0  0  0  0  0  0
  149.8300  159.8980  129.9730 C   0  0  0  0  0  0  0  0  0  0  0  0
  149.0890  161.0650  130.0210 C   0  0  0  0  0  0  0  0  0  0  0  0
  148.5430  161.1810  131.2450 N   0  0  0  0  0  0  0  0  0  0  0  0
  146.1590  158.9410  133.6910 C   0  0  0  0  0  0  0  0  0  0  0  0
  145.3040  157.8320  133.7280 C   0  0  0  0  0  0  0  0  0  0  0  0
  137.4276  158.9038  133.0749 H   0  0  0  0  0  0  0  0  0  0  0  0
  138.2654  159.5271  131.6133 H   0  0  0  0  0  0  0  0  0  0  0  0
  137.5725  157.8698  131.6133 H   0  0  0  0  0  0  0  0  0  0  0  0
  141.3346  159.0655  132.6338 H   0  0  0  0  0  0  0  0  0  0  0  0
  141.0175  157.8922  131.3111 H   0  0  0  0  0  0  0  0  0  0  0  0
  140.1955  159.4894  131.3111 H   0  0  0  0  0  0  0  0  0  0  0  0
  139.4021  156.0671  133.5822 H   0  0  0  0  0  0  0  0  0  0  0  0
  138.5047  156.2361  132.0354 H   0  0  0  0  0  0  0  0  0  0  0  0
  140.3009  156.2291  132.0354 H   0  0  0  0  0  0  0  0  0  0  0  0
  141.2919  160.5090  136.1563 H   0  0  0  0  0  0  0  0  0  0  0  0
  140.6540  158.8679  136.5398 H   0  0  0  0  0  0  0  0  0  0  0  0
  141.0550  157.3620  135.2140 H   0  0  0  0  0  0  0  0  0  0  0  0
  144.7538  154.5949  133.5341 H   0  0  0  0  0  0  0  0  0  0  0  0
  147.4724  155.2948  133.0060 H   0  0  0  0  0  0  0  0  0  0  0  0
  149.0518  157.2522  132.8922 H   0  0  0  0  0  0  0  0  0  0  0  0
  147.9658  160.7863  133.7302 H   0  0  0  0  0  0  0  0  0  0  0  0
  149.3452  159.6550  133.9660 H   0  0  0  0  0  0  0  0  0  0  0  0
  150.1433  158.3879  131.5614 H   0  0  0  0  0  0  0  0  0  0  0  0
  150.4043  159.5041  129.1215 H   0  0  0  0  0  0  0  0  0  0  0  0
  148.9664  161.7804  129.1944 H   0  0  0  0  0  0  0  0  0  0  0  0
  147.9210  161.9540  131.5730 H   0  0  0  0  0  0  0  0  0  0  0  0
  145.7820  159.9513  133.9081 H   0  0  0  0  0  0  0  0  0  0  0  0
  1  2  1  0
  2  3  1  0
  2  4  1  0
  2  5  1  0
  5  6  2  0
  5  7  1  0
  7  8  1  0
  8  9  1  0
  9 10  1  0
 10 11  2  0
 10 12  1  0
 12 13  1  0
 13 14  1  0
 14 15  1  0
 14 16  2  0
 13 17  2  0
 17 18  1  0
 18 19  2  0
 19 20  1  0
 20 21  2  0
 21 22  1  0
 22 23  1  0
 23 24  1  0
 24 25  2  0
 25 26  1  0
 26 27  2  0
 21 28  1  0
 28 29  2  0
 29 12  1  0
 29 18  1  0
 27 23  1  0
  1 30  1  0
  1 31  1  0
  1 32  1  0
  3 33  1  0
  3 34  1  0
  3 35  1  0
  4 36  1  0
  4 37  1  0
  4 38  1  0
  8 39  1  0
  8 40  1  0
 15 41  1  0
 17 42  1  0
 19 43  1  0
 20 44  1  0
 22 45  1  0
 22 46  1  0
 24 47  1  0
 25 48  1  0
 26 49  1  0
 27 50  1  0
 28 51  1  0
M  CHG  2  15  -1  27   1
M  END
>  <UniqueID>  (60) 
59

>  <SMILES>  (60) 
CC(C)(C)C(=O)OCOC(=O)n1c(C([NH-])=O)cc2ccc(Cn3ccc[nH+]3)cc21

>  <Energy>  (60) 
109.16118909976863

>  <Genealogy>  (60) 
CC(C)(C)C(=O)OCOC(=O)n1c(C([NH-])=O)cc2ccc(Cn3ccc[nH+]3)cc21 (protonated)
CC(C)(C)C(=O)OCOC(=O)n1c(C([NH-])=O)cc2ccc(Cn3ccc[nH+]3)cc21 (3D coordinates assigned)
CC(C)(C)C(=O)OCOC(=O)n1c(C([NH-])=O)cc2ccc(Cn3ccc[nH+]3)cc21 (optimized conformer: 109.16118909976863 kcal/mol)

>  <smiles>  (60) 
CC(C)(C)C(=O)OCOC(=O)n1c(C(N)=O)cc2ccc(Cn3cccn3)cc21

>  <score_type>  (60) 
oracle

>  <origin>  (60) 
adg

>  <m_score__min__energy>  (60) 
-7.7400000000000002

>  <m_primary>  (60) 
energy

$$$$
61:0
     RDKit          3D

 50 52  0  0  0  0  0  0  0  0999 V2000
  148.1040  154.6290  132.5890 C   0  0  0  0  0  0  0  0  0  0  0  0
  147.2560  155.7670  132.5100 O   0  0  0  0  0  0  0  0  0  0  0  0
  147.0520  156.6320  133.5880 C   0  0  0  0  0  0  0  0  0  0  0  0
  147.0980  156.1960  134.7710 O   0  0  0  0  0  0  0  0  0  0  0  0
  146.7600  158.0180  133.3460 N   0  0  0  0  0  0  0  0  0  0  0  0
  147.6060  158.9860  132.8900 C   0  0  0  0  0  0  0  0  0  0  0  0
  148.9800  158.7750  132.3900 C   0  0  0  0  0  0  0  0  0  0  0  0
  149.5200  157.4630  132.2540 N   0  0  0  0  0  0  0  0  0  0  0  0
  149.6720  159.7660  132.0310 O   0  0  0  0  0  0  0  0  0  0  0  0
  146.9680  160.2250  132.8770 C   0  0  0  0  0  0  0  0  0  0  0  0
  145.6930  159.9840  133.3320 C   0  0  0  0  0  0  0  0  0  0  0  0
  144.6310  160.8630  133.5310 C   0  0  0  0  0  0  0  0  0  0  0  0
  143.4310  160.3400  134.0410 C   0  0  0  0  0  0  0  0  0  0  0  0
  143.3200  158.9650  134.3480 C   0  0  0  0  0  0  0  0  0  0  0  0
  142.0990  158.4470  134.8780 N   0  0  0  0  0  0  0  0  0  0  0  0
  141.3030  157.2100  134.7690 C   0  0  0  0  0  0  0  0  0  0  0  0
  140.2120  157.6450  135.6950 C   0  0  0  0  0  0  0  0  0  0  0  0
  138.9440  157.8680  135.0080 N   0  0  0  0  0  0  0  0  0  0  0  0
  138.7880  157.6330  133.6100 C   0  0  0  0  0  0  0  0  0  0  0  0
  139.0380  156.4880  133.1500 O   0  0  0  0  0  0  0  0  0  0  0  0
  138.3540  158.6750  132.7750 O   0  0  0  0  0  0  0  0  0  0  0  0
  139.1100  159.2960  131.7260 C   0  0  0  0  0  0  0  0  0  0  0  0
  138.7600  160.7930  131.6170 C   0  0  0  0  0  0  0  0  0  0  0  0
  140.6210  159.1080  131.9630 C   0  0  0  0  0  0  0  0  0  0  0  0
  138.7220  158.5990  130.4130 C   0  0  0  0  0  0  0  0  0  0  0  0
  141.0310  158.8910  135.7930 C   0  0  0  0  0  0  0  0  0  0  0  0
  144.4150  158.1020  134.1360 C   0  0  0  0  0  0  0  0  0  0  0  0
  145.5920  158.6450  133.6080 C   0  0  0  0  0  0  0  0  0  0  0  0
  148.2883  154.3817  133.6449 H   0  0  0  0  0  0  0  0  0  0  0  0
  147.6198  153.7757  132.0916 H   0  0  0  0  0  0  0  0  0  0  0  0
  149.0602  154.8490  132.0916 H   0  0  0  0  0  0  0  0  0  0  0  0
  149.0140  156.7280  131.7130 H   0  0  0  0  0  0  0  0  0  0  0  0
  147.3941  161.1910  132.5682 H   0  0  0  0  0  0  0  0  0  0  0  0
  144.7288  161.9332  133.2962 H   0  0  0  0  0  0  0  0  0  0  0  0
  142.5707  161.0062  134.2027 H   0  0  0  0  0  0  0  0  0  0  0  0
  140.9436  157.0246  133.7461 H   0  0  0  0  0  0  0  0  0  0  0  0
  141.8120  156.2632  135.0024 H   0  0  0  0  0  0  0  0  0  0  0  0
  139.8673  157.0580  136.5591 H   0  0  0  0  0  0  0  0  0  0  0  0
  138.6600  161.2206  132.6256 H   0  0  0  0  0  0  0  0  0  0  0  0
  139.5596  161.3179  131.0738 H   0  0  0  0  0  0  0  0  0  0  0  0
  137.8105  160.9090  131.0738 H   0  0  0  0  0  0  0  0  0  0  0  0
  140.8222  159.0830  133.0441 H   0  0  0  0  0  0  0  0  0  0  0  0
  140.9488  158.1621  131.5070 H   0  0  0  0  0  0  0  0  0  0  0  0
  141.1706  159.9447  131.5070 H   0  0  0  0  0  0  0  0  0  0  0  0
  138.1983  157.6582  130.6381 H   0  0  0  0  0  0  0  0  0  0  0  0
  138.0602  159.2567  129.8304 H   0  0  0  0  0  0  0  0  0  0  0  0
  139.6297  158.3830  129.8304 H   0  0  0  0  0  0  0  0  0  0  0  0
  140.4980  159.7798  135.4243 H   0  0  0  0  0  0  0  0  0  0  0  0
  141.3351  159.2133  136.7998 H   0  0  0  0  0  0  0  0  0  0  0  0
  144.3460  157.0314  134.3790 H   0  0  0  0  0  0  0  0  0  0  0  0
  1  2  1  0
  2  3  1  0
  3  4  2  0
  3  5  1  0
  5  6  1  0
  6  7  1  0
  7  8  1  0
  7  9  2  0
  6 10  2  0
 10 11  1  0
 11 12  2  0
 12 13  1  0
 13 14  2  0
 14 15  1  0
 15 16  1  0
 16 17  1  0
 17 18  1  0
 18 19  1  0
 19 20  2  0
 19 21  1  0
 21 22  1  0
 22 23  1  0
 22 24  1  0
 22 25  1  0
 17 26  1  0
 14 27  1  0
 27 28  2  0
 28  5  1  0
 28 11  1  0
 26 15  1  0
  1 29  1  0
  1 30  1  0
  1 31  1  0
  8 32  1  0
 10 33  1  0
 12 34  1  0
 13 35  1  0
 16 36  1  0
 16 37  1  0
 17 38  1  0
 23 39  1  0
 23 40  1  0
 23 41  1  0
 24 42  1  0
 24 43  1  0
 24 44  1  0
 25 45  1  0
 25 46  1  0
 25 47  1  0
 26 48  1  0
 26 49  1  0
 27 50  1  0
M  CHG  2   8  -1  18  -1
M  END
>  <UniqueID>  (61) 
60

>  <SMILES>  (61) 
COC(=O)n1c(C([NH-])=O)cc2ccc(N3CC([N-]C(=O)OC(C)(C)C)C3)cc21

>  <Energy>  (61) 
125.00335291294115

>  <Genealogy>  (61) 
COC(=O)n1c(C([NH-])=O)cc2ccc(N3CC([N-]C(=O)OC(C)(C)C)C3)cc21 (protonated)
COC(=O)n1c(C([NH-])=O)cc2ccc(N3CC([N-]C(=O)OC(C)(C)C)C3)cc21 (3D coordinates assigned)
COC(=O)n1c(C([NH-])=O)cc2ccc(N3CC([N-]C(=O)OC(C)(C)C)C3)cc21 (nonaromatic ring conformer: 125.00335291294115 kcal/mol)

>  <smiles>  (61) 
COC(=O)n1c(C(N)=O)cc2ccc(N3CC(NC(=O)OC(C)(C)C)C3)cc21

>  <score_type>  (61) 
oracle

>  <origin>  (61) 
adg

>  <m_score__min__energy>  (61) 
-7.6500000000000004

>  <m_primary>  (61) 
energy

$$$$
62:0
     RDKit          3D

 49 51  0  0  0  0  0  0  0  0999 V2000
  149.6260  159.3040  130.9600 C   0  0  0  0  0  0  0  0  0  0  0  0
  149.4210  158.9340  132.3720 N   0  0  0  0  0  0  0  0  0  0  0  0
  149.2040  157.4750  132.4860 C   0  0  0  0  0  0  0  0  0  0  0  0
  148.0180  157.1190  133.3980 C   0  0  0  0  0  0  0  0  0  0  0  0
  146.6230  157.2420  132.7440 C   0  0  0  0  0  0  0  0  0  0  0  0
  146.1390  158.6330  132.6740 N   0  0  0  0  0  0  0  0  0  0  0  0
  144.8290  158.9490  133.1770 C   0  0  0  0  0  0  0  0  0  0  0  0
  144.5410  160.2530  133.6520 C   0  0  0  0  0  0  0  0  0  0  0  0
  143.2610  160.5730  134.1370 C   0  0  0  0  0  0  0  0  0  0  0  0
  142.2970  159.5710  134.1450 C   0  0  0  0  0  0  0  0  0  0  0  0
  140.9780  159.6140  134.5330 C   0  0  0  0  0  0  0  0  0  0  0  0
  140.4830  158.3300  134.3100 C   0  0  0  0  0  0  0  0  0  0  0  0
  139.1130  157.9090  134.6730 C   0  0  0  0  0  0  0  0  0  0  0  0
  138.1890  157.5480  133.6490 N   0  0  0  0  0  0  0  0  0  0  0  0
  138.7380  157.8980  135.8750 O   0  0  0  0  0  0  0  0  0  0  0  0
  141.4580  157.5260  133.7980 N   0  0  0  0  0  0  0  0  0  0  0  0
  141.3470  156.1600  133.3660 C   0  0  0  0  0  0  0  0  0  0  0  0
  140.3000  155.7700  132.7810 O   0  0  0  0  0  0  0  0  0  0  0  0
  142.4110  155.2780  133.5930 O   0  0  0  0  0  0  0  0  0  0  0  0
  142.2970  154.0320  134.2200 C   0  0  0  0  0  0  0  0  0  0  0  0
  143.0170  153.7300  135.2110 O   0  0  0  0  0  0  0  0  0  0  0  0
  141.2790  153.0560  133.7230 C   0  0  0  0  0  0  0  0  0  0  0  0
  141.6020  151.6800  134.2080 C   0  0  0  0  0  0  0  0  0  0  0  0
  141.0000  151.2040  135.2070 O   0  0  0  0  0  0  0  0  0  0  0  0
  142.6080  150.9440  133.5920 O   0  0  0  0  0  0  0  0  0  0  0  0
  142.5620  158.2990  133.7060 C   0  0  0  0  0  0  0  0  0  0  0  0
  143.8220  157.9580  133.2020 C   0  0  0  0  0  0  0  0  0  0  0  0
  147.0120  159.7490  132.2630 C   0  0  0  0  0  0  0  0  0  0  0  0
  148.3700  159.7750  132.9980 C   0  0  0  0  0  0  0  0  0  0  0  0
  150.1585  160.2650  130.9064 H   0  0  0  0  0  0  0  0  0  0  0  0
  150.2219  158.5263  130.4600 H   0  0  0  0  0  0  0  0  0  0  0  0
  148.6506  159.3968  130.4600 H   0  0  0  0  0  0  0  0  0  0  0  0
  149.0099  157.0690  131.4823 H   0  0  0  0  0  0  0  0  0  0  0  0
  150.1092  157.0393  132.9341 H   0  0  0  0  0  0  0  0  0  0  0  0
  148.1463  156.0789  133.7322 H   0  0  0  0  0  0  0  0  0  0  0  0
  148.0350  157.8506  134.2193 H   0  0  0  0  0  0  0  0  0  0  0  0
  146.6783  156.8385  131.7222 H   0  0  0  0  0  0  0  0  0  0  0  0
  145.9156  156.6791  133.3707 H   0  0  0  0  0  0  0  0  0  0  0  0
  145.3271  161.0224  133.6410 H   0  0  0  0  0  0  0  0  0  0  0  0
  143.0290  161.5854  134.4992 H   0  0  0  0  0  0  0  0  0  0  0  0
  140.4296  160.4789  134.9345 H   0  0  0  0  0  0  0  0  0  0  0  0
  138.3620  156.7190  133.0390 H   0  0  0  0  0  0  0  0  0  0  0  0
  140.2851  153.3476  134.0934 H   0  0  0  0  0  0  0  0  0  0  0  0
  141.2863  153.0593  132.6230 H   0  0  0  0  0  0  0  0  0  0  0  0
  144.0241  156.9414  132.8336 H   0  0  0  0  0  0  0  0  0  0  0  0
  147.2027  159.6618  131.1832 H   0  0  0  0  0  0  0  0  0  0  0  0
  146.4875  160.6807  132.5215 H   0  0  0  0  0  0  0  0  0  0  0  0
  148.7292  160.8144  133.0210 H   0  0  0  0  0  0  0  0  0  0  0  0
  148.1924  159.3611  134.0016 H   0  0  0  0  0  0  0  0  0  0  0  0
  1  2  1  0
  2  3  1  0
  3  4  1  0
  4  5  1  0
  5  6  1  0
  6  7  1  0
  7  8  2  0
  8  9  1  0
  9 10  2  0
 10 11  1  0
 11 12  2  0
 12 13  1  0
 13 14  1  0
 13 15  2  0
 12 16  1  0
 16 17  1  0
 17 18  2  0
 17 19  1  0
 19 20  1  0
 20 21  2  0
 20 22  1  0
 22 23  1  0
 23 24  2  0
 23 25  1  0
 16 26  1  0
 26 27  2  0
  6 28  1  0
 28 29  1  0
 29  2  1  0
 27  7  1  0
 26 10  1  0
  1 30  1  0
  1 31  1  0
  1 32  1  0
  3 33  1  0
  3 34  1  0
  4 35  1  0
  4 36  1  0
  5 37  1  0
  5 38  1  0
  8 39  1  0
  9 40  1  0
 11 41  1  0
 14 42  1  0
 22 43  1  0
 22 44  1  0
 27 45  1  0
 28 46  1  0
 28 47  1  0
 29 48  1  0
 29 49  1  0
M  CHG  2  14  -1  25  -1
M  END
>  <UniqueID>  (62) 
61

>  <SMILES>  (62) 
CN1CCCN(c2ccc3cc(C([NH-])=O)n(C(=O)OC(=O)CC(=O)[O-])c3c2)CC1

>  <Energy>  (62) 
103.63059730876262

>  <Genealogy>  (62) 
CN1CCCN(c2ccc3cc(C([NH-])=O)n(C(=O)OC(=O)CC(=O)[O-])c3c2)CC1 (protonated)
CN1CCCN(c2ccc3cc(C([NH-])=O)n(C(=O)OC(=O)CC(=O)[O-])c3c2)CC1 (3D coordinates assigned)
CN1CCCN(c2ccc3cc(C([NH-])=O)n(C(=O)OC(=O)CC(=O)[O-])c3c2)CC1 (nonaromatic ring conformer: 103.63059730876262 kcal/mol)

>  <smiles>  (62) 
CN1CCCN(c2ccc3cc(C(N)=O)n(C(=O)OC(=O)CC(=O)O)c3c2)CC1

>  <score_type>  (62) 
oracle

>  <origin>  (62) 
adg

>  <m_score__min__energy>  (62) 
-6.0899999999999999

>  <m_primary>  (62) 
energy

$$$$
63:0
     RDKit          3D

 44 45  0  0  0  0  0  0  0  0999 V2000
  141.1250  158.4960  135.0140 H   0  0  0  0  0  0  0  0  0  0  0  0
  141.4570  159.4800  135.1190 N   0  0  0  0  0  0  0  0  0  0  0  0
  142.1280  160.1450  134.0520 C   0  0  0  0  0  0  0  0  0  0  0  0
  141.5010  160.9940  133.3640 O   0  0  0  0  0  0  0  0  0  0  0  0
  143.5530  159.8800  133.7660 C   0  0  0  0  0  0  0  0  0  0  0  0
  144.5360  160.8680  133.7600 C   0  0  0  0  0  0  0  0  0  0  0  0
  144.3990  161.9463  133.9287 H   0  0  0  0  0  0  0  0  0  0  0  0
  145.7150  160.2070  133.4980 C   0  0  0  0  0  0  0  0  0  0  0  0
  147.0090  160.7010  133.3590 C   0  0  0  0  0  0  0  0  0  0  0  0
  147.2241  161.7716  133.4918 H   0  0  0  0  0  0  0  0  0  0  0  0
  148.0320  159.7910  133.0440 C   0  0  0  0  0  0  0  0  0  0  0  0
  149.0681  160.1470  132.9457 H   0  0  0  0  0  0  0  0  0  0  0  0
  147.7390  158.4180  132.8520 C   0  0  0  0  0  0  0  0  0  0  0  0
  148.8400  157.4570  132.5190 C   0  0  0  0  0  0  0  0  0  0  0  0
  149.2829  157.0704  133.4487 H   0  0  0  0  0  0  0  0  0  0  0  0
  148.4319  156.6210  131.9319 H   0  0  0  0  0  0  0  0  0  0  0  0
  149.6131  157.9743  131.9319 H   0  0  0  0  0  0  0  0  0  0  0  0
  146.4190  157.9480  133.0230 C   0  0  0  0  0  0  0  0  0  0  0  0
  146.1778  156.8820  132.8987 H   0  0  0  0  0  0  0  0  0  0  0  0
  145.4260  158.8760  133.3550 C   0  0  0  0  0  0  0  0  0  0  0  0
  144.1030  158.6590  133.5140 N   0  0  0  0  0  0  0  0  0  0  0  0
  143.4250  157.4040  133.3390 C   0  0  0  0  0  0  0  0  0  0  0  0
  142.8720  157.1520  132.2330 O   0  0  0  0  0  0  0  0  0  0  0  0
  143.3640  156.4400  134.4100 N   0  0  0  0  0  0  0  0  0  0  0  0
  142.1290  156.2180  135.1190 C   0  0  0  0  0  0  0  0  0  0  0  0
  141.8890  156.8440  136.1880 O   0  0  0  0  0  0  0  0  0  0  0  0
  141.2050  155.2910  134.6310 O   0  0  0  0  0  0  0  0  0  0  0  0
  140.6240  155.3690  133.3350 C   0  0  0  0  0  0  0  0  0  0  0  0
  141.2896  155.9348  132.6666 H   0  0  0  0  0  0  0  0  0  0  0  0
  140.4812  154.3555  132.9319 H   0  0  0  0  0  0  0  0  0  0  0  0
  139.3660  156.0300  133.4260 O   0  0  0  0  0  0  0  0  0  0  0  0
  139.2480  157.4200  133.5480 C   0  0  0  0  0  0  0  0  0  0  0  0
  139.0700  157.9480  134.6790 O   0  0  0  0  0  0  0  0  0  0  0  0
  139.3160  158.2810  132.3600 C   0  0  0  0  0  0  0  0  0  0  0  0
  140.2652  158.3562  131.8092 H   0  0  0  0  0  0  0  0  0  0  0  0
  138.2590  158.9760  131.9280 C   0  0  0  0  0  0  0  0  0  0  0  0
  137.3013  158.8772  132.4601 H   0  0  0  0  0  0  0  0  0  0  0  0
  138.3390  159.8690  130.7620 C   0  0  0  0  0  0  0  0  0  0  0  0
  139.4610  160.1180  130.2470 O   0  0  0  0  0  0  0  0  0  0  0  0
  137.1960  160.4400  130.2170 O   0  0  0  0  0  0  0  0  0  0  0  0
  144.5040  155.5490  134.6450 C   0  0  0  0  0  0  0  0  0  0  0  0
  144.6582  155.4285  135.7275 H   0  0  0  0  0  0  0  0  0  0  0  0
  144.3016  154.5673  134.1919 H   0  0  0  0  0  0  0  0  0  0  0  0
  145.4077  155.9826  134.1919 H   0  0  0  0  0  0  0  0  0  0  0  0
  1  2  1  0
  2  3  1  0
  3  4  2  0
  3  5  1  0
  5  6  2  0
  6  7  1  0
  6  8  1  0
  8  9  2  0
  9 10  1  0
  9 11  1  0
 11 12  1  0
 11 13  2  0
 13 14  1  0
 14 15  1  0
 14 16  1  0
 14 17  1  0
 13 18  1  0
 18 19  1  0
 18 20  2  0
 20 21  1  0
 21 22  1  0
 22 23  2  0
 22 24  1  0
 24 25  1  0
 25 26  2  0
 25 27  1  0
 27 28  1  0
 28 29  1  0
 28 30  1  0
 28 31  1  0
 31 32  1  0
 32 33  2  0
 32 34  1  0
 34 35  1  0
 34 36  2  0
 36 37  1  0
 36 38  1  0
 38 39  2  0
 38 40  1  0
 24 41  1  0
 41 42  1  0
 41 43  1  0
 41 44  1  0
 21  5  1  0
 20  8  1  0
M  CHG  2   2  -1  40  -1
M  END
>  <UniqueID>  (63) 
62

>  <SMILES>  (63) 
Cc1ccc2cc(C([NH-])=O)n(C(=O)N(C)C(=O)OCOC(=O)/C=C/C(=O)[O-])c2c1

>  <Energy>  (63) 
72.651707360443

>  <Genealogy>  (63) 
Cc1ccc2cc(C([NH-])=O)n(C(=O)N(C)C(=O)OCOC(=O)/C=C/C(=O)[O-])c2c1 (protonated)
Cc1ccc2cc(C([NH-])=O)n(C(=O)N(C)C(=O)OCOC(=O)/C=C/C(=O)[O-])c2c1 (cis-trans isomerization)
Cc1ccc2cc(C([NH-])=O)n(C(=O)N(C)C(=O)OCOC(=O)/C=C/C(=O)[O-])c2c1 (3D coordinates assigned)
Cc1ccc2cc(C([NH-])=O)n(C(=O)N(C)C(=O)OCOC(=O)/C=C/C(=O)[O-])c2c1 (optimized conformer: 72.651707360443 kcal/mol)

>  <smiles>  (63) 
Cc1ccc2cc(C(N)=O)n(C(=O)N(C)C(=O)OCOC(=O)/C=C/C(=O)O)c2c1

>  <score_type>  (63) 
oracle

>  <origin>  (63) 
adg

>  <m_score__min__energy>  (63) 
-7.4299999999999997

>  <m_primary>  (63) 
energy

$$$$
64:0
     RDKit          3D

 32 33  0  0  0  0  0  0  0  0999 V2000
  149.8980  152.0950  132.5650 C   0  0  0  0  0  0  0  0  0  0  0  0
  149.2280  153.0530  132.8570 C   0  0  0  0  0  0  0  0  0  0  0  0
  148.4270  154.1970  133.2070 C   0  0  0  0  0  0  0  0  0  0  0  0
  147.3600  154.0560  134.1240 C   0  0  0  0  0  0  0  0  0  0  0  0
  146.5820  155.1680  134.4850 C   0  0  0  0  0  0  0  0  0  0  0  0
  146.8900  156.3970  133.9060 C   0  0  0  0  0  0  0  0  0  0  0  0
  146.3220  157.6340  134.1040 C   0  0  0  0  0  0  0  0  0  0  0  0
  147.0330  158.5010  133.2790 C   0  0  0  0  0  0  0  0  0  0  0  0
  146.7090  159.9340  133.1340 C   0  0  0  0  0  0  0  0  0  0  0  0
  147.6680  160.8600  132.6210 N   0  0  0  0  0  0  0  0  0  0  0  0
  145.5500  160.3380  133.4160 O   0  0  0  0  0  0  0  0  0  0  0  0
  148.0130  157.8330  132.6070 N   0  0  0  0  0  0  0  0  0  0  0  0
  149.0240  158.3910  131.7530 C   0  0  0  0  0  0  0  0  0  0  0  0
  150.2440  158.2180  132.0280 O   0  0  0  0  0  0  0  0  0  0  0  0
  148.6520  159.1150  130.6140 O   0  0  0  0  0  0  0  0  0  0  0  0
  149.5850  159.6850  129.6980 C   0  0  0  0  0  0  0  0  0  0  0  0
  149.7580  161.1800  129.9580 C   0  0  0  0  0  0  0  0  0  0  0  0
  148.5650  161.7300  130.4390 O   0  0  0  0  0  0  0  0  0  0  0  0
  147.9100  156.5430  132.9990 C   0  0  0  0  0  0  0  0  0  0  0  0
  148.7160  155.4550  132.6390 C   0  0  0  0  0  0  0  0  0  0  0  0
  150.5096  151.2204  132.2984 H   0  0  0  0  0  0  0  0  0  0  0  0
  147.1380  153.0695  134.5571 H   0  0  0  0  0  0  0  0  0  0  0  0
  145.7545  155.0715  135.2032 H   0  0  0  0  0  0  0  0  0  0  0  0
  145.4846  157.8847  134.7718 H   0  0  0  0  0  0  0  0  0  0  0  0
  147.4370  161.8770  132.5660 H   0  0  0  0  0  0  0  0  0  0  0  0
  148.5700  160.5310  132.2140 H   0  0  0  0  0  0  0  0  0  0  0  0
  150.5572  159.1839  129.8153 H   0  0  0  0  0  0  0  0  0  0  0  0
  149.2035  159.5473  128.6755 H   0  0  0  0  0  0  0  0  0  0  0  0
  150.5530  161.3291  130.7035 H   0  0  0  0  0  0  0  0  0  0  0  0
  150.0275  161.6785  129.0152 H   0  0  0  0  0  0  0  0  0  0  0  0
  147.8340  161.1730  130.0650 H   0  0  0  0  0  0  0  0  0  0  0  0
  149.5507  155.5786  131.9333 H   0  0  0  0  0  0  0  0  0  0  0  0
  1  2  3  0
  2  3  1  0
  3  4  2  0
  4  5  1  0
  5  6  2  0
  6  7  1  0
  7  8  2  0
  8  9  1  0
  9 10  1  0
  9 11  2  0
  8 12  1  0
 12 13  1  0
 13 14  2  0
 13 15  1  0
 15 16  1  0
 16 17  1  0
 17 18  1  0
 12 19  1  0
 19 20  2  0
 20  3  1  0
 19  6  1  0
  1 21  1  0
  4 22  1  0
  5 23  1  0
  7 24  1  0
 10 25  1  0
 10 26  1  0
 16 27  1  0
 16 28  1  0
 17 29  1  0
 17 30  1  0
 18 31  1  0
 20 32  1  0
M  END
>  <UniqueID>  (64) 
63

>  <SMILES>  (64) 
C#Cc1ccc2cc(C(N)=O)n(C(=O)OCCO)c2c1

>  <Energy>  (64) 
66.38274623286082

>  <Genealogy>  (64) 
C#Cc1ccc2cc(C(N)=O)n(C(=O)OCCO)c2c1 (3D coordinates assigned)
C#Cc1ccc2cc(C(N)=O)n(C(=O)OCCO)c2c1 (optimized conformer: 66.38274623286082 kcal/mol)

>  <smiles>  (64) 
C#Cc1ccc2cc(C(N)=O)n(C(=O)OCCO)c2c1

>  <score_type>  (64) 
oracle

>  <origin>  (64) 
adg

>  <m_score__min__energy>  (64) 
-6.4699999999999998

>  <m_primary>  (64) 
energy

$$$$
65:0
     RDKit          3D

 40 41  0  0  0  0  0  0  0  0999 V2000
  139.8660  159.8700  131.9580 C   0  0  0  0  0  0  0  0  0  0  0  0
  140.8470  159.3560  132.9040 N   0  0  0  0  0  0  0  0  0  0  0  0
  140.4660  158.5470  134.0220 C   0  0  0  0  0  0  0  0  0  0  0  0
  139.2550  158.2400  134.2030 O   0  0  0  0  0  0  0  0  0  0  0  0
  141.5020  158.0750  134.9950 C   0  0  0  0  0  0  0  0  0  0  0  0
  142.7730  158.7430  134.7420 N   0  0  0  0  0  0  0  0  0  0  0  0
  143.5740  158.5020  133.5810 C   0  0  0  0  0  0  0  0  0  0  0  0
  143.1170  157.8180  132.6250 O   0  0  0  0  0  0  0  0  0  0  0  0
  144.8990  159.0490  133.5000 N   0  0  0  0  0  0  0  0  0  0  0  0
  145.2720  160.3550  133.6180 C   0  0  0  0  0  0  0  0  0  0  0  0
  144.3560  161.5100  133.7330 C   0  0  0  0  0  0  0  0  0  0  0  0
  142.9700  161.3490  133.4370 N   0  0  0  0  0  0  0  0  0  0  0  0
  144.7770  162.6310  134.1220 O   0  0  0  0  0  0  0  0  0  0  0  0
  146.6570  160.4760  133.5340 C   0  0  0  0  0  0  0  0  0  0  0  0
  147.1250  159.1940  133.3540 C   0  0  0  0  0  0  0  0  0  0  0  0
  148.4270  158.7290  133.2180 C   0  0  0  0  0  0  0  0  0  0  0  0
  148.6220  157.3460  133.0710 C   0  0  0  0  0  0  0  0  0  0  0  0
  147.5200  156.4430  133.0670 C   0  0  0  0  0  0  0  0  0  0  0  0
  147.7330  155.0140  132.9240 N   0  0  0  0  0  0  0  0  0  0  0  0
  146.6160  154.0740  133.0690 C   0  0  0  0  0  0  0  0  0  0  0  0
  149.0720  154.4860  132.6340 C   0  0  0  0  0  0  0  0  0  0  0  0
  146.2090  156.9680  133.2110 C   0  0  0  0  0  0  0  0  0  0  0  0
  146.0460  158.3520  133.3370 C   0  0  0  0  0  0  0  0  0  0  0  0
  139.0224  160.3120  132.5084 H   0  0  0  0  0  0  0  0  0  0  0  0
  140.3342  160.6386  131.3256 H   0  0  0  0  0  0  0  0  0  0  0  0
  139.5005  159.0475  131.3256 H   0  0  0  0  0  0  0  0  0  0  0  0
  141.8550  159.5960  132.7660 H   0  0  0  0  0  0  0  0  0  0  0  0
  141.1695  158.3027  136.0185 H   0  0  0  0  0  0  0  0  0  0  0  0
  141.6374  156.9898  134.8763 H   0  0  0  0  0  0  0  0  0  0  0  0
  142.3650  160.7330  134.0210 H   0  0  0  0  0  0  0  0  0  0  0  0
  147.2507  161.3998  133.5979 H   0  0  0  0  0  0  0  0  0  0  0  0
  149.2800  159.4235  133.2252 H   0  0  0  0  0  0  0  0  0  0  0  0
  149.6431  156.9532  132.9570 H   0  0  0  0  0  0  0  0  0  0  0  0
  146.4153  153.9051  134.1373 H   0  0  0  0  0  0  0  0  0  0  0  0
  145.7193  154.4933  132.5892 H   0  0  0  0  0  0  0  0  0  0  0  0
  146.8759  153.1189  132.5892 H   0  0  0  0  0  0  0  0  0  0  0  0
  149.5969  154.2790  133.5782 H   0  0  0  0  0  0  0  0  0  0  0  0
  148.9816  153.5562  132.0533 H   0  0  0  0  0  0  0  0  0  0  0  0
  149.6406  155.2272  132.0533 H   0  0  0  0  0  0  0  0  0  0  0  0
  145.3364  156.2984  133.2233 H   0  0  0  0  0  0  0  0  0  0  0  0
  1  2  1  0
  2  3  1  0
  3  4  2  0
  3  5  1  0
  5  6  1  0
  6  7  1  0
  7  8  2  0
  7  9  1  0
  9 10  1  0
 10 11  1  0
 11 12  1  0
 11 13  2  0
 10 14  2  0
 14 15  1  0
 15 16  2  0
 16 17  1  0
 17 18  2  0
 18 19  1  0
 19 20  1  0
 19 21  1  0
 18 22  1  0
 22 23  2  0
 23  9  1  0
 23 15  1  0
  1 24  1  0
  1 25  1  0
  1 26  1  0
  2 27  1  0
  5 28  1  0
  5 29  1  0
 12 30  1  0
 14 31  1  0
 16 32  1  0
 17 33  1  0
 20 34  1  0
 20 35  1  0
 20 36  1  0
 21 37  1  0
 21 38  1  0
 21 39  1  0
 22 40  1  0
M  CHG  2   6  -1  12  -1
M  END
>  <UniqueID>  (65) 
64

>  <SMILES>  (65) 
CNC(=O)C[N-]C(=O)n1c(C([NH-])=O)cc2ccc(N(C)C)cc21

>  <Energy>  (65) 
73.75419372929038

>  <Genealogy>  (65) 
CNC(=O)C[N-]C(=O)n1c(C([NH-])=O)cc2ccc(N(C)C)cc21 (protonated)
CNC(=O)C[N-]C(=O)n1c(C([NH-])=O)cc2ccc(N(C)C)cc21 (3D coordinates assigned)
CNC(=O)C[N-]C(=O)n1c(C([NH-])=O)cc2ccc(N(C)C)cc21 (optimized conformer: 73.75419372929038 kcal/mol)

>  <smiles>  (65) 
CNC(=O)CNC(=O)n1c(C(N)=O)cc2ccc(N(C)C)cc21

>  <score_type>  (65) 
oracle

>  <origin>  (65) 
adg

>  <m_score__min__energy>  (65) 
-6.5199999999999996

>  <m_primary>  (65) 
energy

$$$$
66:0
     RDKit          3D

 32 33  0  0  0  0  0  0  0  0999 V2000
  148.8400  153.7560  132.5210 C   0  0  0  0  0  0  0  0  0  0  0  0
  148.5640  154.9230  132.6420 C   0  0  0  0  0  0  0  0  0  0  0  0
  148.2330  156.3160  132.7860 C   0  0  0  0  0  0  0  0  0  0  0  0
  149.2210  157.3010  132.5560 C   0  0  0  0  0  0  0  0  0  0  0  0
  148.9080  158.6640  132.6810 C   0  0  0  0  0  0  0  0  0  0  0  0
  147.6070  159.0050  133.0440 C   0  0  0  0  0  0  0  0  0  0  0  0
  147.0300  160.2440  133.2000 C   0  0  0  0  0  0  0  0  0  0  0  0
  145.7070  159.9920  133.5520 C   0  0  0  0  0  0  0  0  0  0  0  0
  144.7360  161.0560  133.8730 C   0  0  0  0  0  0  0  0  0  0  0  0
  143.4030  161.0190  133.3610 N   0  0  0  0  0  0  0  0  0  0  0  0
  145.0700  161.9840  134.6560 O   0  0  0  0  0  0  0  0  0  0  0  0
  145.4670  158.6510  133.5990 N   0  0  0  0  0  0  0  0  0  0  0  0
  144.2010  158.0050  133.8060 C   0  0  0  0  0  0  0  0  0  0  0  0
  144.0990  157.0690  134.6450 O   0  0  0  0  0  0  0  0  0  0  0  0
  143.0970  158.3870  133.0310 O   0  0  0  0  0  0  0  0  0  0  0  0
  141.7770  158.2370  133.4250 N   0  0  0  0  0  0  0  0  0  0  0  0
  141.0660  156.9620  133.2890 C   0  0  0  0  0  0  0  0  0  0  0  0
  141.1220  159.3640  134.0230 C   0  0  0  0  0  0  0  0  0  0  0  0
  140.6980  159.2920  135.2060 O   0  0  0  0  0  0  0  0  0  0  0  0
  140.9560  160.5480  133.3130 O   0  0  0  0  0  0  0  0  0  0  0  0
  146.6440  158.0590  133.2880 C   0  0  0  0  0  0  0  0  0  0  0  0
  146.9250  156.6920  133.1510 C   0  0  0  0  0  0  0  0  0  0  0  0
  149.0919  152.6909  132.4106 H   0  0  0  0  0  0  0  0  0  0  0  0
  150.2410  156.9976  132.2775 H   0  0  0  0  0  0  0  0  0  0  0  0
  149.6669  159.4389  132.4979 H   0  0  0  0  0  0  0  0  0  0  0  0
  147.5115  161.2249  133.0735 H   0  0  0  0  0  0  0  0  0  0  0  0
  142.7420  161.8020  133.5620 H   0  0  0  0  0  0  0  0  0  0  0  0
  143.0450  160.1820  132.8510 H   0  0  0  0  0  0  0  0  0  0  0  0
  140.8413  156.5591  134.2876 H   0  0  0  0  0  0  0  0  0  0  0  0
  140.1272  157.1226  132.7387 H   0  0  0  0  0  0  0  0  0  0  0  0
  141.6960  156.2477  132.7387 H   0  0  0  0  0  0  0  0  0  0  0  0
  146.1463  155.9345  133.3236 H   0  0  0  0  0  0  0  0  0  0  0  0
  1  2  3  0
  2  3  1  0
  3  4  2  0
  4  5  1  0
  5  6  2  0
  6  7  1  0
  7  8  2  0
  8  9  1  0
  9 10  1  0
  9 11  2  0
  8 12  1  0
 12 13  1  0
 13 14  2  0
 13 15  1  0
 15 16  1  0
 16 17  1  0
 16 18  1  0
 18 19  2  0
 18 20  1  0
 12 21  1  0
 21 22  2  0
 22  3  1  0
 21  6  1  0
  1 23  1  0
  4 24  1  0
  5 25  1  0
  7 26  1  0
 10 27  1  0
 10 28  1  0
 17 29  1  0
 17 30  1  0
 17 31  1  0
 22 32  1  0
M  CHG  1  20  -1
M  END
>  <UniqueID>  (66) 
65

>  <SMILES>  (66) 
C#Cc1ccc2cc(C(N)=O)n(C(=O)ON(C)C(=O)[O-])c2c1

>  <Energy>  (66) 
71.81469051554325

>  <Genealogy>  (66) 
C#Cc1ccc2cc(C(N)=O)n(C(=O)ON(C)C(=O)[O-])c2c1 (protonated)
C#Cc1ccc2cc(C(N)=O)n(C(=O)ON(C)C(=O)[O-])c2c1 (3D coordinates assigned)
C#Cc1ccc2cc(C(N)=O)n(C(=O)ON(C)C(=O)[O-])c2c1 (optimized conformer: 71.81469051554325 kcal/mol)

>  <smiles>  (66) 
C#Cc1ccc2cc(C(N)=O)n(C(=O)ON(C)C(=O)O)c2c1

>  <score_type>  (66) 
oracle

>  <origin>  (66) 
adg

>  <m_score__min__energy>  (66) 
-6.8399999999999999

>  <m_primary>  (66) 
energy

$$$$
67:0
     RDKit          3D

 42 43  0  0  0  0  0  0  0  0999 V2000
  149.6010  162.4740  130.0010 C   0  0  0  0  0  0  0  0  0  0  0  0
  149.2700  161.4640  130.5660 C   0  0  0  0  0  0  0  0  0  0  0  0
  148.8730  160.2550  131.2410 C   0  0  0  0  0  0  0  0  0  0  0  0
  149.7140  159.1200  131.2100 C   0  0  0  0  0  0  0  0  0  0  0  0
  149.3380  157.9370  131.8690 C   0  0  0  0  0  0  0  0  0  0  0  0
  148.1170  157.9240  132.5390 C   0  0  0  0  0  0  0  0  0  0  0  0
  147.5200  156.9210  133.2660 C   0  0  0  0  0  0  0  0  0  0  0  0
  146.3110  157.4530  133.7070 C   0  0  0  0  0  0  0  0  0  0  0  0
  145.3030  156.6670  134.4470 C   0  0  0  0  0  0  0  0  0  0  0  0
  143.9430  157.0900  134.5090 N   0  0  0  0  0  0  0  0  0  0  0  0
  145.6340  155.5770  134.9850 O   0  0  0  0  0  0  0  0  0  0  0  0
  146.1700  158.7430  133.2820 N   0  0  0  0  0  0  0  0  0  0  0  0
  145.1090  159.6630  133.5850 C   0  0  0  0  0  0  0  0  0  0  0  0
  145.2960  160.5970  134.4110 O   0  0  0  0  0  0  0  0  0  0  0  0
  143.8790  159.5370  132.9350 O   0  0  0  0  0  0  0  0  0  0  0  0
  142.6700  160.0870  133.4450 C   0  0  0  0  0  0  0  0  0  0  0  0
  141.8600  159.0420  133.9730 O   0  0  0  0  0  0  0  0  0  0  0  0
  141.2970  158.0370  133.1760 C   0  0  0  0  0  0  0  0  0  0  0  0
  141.9880  157.4890  132.2720 O   0  0  0  0  0  0  0  0  0  0  0  0
  139.8320  157.6850  133.3400 C   0  0  0  0  0  0  0  0  0  0  0  0
  139.4090  157.8740  134.8110 C   0  0  0  0  0  0  0  0  0  0  0  0
  139.0000  158.6200  132.4440 C   0  0  0  0  0  0  0  0  0  0  0  0
  139.5740  156.2200  132.9340 C   0  0  0  0  0  0  0  0  0  0  0  0
  147.2840  159.0140  132.5630 C   0  0  0  0  0  0  0  0  0  0  0  0
  147.6450  160.2120  131.9320 C   0  0  0  0  0  0  0  0  0  0  0  0
  149.9035  163.3970  129.4847 H   0  0  0  0  0  0  0  0  0  0  0  0
  150.6694  159.1626  130.6665 H   0  0  0  0  0  0  0  0  0  0  0  0
  149.9875  157.0493  131.8561 H   0  0  0  0  0  0  0  0  0  0  0  0
  147.9140  155.9122  133.4584 H   0  0  0  0  0  0  0  0  0  0  0  0
  143.5330  157.6940  133.7630 H   0  0  0  0  0  0  0  0  0  0  0  0
  142.9028  160.8089  134.2417 H   0  0  0  0  0  0  0  0  0  0  0  0
  142.1285  160.5976  132.6350 H   0  0  0  0  0  0  0  0  0  0  0  0
  140.2116  157.5154  135.4723 H   0  0  0  0  0  0  0  0  0  0  0  0
  139.2232  158.9407  135.0050 H   0  0  0  0  0  0  0  0  0  0  0  0
  138.4905  157.3007  135.0050 H   0  0  0  0  0  0  0  0  0  0  0  0
  138.4005  159.2937  133.0738 H   0  0  0  0  0  0  0  0  0  0  0  0
  139.6734  159.2143  131.8089 H   0  0  0  0  0  0  0  0  0  0  0  0
  138.3315  158.0202  131.8089 H   0  0  0  0  0  0  0  0  0  0  0  0
  139.4653  155.6027  133.8380 H   0  0  0  0  0  0  0  0  0  0  0  0
  138.6518  156.1619  132.3372 H   0  0  0  0  0  0  0  0  0  0  0  0
  140.4209  155.8503  132.3372 H   0  0  0  0  0  0  0  0  0  0  0  0
  146.9888  161.0938  131.9747 H   0  0  0  0  0  0  0  0  0  0  0  0
  1  2  3  0
  2  3  1  0
  3  4  2  0
  4  5  1  0
  5  6  2  0
  6  7  1  0
  7  8  2  0
  8  9  1  0
  9 10  1  0
  9 11  2  0
  8 12  1  0
 12 13  1  0
 13 14  2  0
 13 15  1  0
 15 16  1  0
 16 17  1  0
 17 18  1  0
 18 19  2  0
 18 20  1  0
 20 21  1  0
 20 22  1  0
 20 23  1  0
 12 24  1  0
 24 25  2  0
 25  3  1  0
 24  6  1  0
  1 26  1  0
  4 27  1  0
  5 28  1  0
  7 29  1  0
 10 30  1  0
 16 31  1  0
 16 32  1  0
 21 33  1  0
 21 34  1  0
 21 35  1  0
 22 36  1  0
 22 37  1  0
 22 38  1  0
 23 39  1  0
 23 40  1  0
 23 41  1  0
 25 42  1  0
M  CHG  1  10  -1
M  END
>  <UniqueID>  (67) 
66

>  <SMILES>  (67) 
C#Cc1ccc2cc(C([NH-])=O)n(C(=O)OCOC(=O)C(C)(C)C)c2c1

>  <Energy>  (67) 
71.3326034512175

>  <Genealogy>  (67) 
C#Cc1ccc2cc(C([NH-])=O)n(C(=O)OCOC(=O)C(C)(C)C)c2c1 (protonated)
C#Cc1ccc2cc(C([NH-])=O)n(C(=O)OCOC(=O)C(C)(C)C)c2c1 (3D coordinates assigned)
C#Cc1ccc2cc(C([NH-])=O)n(C(=O)OCOC(=O)C(C)(C)C)c2c1 (optimized conformer: 71.3326034512175 kcal/mol)

>  <smiles>  (67) 
C#Cc1ccc2cc(C(N)=O)n(C(=O)OCOC(=O)C(C)(C)C)c2c1

>  <score_type>  (67) 
oracle

>  <origin>  (67) 
adg

>  <m_score__min__energy>  (67) 
-7.5099999999999998

>  <m_primary>  (67) 
energy

$$$$
68:0
     RDKit          3D

 43 44  0  0  0  0  0  0  0  0999 V2000
  142.2670  155.8220  136.9500 C   0  0  0  0  0  0  0  0  0  0  0  0
  142.9620  155.5600  135.6860 N   0  0  0  0  0  0  0  0  0  0  0  0
  144.0740  154.6430  135.6670 C   0  0  0  0  0  0  0  0  0  0  0  0
  144.0290  153.5890  136.3570 O   0  0  0  0  0  0  0  0  0  0  0  0
  145.2150  154.9450  134.9100 O   0  0  0  0  0  0  0  0  0  0  0  0
  146.4080  154.2100  134.9300 C   0  0  0  0  0  0  0  0  0  0  0  0
  146.8470  153.7070  136.0010 O   0  0  0  0  0  0  0  0  0  0  0  0
  147.1470  153.9860  133.6510 C   0  0  0  0  0  0  0  0  0  0  0  0
  148.0670  155.1310  133.3700 C   0  0  0  0  0  0  0  0  0  0  0  0
  149.1660  154.9310  132.7910 O   0  0  0  0  0  0  0  0  0  0  0  0
  147.7260  156.4140  133.7770 O   0  0  0  0  0  0  0  0  0  0  0  0
  142.5360  156.2250  134.4790 C   0  0  0  0  0  0  0  0  0  0  0  0
  142.2920  155.5550  133.4400 O   0  0  0  0  0  0  0  0  0  0  0  0
  142.3750  157.6520  134.4480 N   0  0  0  0  0  0  0  0  0  0  0  0
  141.2420  158.3720  134.6840 C   0  0  0  0  0  0  0  0  0  0  0  0
  139.9470  157.8250  135.1390 C   0  0  0  0  0  0  0  0  0  0  0  0
  139.4840  158.0400  136.4700 N   0  0  0  0  0  0  0  0  0  0  0  0
  139.2220  157.1830  134.3310 O   0  0  0  0  0  0  0  0  0  0  0  0
  141.4810  159.7320  134.4910 C   0  0  0  0  0  0  0  0  0  0  0  0
  142.8070  159.8210  134.1250 C   0  0  0  0  0  0  0  0  0  0  0  0
  143.5780  160.9360  133.8010 C   0  0  0  0  0  0  0  0  0  0  0  0
  144.9200  160.7260  133.4350 C   0  0  0  0  0  0  0  0  0  0  0  0
  145.4530  159.4150  133.3960 C   0  0  0  0  0  0  0  0  0  0  0  0
  146.8180  159.2070  132.9900 C   0  0  0  0  0  0  0  0  0  0  0  0
  147.9550  159.0210  132.6400 C   0  0  0  0  0  0  0  0  0  0  0  0
  149.3380  158.7820  132.2200 C   0  0  0  0  0  0  0  0  0  0  0  0
  149.6120  157.3510  132.2290 N   0  0  0  0  0  0  0  0  0  0  0  0
  144.6470  158.3090  133.7280 C   0  0  0  0  0  0  0  0  0  0  0  0
  143.3220  158.5510  134.1060 C   0  0  0  0  0  0  0  0  0  0  0  0
  142.9298  155.5721  137.7915 H   0  0  0  0  0  0  0  0  0  0  0  0
  141.9917  156.8857  137.0034 H   0  0  0  0  0  0  0  0  0  0  0  0
  141.3580  155.2048  137.0034 H   0  0  0  0  0  0  0  0  0  0  0  0
  147.7354  153.0600  133.7303 H   0  0  0  0  0  0  0  0  0  0  0  0
  146.4198  153.9042  132.8297 H   0  0  0  0  0  0  0  0  0  0  0  0
  139.4210  158.9980  136.8670 H   0  0  0  0  0  0  0  0  0  0  0  0
  140.7640  160.5582  134.6063 H   0  0  0  0  0  0  0  0  0  0  0  0
  143.1503  161.9490  133.8306 H   0  0  0  0  0  0  0  0  0  0  0  0
  145.5581  161.5843  133.1779 H   0  0  0  0  0  0  0  0  0  0  0  0
  149.4852  159.1764  131.2037 H   0  0  0  0  0  0  0  0  0  0  0  0
  150.0233  159.2892  132.9150 H   0  0  0  0  0  0  0  0  0  0  0  0
  149.7240  157.0420  133.2240 H   0  0  0  0  0  0  0  0  0  0  0  0
  148.7660  156.8610  131.8590 H   0  0  0  0  0  0  0  0  0  0  0  0
  145.0474  157.2851  133.6912 H   0  0  0  0  0  0  0  0  0  0  0  0
  1  2  1  0
  2  3  1  0
  3  4  2  0
  3  5  1  0
  5  6  1  0
  6  7  2  0
  6  8  1  0
  8  9  1  0
  9 10  2  0
  9 11  1  0
  2 12  1  0
 12 13  2  0
 12 14  1  0
 14 15  1  0
 15 16  1  0
 16 17  1  0
 16 18  2  0
 15 19  2  0
 19 20  1  0
 20 21  2  0
 21 22  1  0
 22 23  2  0
 23 24  1  0
 24 25  3  0
 25 26  1  0
 26 27  1  0
 23 28  1  0
 28 29  2  0
 29 14  1  0
 29 20  1  0
  1 30  1  0
  1 31  1  0
  1 32  1  0
  8 33  1  0
  8 34  1  0
 17 35  1  0
 19 36  1  0
 21 37  1  0
 22 38  1  0
 26 39  1  0
 26 40  1  0
 27 41  1  0
 27 42  1  0
 28 43  1  0
M  CHG  2  11  -1  17  -1
M  END
>  <UniqueID>  (68) 
67

>  <SMILES>  (68) 
CN(C(=O)OC(=O)CC(=O)[O-])C(=O)n1c(C([NH-])=O)cc2ccc(C#CCN)cc21

>  <Energy>  (68) 
76.61559376249713

>  <Genealogy>  (68) 
CN(C(=O)OC(=O)CC(=O)[O-])C(=O)n1c(C([NH-])=O)cc2ccc(C#CCN)cc21 (protonated)
CN(C(=O)OC(=O)CC(=O)[O-])C(=O)n1c(C([NH-])=O)cc2ccc(C#CCN)cc21 (3D coordinates assigned)
CN(C(=O)OC(=O)CC(=O)[O-])C(=O)n1c(C([NH-])=O)cc2ccc(C#CCN)cc21 (optimized conformer: 76.61559376249713 kcal/mol)

>  <smiles>  (68) 
CN(C(=O)OC(=O)CC(=O)O)C(=O)n1c(C(N)=O)cc2ccc(C#CCN)cc21

>  <score_type>  (68) 
oracle

>  <origin>  (68) 
adg

>  <m_score__min__energy>  (68) 
-7.79

>  <m_primary>  (68) 
energy

$$$$
69:0
     RDKit          3D

 54 55  0  0  0  0  0  0  0  0999 V2000
  145.0990  156.5380  133.4080 C   0  0  0  0  0  0  0  0  0  0  0  0
  145.4780  155.1240  133.4970 N   0  0  0  0  0  0  0  0  0  0  0  0
  144.5670  154.2250  134.1540 C   0  0  0  0  0  0  0  0  0  0  0  0
  144.8940  153.7110  135.2610 O   0  0  0  0  0  0  0  0  0  0  0  0
  143.2740  153.9360  133.5900 N   0  0  0  0  0  0  0  0  0  0  0  0
  142.8560  152.7490  133.0620 C   0  0  0  0  0  0  0  0  0  0  0  0
  143.7140  151.5760  132.8020 C   0  0  0  0  0  0  0  0  0  0  0  0
  145.1300  151.6940  132.8980 N   0  0  0  0  0  0  0  0  0  0  0  0
  143.2050  150.4570  132.5360 O   0  0  0  0  0  0  0  0  0  0  0  0
  141.5030  152.8070  132.7340 C   0  0  0  0  0  0  0  0  0  0  0  0
  141.0990  154.0760  133.0820 C   0  0  0  0  0  0  0  0  0  0  0  0
  139.8370  154.6600  133.0150 C   0  0  0  0  0  0  0  0  0  0  0  0
  139.6890  155.9660  133.5130 C   0  0  0  0  0  0  0  0  0  0  0  0
  140.7980  156.6600  134.0660 C   0  0  0  0  0  0  0  0  0  0  0  0
  140.6110  158.0510  134.6130 C   0  0  0  0  0  0  0  0  0  0  0  0
  139.4540  158.0910  135.5700 C   0  0  0  0  0  0  0  0  0  0  0  0
  139.5210  157.5280  136.6540 O   0  0  0  0  0  0  0  0  0  0  0  0
  142.0680  156.0400  134.1030 C   0  0  0  0  0  0  0  0  0  0  0  0
  142.1860  154.7390  133.5950 C   0  0  0  0  0  0  0  0  0  0  0  0
  146.8170  154.7200  133.1140 C   0  0  0  0  0  0  0  0  0  0  0  0
  147.4860  155.4650  132.3330 O   0  0  0  0  0  0  0  0  0  0  0  0
  147.4400  153.5280  133.6470 N   0  0  2  0  0  0  0  0  0  0  0  0
  148.0550  153.8140  134.9550 C   0  0  0  0  0  0  0  0  0  0  0  0
  148.3970  153.0250  132.6910 C   0  0  0  0  0  0  0  0  0  0  0  0
  149.3070  153.7790  132.2440 O   0  0  0  0  0  0  0  0  0  0  0  0
  148.2440  151.7210  132.2010 O   0  0  0  0  0  0  0  0  0  0  0  0
  149.0590  150.5880  132.5350 C   0  0  0  0  0  0  0  0  0  0  0  0
  150.1240  150.3450  131.4440 C   0  0  0  0  0  0  0  0  0  0  0  0
  148.1280  149.3700  132.6040 C   0  0  0  0  0  0  0  0  0  0  0  0
  149.7270  150.7900  133.9080 C   0  0  0  0  0  0  0  0  0  0  0  0
  144.9880  156.9523  134.4209 H   0  0  0  0  0  0  0  0  0  0  0  0
  145.8799  157.0936  132.8682 H   0  0  0  0  0  0  0  0  0  0  0  0
  144.1449  156.6286  132.8682 H   0  0  0  0  0  0  0  0  0  0  0  0
  145.5750  152.1380  133.7320 H   0  0  0  0  0  0  0  0  0  0  0  0
  140.8888  152.0090  132.2914 H   0  0  0  0  0  0  0  0  0  0  0  0
  138.9825  154.1164  132.5858 H   0  0  0  0  0  0  0  0  0  0  0  0
  138.7046  156.4554  133.4741 H   0  0  0  0  0  0  0  0  0  0  0  0
  141.5265  158.3587  135.1395 H   0  0  0  0  0  0  0  0  0  0  0  0
  140.4043  158.7360  133.7775 H   0  0  0  0  0  0  0  0  0  0  0  0
  138.5371  158.6321  135.2933 H   0  0  0  0  0  0  0  0  0  0  0  0
  142.9405  156.5647  134.5195 H   0  0  0  0  0  0  0  0  0  0  0  0
  146.7410  152.7670  133.8070 H   0  0  0  0  0  0  0  0  0  0  0  0
  147.3732  153.4969  135.7579 H   0  0  0  0  0  0  0  0  0  0  0  0
  149.0042  153.2649  135.0418 H   0  0  0  0  0  0  0  0  0  0  0  0
  148.2467  154.8937  135.0418 H   0  0  0  0  0  0  0  0  0  0  0  0
  151.0914  150.1243  131.9187 H   0  0  0  0  0  0  0  0  0  0  0  0
  149.8199  149.4932  130.8180 H   0  0  0  0  0  0  0  0  0  0  0  0
  150.2195  151.2444  130.8180 H   0  0  0  0  0  0  0  0  0  0  0  0
  147.9339  149.1160  133.6565 H   0  0  0  0  0  0  0  0  0  0  0  0
  147.1778  149.6059  132.1025 H   0  0  0  0  0  0  0  0  0  0  0  0
  148.6050  148.5150  132.1025 H   0  0  0  0  0  0  0  0  0  0  0  0
  149.0011  150.5705  134.7048 H   0  0  0  0  0  0  0  0  0  0  0  0
  150.5885  150.1122  133.9999 H   0  0  0  0  0  0  0  0  0  0  0  0
  150.0685  151.8316  133.9999 H   0  0  0  0  0  0  0  0  0  0  0  0
  1  2  1  0
  2  3  1  0
  3  4  2  0
  3  5  1  0
  5  6  1  0
  6  7  1  0
  7  8  1  0
  7  9  2  0
  6 10  2  0
 10 11  1  0
 11 12  2  0
 12 13  1  0
 13 14  2  0
 14 15  1  0
 15 16  1  0
 16 17  2  0
 14 18  1  0
 18 19  2  0
  2 20  1  0
 20 21  2  0
 20 22  1  0
 22 23  1  0
 22 24  1  0
 24 25  2  0
 24 26  1  0
 26 27  1  0
 27 28  1  0
 27 29  1  0
 27 30  1  0
 19  5  1  0
 19 11  1  0
  1 31  1  0
  1 32  1  0
  1 33  1  0
  8 34  1  0
 10 35  1  0
 12 36  1  0
 13 37  1  0
 15 38  1  0
 15 39  1  0
 16 40  1  0
 18 41  1  0
 22 42  1  1
 23 43  1  0
 23 44  1  0
 23 45  1  0
 28 46  1  0
 28 47  1  0
 28 48  1  0
 29 49  1  0
 29 50  1  0
 29 51  1  0
 30 52  1  0
 30 53  1  0
 30 54  1  0
M  CHG  2   8  -1  22   1
M  END
>  <UniqueID>  (69) 
68

>  <SMILES>  (69) 
CN(C(=O)n1c(C([NH-])=O)cc2ccc(CC=O)cc21)C(=O)[NH+](C)C(=O)OC(C)(C)C

>  <Energy>  (69) 
89.91524243472537

>  <Genealogy>  (69) 
CN(C(=O)n1c(C([NH-])=O)cc2ccc(CC=O)cc21)C(=O)[NH+](C)C(=O)OC(C)(C)C (protonated)
CN(C(=O)n1c(C([NH-])=O)cc2ccc(CC=O)cc21)C(=O)[NH+](C)C(=O)OC(C)(C)C (3D coordinates assigned)
CN(C(=O)n1c(C([NH-])=O)cc2ccc(CC=O)cc21)C(=O)[NH+](C)C(=O)OC(C)(C)C (optimized conformer: 89.91524243472537 kcal/mol)

>  <smiles>  (69) 
CN(C(=O)OC(C)(C)C)C(=O)N(C)C(=O)n1c(C(N)=O)cc2ccc(CC=O)cc21

>  <score_type>  (69) 
oracle

>  <origin>  (69) 
adg

>  <m_score__min__energy>  (69) 
-8.0099999999999998

>  <m_primary>  (69) 
energy

$$$$
70:0
     RDKit          3D

 42 43  0  0  0  0  0  0  0  0999 V2000
  140.7810  159.7410  136.3010 C   0  0  0  0  0  0  0  0  0  0  0  0
  141.4010  159.3480  134.9460 C   0  0  0  0  0  0  0  0  0  0  0  0
  141.3450  160.5450  133.9720 C   0  0  0  0  0  0  0  0  0  0  0  0
  140.6020  158.1630  134.3620 C   0  0  0  0  0  0  0  0  0  0  0  0
  141.2340  156.9400  134.6420 O   0  0  0  0  0  0  0  0  0  0  0  0
  142.7890  158.9110  135.1350 N   0  0  0  0  0  0  0  0  0  0  0  0
  143.8580  159.0190  134.1840 C   0  0  0  0  0  0  0  0  0  0  0  0
  144.5260  160.0820  134.0830 O   0  0  0  0  0  0  0  0  0  0  0  0
  144.1790  157.8730  133.3220 C   0  0  0  0  0  0  0  0  0  0  0  0
  143.3110  157.4290  132.5240 O   0  0  0  0  0  0  0  0  0  0  0  0
  145.4760  157.2570  133.3750 N   0  0  0  0  0  0  0  0  0  0  0  0
  145.7820  155.9840  133.7530 C   0  0  0  0  0  0  0  0  0  0  0  0
  144.8330  154.9910  134.3050 C   0  0  0  0  0  0  0  0  0  0  0  0
  143.5050  155.3650  134.6650 N   0  0  0  0  0  0  0  0  0  0  0  0
  145.2110  153.8040  134.4900 O   0  0  0  0  0  0  0  0  0  0  0  0
  147.1470  155.7490  133.6070 C   0  0  0  0  0  0  0  0  0  0  0  0
  147.6720  156.9250  133.1200 C   0  0  0  0  0  0  0  0  0  0  0  0
  148.9830  157.2550  132.7880 C   0  0  0  0  0  0  0  0  0  0  0  0
  149.2320  158.5460  132.2910 C   0  0  0  0  0  0  0  0  0  0  0  0
  148.1700  159.4700  132.1160 C   0  0  0  0  0  0  0  0  0  0  0  0
  148.4490  160.8550  131.6040 C   0  0  0  0  0  0  0  0  0  0  0  0
  149.2440  160.7860  130.3400 C   0  0  0  0  0  0  0  0  0  0  0  0
  149.9240  161.7770  129.9630 O   0  0  0  0  0  0  0  0  0  0  0  0
  149.2720  159.6100  129.6000 O   0  0  0  0  0  0  0  0  0  0  0  0
  146.8540  159.1010  132.4700 C   0  0  0  0  0  0  0  0  0  0  0  0
  146.6410  157.8170  132.9830 C   0  0  0  0  0  0  0  0  0  0  0  0
  141.4037  159.3463  137.1174 H   0  0  0  0  0  0  0  0  0  0  0  0
  140.7292  160.8372  136.3764 H   0  0  0  0  0  0  0  0  0  0  0  0
  139.7676  159.3200  136.3764 H   0  0  0  0  0  0  0  0  0  0  0  0
  141.3011  161.4826  134.5455 H   0  0  0  0  0  0  0  0  0  0  0  0
  142.2442  160.5445  133.3383 H   0  0  0  0  0  0  0  0  0  0  0  0
  140.4498  160.4605  133.3383 H   0  0  0  0  0  0  0  0  0  0  0  0
  139.5947  158.1563  134.8039 H   0  0  0  0  0  0  0  0  0  0  0  0
  140.5444  158.2846  133.2703 H   0  0  0  0  0  0  0  0  0  0  0  0
  142.1700  157.0170  134.3220 H   0  0  0  0  0  0  0  0  0  0  0  0
  142.9080  155.9220  134.0150 H   0  0  0  0  0  0  0  0  0  0  0  0
  147.6909  154.8200  133.8330 H   0  0  0  0  0  0  0  0  0  0  0  0
  149.7991  156.5277  132.9108 H   0  0  0  0  0  0  0  0  0  0  0  0
  150.2600  158.8426  132.0354 H   0  0  0  0  0  0  0  0  0  0  0  0
  147.4964  161.3686  131.4069 H   0  0  0  0  0  0  0  0  0  0  0  0
  149.0239  161.4090  132.3606 H   0  0  0  0  0  0  0  0  0  0  0  0
  146.0178  159.8048  132.3457 H   0  0  0  0  0  0  0  0  0  0  0  0
  1  2  1  0
  2  3  1  0
  2  4  1  0
  4  5  1  0
  2  6  1  0
  6  7  1  0
  7  8  2  0
  7  9  1  0
  9 10  2  0
  9 11  1  0
 11 12  1  0
 12 13  1  0
 13 14  1  0
 13 15  2  0
 12 16  2  0
 16 17  1  0
 17 18  2  0
 18 19  1  0
 19 20  2  0
 20 21  1  0
 21 22  1  0
 22 23  2  0
 22 24  1  0
 20 25  1  0
 25 26  2  0
 26 11  1  0
 26 17  1  0
  1 27  1  0
  1 28  1  0
  1 29  1  0
  3 30  1  0
  3 31  1  0
  3 32  1  0
  4 33  1  0
  4 34  1  0
  5 35  1  0
 14 36  1  0
 16 37  1  0
 18 38  1  0
 19 39  1  0
 21 40  1  0
 21 41  1  0
 25 42  1  0
M  CHG  3   6  -1  14  -1  24  -1
M  END
>  <UniqueID>  (70) 
69

>  <SMILES>  (70) 
CC(C)(CO)[N-]C(=O)C(=O)n1c(C([NH-])=O)cc2ccc(CC(=O)[O-])cc21

>  <Energy>  (70) 
74.92544457665792

>  <Genealogy>  (70) 
CC(C)(CO)[N-]C(=O)C(=O)n1c(C([NH-])=O)cc2ccc(CC(=O)[O-])cc21 (protonated)
CC(C)(CO)[N-]C(=O)C(=O)n1c(C([NH-])=O)cc2ccc(CC(=O)[O-])cc21 (3D coordinates assigned)
CC(C)(CO)[N-]C(=O)C(=O)n1c(C([NH-])=O)cc2ccc(CC(=O)[O-])cc21 (optimized conformer: 74.92544457665792 kcal/mol)

>  <smiles>  (70) 
CC(C)(CO)NC(=O)C(=O)n1c(C(N)=O)cc2ccc(CC(=O)O)cc21

>  <score_type>  (70) 
oracle

>  <origin>  (70) 
adg

>  <m_score__min__energy>  (70) 
-6.5899999999999999

>  <m_primary>  (70) 
energy

$$$$
71:0
     RDKit          3D

 45 47  0  0  0  0  0  0  0  0999 V2000
  142.9020  155.3260  136.4410 C   0  0  0  0  0  0  0  0  0  0  0  0
  143.1520  155.4250  135.0010 N   0  0  0  0  0  0  0  0  0  0  0  0
  144.2660  154.6830  134.3960 C   0  0  0  0  0  0  0  0  0  0  0  0
  145.5060  154.8290  135.2220 C   0  0  0  0  0  0  0  0  0  0  0  0
  146.1340  155.9200  135.2350 O   0  0  0  0  0  0  0  0  0  0  0  0
  145.9870  153.7510  135.9550 O   0  0  0  0  0  0  0  0  0  0  0  0
  142.2820  156.2400  134.1890 C   0  0  0  0  0  0  0  0  0  0  0  0
  141.5050  155.7020  133.3550 O   0  0  0  0  0  0  0  0  0  0  0  0
  142.2910  157.6680  134.3090 N   0  0  0  0  0  0  0  0  0  0  0  0
  141.2720  158.4820  134.6970 C   0  0  0  0  0  0  0  0  0  0  0  0
  139.9190  158.0400  135.0940 C   0  0  0  0  0  0  0  0  0  0  0  0
  139.5750  157.8700  136.4670 N   0  0  0  0  0  0  0  0  0  0  0  0
  139.0530  157.8080  134.2090 O   0  0  0  0  0  0  0  0  0  0  0  0
  141.6840  159.8150  134.6760 C   0  0  0  0  0  0  0  0  0  0  0  0
  142.9960  159.7840  134.2550 C   0  0  0  0  0  0  0  0  0  0  0  0
  143.9060  160.8200  134.0700 C   0  0  0  0  0  0  0  0  0  0  0  0
  145.2060  160.4870  133.6490 C   0  0  0  0  0  0  0  0  0  0  0  0
  145.5730  159.1330  133.4170 C   0  0  0  0  0  0  0  0  0  0  0  0
  146.9180  158.7970  133.0150 N   0  0  0  0  0  0  0  0  0  0  0  0
  147.2910  157.3860  132.8540 C   0  0  0  0  0  0  0  0  0  0  0  0
  148.8060  157.2380  132.6820 C   0  0  0  0  0  0  0  0  0  0  0  0
  149.2940  158.1350  131.6280 N   0  0  0  0  0  0  0  0  0  0  0  0
  148.9790  159.5620  131.8620 C   0  0  0  0  0  0  0  0  0  0  0  0
  147.9680  159.8230  132.9970 C   0  0  0  0  0  0  0  0  0  0  0  0
  144.6130  158.1130  133.6130 C   0  0  0  0  0  0  0  0  0  0  0  0
  143.3340  158.4760  134.0350 C   0  0  0  0  0  0  0  0  0  0  0  0
  143.7873  155.6766  136.9918 H   0  0  0  0  0  0  0  0  0  0  0  0
  142.0348  155.9486  136.7063 H   0  0  0  0  0  0  0  0  0  0  0  0
  142.6962  154.2785  136.7063 H   0  0  0  0  0  0  0  0  0  0  0  0
  143.9982  153.6181  134.3309 H   0  0  0  0  0  0  0  0  0  0  0  0
  144.4587  155.0887  133.3919 H   0  0  0  0  0  0  0  0  0  0  0  0
  139.0580  158.6140  136.9870 H   0  0  0  0  0  0  0  0  0  0  0  0
  141.0886  160.7016  134.9393 H   0  0  0  0  0  0  0  0  0  0  0  0
  143.6178  161.8667  134.2474 H   0  0  0  0  0  0  0  0  0  0  0  0
  145.9484  161.2843  133.4972 H   0  0  0  0  0  0  0  0  0  0  0  0
  146.9731  156.8254  133.7454 H   0  0  0  0  0  0  0  0  0  0  0  0
  146.7947  156.9913  131.9551 H   0  0  0  0  0  0  0  0  0  0  0  0
  149.3041  157.4889  133.6301 H   0  0  0  0  0  0  0  0  0  0  0  0
  149.0319  156.1996  132.3980 H   0  0  0  0  0  0  0  0  0  0  0  0
  148.8630  157.8370  130.7210 H   0  0  0  0  0  0  0  0  0  0  0  0
  149.9153  160.0828  132.1112 H   0  0  0  0  0  0  0  0  0  0  0  0
  148.5098  159.9313  130.9381 H   0  0  0  0  0  0  0  0  0  0  0  0
  148.4985  159.8113  133.9605 H   0  0  0  0  0  0  0  0  0  0  0  0
  147.4969  160.8024  132.8273 H   0  0  0  0  0  0  0  0  0  0  0  0
  144.8691  157.0579  133.4367 H   0  0  0  0  0  0  0  0  0  0  0  0
  1  2  1  0
  2  3  1  0
  3  4  1  0
  4  5  2  0
  4  6  1  0
  2  7  1  0
  7  8  2  0
  7  9  1  0
  9 10  1  0
 10 11  1  0
 11 12  1  0
 11 13  2  0
 10 14  2  0
 14 15  1  0
 15 16  2  0
 16 17  1  0
 17 18  2  0
 18 19  1  0
 19 20  1  0
 20 21  1  0
 21 22  1  0
 22 23  1  0
 23 24  1  0
 18 25  1  0
 25 26  2  0
 26  9  1  0
 26 15  1  0
 24 19  1  0
  1 27  1  0
  1 28  1  0
  1 29  1  0
  3 30  1  0
  3 31  1  0
 12 32  1  0
 14 33  1  0
 16 34  1  0
 17 35  1  0
 20 36  1  0
 20 37  1  0
 21 38  1  0
 21 39  1  0
 22 40  1  0
 23 41  1  0
 23 42  1  0
 24 43  1  0
 24 44  1  0
 25 45  1  0
M  CHG  2   6  -1  12  -1
M  END
>  <UniqueID>  (71) 
70

>  <SMILES>  (71) 
CN(CC(=O)[O-])C(=O)n1c(C([NH-])=O)cc2ccc(N3CCNCC3)cc21

>  <Energy>  (71) 
89.75810044717711

>  <Genealogy>  (71) 
CN(CC(=O)[O-])C(=O)n1c(C([NH-])=O)cc2ccc(N3CCNCC3)cc21 (protonated)
CN(CC(=O)[O-])C(=O)n1c(C([NH-])=O)cc2ccc(N3CCNCC3)cc21 (3D coordinates assigned)
CN(CC(=O)[O-])C(=O)n1c(C([NH-])=O)cc2ccc(N3CCNCC3)cc21 (nonaromatic ring conformer: 89.75810044717711 kcal/mol)

>  <smiles>  (71) 
CN(CC(=O)O)C(=O)n1c(C(N)=O)cc2ccc(N3CCNCC3)cc21

>  <score_type>  (71) 
oracle

>  <origin>  (71) 
adg

>  <m_score__min__energy>  (71) 
-7.5

>  <m_primary>  (71) 
energy

$$$$
72:0
     RDKit          3D

 28 29  0  0  0  0  0  0  0  0999 V2000
  140.3480  159.2590  133.6740 C   0  0  0  0  0  0  0  0  0  0  0  0
  141.4020  158.6960  134.6250 C   0  0  2  0  0  0  0  0  0  0  0  0
  141.0240  159.1580  136.3090 Cl  0  0  0  0  0  0  0  0  0  0  0  0
  142.7870  159.1660  134.2420 C   0  0  0  0  0  0  0  0  0  0  0  0
  143.0650  160.5510  134.0960 C   0  0  0  0  0  0  0  0  0  0  0  0
  144.3480  160.9920  133.7370 C   0  0  0  0  0  0  0  0  0  0  0  0
  145.3310  160.0310  133.5160 C   0  0  0  0  0  0  0  0  0  0  0  0
  146.6570  160.1860  133.1880 C   0  0  0  0  0  0  0  0  0  0  0  0
  147.1660  158.8930  133.1010 C   0  0  0  0  0  0  0  0  0  0  0  0
  148.5560  158.5950  132.7060 C   0  0  0  0  0  0  0  0  0  0  0  0
  148.8620  157.4840  131.8600 N   0  0  0  0  0  0  0  0  0  0  0  0
  149.4840  159.3650  133.0720 O   0  0  0  0  0  0  0  0  0  0  0  0
  146.1990  157.9730  133.3760 N   0  0  0  0  0  0  0  0  0  0  0  0
  146.3630  156.5510  133.5050 C   0  0  0  0  0  0  0  0  0  0  0  0
  146.6690  155.8480  132.5060 O   0  0  0  0  0  0  0  0  0  0  0  0
  146.1790  155.9320  134.7360 O   0  0  0  0  0  0  0  0  0  0  0  0
  145.0770  158.6870  133.6250 C   0  0  0  0  0  0  0  0  0  0  0  0
  143.8110  158.2210  134.0020 C   0  0  0  0  0  0  0  0  0  0  0  0
  139.5253  159.6985  134.2571 H   0  0  0  0  0  0  0  0  0  0  0  0
  140.8029  160.0342  133.0399 H   0  0  0  0  0  0  0  0  0  0  0  0
  139.9566  158.4498  133.0399 H   0  0  0  0  0  0  0  0  0  0  0  0
  141.3852  157.5989  134.5472 H   0  0  0  0  0  0  0  0  0  0  0  0
  142.2652  161.2868  134.2663 H   0  0  0  0  0  0  0  0  0  0  0  0
  144.5703  162.0643  133.6334 H   0  0  0  0  0  0  0  0  0  0  0  0
  147.1996  161.1295  133.0285 H   0  0  0  0  0  0  0  0  0  0  0  0
  148.1050  156.9270  131.4070 H   0  0  0  0  0  0  0  0  0  0  0  0
  149.8550  157.2670  131.6200 H   0  0  0  0  0  0  0  0  0  0  0  0
  143.6177  157.1434  134.1090 H   0  0  0  0  0  0  0  0  0  0  0  0
  1  2  1  0
  2  3  1  0
  2  4  1  0
  4  5  2  0
  5  6  1  0
  6  7  2  0
  7  8  1  0
  8  9  2  0
  9 10  1  0
 10 11  1  0
 10 12  2  0
  9 13  1  0
 13 14  1  0
 14 15  2  0
 14 16  1  0
 13 17  1  0
 17 18  2  0
 18  4  1  0
 17  7  1  0
  1 19  1  0
  1 20  1  0
  1 21  1  0
  2 22  1  1
  5 23  1  0
  6 24  1  0
  8 25  1  0
 11 26  1  0
 11 27  1  0
 18 28  1  0
M  CHG  1  16  -1
M  END
>  <UniqueID>  (72) 
71

>  <SMILES>  (72) 
C[C@H](Cl)c1ccc2cc(C(N)=O)n(C(=O)[O-])c2c1

>  <Energy>  (72) 
66.28001537289755

>  <Genealogy>  (72) 
CC(Cl)c1ccc2cc(C(N)=O)n(C(=O)[O-])c2c1 (protonated)
C[C@H](Cl)c1ccc2cc(C(N)=O)n(C(=O)[O-])c2c1 (chirality)
C[C@H](Cl)c1ccc2cc(C(N)=O)n(C(=O)[O-])c2c1 (3D coordinates assigned)
C[C@H](Cl)c1ccc2cc(C(N)=O)n(C(=O)[O-])c2c1 (optimized conformer: 66.28001537289755 kcal/mol)

>  <smiles>  (72) 
CC(Cl)c1ccc2cc(C(N)=O)n(C(=O)O)c2c1

>  <score_type>  (72) 
oracle

>  <origin>  (72) 
adg

>  <m_score__min__energy>  (72) 
-6.2800000000000002

>  <m_primary>  (72) 
energy

$$$$
73:0
     RDKit          3D

 40 41  0  0  0  0  0  0  0  0999 V2000
  142.9370  154.2900  135.5830 C   0  0  0  0  0  0  0  0  0  0  0  0
  141.9810  153.9670  136.5840 O   0  0  0  0  0  0  0  0  0  0  0  0
  142.0810  154.4300  137.8990 C   0  0  0  0  0  0  0  0  0  0  0  0
  143.0780  154.1320  138.6130 O   0  0  0  0  0  0  0  0  0  0  0  0
  141.0220  155.3310  138.4450 C   0  0  0  0  0  0  0  0  0  0  0  0
  141.4790  156.7240  138.3990 N   0  0  0  0  0  0  0  0  0  0  0  0
  142.1300  157.3180  139.5750 C   0  0  0  0  0  0  0  0  0  0  0  0
  142.0180  156.3910  140.7840 C   0  0  0  0  0  0  0  0  0  0  0  0
  143.1560  155.5800  140.8690 O   0  0  0  0  0  0  0  0  0  0  0  0
  141.1910  157.5330  137.2440 C   0  0  0  0  0  0  0  0  0  0  0  0
  141.2930  158.9440  137.3130 C   0  0  0  0  0  0  0  0  0  0  0  0
  141.0140  159.7380  136.1880 C   0  0  0  0  0  0  0  0  0  0  0  0
  140.6470  159.0930  135.0100 C   0  0  0  0  0  0  0  0  0  0  0  0
  140.2930  159.6210  133.7890 C   0  0  0  0  0  0  0  0  0  0  0  0
  140.0110  158.5210  132.9830 C   0  0  0  0  0  0  0  0  0  0  0  0
  139.6460  158.6340  131.5570 C   0  0  0  0  0  0  0  0  0  0  0  0
  138.4220  158.0910  131.0610 N   0  0  0  0  0  0  0  0  0  0  0  0
  140.4540  159.1680  130.7510 O   0  0  0  0  0  0  0  0  0  0  0  0
  140.1690  157.3590  133.6780 N   0  0  0  0  0  0  0  0  0  0  0  0
  139.8620  156.0260  133.2350 C   0  0  0  0  0  0  0  0  0  0  0  0
  139.1130  155.8430  132.2380 O   0  0  0  0  0  0  0  0  0  0  0  0
  140.3860  154.9230  133.8990 O   0  0  0  0  0  0  0  0  0  0  0  0
  140.5620  157.7280  134.9190 C   0  0  0  0  0  0  0  0  0  0  0  0
  140.8140  156.9150  136.0310 C   0  0  0  0  0  0  0  0  0  0  0  0
  143.8756  154.6071  136.0610 H   0  0  0  0  0  0  0  0  0  0  0  0
  143.1251  153.4055  134.9566 H   0  0  0  0  0  0  0  0  0  0  0  0
  142.5501  155.1073  134.9566 H   0  0  0  0  0  0  0  0  0  0  0  0
  140.1080  155.2269  137.8418 H   0  0  0  0  0  0  0  0  0  0  0  0
  140.8127  155.0529  139.4885 H   0  0  0  0  0  0  0  0  0  0  0  0
  143.1929  157.4903  139.3501 H   0  0  0  0  0  0  0  0  0  0  0  0
  141.6295  158.2684  139.8122 H   0  0  0  0  0  0  0  0  0  0  0  0
  141.9308  156.9944  141.6996 H   0  0  0  0  0  0  0  0  0  0  0  0
  141.1274  155.7552  140.6718 H   0  0  0  0  0  0  0  0  0  0  0  0
  143.6350  155.6870  140.0070 H   0  0  0  0  0  0  0  0  0  0  0  0
  141.5936  159.4228  138.2566 H   0  0  0  0  0  0  0  0  0  0  0  0
  141.0834  160.8348  136.2364 H   0  0  0  0  0  0  0  0  0  0  0  0
  140.2435  160.6838  133.5099 H   0  0  0  0  0  0  0  0  0  0  0  0
  137.8160  157.4910  131.6630 H   0  0  0  0  0  0  0  0  0  0  0  0
  138.1600  158.2160  130.0580 H   0  0  0  0  0  0  0  0  0  0  0  0
  140.7206  155.8212  135.9616 H   0  0  0  0  0  0  0  0  0  0  0  0
  1  2  1  0
  2  3  1  0
  3  4  2  0
  3  5  1  0
  5  6  1  0
  6  7  1  0
  7  8  1  0
  8  9  1  0
  6 10  1  0
 10 11  2  0
 11 12  1  0
 12 13  2  0
 13 14  1  0
 14 15  2  0
 15 16  1  0
 16 17  1  0
 16 18  2  0
 15 19  1  0
 19 20  1  0
 20 21  2  0
 20 22  1  0
 19 23  1  0
 23 24  2  0
 24 10  1  0
 23 13  1  0
  1 25  1  0
  1 26  1  0
  1 27  1  0
  5 28  1  0
  5 29  1  0
  7 30  1  0
  7 31  1  0
  8 32  1  0
  8 33  1  0
  9 34  1  0
 11 35  1  0
 12 36  1  0
 14 37  1  0
 17 38  1  0
 17 39  1  0
 24 40  1  0
M  CHG  1  22  -1
M  END
>  <UniqueID>  (73) 
72

>  <SMILES>  (73) 
COC(=O)CN(CCO)c1ccc2cc(C(N)=O)n(C(=O)[O-])c2c1

>  <Energy>  (73) 
76.78380057347435

>  <Genealogy>  (73) 
COC(=O)CN(CCO)c1ccc2cc(C(N)=O)n(C(=O)[O-])c2c1 (protonated)
COC(=O)CN(CCO)c1ccc2cc(C(N)=O)n(C(=O)[O-])c2c1 (3D coordinates assigned)
COC(=O)CN(CCO)c1ccc2cc(C(N)=O)n(C(=O)[O-])c2c1 (optimized conformer: 76.78380057347435 kcal/mol)

>  <smiles>  (73) 
COC(=O)CN(CCO)c1ccc2cc(C(N)=O)n(C(=O)O)c2c1

>  <score_type>  (73) 
oracle

>  <origin>  (73) 
adg

>  <m_score__min__energy>  (73) 
-6.0800000000000001

>  <m_primary>  (73) 
energy

$$$$
74:0
     RDKit          3D

 35 36  0  0  0  0  0  0  0  0999 V2000
  149.7350  157.5340  131.8870 N   0  0  0  0  0  0  0  0  0  0  0  0
  149.2420  158.8500  132.1260 C   0  0  0  0  0  0  0  0  0  0  0  0
  149.9630  159.8410  131.8340 O   0  0  0  0  0  0  0  0  0  0  0  0
  147.8800  159.0670  132.6550 C   0  0  0  0  0  0  0  0  0  0  0  0
  147.3600  160.3290  132.9380 C   0  0  0  0  0  0  0  0  0  0  0  0
  146.0570  160.1100  133.3210 C   0  0  0  0  0  0  0  0  0  0  0  0
  145.0850  161.0120  133.7370 C   0  0  0  0  0  0  0  0  0  0  0  0
  143.8310  160.5030  134.1150 C   0  0  0  0  0  0  0  0  0  0  0  0
  143.5680  159.1090  134.0630 C   0  0  0  0  0  0  0  0  0  0  0  0
  142.2410  158.5690  134.5300 C   0  0  0  0  0  0  0  0  0  0  0  0
  141.7550  159.3740  135.5450 F   0  0  0  0  0  0  0  0  0  0  0  0
  141.3270  158.5520  133.4910 F   0  0  0  0  0  0  0  0  0  0  0  0
  142.3780  157.2770  135.0060 F   0  0  0  0  0  0  0  0  0  0  0  0
  144.5930  158.2230  133.6570 C   0  0  0  0  0  0  0  0  0  0  0  0
  145.8260  158.7600  133.2670 C   0  0  0  0  0  0  0  0  0  0  0  0
  146.9380  158.1050  132.8620 N   0  0  0  0  0  0  0  0  0  0  0  0
  147.1080  156.6810  132.7820 C   0  0  0  0  0  0  0  0  0  0  0  0
  146.9980  156.0930  131.6730 O   0  0  0  0  0  0  0  0  0  0  0  0
  147.3780  155.9500  133.9430 O   0  0  0  0  0  0  0  0  0  0  0  0
  146.9500  154.6040  134.1250 C   0  0  0  0  0  0  0  0  0  0  0  0
  148.1430  153.6560  134.0170 C   0  0  0  0  0  0  0  0  0  0  0  0
  148.7600  153.6750  132.6140 C   0  0  0  0  0  0  0  0  0  0  0  0
  149.5740  154.8050  132.4590 O   0  0  0  0  0  0  0  0  0  0  0  0
  149.0800  156.7350  131.7350 H   0  0  0  0  0  0  0  0  0  0  0  0
  147.8812  161.2953  132.8696 H   0  0  0  0  0  0  0  0  0  0  0  0
  145.2912  162.0920  133.7694 H   0  0  0  0  0  0  0  0  0  0  0  0
  143.0443  161.1925  134.4550 H   0  0  0  0  0  0  0  0  0  0  0  0
  144.4253  157.1359  133.6478 H   0  0  0  0  0  0  0  0  0  0  0  0
  146.4906  154.4993  135.1190 H   0  0  0  0  0  0  0  0  0  0  0  0
  146.2163  154.3504  133.3457 H   0  0  0  0  0  0  0  0  0  0  0  0
  148.9077  153.9614  134.7464 H   0  0  0  0  0  0  0  0  0  0  0  0
  147.7879  152.6350  134.2205 H   0  0  0  0  0  0  0  0  0  0  0  0
  149.3660  152.7682  132.4712 H   0  0  0  0  0  0  0  0  0  0  0  0
  147.9530  153.7086  131.8672 H   0  0  0  0  0  0  0  0  0  0  0  0
  148.9670  155.5920  132.4380 H   0  0  0  0  0  0  0  0  0  0  0  0
  1  2  1  0
  2  3  2  0
  2  4  1  0
  4  5  2  0
  5  6  1  0
  6  7  2  0
  7  8  1  0
  8  9  2  0
  9 10  1  0
 10 11  1  0
 10 12  1  0
 10 13  1  0
  9 14  1  0
 14 15  2  0
 15 16  1  0
 16 17  1  0
 17 18  2  0
 17 19  1  0
 19 20  1  0
 20 21  1  0
 21 22  1  0
 22 23  1  0
 16  4  1  0
 15  6  1  0
  1 24  1  0
  5 25  1  0
  7 26  1  0
  8 27  1  0
 14 28  1  0
 20 29  1  0
 20 30  1  0
 21 31  1  0
 21 32  1  0
 22 33  1  0
 22 34  1  0
 23 35  1  0
M  CHG  1   1  -1
M  END
>  <UniqueID>  (74) 
73

>  <SMILES>  (74) 
[NH-]C(=O)c1cc2ccc(C(F)(F)F)cc2n1C(=O)OCCCO

>  <Energy>  (74) 
68.22209215425177

>  <Genealogy>  (74) 
[NH-]C(=O)c1cc2ccc(C(F)(F)F)cc2n1C(=O)OCCCO (protonated)
[NH-]C(=O)c1cc2ccc(C(F)(F)F)cc2n1C(=O)OCCCO (3D coordinates assigned)
[NH-]C(=O)c1cc2ccc(C(F)(F)F)cc2n1C(=O)OCCCO (optimized conformer: 68.22209215425177 kcal/mol)

>  <smiles>  (74) 
NC(=O)c1cc2ccc(C(F)(F)F)cc2n1C(=O)OCCCO

>  <score_type>  (74) 
oracle

>  <origin>  (74) 
adg

>  <m_score__min__energy>  (74) 
-5.46

>  <m_primary>  (74) 
energy

$$$$
75:0
     RDKit          3D

 51 53  0  0  0  0  0  0  0  0999 V2000
  149.5640  160.9550  130.3650 C   0  0  0  0  0  0  0  0  0  0  0  0
  149.2570  159.4620  130.3480 C   0  0  0  0  0  0  0  0  0  0  0  0
  149.7300  158.8370  131.5390 O   0  0  0  0  0  0  0  0  0  0  0  0
  149.0750  158.9350  132.7730 C   0  0  0  0  0  0  0  0  0  0  0  0
  148.8200  160.0680  133.2720 O   0  0  0  0  0  0  0  0  0  0  0  0
  148.7060  157.7320  133.4800 N   0  0  2  0  0  0  0  0  0  0  0  0
  148.5110  156.5950  132.5340 C   0  0  0  0  0  0  0  0  0  0  0  0
  147.0340  156.2280  132.3340 C   0  0  0  0  0  0  0  0  0  0  0  0
  146.4020  155.8210  133.6810 C   0  0  2  0  0  0  0  0  0  0  0  0
  144.8890  155.7630  133.5670 C   0  0  0  0  0  0  0  0  0  0  0  0
  144.2060  154.5180  133.5360 C   0  0  0  0  0  0  0  0  0  0  0  0
  142.8040  154.4660  133.4540 C   0  0  0  0  0  0  0  0  0  0  0  0
  142.1100  155.6700  133.4070 C   0  0  0  0  0  0  0  0  0  0  0  0
  140.7540  155.9130  133.3530 C   0  0  0  0  0  0  0  0  0  0  0  0
  140.6290  157.3020  133.3460 C   0  0  0  0  0  0  0  0  0  0  0  0
  139.3370  158.0110  133.2370 C   0  0  0  0  0  0  0  0  0  0  0  0
  139.1030  158.9520  132.1920 N   0  0  0  0  0  0  0  0  0  0  0  0
  138.4150  157.7580  134.0570 O   0  0  0  0  0  0  0  0  0  0  0  0
  141.8570  157.8890  133.3980 N   0  0  0  0  0  0  0  0  0  0  0  0
  142.1670  159.2860  133.4960 C   0  0  0  0  0  0  0  0  0  0  0  0
  141.6720  160.0940  132.6670 O   0  0  0  0  0  0  0  0  0  0  0  0
  143.1660  159.7690  134.5010 C   0  0  0  0  0  0  0  0  0  0  0  0
  144.3020  160.4420  133.8020 C   0  0  0  0  0  0  0  0  0  0  0  0
  144.4220  161.6940  133.8510 O   0  0  0  0  0  0  0  0  0  0  0  0
  145.2570  159.6840  133.1370 O   0  0  0  0  0  0  0  0  0  0  0  0
  142.7500  156.8800  133.4310 C   0  0  0  0  0  0  0  0  0  0  0  0
  144.1420  156.9640  133.5220 C   0  0  0  0  0  0  0  0  0  0  0  0
  146.8740  156.7240  134.8530 C   0  0  0  0  0  0  0  0  0  0  0  0
  147.5440  158.0150  134.3590 C   0  0  0  0  0  0  0  0  0  0  0  0
  149.6355  161.3028  131.4061 H   0  0  0  0  0  0  0  0  0  0  0  0
  150.5187  161.1389  129.8506 H   0  0  0  0  0  0  0  0  0  0  0  0
  148.7593  161.5007  129.8506 H   0  0  0  0  0  0  0  0  0  0  0  0
  148.1691  159.3178  130.2720 H   0  0  0  0  0  0  0  0  0  0  0  0
  149.7634  159.0065  129.4843 H   0  0  0  0  0  0  0  0  0  0  0  0
  149.5100  157.4830  134.1040 H   0  0  0  0  0  0  0  0  0  0  0  0
  148.9383  156.8728  131.5592 H   0  0  0  0  0  0  0  0  0  0  0  0
  149.0126  155.7169  132.9669 H   0  0  0  0  0  0  0  0  0  0  0  0
  146.4952  157.0963  131.9269 H   0  0  0  0  0  0  0  0  0  0  0  0
  146.9647  155.3826  131.6337 H   0  0  0  0  0  0  0  0  0  0  0  0
  146.7568  154.8085  133.9239 H   0  0  0  0  0  0  0  0  0  0  0  0
  144.7822  153.5819  133.5767 H   0  0  0  0  0  0  0  0  0  0  0  0
  142.2725  153.5033  133.4278 H   0  0  0  0  0  0  0  0  0  0  0  0
  139.9436  155.1699  133.3220 H   0  0  0  0  0  0  0  0  0  0  0  0
  139.8990  159.3830  131.6720 H   0  0  0  0  0  0  0  0  0  0  0  0
  142.6819  160.4836  135.1828 H   0  0  0  0  0  0  0  0  0  0  0  0
  143.5488  158.9114  135.0738 H   0  0  0  0  0  0  0  0  0  0  0  0
  144.6455  157.9414  133.5578 H   0  0  0  0  0  0  0  0  0  0  0  0
  146.0018  156.9907  135.4679 H   0  0  0  0  0  0  0  0  0  0  0  0
  147.6175  156.1597  135.4351 H   0  0  0  0  0  0  0  0  0  0  0  0
  146.8067  158.6055  133.7953 H   0  0  0  0  0  0  0  0  0  0  0  0
  147.9068  158.5693  135.2371 H   0  0  0  0  0  0  0  0  0  0  0  0
  1  2  1  0
  2  3  1  0
  3  4  1  0
  4  5  2  0
  4  6  1  0
  6  7  1  0
  7  8  1  0
  8  9  1  0
  9 10  1  0
 10 11  2  0
 11 12  1  0
 12 13  2  0
 13 14  1  0
 14 15  2  0
 15 16  1  0
 16 17  1  0
 16 18  2  0
 15 19  1  0
 19 20  1  0
 20 21  2  0
 20 22  1  0
 22 23  1  0
 23 24  2  0
 23 25  1  0
 19 26  1  0
 26 27  2  0
  9 28  1  0
 28 29  1  0
 29  6  1  0
 27 10  1  0
 26 13  1  0
  1 30  1  0
  1 31  1  0
  1 32  1  0
  2 33  1  0
  2 34  1  0
  6 35  1  1
  7 36  1  0
  7 37  1  0
  8 38  1  0
  8 39  1  0
  9 40  1  1
 11 41  1  0
 12 42  1  0
 14 43  1  0
 17 44  1  0
 22 45  1  0
 22 46  1  0
 27 47  1  0
 28 48  1  0
 28 49  1  0
 29 50  1  0
 29 51  1  0
M  CHG  3   6   1  17  -1  25  -1
M  END
>  <UniqueID>  (75) 
74

>  <SMILES>  (75) 
CCOC(=O)[NH+]1CCC(c2ccc3cc(C([NH-])=O)n(C(=O)CC(=O)[O-])c3c2)CC1

>  <Energy>  (75) 
96.15184424269297

>  <Genealogy>  (75) 
CCOC(=O)[NH+]1CCC(c2ccc3cc(C([NH-])=O)n(C(=O)CC(=O)[O-])c3c2)CC1 (protonated)
CCOC(=O)[NH+]1CCC(c2ccc3cc(C([NH-])=O)n(C(=O)CC(=O)[O-])c3c2)CC1 (3D coordinates assigned)
CCOC(=O)[NH+]1CCC(c2ccc3cc(C([NH-])=O)n(C(=O)CC(=O)[O-])c3c2)CC1 (nonaromatic ring conformer: 96.15184424269297 kcal/mol)

>  <smiles>  (75) 
CCOC(=O)N1CCC(c2ccc3cc(C(N)=O)n(C(=O)CC(=O)O)c3c2)CC1

>  <score_type>  (75) 
oracle

>  <origin>  (75) 
adg

>  <m_score__min__energy>  (75) 
-7.3499999999999996

>  <m_primary>  (75) 
energy

$$$$
76:0
     RDKit          3D

 35 37  0  0  0  0  0  0  0  0999 V2000
  149.5890  161.8050  130.0030 C   0  0  0  0  0  0  0  0  0  0  0  0
  149.6110  161.2240  131.3010 O   0  0  0  0  0  0  0  0  0  0  0  0
  149.4960  159.8450  131.5120 C   0  0  0  0  0  0  0  0  0  0  0  0
  150.3950  159.0600  131.1040 O   0  0  0  0  0  0  0  0  0  0  0  0
  148.3520  159.3220  132.1930 N   0  0  0  0  0  0  0  0  0  0  0  0
  147.1420  159.9050  132.2700 C   0  0  0  0  0  0  0  0  0  0  0  0
  146.3140  159.0850  133.0180 C   0  0  0  0  0  0  0  0  0  0  0  0
  144.8900  159.3120  133.3720 C   0  0  0  0  0  0  0  0  0  0  0  0
  144.4330  160.6130  133.7140 C   0  0  0  0  0  0  0  0  0  0  0  0
  143.0910  160.8370  134.0610 C   0  0  0  0  0  0  0  0  0  0  0  0
  142.2230  159.7510  134.0500 C   0  0  0  0  0  0  0  0  0  0  0  0
  140.8880  159.6860  134.3760 C   0  0  0  0  0  0  0  0  0  0  0  0
  140.5330  158.3520  134.2010 C   0  0  0  0  0  0  0  0  0  0  0  0
  139.1570  157.8490  134.3830 C   0  0  0  0  0  0  0  0  0  0  0  0
  138.5530  156.9830  133.4220 N   0  0  0  0  0  0  0  0  0  0  0  0
  138.4840  158.2340  135.3770 O   0  0  0  0  0  0  0  0  0  0  0  0
  141.6070  157.6160  133.7960 N   0  0  0  0  0  0  0  0  0  0  0  0
  141.6680  156.1900  133.6270 C   0  0  0  0  0  0  0  0  0  0  0  0
  140.7650  155.5810  132.9950 O   0  0  0  0  0  0  0  0  0  0  0  0
  142.7310  155.4660  134.1560 O   0  0  0  0  0  0  0  0  0  0  0  0
  142.6350  158.4910  133.7050 C   0  0  0  0  0  0  0  0  0  0  0  0
  143.9720  158.2340  133.3750 C   0  0  0  0  0  0  0  0  0  0  0  0
  147.1120  158.0040  133.3650 C   0  0  0  0  0  0  0  0  0  0  0  0
  148.3450  158.1730  132.8490 N   0  0  0  0  0  0  0  0  0  0  0  0
  149.5475  162.9006  130.0923 H   0  0  0  0  0  0  0  0  0  0  0  0
  150.4987  161.5158  129.4564 H   0  0  0  0  0  0  0  0  0  0  0  0
  148.7037  161.4479  129.4564 H   0  0  0  0  0  0  0  0  0  0  0  0
  146.8593  160.8667  131.8171 H   0  0  0  0  0  0  0  0  0  0  0  0
  145.1398  161.4559  133.7069 H   0  0  0  0  0  0  0  0  0  0  0  0
  142.7368  161.8421  134.3335 H   0  0  0  0  0  0  0  0  0  0  0  0
  140.2399  160.5118  134.7047 H   0  0  0  0  0  0  0  0  0  0  0  0
  137.5930  156.6080  133.5850 H   0  0  0  0  0  0  0  0  0  0  0  0
  139.0210  156.7810  132.5110 H   0  0  0  0  0  0  0  0  0  0  0  0
  144.3020  157.2153  133.1233 H   0  0  0  0  0  0  0  0  0  0  0  0
  146.7881  157.1428  133.9678 H   0  0  0  0  0  0  0  0  0  0  0  0
  1  2  1  0
  2  3  1  0
  3  4  2  0
  3  5  1  0
  5  6  1  0
  6  7  2  0
  7  8  1  0
  8  9  2  0
  9 10  1  0
 10 11  2  0
 11 12  1  0
 12 13  2  0
 13 14  1  0
 14 15  1  0
 14 16  2  0
 13 17  1  0
 17 18  1  0
 18 19  2  0
 18 20  1  0
 17 21  1  0
 21 22  2  0
  7 23  1  0
 23 24  2  0
 24  5  1  0
 22  8  1  0
 21 11  1  0
  1 25  1  0
  1 26  1  0
  1 27  1  0
  6 28  1  0
  9 29  1  0
 10 30  1  0
 12 31  1  0
 15 32  1  0
 15 33  1  0
 22 34  1  0
 23 35  1  0
M  CHG  1  20  -1
M  END
>  <UniqueID>  (76) 
75

>  <SMILES>  (76) 
COC(=O)n1cc(-c2ccc3cc(C(N)=O)n(C(=O)[O-])c3c2)cn1

>  <Energy>  (76) 
106.96289987881522

>  <Genealogy>  (76) 
COC(=O)n1cc(-c2ccc3cc(C(N)=O)n(C(=O)[O-])c3c2)cn1 (protonated)
COC(=O)n1cc(-c2ccc3cc(C(N)=O)n(C(=O)[O-])c3c2)cn1 (3D coordinates assigned)
COC(=O)n1cc(-c2ccc3cc(C(N)=O)n(C(=O)[O-])c3c2)cn1 (optimized conformer: 106.96289987881522 kcal/mol)

>  <smiles>  (76) 
COC(=O)n1cc(-c2ccc3cc(C(N)=O)n(C(=O)O)c3c2)cn1

>  <score_type>  (76) 
oracle

>  <origin>  (76) 
adg

>  <m_score__min__energy>  (76) 
-6.9199999999999999

>  <m_primary>  (76) 
energy

$$$$
77:0
     RDKit          3D

 37 39  0  0  0  0  0  0  0  0999 V2000
  143.2540  161.1550  133.7640 N   0  0  0  0  0  0  0  0  0  0  0  0
  144.6740  161.2950  133.8100 C   0  0  0  0  0  0  0  0  0  0  0  0
  145.1750  162.4070  134.1240 O   0  0  0  0  0  0  0  0  0  0  0  0
  145.5640  160.1440  133.5590 C   0  0  0  0  0  0  0  0  0  0  0  0
  146.9330  160.2680  133.3390 C   0  0  0  0  0  0  0  0  0  0  0  0
  147.4000  158.9800  133.2170 C   0  0  0  0  0  0  0  0  0  0  0  0
  148.6890  158.5160  132.9780 C   0  0  0  0  0  0  0  0  0  0  0  0
  148.8790  157.1290  132.8620 C   0  0  0  0  0  0  0  0  0  0  0  0
  147.7840  156.2320  132.9740 C   0  0  0  0  0  0  0  0  0  0  0  0
  147.9930  154.7680  132.8360 C   0  0  0  0  0  0  0  0  0  0  0  0
  149.2700  154.2440  132.5700 C   0  0  0  0  0  0  0  0  0  0  0  0
  149.4520  152.8660  132.4460 C   0  0  0  0  0  0  0  0  0  0  0  0
  148.3550  152.0150  132.5900 C   0  0  0  0  0  0  0  0  0  0  0  0
  147.1250  152.5300  132.8500 N   0  0  0  0  0  0  0  0  0  0  0  0
  146.9200  153.8690  132.9730 C   0  0  0  0  0  0  0  0  0  0  0  0
  146.4870  156.7470  133.2130 C   0  0  0  0  0  0  0  0  0  0  0  0
  146.3310  158.1320  133.3510 C   0  0  0  0  0  0  0  0  0  0  0  0
  145.1930  158.8320  133.5580 N   0  0  0  0  0  0  0  0  0  0  0  0
  143.8620  158.2970  133.6470 C   0  0  0  0  0  0  0  0  0  0  0  0
  143.3340  157.7470  132.6410 O   0  0  0  0  0  0  0  0  0  0  0  0
  143.1580  158.3840  134.8510 O   0  0  0  0  0  0  0  0  0  0  0  0
  141.7500  158.2030  134.9360 C   0  0  0  0  0  0  0  0  0  0  0  0
  141.1090  159.5070  135.2720 C   0  0  0  0  0  0  0  0  0  0  0  0
  140.7290  159.7390  136.4500 O   0  0  0  0  0  0  0  0  0  0  0  0
  140.9770  160.4910  134.3000 O   0  0  0  0  0  0  0  0  0  0  0  0
  142.8060  160.2170  133.6770 H   0  0  0  0  0  0  0  0  0  0  0  0
  142.6400  161.9890  133.9040 H   0  0  0  0  0  0  0  0  0  0  0  0
  147.5170  161.1981  133.2761 H   0  0  0  0  0  0  0  0  0  0  0  0
  149.5340  159.2138  132.8827 H   0  0  0  0  0  0  0  0  0  0  0  0
  149.8892  156.7326  132.6821 H   0  0  0  0  0  0  0  0  0  0  0  0
  150.1287  154.9225  132.4592 H   0  0  0  0  0  0  0  0  0  0  0  0
  150.4504  152.4544  132.2368 H   0  0  0  0  0  0  0  0  0  0  0  0
  148.4864  150.9272  132.4929 H   0  0  0  0  0  0  0  0  0  0  0  0
  145.9095  154.2509  133.1808 H   0  0  0  0  0  0  0  0  0  0  0  0
  145.6204  156.0738  133.2887 H   0  0  0  0  0  0  0  0  0  0  0  0
  141.3662  157.8420  133.9704 H   0  0  0  0  0  0  0  0  0  0  0  0
  141.5182  157.4643  135.7173 H   0  0  0  0  0  0  0  0  0  0  0  0
  1  2  1  0
  2  3  2  0
  2  4  1  0
  4  5  2  0
  5  6  1  0
  6  7  2  0
  7  8  1  0
  8  9  2  0
  9 10  1  0
 10 11  2  0
 11 12  1  0
 12 13  2  0
 13 14  1  0
 14 15  2  0
  9 16  1  0
 16 17  2  0
 17 18  1  0
 18 19  1  0
 19 20  2  0
 19 21  1  0
 21 22  1  0
 22 23  1  0
 23 24  2  0
 23 25  1  0
 18  4  1  0
 17  6  1  0
 15 10  1  0
  1 26  1  0
  1 27  1  0
  5 28  1  0
  7 29  1  0
  8 30  1  0
 11 31  1  0
 12 32  1  0
 13 33  1  0
 15 34  1  0
 16 35  1  0
 22 36  1  0
 22 37  1  0
M  CHG  1  25  -1
M  END
>  <UniqueID>  (77) 
76

>  <SMILES>  (77) 
NC(=O)c1cc2ccc(-c3cccnc3)cc2n1C(=O)OCC(=O)[O-]

>  <Energy>  (77) 
81.75119366641773

>  <Genealogy>  (77) 
NC(=O)c1cc2ccc(-c3cccnc3)cc2n1C(=O)OCC(=O)[O-] (protonated)
NC(=O)c1cc2ccc(-c3cccnc3)cc2n1C(=O)OCC(=O)[O-] (3D coordinates assigned)
NC(=O)c1cc2ccc(-c3cccnc3)cc2n1C(=O)OCC(=O)[O-] (optimized conformer: 81.75119366641773 kcal/mol)

>  <smiles>  (77) 
NC(=O)c1cc2ccc(-c3cccnc3)cc2n1C(=O)OCC(=O)O

>  <score_type>  (77) 
oracle

>  <origin>  (77) 
adg

>  <m_score__min__energy>  (77) 
-7.9900000000000002

>  <m_primary>  (77) 
energy

$$$$
78:0
     RDKit          3D

 46 47  0  0  0  0  0  0  0  0999 V2000
  139.9880  150.7450  131.9400 C   0  0  0  0  0  0  0  0  0  0  0  0
  141.1530  150.3240  132.8480 C   0  0  0  0  0  0  0  0  0  0  0  0
  142.0120  149.2530  132.1530 C   0  0  0  0  0  0  0  0  0  0  0  0
  141.9810  151.5490  133.3260 C   0  0  1  0  0  0  0  0  0  0  0  0
  141.9710  152.6030  132.3090 N   0  0  0  0  0  0  0  0  0  0  0  0
  141.4760  152.1020  134.6340 C   0  0  0  0  0  0  0  0  0  0  0  0
  141.1390  151.3130  135.5600 O   0  0  0  0  0  0  0  0  0  0  0  0
  141.3650  153.4840  134.8040 O   0  0  0  0  0  0  0  0  0  0  0  0
  142.4580  154.3070  135.1970 C   0  0  0  0  0  0  0  0  0  0  0  0
  143.4700  154.2600  134.1990 O   0  0  0  0  0  0  0  0  0  0  0  0
  143.4790  155.1140  133.0910 C   0  0  0  0  0  0  0  0  0  0  0  0
  143.6100  154.6450  131.9280 O   0  0  0  0  0  0  0  0  0  0  0  0
  143.3220  156.5290  133.2780 N   0  0  0  0  0  0  0  0  0  0  0  0
  142.1590  157.2380  133.2940 C   0  0  0  0  0  0  0  0  0  0  0  0
  140.7970  156.6650  133.2810 C   0  0  0  0  0  0  0  0  0  0  0  0
  140.5770  155.2830  132.9910 N   0  0  0  0  0  0  0  0  0  0  0  0
  139.8160  157.3960  133.5800 O   0  0  0  0  0  0  0  0  0  0  0  0
  142.4160  158.6030  133.3840 C   0  0  0  0  0  0  0  0  0  0  0  0
  143.7870  158.7110  133.4380 C   0  0  0  0  0  0  0  0  0  0  0  0
  144.5930  159.8400  133.5330 C   0  0  0  0  0  0  0  0  0  0  0  0
  145.9850  159.6580  133.5440 C   0  0  0  0  0  0  0  0  0  0  0  0
  146.5490  158.3610  133.4310 C   0  0  0  0  0  0  0  0  0  0  0  0
  148.0450  158.1750  133.4810 C   0  0  0  0  0  0  0  0  0  0  0  0
  148.6710  159.3470  133.8700 F   0  0  0  0  0  0  0  0  0  0  0  0
  148.5340  157.8160  132.2370 F   0  0  0  0  0  0  0  0  0  0  0  0
  148.3500  157.1790  134.3890 F   0  0  0  0  0  0  0  0  0  0  0  0
  145.6950  157.2350  133.3590 C   0  0  0  0  0  0  0  0  0  0  0  0
  144.3120  157.4450  133.3710 C   0  0  0  0  0  0  0  0  0  0  0  0
  139.1333  151.0539  132.5597 H   0  0  0  0  0  0  0  0  0  0  0  0
  140.3034  151.5860  131.3050 H   0  0  0  0  0  0  0  0  0  0  0  0
  139.6930  149.8966  131.3050 H   0  0  0  0  0  0  0  0  0  0  0  0
  140.7403  149.8692  133.7606 H   0  0  0  0  0  0  0  0  0  0  0  0
  142.5097  148.6324  132.9127 H   0  0  0  0  0  0  0  0  0  0  0  0
  141.3695  148.6186  131.5247 H   0  0  0  0  0  0  0  0  0  0  0  0
  142.7708  149.7424  131.5247 H   0  0  0  0  0  0  0  0  0  0  0  0
  143.0114  151.1977  133.4840 H   0  0  0  0  0  0  0  0  0  0  0  0
  141.9610  153.5310  132.7930 H   0  0  0  0  0  0  0  0  0  0  0  0
  142.8740  152.5640  131.7830 H   0  0  0  0  0  0  0  0  0  0  0  0
  142.1110  155.3437  135.3188 H   0  0  0  0  0  0  0  0  0  0  0  0
  142.8668  153.9426  136.1510 H   0  0  0  0  0  0  0  0  0  0  0  0
  139.6050  154.9070  132.9430 H   0  0  0  0  0  0  0  0  0  0  0  0
  141.3740  154.6130  132.9150 H   0  0  0  0  0  0  0  0  0  0  0  0
  141.6805  159.4207  133.4070 H   0  0  0  0  0  0  0  0  0  0  0  0
  144.1530  160.8461  133.5976 H   0  0  0  0  0  0  0  0  0  0  0  0
  146.6464  160.5315  133.6414 H   0  0  0  0  0  0  0  0  0  0  0  0
  146.1091  156.2179  133.2950 H   0  0  0  0  0  0  0  0  0  0  0  0
  1  2  1  0
  2  3  1  0
  2  4  1  0
  4  5  1  0
  4  6  1  0
  6  7  2  0
  6  8  1  0
  8  9  1  0
  9 10  1  0
 10 11  1  0
 11 12  2  0
 11 13  1  0
 13 14  1  0
 14 15  1  0
 15 16  1  0
 15 17  2  0
 14 18  2  0
 18 19  1  0
 19 20  2  0
 20 21  1  0
 21 22  2  0
 22 23  1  0
 23 24  1  0
 23 25  1  0
 23 26  1  0
 22 27  1  0
 27 28  2  0
 28 13  1  0
 28 19  1  0
  1 29  1  0
  1 30  1  0
  1 31  1  0
  2 32  1  0
  3 33  1  0
  3 34  1  0
  3 35  1  0
  4 36  1  1
  5 37  1  0
  5 38  1  0
  9 39  1  0
  9 40  1  0
 16 41  1  0
 16 42  1  0
 18 43  1  0
 20 44  1  0
 21 45  1  0
 27 46  1  0
M  END
>  <UniqueID>  (78) 
77

>  <SMILES>  (78) 
CC(C)[C@@H](N)C(=O)OCOC(=O)n1c(C(N)=O)cc2ccc(C(F)(F)F)cc21

>  <Energy>  (78) 
76.58338770427619

>  <Genealogy>  (78) 
CC(C)[C@@H](N)C(=O)OCOC(=O)n1c(C(N)=O)cc2ccc(C(F)(F)F)cc21 (3D coordinates assigned)
CC(C)[C@@H](N)C(=O)OCOC(=O)n1c(C(N)=O)cc2ccc(C(F)(F)F)cc21 (optimized conformer: 76.58338770427619 kcal/mol)

>  <smiles>  (78) 
CC(C)[C@@H](N)C(=O)OCOC(=O)n1c(C(N)=O)cc2ccc(C(F)(F)F)cc21

>  <score_type>  (78) 
oracle

>  <origin>  (78) 
adg

>  <m_score__min__energy>  (78) 
-7.0300000000000002

>  <m_primary>  (78) 
energy

$$$$
79:0
     RDKit          3D

 46 47  0  0  0  0  0  0  0  0999 V2000
  140.5280  157.6490  133.2560 C   0  0  0  0  0  0  0  0  0  0  0  0
  141.8330  158.3500  133.4830 C   0  0  0  0  0  0  0  0  0  0  0  0
  141.8710  159.7640  133.5980 C   0  0  0  0  0  0  0  0  0  0  0  0
  143.1000  160.4410  133.7080 C   0  0  0  0  0  0  0  0  0  0  0  0
  144.2660  159.6820  133.7080 C   0  0  0  0  0  0  0  0  0  0  0  0
  145.5840  160.0820  133.7350 C   0  0  0  0  0  0  0  0  0  0  0  0
  146.3310  158.9090  133.6120 C   0  0  0  0  0  0  0  0  0  0  0  0
  147.8130  158.8460  133.6320 C   0  0  0  0  0  0  0  0  0  0  0  0
  148.4920  157.6270  133.9450 N   0  0  0  0  0  0  0  0  0  0  0  0
  148.4910  159.8700  133.3440 O   0  0  0  0  0  0  0  0  0  0  0  0
  145.5060  157.8260  133.5280 N   0  0  0  0  0  0  0  0  0  0  0  0
  145.8840  156.4730  133.2120 C   0  0  0  0  0  0  0  0  0  0  0  0
  146.8220  156.2730  132.3960 O   0  0  0  0  0  0  0  0  0  0  0  0
  145.2100  155.3520  133.8160 N   0  0  0  0  0  0  0  0  0  0  0  0
  144.1670  154.6340  133.0760 C   0  0  0  0  0  0  0  0  0  0  0  0
  145.4550  155.0410  135.2030 C   0  0  0  0  0  0  0  0  0  0  0  0
  144.4930  155.0450  136.0180 O   0  0  0  0  0  0  0  0  0  0  0  0
  146.7980  154.6530  135.6720 C   0  0  0  0  0  0  0  0  0  0  0  0
  147.7770  155.3710  135.3420 O   0  0  0  0  0  0  0  0  0  0  0  0
  147.0530  153.4600  136.4360 N   0  0  0  0  0  0  0  0  0  0  0  0
  147.8830  153.2480  137.6310 C   0  0  0  0  0  0  0  0  0  0  0  0
  148.8070  152.0280  137.4340 C   0  0  0  0  0  0  0  0  0  0  0  0
  148.7800  154.4890  137.7810 C   0  0  0  0  0  0  0  0  0  0  0  0
  147.0160  153.1070  138.8720 C   0  0  0  0  0  0  0  0  0  0  0  0
  146.2970  152.0840  139.0360 O   0  0  0  0  0  0  0  0  0  0  0  0
  146.9970  154.1000  139.8480 O   0  0  0  0  0  0  0  0  0  0  0  0
  144.2460  158.3160  133.5840 C   0  0  0  0  0  0  0  0  0  0  0  0
  143.0390  157.6180  133.4590 C   0  0  0  0  0  0  0  0  0  0  0  0
  140.0703  157.4032  134.2256 H   0  0  0  0  0  0  0  0  0  0  0  0
  139.8529  158.3059  132.6879 H   0  0  0  0  0  0  0  0  0  0  0  0
  140.7029  156.7234  132.6879 H   0  0  0  0  0  0  0  0  0  0  0  0
  140.9314  160.3360  133.6012 H   0  0  0  0  0  0  0  0  0  0  0  0
  143.1375  161.5372  133.7914 H   0  0  0  0  0  0  0  0  0  0  0  0
  145.9669  161.1086  133.8328 H   0  0  0  0  0  0  0  0  0  0  0  0
  147.9650  156.7620  134.1790 H   0  0  0  0  0  0  0  0  0  0  0  0
  149.5370  157.6030  133.9710 H   0  0  0  0  0  0  0  0  0  0  0  0
  143.4752  154.1578  133.7864 H   0  0  0  0  0  0  0  0  0  0  0  0
  143.6125  155.3426  132.4433 H   0  0  0  0  0  0  0  0  0  0  0  0
  144.6310  153.8631  132.4433 H   0  0  0  0  0  0  0  0  0  0  0  0
  149.1065  151.6326  138.4158 H   0  0  0  0  0  0  0  0  0  0  0  0
  148.2706  151.2486  136.8729 H   0  0  0  0  0  0  0  0  0  0  0  0
  149.7026  152.3331  136.8729 H   0  0  0  0  0  0  0  0  0  0  0  0
  148.9345  154.7028  138.8489 H   0  0  0  0  0  0  0  0  0  0  0  0
  149.7513  154.2996  137.3007 H   0  0  0  0  0  0  0  0  0  0  0  0
  148.2955  155.3519  137.3007 H   0  0  0  0  0  0  0  0  0  0  0  0
  143.0310  156.5240  133.3447 H   0  0  0  0  0  0  0  0  0  0  0  0
  1  2  1  0
  2  3  2  0
  3  4  1  0
  4  5  2  0
  5  6  1  0
  6  7  2  0
  7  8  1  0
  8  9  1  0
  8 10  2  0
  7 11  1  0
 11 12  1  0
 12 13  2  0
 12 14  1  0
 14 15  1  0
 14 16  1  0
 16 17  2  0
 16 18  1  0
 18 19  2  0
 18 20  1  0
 20 21  1  0
 21 22  1  0
 21 23  1  0
 21 24  1  0
 24 25  2  0
 24 26  1  0
 11 27  1  0
 27 28  2  0
 28  2  1  0
 27  5  1  0
  1 29  1  0
  1 30  1  0
  1 31  1  0
  3 32  1  0
  4 33  1  0
  6 34  1  0
  9 35  1  0
  9 36  1  0
 15 37  1  0
 15 38  1  0
 15 39  1  0
 22 40  1  0
 22 41  1  0
 22 42  1  0
 23 43  1  0
 23 44  1  0
 23 45  1  0
 28 46  1  0
M  CHG  2  20  -1  26  -1
M  END
>  <UniqueID>  (79) 
78

>  <SMILES>  (79) 
Cc1ccc2cc(C(N)=O)n(C(=O)N(C)C(=O)C(=O)[N-]C(C)(C)C(=O)[O-])c2c1

>  <Energy>  (79) 
93.1386465245755

>  <Genealogy>  (79) 
Cc1ccc2cc(C(N)=O)n(C(=O)N(C)C(=O)C(=O)[N-]C(C)(C)C(=O)[O-])c2c1 (protonated)
Cc1ccc2cc(C(N)=O)n(C(=O)N(C)C(=O)C(=O)[N-]C(C)(C)C(=O)[O-])c2c1 (3D coordinates assigned)
Cc1ccc2cc(C(N)=O)n(C(=O)N(C)C(=O)C(=O)[N-]C(C)(C)C(=O)[O-])c2c1 (optimized conformer: 93.1386465245755 kcal/mol)

>  <smiles>  (79) 
Cc1ccc2cc(C(N)=O)n(C(=O)N(C)C(=O)C(=O)NC(C)(C)C(=O)O)c2c1

>  <score_type>  (79) 
oracle

>  <origin>  (79) 
adg

>  <m_score__min__energy>  (79) 
-8.5099999999999998

>  <m_primary>  (79) 
energy

$$$$
80:0
     RDKit          3D

 43 44  0  0  0  0  0  0  0  0999 V2000
  149.8380  151.2160  131.7240 C   0  0  0  0  0  0  0  0  0  0  0  0
  149.5690  152.6710  132.0910 C   0  0  0  0  0  0  0  0  0  0  0  0
  148.6620  152.7760  133.3220 C   0  0  0  0  0  0  0  0  0  0  0  0
  148.3210  154.2100  133.5890 C   0  0  0  0  0  0  0  0  0  0  0  0
  148.9360  155.1250  132.9780 O   0  0  0  0  0  0  0  0  0  0  0  0
  147.3060  154.5190  134.5010 O   0  0  0  0  0  0  0  0  0  0  0  0
  145.9630  154.0530  134.3810 C   0  0  0  0  0  0  0  0  0  0  0  0
  145.0560  155.0750  134.7860 O   0  0  0  0  0  0  0  0  0  0  0  0
  144.2070  155.7490  133.9010 C   0  0  0  0  0  0  0  0  0  0  0  0
  143.2910  155.1290  133.3050 O   0  0  0  0  0  0  0  0  0  0  0  0
  144.3700  157.1600  133.6780 N   0  0  0  0  0  0  0  0  0  0  0  0
  143.4370  158.1380  133.8660 C   0  0  0  0  0  0  0  0  0  0  0  0
  141.9920  157.9200  134.0740 C   0  0  0  0  0  0  0  0  0  0  0  0
  141.2450  157.1530  133.1350 N   0  0  0  0  0  0  0  0  0  0  0  0
  141.4200  158.3580  135.1050 O   0  0  0  0  0  0  0  0  0  0  0  0
  144.0040  159.3980  133.6960 C   0  0  0  0  0  0  0  0  0  0  0  0
  145.3220  159.1620  133.3800 C   0  0  0  0  0  0  0  0  0  0  0  0
  146.3360  160.0590  133.0680 C   0  0  0  0  0  0  0  0  0  0  0  0
  147.6010  159.5400  132.7440 C   0  0  0  0  0  0  0  0  0  0  0  0
  147.8300  158.1390  132.7400 C   0  0  0  0  0  0  0  0  0  0  0  0
  149.1350  157.6200  132.4050 N   0  0  0  0  0  0  0  0  0  0  0  0
  149.9830  158.6860  131.8630 C   0  0  0  0  0  0  0  0  0  0  0  0
  146.7770  157.2570  133.0790 C   0  0  0  0  0  0  0  0  0  0  0  0
  145.5190  157.8030  133.3750 C   0  0  0  0  0  0  0  0  0  0  0  0
  149.9481  150.6205  132.6423 H   0  0  0  0  0  0  0  0  0  0  0  0
  148.9968  150.8255  131.1324 H   0  0  0  0  0  0  0  0  0  0  0  0
  150.7632  151.1521  131.1324 H   0  0  0  0  0  0  0  0  0  0  0  0
  150.5258  153.1688  132.3073 H   0  0  0  0  0  0  0  0  0  0  0  0
  149.0616  153.1549  131.2434 H   0  0  0  0  0  0  0  0  0  0  0  0
  147.7366  152.2094  133.1415 H   0  0  0  0  0  0  0  0  0  0  0  0
  149.1895  152.3628  134.1943 H   0  0  0  0  0  0  0  0  0  0  0  0
  145.7632  153.7823  133.3337 H   0  0  0  0  0  0  0  0  0  0  0  0
  145.8268  153.1722  135.0256 H   0  0  0  0  0  0  0  0  0  0  0  0
  141.7000  156.3940  132.5800 H   0  0  0  0  0  0  0  0  0  0  0  0
  143.5050  160.3735  133.7935 H   0  0  0  0  0  0  0  0  0  0  0  0
  146.1539  161.1438  133.0744 H   0  0  0  0  0  0  0  0  0  0  0  0
  148.4224  160.2265  132.4908 H   0  0  0  0  0  0  0  0  0  0  0  0
  149.5910  157.2200  133.2610 H   0  0  0  0  0  0  0  0  0  0  0  0
  149.0520  156.8530  131.6960 H   0  0  0  0  0  0  0  0  0  0  0  0
  150.4338  159.2527  132.6911 H   0  0  0  0  0  0  0  0  0  0  0  0
  150.7786  158.2435  131.2456 H   0  0  0  0  0  0  0  0  0  0  0  0
  149.3729  159.3617  131.2456 H   0  0  0  0  0  0  0  0  0  0  0  0
  146.9406  156.1697  133.1097 H   0  0  0  0  0  0  0  0  0  0  0  0
  1  2  1  0
  2  3  1  0
  3  4  1  0
  4  5  2  0
  4  6  1  0
  6  7  1  0
  7  8  1  0
  8  9  1  0
  9 10  2  0
  9 11  1  0
 11 12  1  0
 12 13  1  0
 13 14  1  0
 13 15  2  0
 12 16  2  0
 16 17  1  0
 17 18  2  0
 18 19  1  0
 19 20  2  0
 20 21  1  0
 21 22  1  0
 20 23  1  0
 23 24  2  0
 24 11  1  0
 24 17  1  0
  1 25  1  0
  1 26  1  0
  1 27  1  0
  2 28  1  0
  2 29  1  0
  3 30  1  0
  3 31  1  0
  7 32  1  0
  7 33  1  0
 14 34  1  0
 16 35  1  0
 18 36  1  0
 19 37  1  0
 21 38  1  0
 21 39  1  0
 22 40  1  0
 22 41  1  0
 22 42  1  0
 23 43  1  0
M  CHG  2  14  -1  21   1
M  END
>  <UniqueID>  (80) 
79

>  <SMILES>  (80) 
CCCC(=O)OCOC(=O)n1c(C([NH-])=O)cc2ccc([NH2+]C)cc21

>  <Energy>  (80) 
73.88442952285273

>  <Genealogy>  (80) 
CCCC(=O)OCOC(=O)n1c(C([NH-])=O)cc2ccc([NH2+]C)cc21 (protonated)
CCCC(=O)OCOC(=O)n1c(C([NH-])=O)cc2ccc([NH2+]C)cc21 (3D coordinates assigned)
CCCC(=O)OCOC(=O)n1c(C([NH-])=O)cc2ccc([NH2+]C)cc21 (optimized conformer: 73.88442952285273 kcal/mol)

>  <smiles>  (80) 
CCCC(=O)OCOC(=O)n1c(C(N)=O)cc2ccc(NC)cc21

>  <score_type>  (80) 
oracle

>  <origin>  (80) 
adg

>  <m_score__min__energy>  (80) 
-6.3099999999999996

>  <m_primary>  (80) 
energy

$$$$
81:0
     RDKit          3D

 43 44  0  0  0  0  0  0  0  0999 V2000
  149.5940  154.2950  139.1650 C   0  0  0  0  0  0  0  0  0  0  0  0
  148.6070  153.2650  138.8220 N   0  0  0  0  0  0  0  0  0  0  0  0
  148.4500  152.0820  139.6740 C   0  0  0  0  0  0  0  0  0  0  0  0
  147.7730  153.4030  137.6500 C   0  0  0  0  0  0  0  0  0  0  0  0
  146.7870  152.6350  137.4890 O   0  0  0  0  0  0  0  0  0  0  0  0
  148.0930  154.3930  136.5690 C   0  0  0  0  0  0  0  0  0  0  0  0
  147.3110  154.0860  135.4210 O   0  0  0  0  0  0  0  0  0  0  0  0
  147.2830  154.8870  134.2770 C   0  0  0  0  0  0  0  0  0  0  0  0
  148.1200  154.7040  133.3520 O   0  0  0  0  0  0  0  0  0  0  0  0
  146.2740  155.9020  134.1440 N   0  0  0  0  0  0  0  0  0  0  0  0
  144.9890  155.8730  134.6020 C   0  0  0  0  0  0  0  0  0  0  0  0
  144.3070  154.7100  135.2050 C   0  0  0  0  0  0  0  0  0  0  0  0
  144.7120  154.1960  136.4710 N   0  0  0  0  0  0  0  0  0  0  0  0
  143.3900  154.1260  134.5670 O   0  0  0  0  0  0  0  0  0  0  0  0
  144.3490  157.0820  134.3400 C   0  0  0  0  0  0  0  0  0  0  0  0
  145.2810  157.8540  133.6890 C   0  0  0  0  0  0  0  0  0  0  0  0
  145.1810  159.1510  133.1980 C   0  0  0  0  0  0  0  0  0  0  0  0
  146.3100  159.7140  132.5830 C   0  0  0  0  0  0  0  0  0  0  0  0
  147.5300  158.9870  132.4730 C   0  0  0  0  0  0  0  0  0  0  0  0
  148.6970  159.5810  131.8430 N   0  0  0  0  0  0  0  0  0  0  0  0
  149.9750  158.8570  131.8010 C   0  0  0  0  0  0  0  0  0  0  0  0
  148.6210  160.9140  131.2300 C   0  0  0  0  0  0  0  0  0  0  0  0
  147.5820  157.6680  132.9970 C   0  0  0  0  0  0  0  0  0  0  0  0
  146.4340  157.1230  133.5820 C   0  0  0  0  0  0  0  0  0  0  0  0
  149.6729  154.3774  140.2591 H   0  0  0  0  0  0  0  0  0  0  0  0
  150.5730  154.0185  138.7465 H   0  0  0  0  0  0  0  0  0  0  0  0
  149.2760  155.2613  138.7465 H   0  0  0  0  0  0  0  0  0  0  0  0
  148.4900  152.3835  140.7311 H   0  0  0  0  0  0  0  0  0  0  0  0
  147.4808  151.6057  139.4650 H   0  0  0  0  0  0  0  0  0  0  0  0
  149.2614  151.3693  139.4650 H   0  0  0  0  0  0  0  0  0  0  0  0
  147.8564  155.4095  136.9166 H   0  0  0  0  0  0  0  0  0  0  0  0
  149.1627  154.3401  136.3180 H   0  0  0  0  0  0  0  0  0  0  0  0
  145.6690  154.3820  136.8450 H   0  0  0  0  0  0  0  0  0  0  0  0
  143.3167  157.3599  134.5991 H   0  0  0  0  0  0  0  0  0  0  0  0
  144.2438  159.7196  133.2890 H   0  0  0  0  0  0  0  0  0  0  0  0
  146.2517  160.7353  132.1785 H   0  0  0  0  0  0  0  0  0  0  0  0
  150.3197  158.6617  132.8272 H   0  0  0  0  0  0  0  0  0  0  0  0
  149.8383  157.9022  131.2722 H   0  0  0  0  0  0  0  0  0  0  0  0
  150.7237  159.4651  131.2722 H   0  0  0  0  0  0  0  0  0  0  0  0
  148.5774  161.6787  132.0195 H   0  0  0  0  0  0  0  0  0  0  0  0
  149.5110  161.0818  130.6058 H   0  0  0  0  0  0  0  0  0  0  0  0
  147.7177  160.9796  130.6058 H   0  0  0  0  0  0  0  0  0  0  0  0
  148.5120  157.0830  132.9436 H   0  0  0  0  0  0  0  0  0  0  0  0
  1  2  1  0
  2  3  1  0
  2  4  1  0
  4  5  2  0
  4  6  1  0
  6  7  1  0
  7  8  1  0
  8  9  2  0
  8 10  1  0
 10 11  1  0
 11 12  1  0
 12 13  1  0
 12 14  2  0
 11 15  2  0
 15 16  1  0
 16 17  2  0
 17 18  1  0
 18 19  2  0
 19 20  1  0
 20 21  1  0
 20 22  1  0
 19 23  1  0
 23 24  2  0
 24 10  1  0
 24 16  1  0
  1 25  1  0
  1 26  1  0
  1 27  1  0
  3 28  1  0
  3 29  1  0
  3 30  1  0
  6 31  1  0
  6 32  1  0
 13 33  1  0
 15 34  1  0
 17 35  1  0
 18 36  1  0
 21 37  1  0
 21 38  1  0
 21 39  1  0
 22 40  1  0
 22 41  1  0
 22 42  1  0
 23 43  1  0
M  CHG  1  13  -1
M  END
>  <UniqueID>  (81) 
80

>  <SMILES>  (81) 
CN(C)C(=O)COC(=O)n1c(C([NH-])=O)cc2ccc(N(C)C)cc21

>  <Energy>  (81) 
76.54527943752497

>  <Genealogy>  (81) 
CN(C)C(=O)COC(=O)n1c(C([NH-])=O)cc2ccc(N(C)C)cc21 (protonated)
CN(C)C(=O)COC(=O)n1c(C([NH-])=O)cc2ccc(N(C)C)cc21 (3D coordinates assigned)
CN(C)C(=O)COC(=O)n1c(C([NH-])=O)cc2ccc(N(C)C)cc21 (optimized conformer: 76.54527943752497 kcal/mol)

>  <smiles>  (81) 
CN(C)C(=O)COC(=O)n1c(C(N)=O)cc2ccc(N(C)C)cc21

>  <score_type>  (81) 
oracle

>  <origin>  (81) 
adg

>  <m_score__min__energy>  (81) 
-6.2800000000000002

>  <m_primary>  (81) 
energy

$$$$
82:0
     RDKit          3D

 41 42  0  0  0  0  0  0  0  0999 V2000
  144.2640  153.1220  132.8780 C   0  0  0  0  0  0  0  0  0  0  0  0
  143.7000  153.3460  134.0630 C   0  0  0  0  0  0  0  0  0  0  0  0
  144.3780  154.1020  135.1340 C   0  0  0  0  0  0  0  0  0  0  0  0
  144.0820  153.9030  136.3430 O   0  0  0  0  0  0  0  0  0  0  0  0
  145.3880  155.0690  134.8010 N   0  0  0  0  0  0  0  0  0  0  0  0
  146.7290  154.9830  135.0280 C   0  0  0  0  0  0  0  0  0  0  0  0
  147.4470  153.8020  135.5550 C   0  0  0  0  0  0  0  0  0  0  0  0
  146.9990  153.1340  136.7300 N   0  0  0  0  0  0  0  0  0  0  0  0
  148.4530  153.3590  134.9390 O   0  0  0  0  0  0  0  0  0  0  0  0
  147.3640  156.1580  134.6330 C   0  0  0  0  0  0  0  0  0  0  0  0
  146.3630  156.9730  134.1530 C   0  0  0  0  0  0  0  0  0  0  0  0
  146.4250  158.2670  133.6470 C   0  0  0  0  0  0  0  0  0  0  0  0
  145.2230  158.8790  133.2540 C   0  0  0  0  0  0  0  0  0  0  0  0
  143.9840  158.1940  133.3770 C   0  0  0  0  0  0  0  0  0  0  0  0
  142.7380  158.8060  132.9920 N   0  0  0  0  0  0  0  0  0  0  0  0
  142.0280  159.8150  133.7810 C   0  0  0  0  0  0  0  0  0  0  0  0
  140.6350  160.0960  133.2000 C   0  0  0  0  0  0  0  0  0  0  0  0
  140.2410  159.0530  132.2270 N   0  0  0  0  0  0  0  0  0  0  0  0
  139.5800  157.9210  132.9000 C   0  0  0  0  0  0  0  0  0  0  0  0
  139.3350  159.6180  131.2140 C   0  0  0  0  0  0  0  0  0  0  0  0
  143.9660  156.8850  133.9080 C   0  0  0  0  0  0  0  0  0  0  0  0
  145.1800  156.2930  134.2690 C   0  0  0  0  0  0  0  0  0  0  0  0
  143.7209  152.5530  132.1091 H   0  0  0  0  0  0  0  0  0  0  0  0
  145.2732  153.5060  132.6678 H   0  0  0  0  0  0  0  0  0  0  0  0
  142.6901  152.9526  134.2510 H   0  0  0  0  0  0  0  0  0  0  0  0
  145.9850  153.1020  136.9760 H   0  0  0  0  0  0  0  0  0  0  0  0
  148.4383  156.3868  134.6920 H   0  0  0  0  0  0  0  0  0  0  0  0
  147.3858  158.7951  133.5573 H   0  0  0  0  0  0  0  0  0  0  0  0
  145.2412  159.9005  132.8463 H   0  0  0  0  0  0  0  0  0  0  0  0
  142.3300  158.5590  132.0610 H   0  0  0  0  0  0  0  0  0  0  0  0
  141.9193  159.4517  134.8136 H   0  0  0  0  0  0  0  0  0  0  0  0
  142.6098  160.7482  133.7570 H   0  0  0  0  0  0  0  0  0  0  0  0
  139.9019  160.1173  134.0198 H   0  0  0  0  0  0  0  0  0  0  0  0
  140.6633  161.0649  132.6799 H   0  0  0  0  0  0  0  0  0  0  0  0
  139.6544  158.0484  133.9901 H   0  0  0  0  0  0  0  0  0  0  0  0
  138.5205  157.8877  132.6062 H   0  0  0  0  0  0  0  0  0  0  0  0
  140.0717  156.9819  132.6062 H   0  0  0  0  0  0  0  0  0  0  0  0
  138.5036  160.1365  131.7140 H   0  0  0  0  0  0  0  0  0  0  0  0
  139.8874  160.3320  130.5855 H   0  0  0  0  0  0  0  0  0  0  0  0
  138.9369  158.8078  130.5855 H   0  0  0  0  0  0  0  0  0  0  0  0
  143.0171  156.3431  134.0347 H   0  0  0  0  0  0  0  0  0  0  0  0
  1  2  2  0
  2  3  1  0
  3  4  2  0
  3  5  1  0
  5  6  1  0
  6  7  1  0
  7  8  1  0
  7  9  2  0
  6 10  2  0
 10 11  1  0
 11 12  2  0
 12 13  1  0
 13 14  2  0
 14 15  1  0
 15 16  1  0
 16 17  1  0
 17 18  1  0
 18 19  1  0
 18 20  1  0
 14 21  1  0
 21 22  2  0
 22  5  1  0
 22 11  1  0
  1 23  1  0
  1 24  1  0
  2 25  1  0
  8 26  1  0
 10 27  1  0
 12 28  1  0
 13 29  1  0
 15 30  1  0
 16 31  1  0
 16 32  1  0
 17 33  1  0
 17 34  1  0
 19 35  1  0
 19 36  1  0
 19 37  1  0
 20 38  1  0
 20 39  1  0
 20 40  1  0
 21 41  1  0
M  CHG  1   8  -1
M  END
>  <UniqueID>  (82) 
81

>  <SMILES>  (82) 
C=CC(=O)n1c(C([NH-])=O)cc2ccc(NCCN(C)C)cc21

>  <Energy>  (82) 
77.65767335489947

>  <Genealogy>  (82) 
C=CC(=O)n1c(C([NH-])=O)cc2ccc(NCCN(C)C)cc21 (protonated)
C=CC(=O)n1c(C([NH-])=O)cc2ccc(NCCN(C)C)cc21 (3D coordinates assigned)
C=CC(=O)n1c(C([NH-])=O)cc2ccc(NCCN(C)C)cc21 (optimized conformer: 77.65767335489947 kcal/mol)

>  <smiles>  (82) 
C=CC(=O)n1c(C(N)=O)cc2ccc(NCCN(C)C)cc21

>  <score_type>  (82) 
oracle

>  <origin>  (82) 
adg

>  <m_score__min__energy>  (82) 
-7.0800000000000001

>  <m_primary>  (82) 
energy

$$$$
83:0
     RDKit          3D

 43 44  0  0  0  0  0  0  0  0999 V2000
  138.0500  159.4660  131.2230 C   0  0  0  0  0  0  0  0  0  0  0  0
  138.4180  158.8970  132.4740 O   0  0  0  0  0  0  0  0  0  0  0  0
  139.7290  158.9460  132.9610 C   0  0  0  0  0  0  0  0  0  0  0  0
  140.5380  159.8220  132.5480 O   0  0  0  0  0  0  0  0  0  0  0  0
  140.1740  157.9430  133.9690 C   0  0  0  0  0  0  0  0  0  0  0  0
  139.8880  158.4200  135.2780 O   0  0  0  0  0  0  0  0  0  0  0  0
  140.8770  158.9390  136.1210 C   0  0  0  0  0  0  0  0  0  0  0  0
  140.6130  159.2060  137.3230 O   0  0  0  0  0  0  0  0  0  0  0  0
  142.1860  159.2110  135.6150 N   0  0  0  0  0  0  0  0  0  0  0  0
  142.4540  160.1420  134.6290 O   0  0  0  0  0  0  0  0  0  0  0  0
  143.7350  160.3550  134.1090 C   0  0  0  0  0  0  0  0  0  0  0  0
  144.3850  161.3930  134.4080 O   0  0  0  0  0  0  0  0  0  0  0  0
  144.3050  159.3910  133.1670 C   0  0  0  0  0  0  0  0  0  0  0  0
  143.7570  158.2660  133.0210 O   0  0  0  0  0  0  0  0  0  0  0  0
  145.4610  159.7330  132.4520 O   0  0  0  0  0  0  0  0  0  0  0  0
  146.7460  159.8410  133.0000 C   0  0  0  0  0  0  0  0  0  0  0  0
  147.0590  160.8200  133.7320 O   0  0  0  0  0  0  0  0  0  0  0  0
  147.7140  158.8140  132.7360 N   0  0  0  0  0  0  0  0  0  0  0  0
  148.8170  158.8920  131.9370 C   0  0  0  0  0  0  0  0  0  0  0  0
  149.3430  160.1140  131.2910 C   0  0  0  0  0  0  0  0  0  0  0  0
  148.5730  161.3110  131.2350 N   0  0  0  0  0  0  0  0  0  0  0  0
  150.5140  160.1170  130.8270 O   0  0  0  0  0  0  0  0  0  0  0  0
  149.4490  157.6530  131.8610 C   0  0  0  0  0  0  0  0  0  0  0  0
  148.6970  156.8090  132.6470 C   0  0  0  0  0  0  0  0  0  0  0  0
  148.8540  155.4510  132.9060 C   0  0  0  0  0  0  0  0  0  0  0  0
  147.9040  154.8230  133.7270 C   0  0  0  0  0  0  0  0  0  0  0  0
  146.8250  155.5590  134.2830 C   0  0  0  0  0  0  0  0  0  0  0  0
  145.7780  154.8620  135.1140 C   0  0  0  0  0  0  0  0  0  0  0  0
  144.7160  155.7240  135.3260 F   0  0  0  0  0  0  0  0  0  0  0  0
  145.3170  153.7270  134.4700 F   0  0  0  0  0  0  0  0  0  0  0  0
  146.3030  154.4810  136.3370 F   0  0  0  0  0  0  0  0  0  0  0  0
  146.6860  156.9320  133.9720 C   0  0  0  0  0  0  0  0  0  0  0  0
  147.6570  157.5350  133.1650 C   0  0  0  0  0  0  0  0  0  0  0  0
  137.4599  160.3784  131.3946 H   0  0  0  0  0  0  0  0  0  0  0  0
  138.9569  159.7175  130.6536 H   0  0  0  0  0  0  0  0  0  0  0  0
  137.4486  158.7420  130.6536 H   0  0  0  0  0  0  0  0  0  0  0  0
  139.6422  156.9949  133.8009 H   0  0  0  0  0  0  0  0  0  0  0  0
  141.2574  157.7814  133.8686 H   0  0  0  0  0  0  0  0  0  0  0  0
  147.7450  161.4440  131.8550 H   0  0  0  0  0  0  0  0  0  0  0  0
  150.3570  157.4019  131.2930 H   0  0  0  0  0  0  0  0  0  0  0  0
  149.6968  154.8866  132.4804 H   0  0  0  0  0  0  0  0  0  0  0  0
  147.9968  153.7482  133.9419 H   0  0  0  0  0  0  0  0  0  0  0  0
  145.8340  157.5123  134.3559 H   0  0  0  0  0  0  0  0  0  0  0  0
  1  2  1  0
  2  3  1  0
  3  4  2  0
  3  5  1  0
  5  6  1  0
  6  7  1  0
  7  8  2  0
  7  9  1  0
  9 10  1  0
 10 11  1  0
 11 12  2  0
 11 13  1  0
 13 14  2  0
 13 15  1  0
 15 16  1  0
 16 17  2  0
 16 18  1  0
 18 19  1  0
 19 20  1  0
 20 21  1  0
 20 22  2  0
 19 23  2  0
 23 24  1  0
 24 25  2  0
 25 26  1  0
 26 27  2  0
 27 28  1  0
 28 29  1  0
 28 30  1  0
 28 31  1  0
 27 32  1  0
 32 33  2  0
 33 18  1  0
 33 24  1  0
  1 34  1  0
  1 35  1  0
  1 36  1  0
  5 37  1  0
  5 38  1  0
 21 39  1  0
 23 40  1  0
 25 41  1  0
 26 42  1  0
 32 43  1  0
M  CHG  2   9  -1  21  -1
M  END
>  <UniqueID>  (83) 
82

>  <SMILES>  (83) 
COC(=O)COC(=O)[N-]OC(=O)C(=O)OC(=O)n1c(C([NH-])=O)cc2ccc(C(F)(F)F)cc21

>  <Energy>  (83) 
80.97595858454092

>  <Genealogy>  (83) 
COC(=O)COC(=O)[N-]OC(=O)C(=O)OC(=O)n1c(C([NH-])=O)cc2ccc(C(F)(F)F)cc21 (protonated)
COC(=O)COC(=O)[N-]OC(=O)C(=O)OC(=O)n1c(C([NH-])=O)cc2ccc(C(F)(F)F)cc21 (3D coordinates assigned)
COC(=O)COC(=O)[N-]OC(=O)C(=O)OC(=O)n1c(C([NH-])=O)cc2ccc(C(F)(F)F)cc21 (optimized conformer: 80.97595858454092 kcal/mol)

>  <smiles>  (83) 
COC(=O)COC(=O)NOC(=O)C(=O)OC(=O)n1c(C(N)=O)cc2ccc(C(F)(F)F)cc21

>  <score_type>  (83) 
oracle

>  <origin>  (83) 
adg

>  <m_score__min__energy>  (83) 
-6.4199999999999999

>  <m_primary>  (83) 
energy

$$$$
84:0
     RDKit          3D

 36 37  0  0  0  0  0  0  0  0999 V2000
  148.7670  157.3760  132.9670 N   0  0  0  0  0  0  0  0  0  0  0  0
  147.9470  157.0950  134.1030 C   0  0  0  0  0  0  0  0  0  0  0  0
  148.4880  156.7150  135.1750 O   0  0  0  0  0  0  0  0  0  0  0  0
  146.4760  157.1790  134.0240 C   0  0  0  0  0  0  0  0  0  0  0  0
  145.6250  156.2020  134.5310 C   0  0  0  0  0  0  0  0  0  0  0  0
  144.3560  156.6200  134.2030 C   0  0  0  0  0  0  0  0  0  0  0  0
  143.1250  156.0330  134.4780 C   0  0  0  0  0  0  0  0  0  0  0  0
  141.9670  156.7050  134.0550 C   0  0  0  0  0  0  0  0  0  0  0  0
  142.0520  157.9470  133.3780 C   0  0  0  0  0  0  0  0  0  0  0  0
  140.8380  158.6070  132.9750 N   0  0  0  0  0  0  0  0  0  0  0  0
  139.5040  158.1400  133.3620 C   0  0  0  0  0  0  0  0  0  0  0  0
  138.4430  158.5220  132.3240 C   0  0  0  0  0  0  0  0  0  0  0  0
  138.9980  159.8530  131.2650 S   0  0  0  0  0  0  0  0  0  0  0  0
  137.8470  160.3220  130.4200 O   0  0  0  0  0  0  0  0  0  0  0  0
  140.1070  159.3810  130.3680 O   0  0  0  0  0  0  0  0  0  0  0  0
  139.5480  161.1330  132.2040 O   0  0  0  0  0  0  0  0  0  0  0  0
  143.3240  158.5130  133.1210 C   0  0  0  0  0  0  0  0  0  0  0  0
  144.4640  157.8120  133.5340 C   0  0  0  0  0  0  0  0  0  0  0  0
  145.7630  158.1710  133.4180 N   0  0  0  0  0  0  0  0  0  0  0  0
  146.2730  159.4050  132.8840 C   0  0  0  0  0  0  0  0  0  0  0  0
  145.8940  160.5040  133.3730 O   0  0  0  0  0  0  0  0  0  0  0  0
  147.1910  159.3710  131.8240 O   0  0  0  0  0  0  0  0  0  0  0  0
  148.4170  160.0450  131.8000 C   0  0  0  0  0  0  0  0  0  0  0  0
  148.4750  161.3040  131.7810 O   0  0  0  0  0  0  0  0  0  0  0  0
  149.5940  159.3110  131.7970 O   0  0  0  0  0  0  0  0  0  0  0  0
  149.8070  157.3520  133.0530 H   0  0  0  0  0  0  0  0  0  0  0  0
  148.3470  157.5310  132.0240 H   0  0  0  0  0  0  0  0  0  0  0  0
  145.9067  155.2899  135.0775 H   0  0  0  0  0  0  0  0  0  0  0  0
  143.0609  155.0724  135.0102 H   0  0  0  0  0  0  0  0  0  0  0  0
  140.9800  156.2611  134.2519 H   0  0  0  0  0  0  0  0  0  0  0  0
  140.9200  159.4540  132.3670 H   0  0  0  0  0  0  0  0  0  0  0  0
  139.5256  157.0448  133.4624 H   0  0  0  0  0  0  0  0  0  0  0  0
  139.2374  158.6197  134.3153 H   0  0  0  0  0  0  0  0  0  0  0  0
  138.2198  157.6422  131.7027 H   0  0  0  0  0  0  0  0  0  0  0  0
  137.5464  158.8642  132.8617 H   0  0  0  0  0  0  0  0  0  0  0  0
  143.4149  159.4819  132.6083 H   0  0  0  0  0  0  0  0  0  0  0  0
  1  2  1  0
  2  3  2  0
  2  4  1  0
  4  5  2  0
  5  6  1  0
  6  7  2  0
  7  8  1  0
  8  9  2  0
  9 10  1  0
 10 11  1  0
 11 12  1  0
 12 13  1  0
 13 14  2  0
 13 15  2  0
 13 16  1  0
  9 17  1  0
 17 18  2  0
 18 19  1  0
 19 20  1  0
 20 21  2  0
 20 22  1  0
 22 23  1  0
 23 24  2  0
 23 25  1  0
 19  4  1  0
 18  6  1  0
  1 26  1  0
  1 27  1  0
  5 28  1  0
  7 29  1  0
  8 30  1  0
 10 31  1  0
 11 32  1  0
 11 33  1  0
 12 34  1  0
 12 35  1  0
 17 36  1  0
M  CHG  2  16  -1  25  -1
M  END
>  <UniqueID>  (84) 
83

>  <SMILES>  (84) 
NC(=O)c1cc2ccc(NCCS(=O)(=O)[O-])cc2n1C(=O)OC(=O)[O-]

>  <Energy>  (84) 
70.91392437954921

>  <Genealogy>  (84) 
NC(=O)c1cc2ccc(NCCS(=O)(=O)[O-])cc2n1C(=O)OC(=O)[O-] (protonated)
NC(=O)c1cc2ccc(NCCS(=O)(=O)[O-])cc2n1C(=O)OC(=O)[O-] (3D coordinates assigned)
NC(=O)c1cc2ccc(NCCS(=O)(=O)[O-])cc2n1C(=O)OC(=O)[O-] (optimized conformer: 70.91392437954921 kcal/mol)

>  <smiles>  (84) 
NC(=O)c1cc2ccc(NCCS(=O)(=O)O)cc2n1C(=O)OC(=O)O

>  <score_type>  (84) 
oracle

>  <origin>  (84) 
adg

>  <m_score__min__energy>  (84) 
-7.0199999999999996

>  <m_primary>  (84) 
energy

$$$$
85:0
     RDKit          3D

 42 44  0  0  0  0  0  0  0  0999 V2000
  147.2650  151.3260  132.2180 C   0  0  0  0  0  0  0  0  0  0  0  0
  148.1920  152.3820  132.8150 C   0  0  0  0  0  0  0  0  0  0  0  0
  149.5790  152.3050  132.1700 C   0  0  0  0  0  0  0  0  0  0  0  0
  147.6210  153.6740  132.6000 O   0  0  0  0  0  0  0  0  0  0  0  0
  148.2820  154.8710  132.8920 C   0  0  0  0  0  0  0  0  0  0  0  0
  149.4790  155.0440  132.5310 O   0  0  0  0  0  0  0  0  0  0  0  0
  147.5890  155.8660  133.5930 O   0  0  0  0  0  0  0  0  0  0  0  0
  146.4240  156.5050  133.1470 C   0  0  0  0  0  0  0  0  0  0  0  0
  145.4780  155.8410  132.6420 O   0  0  0  0  0  0  0  0  0  0  0  0
  146.3110  157.9320  133.2690 N   0  0  0  0  0  0  0  0  0  0  0  0
  147.2610  158.8610  132.9660 C   0  0  0  0  0  0  0  0  0  0  0  0
  148.6650  158.5780  132.6090 C   0  0  0  0  0  0  0  0  0  0  0  0
  149.0200  157.4120  131.8650 N   0  0  0  0  0  0  0  0  0  0  0  0
  149.5740  159.3520  133.0140 O   0  0  0  0  0  0  0  0  0  0  0  0
  146.7460  160.1490  133.0830 C   0  0  0  0  0  0  0  0  0  0  0  0
  145.4400  159.9810  133.4850 C   0  0  0  0  0  0  0  0  0  0  0  0
  144.4570  160.9310  133.7390 C   0  0  0  0  0  0  0  0  0  0  0  0
  143.1790  160.4770  134.1020 C   0  0  0  0  0  0  0  0  0  0  0  0
  142.8990  159.0860  134.1970 C   0  0  0  0  0  0  0  0  0  0  0  0
  141.5390  158.6170  134.5680 C   0  0  0  0  0  0  0  0  0  0  0  0
  140.6050  158.0230  133.7370 C   0  0  0  0  0  0  0  0  0  0  0  0
  139.5040  157.7670  134.5260 C   0  0  0  0  0  0  0  0  0  0  0  0
  139.7350  158.1680  135.7550 O   0  0  0  0  0  0  0  0  0  0  0  0
  140.9420  158.6820  135.8170 C   0  0  0  0  0  0  0  0  0  0  0  0
  143.9300  158.1540  133.9260 C   0  0  0  0  0  0  0  0  0  0  0  0
  145.2000  158.6360  133.5870 C   0  0  0  0  0  0  0  0  0  0  0  0
  146.7748  150.7676  133.0291 H   0  0  0  0  0  0  0  0  0  0  0  0
  146.5012  151.8173  131.5974 H   0  0  0  0  0  0  0  0  0  0  0  0
  147.8511  150.6323  131.5974 H   0  0  0  0  0  0  0  0  0  0  0  0
  148.3054  152.2001  133.8939 H   0  0  0  0  0  0  0  0  0  0  0  0
  150.3471  152.2623  132.9562 H   0  0  0  0  0  0  0  0  0  0  0  0
  149.6432  151.4019  131.5453 H   0  0  0  0  0  0  0  0  0  0  0  0
  149.7428  153.1954  131.5453 H   0  0  0  0  0  0  0  0  0  0  0  0
  148.3170  156.6680  131.6610 H   0  0  0  0  0  0  0  0  0  0  0  0
  150.0130  157.2510  131.5850 H   0  0  0  0  0  0  0  0  0  0  0  0
  147.2701  161.0976  132.8946 H   0  0  0  0  0  0  0  0  0  0  0  0
  144.6742  162.0063  133.6579 H   0  0  0  0  0  0  0  0  0  0  0  0
  142.3841  161.2067  134.3157 H   0  0  0  0  0  0  0  0  0  0  0  0
  140.7182  157.8006  132.6657 H   0  0  0  0  0  0  0  0  0  0  0  0
  138.5720  157.2974  134.1784 H   0  0  0  0  0  0  0  0  0  0  0  0
  141.4077  159.1000  136.7216 H   0  0  0  0  0  0  0  0  0  0  0  0
  143.7369  157.0725  133.9807 H   0  0  0  0  0  0  0  0  0  0  0  0
  1  2  1  0
  2  3  1  0
  2  4  1  0
  4  5  1  0
  5  6  2  0
  5  7  1  0
  7  8  1  0
  8  9  2  0
  8 10  1  0
 10 11  1  0
 11 12  1  0
 12 13  1  0
 12 14  2  0
 11 15  2  0
 15 16  1  0
 16 17  2  0
 17 18  1  0
 18 19  2  0
 19 20  1  0
 20 21  1  0
 21 22  2  0
 22 23  1  0
 23 24  1  0
 19 25  1  0
 25 26  2  0
 26 10  1  0
 26 16  1  0
 24 20  2  0
  1 27  1  0
  1 28  1  0
  1 29  1  0
  2 30  1  0
  3 31  1  0
  3 32  1  0
  3 33  1  0
 13 34  1  0
 13 35  1  0
 15 36  1  0
 17 37  1  0
 18 38  1  0
 21 39  1  0
 22 40  1  0
 24 41  1  0
 25 42  1  0
M  END
>  <UniqueID>  (85) 
84

>  <SMILES>  (85) 
CC(C)OC(=O)OC(=O)n1c(C(N)=O)cc2ccc(-c3ccoc3)cc21

>  <Energy>  (85) 
107.33145698347869

>  <Genealogy>  (85) 
CC(C)OC(=O)OC(=O)n1c(C(N)=O)cc2ccc(-c3ccoc3)cc21 (3D coordinates assigned)
CC(C)OC(=O)OC(=O)n1c(C(N)=O)cc2ccc(-c3ccoc3)cc21 (optimized conformer: 107.33145698347869 kcal/mol)

>  <smiles>  (85) 
CC(C)OC(=O)OC(=O)n1c(C(N)=O)cc2ccc(-c3ccoc3)cc21

>  <score_type>  (85) 
oracle

>  <origin>  (85) 
adg

>  <m_score__min__energy>  (85) 
-7.2599999999999998

>  <m_primary>  (85) 
energy

$$$$
86:0
     RDKit          3D

 31 32  0  0  0  0  0  0  0  0999 V2000
  140.9650  154.9650  133.3740 C   0  0  0  0  0  0  0  0  0  0  0  0
  139.8820  155.9960  133.3550 C   0  0  0  0  0  0  0  0  0  0  0  0
  138.7320  155.6700  132.9550 O   0  0  0  0  0  0  0  0  0  0  0  0
  140.1210  157.3300  133.8330 N   0  0  0  0  0  0  0  0  0  0  0  0
  140.1410  158.4880  133.1150 C   0  0  0  0  0  0  0  0  0  0  0  0
  139.7610  158.6190  131.6910 C   0  0  0  0  0  0  0  0  0  0  0  0
  138.6410  157.9060  131.1640 N   0  0  0  0  0  0  0  0  0  0  0  0
  140.4450  159.3430  130.9190 O   0  0  0  0  0  0  0  0  0  0  0  0
  140.4740  159.5650  133.9360 C   0  0  0  0  0  0  0  0  0  0  0  0
  140.6520  159.0250  135.1910 C   0  0  0  0  0  0  0  0  0  0  0  0
  140.9970  159.6410  136.3910 C   0  0  0  0  0  0  0  0  0  0  0  0
  141.1260  158.8300  137.5320 C   0  0  0  0  0  0  0  0  0  0  0  0
  140.9150  157.4340  137.4480 C   0  0  0  0  0  0  0  0  0  0  0  0
  141.0600  156.6150  138.6210 C   0  0  0  0  0  0  0  0  0  0  0  0
  141.1810  155.9280  139.6050 C   0  0  0  0  0  0  0  0  0  0  0  0
  141.3290  155.0950  140.7970 C   0  0  0  0  0  0  0  0  0  0  0  0
  140.0870  154.5470  141.1360 O   0  0  0  0  0  0  0  0  0  0  0  0
  140.5660  156.8420  136.2180 C   0  0  0  0  0  0  0  0  0  0  0  0
  140.4310  157.6760  135.1000 C   0  0  0  0  0  0  0  0  0  0  0  0
  141.2210  154.7213  134.4157 H   0  0  0  0  0  0  0  0  0  0  0  0
  140.6160  154.0571  132.8601 H   0  0  0  0  0  0  0  0  0  0  0  0
  141.8546  155.3582  132.8601 H   0  0  0  0  0  0  0  0  0  0  0  0
  138.4050  157.9770  130.1490 H   0  0  0  0  0  0  0  0  0  0  0  0
  138.0170  157.3420  131.7820 H   0  0  0  0  0  0  0  0  0  0  0  0
  140.5734  160.6208  133.6438 H   0  0  0  0  0  0  0  0  0  0  0  0
  141.1632  160.7271  136.4445 H   0  0  0  0  0  0  0  0  0  0  0  0
  141.3931  159.2846  138.4974 H   0  0  0  0  0  0  0  0  0  0  0  0
  142.0445  154.2849  140.5925 H   0  0  0  0  0  0  0  0  0  0  0  0
  141.7009  155.7083  141.6310 H   0  0  0  0  0  0  0  0  0  0  0  0
  139.4620  155.3130  141.2150 H   0  0  0  0  0  0  0  0  0  0  0  0
  140.4042  155.7569  136.1377 H   0  0  0  0  0  0  0  0  0  0  0  0
  1  2  1  0
  2  3  2  0
  2  4  1  0
  4  5  1  0
  5  6  1  0
  6  7  1  0
  6  8  2  0
  5  9  2  0
  9 10  1  0
 10 11  2  0
 11 12  1  0
 12 13  2  0
 13 14  1  0
 14 15  3  0
 15 16  1  0
 16 17  1  0
 13 18  1  0
 18 19  2  0
 19  4  1  0
 19 10  1  0
  1 20  1  0
  1 21  1  0
  1 22  1  0
  7 23  1  0
  7 24  1  0
  9 25  1  0
 11 26  1  0
 12 27  1  0
 16 28  1  0
 16 29  1  0
 17 30  1  0
 18 31  1  0
M  END
>  <UniqueID>  (86) 
85

>  <SMILES>  (86) 
CC(=O)n1c(C(N)=O)cc2ccc(C#CCO)cc21

>  <Energy>  (86) 
64.3985106052602

>  <Genealogy>  (86) 
CC(=O)n1c(C(N)=O)cc2ccc(C#CCO)cc21 (3D coordinates assigned)
CC(=O)n1c(C(N)=O)cc2ccc(C#CCO)cc21 (optimized conformer: 64.3985106052602 kcal/mol)

>  <smiles>  (86) 
CC(=O)n1c(C(N)=O)cc2ccc(C#CCO)cc21

>  <score_type>  (86) 
oracle

>  <origin>  (86) 
adg

>  <m_score__min__energy>  (86) 
-6.6399999999999997

>  <m_primary>  (86) 
energy

$$$$
87:0
     RDKit          3D

 42 44  0  0  0  0  0  0  0  0999 V2000
  149.6190  150.8030  133.6510 C   0  0  0  0  0  0  0  0  0  0  0  0
  149.5300  152.2190  133.7470 O   0  0  0  0  0  0  0  0  0  0  0  0
  149.3050  153.0350  132.6350 C   0  0  0  0  0  0  0  0  0  0  0  0
  149.6000  152.6440  131.4740 O   0  0  0  0  0  0  0  0  0  0  0  0
  148.7270  154.3350  132.8200 C   0  0  0  0  0  0  0  0  0  0  0  0
  148.2420  155.4280  132.9750 C   0  0  0  0  0  0  0  0  0  0  0  0
  147.6620  156.7310  133.1610 C   0  0  0  0  0  0  0  0  0  0  0  0
  148.4990  157.8650  133.2790 C   0  0  0  0  0  0  0  0  0  0  0  0
  147.9440  159.1450  133.4480 C   0  0  0  0  0  0  0  0  0  0  0  0
  146.5560  159.2520  133.5020 C   0  0  0  0  0  0  0  0  0  0  0  0
  145.7570  160.3650  133.6370 C   0  0  0  0  0  0  0  0  0  0  0  0
  144.4490  159.8860  133.6210 C   0  0  0  0  0  0  0  0  0  0  0  0
  143.2650  160.7440  133.8330 C   0  0  0  0  0  0  0  0  0  0  0  0
  142.0090  160.1830  134.2060 N   0  0  0  0  0  0  0  0  0  0  0  0
  143.3740  161.9940  133.7290 O   0  0  0  0  0  0  0  0  0  0  0  0
  144.4390  158.5310  133.4710 N   0  0  0  0  0  0  0  0  0  0  0  0
  143.3010  157.6680  133.3320 C   0  0  0  0  0  0  0  0  0  0  0  0
  142.3160  158.0350  132.6340 O   0  0  0  0  0  0  0  0  0  0  0  0
  143.2960  156.4170  133.9600 O   0  0  0  0  0  0  0  0  0  0  0  0
  142.2400  155.9740  134.8070 C   0  0  0  0  0  0  0  0  0  0  0  0
  141.4620  157.1470  135.3190 C   0  0  0  0  0  0  0  0  0  0  0  0
  141.8490  157.9170  136.3090 O   0  0  0  0  0  0  0  0  0  0  0  0
  140.9100  158.8250  136.4470 C   0  0  0  0  0  0  0  0  0  0  0  0
  140.9470  159.7420  137.3090 O   0  0  0  0  0  0  0  0  0  0  0  0
  139.9300  158.6740  135.5870 O   0  0  0  0  0  0  0  0  0  0  0  0
  140.2460  157.6260  134.8630 C   0  0  0  0  0  0  0  0  0  0  0  0
  139.4150  157.0820  133.7490 C   0  0  0  0  0  0  0  0  0  0  0  0
  145.7350  158.1570  133.4060 C   0  0  0  0  0  0  0  0  0  0  0  0
  146.2600  156.8730  133.2190 C   0  0  0  0  0  0  0  0  0  0  0  0
  149.6463  150.3680  134.6610 H   0  0  0  0  0  0  0  0  0  0  0  0
  148.7434  150.4165  133.1089 H   0  0  0  0  0  0  0  0  0  0  0  0
  150.5361  150.5292  133.1089 H   0  0  0  0  0  0  0  0  0  0  0  0
  149.5916  157.7443  133.2382 H   0  0  0  0  0  0  0  0  0  0  0  0
  148.5853  160.0345  133.5349 H   0  0  0  0  0  0  0  0  0  0  0  0
  146.0825  161.4110  133.7364 H   0  0  0  0  0  0  0  0  0  0  0  0
  141.9280  159.1810  134.4840 H   0  0  0  0  0  0  0  0  0  0  0  0
  141.5695  155.3139  134.2371 H   0  0  0  0  0  0  0  0  0  0  0  0
  142.6688  155.4274  135.6599 H   0  0  0  0  0  0  0  0  0  0  0  0
  138.5632  156.5244  134.1655 H   0  0  0  0  0  0  0  0  0  0  0  0
  139.0427  157.9118  133.1302 H   0  0  0  0  0  0  0  0  0  0  0  0
  140.0266  156.4089  133.1302 H   0  0  0  0  0  0  0  0  0  0  0  0
  145.5982  155.9999  133.1201 H   0  0  0  0  0  0  0  0  0  0  0  0
  1  2  1  0
  2  3  1  0
  3  4  2  0
  3  5  1  0
  5  6  3  0
  6  7  1  0
  7  8  2  0
  8  9  1  0
  9 10  2  0
 10 11  1  0
 11 12  2  0
 12 13  1  0
 13 14  1  0
 13 15  2  0
 12 16  1  0
 16 17  1  0
 17 18  2  0
 17 19  1  0
 19 20  1  0
 20 21  1  0
 21 22  1  0
 22 23  1  0
 23 24  2  0
 23 25  1  0
 25 26  1  0
 26 27  1  0
 16 28  1  0
 28 29  2  0
 29  7  1  0
 28 10  1  0
 26 21  2  0
  1 30  1  0
  1 31  1  0
  1 32  1  0
  8 33  1  0
  9 34  1  0
 11 35  1  0
 14 36  1  0
 20 37  1  0
 20 38  1  0
 27 39  1  0
 27 40  1  0
 27 41  1  0
 29 42  1  0
M  CHG  1  14  -1
M  END
>  <UniqueID>  (87) 
86

>  <SMILES>  (87) 
COC(=O)C#Cc1ccc2cc(C([NH-])=O)n(C(=O)OCc3oc(=O)oc3C)c2c1

>  <Energy>  (87) 
106.41552991891693

>  <Genealogy>  (87) 
COC(=O)C#Cc1ccc2cc(C([NH-])=O)n(C(=O)OCc3oc(=O)oc3C)c2c1 (protonated)
COC(=O)C#Cc1ccc2cc(C([NH-])=O)n(C(=O)OCc3oc(=O)oc3C)c2c1 (3D coordinates assigned)
COC(=O)C#Cc1ccc2cc(C([NH-])=O)n(C(=O)OCc3oc(=O)oc3C)c2c1 (optimized conformer: 106.41552991891693 kcal/mol)

>  <smiles>  (87) 
COC(=O)C#Cc1ccc2cc(C(N)=O)n(C(=O)OCc3oc(=O)oc3C)c2c1

>  <score_type>  (87) 
oracle

>  <origin>  (87) 
adg

>  <m_score__min__energy>  (87) 
-8.0899999999999999

>  <m_primary>  (87) 
energy

$$$$
88:0
     RDKit          3D

 46 47  0  0  0  0  0  0  0  0999 V2000
  148.9710  160.7210  131.1560 C   0  0  0  0  0  0  0  0  0  0  0  0
  147.9480  160.8880  132.1290 O   0  0  0  0  0  0  0  0  0  0  0  0
  147.7400  159.9770  133.1680 C   0  0  0  0  0  0  0  0  0  0  0  0
  148.6630  159.7290  133.9910 O   0  0  0  0  0  0  0  0  0  0  0  0
  146.4770  159.3010  133.2830 N   0  0  0  0  0  0  0  0  0  0  0  0
  145.2800  159.8230  133.6760 C   0  0  0  0  0  0  0  0  0  0  0  0
  144.9920  161.2520  133.9190 C   0  0  0  0  0  0  0  0  0  0  0  0
  146.0450  162.1860  134.1370 N   0  0  0  0  0  0  0  0  0  0  0  0
  143.8010  161.6620  133.8840 O   0  0  0  0  0  0  0  0  0  0  0  0
  144.3110  158.8240  133.7440 C   0  0  0  0  0  0  0  0  0  0  0  0
  144.9530  157.6670  133.3680 C   0  0  0  0  0  0  0  0  0  0  0  0
  144.4650  156.3680  133.2610 C   0  0  0  0  0  0  0  0  0  0  0  0
  145.3600  155.3580  132.8710 C   0  0  0  0  0  0  0  0  0  0  0  0
  146.7240  155.6580  132.6150 C   0  0  0  0  0  0  0  0  0  0  0  0
  147.6270  154.6160  132.1940 N   0  0  0  0  0  0  0  0  0  0  0  0
  148.7790  154.5560  133.1050 C   0  0  0  0  0  0  0  0  0  0  0  0
  149.2290  153.1090  133.3530 C   0  0  0  0  0  0  0  0  0  0  0  0
  149.7220  152.4730  132.1280 N   0  0  0  0  0  0  0  0  0  0  0  0
  149.3490  151.1530  131.6970 C   0  0  0  0  0  0  0  0  0  0  0  0
  150.3560  150.3380  130.6920 S   0  0  0  0  0  0  0  0  0  0  0  0
  148.1090  150.5480  132.1090 N   0  0  0  0  0  0  0  0  0  0  0  0
  148.1000  149.1760  132.6170 C   0  0  0  0  0  0  0  0  0  0  0  0
  146.8460  151.2770  131.9930 C   0  0  0  0  0  0  0  0  0  0  0  0
  147.1790  156.9920  132.7260 C   0  0  0  0  0  0  0  0  0  0  0  0
  146.2590  157.9810  133.0960 C   0  0  0  0  0  0  0  0  0  0  0  0
  149.9354  160.5636  131.6612 H   0  0  0  0  0  0  0  0  0  0  0  0
  148.7399  159.8487  130.5270 H   0  0  0  0  0  0  0  0  0  0  0  0
  149.0293  161.6215  130.5270 H   0  0  0  0  0  0  0  0  0  0  0  0
  146.8810  162.2080  133.5120 H   0  0  0  0  0  0  0  0  0  0  0  0
  143.2566  158.9367  134.0363 H   0  0  0  0  0  0  0  0  0  0  0  0
  143.4106  156.1392  133.4753 H   0  0  0  0  0  0  0  0  0  0  0  0
  145.0005  154.3241  132.7628 H   0  0  0  0  0  0  0  0  0  0  0  0
  147.1290  153.6940  132.1930 H   0  0  0  0  0  0  0  0  0  0  0  0
  147.9470  154.8110  131.2170 H   0  0  0  0  0  0  0  0  0  0  0  0
  149.6141  155.1185  132.6620 H   0  0  0  0  0  0  0  0  0  0  0  0
  148.4785  154.9927  134.0688 H   0  0  0  0  0  0  0  0  0  0  0  0
  150.0345  153.1104  134.1021 H   0  0  0  0  0  0  0  0  0  0  0  0
  148.3589  152.5372  133.7079 H   0  0  0  0  0  0  0  0  0  0  0  0
  150.4820  152.9660  131.6070 H   0  0  0  0  0  0  0  0  0  0  0  0
  148.1001  149.1922  133.7169 H   0  0  0  0  0  0  0  0  0  0  0  0
  147.1984  148.6580  132.2580 H   0  0  0  0  0  0  0  0  0  0  0  0
  148.9947  148.6462  132.2580 H   0  0  0  0  0  0  0  0  0  0  0  0
  146.4582  151.5008  132.9977 H   0  0  0  0  0  0  0  0  0  0  0  0
  147.0140  152.2170  131.4470 H   0  0  0  0  0  0  0  0  0  0  0  0
  146.1161  150.6613  131.4470 H   0  0  0  0  0  0  0  0  0  0  0  0
  148.2303  157.2470  132.5265 H   0  0  0  0  0  0  0  0  0  0  0  0
  1  2  1  0
  2  3  1  0
  3  4  2  0
  3  5  1  0
  5  6  1  0
  6  7  1  0
  7  8  1  0
  7  9  2  0
  6 10  2  0
 10 11  1  0
 11 12  2  0
 12 13  1  0
 13 14  2  0
 14 15  1  0
 15 16  1  0
 16 17  1  0
 17 18  1  0
 18 19  1  0
 19 20  2  0
 19 21  1  0
 21 22  1  0
 21 23  1  0
 14 24  1  0
 24 25  2  0
 25  5  1  0
 25 11  1  0
  1 26  1  0
  1 27  1  0
  1 28  1  0
  8 29  1  0
 10 30  1  0
 12 31  1  0
 13 32  1  0
 15 33  1  0
 15 34  1  0
 16 35  1  0
 16 36  1  0
 17 37  1  0
 17 38  1  0
 18 39  1  0
 22 40  1  0
 22 41  1  0
 22 42  1  0
 23 43  1  0
 23 44  1  0
 23 45  1  0
 24 46  1  0
M  CHG  2   8  -1  15   1
M  END
>  <UniqueID>  (88) 
87

>  <SMILES>  (88) 
COC(=O)n1c(C([NH-])=O)cc2ccc([NH2+]CCNC(=S)N(C)C)cc21

>  <Energy>  (88) 
81.33044372289207

>  <Genealogy>  (88) 
COC(=O)n1c(C([NH-])=O)cc2ccc([NH2+]CCNC(=S)N(C)C)cc21 (protonated)
COC(=O)n1c(C([NH-])=O)cc2ccc([NH2+]CCNC(=S)N(C)C)cc21 (3D coordinates assigned)
COC(=O)n1c(C([NH-])=O)cc2ccc([NH2+]CCNC(=S)N(C)C)cc21 (optimized conformer: 81.33044372289207 kcal/mol)

>  <smiles>  (88) 
COC(=O)n1c(C(N)=O)cc2ccc(NCCNC(=S)N(C)C)cc21

>  <score_type>  (88) 
oracle

>  <origin>  (88) 
adg

>  <m_score__min__energy>  (88) 
-7.3899999999999997

>  <m_primary>  (88) 
energy

$$$$
89:0
     RDKit          3D

 44 45  0  0  0  0  0  0  0  0999 V2000
  139.7980  155.9980  133.0820 C   0  0  0  0  0  0  0  0  0  0  0  0
  140.1940  157.3250  133.5860 N   0  0  0  0  0  0  0  0  0  0  0  0
  139.1040  157.8840  134.4080 C   0  0  0  0  0  0  0  0  0  0  0  0
  140.5280  158.2150  132.4450 C   0  0  0  0  0  0  0  0  0  0  0  0
  140.3840  159.7140  132.7710 C   0  0  0  0  0  0  0  0  0  0  0  0
  141.5680  160.2370  133.5210 C   0  0  0  0  0  0  0  0  0  0  0  0
  141.3920  160.8300  134.6210 O   0  0  0  0  0  0  0  0  0  0  0  0
  142.8500  160.0730  132.9810 O   0  0  0  0  0  0  0  0  0  0  0  0
  144.0240  159.9360  133.7340 C   0  0  0  0  0  0  0  0  0  0  0  0
  144.4010  160.8540  134.5100 O   0  0  0  0  0  0  0  0  0  0  0  0
  144.8190  158.7470  133.6010 N   0  0  0  0  0  0  0  0  0  0  0  0
  144.4790  157.4720  133.9520 C   0  0  0  0  0  0  0  0  0  0  0  0
  143.1490  157.0220  134.4090 C   0  0  0  0  0  0  0  0  0  0  0  0
  142.3180  157.9070  135.1560 N   0  0  0  0  0  0  0  0  0  0  0  0
  142.7470  155.8500  134.1770 O   0  0  0  0  0  0  0  0  0  0  0  0
  145.5480  156.6050  133.7380 C   0  0  0  0  0  0  0  0  0  0  0  0
  146.5590  157.3890  133.2330 C   0  0  0  0  0  0  0  0  0  0  0  0
  147.8510  157.0420  132.8480 C   0  0  0  0  0  0  0  0  0  0  0  0
  148.6950  158.0620  132.3790 C   0  0  0  0  0  0  0  0  0  0  0  0
  148.2400  159.4030  132.3140 C   0  0  0  0  0  0  0  0  0  0  0  0
  149.1500  160.4770  131.7820 C   0  0  0  0  0  0  0  0  0  0  0  0
  149.1940  160.4310  130.2880 C   0  0  0  0  0  0  0  0  0  0  0  0
  148.8500  159.3870  129.6750 O   0  0  0  0  0  0  0  0  0  0  0  0
  149.6190  161.5400  129.5680 O   0  0  0  0  0  0  0  0  0  0  0  0
  146.9200  159.7180  132.7080 C   0  0  0  0  0  0  0  0  0  0  0  0
  146.0940  158.6780  133.1580 C   0  0  0  0  0  0  0  0  0  0  0  0
  139.5981  155.3280  133.9312 H   0  0  0  0  0  0  0  0  0  0  0  0
  138.8895  156.0946  132.4693 H   0  0  0  0  0  0  0  0  0  0  0  0
  140.6108  155.5809  132.4693 H   0  0  0  0  0  0  0  0  0  0  0  0
  141.0360  157.1900  134.1930 H   0  0  0  0  0  0  0  0  0  0  0  0
  139.3473  157.7592  135.4735 H   0  0  0  0  0  0  0  0  0  0  0  0
  138.9858  158.9540  134.1817 H   0  0  0  0  0  0  0  0  0  0  0  0
  138.1661  157.3556  134.1817 H   0  0  0  0  0  0  0  0  0  0  0  0
  141.5690  158.0222  132.1464 H   0  0  0  0  0  0  0  0  0  0  0  0
  139.8138  157.9894  131.6394 H   0  0  0  0  0  0  0  0  0  0  0  0
  140.2829  160.2747  131.8300 H   0  0  0  0  0  0  0  0  0  0  0  0
  139.4945  159.8414  133.4055 H   0  0  0  0  0  0  0  0  0  0  0  0
  142.3520  158.9380  134.9960 H   0  0  0  0  0  0  0  0  0  0  0  0
  145.5774  155.5226  133.9318 H   0  0  0  0  0  0  0  0  0  0  0  0
  148.2003  156.0007  132.9092 H   0  0  0  0  0  0  0  0  0  0  0  0
  149.7188  157.8179  132.0591 H   0  0  0  0  0  0  0  0  0  0  0  0
  148.7764  161.4604  132.1034 H   0  0  0  0  0  0  0  0  0  0  0  0
  150.1644  160.3112  132.1738 H   0  0  0  0  0  0  0  0  0  0  0  0
  146.5498  160.7528  132.6628 H   0  0  0  0  0  0  0  0  0  0  0  0
  1  2  1  0
  2  3  1  0
  2  4  1  0
  4  5  1  0
  5  6  1  0
  6  7  2  0
  6  8  1  0
  8  9  1  0
  9 10  2  0
  9 11  1  0
 11 12  1  0
 12 13  1  0
 13 14  1  0
 13 15  2  0
 12 16  2  0
 16 17  1  0
 17 18  2  0
 18 19  1  0
 19 20  2  0
 20 21  1  0
 21 22  1  0
 22 23  2  0
 22 24  1  0
 20 25  1  0
 25 26  2  0
 26 11  1  0
 26 17  1  0
  1 27  1  0
  1 28  1  0
  1 29  1  0
  2 30  1  0
  3 31  1  0
  3 32  1  0
  3 33  1  0
  4 34  1  0
  4 35  1  0
  5 36  1  0
  5 37  1  0
 14 38  1  0
 16 39  1  0
 18 40  1  0
 19 41  1  0
 21 42  1  0
 21 43  1  0
 25 44  1  0
M  CHG  3   2   1  14  -1  24  -1
M  END
>  <UniqueID>  (89) 
88

>  <SMILES>  (89) 
C[NH+](C)CCC(=O)OC(=O)n1c(C([NH-])=O)cc2ccc(CC(=O)[O-])cc21

>  <Energy>  (89) 
78.98074743953963

>  <Genealogy>  (89) 
C[NH+](C)CCC(=O)OC(=O)n1c(C([NH-])=O)cc2ccc(CC(=O)[O-])cc21 (protonated)
C[NH+](C)CCC(=O)OC(=O)n1c(C([NH-])=O)cc2ccc(CC(=O)[O-])cc21 (3D coordinates assigned)
C[NH+](C)CCC(=O)OC(=O)n1c(C([NH-])=O)cc2ccc(CC(=O)[O-])cc21 (optimized conformer: 78.98074743953963 kcal/mol)

>  <smiles>  (89) 
CN(C)CCC(=O)OC(=O)n1c(C(N)=O)cc2ccc(CC(=O)O)cc21

>  <score_type>  (89) 
oracle

>  <origin>  (89) 
adg

>  <m_score__min__energy>  (89) 
-5.2599999999999998

>  <m_primary>  (89) 
energy

$$$$
90:0
     RDKit          3D

 47 48  0  0  0  0  0  0  0  0999 V2000
  147.4410  155.7750  134.9400 C   0  0  0  0  0  0  0  0  0  0  0  0
  146.4300  155.3020  133.8770 C   0  0  0  0  0  0  0  0  0  0  0  0
  146.5190  153.7730  133.7500 C   0  0  0  0  0  0  0  0  0  0  0  0
  146.7440  155.9330  132.5070 C   0  0  0  0  0  0  0  0  0  0  0  0
  145.0910  155.6140  134.2800 O   0  0  0  0  0  0  0  0  0  0  0  0
  144.0490  156.0520  133.4470 C   0  0  0  0  0  0  0  0  0  0  0  0
  143.6320  155.3330  132.5000 O   0  0  0  0  0  0  0  0  0  0  0  0
  143.4480  157.3340  133.6870 N   0  0  0  0  0  0  0  0  0  0  0  0
  142.1780  157.5910  134.1130 C   0  0  0  0  0  0  0  0  0  0  0  0
  141.0990  156.5960  134.2650 C   0  0  0  0  0  0  0  0  0  0  0  0
  140.9330  155.5330  133.3250 N   0  0  0  0  0  0  0  0  0  0  0  0
  140.2740  156.7170  135.2110 O   0  0  0  0  0  0  0  0  0  0  0  0
  142.0050  158.9530  134.3460 C   0  0  0  0  0  0  0  0  0  0  0  0
  143.2140  159.5310  134.0340 C   0  0  0  0  0  0  0  0  0  0  0  0
  143.6100  160.8630  134.0940 C   0  0  0  0  0  0  0  0  0  0  0  0
  144.9360  161.1730  133.7450 C   0  0  0  0  0  0  0  0  0  0  0  0
  145.8420  160.1560  133.3540 C   0  0  0  0  0  0  0  0  0  0  0  0
  147.1940  160.5140  133.0120 N   0  0  0  0  0  0  0  0  0  0  0  0
  148.3300  159.6050  133.1880 C   0  0  0  0  0  0  0  0  0  0  0  0
  149.0090  159.3070  131.8460 C   0  0  0  0  0  0  0  0  0  0  0  0
  149.3590  160.5890  131.0840 C   0  0  0  0  0  0  0  0  0  0  0  0
  148.1970  161.2230  130.6200 O   0  0  0  0  0  0  0  0  0  0  0  0
  145.4000  158.8110  133.3110 C   0  0  0  0  0  0  0  0  0  0  0  0
  144.0680  158.5340  133.6400 C   0  0  0  0  0  0  0  0  0  0  0  0
  147.0337  155.5844  135.9439 H   0  0  0  0  0  0  0  0  0  0  0  0
  148.3860  155.2255  134.8174 H   0  0  0  0  0  0  0  0  0  0  0  0
  147.6248  156.8526  134.8174 H   0  0  0  0  0  0  0  0  0  0  0  0
  146.5452  153.3226  134.7532 H   0  0  0  0  0  0  0  0  0  0  0  0
  145.6411  153.3988  133.2029 H   0  0  0  0  0  0  0  0  0  0  0  0
  147.4344  153.5032  133.2029 H   0  0  0  0  0  0  0  0  0  0  0  0
  147.2296  156.9088  132.6554 H   0  0  0  0  0  0  0  0  0  0  0  0
  147.4174  155.2702  131.9437 H   0  0  0  0  0  0  0  0  0  0  0  0
  145.8092  156.0705  131.9437 H   0  0  0  0  0  0  0  0  0  0  0  0
  140.1900  154.8150  133.4720 H   0  0  0  0  0  0  0  0  0  0  0  0
  141.4860  155.5030  132.4410 H   0  0  0  0  0  0  0  0  0  0  0  0
  141.0958  159.4588  134.7032 H   0  0  0  0  0  0  0  0  0  0  0  0
  142.9070  161.6498  134.4050 H   0  0  0  0  0  0  0  0  0  0  0  0
  145.2748  162.2191  133.7758 H   0  0  0  0  0  0  0  0  0  0  0  0
  147.3660  161.4630  132.6090 H   0  0  0  0  0  0  0  0  0  0  0  0
  149.0612  160.0701  133.8655 H   0  0  0  0  0  0  0  0  0  0  0  0
  147.9597  158.6594  133.6107 H   0  0  0  0  0  0  0  0  0  0  0  0
  149.9336  158.7414  132.0334 H   0  0  0  0  0  0  0  0  0  0  0  0
  148.3060  158.7265  131.2305 H   0  0  0  0  0  0  0  0  0  0  0  0
  149.8994  161.2722  131.7557 H   0  0  0  0  0  0  0  0  0  0  0  0
  149.9875  160.3265  130.2203 H   0  0  0  0  0  0  0  0  0  0  0  0
  148.0020  161.9650  131.2500 H   0  0  0  0  0  0  0  0  0  0  0  0
  146.0884  158.0020  133.0253 H   0  0  0  0  0  0  0  0  0  0  0  0
  1  2  1  0
  2  3  1  0
  2  4  1  0
  2  5  1  0
  5  6  1  0
  6  7  2  0
  6  8  1  0
  8  9  1  0
  9 10  1  0
 10 11  1  0
 10 12  2  0
  9 13  2  0
 13 14  1  0
 14 15  2  0
 15 16  1  0
 16 17  2  0
 17 18  1  0
 18 19  1  0
 19 20  1  0
 20 21  1  0
 21 22  1  0
 17 23  1  0
 23 24  2  0
 24  8  1  0
 24 14  1  0
  1 25  1  0
  1 26  1  0
  1 27  1  0
  3 28  1  0
  3 29  1  0
  3 30  1  0
  4 31  1  0
  4 32  1  0
  4 33  1  0
 11 34  1  0
 11 35  1  0
 13 36  1  0
 15 37  1  0
 16 38  1  0
 18 39  1  0
 19 40  1  0
 19 41  1  0
 20 42  1  0
 20 43  1  0
 21 44  1  0
 21 45  1  0
 22 46  1  0
 23 47  1  0
M  END
>  <UniqueID>  (90) 
89

>  <SMILES>  (90) 
CC(C)(C)OC(=O)n1c(C(N)=O)cc2ccc(NCCCO)cc21

>  <Energy>  (90) 
75.74527175639564

>  <Genealogy>  (90) 
CC(C)(C)OC(=O)n1c(C(N)=O)cc2ccc(NCCCO)cc21 (3D coordinates assigned)
CC(C)(C)OC(=O)n1c(C(N)=O)cc2ccc(NCCCO)cc21 (optimized conformer: 75.74527175639564 kcal/mol)

>  <smiles>  (90) 
CC(C)(C)OC(=O)n1c(C(N)=O)cc2ccc(NCCCO)cc21

>  <score_type>  (90) 
oracle

>  <origin>  (90) 
adg

>  <m_score__min__energy>  (90) 
-7.6600000000000001

>  <m_primary>  (90) 
energy

$$$$
91:0
     RDKit          3D

 33 34  0  0  0  0  0  0  0  0999 V2000
  149.6210  159.9960  131.5560 C   0  0  0  0  0  0  0  0  0  0  0  0
  148.5520  159.0980  132.1020 C   0  0  0  0  0  0  0  0  0  0  0  0
  147.3420  159.6510  132.5890 C   0  0  0  0  0  0  0  0  0  0  0  0
  146.3530  158.8250  133.1500 C   0  0  0  0  0  0  0  0  0  0  0  0
  146.6030  157.4580  133.2110 C   0  0  0  0  0  0  0  0  0  0  0  0
  145.8380  156.4420  133.7380 C   0  0  0  0  0  0  0  0  0  0  0  0
  146.5860  155.2830  133.5500 C   0  0  0  0  0  0  0  0  0  0  0  0
  146.1050  153.9380  133.9200 C   0  0  0  0  0  0  0  0  0  0  0  0
  146.3100  152.8150  133.0610 N   0  0  0  0  0  0  0  0  0  0  0  0
  145.4510  153.7860  134.9870 O   0  0  0  0  0  0  0  0  0  0  0  0
  147.7720  155.5680  132.9440 N   0  0  0  0  0  0  0  0  0  0  0  0
  148.8580  154.6660  132.6770 C   0  0  0  0  0  0  0  0  0  0  0  0
  149.9530  155.1110  132.2340 O   0  0  0  0  0  0  0  0  0  0  0  0
  148.6960  153.2960  132.9050 O   0  0  0  0  0  0  0  0  0  0  0  0
  149.6980  152.3370  132.5800 C   0  0  0  0  0  0  0  0  0  0  0  0
  149.0510  151.0960  131.9760 C   0  0  0  0  0  0  0  0  0  0  0  0
  147.7420  150.9420  132.4560 O   0  0  0  0  0  0  0  0  0  0  0  0
  147.7680  156.9060  132.7400 C   0  0  0  0  0  0  0  0  0  0  0  0
  148.7790  157.7080  132.1990 C   0  0  0  0  0  0  0  0  0  0  0  0
  150.1717  160.4586  132.3883 H   0  0  0  0  0  0  0  0  0  0  0  0
  150.3156  159.4065  130.9395 H   0  0  0  0  0  0  0  0  0  0  0  0
  149.1602  160.7819  130.9395 H   0  0  0  0  0  0  0  0  0  0  0  0
  147.1751  160.7365  132.5275 H   0  0  0  0  0  0  0  0  0  0  0  0
  145.4103  159.2465  133.5291 H   0  0  0  0  0  0  0  0  0  0  0  0
  144.8470  156.5277  134.2076 H   0  0  0  0  0  0  0  0  0  0  0  0
  146.6920  152.9370  132.0970 H   0  0  0  0  0  0  0  0  0  0  0  0
  145.9980  151.8640  133.3580 H   0  0  0  0  0  0  0  0  0  0  0  0
  150.3988  152.7736  131.8531 H   0  0  0  0  0  0  0  0  0  0  0  0
  150.2396  152.0546  133.4948 H   0  0  0  0  0  0  0  0  0  0  0  0
  149.0255  151.1975  130.8810 H   0  0  0  0  0  0  0  0  0  0  0  0
  149.6409  150.2124  132.2611 H   0  0  0  0  0  0  0  0  0  0  0  0
  147.7080  151.3890  133.3410 H   0  0  0  0  0  0  0  0  0  0  0  0
  149.7270  157.2664  131.8578 H   0  0  0  0  0  0  0  0  0  0  0  0
  1  2  1  0
  2  3  2  0
  3  4  1  0
  4  5  2  0
  5  6  1  0
  6  7  2  0
  7  8  1  0
  8  9  1  0
  8 10  2  0
  7 11  1  0
 11 12  1  0
 12 13  2  0
 12 14  1  0
 14 15  1  0
 15 16  1  0
 16 17  1  0
 11 18  1  0
 18 19  2  0
 19  2  1  0
 18  5  1  0
  1 20  1  0
  1 21  1  0
  1 22  1  0
  3 23  1  0
  4 24  1  0
  6 25  1  0
  9 26  1  0
  9 27  1  0
 15 28  1  0
 15 29  1  0
 16 30  1  0
 16 31  1  0
 17 32  1  0
 19 33  1  0
M  END
>  <UniqueID>  (91) 
90

>  <SMILES>  (91) 
Cc1ccc2cc(C(N)=O)n(C(=O)OCCO)c2c1

>  <Energy>  (91) 
67.03866263412718

>  <Genealogy>  (91) 
Cc1ccc2cc(C(N)=O)n(C(=O)OCCO)c2c1 (3D coordinates assigned)
Cc1ccc2cc(C(N)=O)n(C(=O)OCCO)c2c1 (optimized conformer: 67.03866263412718 kcal/mol)

>  <smiles>  (91) 
Cc1ccc2cc(C(N)=O)n(C(=O)OCCO)c2c1

>  <score_type>  (91) 
oracle

>  <origin>  (91) 
adg

>  <m_score__min__energy>  (91) 
-6.04

>  <m_primary>  (91) 
energy

$$$$
92:0
     RDKit          3D

 34 35  0  0  0  0  0  0  0  0999 V2000
  149.6180  160.9800  130.7370 C   0  0  0  0  0  0  0  0  0  0  0  0
  148.9120  160.2090  131.3390 C   0  0  0  0  0  0  0  0  0  0  0  0
  148.0710  159.2880  132.0580 C   0  0  0  0  0  0  0  0  0  0  0  0
  146.9010  159.7560  132.6990 C   0  0  0  0  0  0  0  0  0  0  0  0
  146.0790  158.8710  133.4140 C   0  0  0  0  0  0  0  0  0  0  0  0
  146.4520  157.5290  133.4620 C   0  0  0  0  0  0  0  0  0  0  0  0
  145.8550  156.4680  134.1040 C   0  0  0  0  0  0  0  0  0  0  0  0
  146.6630  155.3670  133.8250 C   0  0  0  0  0  0  0  0  0  0  0  0
  146.3470  153.9840  134.2460 C   0  0  0  0  0  0  0  0  0  0  0  0
  146.4130  152.9040  133.3120 N   0  0  0  0  0  0  0  0  0  0  0  0
  146.0480  153.7390  135.4440 O   0  0  0  0  0  0  0  0  0  0  0  0
  147.7170  155.7330  133.0430 N   0  0  0  0  0  0  0  0  0  0  0  0
  148.8080  154.9070  132.6050 C   0  0  0  0  0  0  0  0  0  0  0  0
  149.9800  155.3710  132.5830 O   0  0  0  0  0  0  0  0  0  0  0  0
  148.5650  153.5830  132.2190 O   0  0  0  0  0  0  0  0  0  0  0  0
  149.4690  152.5120  132.4820 C   0  0  0  0  0  0  0  0  0  0  0  0
  148.8500  151.2050  132.1050 C   0  0  0  0  0  0  0  0  0  0  0  0
  147.5970  151.0720  132.1540 O   0  0  0  0  0  0  0  0  0  0  0  0
  149.6690  150.1330  131.7400 O   0  0  0  0  0  0  0  0  0  0  0  0
  150.5380  150.1810  130.6150 C   0  0  0  0  0  0  0  0  0  0  0  0
  147.5750  157.0600  132.8300 C   0  0  0  0  0  0  0  0  0  0  0  0
  148.4220  157.9250  132.1250 C   0  0  0  0  0  0  0  0  0  0  0  0
  150.2618  161.6830  130.1881 H   0  0  0  0  0  0  0  0  0  0  0  0
  146.6330  160.8211  132.6370 H   0  0  0  0  0  0  0  0  0  0  0  0
  145.1691  159.2254  133.9205 H   0  0  0  0  0  0  0  0  0  0  0  0
  144.9361  156.4852  134.7084 H   0  0  0  0  0  0  0  0  0  0  0  0
  146.2270  151.9260  133.6280 H   0  0  0  0  0  0  0  0  0  0  0  0
  146.6060  153.0720  132.3000 H   0  0  0  0  0  0  0  0  0  0  0  0
  150.3878  152.6607  131.8957 H   0  0  0  0  0  0  0  0  0  0  0  0
  149.7048  152.4991  133.5563 H   0  0  0  0  0  0  0  0  0  0  0  0
  151.5810  150.2386  130.9596 H   0  0  0  0  0  0  0  0  0  0  0  0
  150.4020  149.2740  130.0077 H   0  0  0  0  0  0  0  0  0  0  0  0
  150.3030  151.0675  130.0077 H   0  0  0  0  0  0  0  0  0  0  0  0
  149.3346  157.5510  131.6379 H   0  0  0  0  0  0  0  0  0  0  0  0
  1  2  3  0
  2  3  1  0
  3  4  2  0
  4  5  1  0
  5  6  2  0
  6  7  1  0
  7  8  2  0
  8  9  1  0
  9 10  1  0
  9 11  2  0
  8 12  1  0
 12 13  1  0
 13 14  2  0
 13 15  1  0
 15 16  1  0
 16 17  1  0
 17 18  2  0
 17 19  1  0
 19 20  1  0
 12 21  1  0
 21 22  2  0
 22  3  1  0
 21  6  1  0
  1 23  1  0
  4 24  1  0
  5 25  1  0
  7 26  1  0
 10 27  1  0
 10 28  1  0
 16 29  1  0
 16 30  1  0
 20 31  1  0
 20 32  1  0
 20 33  1  0
 22 34  1  0
M  END
>  <UniqueID>  (92) 
91

>  <SMILES>  (92) 
C#Cc1ccc2cc(C(N)=O)n(C(=O)OCC(=O)OC)c2c1

>  <Energy>  (92) 
66.23667568917988

>  <Genealogy>  (92) 
C#Cc1ccc2cc(C(N)=O)n(C(=O)OCC(=O)OC)c2c1 (3D coordinates assigned)
C#Cc1ccc2cc(C(N)=O)n(C(=O)OCC(=O)OC)c2c1 (optimized conformer: 66.23667568917988 kcal/mol)

>  <smiles>  (92) 
C#Cc1ccc2cc(C(N)=O)n(C(=O)OCC(=O)OC)c2c1

>  <score_type>  (92) 
oracle

>  <origin>  (92) 
adg

>  <m_score__min__energy>  (92) 
-6.54

>  <m_primary>  (92) 
energy

$$$$
93:0
     RDKit          3D

 36 39  0  0  0  0  0  0  0  0999 V2000
  149.7200  158.5750  132.5660 N   0  0  0  0  0  0  0  0  0  0  0  0
  148.6660  159.4260  132.1150 C   0  0  0  0  0  0  0  0  0  0  0  0
  148.9070  160.2940  131.2350 O   0  0  0  0  0  0  0  0  0  0  0  0
  147.3140  159.3500  132.7050 C   0  0  0  0  0  0  0  0  0  0  0  0
  146.5440  160.4700  133.0010 C   0  0  0  0  0  0  0  0  0  0  0  0
  145.3860  159.9780  133.5560 C   0  0  0  0  0  0  0  0  0  0  0  0
  144.2600  160.6580  134.0110 C   0  0  0  0  0  0  0  0  0  0  0  0
  143.1840  159.8970  134.4970 C   0  0  0  0  0  0  0  0  0  0  0  0
  143.2540  158.4830  134.5210 C   0  0  0  0  0  0  0  0  0  0  0  0
  142.0710  157.6810  134.9850 C   0  0  0  0  0  0  0  0  0  0  0  0
  141.1150  157.5290  133.8910 N   0  0  0  0  0  0  0  0  0  0  0  0
  140.5630  156.3770  133.4290 C   0  0  0  0  0  0  0  0  0  0  0  0
  139.6230  156.5800  132.4630 N   0  0  0  0  0  0  0  0  0  0  0  0
  139.6030  157.9220  132.3470 C   0  0  0  0  0  0  0  0  0  0  0  0
  138.8180  158.7270  131.5340 C   0  0  0  0  0  0  0  0  0  0  0  0
  137.9850  158.2330  130.7300 O   0  0  0  0  0  0  0  0  0  0  0  0
  138.9740  160.0800  131.6340 N   0  0  0  0  0  0  0  0  0  0  0  0
  139.8750  160.6300  132.5120 C   0  0  0  0  0  0  0  0  0  0  0  0
  140.6420  159.8290  133.3120 N   0  0  0  0  0  0  0  0  0  0  0  0
  140.4850  158.4870  133.2020 C   0  0  0  0  0  0  0  0  0  0  0  0
  144.4080  157.8270  134.0380 C   0  0  0  0  0  0  0  0  0  0  0  0
  145.4750  158.6090  133.5730 C   0  0  0  0  0  0  0  0  0  0  0  0
  146.6570  158.2060  133.0480 N   0  0  0  0  0  0  0  0  0  0  0  0
  147.0900  156.8620  132.7760 C   0  0  0  0  0  0  0  0  0  0  0  0
  148.1420  156.3990  133.2890 O   0  0  0  0  0  0  0  0  0  0  0  0
  149.6040  157.9770  133.4140 H   0  0  0  0  0  0  0  0  0  0  0  0
  150.6560  158.6120  132.1070 H   0  0  0  0  0  0  0  0  0  0  0  0
  146.8056  161.5243  132.8280 H   0  0  0  0  0  0  0  0  0  0  0  0
  144.2142  161.7569  133.9906 H   0  0  0  0  0  0  0  0  0  0  0  0
  142.2788  160.4042  134.8622 H   0  0  0  0  0  0  0  0  0  0  0  0
  142.4100  156.6876  135.3141 H   0  0  0  0  0  0  0  0  0  0  0  0
  141.5844  158.2033  135.8219 H   0  0  0  0  0  0  0  0  0  0  0  0
  140.8463  155.3800  133.7976 H   0  0  0  0  0  0  0  0  0  0  0  0
  139.9807  161.7233  132.5723 H   0  0  0  0  0  0  0  0  0  0  0  0
  144.4682  156.7287  134.0269 H   0  0  0  0  0  0  0  0  0  0  0  0
  146.4907  156.2267  132.1072 H   0  0  0  0  0  0  0  0  0  0  0  0
  1  2  1  0
  2  3  2  0
  2  4  1  0
  4  5  2  0
  5  6  1  0
  6  7  2  0
  7  8  1  0
  8  9  2  0
  9 10  1  0
 10 11  1  0
 11 12  1  0
 12 13  2  0
 13 14  1  0
 14 15  1  0
 15 16  2  0
 15 17  1  0
 17 18  1  0
 18 19  2  0
 19 20  1  0
  9 21  1  0
 21 22  2  0
 22 23  1  0
 23 24  1  0
 24 25  2  0
 23  4  1  0
 22  6  1  0
 20 11  1  0
 20 14  2  0
  1 26  1  0
  1 27  1  0
  5 28  1  0
  7 29  1  0
  8 30  1  0
 10 31  1  0
 10 32  1  0
 12 33  1  0
 18 34  1  0
 21 35  1  0
 24 36  1  0
M  CHG  1  17  -1
M  END
>  <UniqueID>  (93) 
92

>  <SMILES>  (93) 
NC(=O)c1cc2ccc(Cn3cnc4c(=O)[n-]cnc43)cc2n1C=O

>  <Energy>  (93) 
118.83861584119614

>  <Genealogy>  (93) 
NC(=O)c1cc2ccc(Cn3cnc4c(=O)[n-]cnc43)cc2n1C=O (protonated)
NC(=O)c1cc2ccc(Cn3cnc4c(=O)[n-]cnc43)cc2n1C=O (3D coordinates assigned)
NC(=O)c1cc2ccc(Cn3cnc4c(=O)[n-]cnc43)cc2n1C=O (optimized conformer: 118.83861584119614 kcal/mol)

>  <smiles>  (93) 
NC(=O)c1cc2ccc(Cn3cnc4c(=O)[nH]cnc43)cc2n1C=O

>  <score_type>  (93) 
oracle

>  <origin>  (93) 
adg

>  <m_score__min__energy>  (93) 
-7.7400000000000002

>  <m_primary>  (93) 
energy

$$$$
94:0
     RDKit          3D

 40 41  0  0  0  0  0  0  0  0999 V2000
  137.2730  159.4230  131.1060 C   0  0  0  0  0  0  0  0  0  0  0  0
  138.6220  158.7940  131.5120 C   0  0  0  0  0  0  0  0  0  0  0  0
  139.7780  159.6520  130.9670 C   0  0  0  0  0  0  0  0  0  0  0  0
  138.7200  157.4930  130.9850 O   0  0  0  0  0  0  0  0  0  0  0  0
  138.7350  158.7240  133.0540 C   0  0  0  0  0  0  0  0  0  0  0  0
  138.9210  157.3540  133.5340 N   0  0  0  0  0  0  0  0  0  0  0  0
  140.0670  156.4980  133.3880 C   0  0  0  0  0  0  0  0  0  0  0  0
  139.9080  155.3950  132.8010 O   0  0  0  0  0  0  0  0  0  0  0  0
  141.4110  156.8290  133.9130 C   0  0  0  0  0  0  0  0  0  0  0  0
  142.4470  156.4920  133.2820 O   0  0  0  0  0  0  0  0  0  0  0  0
  141.5480  157.6190  135.1070 N   0  0  0  0  0  0  0  0  0  0  0  0
  141.8430  158.9460  135.2120 C   0  0  0  0  0  0  0  0  0  0  0  0
  141.9870  159.8960  134.0900 C   0  0  0  0  0  0  0  0  0  0  0  0
  142.8100  159.5600  132.9750 N   0  0  0  0  0  0  0  0  0  0  0  0
  141.4120  161.0160  134.1150 O   0  0  0  0  0  0  0  0  0  0  0  0
  141.9270  159.3200  136.5530 C   0  0  0  0  0  0  0  0  0  0  0  0
  141.6600  158.1760  137.2690 C   0  0  0  0  0  0  0  0  0  0  0  0
  141.6240  157.9660  138.6440 C   0  0  0  0  0  0  0  0  0  0  0  0
  141.3440  156.6690  139.1060 C   0  0  0  0  0  0  0  0  0  0  0  0
  141.0930  155.6120  138.1920 C   0  0  0  0  0  0  0  0  0  0  0  0
  140.8520  154.2130  138.7000 C   0  0  0  0  0  0  0  0  0  0  0  0
  141.5710  153.9840  139.8610 F   0  0  0  0  0  0  0  0  0  0  0  0
  141.2500  153.3040  137.7370 F   0  0  0  0  0  0  0  0  0  0  0  0
  139.5100  154.0170  138.9760 F   0  0  0  0  0  0  0  0  0  0  0  0
  141.1630  155.8620  136.8020 C   0  0  0  0  0  0  0  0  0  0  0  0
  141.4320  157.1650  136.3730 C   0  0  0  0  0  0  0  0  0  0  0  0
  136.7050  159.6878  132.0101 H   0  0  0  0  0  0  0  0  0  0  0  0
  137.4556  160.3288  130.5092 H   0  0  0  0  0  0  0  0  0  0  0  0
  136.6965  158.7008  130.5092 H   0  0  0  0  0  0  0  0  0  0  0  0
  140.3482  160.0752  131.8071 H   0  0  0  0  0  0  0  0  0  0  0  0
  140.4412  159.0257  130.3522 H   0  0  0  0  0  0  0  0  0  0  0  0
  139.3707  160.4682  130.3522 H   0  0  0  0  0  0  0  0  0  0  0  0
  138.6860  156.8500  131.7400 H   0  0  0  0  0  0  0  0  0  0  0  0
  139.5947  159.3310  133.3739 H   0  0  0  0  0  0  0  0  0  0  0  0
  137.7947  159.1054  133.4787 H   0  0  0  0  0  0  0  0  0  0  0  0
  142.8130  158.5920  132.5830 H   0  0  0  0  0  0  0  0  0  0  0  0
  142.1578  160.3182  136.9533 H   0  0  0  0  0  0  0  0  0  0  0  0
  141.8092  158.7906  139.3481 H   0  0  0  0  0  0  0  0  0  0  0  0
  141.3190  156.4704  140.1876 H   0  0  0  0  0  0  0  0  0  0  0  0
  141.0094  155.0504  136.0755 H   0  0  0  0  0  0  0  0  0  0  0  0
  1  2  1  0
  2  3  1  0
  2  4  1  0
  2  5  1  0
  5  6  1  0
  6  7  1  0
  7  8  2  0
  7  9  1  0
  9 10  2  0
  9 11  1  0
 11 12  1  0
 12 13  1  0
 13 14  1  0
 13 15  2  0
 12 16  2  0
 16 17  1  0
 17 18  2  0
 18 19  1  0
 19 20  2  0
 20 21  1  0
 21 22  1  0
 21 23  1  0
 21 24  1  0
 20 25  1  0
 25 26  2  0
 26 11  1  0
 26 17  1  0
  1 27  1  0
  1 28  1  0
  1 29  1  0
  3 30  1  0
  3 31  1  0
  3 32  1  0
  4 33  1  0
  5 34  1  0
  5 35  1  0
 14 36  1  0
 16 37  1  0
 18 38  1  0
 19 39  1  0
 25 40  1  0
M  CHG  2   6  -1  14  -1
M  END
>  <UniqueID>  (94) 
93

>  <SMILES>  (94) 
CC(C)(O)C[N-]C(=O)C(=O)n1c(C([NH-])=O)cc2ccc(C(F)(F)F)cc21

>  <Energy>  (94) 
78.40979443789846

>  <Genealogy>  (94) 
CC(C)(O)C[N-]C(=O)C(=O)n1c(C([NH-])=O)cc2ccc(C(F)(F)F)cc21 (protonated)
CC(C)(O)C[N-]C(=O)C(=O)n1c(C([NH-])=O)cc2ccc(C(F)(F)F)cc21 (3D coordinates assigned)
CC(C)(O)C[N-]C(=O)C(=O)n1c(C([NH-])=O)cc2ccc(C(F)(F)F)cc21 (optimized conformer: 78.40979443789846 kcal/mol)

>  <smiles>  (94) 
CC(C)(O)CNC(=O)C(=O)n1c(C(N)=O)cc2ccc(C(F)(F)F)cc21

>  <score_type>  (94) 
oracle

>  <origin>  (94) 
adg

>  <m_score__min__energy>  (94) 
-6.3399999999999999

>  <m_primary>  (94) 
energy

$$$$
95:0
     RDKit          3D

 47 48  0  0  0  0  0  0  0  0999 V2000
  145.6300  153.0220  133.2860 C   0  0  0  0  0  0  0  0  0  0  0  0
  146.9280  153.2240  132.6100 N   0  0  0  0  0  0  0  0  0  0  0  0
  147.6360  151.9340  132.4810 C   0  0  0  0  0  0  0  0  0  0  0  0
  147.7700  154.1590  133.3540 C   0  0  0  0  0  0  0  0  0  0  0  0
  147.6680  154.2490  134.5710 O   0  0  0  0  0  0  0  0  0  0  0  0
  148.7600  155.0480  132.6230 C   0  0  0  0  0  0  0  0  0  0  0  0
  148.3000  156.4890  132.6090 C   0  0  0  0  0  0  0  0  0  0  0  0
  149.2140  157.5110  132.2580 C   0  0  0  0  0  0  0  0  0  0  0  0
  148.8690  158.8650  132.4120 C   0  0  0  0  0  0  0  0  0  0  0  0
  147.6030  159.1580  132.9180 C   0  0  0  0  0  0  0  0  0  0  0  0
  147.0070  160.3760  133.1500 C   0  0  0  0  0  0  0  0  0  0  0  0
  145.7310  160.0740  133.6140 C   0  0  0  0  0  0  0  0  0  0  0  0
  144.7560  161.0930  134.0520 C   0  0  0  0  0  0  0  0  0  0  0  0
  143.3860  161.0010  133.6550 N   0  0  0  0  0  0  0  0  0  0  0  0
  145.1200  162.0200  134.8230 O   0  0  0  0  0  0  0  0  0  0  0  0
  145.5370  158.7270  133.6530 N   0  0  0  0  0  0  0  0  0  0  0  0
  144.2790  158.0470  133.7990 C   0  0  0  0  0  0  0  0  0  0  0  0
  144.1200  157.2150  134.7320 O   0  0  0  0  0  0  0  0  0  0  0  0
  143.1900  158.3590  132.9840 O   0  0  0  0  0  0  0  0  0  0  0  0
  141.8630  157.9100  133.2510 C   0  0  0  0  0  0  0  0  0  0  0  0
  140.9030  158.6010  132.2740 C   0  0  0  0  0  0  0  0  0  0  0  0
  141.0190  159.9980  132.3820 O   0  0  0  0  0  0  0  0  0  0  0  0
  141.5180  158.2310  134.7150 C   0  0  0  0  0  0  0  0  0  0  0  0
  141.7400  159.5860  135.0130 O   0  0  0  0  0  0  0  0  0  0  0  0
  146.6930  158.1810  133.2310 C   0  0  0  0  0  0  0  0  0  0  0  0
  147.0160  156.8260  133.0910 C   0  0  0  0  0  0  0  0  0  0  0  0
  145.7768  153.0448  134.3759 H   0  0  0  0  0  0  0  0  0  0  0  0
  144.9353  153.8228  132.9927 H   0  0  0  0  0  0  0  0  0  0  0  0
  145.2115  152.0479  132.9927 H   0  0  0  0  0  0  0  0  0  0  0  0
  146.7300  153.6070  131.6480 H   0  0  0  0  0  0  0  0  0  0  0  0
  147.8553  151.5344  133.4821 H   0  0  0  0  0  0  0  0  0  0  0  0
  147.0026  151.2214  131.9324 H   0  0  0  0  0  0  0  0  0  0  0  0
  148.5773  152.0856  131.9324 H   0  0  0  0  0  0  0  0  0  0  0  0
  149.7355  154.9884  133.1278 H   0  0  0  0  0  0  0  0  0  0  0  0
  148.8375  154.6986  131.5828 H   0  0  0  0  0  0  0  0  0  0  0  0
  150.2042  157.2431  131.8607 H   0  0  0  0  0  0  0  0  0  0  0  0
  149.5734  159.6658  132.1427 H   0  0  0  0  0  0  0  0  0  0  0  0
  147.4452  161.3739  133.0007 H   0  0  0  0  0  0  0  0  0  0  0  0
  142.9990  160.1070  133.2820 H   0  0  0  0  0  0  0  0  0  0  0  0
  141.7733  156.8230  133.1083 H   0  0  0  0  0  0  0  0  0  0  0  0
  141.1485  158.2948  131.2464 H   0  0  0  0  0  0  0  0  0  0  0  0
  139.8714  158.3076  132.5183 H   0  0  0  0  0  0  0  0  0  0  0  0
  141.8530  160.1870  132.8830 H   0  0  0  0  0  0  0  0  0  0  0  0
  140.4582  157.9954  134.8920 H   0  0  0  0  0  0  0  0  0  0  0  0
  142.1684  157.6249  135.3628 H   0  0  0  0  0  0  0  0  0  0  0  0
  142.2260  159.9710  134.2400 H   0  0  0  0  0  0  0  0  0  0  0  0
  146.2878  156.0433  133.3500 H   0  0  0  0  0  0  0  0  0  0  0  0
  1  2  1  0
  2  3  1  0
  2  4  1  0
  4  5  2  0
  4  6  1  0
  6  7  1  0
  7  8  2  0
  8  9  1  0
  9 10  2  0
 10 11  1  0
 11 12  2  0
 12 13  1  0
 13 14  1  0
 13 15  2  0
 12 16  1  0
 16 17  1  0
 17 18  2  0
 17 19  1  0
 19 20  1  0
 20 21  1  0
 21 22  1  0
 20 23  1  0
 23 24  1  0
 16 25  1  0
 25 26  2  0
 26  7  1  0
 25 10  1  0
  1 27  1  0
  1 28  1  0
  1 29  1  0
  2 30  1  0
  3 31  1  0
  3 32  1  0
  3 33  1  0
  6 34  1  0
  6 35  1  0
  8 36  1  0
  9 37  1  0
 11 38  1  0
 14 39  1  0
 20 40  1  0
 21 41  1  0
 21 42  1  0
 22 43  1  0
 23 44  1  0
 23 45  1  0
 24 46  1  0
 26 47  1  0
M  CHG  2   2   1  14  -1
M  END
>  <UniqueID>  (95) 
94

>  <SMILES>  (95) 
C[NH+](C)C(=O)Cc1ccc2cc(C([NH-])=O)n(C(=O)OC(CO)CO)c2c1

>  <Energy>  (95) 
91.19390977730245

>  <Genealogy>  (95) 
C[NH+](C)C(=O)Cc1ccc2cc(C([NH-])=O)n(C(=O)OC(CO)CO)c2c1 (protonated)
C[NH+](C)C(=O)Cc1ccc2cc(C([NH-])=O)n(C(=O)OC(CO)CO)c2c1 (3D coordinates assigned)
C[NH+](C)C(=O)Cc1ccc2cc(C([NH-])=O)n(C(=O)OC(CO)CO)c2c1 (optimized conformer: 91.19390977730245 kcal/mol)

>  <smiles>  (95) 
CN(C)C(=O)Cc1ccc2cc(C(N)=O)n(C(=O)OC(CO)CO)c2c1

>  <score_type>  (95) 
oracle

>  <origin>  (95) 
adg

>  <m_score__min__energy>  (95) 
-5.6799999999999997

>  <m_primary>  (95) 
energy

$$$$
96:0
     RDKit          3D

 38 39  0  0  0  0  0  0  0  0999 V2000
  148.4850  155.6420  132.6960 C   0  0  0  0  0  0  0  0  0  0  0  0
  148.8130  157.0400  132.9560 N   0  0  0  0  0  0  0  0  0  0  0  0
  147.8220  158.0660  133.1510 C   0  0  0  0  0  0  0  0  0  0  0  0
  148.2320  159.4210  133.1810 C   0  0  0  0  0  0  0  0  0  0  0  0
  147.2970  160.4540  133.3630 C   0  0  0  0  0  0  0  0  0  0  0  0
  145.9620  160.1030  133.5220 C   0  0  0  0  0  0  0  0  0  0  0  0
  144.8520  160.9010  133.6810 C   0  0  0  0  0  0  0  0  0  0  0  0
  143.7780  160.0210  133.7750 C   0  0  0  0  0  0  0  0  0  0  0  0
  142.3870  160.4590  134.0130 C   0  0  0  0  0  0  0  0  0  0  0  0
  141.4680  159.6410  134.7400 N   0  0  0  0  0  0  0  0  0  0  0  0
  142.0200  161.5970  133.6170 O   0  0  0  0  0  0  0  0  0  0  0  0
  144.2000  158.7300  133.6650 N   0  0  0  0  0  0  0  0  0  0  0  0
  143.3880  157.5460  133.6030 C   0  0  0  0  0  0  0  0  0  0  0  0
  143.0440  157.0850  132.4820 O   0  0  0  0  0  0  0  0  0  0  0  0
  142.9870  156.9190  134.7900 O   0  0  0  0  0  0  0  0  0  0  0  0
  141.6600  156.6340  135.1440 C   0  0  0  0  0  0  0  0  0  0  0  0
  140.7020  157.0190  134.4210 O   0  0  0  0  0  0  0  0  0  0  0  0
  141.3530  155.8920  136.4150 C   0  0  0  0  0  0  0  0  0  0  0  0
  141.0420  156.8100  137.6060 C   0  0  0  0  0  0  0  0  0  0  0  0
  141.0370  158.2580  137.2150 C   0  0  0  0  0  0  0  0  0  0  0  0
  142.0500  158.9740  137.4240 O   0  0  0  0  0  0  0  0  0  0  0  0
  139.9150  158.8150  136.6150 O   0  0  0  0  0  0  0  0  0  0  0  0
  145.5430  158.7970  133.5140 C   0  0  0  0  0  0  0  0  0  0  0  0
  146.4490  157.7500  133.3090 C   0  0  0  0  0  0  0  0  0  0  0  0
  148.3604  155.1109  133.6512 H   0  0  0  0  0  0  0  0  0  0  0  0
  147.5493  155.5858  132.1204 H   0  0  0  0  0  0  0  0  0  0  0  0
  149.2981  155.1755  132.1204 H   0  0  0  0  0  0  0  0  0  0  0  0
  149.8240  157.2940  133.0310 H   0  0  0  0  0  0  0  0  0  0  0  0
  149.2970  159.6683  133.0602 H   0  0  0  0  0  0  0  0  0  0  0  0
  147.6121  161.5078  133.3791 H   0  0  0  0  0  0  0  0  0  0  0  0
  144.8205  161.9997  133.7245 H   0  0  0  0  0  0  0  0  0  0  0  0
  140.4780  159.9490  134.8630 H   0  0  0  0  0  0  0  0  0  0  0  0
  141.7870  158.7750  135.2270 H   0  0  0  0  0  0  0  0  0  0  0  0
  140.4808  155.2456  136.2377 H   0  0  0  0  0  0  0  0  0  0  0  0
  142.2540  155.3184  136.6780 H   0  0  0  0  0  0  0  0  0  0  0  0
  140.0521  156.5474  138.0074 H   0  0  0  0  0  0  0  0  0  0  0  0
  141.8294  156.6652  138.3604 H   0  0  0  0  0  0  0  0  0  0  0  0
  146.1038  156.7063  133.2714 H   0  0  0  0  0  0  0  0  0  0  0  0
  1  2  1  0
  2  3  1  0
  3  4  2  0
  4  5  1  0
  5  6  2  0
  6  7  1  0
  7  8  2  0
  8  9  1  0
  9 10  1  0
  9 11  2  0
  8 12  1  0
 12 13  1  0
 13 14  2  0
 13 15  1  0
 15 16  1  0
 16 17  2  0
 16 18  1  0
 18 19  1  0
 19 20  1  0
 20 21  2  0
 20 22  1  0
 12 23  1  0
 23 24  2  0
 24  3  1  0
 23  6  1  0
  1 25  1  0
  1 26  1  0
  1 27  1  0
  2 28  1  0
  4 29  1  0
  5 30  1  0
  7 31  1  0
 10 32  1  0
 10 33  1  0
 18 34  1  0
 18 35  1  0
 19 36  1  0
 19 37  1  0
 24 38  1  0
M  CHG  1  22  -1
M  END
>  <UniqueID>  (96) 
95

>  <SMILES>  (96) 
CNc1ccc2cc(C(N)=O)n(C(=O)OC(=O)CCC(=O)[O-])c2c1

>  <Energy>  (96) 
73.15521928650874

>  <Genealogy>  (96) 
CNc1ccc2cc(C(N)=O)n(C(=O)OC(=O)CCC(=O)[O-])c2c1 (protonated)
CNc1ccc2cc(C(N)=O)n(C(=O)OC(=O)CCC(=O)[O-])c2c1 (3D coordinates assigned)
CNc1ccc2cc(C(N)=O)n(C(=O)OC(=O)CCC(=O)[O-])c2c1 (optimized conformer: 73.15521928650874 kcal/mol)

>  <smiles>  (96) 
CNc1ccc2cc(C(N)=O)n(C(=O)OC(=O)CCC(=O)O)c2c1

>  <score_type>  (96) 
oracle

>  <origin>  (96) 
adg

>  <m_score__min__energy>  (96) 
-6.4299999999999997

>  <m_primary>  (96) 
energy

$$$$
