0:0
     RDKit          3D

 52 54  0  0  0  0  0  0  0  0999 V2000
  141.9250  159.1050  134.5730 C   0  0  0  0  0  0  0  0  0  0  0  0
  141.1890  157.9310  135.0620 N   0  0  0  0  0  0  0  0  0  0  0  0
  140.2720  158.0950  136.1970 C   0  0  0  0  0  0  0  0  0  0  0  0
  141.3690  156.6330  134.4370 C   0  0  0  0  0  0  0  0  0  0  0  0
  140.2700  155.9490  133.8430 C   0  0  0  0  0  0  0  0  0  0  0  0
  140.4370  154.6910  133.2390 C   0  0  0  0  0  0  0  0  0  0  0  0
  141.7090  154.1340  133.2330 C   0  0  0  0  0  0  0  0  0  0  0  0
  142.1440  152.9250  132.7400 C   0  0  0  0  0  0  0  0  0  0  0  0
  143.5080  152.8800  133.0210 C   0  0  0  0  0  0  0  0  0  0  0  0
  144.3930  151.7690  132.6110 C   0  0  0  0  0  0  0  0  0  0  0  0
  145.8000  151.9800  132.5200 N   0  0  0  0  0  0  0  0  0  0  0  0
  143.9230  150.6280  132.3640 O   0  0  0  0  0  0  0  0  0  0  0  0
  143.9010  154.0180  133.6620 N   0  0  0  0  0  0  0  0  0  0  0  0
  145.2070  154.3160  134.1860 C   0  0  0  0  0  0  0  0  0  0  0  0
  145.7250  153.5380  135.0310 O   0  0  0  0  0  0  0  0  0  0  0  0
  145.9590  155.5050  133.7210 C   0  0  0  0  0  0  0  0  0  0  0  0
  145.3050  156.4660  133.2310 O   0  0  0  0  0  0  0  0  0  0  0  0
  147.4160  155.5260  133.7400 N   0  0  1  0  0  0  0  0  0  0  0  0
  148.0600  154.7860  132.6150 C   0  0  0  0  0  0  0  0  0  0  0  0
  148.6230  153.3820  132.9520 C   0  0  0  0  0  0  0  0  0  0  0  0
  148.1470  152.9870  134.2130 O   0  0  0  0  0  0  0  0  0  0  0  0
  148.2010  152.4430  132.0030 O   0  0  0  0  0  0  0  0  0  0  0  0
  148.0020  156.8730  133.9850 C   0  0  0  0  0  0  0  0  0  0  0  0
  147.8960  157.8380  132.7810 C   0  0  0  0  0  0  0  0  0  0  0  0
  149.2450  158.2050  132.1750 C   0  0  0  0  0  0  0  0  0  0  0  0
  148.4700  159.2370  132.9750 C   0  0  0  0  0  0  0  0  0  0  0  0
  142.7870  154.7730  133.7850 C   0  0  0  0  0  0  0  0  0  0  0  0
  142.6470  156.0170  134.4070 C   0  0  0  0  0  0  0  0  0  0  0  0
  142.2920  159.6904  135.4290 H   0  0  0  0  0  0  0  0  0  0  0  0
  142.7780  158.7747  133.9620 H   0  0  0  0  0  0  0  0  0  0  0  0
  141.2560  159.7288  133.9620 H   0  0  0  0  0  0  0  0  0  0  0  0
  140.8322  157.9948  137.1384 H   0  0  0  0  0  0  0  0  0  0  0  0
  139.8066  159.0906  136.1515 H   0  0  0  0  0  0  0  0  0  0  0  0
  139.4903  157.3224  136.1515 H   0  0  0  0  0  0  0  0  0  0  0  0
  139.2730  156.4135  133.8572 H   0  0  0  0  0  0  0  0  0  0  0  0
  139.5855  154.1634  132.7846 H   0  0  0  0  0  0  0  0  0  0  0  0
  141.5424  152.1570  132.2318 H   0  0  0  0  0  0  0  0  0  0  0  0
  146.3580  152.2440  133.3630 H   0  0  0  0  0  0  0  0  0  0  0  0
  147.6670  154.9570  134.5830 H   0  0  0  0  0  0  0  0  0  0  0  0
  147.3094  154.6645  131.8202 H   0  0  0  0  0  0  0  0  0  0  0  0
  148.9321  155.3910  132.3262 H   0  0  0  0  0  0  0  0  0  0  0  0
  149.7218  153.4323  132.9492 H   0  0  0  0  0  0  0  0  0  0  0  0
  147.3230  152.4560  134.0580 H   0  0  0  0  0  0  0  0  0  0  0  0
  147.3730  152.8060  131.5940 H   0  0  0  0  0  0  0  0  0  0  0  0
  147.4778  157.3274  134.8387 H   0  0  0  0  0  0  0  0  0  0  0  0
  149.0747  156.7216  134.1758 H   0  0  0  0  0  0  0  0  0  0  0  0
  146.9339  157.4514  132.4136 H   0  0  0  0  0  0  0  0  0  0  0  0
  150.1685  157.7712  132.5861 H   0  0  0  0  0  0  0  0  0  0  0  0
  149.6780  158.1704  131.1644 H   0  0  0  0  0  0  0  0  0  0  0  0
  148.8322  159.5501  133.9653 H   0  0  0  0  0  0  0  0  0  0  0  0
  148.1096  160.2585  132.7834 H   0  0  0  0  0  0  0  0  0  0  0  0
  143.5154  156.5115  134.8668 H   0  0  0  0  0  0  0  0  0  0  0  0
  1  2  1  0
  2  3  1  0
  2  4  1  0
  4  5  2  0
  5  6  1  0
  6  7  2  0
  7  8  1  0
  8  9  2  0
  9 10  1  0
 10 11  1  0
 10 12  2  0
  9 13  1  0
 13 14  1  0
 14 15  2  0
 14 16  1  0
 16 17  2  0
 16 18  1  0
 18 19  1  0
 19 20  1  0
 20 21  1  0
 20 22  1  0
 18 23  1  0
 23 24  1  0
 24 25  1  0
 25 26  1  0
 13 27  1  0
 27 28  2  0
 28  4  1  0
 27  7  1  0
 26 24  1  0
  1 29  1  0
  1 30  1  0
  1 31  1  0
  3 32  1  0
  3 33  1  0
  3 34  1  0
  5 35  1  0
  6 36  1  0
  8 37  1  0
 11 38  1  0
 18 39  1  1
 19 40  1  0
 19 41  1  0
 20 42  1  0
 21 43  1  0
 22 44  1  0
 23 45  1  0
 23 46  1  0
 24 47  1  0
 25 48  1  0
 25 49  1  0
 26 50  1  0
 26 51  1  0
 28 52  1  0
M  CHG  2  11  -1  18   1
M  END
>  <UniqueID>  (1) 
1

>  <SMILES>  (1) 
CN(C)c1ccc2cc(C([NH-])=O)n(C(=O)C(=O)[N@@H+](CC(O)O)CC3CC3)c2c1

>  <Energy>  (1) 
367.44870899802464

>  <Genealogy>  (1) 
CN(C)c1ccc2cc(C([NH-])=O)n(C(=O)C(=O)[NH+](CC(O)O)CC3CC3)c2c1 (protonated)
CN(C)c1ccc2cc(C([NH-])=O)n(C(=O)C(=O)[N@@H+](CC(O)O)CC3CC3)c2c1 (chirality)
CN(C)c1ccc2cc(C([NH-])=O)n(C(=O)C(=O)[N@@H+](CC(O)O)CC3CC3)c2c1 (3D coordinates assigned)
CN(C)c1ccc2cc(C([NH-])=O)n(C(=O)C(=O)[N@@H+](CC(O)O)CC3CC3)c2c1 (nonaromatic ring conformer: 367.44870899802464 kcal/mol)

>  <smiles>  (1) 
CN(C)c1ccc2cc(C(N)=O)n(C(=O)C(=O)N(CC(O)O)CC3CC3)c2c1

>  <score_type>  (1) 
oracle

>  <origin>  (1) 
adg

>  <m_score__min__energy>  (1) 
-6.1699999999999999

>  <m_primary>  (1) 
energy

$$$$
1:0
     RDKit          3D

 34 35  0  0  0  0  0  0  0  0999 V2000
  139.7640  157.5960  133.0080 C   0  0  0  0  0  0  0  0  0  0  0  0
  140.4240  158.2340  134.1540 N   0  0  0  0  0  0  0  0  0  0  0  0
  139.7450  158.1920  135.4610 C   0  0  0  0  0  0  0  0  0  0  0  0
  140.7370  158.3510  136.6170 C   0  0  0  0  0  0  0  0  0  0  0  0
  140.6200  159.6210  137.1930 O   0  0  0  0  0  0  0  0  0  0  0  0
  141.7200  158.8700  133.9890 C   0  0  0  0  0  0  0  0  0  0  0  0
  141.8350  160.2860  133.8910 C   0  0  0  0  0  0  0  0  0  0  0  0
  143.0870  160.9030  133.7370 C   0  0  0  0  0  0  0  0  0  0  0  0
  144.2130  160.0920  133.6720 C   0  0  0  0  0  0  0  0  0  0  0  0
  145.5410  160.4340  133.5590 C   0  0  0  0  0  0  0  0  0  0  0  0
  146.2300  159.2260  133.5550 C   0  0  0  0  0  0  0  0  0  0  0  0
  147.6930  159.1280  133.3860 C   0  0  0  0  0  0  0  0  0  0  0  0
  148.4540  158.1380  134.0810 N   0  0  0  0  0  0  0  0  0  0  0  0
  148.2750  159.8930  132.5720 O   0  0  0  0  0  0  0  0  0  0  0  0
  145.3680  158.1770  133.6740 N   0  0  0  0  0  0  0  0  0  0  0  0
  145.7050  156.7880  133.8260 C   0  0  0  0  0  0  0  0  0  0  0  0
  145.2550  155.9290  133.0230 O   0  0  0  0  0  0  0  0  0  0  0  0
  146.5280  156.3760  134.8670 O   0  0  0  0  0  0  0  0  0  0  0  0
  144.1330  158.7270  133.7400 C   0  0  0  0  0  0  0  0  0  0  0  0
  142.9010  158.0840  133.9160 C   0  0  0  0  0  0  0  0  0  0  0  0
  139.0172  156.8741  133.3702 H   0  0  0  0  0  0  0  0  0  0  0  0
  139.2659  158.3637  132.3976 H   0  0  0  0  0  0  0  0  0  0  0  0
  140.5144  157.0722  132.3976 H   0  0  0  0  0  0  0  0  0  0  0  0
  139.0090  159.0082  135.5073 H   0  0  0  0  0  0  0  0  0  0  0  0
  139.2531  157.2133  135.5619 H   0  0  0  0  0  0  0  0  0  0  0  0
  140.5286  157.5869  137.3803 H   0  0  0  0  0  0  0  0  0  0  0  0
  141.7587  158.2300  136.2278 H   0  0  0  0  0  0  0  0  0  0  0  0
  139.6610  159.7320  137.4220 H   0  0  0  0  0  0  0  0  0  0  0  0
  140.9281  160.9068  133.9367 H   0  0  0  0  0  0  0  0  0  0  0  0
  143.1737  161.9975  133.6697 H   0  0  0  0  0  0  0  0  0  0  0  0
  145.9664  161.4459  133.4872 H   0  0  0  0  0  0  0  0  0  0  0  0
  149.4920  158.1080  133.9770 H   0  0  0  0  0  0  0  0  0  0  0  0
  147.9840  157.3870  134.6320 H   0  0  0  0  0  0  0  0  0  0  0  0
  142.8489  156.9882  133.9964 H   0  0  0  0  0  0  0  0  0  0  0  0
  1  2  1  0
  2  3  1  0
  3  4  1  0
  4  5  1  0
  2  6  1  0
  6  7  2  0
  7  8  1  0
  8  9  2  0
  9 10  1  0
 10 11  2  0
 11 12  1  0
 12 13  1  0
 12 14  2  0
 11 15  1  0
 15 16  1  0
 16 17  2  0
 16 18  1  0
 15 19  1  0
 19 20  2  0
 20  6  1  0
 19  9  1  0
  1 21  1  0
  1 22  1  0
  1 23  1  0
  3 24  1  0
  3 25  1  0
  4 26  1  0
  4 27  1  0
  5 28  1  0
  7 29  1  0
  8 30  1  0
 10 31  1  0
 13 32  1  0
 13 33  1  0
 20 34  1  0
M  CHG  1  18  -1
M  END
>  <UniqueID>  (2) 
2

>  <SMILES>  (2) 
CN(CCO)c1ccc2cc(C(N)=O)n(C(=O)[O-])c2c1

>  <Energy>  (2) 
74.92848714105867

>  <Genealogy>  (2) 
CN(CCO)c1ccc2cc(C(N)=O)n(C(=O)[O-])c2c1 (protonated)
CN(CCO)c1ccc2cc(C(N)=O)n(C(=O)[O-])c2c1 (3D coordinates assigned)
CN(CCO)c1ccc2cc(C(N)=O)n(C(=O)[O-])c2c1 (optimized conformer: 74.92848714105867 kcal/mol)

>  <smiles>  (2) 
CN(CCO)c1ccc2cc(C(N)=O)n(C(=O)O)c2c1

>  <score_type>  (2) 
oracle

>  <origin>  (2) 
adg

>  <m_score__min__energy>  (2) 
-5.8700000000000001

>  <m_primary>  (2) 
energy

$$$$
2:0
     RDKit          3D

 42 44  0  0  0  0  0  0  0  0999 V2000
  139.5410  156.3590  133.0450 C   0  0  0  0  0  0  0  0  0  0  0  0
  139.7430  157.8350  132.9330 C   0  0  0  0  0  0  0  0  0  0  0  0
  139.1580  158.6010  132.0440 O   0  0  0  0  0  0  0  0  0  0  0  0
  139.5970  159.8180  132.2750 C   0  0  0  0  0  0  0  0  0  0  0  0
  139.2460  160.8260  131.6060 O   0  0  0  0  0  0  0  0  0  0  0  0
  140.4440  159.8680  133.2770 O   0  0  0  0  0  0  0  0  0  0  0  0
  140.5590  158.6350  133.7130 C   0  0  0  0  0  0  0  0  0  0  0  0
  141.4380  158.2210  134.8530 C   0  0  0  0  0  0  0  0  0  0  0  0
  142.7430  158.7700  134.6920 O   0  0  0  0  0  0  0  0  0  0  0  0
  143.5400  158.5320  133.5680 C   0  0  0  0  0  0  0  0  0  0  0  0
  143.1000  157.8430  132.6060 O   0  0  0  0  0  0  0  0  0  0  0  0
  144.8720  159.0620  133.5150 N   0  0  0  0  0  0  0  0  0  0  0  0
  145.2540  160.3710  133.5450 C   0  0  0  0  0  0  0  0  0  0  0  0
  144.3690  161.5280  133.7960 C   0  0  0  0  0  0  0  0  0  0  0  0
  142.9510  161.3990  133.7130 N   0  0  0  0  0  0  0  0  0  0  0  0
  144.8690  162.6330  134.1340 O   0  0  0  0  0  0  0  0  0  0  0  0
  146.6330  160.4790  133.3900 C   0  0  0  0  0  0  0  0  0  0  0  0
  147.0900  159.1860  133.2740 C   0  0  0  0  0  0  0  0  0  0  0  0
  148.3810  158.7060  133.0940 C   0  0  0  0  0  0  0  0  0  0  0  0
  148.5610  157.3180  132.9820 C   0  0  0  0  0  0  0  0  0  0  0  0
  147.4520  156.4250  133.0440 C   0  0  0  0  0  0  0  0  0  0  0  0
  147.6480  154.9920  132.9170 N   0  0  0  0  0  0  0  0  0  0  0  0
  148.9770  154.4440  132.6190 C   0  0  0  0  0  0  0  0  0  0  0  0
  146.5200  154.0670  133.0840 C   0  0  0  0  0  0  0  0  0  0  0  0
  146.1530  156.9650  133.2280 C   0  0  0  0  0  0  0  0  0  0  0  0
  146.0090  158.3510  133.3540 C   0  0  0  0  0  0  0  0  0  0  0  0
  139.5020  156.0738  134.1067 H   0  0  0  0  0  0  0  0  0  0  0  0
  138.5963  156.0800  132.5554 H   0  0  0  0  0  0  0  0  0  0  0  0
  140.3760  155.8364  132.5554 H   0  0  0  0  0  0  0  0  0  0  0  0
  141.0047  158.5843  135.7966 H   0  0  0  0  0  0  0  0  0  0  0  0
  141.5098  157.1235  134.8710 H   0  0  0  0  0  0  0  0  0  0  0  0
  142.5100  160.4990  133.4220 H   0  0  0  0  0  0  0  0  0  0  0  0
  147.2308  161.4021  133.3654 H   0  0  0  0  0  0  0  0  0  0  0  0
  149.2379  159.3937  133.0407 H   0  0  0  0  0  0  0  0  0  0  0  0
  149.5745  156.9132  132.8441 H   0  0  0  0  0  0  0  0  0  0  0  0
  149.5035  154.2269  133.5601 H   0  0  0  0  0  0  0  0  0  0  0  0
  148.8692  153.5169  132.0368 H   0  0  0  0  0  0  0  0  0  0  0  0
  149.5540  155.1776  132.0368 H   0  0  0  0  0  0  0  0  0  0  0  0
  146.3295  153.9108  134.1561 H   0  0  0  0  0  0  0  0  0  0  0  0
  145.6232  154.4931  132.6105 H   0  0  0  0  0  0  0  0  0  0  0  0
  146.7622  153.1041  132.6105 H   0  0  0  0  0  0  0  0  0  0  0  0
  145.2739  156.3052  133.2709 H   0  0  0  0  0  0  0  0  0  0  0  0
  1  2  1  0
  2  3  1  0
  3  4  1  0
  4  5  2  0
  4  6  1  0
  6  7  1  0
  7  8  1  0
  8  9  1  0
  9 10  1  0
 10 11  2  0
 10 12  1  0
 12 13  1  0
 13 14  1  0
 14 15  1  0
 14 16  2  0
 13 17  2  0
 17 18  1  0
 18 19  2  0
 19 20  1  0
 20 21  2  0
 21 22  1  0
 22 23  1  0
 22 24  1  0
 21 25  1  0
 25 26  2  0
  7  2  2  0
 26 12  1  0
 26 18  1  0
  1 27  1  0
  1 28  1  0
  1 29  1  0
  8 30  1  0
  8 31  1  0
 15 32  1  0
 17 33  1  0
 19 34  1  0
 20 35  1  0
 23 36  1  0
 23 37  1  0
 23 38  1  0
 24 39  1  0
 24 40  1  0
 24 41  1  0
 25 42  1  0
M  CHG  1  15  -1
M  END
>  <UniqueID>  (3) 
3

>  <SMILES>  (3) 
Cc1oc(=O)oc1COC(=O)n1c(C([NH-])=O)cc2ccc(N(C)C)cc21

>  <Energy>  (3) 
113.99114062476751

>  <Genealogy>  (3) 
Cc1oc(=O)oc1COC(=O)n1c(C([NH-])=O)cc2ccc(N(C)C)cc21 (protonated)
Cc1oc(=O)oc1COC(=O)n1c(C([NH-])=O)cc2ccc(N(C)C)cc21 (3D coordinates assigned)
Cc1oc(=O)oc1COC(=O)n1c(C([NH-])=O)cc2ccc(N(C)C)cc21 (optimized conformer: 113.99114062476751 kcal/mol)

>  <smiles>  (3) 
Cc1oc(=O)oc1COC(=O)n1c(C(N)=O)cc2ccc(N(C)C)cc21

>  <score_type>  (3) 
oracle

>  <origin>  (3) 
adg

>  <m_score__min__energy>  (3) 
-6.7400000000000002

>  <m_primary>  (3) 
energy

$$$$
3:0
     RDKit          3D

 43 44  0  0  0  0  0  0  0  0999 V2000
  140.1680  158.6020  136.2430 C   0  0  0  0  0  0  0  0  0  0  0  0
  139.1070  157.8920  135.4100 C   0  0  0  0  0  0  0  0  0  0  0  0
  139.0920  158.4020  134.0790 O   0  0  0  0  0  0  0  0  0  0  0  0
  139.3590  157.6210  132.9490 C   0  0  0  0  0  0  0  0  0  0  0  0
  139.6250  158.1600  131.8400 O   0  0  0  0  0  0  0  0  0  0  0  0
  139.2790  156.1290  133.0510 C   0  0  0  0  0  0  0  0  0  0  0  0
  140.6490  155.5050  133.3540 C   0  0  0  0  0  0  0  0  0  0  0  0
  141.6040  156.4680  134.0660 C   0  0  0  0  0  0  0  0  0  0  0  0
  142.4720  157.0900  133.1220 O   0  0  0  0  0  0  0  0  0  0  0  0
  143.8600  157.1330  133.2880 C   0  0  0  0  0  0  0  0  0  0  0  0
  144.5240  156.0630  133.3560 O   0  0  0  0  0  0  0  0  0  0  0  0
  144.5290  158.4020  133.3660 N   0  0  0  0  0  0  0  0  0  0  0  0
  143.9560  159.6290  133.4970 C   0  0  0  0  0  0  0  0  0  0  0  0
  142.5330  159.8920  133.7850 C   0  0  0  0  0  0  0  0  0  0  0  0
  141.5070  159.4610  132.8890 N   0  0  0  0  0  0  0  0  0  0  0  0
  142.2120  160.4510  134.8670 O   0  0  0  0  0  0  0  0  0  0  0  0
  144.9120  160.6350  133.3870 C   0  0  0  0  0  0  0  0  0  0  0  0
  146.1060  159.9810  133.1930 C   0  0  0  0  0  0  0  0  0  0  0  0
  147.3870  160.4930  133.0050 C   0  0  0  0  0  0  0  0  0  0  0  0
  148.4350  159.5830  132.7880 C   0  0  0  0  0  0  0  0  0  0  0  0
  148.1830  158.1910  132.7550 C   0  0  0  0  0  0  0  0  0  0  0  0
  149.2570  157.2760  132.5200 N   0  0  0  0  0  0  0  0  0  0  0  0
  146.8730  157.7050  132.9480 C   0  0  0  0  0  0  0  0  0  0  0  0
  145.8490  158.6320  133.1830 C   0  0  0  0  0  0  0  0  0  0  0  0
  139.9522  158.4576  137.3119 H   0  0  0  0  0  0  0  0  0  0  0  0
  141.1582  158.1839  136.0091 H   0  0  0  0  0  0  0  0  0  0  0  0
  140.1592  159.6768  136.0091 H   0  0  0  0  0  0  0  0  0  0  0  0
  139.3296  156.8151  135.3823 H   0  0  0  0  0  0  0  0  0  0  0  0
  138.1217  158.0645  135.8677 H   0  0  0  0  0  0  0  0  0  0  0  0
  138.5804  155.8640  133.8583 H   0  0  0  0  0  0  0  0  0  0  0  0
  138.9310  155.7378  132.0836 H   0  0  0  0  0  0  0  0  0  0  0  0
  140.4982  154.6239  133.9950 H   0  0  0  0  0  0  0  0  0  0  0  0
  141.1088  155.2398  132.3905 H   0  0  0  0  0  0  0  0  0  0  0  0
  141.0192  157.2411  134.5859 H   0  0  0  0  0  0  0  0  0  0  0  0
  142.2086  155.9028  134.7906 H   0  0  0  0  0  0  0  0  0  0  0  0
  140.5060  159.6580  133.1080 H   0  0  0  0  0  0  0  0  0  0  0  0
  141.7300  158.8760  132.0540 H   0  0  0  0  0  0  0  0  0  0  0  0
  144.7474  161.7212  133.4433 H   0  0  0  0  0  0  0  0  0  0  0  0
  147.5728  161.5770  133.0258 H   0  0  0  0  0  0  0  0  0  0  0  0
  149.4597  159.9555  132.6426 H   0  0  0  0  0  0  0  0  0  0  0  0
  149.9740  157.0940  133.2570 H   0  0  0  0  0  0  0  0  0  0  0  0
  149.3420  156.7740  131.6080 H   0  0  0  0  0  0  0  0  0  0  0  0
  146.6608  156.6262  132.9149 H   0  0  0  0  0  0  0  0  0  0  0  0
  1  2  1  0
  2  3  1  0
  3  4  1  0
  4  5  2  0
  4  6  1  0
  6  7  1  0
  7  8  1  0
  8  9  1  0
  9 10  1  0
 10 11  2  0
 10 12  1  0
 12 13  1  0
 13 14  1  0
 14 15  1  0
 14 16  2  0
 13 17  2  0
 17 18  1  0
 18 19  2  0
 19 20  1  0
 20 21  2  0
 21 22  1  0
 21 23  1  0
 23 24  2  0
 24 12  1  0
 24 18  1  0
  1 25  1  0
  1 26  1  0
  1 27  1  0
  2 28  1  0
  2 29  1  0
  6 30  1  0
  6 31  1  0
  7 32  1  0
  7 33  1  0
  8 34  1  0
  8 35  1  0
 15 36  1  0
 15 37  1  0
 17 38  1  0
 19 39  1  0
 20 40  1  0
 22 41  1  0
 22 42  1  0
 23 43  1  0
M  END
>  <UniqueID>  (4) 
4

>  <SMILES>  (4) 
CCOC(=O)CCCOC(=O)n1c(C(N)=O)cc2ccc(N)cc21

>  <Energy>  (4) 
68.95846548004269

>  <Genealogy>  (4) 
CCOC(=O)CCCOC(=O)n1c(C(N)=O)cc2ccc(N)cc21 (3D coordinates assigned)
CCOC(=O)CCCOC(=O)n1c(C(N)=O)cc2ccc(N)cc21 (optimized conformer: 68.95846548004269 kcal/mol)

>  <smiles>  (4) 
CCOC(=O)CCCOC(=O)n1c(C(N)=O)cc2ccc(N)cc21

>  <score_type>  (4) 
oracle

>  <origin>  (4) 
adg

>  <m_score__min__energy>  (4) 
-6.5899999999999999

>  <m_primary>  (4) 
energy

$$$$
4:0
     RDKit          3D

 43 44  0  0  0  0  0  0  0  0999 V2000
  140.9740  151.5540  132.9180 C   0  0  0  0  0  0  0  0  0  0  0  0
  142.0640  150.6340  132.5800 N   0  0  0  0  0  0  0  0  0  0  0  0
  141.7620  149.2610  132.1610 C   0  0  0  0  0  0  0  0  0  0  0  0
  143.4450  151.0590  132.6310 C   0  0  0  0  0  0  0  0  0  0  0  0
  144.3530  150.2780  132.2340 O   0  0  0  0  0  0  0  0  0  0  0  0
  143.8460  152.4180  133.1450 C   0  0  0  0  0  0  0  0  0  0  0  0
  145.3010  152.5330  133.2480 N   0  0  0  0  0  0  0  0  0  0  0  0
  146.0270  153.7780  133.2340 C   0  0  0  0  0  0  0  0  0  0  0  0
  147.4430  153.7470  133.1990 C   0  0  0  0  0  0  0  0  0  0  0  0
  148.1910  154.9350  133.1900 C   0  0  0  0  0  0  0  0  0  0  0  0
  147.4980  156.1420  133.2070 C   0  0  0  0  0  0  0  0  0  0  0  0
  147.9720  157.4340  133.2300 C   0  0  0  0  0  0  0  0  0  0  0  0
  146.8380  158.2400  133.2520 C   0  0  0  0  0  0  0  0  0  0  0  0
  146.8870  159.7150  133.2160 C   0  0  0  0  0  0  0  0  0  0  0  0
  145.7070  160.4910  133.0020 N   0  0  0  0  0  0  0  0  0  0  0  0
  147.9990  160.3000  133.3200 O   0  0  0  0  0  0  0  0  0  0  0  0
  145.7060  157.4800  133.2560 N   0  0  0  0  0  0  0  0  0  0  0  0
  144.3470  157.9320  133.3700 C   0  0  0  0  0  0  0  0  0  0  0  0
  143.4730  157.5020  132.5700 O   0  0  0  0  0  0  0  0  0  0  0  0
  144.0010  158.8500  134.3690 O   0  0  0  0  0  0  0  0  0  0  0  0
  142.6800  159.3520  134.5470 C   0  0  0  0  0  0  0  0  0  0  0  0
  142.5170  160.6540  133.8310 C   0  0  0  0  0  0  0  0  0  0  0  0
  141.4030  160.9760  133.3430 O   0  0  0  0  0  0  0  0  0  0  0  0
  143.5930  161.5270  133.7280 O   0  0  0  0  0  0  0  0  0  0  0  0
  146.1290  156.1960  133.2250 C   0  0  0  0  0  0  0  0  0  0  0  0
  145.3600  155.0260  133.2650 C   0  0  0  0  0  0  0  0  0  0  0  0
  140.8841  151.6299  134.0117 H   0  0  0  0  0  0  0  0  0  0  0  0
  141.1893  152.5476  132.4980 H   0  0  0  0  0  0  0  0  0  0  0  0
  140.0307  151.1749  132.4980 H   0  0  0  0  0  0  0  0  0  0  0  0
  141.6229  148.6285  133.0501 H   0  0  0  0  0  0  0  0  0  0  0  0
  140.8411  149.2554  131.5593 H   0  0  0  0  0  0  0  0  0  0  0  0
  142.5955  148.8695  131.5593 H   0  0  0  0  0  0  0  0  0  0  0  0
  143.4726  153.1882  132.4540 H   0  0  0  0  0  0  0  0  0  0  0  0
  143.4125  152.5550  134.1467 H   0  0  0  0  0  0  0  0  0  0  0  0
  145.8460  151.6440  133.3230 H   0  0  0  0  0  0  0  0  0  0  0  0
  147.9637  152.7783  133.1786 H   0  0  0  0  0  0  0  0  0  0  0  0
  149.2906  154.9127  133.1701 H   0  0  0  0  0  0  0  0  0  0  0  0
  149.0227  157.7597  133.2308 H   0  0  0  0  0  0  0  0  0  0  0  0
  144.8030  160.0380  132.7410 H   0  0  0  0  0  0  0  0  0  0  0  0
  145.7550  161.5340  133.0230 H   0  0  0  0  0  0  0  0  0  0  0  0
  141.9587  158.6248  134.1458 H   0  0  0  0  0  0  0  0  0  0  0  0
  142.4997  159.5099  135.6206 H   0  0  0  0  0  0  0  0  0  0  0  0
  144.2625  155.0759  133.3193 H   0  0  0  0  0  0  0  0  0  0  0  0
  1  2  1  0
  2  3  1  0
  2  4  1  0
  4  5  2  0
  4  6  1  0
  6  7  1  0
  7  8  1  0
  8  9  2  0
  9 10  1  0
 10 11  2  0
 11 12  1  0
 12 13  2  0
 13 14  1  0
 14 15  1  0
 14 16  2  0
 13 17  1  0
 17 18  1  0
 18 19  2  0
 18 20  1  0
 20 21  1  0
 21 22  1  0
 22 23  2  0
 22 24  1  0
 17 25  1  0
 25 26  2  0
 26  8  1  0
 25 11  1  0
  1 27  1  0
  1 28  1  0
  1 29  1  0
  3 30  1  0
  3 31  1  0
  3 32  1  0
  6 33  1  0
  6 34  1  0
  7 35  1  0
  9 36  1  0
 10 37  1  0
 12 38  1  0
 15 39  1  0
 15 40  1  0
 21 41  1  0
 21 42  1  0
 26 43  1  0
M  CHG  1  24  -1
M  END
>  <UniqueID>  (5) 
5

>  <SMILES>  (5) 
CN(C)C(=O)CNc1ccc2cc(C(N)=O)n(C(=O)OCC(=O)[O-])c2c1

>  <Energy>  (5) 
76.04718364184167

>  <Genealogy>  (5) 
CN(C)C(=O)CNc1ccc2cc(C(N)=O)n(C(=O)OCC(=O)[O-])c2c1 (protonated)
CN(C)C(=O)CNc1ccc2cc(C(N)=O)n(C(=O)OCC(=O)[O-])c2c1 (3D coordinates assigned)
CN(C)C(=O)CNc1ccc2cc(C(N)=O)n(C(=O)OCC(=O)[O-])c2c1 (optimized conformer: 76.04718364184167 kcal/mol)

>  <smiles>  (5) 
CN(C)C(=O)CNc1ccc2cc(C(N)=O)n(C(=O)OCC(=O)O)c2c1

>  <score_type>  (5) 
oracle

>  <origin>  (5) 
adg

>  <m_score__min__energy>  (5) 
-7.1699999999999999

>  <m_primary>  (5) 
energy

$$$$
5:0
     RDKit          3D

 44 47  0  0  0  0  0  0  0  0999 V2000
  139.1090  149.5560  132.2360 C   0  0  0  0  0  0  0  0  0  0  0  0
  140.5310  150.0040  132.3900 C   0  0  0  0  0  0  0  0  0  0  0  0
  141.5780  149.2640  131.7870 C   0  0  0  0  0  0  0  0  0  0  0  0
  142.9140  149.6870  131.9030 C   0  0  0  0  0  0  0  0  0  0  0  0
  143.1660  150.8590  132.6100 C   0  0  0  0  0  0  0  0  0  0  0  0
  144.3590  151.4900  132.8900 C   0  0  0  0  0  0  0  0  0  0  0  0
  144.0150  152.6160  133.6380 C   0  0  0  0  0  0  0  0  0  0  0  0
  144.9950  153.6100  134.1250 C   0  0  0  0  0  0  0  0  0  0  0  0
  144.7570  154.3570  135.3140 N   0  0  0  0  0  0  0  0  0  0  0  0
  146.0530  153.8170  133.4700 O   0  0  0  0  0  0  0  0  0  0  0  0
  142.6650  152.6790  133.8060 N   0  0  0  0  0  0  0  0  0  0  0  0
  141.9170  153.6410  134.5650 C   0  0  0  0  0  0  0  0  0  0  0  0
  141.8040  153.4820  135.8110 O   0  0  0  0  0  0  0  0  0  0  0  0
  141.2800  154.8070  133.9050 C   0  0  0  0  0  0  0  0  0  0  0  0
  140.0440  154.6650  133.2510 C   0  0  0  0  0  0  0  0  0  0  0  0
  139.4360  155.7620  132.6330 C   0  0  0  0  0  0  0  0  0  0  0  0
  140.0470  157.0260  132.6590 C   0  0  0  0  0  0  0  0  0  0  0  0
  139.3940  158.1830  132.0000 C   0  0  0  0  0  0  0  0  0  0  0  0
  138.1250  158.4150  132.0510 N   0  0  0  0  0  0  0  0  0  0  0  0
  137.7930  159.6160  131.2980 C   0  0  0  0  0  0  0  0  0  0  0  0
  139.1420  160.1280  130.7670 C   0  0  0  0  0  0  0  0  0  0  0  0
  140.1010  159.1470  131.2410 N   0  0  0  0  0  0  0  0  0  0  0  0
  141.2820  157.1690  133.3170 C   0  0  0  0  0  0  0  0  0  0  0  0
  141.8900  156.0730  133.9350 C   0  0  0  0  0  0  0  0  0  0  0  0
  142.1610  151.5960  133.1780 C   0  0  0  0  0  0  0  0  0  0  0  0
  140.8240  151.1960  133.0880 C   0  0  0  0  0  0  0  0  0  0  0  0
  138.6595  149.4144  133.2299 H   0  0  0  0  0  0  0  0  0  0  0  0
  138.5421  150.3191  131.6825 H   0  0  0  0  0  0  0  0  0  0  0  0
  139.0818  148.6058  131.6825 H   0  0  0  0  0  0  0  0  0  0  0  0
  141.3434  148.3495  131.2225 H   0  0  0  0  0  0  0  0  0  0  0  0
  143.7335  149.1102  131.4496 H   0  0  0  0  0  0  0  0  0  0  0  0
  145.3680  151.1730  132.5878 H   0  0  0  0  0  0  0  0  0  0  0  0
  143.8550  154.2670  135.8340 H   0  0  0  0  0  0  0  0  0  0  0  0
  139.5507  153.6822  133.2252 H   0  0  0  0  0  0  0  0  0  0  0  0
  138.4704  155.6337  132.1219 H   0  0  0  0  0  0  0  0  0  0  0  0
  137.4180  157.8160  132.5320 H   0  0  0  0  0  0  0  0  0  0  0  0
  137.1139  159.3772  130.4662 H   0  0  0  0  0  0  0  0  0  0  0  0
  137.2769  160.3656  131.9158 H   0  0  0  0  0  0  0  0  0  0  0  0
  139.1383  160.1719  129.6679 H   0  0  0  0  0  0  0  0  0  0  0  0
  139.3733  161.1469  131.1111 H   0  0  0  0  0  0  0  0  0  0  0  0
  141.1360  159.2110  131.1240 H   0  0  0  0  0  0  0  0  0  0  0  0
  141.7737  158.1526  133.3454 H   0  0  0  0  0  0  0  0  0  0  0  0
  142.8538  156.2021  134.4491 H   0  0  0  0  0  0  0  0  0  0  0  0
  140.0230  151.7932  133.5481 H   0  0  0  0  0  0  0  0  0  0  0  0
  1  2  1  0
  2  3  2  0
  3  4  1  0
  4  5  2  0
  5  6  1  0
  6  7  2  0
  7  8  1  0
  8  9  1  0
  8 10  2  0
  7 11  1  0
 11 12  1  0
 12 13  2  0
 12 14  1  0
 14 15  2  0
 15 16  1  0
 16 17  2  0
 17 18  1  0
 18 19  2  0
 19 20  1  0
 20 21  1  0
 21 22  1  0
 17 23  1  0
 23 24  2  0
 11 25  1  0
 25 26  2  0
 26  2  1  0
 25  5  1  0
 24 14  1  0
 22 18  1  0
  1 27  1  0
  1 28  1  0
  1 29  1  0
  3 30  1  0
  4 31  1  0
  6 32  1  0
  9 33  1  0
 15 34  1  0
 16 35  1  0
 19 36  1  0
 20 37  1  0
 20 38  1  0
 21 39  1  0
 21 40  1  0
 22 41  1  0
 23 42  1  0
 24 43  1  0
 26 44  1  0
M  CHG  2   9  -1  19   1
M  END
>  <UniqueID>  (6) 
6

>  <SMILES>  (6) 
Cc1ccc2cc(C([NH-])=O)n(C(=O)c3ccc(C4=[NH+]CCN4)cc3)c2c1

>  <Energy>  (6) 
101.2642201544619

>  <Genealogy>  (6) 
Cc1ccc2cc(C([NH-])=O)n(C(=O)c3ccc(C4=[NH+]CCN4)cc3)c2c1 (protonated)
Cc1ccc2cc(C([NH-])=O)n(C(=O)c3ccc(C4=[NH+]CCN4)cc3)c2c1 (3D coordinates assigned)
Cc1ccc2cc(C([NH-])=O)n(C(=O)c3ccc(C4=[NH+]CCN4)cc3)c2c1 (nonaromatic ring conformer: 101.2642201544619 kcal/mol)

>  <smiles>  (6) 
Cc1ccc2cc(C(N)=O)n(C(=O)c3ccc(C4=NCCN4)cc3)c2c1

>  <score_type>  (6) 
oracle

>  <origin>  (6) 
adg

>  <m_score__min__energy>  (6) 
-8.1799999999999997

>  <m_primary>  (6) 
energy

$$$$
6:0
     RDKit          3D

 45 46  0  0  0  0  0  0  0  0999 V2000
  143.9600  153.4140  132.6010 C   0  0  0  0  0  0  0  0  0  0  0  0
  143.3650  153.7050  133.9080 N   0  0  0  0  0  0  0  0  0  0  0  0
  141.9280  153.5040  134.1310 C   0  0  0  0  0  0  0  0  0  0  0  0
  141.2270  154.8230  134.1650 C   0  0  0  0  0  0  0  0  0  0  0  0
  141.2750  155.5400  135.1990 O   0  0  0  0  0  0  0  0  0  0  0  0
  140.4740  155.2370  133.0730 O   0  0  0  0  0  0  0  0  0  0  0  0
  144.1940  154.2250  134.9660 C   0  0  0  0  0  0  0  0  0  0  0  0
  144.1200  153.7380  136.1280 O   0  0  0  0  0  0  0  0  0  0  0  0
  145.1200  155.2890  134.7130 N   0  0  0  0  0  0  0  0  0  0  0  0
  146.4790  155.2480  134.7760 C   0  0  0  0  0  0  0  0  0  0  0  0
  147.2830  154.0870  135.2130 C   0  0  0  0  0  0  0  0  0  0  0  0
  146.9840  153.4420  136.4490 N   0  0  0  0  0  0  0  0  0  0  0  0
  148.2250  153.6500  134.4990 O   0  0  0  0  0  0  0  0  0  0  0  0
  147.0210  156.4770  134.4020 C   0  0  0  0  0  0  0  0  0  0  0  0
  145.9380  157.2740  134.0960 C   0  0  0  0  0  0  0  0  0  0  0  0
  145.8880  158.5890  133.6400 C   0  0  0  0  0  0  0  0  0  0  0  0
  144.6260  159.1460  133.3750 C   0  0  0  0  0  0  0  0  0  0  0  0
  143.4440  158.3870  133.5750 C   0  0  0  0  0  0  0  0  0  0  0  0
  142.0960  158.9780  133.2540 C   0  0  0  0  0  0  0  0  0  0  0  0
  141.1420  158.9080  134.4250 C   0  0  0  0  0  0  0  0  0  0  0  0
  141.2050  159.7410  135.3220 O   0  0  0  0  0  0  0  0  0  0  0  0
  140.1810  157.8260  134.5080 N   0  0  0  0  0  0  0  0  0  0  0  0
  139.4850  157.8560  135.8040 C   0  0  0  0  0  0  0  0  0  0  0  0
  139.2200  157.9150  133.3950 C   0  0  0  0  0  0  0  0  0  0  0  0
  143.5360  157.0550  134.0320 C   0  0  0  0  0  0  0  0  0  0  0  0
  144.8040  156.5310  134.2920 C   0  0  0  0  0  0  0  0  0  0  0  0
  144.9399  152.9348  132.7427 H   0  0  0  0  0  0  0  0  0  0  0  0
  143.2988  152.7376  132.0395 H   0  0  0  0  0  0  0  0  0  0  0  0
  144.0880  154.3512  132.0395 H   0  0  0  0  0  0  0  0  0  0  0  0
  141.5147  152.8927  133.3152 H   0  0  0  0  0  0  0  0  0  0  0  0
  141.7800  152.9914  135.0929 H   0  0  0  0  0  0  0  0  0  0  0  0
  146.1040  153.6600  136.9690 H   0  0  0  0  0  0  0  0  0  0  0  0
  148.0852  156.7521  134.3600 H   0  0  0  0  0  0  0  0  0  0  0  0
  146.8082  159.1733  133.4920 H   0  0  0  0  0  0  0  0  0  0  0  0
  144.5534  160.1807  133.0088 H   0  0  0  0  0  0  0  0  0  0  0  0
  142.2309  160.0323  132.9709 H   0  0  0  0  0  0  0  0  0  0  0  0
  141.6604  158.3921  132.4312 H   0  0  0  0  0  0  0  0  0  0  0  0
  140.6800  156.9070  134.4310 H   0  0  0  0  0  0  0  0  0  0  0  0
  140.2242  157.8241  136.6180 H   0  0  0  0  0  0  0  0  0  0  0  0
  138.8939  158.7805  135.8815 H   0  0  0  0  0  0  0  0  0  0  0  0
  138.8166  156.9858  135.8815 H   0  0  0  0  0  0  0  0  0  0  0  0
  138.2006  158.0094  133.7974 H   0  0  0  0  0  0  0  0  0  0  0  0
  139.4537  158.7953  132.7783 H   0  0  0  0  0  0  0  0  0  0  0  0
  139.2881  157.0067  132.7783 H   0  0  0  0  0  0  0  0  0  0  0  0
  142.6324  156.4453  134.1796 H   0  0  0  0  0  0  0  0  0  0  0  0
  1  2  1  0
  2  3  1  0
  3  4  1  0
  4  5  2  0
  4  6  1  0
  2  7  1  0
  7  8  2  0
  7  9  1  0
  9 10  1  0
 10 11  1  0
 11 12  1  0
 11 13  2  0
 10 14  2  0
 14 15  1  0
 15 16  2  0
 16 17  1  0
 17 18  2  0
 18 19  1  0
 19 20  1  0
 20 21  2  0
 20 22  1  0
 22 23  1  0
 22 24  1  0
 18 25  1  0
 25 26  2  0
 26  9  1  0
 26 15  1  0
  1 27  1  0
  1 28  1  0
  1 29  1  0
  3 30  1  0
  3 31  1  0
 12 32  1  0
 14 33  1  0
 16 34  1  0
 17 35  1  0
 19 36  1  0
 19 37  1  0
 22 38  1  0
 23 39  1  0
 23 40  1  0
 23 41  1  0
 24 42  1  0
 24 43  1  0
 24 44  1  0
 25 45  1  0
M  CHG  3   6  -1  12  -1  22   1
M  END
>  <UniqueID>  (7) 
7

>  <SMILES>  (7) 
CN(CC(=O)[O-])C(=O)n1c(C([NH-])=O)cc2ccc(CC(=O)[NH+](C)C)cc21

>  <Energy>  (7) 
79.93762138181307

>  <Genealogy>  (7) 
CN(CC(=O)[O-])C(=O)n1c(C([NH-])=O)cc2ccc(CC(=O)[NH+](C)C)cc21 (protonated)
CN(CC(=O)[O-])C(=O)n1c(C([NH-])=O)cc2ccc(CC(=O)[NH+](C)C)cc21 (3D coordinates assigned)
CN(CC(=O)[O-])C(=O)n1c(C([NH-])=O)cc2ccc(CC(=O)[NH+](C)C)cc21 (optimized conformer: 79.93762138181307 kcal/mol)

>  <smiles>  (7) 
CN(C)C(=O)Cc1ccc2cc(C(N)=O)n(C(=O)N(C)CC(=O)O)c2c1

>  <score_type>  (7) 
oracle

>  <origin>  (7) 
adg

>  <m_score__min__energy>  (7) 
-5.5099999999999998

>  <m_primary>  (7) 
energy

$$$$
7:0
     RDKit          3D

 39 40  0  0  0  0  0  0  0  0999 V2000
  145.7780  163.1190  135.0420 C   0  0  0  0  0  0  0  0  0  0  0  0
  144.8690  162.4540  134.1010 N   0  0  0  0  0  0  0  0  0  0  0  0
  143.8930  163.2660  133.3610 C   0  0  0  0  0  0  0  0  0  0  0  0
  144.9310  161.0160  133.9060 C   0  0  0  0  0  0  0  0  0  0  0  0
  143.7440  160.2300  133.9120 C   0  0  0  0  0  0  0  0  0  0  0  0
  143.7940  158.8380  133.7320 C   0  0  0  0  0  0  0  0  0  0  0  0
  145.0380  158.2490  133.5410 C   0  0  0  0  0  0  0  0  0  0  0  0
  145.3720  156.9250  133.3670 C   0  0  0  0  0  0  0  0  0  0  0  0
  146.7590  156.9110  133.2310 C   0  0  0  0  0  0  0  0  0  0  0  0
  147.5350  155.6890  132.9300 C   0  0  0  0  0  0  0  0  0  0  0  0
  148.9600  155.6940  132.9760 N   0  0  0  0  0  0  0  0  0  0  0  0
  146.9340  154.6380  132.5810 O   0  0  0  0  0  0  0  0  0  0  0  0
  147.2610  158.1750  133.3290 N   0  0  0  0  0  0  0  0  0  0  0  0
  148.6370  158.5790  133.3140 C   0  0  0  0  0  0  0  0  0  0  0  0
  149.1220  159.1960  134.3030 O   0  0  0  0  0  0  0  0  0  0  0  0
  149.4270  158.3070  132.1920 O   0  0  0  0  0  0  0  0  0  0  0  0
  149.5650  159.2020  131.0890 C   0  0  0  0  0  0  0  0  0  0  0  0
  149.0380  160.5980  131.4380 C   0  0  0  0  0  0  0  0  0  0  0  0
  149.2700  161.5930  130.3020 C   0  0  0  0  0  0  0  0  0  0  0  0
  148.7430  162.8230  130.6480 F   0  0  0  0  0  0  0  0  0  0  0  0
  146.1930  158.9820  133.5130 C   0  0  0  0  0  0  0  0  0  0  0  0
  146.1780  160.3670  133.7080 C   0  0  0  0  0  0  0  0  0  0  0  0
  145.4684  162.8925  136.0730 H   0  0  0  0  0  0  0  0  0  0  0  0
  146.8037  162.7566  134.8792 H   0  0  0  0  0  0  0  0  0  0  0  0
  145.7431  164.2063  134.8792 H   0  0  0  0  0  0  0  0  0  0  0  0
  143.2480  163.8026  134.0724 H   0  0  0  0  0  0  0  0  0  0  0  0
  144.4246  163.9920  132.7283 H   0  0  0  0  0  0  0  0  0  0  0  0
  143.2758  162.6112  132.7283 H   0  0  0  0  0  0  0  0  0  0  0  0
  142.7710  160.7213  134.0602 H   0  0  0  0  0  0  0  0  0  0  0  0
  142.8759  158.2322  133.7419 H   0  0  0  0  0  0  0  0  0  0  0  0
  144.6900  156.0624  133.3409 H   0  0  0  0  0  0  0  0  0  0  0  0
  149.4820  156.5040  133.3790 H   0  0  0  0  0  0  0  0  0  0  0  0
  150.6287  159.2773  130.8191 H   0  0  0  0  0  0  0  0  0  0  0  0
  148.9776  158.8089  130.2462 H   0  0  0  0  0  0  0  0  0  0  0  0
  147.9583  160.5312  131.6378 H   0  0  0  0  0  0  0  0  0  0  0  0
  149.5827  160.9573  132.3235 H   0  0  0  0  0  0  0  0  0  0  0  0
  150.3500  161.6956  130.1201 H   0  0  0  0  0  0  0  0  0  0  0  0
  148.7759  161.2275  129.3897 H   0  0  0  0  0  0  0  0  0  0  0  0
  147.1153  160.9428  133.7079 H   0  0  0  0  0  0  0  0  0  0  0  0
  1  2  1  0
  2  3  1  0
  2  4  1  0
  4  5  2  0
  5  6  1  0
  6  7  2  0
  7  8  1  0
  8  9  2  0
  9 10  1  0
 10 11  1  0
 10 12  2  0
  9 13  1  0
 13 14  1  0
 14 15  2  0
 14 16  1  0
 16 17  1  0
 17 18  1  0
 18 19  1  0
 19 20  1  0
 13 21  1  0
 21 22  2  0
 22  4  1  0
 21  7  1  0
  1 23  1  0
  1 24  1  0
  1 25  1  0
  3 26  1  0
  3 27  1  0
  3 28  1  0
  5 29  1  0
  6 30  1  0
  8 31  1  0
 11 32  1  0
 17 33  1  0
 17 34  1  0
 18 35  1  0
 18 36  1  0
 19 37  1  0
 19 38  1  0
 22 39  1  0
M  CHG  1  11  -1
M  END
>  <UniqueID>  (8) 
8

>  <SMILES>  (8) 
CN(C)c1ccc2cc(C([NH-])=O)n(C(=O)OCCCF)c2c1

>  <Energy>  (8) 
73.29233988336496

>  <Genealogy>  (8) 
CN(C)c1ccc2cc(C([NH-])=O)n(C(=O)OCCCF)c2c1 (protonated)
CN(C)c1ccc2cc(C([NH-])=O)n(C(=O)OCCCF)c2c1 (3D coordinates assigned)
CN(C)c1ccc2cc(C([NH-])=O)n(C(=O)OCCCF)c2c1 (optimized conformer: 73.29233988336496 kcal/mol)

>  <smiles>  (8) 
CN(C)c1ccc2cc(C(N)=O)n(C(=O)OCCCF)c2c1

>  <score_type>  (8) 
oracle

>  <origin>  (8) 
adg

>  <m_score__min__energy>  (8) 
-5.4199999999999999

>  <m_primary>  (8) 
energy

$$$$
8:0
     RDKit          3D

 46 47  0  0  0  0  0  0  0  0999 V2000
  141.3220  156.3990  134.9770 N   0  0  0  0  0  0  0  0  0  0  0  0
  141.5460  157.4840  134.0780 C   0  0  0  0  0  0  0  0  0  0  0  0
  140.5590  158.0760  133.5650 O   0  0  0  0  0  0  0  0  0  0  0  0
  142.9140  157.9620  133.7950 C   0  0  0  0  0  0  0  0  0  0  0  0
  143.2990  159.2910  133.9360 C   0  0  0  0  0  0  0  0  0  0  0  0
  144.6500  159.3080  133.6800 C   0  0  0  0  0  0  0  0  0  0  0  0
  145.5420  160.3760  133.6660 C   0  0  0  0  0  0  0  0  0  0  0  0
  146.8810  160.1120  133.3390 C   0  0  0  0  0  0  0  0  0  0  0  0
  147.3040  158.7940  133.0360 C   0  0  0  0  0  0  0  0  0  0  0  0
  148.7410  158.5270  132.6660 C   0  0  0  0  0  0  0  0  0  0  0  0
  149.4030  159.7350  131.9870 C   0  0  0  0  0  0  0  0  0  0  0  0
  148.8080  160.0590  130.6130 C   0  0  0  0  0  0  0  0  0  0  0  0
  148.8540  161.4390  130.3790 O   0  0  0  0  0  0  0  0  0  0  0  0
  146.3700  157.7350  133.0570 C   0  0  0  0  0  0  0  0  0  0  0  0
  145.0400  158.0240  133.3950 C   0  0  0  0  0  0  0  0  0  0  0  0
  143.9800  157.1840  133.4520 N   0  0  0  0  0  0  0  0  0  0  0  0
  143.9590  155.7950  133.0750 C   0  0  0  0  0  0  0  0  0  0  0  0
  144.1140  155.4630  131.8680 O   0  0  0  0  0  0  0  0  0  0  0  0
  143.7510  154.8150  134.0520 O   0  0  0  0  0  0  0  0  0  0  0  0
  144.4290  154.8100  135.3050 C   0  0  0  0  0  0  0  0  0  0  0  0
  143.4890  154.7160  136.3710 O   0  0  0  0  0  0  0  0  0  0  0  0
  142.5210  153.7080  136.4370 C   0  0  0  0  0  0  0  0  0  0  0  0
  141.7240  153.5160  135.4770 O   0  0  0  0  0  0  0  0  0  0  0  0
  142.4310  152.8500  137.6610 C   0  0  0  0  0  0  0  0  0  0  0  0
  140.9770  152.5560  138.0470 C   0  0  0  0  0  0  0  0  0  0  0  0
  140.5870  151.1540  137.6930 C   0  0  0  0  0  0  0  0  0  0  0  0
  140.2720  150.3370  138.5980 O   0  0  0  0  0  0  0  0  0  0  0  0
  140.6160  150.7380  136.3680 O   0  0  0  0  0  0  0  0  0  0  0  0
  142.0100  155.6200  135.0600 H   0  0  0  0  0  0  0  0  0  0  0  0
  142.6589  160.1467  134.1969 H   0  0  0  0  0  0  0  0  0  0  0  0
  145.2076  161.3965  133.9041 H   0  0  0  0  0  0  0  0  0  0  0  0
  147.6092  160.9362  133.3177 H   0  0  0  0  0  0  0  0  0  0  0  0
  149.3022  158.2838  133.5803 H   0  0  0  0  0  0  0  0  0  0  0  0
  148.7544  157.6907  131.9515 H   0  0  0  0  0  0  0  0  0  0  0  0
  149.2779  160.6131  132.6376 H   0  0  0  0  0  0  0  0  0  0  0  0
  150.4621  159.4817  131.8319 H   0  0  0  0  0  0  0  0  0  0  0  0
  149.3862  159.5391  129.8349 H   0  0  0  0  0  0  0  0  0  0  0  0
  147.7600  159.7256  130.5881 H   0  0  0  0  0  0  0  0  0  0  0  0
  148.1500  161.6270  129.7040 H   0  0  0  0  0  0  0  0  0  0  0  0
  146.6785  156.7075  132.8139 H   0  0  0  0  0  0  0  0  0  0  0  0
  145.1120  153.9486  135.3454 H   0  0  0  0  0  0  0  0  0  0  0  0
  144.9986  155.7452  135.4093 H   0  0  0  0  0  0  0  0  0  0  0  0
  142.9469  151.8981  137.4668 H   0  0  0  0  0  0  0  0  0  0  0  0
  142.9017  153.3933  138.4936 H   0  0  0  0  0  0  0  0  0  0  0  0
  140.8600  152.6963  139.1317 H   0  0  0  0  0  0  0  0  0  0  0  0
  140.3262  153.2460  137.4899 H   0  0  0  0  0  0  0  0  0  0  0  0
  1  2  1  0
  2  3  2  0
  2  4  1  0
  4  5  2  0
  5  6  1  0
  6  7  2  0
  7  8  1  0
  8  9  2  0
  9 10  1  0
 10 11  1  0
 11 12  1  0
 12 13  1  0
  9 14  1  0
 14 15  2  0
 15 16  1  0
 16 17  1  0
 17 18  2  0
 17 19  1  0
 19 20  1  0
 20 21  1  0
 21 22  1  0
 22 23  2  0
 22 24  1  0
 24 25  1  0
 25 26  1  0
 26 27  2  0
 26 28  1  0
 16  4  1  0
 15  6  1  0
  1 29  1  0
  5 30  1  0
  7 31  1  0
  8 32  1  0
 10 33  1  0
 10 34  1  0
 11 35  1  0
 11 36  1  0
 12 37  1  0
 12 38  1  0
 13 39  1  0
 14 40  1  0
 20 41  1  0
 20 42  1  0
 24 43  1  0
 24 44  1  0
 25 45  1  0
 25 46  1  0
M  CHG  2   1  -1  28  -1
M  END
>  <UniqueID>  (9) 
9

>  <SMILES>  (9) 
[NH-]C(=O)c1cc2ccc(CCCO)cc2n1C(=O)OCOC(=O)CCC(=O)[O-]

>  <Energy>  (9) 
71.16281920360261

>  <Genealogy>  (9) 
[NH-]C(=O)c1cc2ccc(CCCO)cc2n1C(=O)OCOC(=O)CCC(=O)[O-] (protonated)
[NH-]C(=O)c1cc2ccc(CCCO)cc2n1C(=O)OCOC(=O)CCC(=O)[O-] (3D coordinates assigned)
[NH-]C(=O)c1cc2ccc(CCCO)cc2n1C(=O)OCOC(=O)CCC(=O)[O-] (optimized conformer: 71.16281920360261 kcal/mol)

>  <smiles>  (9) 
NC(=O)c1cc2ccc(CCCO)cc2n1C(=O)OCOC(=O)CCC(=O)O

>  <score_type>  (9) 
oracle

>  <origin>  (9) 
adg

>  <m_score__min__energy>  (9) 
-7.0599999999999996

>  <m_primary>  (9) 
energy

$$$$
9:0
     RDKit          3D

 47 51  0  0  0  0  0  0  0  0999 V2000
  138.8620  158.1990  135.9330 N   0  0  0  0  0  0  0  0  0  0  0  0
  139.1440  157.8640  134.5760 C   0  0  0  0  0  0  0  0  0  0  0  0
  138.2580  158.0430  133.7000 O   0  0  0  0  0  0  0  0  0  0  0  0
  140.4810  157.3530  134.2080 C   0  0  0  0  0  0  0  0  0  0  0  0
  140.6920  156.0950  133.6470 C   0  0  0  0  0  0  0  0  0  0  0  0
  142.0580  155.9720  133.5340 C   0  0  0  0  0  0  0  0  0  0  0  0
  142.8200  154.9270  133.0270 C   0  0  0  0  0  0  0  0  0  0  0  0
  144.2150  155.0800  133.0010 C   0  0  0  0  0  0  0  0  0  0  0  0
  144.8320  156.2720  133.4720 C   0  0  0  0  0  0  0  0  0  0  0  0
  146.2720  156.4270  133.4240 N   0  0  0  0  0  0  0  0  0  0  0  0
  147.1520  155.5320  132.6870 C   0  0  0  0  0  0  0  0  0  0  0  0
  148.5770  156.0120  132.9360 C   0  0  0  0  0  0  0  0  0  0  0  0
  148.4740  157.3300  133.7360 C   0  0  1  0  0  0  0  0  0  0  0  0
  149.0210  158.5220  133.0250 N   0  0  2  0  0  0  0  0  0  0  0  0
  148.1550  159.7220  133.0640 C   0  0  0  0  0  0  0  0  0  0  0  0
  148.1270  160.3420  131.6790 C   0  0  1  0  0  0  0  0  0  0  0  0
  149.4690  160.7690  131.1050 C   0  0  0  0  0  0  0  0  0  0  0  0
  148.8740  159.4110  130.7640 C   0  0  1  0  0  0  0  0  0  0  0  0
  149.3430  158.2390  131.6090 C   0  0  0  0  0  0  0  0  0  0  0  0
  146.9900  157.4990  134.0960 C   0  0  0  0  0  0  0  0  0  0  0  0
  144.0120  157.3120  133.9810 C   0  0  0  0  0  0  0  0  0  0  0  0
  142.6250  157.1230  134.0100 C   0  0  0  0  0  0  0  0  0  0  0  0
  141.6690  157.9840  134.4270 N   0  0  0  0  0  0  0  0  0  0  0  0
  141.8770  159.3180  134.9210 C   0  0  0  0  0  0  0  0  0  0  0  0
  142.5360  160.1510  134.2440 O   0  0  0  0  0  0  0  0  0  0  0  0
  141.3270  159.7120  136.1340 O   0  0  0  0  0  0  0  0  0  0  0  0
  139.2580  159.0620  136.3670 H   0  0  0  0  0  0  0  0  0  0  0  0
  139.9293  155.3575  133.3564 H   0  0  0  0  0  0  0  0  0  0  0  0
  142.3442  154.0069  132.6569 H   0  0  0  0  0  0  0  0  0  0  0  0
  144.8414  154.2647  132.6100 H   0  0  0  0  0  0  0  0  0  0  0  0
  147.0314  154.5001  133.0483 H   0  0  0  0  0  0  0  0  0  0  0  0
  146.9145  155.5409  131.6130 H   0  0  0  0  0  0  0  0  0  0  0  0
  149.1334  155.2605  133.5154 H   0  0  0  0  0  0  0  0  0  0  0  0
  149.1110  156.1684  131.9871 H   0  0  0  0  0  0  0  0  0  0  0  0
  149.1041  157.2637  134.6352 H   0  0  0  0  0  0  0  0  0  0  0  0
  149.9240  158.7730  133.4950 H   0  0  0  0  0  0  0  0  0  0  0  0
  147.1360  159.4345  133.3623 H   0  0  0  0  0  0  0  0  0  0  0  0
  148.5478  160.4462  133.7928 H   0  0  0  0  0  0  0  0  0  0  0  0
  147.1578  160.8598  131.7298 H   0  0  0  0  0  0  0  0  0  0  0  0
  149.5164  161.5586  130.3406 H   0  0  0  0  0  0  0  0  0  0  0  0
  150.4225  161.1221  131.5247 H   0  0  0  0  0  0  0  0  0  0  0  0
  148.7331  158.8979  129.8013 H   0  0  0  0  0  0  0  0  0  0  0  0
  148.8290  157.3210  131.2880 H   0  0  0  0  0  0  0  0  0  0  0  0
  150.4276  158.0990  131.4900 H   0  0  0  0  0  0  0  0  0  0  0  0
  146.8530  157.4227  135.1848 H   0  0  0  0  0  0  0  0  0  0  0  0
  146.6161  158.4842  133.7804 H   0  0  0  0  0  0  0  0  0  0  0  0
  144.4576  158.2491  134.3460 H   0  0  0  0  0  0  0  0  0  0  0  0
  1  2  1  0
  2  3  2  0
  2  4  1  0
  4  5  2  0
  5  6  1  0
  6  7  2  0
  7  8  1  0
  8  9  2  0
  9 10  1  0
 10 11  1  0
 11 12  1  0
 12 13  1  0
 13 14  1  0
 14 15  1  0
 15 16  1  0
 16 17  1  0
 17 18  1  0
 18 19  1  0
 13 20  1  0
  9 21  1  0
 21 22  2  0
 22 23  1  0
 23 24  1  0
 24 25  2  0
 24 26  1  0
 23  4  1  0
 22  6  1  0
 20 10  1  0
 19 14  1  0
 18 16  1  0
  1 27  1  0
  5 28  1  0
  7 29  1  0
  8 30  1  0
 11 31  1  0
 11 32  1  0
 12 33  1  0
 12 34  1  0
 13 35  1  1
 14 36  1  1
 15 37  1  0
 15 38  1  0
 16 39  1  6
 17 40  1  0
 17 41  1  0
 18 42  1  6
 19 43  1  0
 19 44  1  0
 20 45  1  0
 20 46  1  0
 21 47  1  0
M  CHG  3   1  -1  14   1  26  -1
M  END
>  <UniqueID>  (10) 
10

>  <SMILES>  (10) 
[NH-]C(=O)c1cc2ccc(N3CC[C@@H]([NH+]4CC5C[C@@H]5C4)C3)cc2n1C(=O)[O-]

>  <Energy>  (10) 
366.6210766110072

>  <Genealogy>  (10) 
[NH-]C(=O)c1cc2ccc(N3CCC([NH+]4CC5CC5C4)C3)cc2n1C(=O)[O-] (protonated)
[NH-]C(=O)c1cc2ccc(N3CC[C@@H]([NH+]4CC5C[C@@H]5C4)C3)cc2n1C(=O)[O-] (chirality)
[NH-]C(=O)c1cc2ccc(N3CC[C@@H]([NH+]4CC5C[C@@H]5C4)C3)cc2n1C(=O)[O-] (3D coordinates assigned)
[NH-]C(=O)c1cc2ccc(N3CC[C@@H]([NH+]4CC5C[C@@H]5C4)C3)cc2n1C(=O)[O-] (nonaromatic ring conformer: 366.6210766110072 kcal/mol)

>  <smiles>  (10) 
NC(=O)c1cc2ccc(N3CCC(N4CC5CC5C4)C3)cc2n1C(=O)O

>  <score_type>  (10) 
oracle

>  <origin>  (10) 
adg

>  <m_score__min__energy>  (10) 
-8.5099999999999998

>  <m_primary>  (10) 
energy

$$$$
10:0
     RDKit          3D

 37 38  0  0  0  0  0  0  0  0999 V2000
  146.4600  153.3540  134.1200 N   0  0  0  0  0  0  0  0  0  0  0  0
  146.7540  154.5070  134.9030 C   0  0  0  0  0  0  0  0  0  0  0  0
  146.7390  154.4170  136.1610 O   0  0  0  0  0  0  0  0  0  0  0  0
  147.0320  155.8130  134.2680 C   0  0  0  0  0  0  0  0  0  0  0  0
  146.2900  156.9660  134.5180 C   0  0  0  0  0  0  0  0  0  0  0  0
  146.8210  157.9280  133.6880 C   0  0  0  0  0  0  0  0  0  0  0  0
  146.4760  159.2670  133.5350 C   0  0  0  0  0  0  0  0  0  0  0  0
  147.2190  160.0390  132.6250 C   0  0  0  0  0  0  0  0  0  0  0  0
  148.2900  159.4640  131.8960 C   0  0  0  0  0  0  0  0  0  0  0  0
  149.0840  160.3110  130.9420 C   0  0  0  0  0  0  0  0  0  0  0  0
  148.8910  161.6480  131.2360 F   0  0  0  0  0  0  0  0  0  0  0  0
  150.4270  160.0060  131.0580 F   0  0  0  0  0  0  0  0  0  0  0  0
  148.6130  158.1010  132.0830 C   0  0  0  0  0  0  0  0  0  0  0  0
  147.8430  157.3530  132.9790 C   0  0  0  0  0  0  0  0  0  0  0  0
  147.9840  156.0540  133.3230 N   0  0  0  0  0  0  0  0  0  0  0  0
  148.9930  155.1550  132.8400 C   0  0  0  0  0  0  0  0  0  0  0  0
  149.9960  155.6140  132.2280 O   0  0  0  0  0  0  0  0  0  0  0  0
  148.8540  153.7420  133.0450 N   0  0  0  0  0  0  0  0  0  0  0  0
  149.8580  152.7760  132.6070 C   0  0  0  0  0  0  0  0  0  0  0  0
  149.4430  151.3530  133.0050 C   0  0  2  0  0  0  0  0  0  0  0  0
  148.0830  151.1580  132.7150 O   0  0  0  0  0  0  0  0  0  0  0  0
  149.7030  151.0950  134.4950 C   0  0  0  0  0  0  0  0  0  0  0  0
  148.8750  151.9070  135.2820 O   0  0  0  0  0  0  0  0  0  0  0  0
  147.1130  152.5400  134.0950 H   0  0  0  0  0  0  0  0  0  0  0  0
  145.4574  157.0827  135.2274 H   0  0  0  0  0  0  0  0  0  0  0  0
  145.6474  159.7081  134.1084 H   0  0  0  0  0  0  0  0  0  0  0  0
  146.9668  161.0995  132.4773 H   0  0  0  0  0  0  0  0  0  0  0  0
  148.7488  160.1093  129.9139 H   0  0  0  0  0  0  0  0  0  0  0  0
  149.4494  157.6399  131.5372 H   0  0  0  0  0  0  0  0  0  0  0  0
  148.0550  153.3960  133.6230 H   0  0  0  0  0  0  0  0  0  0  0  0
  149.9604  152.8308  131.5131 H   0  0  0  0  0  0  0  0  0  0  0  0
  150.8170  153.0154  133.0896 H   0  0  0  0  0  0  0  0  0  0  0  0
  150.0495  150.6415  132.4254 H   0  0  0  0  0  0  0  0  0  0  0  0
  147.5690  151.5470  133.4710 H   0  0  0  0  0  0  0  0  0  0  0  0
  149.4963  150.0386  134.7216 H   0  0  0  0  0  0  0  0  0  0  0  0
  150.7535  151.3308  134.7205 H   0  0  0  0  0  0  0  0  0  0  0  0
  148.1010  152.1500  134.7090 H   0  0  0  0  0  0  0  0  0  0  0  0
  1  2  1  0
  2  3  2  0
  2  4  1  0
  4  5  2  0
  5  6  1  0
  6  7  2  0
  7  8  1  0
  8  9  2  0
  9 10  1  0
 10 11  1  0
 10 12  1  0
  9 13  1  0
 13 14  2  0
 14 15  1  0
 15 16  1  0
 16 17  2  0
 16 18  1  0
 18 19  1  0
 19 20  1  0
 20 21  1  0
 20 22  1  0
 22 23  1  0
 15  4  1  0
 14  6  1  0
  1 24  1  0
  5 25  1  0
  7 26  1  0
  8 27  1  0
 10 28  1  0
 13 29  1  0
 18 30  1  0
 19 31  1  0
 19 32  1  0
 20 33  1  6
 21 34  1  0
 22 35  1  0
 22 36  1  0
 23 37  1  0
M  CHG  1   1  -1
M  END
>  <UniqueID>  (11) 
11

>  <SMILES>  (11) 
[NH-]C(=O)c1cc2ccc(C(F)F)cc2n1C(=O)NC[C@H](O)CO

>  <Energy>  (11) 
70.63541789455812

>  <Genealogy>  (11) 
[NH-]C(=O)c1cc2ccc(C(F)F)cc2n1C(=O)NCC(O)CO (protonated)
[NH-]C(=O)c1cc2ccc(C(F)F)cc2n1C(=O)NC[C@H](O)CO (chirality)
[NH-]C(=O)c1cc2ccc(C(F)F)cc2n1C(=O)NC[C@H](O)CO (3D coordinates assigned)
[NH-]C(=O)c1cc2ccc(C(F)F)cc2n1C(=O)NC[C@H](O)CO (optimized conformer: 70.63541789455812 kcal/mol)

>  <smiles>  (11) 
NC(=O)c1cc2ccc(C(F)F)cc2n1C(=O)NCC(O)CO

>  <score_type>  (11) 
oracle

>  <origin>  (11) 
adg

>  <m_score__min__energy>  (11) 
-5.7999999999999998

>  <m_primary>  (11) 
energy

$$$$
11:0
     RDKit          3D

 39 40  0  0  0  0  0  0  0  0999 V2000
  148.8700  157.8010  132.7110 C   0  0  0  0  0  0  0  0  0  0  0  0
  148.7850  159.0890  132.0150 N   0  0  0  0  0  0  0  0  0  0  0  0
  150.0040  159.6350  131.3960 C   0  0  0  0  0  0  0  0  0  0  0  0
  149.6930  160.1990  130.0100 C   0  0  0  0  0  0  0  0  0  0  0  0
  149.3670  161.5560  130.1200 O   0  0  0  0  0  0  0  0  0  0  0  0
  147.5330  159.8150  132.0530 C   0  0  0  0  0  0  0  0  0  0  0  0
  147.0780  160.3210  130.9910 O   0  0  0  0  0  0  0  0  0  0  0  0
  146.7350  160.0030  133.3200 C   0  0  0  0  0  0  0  0  0  0  0  0
  145.5550  159.0700  133.3780 C   0  0  0  0  0  0  0  0  0  0  0  0
  145.7110  157.6980  133.0560 C   0  0  0  0  0  0  0  0  0  0  0  0
  144.6160  156.8200  133.1080 C   0  0  0  0  0  0  0  0  0  0  0  0
  143.3810  157.3380  133.4880 C   0  0  0  0  0  0  0  0  0  0  0  0
  142.1680  156.7080  133.6400 C   0  0  0  0  0  0  0  0  0  0  0  0
  141.2830  157.7040  134.0480 C   0  0  0  0  0  0  0  0  0  0  0  0
  139.8320  157.4860  134.2430 C   0  0  0  0  0  0  0  0  0  0  0  0
  139.1060  158.2360  135.2170 N   0  0  0  0  0  0  0  0  0  0  0  0
  139.2280  156.6110  133.5690 O   0  0  0  0  0  0  0  0  0  0  0  0
  141.9260  158.9030  134.1470 N   0  0  0  0  0  0  0  0  0  0  0  0
  141.3800  160.1580  134.5880 C   0  0  0  0  0  0  0  0  0  0  0  0
  141.3930  161.1610  133.8260 O   0  0  0  0  0  0  0  0  0  0  0  0
  140.8180  160.2740  135.8530 O   0  0  0  0  0  0  0  0  0  0  0  0
  143.2100  158.6610  133.8010 C   0  0  0  0  0  0  0  0  0  0  0  0
  144.2880  159.5540  133.7780 C   0  0  0  0  0  0  0  0  0  0  0  0
  148.8588  157.9701  133.7979 H   0  0  0  0  0  0  0  0  0  0  0  0
  148.0113  157.1742  132.4286 H   0  0  0  0  0  0  0  0  0  0  0  0
  149.8036  157.2925  132.4286 H   0  0  0  0  0  0  0  0  0  0  0  0
  150.4047  160.4379  132.0321 H   0  0  0  0  0  0  0  0  0  0  0  0
  150.7440  158.8275  131.2940 H   0  0  0  0  0  0  0  0  0  0  0  0
  150.5744  160.0852  129.3617 H   0  0  0  0  0  0  0  0  0  0  0  0
  148.8437  159.6524  129.5742 H   0  0  0  0  0  0  0  0  0  0  0  0
  148.4020  161.6250  129.9030 H   0  0  0  0  0  0  0  0  0  0  0  0
  147.3869  159.8076  134.1842 H   0  0  0  0  0  0  0  0  0  0  0  0
  146.3569  161.0358  133.3372 H   0  0  0  0  0  0  0  0  0  0  0  0
  146.7003  157.3171  132.7623 H   0  0  0  0  0  0  0  0  0  0  0  0
  144.7308  155.7554  132.8561 H   0  0  0  0  0  0  0  0  0  0  0  0
  141.9440  155.6438  133.4746 H   0  0  0  0  0  0  0  0  0  0  0  0
  139.5580  159.0080  135.7560 H   0  0  0  0  0  0  0  0  0  0  0  0
  138.0910  158.0480  135.3740 H   0  0  0  0  0  0  0  0  0  0  0  0
  144.1525  160.6074  134.0644 H   0  0  0  0  0  0  0  0  0  0  0  0
  1  2  1  0
  2  3  1  0
  3  4  1  0
  4  5  1  0
  2  6  1  0
  6  7  2  0
  6  8  1  0
  8  9  1  0
  9 10  2  0
 10 11  1  0
 11 12  2  0
 12 13  1  0
 13 14  2  0
 14 15  1  0
 15 16  1  0
 15 17  2  0
 14 18  1  0
 18 19  1  0
 19 20  2  0
 19 21  1  0
 18 22  1  0
 22 23  2  0
 23  9  1  0
 22 12  1  0
  1 24  1  0
  1 25  1  0
  1 26  1  0
  3 27  1  0
  3 28  1  0
  4 29  1  0
  4 30  1  0
  5 31  1  0
  8 32  1  0
  8 33  1  0
 10 34  1  0
 11 35  1  0
 13 36  1  0
 16 37  1  0
 16 38  1  0
 23 39  1  0
M  CHG  1  21  -1
M  END
>  <UniqueID>  (12) 
12

>  <SMILES>  (12) 
CN(CCO)C(=O)Cc1ccc2cc(C(N)=O)n(C(=O)[O-])c2c1

>  <Energy>  (12) 
72.46878937978288

>  <Genealogy>  (12) 
CN(CCO)C(=O)Cc1ccc2cc(C(N)=O)n(C(=O)[O-])c2c1 (protonated)
CN(CCO)C(=O)Cc1ccc2cc(C(N)=O)n(C(=O)[O-])c2c1 (3D coordinates assigned)
CN(CCO)C(=O)Cc1ccc2cc(C(N)=O)n(C(=O)[O-])c2c1 (optimized conformer: 72.46878937978288 kcal/mol)

>  <smiles>  (12) 
CN(CCO)C(=O)Cc1ccc2cc(C(N)=O)n(C(=O)O)c2c1

>  <score_type>  (12) 
oracle

>  <origin>  (12) 
adg

>  <m_score__min__energy>  (12) 
-6.4900000000000002

>  <m_primary>  (12) 
energy

$$$$
12:0
     RDKit          3D

 45 48  0  0  0  0  0  0  0  0999 V2000
  145.9510  162.9740  134.8070 N   0  0  0  0  0  0  0  0  0  0  0  0
  144.9340  162.3110  134.0610 C   0  0  0  0  0  0  0  0  0  0  0  0
  144.0130  162.9910  133.5350 O   0  0  0  0  0  0  0  0  0  0  0  0
  144.9110  160.8390  133.9480 C   0  0  0  0  0  0  0  0  0  0  0  0
  146.0510  160.0700  133.7230 C   0  0  0  0  0  0  0  0  0  0  0  0
  145.5990  158.7780  133.5890 C   0  0  0  0  0  0  0  0  0  0  0  0
  146.3070  157.6030  133.3620 C   0  0  0  0  0  0  0  0  0  0  0  0
  145.5840  156.4000  133.2980 C   0  0  0  0  0  0  0  0  0  0  0  0
  144.1740  156.3860  133.4700 C   0  0  0  0  0  0  0  0  0  0  0  0
  143.4440  155.1420  133.4140 N   0  0  0  0  0  0  0  0  0  0  0  0
  144.1660  153.8590  133.4570 C   0  0  0  0  0  0  0  0  0  0  0  0
  143.3920  152.7780  132.6960 C   0  0  0  0  0  0  0  0  0  0  0  0
  141.9540  152.6110  133.2560 C   0  0  0  0  0  0  0  0  0  0  0  0
  141.3800  153.8820  133.9370 C   0  0  0  0  0  0  0  0  0  0  0  0
  141.9720  155.1550  133.3260 C   0  0  0  0  0  0  0  0  0  0  0  0
  141.7430  151.3410  134.0960 C   0  0  0  0  0  0  0  0  0  0  0  0
  140.8330  150.7490  133.1040 N   0  0  0  0  0  0  0  0  0  0  0  0
  141.3380  149.5350  132.5070 C   0  0  0  0  0  0  0  0  0  0  0  0
  140.6630  148.4690  132.5230 O   0  0  0  0  0  0  0  0  0  0  0  0
  142.5900  149.5350  131.9050 O   0  0  0  0  0  0  0  0  0  0  0  0
  140.9980  151.9390  132.2570 C   0  0  0  0  0  0  0  0  0  0  0  0
  143.4940  157.6060  133.7010 C   0  0  0  0  0  0  0  0  0  0  0  0
  144.2370  158.7910  133.7410 C   0  0  0  0  0  0  0  0  0  0  0  0
  143.7990  160.0510  133.9650 N   0  0  0  0  0  0  0  0  0  0  0  0
  142.4490  160.4450  134.2610 C   0  0  0  0  0  0  0  0  0  0  0  0
  141.8280  161.2230  133.4890 O   0  0  0  0  0  0  0  0  0  0  0  0
  141.8050  159.9470  135.3880 O   0  0  0  0  0  0  0  0  0  0  0  0
  146.9620  162.8160  134.5960 H   0  0  0  0  0  0  0  0  0  0  0  0
  147.0916  160.4217  133.6649 H   0  0  0  0  0  0  0  0  0  0  0  0
  147.3997  157.6149  133.2364 H   0  0  0  0  0  0  0  0  0  0  0  0
  146.1172  155.4560  133.1121 H   0  0  0  0  0  0  0  0  0  0  0  0
  145.1567  153.9862  132.9961 H   0  0  0  0  0  0  0  0  0  0  0  0
  144.2714  153.5468  134.5065 H   0  0  0  0  0  0  0  0  0  0  0  0
  143.3322  153.0608  131.6347 H   0  0  0  0  0  0  0  0  0  0  0  0
  143.9234  151.8224  132.8159 H   0  0  0  0  0  0  0  0  0  0  0  0
  140.2878  153.8963  133.8068 H   0  0  0  0  0  0  0  0  0  0  0  0
  141.6439  153.8536  135.0045 H   0  0  0  0  0  0  0  0  0  0  0  0
  141.6744  155.2199  132.2690 H   0  0  0  0  0  0  0  0  0  0  0  0
  141.5929  156.0236  133.8844 H   0  0  0  0  0  0  0  0  0  0  0  0
  142.6637  150.7586  134.2482 H   0  0  0  0  0  0  0  0  0  0  0  0
  141.4013  151.4427  135.1366 H   0  0  0  0  0  0  0  0  0  0  0  0
  139.8560  150.6520  133.4680 H   0  0  0  0  0  0  0  0  0  0  0  0
  141.4628  151.7227  131.2838 H   0  0  0  0  0  0  0  0  0  0  0  0
  140.1019  152.4861  131.9289 H   0  0  0  0  0  0  0  0  0  0  0  0
  142.4037  157.6221  133.8461 H   0  0  0  0  0  0  0  0  0  0  0  0
  1  2  1  0
  2  3  2  0
  2  4  1  0
  4  5  2  0
  5  6  1  0
  6  7  2  0
  7  8  1  0
  8  9  2  0
  9 10  1  0
 10 11  1  0
 11 12  1  0
 12 13  1  0
 13 14  1  0
 14 15  1  0
 13 16  1  0
 16 17  1  0
 17 18  1  0
 18 19  2  0
 18 20  1  0
 17 21  1  0
  9 22  1  0
 22 23  2  0
 23 24  1  0
 24 25  1  0
 25 26  2  0
 25 27  1  0
 24  4  1  0
 23  6  1  0
 15 10  1  0
 21 13  1  0
  1 28  1  0
  5 29  1  0
  7 30  1  0
  8 31  1  0
 11 32  1  0
 11 33  1  0
 12 34  1  0
 12 35  1  0
 14 36  1  0
 14 37  1  0
 15 38  1  0
 15 39  1  0
 16 40  1  0
 16 41  1  0
 17 42  1  0
 21 43  1  0
 21 44  1  0
 22 45  1  0
M  CHG  4   1  -1  17   1  20  -1  27  -1
M  END
>  <UniqueID>  (13) 
13

>  <SMILES>  (13) 
[NH-]C(=O)c1cc2ccc(N3CCC4(CC3)C[NH+](C(=O)[O-])C4)cc2n1C(=O)[O-]

>  <Energy>  (13) 
169.65556665662405

>  <Genealogy>  (13) 
[NH-]C(=O)c1cc2ccc(N3CCC4(CC3)C[NH+](C(=O)[O-])C4)cc2n1C(=O)[O-] (protonated)
[NH-]C(=O)c1cc2ccc(N3CCC4(CC3)C[NH+](C(=O)[O-])C4)cc2n1C(=O)[O-] (3D coordinates assigned)
[NH-]C(=O)c1cc2ccc(N3CCC4(CC3)C[NH+](C(=O)[O-])C4)cc2n1C(=O)[O-] (nonaromatic ring conformer: 169.65556665662405 kcal/mol)

>  <smiles>  (13) 
NC(=O)c1cc2ccc(N3CCC4(CC3)CN(C(=O)O)C4)cc2n1C(=O)O

>  <score_type>  (13) 
oracle

>  <origin>  (13) 
adg

>  <m_score__min__energy>  (13) 
-7.7400000000000002

>  <m_primary>  (13) 
energy

$$$$
13:0
     RDKit          3D

 35 36  0  0  0  0  0  0  0  0999 V2000
  138.2160  157.5690  133.5950 N   0  0  0  0  0  0  0  0  0  0  0  0
  139.2060  157.9530  134.5450 C   0  0  0  0  0  0  0  0  0  0  0  0
  138.8560  158.2180  135.7270 O   0  0  0  0  0  0  0  0  0  0  0  0
  140.6370  157.9870  134.1810 C   0  0  0  0  0  0  0  0  0  0  0  0
  141.4010  159.1520  134.1920 C   0  0  0  0  0  0  0  0  0  0  0  0
  142.6820  158.7500  133.8900 C   0  0  0  0  0  0  0  0  0  0  0  0
  143.8450  159.5000  133.7550 C   0  0  0  0  0  0  0  0  0  0  0  0
  145.0260  158.8270  133.4020 C   0  0  0  0  0  0  0  0  0  0  0  0
  145.0230  157.4240  133.1760 C   0  0  0  0  0  0  0  0  0  0  0  0
  146.2150  156.7220  132.7750 N   0  0  0  0  0  0  0  0  0  0  0  0
  147.4280  156.6280  133.5890 C   0  0  0  0  0  0  0  0  0  0  0  0
  148.2640  157.8630  133.4300 C   0  0  0  0  0  0  0  0  0  0  0  0
  148.4770  158.6020  134.4300 O   0  0  0  0  0  0  0  0  0  0  0  0
  148.8170  158.2000  132.1500 N   0  0  0  0  0  0  0  0  0  0  0  0
  149.3340  159.5330  131.8550 C   0  0  0  0  0  0  0  0  0  0  0  0
  149.5000  159.6990  130.3780 C   0  0  0  0  0  0  0  0  0  0  0  0
  149.2150  158.7530  129.5970 O   0  0  0  0  0  0  0  0  0  0  0  0
  150.0080  160.8850  129.8650 O   0  0  0  0  0  0  0  0  0  0  0  0
  143.8210  156.6990  133.3330 C   0  0  0  0  0  0  0  0  0  0  0  0
  142.6630  157.3930  133.7030 C   0  0  0  0  0  0  0  0  0  0  0  0
  141.4120  156.9080  133.8750 N   0  0  0  0  0  0  0  0  0  0  0  0
  140.9870  155.5520  133.6700 C   0  0  0  0  0  0  0  0  0  0  0  0
  141.5760  154.6040  134.2530 O   0  0  0  0  0  0  0  0  0  0  0  0
  139.9380  155.2700  132.8030 O   0  0  0  0  0  0  0  0  0  0  0  0
  138.3520  156.7350  132.9840 H   0  0  0  0  0  0  0  0  0  0  0  0
  141.0541  160.1753  134.3982 H   0  0  0  0  0  0  0  0  0  0  0  0
  143.8402  160.5876  133.9197 H   0  0  0  0  0  0  0  0  0  0  0  0
  145.9640  159.3923  133.2993 H   0  0  0  0  0  0  0  0  0  0  0  0
  146.2550  156.3190  131.8100 H   0  0  0  0  0  0  0  0  0  0  0  0
  147.1466  156.5150  134.6464 H   0  0  0  0  0  0  0  0  0  0  0  0
  148.0127  155.7573  133.2572 H   0  0  0  0  0  0  0  0  0  0  0  0
  148.7730  157.4990  131.3760 H   0  0  0  0  0  0  0  0  0  0  0  0
  148.6285  160.2891  132.2300 H   0  0  0  0  0  0  0  0  0  0  0  0
  150.3103  159.6597  132.3457 H   0  0  0  0  0  0  0  0  0  0  0  0
  143.7954  155.6118  133.1679 H   0  0  0  0  0  0  0  0  0  0  0  0
  1  2  1  0
  2  3  2  0
  2  4  1  0
  4  5  2  0
  5  6  1  0
  6  7  2  0
  7  8  1  0
  8  9  2  0
  9 10  1  0
 10 11  1  0
 11 12  1  0
 12 13  2  0
 12 14  1  0
 14 15  1  0
 15 16  1  0
 16 17  2  0
 16 18  1  0
  9 19  1  0
 19 20  2  0
 20 21  1  0
 21 22  1  0
 22 23  2  0
 22 24  1  0
 21  4  1  0
 20  6  1  0
  1 25  1  0
  5 26  1  0
  7 27  1  0
  8 28  1  0
 10 29  1  0
 11 30  1  0
 11 31  1  0
 14 32  1  0
 15 33  1  0
 15 34  1  0
 19 35  1  0
M  CHG  3   1  -1  18  -1  24  -1
M  END
>  <UniqueID>  (14) 
14

>  <SMILES>  (14) 
[NH-]C(=O)c1cc2ccc(NCC(=O)NCC(=O)[O-])cc2n1C(=O)[O-]

>  <Energy>  (14) 
69.95971230282808

>  <Genealogy>  (14) 
[NH-]C(=O)c1cc2ccc(NCC(=O)NCC(=O)[O-])cc2n1C(=O)[O-] (protonated)
[NH-]C(=O)c1cc2ccc(NCC(=O)NCC(=O)[O-])cc2n1C(=O)[O-] (3D coordinates assigned)
[NH-]C(=O)c1cc2ccc(NCC(=O)NCC(=O)[O-])cc2n1C(=O)[O-] (optimized conformer: 69.95971230282808 kcal/mol)

>  <smiles>  (14) 
NC(=O)c1cc2ccc(NCC(=O)NCC(=O)O)cc2n1C(=O)O

>  <score_type>  (14) 
oracle

>  <origin>  (14) 
adg

>  <m_score__min__energy>  (14) 
-6.7400000000000002

>  <m_primary>  (14) 
energy

$$$$
14:0
     RDKit          3D

 35 36  0  0  0  0  0  0  0  0999 V2000
  148.8240  161.2480  130.8670 C   0  0  0  0  0  0  0  0  0  0  0  0
  148.4560  160.2870  131.4940 C   0  0  0  0  0  0  0  0  0  0  0  0
  148.0170  159.1380  132.2420 C   0  0  0  0  0  0  0  0  0  0  0  0
  148.9370  158.1120  132.5600 C   0  0  0  0  0  0  0  0  0  0  0  0
  148.5180  156.9790  133.2790 C   0  0  0  0  0  0  0  0  0  0  0  0
  147.1820  156.9100  133.6680 C   0  0  0  0  0  0  0  0  0  0  0  0
  146.5060  155.9210  134.3440 C   0  0  0  0  0  0  0  0  0  0  0  0
  145.1930  156.3730  134.4450 C   0  0  0  0  0  0  0  0  0  0  0  0
  144.1370  155.6450  135.1780 C   0  0  0  0  0  0  0  0  0  0  0  0
  142.8930  156.2690  135.4850 N   0  0  0  0  0  0  0  0  0  0  0  0
  144.3540  154.4710  135.5830 O   0  0  0  0  0  0  0  0  0  0  0  0
  145.0590  157.5920  133.8490 N   0  0  0  0  0  0  0  0  0  0  0  0
  143.8520  158.3440  133.6530 C   0  0  0  0  0  0  0  0  0  0  0  0
  143.1700  158.1760  132.6060 O   0  0  0  0  0  0  0  0  0  0  0  0
  143.4290  159.2470  134.6360 O   0  0  0  0  0  0  0  0  0  0  0  0
  142.3050  160.1100  134.4800 C   0  0  0  0  0  0  0  0  0  0  0  0
  141.0100  159.4010  134.9130 C   0  0  1  0  0  0  0  0  0  0  0  0
  140.9180  158.1290  134.3200 O   0  0  0  0  0  0  0  0  0  0  0  0
  140.9220  159.2940  136.4420 C   0  0  0  0  0  0  0  0  0  0  0  0
  141.7860  158.2900  136.8960 O   0  0  0  0  0  0  0  0  0  0  0  0
  146.2850  157.9090  133.3800 C   0  0  0  0  0  0  0  0  0  0  0  0
  146.6720  159.0390  132.6490 C   0  0  0  0  0  0  0  0  0  0  0  0
  149.1599  162.1252  130.2947 H   0  0  0  0  0  0  0  0  0  0  0  0
  149.9865  158.2011  132.2429 H   0  0  0  0  0  0  0  0  0  0  0  0
  149.2232  156.1719  133.5268 H   0  0  0  0  0  0  0  0  0  0  0  0
  146.9159  154.9737  134.7242 H   0  0  0  0  0  0  0  0  0  0  0  0
  142.6960  157.2510  135.1870 H   0  0  0  0  0  0  0  0  0  0  0  0
  142.4499  161.0071  135.0998 H   0  0  0  0  0  0  0  0  0  0  0  0
  142.2178  160.3885  133.4194 H   0  0  0  0  0  0  0  0  0  0  0  0
  140.1602  160.0077  134.5668 H   0  0  0  0  0  0  0  0  0  0  0  0
  141.8310  157.7390  134.3020 H   0  0  0  0  0  0  0  0  0  0  0  0
  141.2097  160.2552  136.8928 H   0  0  0  0  0  0  0  0  0  0  0  0
  139.8903  159.0443  136.7306 H   0  0  0  0  0  0  0  0  0  0  0  0
  142.3080  157.9980  136.1020 H   0  0  0  0  0  0  0  0  0  0  0  0
  145.9462  159.8271  132.3996 H   0  0  0  0  0  0  0  0  0  0  0  0
  1  2  3  0
  2  3  1  0
  3  4  2  0
  4  5  1  0
  5  6  2  0
  6  7  1  0
  7  8  2  0
  8  9  1  0
  9 10  1  0
  9 11  2  0
  8 12  1  0
 12 13  1  0
 13 14  2  0
 13 15  1  0
 15 16  1  0
 16 17  1  0
 17 18  1  0
 17 19  1  0
 19 20  1  0
 12 21  1  0
 21 22  2  0
 22  3  1  0
 21  6  1  0
  1 23  1  0
  4 24  1  0
  5 25  1  0
  7 26  1  0
 10 27  1  0
 16 28  1  0
 16 29  1  0
 17 30  1  6
 18 31  1  0
 19 32  1  0
 19 33  1  0
 20 34  1  0
 22 35  1  0
M  CHG  1  10  -1
M  END
>  <UniqueID>  (15) 
15

>  <SMILES>  (15) 
C#Cc1ccc2cc(C([NH-])=O)n(C(=O)OC[C@@H](O)CO)c2c1

>  <Energy>  (15) 
68.0203614947901

>  <Genealogy>  (15) 
C#Cc1ccc2cc(C([NH-])=O)n(C(=O)OC[C@@H](O)CO)c2c1 (protonated)
C#Cc1ccc2cc(C([NH-])=O)n(C(=O)OC[C@@H](O)CO)c2c1 (3D coordinates assigned)
C#Cc1ccc2cc(C([NH-])=O)n(C(=O)OC[C@@H](O)CO)c2c1 (optimized conformer: 68.0203614947901 kcal/mol)

>  <smiles>  (15) 
C#Cc1ccc2cc(C(N)=O)n(C(=O)OC[C@@H](O)CO)c2c1

>  <score_type>  (15) 
oracle

>  <origin>  (15) 
adg

>  <m_score__min__energy>  (15) 
-6.1600000000000001

>  <m_primary>  (15) 
energy

$$$$
15:0
     RDKit          3D

 42 44  0  0  0  0  0  0  0  0999 V2000
  147.1530  153.5290  133.0430 C   0  0  0  0  0  0  0  0  0  0  0  0
  148.1890  154.5520  132.8540 N   0  0  0  0  0  0  0  0  0  0  0  0
  149.5720  154.1240  132.6060 C   0  0  0  0  0  0  0  0  0  0  0  0
  147.8530  155.9640  132.9120 C   0  0  0  0  0  0  0  0  0  0  0  0
  148.8290  156.9560  132.6060 C   0  0  0  0  0  0  0  0  0  0  0  0
  148.5130  158.3240  132.6530 C   0  0  0  0  0  0  0  0  0  0  0  0
  147.2210  158.6840  133.0120 C   0  0  0  0  0  0  0  0  0  0  0  0
  146.6440  159.9290  133.1240 C   0  0  0  0  0  0  0  0  0  0  0  0
  145.3270  159.6920  133.5150 C   0  0  0  0  0  0  0  0  0  0  0  0
  144.3610  160.7670  133.8290 C   0  0  0  0  0  0  0  0  0  0  0  0
  143.0060  160.6850  133.3960 N   0  0  0  0  0  0  0  0  0  0  0  0
  144.7290  161.7530  134.5200 O   0  0  0  0  0  0  0  0  0  0  0  0
  145.0990  158.3530  133.6270 N   0  0  0  0  0  0  0  0  0  0  0  0
  143.8670  157.6870  133.9420 C   0  0  0  0  0  0  0  0  0  0  0  0
  143.8070  156.9310  134.9490 O   0  0  0  0  0  0  0  0  0  0  0  0
  142.6850  157.8410  133.0840 C   0  0  0  0  0  0  0  0  0  0  0  0
  142.7260  157.4560  131.8840 O   0  0  0  0  0  0  0  0  0  0  0  0
  141.5040  158.3660  133.6240 O   0  0  0  0  0  0  0  0  0  0  0  0
  140.4320  158.7950  132.8580 N   0  0  0  0  0  0  0  0  0  0  0  0
  139.5380  157.8580  132.4290 C   0  0  0  0  0  0  0  0  0  0  0  0
  138.4200  158.2320  131.6790 C   0  0  0  0  0  0  0  0  0  0  0  0
  138.2110  159.5790  131.3880 C   0  0  0  0  0  0  0  0  0  0  0  0
  139.1130  160.5330  131.8560 C   0  0  0  0  0  0  0  0  0  0  0  0
  140.2200  160.1240  132.6030 C   0  0  0  0  0  0  0  0  0  0  0  0
  146.2680  157.7520  133.3230 C   0  0  0  0  0  0  0  0  0  0  0  0
  146.5470  156.3830  133.2750 C   0  0  0  0  0  0  0  0  0  0  0  0
  146.9893  153.3673  134.1187 H   0  0  0  0  0  0  0  0  0  0  0  0
  146.2157  153.8657  132.5760 H   0  0  0  0  0  0  0  0  0  0  0  0
  147.4778  152.5875  132.5760 H   0  0  0  0  0  0  0  0  0  0  0  0
  150.0845  153.9654  133.5663 H   0  0  0  0  0  0  0  0  0  0  0  0
  149.5681  153.1850  132.0330 H   0  0  0  0  0  0  0  0  0  0  0  0
  150.0991  154.9010  132.0330 H   0  0  0  0  0  0  0  0  0  0  0  0
  149.8470  156.6454  132.3283 H   0  0  0  0  0  0  0  0  0  0  0  0
  149.2672  159.0877  132.4124 H   0  0  0  0  0  0  0  0  0  0  0  0
  147.1208  160.9037  132.9433 H   0  0  0  0  0  0  0  0  0  0  0  0
  142.7040  159.9610  132.7070 H   0  0  0  0  0  0  0  0  0  0  0  0
  139.6988  156.7982  132.6759 H   0  0  0  0  0  0  0  0  0  0  0  0
  137.7113  157.4704  131.3215 H   0  0  0  0  0  0  0  0  0  0  0  0
  137.3391  159.8874  130.7924 H   0  0  0  0  0  0  0  0  0  0  0  0
  138.9543  161.5996  131.6387 H   0  0  0  0  0  0  0  0  0  0  0  0
  140.9261  160.8739  132.9890 H   0  0  0  0  0  0  0  0  0  0  0  0
  145.7681  155.6440  133.5143 H   0  0  0  0  0  0  0  0  0  0  0  0
  1  2  1  0
  2  3  1  0
  2  4  1  0
  4  5  2  0
  5  6  1  0
  6  7  2  0
  7  8  1  0
  8  9  2  0
  9 10  1  0
 10 11  1  0
 10 12  2  0
  9 13  1  0
 13 14  1  0
 14 15  2  0
 14 16  1  0
 16 17  2  0
 16 18  1  0
 18 19  1  0
 19 20  2  0
 20 21  1  0
 21 22  2  0
 22 23  1  0
 23 24  2  0
 13 25  1  0
 25 26  2  0
 26  4  1  0
 25  7  1  0
 24 19  1  0
  1 27  1  0
  1 28  1  0
  1 29  1  0
  3 30  1  0
  3 31  1  0
  3 32  1  0
  5 33  1  0
  6 34  1  0
  8 35  1  0
 11 36  1  0
 20 37  1  0
 21 38  1  0
 22 39  1  0
 23 40  1  0
 24 41  1  0
 26 42  1  0
M  CHG  2  11  -1  19   1
M  END
>  <UniqueID>  (16) 
16

>  <SMILES>  (16) 
CN(C)c1ccc2cc(C([NH-])=O)n(C(=O)C(=O)O[n+]3ccccc3)c2c1

>  <Energy>  (16) 
90.2076627469739

>  <Genealogy>  (16) 
CN(C)c1ccc2cc(C([NH-])=O)n(C(=O)C(=O)O[n+]3ccccc3)c2c1 (protonated)
CN(C)c1ccc2cc(C([NH-])=O)n(C(=O)C(=O)O[n+]3ccccc3)c2c1 (3D coordinates assigned)
CN(C)c1ccc2cc(C([NH-])=O)n(C(=O)C(=O)O[n+]3ccccc3)c2c1 (optimized conformer: 90.2076627469739 kcal/mol)

>  <smiles>  (16) 
CN(C)c1ccc2cc(C(N)=O)n(C(=O)C(=O)O[n+]3ccccc3)c2c1

>  <score_type>  (16) 
oracle

>  <origin>  (16) 
adg

>  <m_score__min__energy>  (16) 
-6.8499999999999996

>  <m_primary>  (16) 
energy

$$$$
16:0
     RDKit          3D

 43 46  0  0  0  0  0  0  0  0999 V2000
  149.8000  159.2370  131.6390 C   0  0  0  0  0  0  0  0  0  0  0  0
  148.6130  158.8730  132.4000 N   0  0  0  0  0  0  0  0  0  0  0  0
  147.3920  159.4200  132.2640 C   0  0  0  0  0  0  0  0  0  0  0  0
  146.5580  158.8520  133.2110 C   0  0  0  0  0  0  0  0  0  0  0  0
  145.1180  159.1330  133.4350 C   0  0  0  0  0  0  0  0  0  0  0  0
  144.6480  160.4710  133.5160 C   0  0  0  0  0  0  0  0  0  0  0  0
  143.2870  160.7450  133.7360 C   0  0  0  0  0  0  0  0  0  0  0  0
  142.4180  159.6690  133.8770 C   0  0  0  0  0  0  0  0  0  0  0  0
  141.0570  159.6470  134.0850 C   0  0  0  0  0  0  0  0  0  0  0  0
  140.7120  158.2970  134.1410 C   0  0  0  0  0  0  0  0  0  0  0  0
  139.3470  157.7890  134.4100 C   0  0  0  0  0  0  0  0  0  0  0  0
  138.7420  156.8200  133.5500 N   0  0  0  0  0  0  0  0  0  0  0  0
  138.6940  158.2220  135.3970 O   0  0  0  0  0  0  0  0  0  0  0  0
  141.8200  157.5190  133.9820 N   0  0  0  0  0  0  0  0  0  0  0  0
  141.8780  156.0840  133.9190 C   0  0  0  0  0  0  0  0  0  0  0  0
  141.2520  155.4850  133.0030 O   0  0  0  0  0  0  0  0  0  0  0  0
  142.6610  155.3030  134.9080 C   0  0  0  0  0  0  0  0  0  0  0  0
  142.0110  154.6240  135.9510 C   0  0  0  0  0  0  0  0  0  0  0  0
  142.7610  153.8850  136.8670 C   0  0  0  0  0  0  0  0  0  0  0  0
  144.1130  153.8240  136.7510 N   0  0  0  0  0  0  0  0  0  0  0  0
  144.7810  154.4740  135.7580 C   0  0  0  0  0  0  0  0  0  0  0  0
  146.2480  154.3680  135.6830 C   0  0  0  0  0  0  0  0  0  0  0  0
  146.9030  155.1710  134.9670 O   0  0  0  0  0  0  0  0  0  0  0  0
  146.9270  153.3870  136.3980 O   0  0  0  0  0  0  0  0  0  0  0  0
  144.0620  155.2320  134.8220 C   0  0  0  0  0  0  0  0  0  0  0  0
  142.8530  158.3720  133.8130 C   0  0  0  0  0  0  0  0  0  0  0  0
  144.1960  158.0670  133.5760 C   0  0  0  0  0  0  0  0  0  0  0  0
  147.3670  157.9620  133.9040 C   0  0  0  0  0  0  0  0  0  0  0  0
  148.6140  158.0020  133.3970 N   0  0  0  0  0  0  0  0  0  0  0  0
  150.6170  159.4875  132.3316 H   0  0  0  0  0  0  0  0  0  0  0  0
  150.1031  158.3905  131.0053 H   0  0  0  0  0  0  0  0  0  0  0  0
  149.5765  160.1079  131.0053 H   0  0  0  0  0  0  0  0  0  0  0  0
  147.1060  160.1858  131.5280 H   0  0  0  0  0  0  0  0  0  0  0  0
  145.3583  161.3035  133.4051 H   0  0  0  0  0  0  0  0  0  0  0  0
  142.9203  161.7804  133.7949 H   0  0  0  0  0  0  0  0  0  0  0  0
  140.3842  160.5114  134.1857 H   0  0  0  0  0  0  0  0  0  0  0  0
  137.7630  156.5030  133.7300 H   0  0  0  0  0  0  0  0  0  0  0  0
  139.2680  156.3820  132.7640 H   0  0  0  0  0  0  0  0  0  0  0  0
  140.9162  154.6743  136.0457 H   0  0  0  0  0  0  0  0  0  0  0  0
  142.2560  153.3505  137.6851 H   0  0  0  0  0  0  0  0  0  0  0  0
  144.5933  155.7695  134.0227 H   0  0  0  0  0  0  0  0  0  0  0  0
  144.5299  157.0216  133.5006 H   0  0  0  0  0  0  0  0  0  0  0  0
  147.0403  157.3233  134.7378 H   0  0  0  0  0  0  0  0  0  0  0  0
  1  2  1  0
  2  3  1  0
  3  4  2  0
  4  5  1  0
  5  6  2  0
  6  7  1  0
  7  8  2  0
  8  9  1  0
  9 10  2  0
 10 11  1  0
 11 12  1  0
 11 13  2  0
 10 14  1  0
 14 15  1  0
 15 16  2  0
 15 17  1  0
 17 18  2  0
 18 19  1  0
 19 20  2  0
 20 21  1  0
 21 22  1  0
 22 23  2  0
 22 24  1  0
 21 25  2  0
 14 26  1  0
 26 27  2  0
  4 28  1  0
 28 29  2  0
 29  2  1  0
 27  5  1  0
 26  8  1  0
 25 17  1  0
  1 30  1  0
  1 31  1  0
  1 32  1  0
  3 33  1  0
  6 34  1  0
  7 35  1  0
  9 36  1  0
 12 37  1  0
 12 38  1  0
 18 39  1  0
 19 40  1  0
 25 41  1  0
 27 42  1  0
 28 43  1  0
M  CHG  1  24  -1
M  END
>  <UniqueID>  (17) 
17

>  <SMILES>  (17) 
Cn1cc(-c2ccc3cc(C(N)=O)n(C(=O)c4ccnc(C(=O)[O-])c4)c3c2)cn1

>  <Energy>  (17) 
119.0169386513684

>  <Genealogy>  (17) 
Cn1cc(-c2ccc3cc(C(N)=O)n(C(=O)c4ccnc(C(=O)[O-])c4)c3c2)cn1 (protonated)
Cn1cc(-c2ccc3cc(C(N)=O)n(C(=O)c4ccnc(C(=O)[O-])c4)c3c2)cn1 (3D coordinates assigned)
Cn1cc(-c2ccc3cc(C(N)=O)n(C(=O)c4ccnc(C(=O)[O-])c4)c3c2)cn1 (optimized conformer: 119.0169386513684 kcal/mol)

>  <smiles>  (17) 
Cn1cc(-c2ccc3cc(C(N)=O)n(C(=O)c4ccnc(C(=O)O)c4)c3c2)cn1

>  <score_type>  (17) 
oracle

>  <origin>  (17) 
adg

>  <m_score__min__energy>  (17) 
-9.0999999999999996

>  <m_primary>  (17) 
energy

$$$$
17:0
     RDKit          3D

 49 50  0  0  0  0  0  0  0  0999 V2000
  138.0400  159.8850  130.8080 C   0  0  0  0  0  0  0  0  0  0  0  0
  138.3460  158.6810  131.6920 C   0  0  0  0  0  0  0  0  0  0  0  0
  139.7530  158.5530  131.8860 O   0  0  0  0  0  0  0  0  0  0  0  0
  140.3220  158.0090  133.0420 C   0  0  0  0  0  0  0  0  0  0  0  0
  141.5330  158.2170  133.3230 O   0  0  0  0  0  0  0  0  0  0  0  0
  139.4880  157.1530  133.9440 C   0  0  0  0  0  0  0  0  0  0  0  0
  139.2980  155.8250  133.3600 N   0  0  0  0  0  0  0  0  0  0  0  0
  140.3100  154.7970  133.3380 C   0  0  0  0  0  0  0  0  0  0  0  0
  141.6420  155.0530  133.7630 C   0  0  0  0  0  0  0  0  0  0  0  0
  142.6020  154.0270  133.7710 C   0  0  0  0  0  0  0  0  0  0  0  0
  142.2130  152.7650  133.3350 C   0  0  0  0  0  0  0  0  0  0  0  0
  142.9280  151.5910  133.2770 C   0  0  0  0  0  0  0  0  0  0  0  0
  142.0380  150.6430  132.7800 C   0  0  0  0  0  0  0  0  0  0  0  0
  142.4120  149.2420  132.5030 C   0  0  0  0  0  0  0  0  0  0  0  0
  141.5630  148.1590  132.8870 N   0  0  0  0  0  0  0  0  0  0  0  0
  143.4730  148.9990  131.8700 O   0  0  0  0  0  0  0  0  0  0  0  0
  140.8170  151.2040  132.5520 N   0  0  0  0  0  0  0  0  0  0  0  0
  139.6100  150.5390  132.1480 C   0  0  0  0  0  0  0  0  0  0  0  0
  138.5070  151.1420  132.2360 O   0  0  0  0  0  0  0  0  0  0  0  0
  139.6770  149.2260  131.6570 O   0  0  0  0  0  0  0  0  0  0  0  0
  139.1100  148.7470  130.4300 C   0  0  0  0  0  0  0  0  0  0  0  0
  139.9460  149.3400  129.2840 C   0  0  0  0  0  0  0  0  0  0  0  0
  137.6540  149.2280  130.2820 C   0  0  0  0  0  0  0  0  0  0  0  0
  139.1870  147.2100  130.3590 C   0  0  0  0  0  0  0  0  0  0  0  0
  140.9420  152.5060  132.8930 C   0  0  0  0  0  0  0  0  0  0  0  0
  139.9590  153.5030  132.8970 C   0  0  0  0  0  0  0  0  0  0  0  0
  137.8183  160.7573  131.4404 H   0  0  0  0  0  0  0  0  0  0  0  0
  138.9109  160.1044  130.1729 H   0  0  0  0  0  0  0  0  0  0  0  0
  137.1700  159.6619  130.1729 H   0  0  0  0  0  0  0  0  0  0  0  0
  137.8559  158.8136  132.6678 H   0  0  0  0  0  0  0  0  0  0  0  0
  137.9688  157.7719  131.2008 H   0  0  0  0  0  0  0  0  0  0  0  0
  139.9932  157.0520  134.9159 H   0  0  0  0  0  0  0  0  0  0  0  0
  138.5044  157.6277  134.0750 H   0  0  0  0  0  0  0  0  0  0  0  0
  138.3470  155.5960  132.9920 H   0  0  0  0  0  0  0  0  0  0  0  0
  141.9242  156.0649  134.0891 H   0  0  0  0  0  0  0  0  0  0  0  0
  143.6306  154.2163  134.1119 H   0  0  0  0  0  0  0  0  0  0  0  0
  143.9788  151.4348  133.5624 H   0  0  0  0  0  0  0  0  0  0  0  0
  141.8650  147.1730  132.7230 H   0  0  0  0  0  0  0  0  0  0  0  0
  140.6000  148.3310  133.2520 H   0  0  0  0  0  0  0  0  0  0  0  0
  140.7759  149.9287  129.7021 H   0  0  0  0  0  0  0  0  0  0  0  0
  140.3498  148.5252  128.6650 H   0  0  0  0  0  0  0  0  0  0  0  0
  139.3105  149.9904  128.6650 H   0  0  0  0  0  0  0  0  0  0  0  0
  137.2129  149.3737  131.2791 H   0  0  0  0  0  0  0  0  0  0  0  0
  137.6365  150.1797  129.7306 H   0  0  0  0  0  0  0  0  0  0  0  0
  137.0730  148.4740  129.7306 H   0  0  0  0  0  0  0  0  0  0  0  0
  139.2077  146.7965  131.3781 H   0  0  0  0  0  0  0  0  0  0  0  0
  138.3071  146.8231  129.8241 H   0  0  0  0  0  0  0  0  0  0  0  0
  140.1011  146.9130  129.8241 H   0  0  0  0  0  0  0  0  0  0  0  0
  138.9343  153.2824  132.5633 H   0  0  0  0  0  0  0  0  0  0  0  0
  1  2  1  0
  2  3  1  0
  3  4  1  0
  4  5  2  0
  4  6  1  0
  6  7  1  0
  7  8  1  0
  8  9  2  0
  9 10  1  0
 10 11  2  0
 11 12  1  0
 12 13  2  0
 13 14  1  0
 14 15  1  0
 14 16  2  0
 13 17  1  0
 17 18  1  0
 18 19  2  0
 18 20  1  0
 20 21  1  0
 21 22  1  0
 21 23  1  0
 21 24  1  0
 17 25  1  0
 25 26  2  0
 26  8  1  0
 25 11  1  0
  1 27  1  0
  1 28  1  0
  1 29  1  0
  2 30  1  0
  2 31  1  0
  6 32  1  0
  6 33  1  0
  7 34  1  0
  9 35  1  0
 10 36  1  0
 12 37  1  0
 15 38  1  0
 15 39  1  0
 22 40  1  0
 22 41  1  0
 22 42  1  0
 23 43  1  0
 23 44  1  0
 23 45  1  0
 24 46  1  0
 24 47  1  0
 24 48  1  0
 26 49  1  0
M  END
>  <UniqueID>  (18) 
18

>  <SMILES>  (18) 
CCOC(=O)CNc1ccc2cc(C(N)=O)n(C(=O)OC(C)(C)C)c2c1

>  <Energy>  (18) 
76.67565044429764

>  <Genealogy>  (18) 
CCOC(=O)CNc1ccc2cc(C(N)=O)n(C(=O)OC(C)(C)C)c2c1 (3D coordinates assigned)
CCOC(=O)CNc1ccc2cc(C(N)=O)n(C(=O)OC(C)(C)C)c2c1 (optimized conformer: 76.67565044429764 kcal/mol)

>  <smiles>  (18) 
CCOC(=O)CNc1ccc2cc(C(N)=O)n(C(=O)OC(C)(C)C)c2c1

>  <score_type>  (18) 
oracle

>  <origin>  (18) 
adg

>  <m_score__min__energy>  (18) 
-7.6100000000000003

>  <m_primary>  (18) 
energy

$$$$
18:0
     RDKit          3D

 37 39  0  0  0  0  0  0  0  0999 V2000
  149.9670  160.1370  130.7050 C   0  0  0  0  0  0  0  0  0  0  0  0
  148.9700  159.5440  131.5870 N   0  0  0  0  0  0  0  0  0  0  0  0
  147.7380  160.0290  131.8190 C   0  0  0  0  0  0  0  0  0  0  0  0
  147.1310  159.2270  132.7700 C   0  0  0  0  0  0  0  0  0  0  0  0
  145.7690  159.3720  133.3440 C   0  0  0  0  0  0  0  0  0  0  0  0
  145.1910  160.6580  133.5120 C   0  0  0  0  0  0  0  0  0  0  0  0
  143.9070  160.8050  134.0650 C   0  0  0  0  0  0  0  0  0  0  0  0
  143.2200  159.6550  134.4340 C   0  0  0  0  0  0  0  0  0  0  0  0
  141.9800  159.5140  135.0130 C   0  0  0  0  0  0  0  0  0  0  0  0
  141.8010  158.1420  135.1730 C   0  0  0  0  0  0  0  0  0  0  0  0
  140.5550  157.5370  135.6890 C   0  0  0  0  0  0  0  0  0  0  0  0
  140.6230  156.4840  136.6490 N   0  0  0  0  0  0  0  0  0  0  0  0
  139.4300  157.9650  135.3210 O   0  0  0  0  0  0  0  0  0  0  0  0
  142.8910  157.4620  134.7160 N   0  0  0  0  0  0  0  0  0  0  0  0
  143.1270  156.0460  134.7720 C   0  0  0  0  0  0  0  0  0  0  0  0
  142.1760  155.2400  134.5770 O   0  0  0  0  0  0  0  0  0  0  0  0
  144.4170  155.5660  135.0230 O   0  0  0  0  0  0  0  0  0  0  0  0
  144.6740  154.4720  135.8940 C   0  0  0  0  0  0  0  0  0  0  0  0
  146.1480  154.3270  136.0780 C   0  0  0  0  0  0  0  0  0  0  0  0
  146.6110  153.3520  136.7270 O   0  0  0  0  0  0  0  0  0  0  0  0
  147.0100  155.2950  135.5810 O   0  0  0  0  0  0  0  0  0  0  0  0
  143.7490  158.4040  134.2640 C   0  0  0  0  0  0  0  0  0  0  0  0
  145.0320  158.2270  133.7340 C   0  0  0  0  0  0  0  0  0  0  0  0
  148.0850  158.2660  133.0770 C   0  0  0  0  0  0  0  0  0  0  0  0
  149.1960  158.4870  132.3480 N   0  0  0  0  0  0  0  0  0  0  0  0
  150.7573  160.6071  131.3086 H   0  0  0  0  0  0  0  0  0  0  0  0
  150.4072  159.3538  130.0703 H   0  0  0  0  0  0  0  0  0  0  0  0
  149.4890  160.8977  130.0703 H   0  0  0  0  0  0  0  0  0  0  0  0
  147.2899  160.9103  131.3368 H   0  0  0  0  0  0  0  0  0  0  0  0
  145.7554  161.5510  133.2054 H   0  0  0  0  0  0  0  0  0  0  0  0
  143.4596  161.8006  134.2015 H   0  0  0  0  0  0  0  0  0  0  0  0
  141.2788  160.3148  135.2906 H   0  0  0  0  0  0  0  0  0  0  0  0
  141.1190  155.5920  136.4310 H   0  0  0  0  0  0  0  0  0  0  0  0
  144.1981  154.6577  136.8682 H   0  0  0  0  0  0  0  0  0  0  0  0
  144.2633  153.5489  135.4590 H   0  0  0  0  0  0  0  0  0  0  0  0
  145.4593  157.2195  133.6226 H   0  0  0  0  0  0  0  0  0  0  0  0
  147.9538  157.4503  133.8032 H   0  0  0  0  0  0  0  0  0  0  0  0
  1  2  1  0
  2  3  1  0
  3  4  2  0
  4  5  1  0
  5  6  2  0
  6  7  1  0
  7  8  2  0
  8  9  1  0
  9 10  2  0
 10 11  1  0
 11 12  1  0
 11 13  2  0
 10 14  1  0
 14 15  1  0
 15 16  2  0
 15 17  1  0
 17 18  1  0
 18 19  1  0
 19 20  2  0
 19 21  1  0
 14 22  1  0
 22 23  2  0
  4 24  1  0
 24 25  2  0
 25  2  1  0
 23  5  1  0
 22  8  1  0
  1 26  1  0
  1 27  1  0
  1 28  1  0
  3 29  1  0
  6 30  1  0
  7 31  1  0
  9 32  1  0
 12 33  1  0
 18 34  1  0
 18 35  1  0
 23 36  1  0
 24 37  1  0
M  CHG  2  12  -1  21  -1
M  END
>  <UniqueID>  (19) 
19

>  <SMILES>  (19) 
Cn1cc(-c2ccc3cc(C([NH-])=O)n(C(=O)OCC(=O)[O-])c3c2)cn1

>  <Energy>  (19) 
105.95287082251528

>  <Genealogy>  (19) 
Cn1cc(-c2ccc3cc(C([NH-])=O)n(C(=O)OCC(=O)[O-])c3c2)cn1 (protonated)
Cn1cc(-c2ccc3cc(C([NH-])=O)n(C(=O)OCC(=O)[O-])c3c2)cn1 (3D coordinates assigned)
Cn1cc(-c2ccc3cc(C([NH-])=O)n(C(=O)OCC(=O)[O-])c3c2)cn1 (optimized conformer: 105.95287082251528 kcal/mol)

>  <smiles>  (19) 
Cn1cc(-c2ccc3cc(C(N)=O)n(C(=O)OCC(=O)O)c3c2)cn1

>  <score_type>  (19) 
oracle

>  <origin>  (19) 
adg

>  <m_score__min__energy>  (19) 
-7.0700000000000003

>  <m_primary>  (19) 
energy

$$$$
19:0
     RDKit          3D

 34 35  0  0  0  0  0  0  0  0999 V2000
  147.2660  161.2080  132.9510 H   0  0  0  0  0  0  0  0  0  0  0  0
  146.5710  161.1560  133.7280 N   0  0  0  0  0  0  0  0  0  0  0  0
  145.5280  160.1840  133.7160 C   0  0  0  0  0  0  0  0  0  0  0  0
  144.3320  160.5630  133.8330 O   0  0  0  0  0  0  0  0  0  0  0  0
  145.8250  158.7480  133.5240 C   0  0  0  0  0  0  0  0  0  0  0  0
  144.8570  157.7490  133.5990 C   0  0  0  0  0  0  0  0  0  0  0  0
  143.7904  157.8705  133.8392 H   0  0  0  0  0  0  0  0  0  0  0  0
  145.5180  156.5790  133.3090 C   0  0  0  0  0  0  0  0  0  0  0  0
  145.0420  155.2720  133.2650 C   0  0  0  0  0  0  0  0  0  0  0  0
  143.9806  155.0484  133.4478 H   0  0  0  0  0  0  0  0  0  0  0  0
  145.9590  154.2480  132.9800 C   0  0  0  0  0  0  0  0  0  0  0  0
  145.6093  153.2063  132.9291 H   0  0  0  0  0  0  0  0  0  0  0  0
  147.3280  154.5360  132.7570 C   0  0  0  0  0  0  0  0  0  0  0  0
  148.2340  153.4500  132.4770 N   0  0  0  0  0  0  0  0  0  0  0  0
  148.4650  153.2390  131.4810 H   0  0  0  0  0  0  0  0  0  0  0  0
  148.8790  152.6260  133.5000 C   0  0  0  0  0  0  0  0  0  0  0  0
  149.5218  153.2633  134.1251 H   0  0  0  0  0  0  0  0  0  0  0  0
  148.1006  152.1507  134.1150 H   0  0  0  0  0  0  0  0  0  0  0  0
  149.7130  151.5570  132.8670 C   0  0  0  0  0  0  0  0  0  0  0  0
  150.3380  150.7330  133.5860 O   0  0  0  0  0  0  0  0  0  0  0  0
  149.7830  151.4550  131.4840 O   0  0  0  0  0  0  0  0  0  0  0  0
  147.7730  155.8800  132.8150 C   0  0  0  0  0  0  0  0  0  0  0  0
  148.8332  156.1285  132.6593 H   0  0  0  0  0  0  0  0  0  0  0  0
  146.8330  156.8850  133.0750 C   0  0  0  0  0  0  0  0  0  0  0  0
  147.0360  158.2180  133.1910 N   0  0  0  0  0  0  0  0  0  0  0  0
  148.3020  158.9030  133.1200 C   0  0  0  0  0  0  0  0  0  0  0  0
  148.5820  159.7660  133.9930 O   0  0  0  0  0  0  0  0  0  0  0  0
  149.3360  158.5540  132.1240 C   0  0  0  0  0  0  0  0  0  0  0  0
  149.9489  157.6643  132.3309 H   0  0  0  0  0  0  0  0  0  0  0  0
  149.5960  159.2230  130.9900 C   0  0  0  0  0  0  0  0  0  0  0  0
  150.2696  158.7421  130.2654 H   0  0  0  0  0  0  0  0  0  0  0  0
  149.0570  160.5450  130.6330 C   0  0  0  0  0  0  0  0  0  0  0  0
  149.8410  161.4440  130.2320 O   0  0  0  0  0  0  0  0  0  0  0  0
  147.7150  160.8500  130.8200 O   0  0  0  0  0  0  0  0  0  0  0  0
  1  2  1  0
  2  3  1  0
  3  4  2  0
  3  5  1  0
  5  6  2  0
  6  7  1  0
  6  8  1  0
  8  9  2  0
  9 10  1  0
  9 11  1  0
 11 12  1  0
 11 13  2  0
 13 14  1  0
 14 15  1  0
 14 16  1  0
 16 17  1  0
 16 18  1  0
 16 19  1  0
 19 20  2  0
 19 21  1  0
 13 22  1  0
 22 23  1  0
 22 24  2  0
 24 25  1  0
 25 26  1  0
 26 27  2  0
 26 28  1  0
 28 29  1  0
 28 30  2  0
 30 31  1  0
 30 32  1  0
 32 33  2  0
 32 34  1  0
 25  5  1  0
 24  8  1  0
M  CHG  3   2  -1  21  -1  34  -1
M  END
>  <UniqueID>  (20) 
20

>  <SMILES>  (20) 
[NH-]C(=O)c1cc2ccc(NCC(=O)[O-])cc2n1C(=O)/C=C\C(=O)[O-]

>  <Energy>  (20) 
77.82190211247436

>  <Genealogy>  (20) 
[NH-]C(=O)c1cc2ccc(NCC(=O)[O-])cc2n1C(=O)/C=C\C(=O)[O-] (protonated)
[NH-]C(=O)c1cc2ccc(NCC(=O)[O-])cc2n1C(=O)/C=C\C(=O)[O-] (cis-trans isomerization)
[NH-]C(=O)c1cc2ccc(NCC(=O)[O-])cc2n1C(=O)/C=C\C(=O)[O-] (3D coordinates assigned)
[NH-]C(=O)c1cc2ccc(NCC(=O)[O-])cc2n1C(=O)/C=C\C(=O)[O-] (optimized conformer: 77.82190211247436 kcal/mol)

>  <smiles>  (20) 
NC(=O)c1cc2ccc(NCC(=O)O)cc2n1C(=O)/C=C\C(=O)O

>  <score_type>  (20) 
oracle

>  <origin>  (20) 
adg

>  <m_score__min__energy>  (20) 
-6.6399999999999997

>  <m_primary>  (20) 
energy

$$$$
20:0
     RDKit          3D

 43 44  0  0  0  0  0  0  0  0999 V2000
  139.4970  151.0960  132.2270 C   0  0  0  0  0  0  0  0  0  0  0  0
  140.6410  150.3390  131.5400 C   0  0  0  0  0  0  0  0  0  0  0  0
  140.2780  148.8720  131.2800 C   0  0  0  0  0  0  0  0  0  0  0  0
  141.9030  150.4550  132.3050 N   0  0  0  0  0  0  0  0  0  0  0  0
  142.9000  149.3800  132.2030 C   0  0  0  0  0  0  0  0  0  0  0  0
  142.1780  151.6000  133.1550 C   0  0  0  0  0  0  0  0  0  0  0  0
  141.7170  151.6490  134.3260 O   0  0  0  0  0  0  0  0  0  0  0  0
  143.0530  152.7360  132.6940 C   0  0  0  0  0  0  0  0  0  0  0  0
  143.7460  153.3480  133.8290 N   0  0  0  0  0  0  0  0  0  0  0  0
  144.9030  154.1940  133.6860 C   0  0  0  0  0  0  0  0  0  0  0  0
  146.2190  153.6570  133.6560 C   0  0  0  0  0  0  0  0  0  0  0  0
  147.3350  154.5000  133.5290 C   0  0  0  0  0  0  0  0  0  0  0  0
  147.1120  155.8690  133.4270 C   0  0  0  0  0  0  0  0  0  0  0  0
  148.0110  156.9050  133.3210 C   0  0  0  0  0  0  0  0  0  0  0  0
  147.2360  158.0620  133.2620 C   0  0  0  0  0  0  0  0  0  0  0  0
  147.7940  159.4160  133.0530 C   0  0  0  0  0  0  0  0  0  0  0  0
  146.9620  160.4850  132.5970 N   0  0  0  0  0  0  0  0  0  0  0  0
  149.0050  159.6490  133.3070 O   0  0  0  0  0  0  0  0  0  0  0  0
  145.9100  157.7520  133.3310 N   0  0  0  0  0  0  0  0  0  0  0  0
  144.7960  158.6620  133.3610 C   0  0  0  0  0  0  0  0  0  0  0  0
  143.7530  158.4140  132.7020 O   0  0  0  0  0  0  0  0  0  0  0  0
  144.8660  159.8330  134.1080 O   0  0  0  0  0  0  0  0  0  0  0  0
  145.8510  156.4050  133.4330 C   0  0  0  0  0  0  0  0  0  0  0  0
  144.7210  155.5910  133.5760 C   0  0  0  0  0  0  0  0  0  0  0  0
  139.6109  151.0206  133.3185 H   0  0  0  0  0  0  0  0  0  0  0  0
  139.5256  152.1541  131.9275 H   0  0  0  0  0  0  0  0  0  0  0  0
  138.5343  150.6560  131.9275 H   0  0  0  0  0  0  0  0  0  0  0  0
  140.8010  150.8132  130.5605 H   0  0  0  0  0  0  0  0  0  0  0  0
  140.1490  148.3505  132.2399 H   0  0  0  0  0  0  0  0  0  0  0  0
  139.3405  148.8223  130.7068 H   0  0  0  0  0  0  0  0  0  0  0  0
  141.0842  148.3908  130.7068 H   0  0  0  0  0  0  0  0  0  0  0  0
  143.1977  149.0590  133.2121 H   0  0  0  0  0  0  0  0  0  0  0  0
  142.4657  148.5274  131.6603 H   0  0  0  0  0  0  0  0  0  0  0  0
  143.7828  149.7489  131.6603 H   0  0  0  0  0  0  0  0  0  0  0  0
  143.7972  152.3522  131.9807 H   0  0  0  0  0  0  0  0  0  0  0  0
  142.4209  153.4970  132.2131 H   0  0  0  0  0  0  0  0  0  0  0  0
  143.3930  153.1580  134.7950 H   0  0  0  0  0  0  0  0  0  0  0  0
  146.3647  152.5694  133.7331 H   0  0  0  0  0  0  0  0  0  0  0  0
  148.3554  154.0896  133.5107 H   0  0  0  0  0  0  0  0  0  0  0  0
  149.1083  156.8351  133.2895 H   0  0  0  0  0  0  0  0  0  0  0  0
  145.9680  160.3210  132.3250 H   0  0  0  0  0  0  0  0  0  0  0  0
  147.3560  161.4470  132.4910 H   0  0  0  0  0  0  0  0  0  0  0  0
  143.7126  156.0297  133.6022 H   0  0  0  0  0  0  0  0  0  0  0  0
  1  2  1  0
  2  3  1  0
  2  4  1  0
  4  5  1  0
  4  6  1  0
  6  7  2  0
  6  8  1  0
  8  9  1  0
  9 10  1  0
 10 11  2  0
 11 12  1  0
 12 13  2  0
 13 14  1  0
 14 15  2  0
 15 16  1  0
 16 17  1  0
 16 18  2  0
 15 19  1  0
 19 20  1  0
 20 21  2  0
 20 22  1  0
 19 23  1  0
 23 24  2  0
 24 10  1  0
 23 13  1  0
  1 25  1  0
  1 26  1  0
  1 27  1  0
  2 28  1  0
  3 29  1  0
  3 30  1  0
  3 31  1  0
  5 32  1  0
  5 33  1  0
  5 34  1  0
  8 35  1  0
  8 36  1  0
  9 37  1  0
 11 38  1  0
 12 39  1  0
 14 40  1  0
 17 41  1  0
 17 42  1  0
 24 43  1  0
M  CHG  1  22  -1
M  END
>  <UniqueID>  (21) 
21

>  <SMILES>  (21) 
CC(C)N(C)C(=O)CNc1ccc2cc(C(N)=O)n(C(=O)[O-])c2c1

>  <Energy>  (21) 
77.47026239560975

>  <Genealogy>  (21) 
CC(C)N(C)C(=O)CNc1ccc2cc(C(N)=O)n(C(=O)[O-])c2c1 (protonated)
CC(C)N(C)C(=O)CNc1ccc2cc(C(N)=O)n(C(=O)[O-])c2c1 (3D coordinates assigned)
CC(C)N(C)C(=O)CNc1ccc2cc(C(N)=O)n(C(=O)[O-])c2c1 (optimized conformer: 77.47026239560975 kcal/mol)

>  <smiles>  (21) 
CC(C)N(C)C(=O)CNc1ccc2cc(C(N)=O)n(C(=O)O)c2c1

>  <score_type>  (21) 
oracle

>  <origin>  (21) 
adg

>  <m_score__min__energy>  (21) 
-7.2000000000000002

>  <m_primary>  (21) 
energy

$$$$
21:0
     RDKit          3D

 33 34  0  0  0  0  0  0  0  0999 V2000
  138.2710  157.0180  132.6390 H   0  0  0  0  0  0  0  0  0  0  0  0
  139.1600  156.6590  133.0520 N   0  0  0  0  0  0  0  0  0  0  0  0
  139.8080  157.3530  134.1150 C   0  0  0  0  0  0  0  0  0  0  0  0
  139.1330  157.7260  135.1100 O   0  0  0  0  0  0  0  0  0  0  0  0
  141.2510  157.6590  134.0220 C   0  0  0  0  0  0  0  0  0  0  0  0
  142.2550  156.7220  134.2610 C   0  0  0  0  0  0  0  0  0  0  0  0
  142.1307  155.6833  134.6010 H   0  0  0  0  0  0  0  0  0  0  0  0
  143.4350  157.3730  133.9810 C   0  0  0  0  0  0  0  0  0  0  0  0
  144.7490  156.9200  134.0580 C   0  0  0  0  0  0  0  0  0  0  0  0
  144.9765  155.8887  134.3658 H   0  0  0  0  0  0  0  0  0  0  0  0
  145.7760  157.8220  133.7300 C   0  0  0  0  0  0  0  0  0  0  0  0
  146.8250  157.4952  133.7834 H   0  0  0  0  0  0  0  0  0  0  0  0
  145.4740  159.1490  133.3310 C   0  0  0  0  0  0  0  0  0  0  0  0
  146.5820  160.1140  133.0220 C   0  0  0  0  0  0  0  0  0  0  0  0
  146.4794  161.0037  133.6606 H   0  0  0  0  0  0  0  0  0  0  0  0
  146.5221  160.4070  131.9634 H   0  0  0  0  0  0  0  0  0  0  0  0
  147.8810  159.4810  133.2750 C   0  0  0  0  0  0  0  0  0  0  0  0
  148.9060  158.9820  133.4750 N   0  0  0  0  0  0  0  0  0  0  0  0
  144.1280  159.5740  133.2760 C   0  0  0  0  0  0  0  0  0  0  0  0
  143.8738  160.6049  132.9885 H   0  0  0  0  0  0  0  0  0  0  0  0
  143.1270  158.6520  133.5960 C   0  0  0  0  0  0  0  0  0  0  0  0
  141.7910  158.8450  133.6220 N   0  0  0  0  0  0  0  0  0  0  0  0
  141.1110  160.0770  133.3380 C   0  0  0  0  0  0  0  0  0  0  0  0
  141.5940  161.1640  133.7580 O   0  0  0  0  0  0  0  0  0  0  0  0
  139.8320  160.0640  132.6030 C   0  0  0  0  0  0  0  0  0  0  0  0
  138.9901  160.6536  132.9948 H   0  0  0  0  0  0  0  0  0  0  0  0
  139.6580  159.3620  131.4780 C   0  0  0  0  0  0  0  0  0  0  0  0
  140.4934  158.7687  131.0778 H   0  0  0  0  0  0  0  0  0  0  0  0
  138.3470  159.3680  130.7520 C   0  0  0  0  0  0  0  0  0  0  0  0
  138.0115  160.4070  130.6185 H   0  0  0  0  0  0  0  0  0  0  0  0
  138.4794  158.8845  129.7729 H   0  0  0  0  0  0  0  0  0  0  0  0
  137.3810  158.6610  131.4810 O   0  0  0  0  0  0  0  0  0  0  0  0
  137.8290  157.8500  131.8400 H   0  0  0  0  0  0  0  0  0  0  0  0
  1  2  1  0
  2  3  1  0
  3  4  2  0
  3  5  1  0
  5  6  2  0
  6  7  1  0
  6  8  1  0
  8  9  2  0
  9 10  1  0
  9 11  1  0
 11 12  1  0
 11 13  2  0
 13 14  1  0
 14 15  1  0
 14 16  1  0
 14 17  1  0
 17 18  3  0
 13 19  1  0
 19 20  1  0
 19 21  2  0
 21 22  1  0
 22 23  1  0
 23 24  2  0
 23 25  1  0
 25 26  1  0
 25 27  2  0
 27 28  1  0
 27 29  1  0
 29 30  1  0
 29 31  1  0
 29 32  1  0
 32 33  1  0
 22  5  1  0
 21  8  1  0
M  CHG  1   2  -1
M  END
>  <UniqueID>  (22) 
22

>  <SMILES>  (22) 
N#CCc1ccc2cc(C([NH-])=O)n(C(=O)/C=C/CO)c2c1

>  <Energy>  (22) 
67.62973823191733

>  <Genealogy>  (22) 
N#CCc1ccc2cc(C([NH-])=O)n(C(=O)/C=C/CO)c2c1 (protonated)
N#CCc1ccc2cc(C([NH-])=O)n(C(=O)/C=C/CO)c2c1 (cis-trans isomerization)
N#CCc1ccc2cc(C([NH-])=O)n(C(=O)/C=C/CO)c2c1 (3D coordinates assigned)
N#CCc1ccc2cc(C([NH-])=O)n(C(=O)/C=C/CO)c2c1 (optimized conformer: 67.62973823191733 kcal/mol)

>  <smiles>  (22) 
N#CCc1ccc2cc(C(N)=O)n(C(=O)/C=C/CO)c2c1

>  <score_type>  (22) 
oracle

>  <origin>  (22) 
adg

>  <m_score__min__energy>  (22) 
-7.1500000000000004

>  <m_primary>  (22) 
energy

$$$$
22:0
     RDKit          3D

 46 47  0  0  0  0  0  0  0  0999 V2000
  140.5810  152.3150  132.8950 C   0  0  0  0  0  0  0  0  0  0  0  0
  141.6820  153.1890  133.3090 N   0  0  0  0  0  0  0  0  0  0  0  0
  142.9650  152.6270  133.7420 C   0  0  0  0  0  0  0  0  0  0  0  0
  141.4980  154.6140  133.2790 C   0  0  0  0  0  0  0  0  0  0  0  0
  142.4410  155.3810  133.6190 O   0  0  0  0  0  0  0  0  0  0  0  0
  140.2640  155.1460  132.8800 O   0  0  0  0  0  0  0  0  0  0  0  0
  139.5250  156.1000  133.6440 C   0  0  0  0  0  0  0  0  0  0  0  0
  139.8880  157.5490  133.2390 C   0  0  2  0  0  0  0  0  0  0  0  0
  138.6350  158.2600  132.6810 C   0  0  0  0  0  0  0  0  0  0  0  0
  140.8670  157.4860  132.2300 O   0  0  0  0  0  0  0  0  0  0  0  0
  140.4810  158.3240  134.4530 C   0  0  0  0  0  0  0  0  0  0  0  0
  141.8360  158.9440  134.2000 C   0  0  0  0  0  0  0  0  0  0  0  0
  141.9530  160.3430  133.9990 C   0  0  0  0  0  0  0  0  0  0  0  0
  143.2030  160.9280  133.7400 C   0  0  0  0  0  0  0  0  0  0  0  0
  144.3170  160.0950  133.6990 C   0  0  0  0  0  0  0  0  0  0  0  0
  145.6350  160.3940  133.4450 C   0  0  0  0  0  0  0  0  0  0  0  0
  146.3130  159.1790  133.5220 C   0  0  0  0  0  0  0  0  0  0  0  0
  147.7810  159.0460  133.4050 C   0  0  0  0  0  0  0  0  0  0  0  0
  148.4730  157.9880  134.0700 N   0  0  0  0  0  0  0  0  0  0  0  0
  148.4340  159.8490  132.6870 O   0  0  0  0  0  0  0  0  0  0  0  0
  145.4470  158.1660  133.8110 N   0  0  0  0  0  0  0  0  0  0  0  0
  145.7430  156.7620  133.9020 C   0  0  0  0  0  0  0  0  0  0  0  0
  145.3090  155.9620  133.0320 O   0  0  0  0  0  0  0  0  0  0  0  0
  146.5250  156.2760  134.9420 O   0  0  0  0  0  0  0  0  0  0  0  0
  144.2280  158.7440  133.9160 C   0  0  0  0  0  0  0  0  0  0  0  0
  142.9920  158.1320  134.1600 C   0  0  0  0  0  0  0  0  0  0  0  0
  140.0760  151.9142  133.7863 H   0  0  0  0  0  0  0  0  0  0  0  0
  139.8618  152.8909  132.2940 H   0  0  0  0  0  0  0  0  0  0  0  0
  140.9787  151.4839  132.2940 H   0  0  0  0  0  0  0  0  0  0  0  0
  143.0053  152.6093  134.8411 H   0  0  0  0  0  0  0  0  0  0  0  0
  143.0658  151.6023  133.3549 H   0  0  0  0  0  0  0  0  0  0  0  0
  143.7865  153.2477  133.3549 H   0  0  0  0  0  0  0  0  0  0  0  0
  138.4501  155.9394  133.4744 H   0  0  0  0  0  0  0  0  0  0  0  0
  139.7766  155.9635  134.7061 H   0  0  0  0  0  0  0  0  0  0  0  0
  138.0118  158.6136  133.5157 H   0  0  0  0  0  0  0  0  0  0  0  0
  138.9438  159.1175  132.0650 H   0  0  0  0  0  0  0  0  0  0  0  0
  138.0573  157.5552  132.0650 H   0  0  0  0  0  0  0  0  0  0  0  0
  141.2770  156.5810  132.2520 H   0  0  0  0  0  0  0  0  0  0  0  0
  139.7804  159.1280  134.7227 H   0  0  0  0  0  0  0  0  0  0  0  0
  140.6199  157.5864  135.2572 H   0  0  0  0  0  0  0  0  0  0  0  0
  141.0550  160.9766  134.0465 H   0  0  0  0  0  0  0  0  0  0  0  0
  143.2987  162.0113  133.5746 H   0  0  0  0  0  0  0  0  0  0  0  0
  146.0636  161.3834  133.2271 H   0  0  0  0  0  0  0  0  0  0  0  0
  149.5050  157.8790  133.9490 H   0  0  0  0  0  0  0  0  0  0  0  0
  147.9760  157.3340  134.7150 H   0  0  0  0  0  0  0  0  0  0  0  0
  142.9227  157.0454  134.3167 H   0  0  0  0  0  0  0  0  0  0  0  0
  1  2  1  0
  2  3  1  0
  2  4  1  0
  4  5  2  0
  4  6  1  0
  6  7  1  0
  7  8  1  0
  8  9  1  0
  8 10  1  6
  8 11  1  0
 11 12  1  0
 12 13  2  0
 13 14  1  0
 14 15  2  0
 15 16  1  0
 16 17  2  0
 17 18  1  0
 18 19  1  0
 18 20  2  0
 17 21  1  0
 21 22  1  0
 22 23  2  0
 22 24  1  0
 21 25  1  0
 25 26  2  0
 26 12  1  0
 25 15  1  0
  1 27  1  0
  1 28  1  0
  1 29  1  0
  3 30  1  0
  3 31  1  0
  3 32  1  0
  7 33  1  0
  7 34  1  0
  9 35  1  0
  9 36  1  0
  9 37  1  0
 10 38  1  0
 11 39  1  0
 11 40  1  0
 13 41  1  0
 14 42  1  0
 16 43  1  0
 19 44  1  0
 19 45  1  0
 26 46  1  0
M  CHG  1  24  -1
M  END
>  <UniqueID>  (23) 
23

>  <SMILES>  (23) 
CN(C)C(=O)OC[C@](C)(O)Cc1ccc2cc(C(N)=O)n(C(=O)[O-])c2c1

>  <Energy>  (23) 
78.549379477847

>  <Genealogy>  (23) 
CN(C)C(=O)OCC(C)(O)Cc1ccc2cc(C(N)=O)n(C(=O)[O-])c2c1 (protonated)
CN(C)C(=O)OC[C@](C)(O)Cc1ccc2cc(C(N)=O)n(C(=O)[O-])c2c1 (chirality)
CN(C)C(=O)OC[C@](C)(O)Cc1ccc2cc(C(N)=O)n(C(=O)[O-])c2c1 (3D coordinates assigned)
CN(C)C(=O)OC[C@](C)(O)Cc1ccc2cc(C(N)=O)n(C(=O)[O-])c2c1 (optimized conformer: 78.549379477847 kcal/mol)

>  <smiles>  (23) 
CN(C)C(=O)OCC(C)(O)Cc1ccc2cc(C(N)=O)n(C(=O)O)c2c1

>  <score_type>  (23) 
oracle

>  <origin>  (23) 
adg

>  <m_score__min__energy>  (23) 
-7

>  <m_primary>  (23) 
energy

$$$$
24:0
     RDKit          3D

 44 45  0  0  0  0  0  0  0  0999 V2000
  142.5930  160.0860  133.6320 H   0  0  0  0  0  0  0  0  0  0  0  0
  142.9600  161.0600  133.7250 N   0  0  0  0  0  0  0  0  0  0  0  0
  144.3620  161.3120  133.7910 C   0  0  0  0  0  0  0  0  0  0  0  0
  144.7670  162.4660  134.0950 O   0  0  0  0  0  0  0  0  0  0  0  0
  145.3410  160.2310  133.5550 C   0  0  0  0  0  0  0  0  0  0  0  0
  146.6960  160.4570  133.3280 C   0  0  0  0  0  0  0  0  0  0  0  0
  147.2070  161.4285  133.2565 H   0  0  0  0  0  0  0  0  0  0  0  0
  147.2610  159.2060  133.2120 C   0  0  0  0  0  0  0  0  0  0  0  0
  148.5780  158.8370  132.9550 C   0  0  0  0  0  0  0  0  0  0  0  0
  149.3676  159.5947  132.8430 H   0  0  0  0  0  0  0  0  0  0  0  0
  148.8680  157.4670  132.8430 C   0  0  0  0  0  0  0  0  0  0  0  0
  149.9004  157.1411  132.6483 H   0  0  0  0  0  0  0  0  0  0  0  0
  147.8410  156.5040  132.9790 C   0  0  0  0  0  0  0  0  0  0  0  0
  148.1480  155.1050  132.8460 C   0  0  0  0  0  0  0  0  0  0  0  0
  148.4040  153.9330  132.7350 C   0  0  0  0  0  0  0  0  0  0  0  0
  148.7160  152.5060  132.5990 C   0  0  0  0  0  0  0  0  0  0  0  0
  149.6702  152.3910  132.0640 H   0  0  0  0  0  0  0  0  0  0  0  0
  148.7931  152.0561  133.5998 H   0  0  0  0  0  0  0  0  0  0  0  0
  147.7020  151.8610  131.8820 O   0  0  0  0  0  0  0  0  0  0  0  0
  147.1300  152.5720  131.4920 H   0  0  0  0  0  0  0  0  0  0  0  0
  146.5170  156.9100  133.2370 C   0  0  0  0  0  0  0  0  0  0  0  0
  145.7080  156.1713  133.3367 H   0  0  0  0  0  0  0  0  0  0  0  0
  146.2600  158.2810  133.3630 C   0  0  0  0  0  0  0  0  0  0  0  0
  145.0760  158.8940  133.5760 N   0  0  0  0  0  0  0  0  0  0  0  0
  143.7940  158.2560  133.6560 C   0  0  0  0  0  0  0  0  0  0  0  0
  143.2260  157.8490  132.6050 O   0  0  0  0  0  0  0  0  0  0  0  0
  143.1650  158.1270  134.8990 O   0  0  0  0  0  0  0  0  0  0  0  0
  141.8790  158.6700  135.1930 C   0  0  0  0  0  0  0  0  0  0  0  0
  141.7207  159.5689  134.5791 H   0  0  0  0  0  0  0  0  0  0  0  0
  141.8438  158.9190  136.2639 H   0  0  0  0  0  0  0  0  0  0  0  0
  140.7870  157.6780  134.9000 C   0  0  0  0  0  0  0  0  0  0  0  0
  140.7120  156.8000  135.5583 H   0  0  0  0  0  0  0  0  0  0  0  0
  139.8970  157.7770  133.9010 C   0  0  0  0  0  0  0  0  0  0  0  0
  139.1681  156.9595  133.7985 H   0  0  0  0  0  0  0  0  0  0  0  0
  139.8060  158.8830  132.9260 C   0  0  0  0  0  0  0  0  0  0  0  0
  140.8730  159.4180  132.5200 O   0  0  0  0  0  0  0  0  0  0  0  0
  138.5710  159.3220  132.4350 O   0  0  0  0  0  0  0  0  0  0  0  0
  138.2010  159.2480  131.0610 C   0  0  0  0  0  0  0  0  0  0  0  0
  137.1050  159.1954  130.9834 H   0  0  0  0  0  0  0  0  0  0  0  0
  138.6557  158.3498  130.6177 H   0  0  0  0  0  0  0  0  0  0  0  0
  138.6990  160.4760  130.3080 C   0  0  0  0  0  0  0  0  0  0  0  0
  139.0114  161.2462  131.0285 H   0  0  0  0  0  0  0  0  0  0  0  0
  139.5548  160.1965  129.6760 H   0  0  0  0  0  0  0  0  0  0  0  0
  137.8902  160.8715  129.6760 H   0  0  0  0  0  0  0  0  0  0  0  0
  1  2  1  0
  2  3  1  0
  3  4  2  0
  3  5  1  0
  5  6  2  0
  6  7  1  0
  6  8  1  0
  8  9  2  0
  9 10  1  0
  9 11  1  0
 11 12  1  0
 11 13  2  0
 13 14  1  0
 14 15  3  0
 15 16  1  0
 16 17  1  0
 16 18  1  0
 16 19  1  0
 19 20  1  0
 13 21  1  0
 21 22  1  0
 21 23  2  0
 23 24  1  0
 24 25  1  0
 25 26  2  0
 25 27  1  0
 27 28  1  0
 28 29  1  0
 28 30  1  0
 28 31  1  0
 31 32  1  0
 31 33  2  0
 33 34  1  0
 33 35  1  0
 35 36  2  0
 35 37  1  0
 37 38  1  0
 38 39  1  0
 38 40  1  0
 38 41  1  0
 41 42  1  0
 41 43  1  0
 41 44  1  0
 24  5  1  0
 23  8  1  0
M  CHG  1   2  -1
M  END
>  <UniqueID>  (24) 
24

>  <SMILES>  (24) 
CCOC(=O)/C=C\COC(=O)n1c(C([NH-])=O)cc2ccc(C#CCO)cc21

>  <Energy>  (24) 
70.80034790334743

>  <Genealogy>  (24) 
CCOC(=O)/C=C\COC(=O)n1c(C([NH-])=O)cc2ccc(C#CCO)cc21 (protonated)
CCOC(=O)/C=C\COC(=O)n1c(C([NH-])=O)cc2ccc(C#CCO)cc21 (cis-trans isomerization)
CCOC(=O)/C=C\COC(=O)n1c(C([NH-])=O)cc2ccc(C#CCO)cc21 (3D coordinates assigned)
CCOC(=O)/C=C\COC(=O)n1c(C([NH-])=O)cc2ccc(C#CCO)cc21 (optimized conformer: 70.80034790334743 kcal/mol)

>  <smiles>  (24) 
CCOC(=O)/C=C\COC(=O)n1c(C(N)=O)cc2ccc(C#CCO)cc21

>  <score_type>  (24) 
oracle

>  <origin>  (24) 
adg

>  <m_score__min__energy>  (24) 
-7.46

>  <m_primary>  (24) 
energy

$$$$
25:0
     RDKit          3D

 46 47  0  0  0  0  0  0  0  0999 V2000
  148.9980  161.8100  130.4350 C   0  0  0  0  0  0  0  0  0  0  0  0
  148.9150  160.5020  131.1650 C   0  0  0  0  0  0  0  0  0  0  0  0
  150.0350  159.6340  131.1900 C   0  0  0  0  0  0  0  0  0  0  0  0
  149.9630  158.3940  131.8480 C   0  0  0  0  0  0  0  0  0  0  0  0
  148.7590  158.0450  132.4530 C   0  0  0  0  0  0  0  0  0  0  0  0
  148.4180  156.9190  133.1680 C   0  0  0  0  0  0  0  0  0  0  0  0
  147.0860  157.1030  133.5360 C   0  0  0  0  0  0  0  0  0  0  0  0
  146.2900  156.0830  134.2500 C   0  0  0  0  0  0  0  0  0  0  0  0
  145.0010  155.6910  133.7810 N   0  0  0  0  0  0  0  0  0  0  0  0
  146.7720  155.5170  135.2680 O   0  0  0  0  0  0  0  0  0  0  0  0
  146.6250  158.2990  133.0720 N   0  0  0  0  0  0  0  0  0  0  0  0
  145.3330  158.8860  133.2710 C   0  0  0  0  0  0  0  0  0  0  0  0
  144.3290  158.4140  132.6700 O   0  0  0  0  0  0  0  0  0  0  0  0
  145.1930  159.9670  134.1480 O   0  0  0  0  0  0  0  0  0  0  0  0
  144.5400  161.1840  133.7940 C   0  0  0  0  0  0  0  0  0  0  0  0
  143.0560  160.9760  133.7340 C   0  0  0  0  0  0  0  0  0  0  0  0
  142.3130  161.9430  133.4160 O   0  0  0  0  0  0  0  0  0  0  0  0
  142.4980  159.6790  134.0040 N   0  0  0  0  0  0  0  0  0  0  0  0
  141.1320  159.3270  133.7150 C   0  0  0  0  0  0  0  0  0  0  0  0
  140.4330  160.0890  132.9920 O   0  0  0  0  0  0  0  0  0  0  0  0
  140.5550  158.1030  134.2260 N   0  0  0  0  0  0  0  0  0  0  0  0
  139.4600  158.1420  135.2020 C   0  0  0  0  0  0  0  0  0  0  0  0
  141.0210  156.8020  133.7220 C   0  0  0  0  0  0  0  0  0  0  0  0
  142.1350  156.2530  134.6140 C   0  0  0  0  0  0  0  0  0  0  0  0
  143.1190  157.2310  134.8130 O   0  0  0  0  0  0  0  0  0  0  0  0
  147.6580  158.8620  132.4090 C   0  0  0  0  0  0  0  0  0  0  0  0
  147.7050  160.1080  131.7750 C   0  0  0  0  0  0  0  0  0  0  0  0
  149.0502  162.6333  131.1626 H   0  0  0  0  0  0  0  0  0  0  0  0
  149.8987  161.8210  129.8036 H   0  0  0  0  0  0  0  0  0  0  0  0
  148.1060  161.9348  129.8036 H   0  0  0  0  0  0  0  0  0  0  0  0
  150.9683  159.9331  130.6904 H   0  0  0  0  0  0  0  0  0  0  0  0
  150.8316  157.7200  131.8837 H   0  0  0  0  0  0  0  0  0  0  0  0
  149.0605  156.0568  133.3998 H   0  0  0  0  0  0  0  0  0  0  0  0
  144.3840  156.3660  133.2780 H   0  0  0  0  0  0  0  0  0  0  0  0
  144.7692  161.9520  134.5474 H   0  0  0  0  0  0  0  0  0  0  0  0
  144.8975  161.5094  132.8059 H   0  0  0  0  0  0  0  0  0  0  0  0
  143.1380  158.9530  134.3900 H   0  0  0  0  0  0  0  0  0  0  0  0
  139.8758  158.1272  136.2203 H   0  0  0  0  0  0  0  0  0  0  0  0
  138.8737  159.0616  135.0587 H   0  0  0  0  0  0  0  0  0  0  0  0
  138.8097  157.2664  135.0587 H   0  0  0  0  0  0  0  0  0  0  0  0
  140.1797  156.0934  133.7153 H   0  0  0  0  0  0  0  0  0  0  0  0
  141.4124  156.9336  132.7024 H   0  0  0  0  0  0  0  0  0  0  0  0
  141.7116  155.9599  135.5860 H   0  0  0  0  0  0  0  0  0  0  0  0
  142.5899  155.3790  134.1249 H   0  0  0  0  0  0  0  0  0  0  0  0
  143.8850  156.9890  134.2300 H   0  0  0  0  0  0  0  0  0  0  0  0
  146.8219  160.7635  131.7525 H   0  0  0  0  0  0  0  0  0  0  0  0
  1  2  1  0
  2  3  2  0
  3  4  1  0
  4  5  2  0
  5  6  1  0
  6  7  2  0
  7  8  1  0
  8  9  1  0
  8 10  2  0
  7 11  1  0
 11 12  1  0
 12 13  2  0
 12 14  1  0
 14 15  1  0
 15 16  1  0
 16 17  2  0
 16 18  1  0
 18 19  1  0
 19 20  2  0
 19 21  1  0
 21 22  1  0
 21 23  1  0
 23 24  1  0
 24 25  1  0
 11 26  1  0
 26 27  2  0
 27  2  1  0
 26  5  1  0
  1 28  1  0
  1 29  1  0
  1 30  1  0
  3 31  1  0
  4 32  1  0
  6 33  1  0
  9 34  1  0
 15 35  1  0
 15 36  1  0
 18 37  1  0
 22 38  1  0
 22 39  1  0
 22 40  1  0
 23 41  1  0
 23 42  1  0
 24 43  1  0
 24 44  1  0
 25 45  1  0
 27 46  1  0
M  CHG  1   9  -1
M  END
>  <UniqueID>  (25) 
25

>  <SMILES>  (25) 
Cc1ccc2cc(C([NH-])=O)n(C(=O)OCC(=O)NC(=O)N(C)CCO)c2c1

>  <Energy>  (25) 
77.91414656049152

>  <Genealogy>  (25) 
Cc1ccc2cc(C([NH-])=O)n(C(=O)OCC(=O)NC(=O)N(C)CCO)c2c1 (protonated)
Cc1ccc2cc(C([NH-])=O)n(C(=O)OCC(=O)NC(=O)N(C)CCO)c2c1 (3D coordinates assigned)
Cc1ccc2cc(C([NH-])=O)n(C(=O)OCC(=O)NC(=O)N(C)CCO)c2c1 (optimized conformer: 77.91414656049152 kcal/mol)

>  <smiles>  (25) 
Cc1ccc2cc(C(N)=O)n(C(=O)OCC(=O)NC(=O)N(C)CCO)c2c1

>  <score_type>  (25) 
oracle

>  <origin>  (25) 
adg

>  <m_score__min__energy>  (25) 
-6.3899999999999997

>  <m_primary>  (25) 
energy

$$$$
26:0
     RDKit          3D

 48 49  0  0  0  0  0  0  0  0999 V2000
  149.1490  156.7680  132.5880 C   0  0  0  0  0  0  0  0  0  0  0  0
  148.1050  157.7880  132.9320 C   0  0  0  0  0  0  0  0  0  0  0  0
  148.4870  159.1250  133.2040 C   0  0  0  0  0  0  0  0  0  0  0  0
  147.5160  160.1040  133.4840 C   0  0  0  0  0  0  0  0  0  0  0  0
  146.1780  159.7170  133.4810 C   0  0  0  0  0  0  0  0  0  0  0  0
  145.0370  160.4600  133.6880 C   0  0  0  0  0  0  0  0  0  0  0  0
  143.9780  159.5630  133.5430 C   0  0  0  0  0  0  0  0  0  0  0  0
  142.5490  159.9080  133.7340 C   0  0  0  0  0  0  0  0  0  0  0  0
  141.5700  159.5770  132.7430 N   0  0  0  0  0  0  0  0  0  0  0  0
  142.1810  160.5130  134.7780 O   0  0  0  0  0  0  0  0  0  0  0  0
  144.4520  158.3150  133.2650 N   0  0  0  0  0  0  0  0  0  0  0  0
  143.6910  157.1270  132.9990 C   0  0  0  0  0  0  0  0  0  0  0  0
  142.8010  157.1570  132.1010 O   0  0  0  0  0  0  0  0  0  0  0  0
  143.9280  155.9170  133.7520 N   0  0  0  0  0  0  0  0  0  0  0  0
  144.8980  155.9150  134.8520 C   0  0  0  0  0  0  0  0  0  0  0  0
  143.2430  154.6910  133.4200 C   0  0  0  0  0  0  0  0  0  0  0  0
  143.7990  153.5790  133.6340 O   0  0  0  0  0  0  0  0  0  0  0  0
  141.9620  154.7280  132.8620 O   0  0  0  0  0  0  0  0  0  0  0  0
  140.7740  154.6410  133.6460 C   0  0  0  0  0  0  0  0  0  0  0  0
  139.6960  155.5780  133.0880 C   0  0  0  0  0  0  0  0  0  0  0  0
  139.7580  157.0040  133.6650 C   0  0  0  0  0  0  0  0  0  0  0  0
  138.4830  157.8170  133.3920 C   0  0  0  0  0  0  0  0  0  0  0  0
  138.7270  158.9510  131.9860 P   0  0  0  0  0  0  0  0  0  0  0  0
  139.8710  158.4580  131.1260 O   0  0  0  0  0  0  0  0  0  0  0  0
  139.0950  160.4950  132.5720 O   0  0  0  0  0  0  0  0  0  0  0  0
  137.3150  159.0280  131.0570 O   0  0  0  0  0  0  0  0  0  0  0  0
  145.7960  158.4270  133.2250 C   0  0  0  0  0  0  0  0  0  0  0  0
  146.7370  157.4360  132.9230 C   0  0  0  0  0  0  0  0  0  0  0  0
  149.5745  156.3523  133.5133 H   0  0  0  0  0  0  0  0  0  0  0  0
  148.6915  155.9593  131.9992 H   0  0  0  0  0  0  0  0  0  0  0  0
  149.9468  157.2442  131.9992 H   0  0  0  0  0  0  0  0  0  0  0  0
  149.5520  159.4000  133.1962 H   0  0  0  0  0  0  0  0  0  0  0  0
  147.8048  161.1435  133.6987 H   0  0  0  0  0  0  0  0  0  0  0  0
  144.9739  161.5337  133.9189 H   0  0  0  0  0  0  0  0  0  0  0  0
  141.8190  159.0700  131.8650 H   0  0  0  0  0  0  0  0  0  0  0  0
  140.5730  159.8450  132.8890 H   0  0  0  0  0  0  0  0  0  0  0  0
  144.3626  155.9161  135.8129 H   0  0  0  0  0  0  0  0  0  0  0  0
  145.5276  155.0155  134.7841 H   0  0  0  0  0  0  0  0  0  0  0  0
  145.5313  156.8118  134.7841 H   0  0  0  0  0  0  0  0  0  0  0  0
  140.4010  153.6064  133.6254 H   0  0  0  0  0  0  0  0  0  0  0  0
  141.0056  154.9386  134.6793 H   0  0  0  0  0  0  0  0  0  0  0  0
  139.8197  155.6391  131.9967 H   0  0  0  0  0  0  0  0  0  0  0  0
  138.7220  155.1560  133.3765 H   0  0  0  0  0  0  0  0  0  0  0  0
  139.9043  156.9360  134.7531 H   0  0  0  0  0  0  0  0  0  0  0  0
  140.5921  157.5235  133.1707 H   0  0  0  0  0  0  0  0  0  0  0  0
  137.6582  157.1272  133.1600 H   0  0  0  0  0  0  0  0  0  0  0  0
  138.2452  158.4109  134.2868 H   0  0  0  0  0  0  0  0  0  0  0  0
  146.4197  156.4100  132.6849 H   0  0  0  0  0  0  0  0  0  0  0  0
  1  2  1  0
  2  3  2  0
  3  4  1  0
  4  5  2  0
  5  6  1  0
  6  7  2  0
  7  8  1  0
  8  9  1  0
  8 10  2  0
  7 11  1  0
 11 12  1  0
 12 13  2  0
 12 14  1  0
 14 15  1  0
 14 16  1  0
 16 17  2  0
 16 18  1  0
 18 19  1  0
 19 20  1  0
 20 21  1  0
 21 22  1  0
 22 23  1  0
 23 24  2  0
 23 25  1  0
 23 26  1  0
 11 27  1  0
 27 28  2  0
 28  2  1  0
 27  5  1  0
  1 29  1  0
  1 30  1  0
  1 31  1  0
  3 32  1  0
  4 33  1  0
  6 34  1  0
  9 35  1  0
  9 36  1  0
 15 37  1  0
 15 38  1  0
 15 39  1  0
 19 40  1  0
 19 41  1  0
 20 42  1  0
 20 43  1  0
 21 44  1  0
 21 45  1  0
 22 46  1  0
 22 47  1  0
 28 48  1  0
M  CHG  2  25  -1  26  -1
M  END
>  <UniqueID>  (26) 
26

>  <SMILES>  (26) 
Cc1ccc2cc(C(N)=O)n(C(=O)N(C)C(=O)OCCCCP(=O)([O-])[O-])c2c1

>  <Energy>  (26) 
75.72131301706224

>  <Genealogy>  (26) 
Cc1ccc2cc(C(N)=O)n(C(=O)N(C)C(=O)OCCCCP(=O)([O-])[O-])c2c1 (protonated)
Cc1ccc2cc(C(N)=O)n(C(=O)N(C)C(=O)OCCCCP(=O)([O-])[O-])c2c1 (3D coordinates assigned)
Cc1ccc2cc(C(N)=O)n(C(=O)N(C)C(=O)OCCCCP(=O)([O-])[O-])c2c1 (optimized conformer: 75.72131301706224 kcal/mol)

>  <smiles>  (26) 
Cc1ccc2cc(C(N)=O)n(C(=O)N(C)C(=O)OCCCCP(=O)(O)O)c2c1

>  <score_type>  (26) 
oracle

>  <origin>  (26) 
adg

>  <m_score__min__energy>  (26) 
-7.0599999999999996

>  <m_primary>  (26) 
energy

$$$$
27:0
     RDKit          3D

 42 43  0  0  0  0  0  0  0  0999 V2000
  148.9780  154.1630  132.4790 C   0  0  0  0  0  0  0  0  0  0  0  0
  148.6590  155.2840  132.6050 N   0  0  0  0  0  0  0  0  0  0  0  0
  148.3050  156.5990  132.7650 C   0  0  0  0  0  0  0  0  0  0  0  0
  149.2260  157.5660  132.5170 C   0  0  0  0  0  0  0  0  0  0  0  0
  148.8900  158.8880  132.6720 C   0  0  0  0  0  0  0  0  0  0  0  0
  147.6160  159.2110  133.0800 C   0  0  0  0  0  0  0  0  0  0  0  0
  147.0260  160.4240  133.3110 C   0  0  0  0  0  0  0  0  0  0  0  0
  145.6950  160.2200  133.7160 C   0  0  0  0  0  0  0  0  0  0  0  0
  144.8380  161.3470  134.0260 C   0  0  0  0  0  0  0  0  0  0  0  0
  143.4170  161.2710  133.7330 N   0  0  0  0  0  0  0  0  0  0  0  0
  145.1830  162.4290  134.5380 O   0  0  0  0  0  0  0  0  0  0  0  0
  145.4870  158.8950  133.7290 N   0  0  0  0  0  0  0  0  0  0  0  0
  144.2760  158.2650  134.0820 C   0  0  0  0  0  0  0  0  0  0  0  0
  143.4080  158.8430  134.8250 O   0  0  0  0  0  0  0  0  0  0  0  0
  143.8480  156.9000  133.6630 C   0  0  0  0  0  0  0  0  0  0  0  0
  142.7460  157.1750  132.6040 C   0  0  0  0  0  0  0  0  0  0  0  0
  141.4270  156.7460  133.0910 C   0  0  0  0  0  0  0  0  0  0  0  0
  141.2730  155.5520  133.5090 O   0  0  0  0  0  0  0  0  0  0  0  0
  140.2750  157.5710  133.1380 N   0  0  0  0  0  0  0  0  0  0  0  0
  139.1030  157.0350  133.8070 C   0  0  0  0  0  0  0  0  0  0  0  0
  140.1950  158.8900  132.5730 C   0  0  0  0  0  0  0  0  0  0  0  0
  140.7360  159.9260  133.4970 C   0  0  0  0  0  0  0  0  0  0  0  0
  140.9960  161.1060  133.1050 O   0  0  0  0  0  0  0  0  0  0  0  0
  140.9600  159.5890  134.8120 O   0  0  0  0  0  0  0  0  0  0  0  0
  146.6370  158.2680  133.3470 C   0  0  0  0  0  0  0  0  0  0  0  0
  147.0200  156.9540  133.1770 C   0  0  0  0  0  0  0  0  0  0  0  0
  150.2401  157.2901  132.1923 H   0  0  0  0  0  0  0  0  0  0  0  0
  149.6289  159.6782  132.4728 H   0  0  0  0  0  0  0  0  0  0  0  0
  147.5151  161.4028  133.1979 H   0  0  0  0  0  0  0  0  0  0  0  0
  142.8000  160.6410  134.3010 H   0  0  0  0  0  0  0  0  0  0  0  0
  143.0260  161.8520  132.9510 H   0  0  0  0  0  0  0  0  0  0  0  0
  144.6875  156.3429  133.2214 H   0  0  0  0  0  0  0  0  0  0  0  0
  143.4913  156.2860  134.5031 H   0  0  0  0  0  0  0  0  0  0  0  0
  142.7162  158.2531  132.3878 H   0  0  0  0  0  0  0  0  0  0  0  0
  142.9853  156.6054  131.6939 H   0  0  0  0  0  0  0  0  0  0  0  0
  139.2416  157.0984  134.8964 H   0  0  0  0  0  0  0  0  0  0  0  0
  138.2162  157.6171  133.5157 H   0  0  0  0  0  0  0  0  0  0  0  0
  138.9633  155.9835  133.5157 H   0  0  0  0  0  0  0  0  0  0  0  0
  140.7733  158.9114  131.6375 H   0  0  0  0  0  0  0  0  0  0  0  0
  139.1345  159.1179  132.3901 H   0  0  0  0  0  0  0  0  0  0  0  0
  141.7630  158.9740  135.0150 H   0  0  0  0  0  0  0  0  0  0  0  0
  146.2867  156.1579  133.3731 H   0  0  0  0  0  0  0  0  0  0  0  0
  1  2  3  0
  2  3  1  0
  3  4  2  0
  4  5  1  0
  5  6  2  0
  6  7  1  0
  7  8  2  0
  8  9  1  0
  9 10  1  0
  9 11  2  0
  8 12  1  0
 12 13  1  0
 13 14  2  0
 13 15  1  0
 15 16  1  0
 16 17  1  0
 17 18  2  0
 17 19  1  0
 19 20  1  0
 19 21  1  0
 21 22  1  0
 22 23  2  0
 22 24  1  0
 12 25  1  0
 25 26  2  0
 26  3  1  0
 25  6  1  0
  4 27  1  0
  5 28  1  0
  7 29  1  0
 10 30  1  0
 10 31  1  0
 15 32  1  0
 15 33  1  0
 16 34  1  0
 16 35  1  0
 20 36  1  0
 20 37  1  0
 20 38  1  0
 21 39  1  0
 21 40  1  0
 24 41  1  0
 26 42  1  0
M  CHG  2   1  -1   2   1
M  END
>  <smiles>  (27) 
[C-]#[N+]c1ccc2cc(C(N)=O)n(C(=O)CCC(=O)N(C)CC(=O)O)c2c1

>  <score_type>  (27) 
oracle

>  <origin>  (27) 
adg

>  <m_score__min__energy>  (27) 
-7.71

>  <m_primary>  (27) 
energy

$$$$
28:0
     RDKit          3D

 39 40  0  0  0  0  0  0  0  0999 V2000
  141.6760  158.9980  136.5240 C   0  0  0  0  0  0  0  0  0  0  0  0
  141.2380  157.5740  136.1340 C   0  0  0  0  0  0  0  0  0  0  0  0
  139.9380  157.6590  135.3210 C   0  0  0  0  0  0  0  0  0  0  0  0
  140.9860  156.7180  137.3900 C   0  0  0  0  0  0  0  0  0  0  0  0
  142.2230  156.9550  135.2930 O   0  0  0  0  0  0  0  0  0  0  0  0
  142.6510  157.4100  134.0360 C   0  0  0  0  0  0  0  0  0  0  0  0
  141.9190  157.2780  133.0180 O   0  0  0  0  0  0  0  0  0  0  0  0
  143.9270  158.0540  133.9150 N   0  0  0  0  0  0  0  0  0  0  0  0
  144.1760  159.3540  133.5860 C   0  0  0  0  0  0  0  0  0  0  0  0
  143.1630  160.4190  133.4410 C   0  0  0  0  0  0  0  0  0  0  0  0
  141.8690  160.1020  132.9340 N   0  0  0  0  0  0  0  0  0  0  0  0
  143.4380  161.6150  133.7230 O   0  0  0  0  0  0  0  0  0  0  0  0
  145.5470  159.5770  133.4810 C   0  0  0  0  0  0  0  0  0  0  0  0
  146.1380  158.3670  133.7620 C   0  0  0  0  0  0  0  0  0  0  0  0
  147.4830  158.0100  133.7810 C   0  0  0  0  0  0  0  0  0  0  0  0
  147.8050  156.6730  134.0690 C   0  0  0  0  0  0  0  0  0  0  0  0
  146.7860  155.7250  134.3320 C   0  0  0  0  0  0  0  0  0  0  0  0
  147.1410  154.2870  134.5920 C   0  0  0  0  0  0  0  0  0  0  0  0
  147.4740  154.0950  136.0380 C   0  0  0  0  0  0  0  0  0  0  0  0
  148.2630  154.8880  136.6160 O   0  0  0  0  0  0  0  0  0  0  0  0
  146.9520  153.0120  136.7330 O   0  0  0  0  0  0  0  0  0  0  0  0
  145.4300  156.1210  134.2920 C   0  0  0  0  0  0  0  0  0  0  0  0
  145.1390  157.4630  134.0200 C   0  0  0  0  0  0  0  0  0  0  0  0
  141.7031  159.0860  137.6201 H   0  0  0  0  0  0  0  0  0  0  0  0
  142.6773  159.1985  136.1152 H   0  0  0  0  0  0  0  0  0  0  0  0
  140.9604  159.7266  136.1152 H   0  0  0  0  0  0  0  0  0  0  0  0
  139.0797  157.7151  136.0067 H   0  0  0  0  0  0  0  0  0  0  0  0
  139.9601  158.5576  134.6870 H   0  0  0  0  0  0  0  0  0  0  0  0
  139.8430  156.7651  134.6870 H   0  0  0  0  0  0  0  0  0  0  0  0
  141.1648  157.3253  138.2896 H   0  0  0  0  0  0  0  0  0  0  0  0
  139.9450  156.3624  137.3886 H   0  0  0  0  0  0  0  0  0  0  0  0
  141.6682  155.8551  137.3886 H   0  0  0  0  0  0  0  0  0  0  0  0
  141.7350  159.3270  132.2480 H   0  0  0  0  0  0  0  0  0  0  0  0
  146.0507  160.5213  133.2270 H   0  0  0  0  0  0  0  0  0  0  0  0
  148.2695  158.7514  133.5769 H   0  0  0  0  0  0  0  0  0  0  0  0
  148.8591  156.3593  134.0904 H   0  0  0  0  0  0  0  0  0  0  0  0
  146.2863  153.6472  134.3270 H   0  0  0  0  0  0  0  0  0  0  0  0
  148.0145  154.0148  133.9813 H   0  0  0  0  0  0  0  0  0  0  0  0
  144.6242  155.3937  134.4700 H   0  0  0  0  0  0  0  0  0  0  0  0
  1  2  1  0
  2  3  1  0
  2  4  1  0
  2  5  1  0
  5  6  1  0
  6  7  2  0
  6  8  1  0
  8  9  1  0
  9 10  1  0
 10 11  1  0
 10 12  2  0
  9 13  2  0
 13 14  1  0
 14 15  2  0
 15 16  1  0
 16 17  2  0
 17 18  1  0
 18 19  1  0
 19 20  2  0
 19 21  1  0
 17 22  1  0
 22 23  2  0
 23  8  1  0
 23 14  1  0
  1 24  1  0
  1 25  1  0
  1 26  1  0
  3 27  1  0
  3 28  1  0
  3 29  1  0
  4 30  1  0
  4 31  1  0
  4 32  1  0
 11 33  1  0
 13 34  1  0
 15 35  1  0
 16 36  1  0
 18 37  1  0
 18 38  1  0
 22 39  1  0
M  CHG  2  11  -1  21  -1
M  END
>  <UniqueID>  (28) 
27

>  <SMILES>  (28) 
CC(C)(C)OC(=O)n1c(C([NH-])=O)cc2ccc(CC(=O)[O-])cc21

>  <Energy>  (28) 
71.10570240109352

>  <Genealogy>  (28) 
CC(C)(C)OC(=O)n1c(C([NH-])=O)cc2ccc(CC(=O)[O-])cc21 (protonated)
CC(C)(C)OC(=O)n1c(C([NH-])=O)cc2ccc(CC(=O)[O-])cc21 (3D coordinates assigned)
CC(C)(C)OC(=O)n1c(C([NH-])=O)cc2ccc(CC(=O)[O-])cc21 (optimized conformer: 71.10570240109352 kcal/mol)

>  <smiles>  (28) 
CC(C)(C)OC(=O)n1c(C(N)=O)cc2ccc(CC(=O)O)cc21

>  <score_type>  (28) 
oracle

>  <origin>  (28) 
adg

>  <m_score__min__energy>  (28) 
-7.1299999999999999

>  <m_primary>  (28) 
energy

$$$$
29:0
     RDKit          3D

 41 42  0  0  0  0  0  0  0  0999 V2000
  149.0450  154.0630  132.6050 C   0  0  0  0  0  0  0  0  0  0  0  0
  148.5550  155.1580  132.7240 C   0  0  0  0  0  0  0  0  0  0  0  0
  147.9690  156.4650  132.8650 C   0  0  0  0  0  0  0  0  0  0  0  0
  148.7980  157.6110  132.8900 C   0  0  0  0  0  0  0  0  0  0  0  0
  148.2380  158.8910  133.0370 C   0  0  0  0  0  0  0  0  0  0  0  0
  146.8520  158.9880  133.1480 C   0  0  0  0  0  0  0  0  0  0  0  0
  146.0550  160.0930  133.3440 C   0  0  0  0  0  0  0  0  0  0  0  0
  144.7540  159.6010  133.4080 C   0  0  0  0  0  0  0  0  0  0  0  0
  143.5660  160.4620  133.5700 C   0  0  0  0  0  0  0  0  0  0  0  0
  142.2830  160.0510  133.0950 N   0  0  0  0  0  0  0  0  0  0  0  0
  143.6940  161.6020  134.0890 O   0  0  0  0  0  0  0  0  0  0  0  0
  144.7440  158.2460  133.2650 N   0  0  0  0  0  0  0  0  0  0  0  0
  143.6230  157.3590  133.4070 C   0  0  0  0  0  0  0  0  0  0  0  0
  142.8720  157.1330  132.4190 O   0  0  0  0  0  0  0  0  0  0  0  0
  143.3610  156.7590  134.6430 O   0  0  0  0  0  0  0  0  0  0  0  0
  142.4150  157.2840  135.5700 C   0  0  0  0  0  0  0  0  0  0  0  0
  141.0930  157.0300  135.1060 O   0  0  0  0  0  0  0  0  0  0  0  0
  140.3630  157.9570  134.3520 C   0  0  0  0  0  0  0  0  0  0  0  0
  140.4580  159.1910  134.6030 O   0  0  0  0  0  0  0  0  0  0  0  0
  139.5200  157.5010  133.2800 N   0  0  0  0  0  0  0  0  0  0  0  0
  139.4790  156.0710  132.9640 C   0  0  0  0  0  0  0  0  0  0  0  0
  138.7460  158.4630  132.4830 C   0  0  0  0  0  0  0  0  0  0  0  0
  139.6510  159.4990  131.8880 C   0  0  0  0  0  0  0  0  0  0  0  0
  140.5570  159.1560  131.0850 O   0  0  0  0  0  0  0  0  0  0  0  0
  139.5320  160.8330  132.2600 O   0  0  0  0  0  0  0  0  0  0  0  0
  146.0370  157.8850  133.1060 C   0  0  0  0  0  0  0  0  0  0  0  0
  146.5710  156.5970  132.9820 C   0  0  0  0  0  0  0  0  0  0  0  0
  149.4921  153.0639  132.4964 H   0  0  0  0  0  0  0  0  0  0  0  0
  149.8881  157.4991  132.7937 H   0  0  0  0  0  0  0  0  0  0  0  0
  148.8734  159.7885  133.0637 H   0  0  0  0  0  0  0  0  0  0  0  0
  146.3771  161.1411  133.4314 H   0  0  0  0  0  0  0  0  0  0  0  0
  142.1740  159.1970  132.5040 H   0  0  0  0  0  0  0  0  0  0  0  0
  141.4460  160.6540  133.2590 H   0  0  0  0  0  0  0  0  0  0  0  0
  142.5572  156.8028  136.5489 H   0  0  0  0  0  0  0  0  0  0  0  0
  142.5641  158.3697  135.6655 H   0  0  0  0  0  0  0  0  0  0  0  0
  139.4623  155.4895  133.8976 H   0  0  0  0  0  0  0  0  0  0  0  0
  138.5742  155.8506  132.3786 H   0  0  0  0  0  0  0  0  0  0  0  0
  140.3697  155.7992  132.3786 H   0  0  0  0  0  0  0  0  0  0  0  0
  138.2267  157.9282  131.6741 H   0  0  0  0  0  0  0  0  0  0  0  0
  138.0158  158.9616  133.1374 H   0  0  0  0  0  0  0  0  0  0  0  0
  145.9173  155.7123  132.9760 H   0  0  0  0  0  0  0  0  0  0  0  0
  1  2  3  0
  2  3  1  0
  3  4  2  0
  4  5  1  0
  5  6  2  0
  6  7  1  0
  7  8  2  0
  8  9  1  0
  9 10  1  0
  9 11  2  0
  8 12  1  0
 12 13  1  0
 13 14  2  0
 13 15  1  0
 15 16  1  0
 16 17  1  0
 17 18  1  0
 18 19  2  0
 18 20  1  0
 20 21  1  0
 20 22  1  0
 22 23  1  0
 23 24  2  0
 23 25  1  0
 12 26  1  0
 26 27  2  0
 27  3  1  0
 26  6  1  0
  1 28  1  0
  4 29  1  0
  5 30  1  0
  7 31  1  0
 10 32  1  0
 10 33  1  0
 16 34  1  0
 16 35  1  0
 21 36  1  0
 21 37  1  0
 21 38  1  0
 22 39  1  0
 22 40  1  0
 27 41  1  0
M  CHG  1  25  -1
M  END
>  <UniqueID>  (29) 
28

>  <SMILES>  (29) 
C#Cc1ccc2cc(C(N)=O)n(C(=O)OCOC(=O)N(C)CC(=O)[O-])c2c1

>  <Energy>  (29) 
70.38599968064543

>  <Genealogy>  (29) 
C#Cc1ccc2cc(C(N)=O)n(C(=O)OCOC(=O)N(C)CC(=O)[O-])c2c1 (protonated)
C#Cc1ccc2cc(C(N)=O)n(C(=O)OCOC(=O)N(C)CC(=O)[O-])c2c1 (3D coordinates assigned)
C#Cc1ccc2cc(C(N)=O)n(C(=O)OCOC(=O)N(C)CC(=O)[O-])c2c1 (optimized conformer: 70.38599968064543 kcal/mol)

>  <smiles>  (29) 
C#Cc1ccc2cc(C(N)=O)n(C(=O)OCOC(=O)N(C)CC(=O)O)c2c1

>  <score_type>  (29) 
oracle

>  <origin>  (29) 
adg

>  <m_score__min__energy>  (29) 
-7.3499999999999996

>  <m_primary>  (29) 
energy

$$$$
30:0
     RDKit          3D

 45 46  0  0  0  0  0  0  0  0999 V2000
  147.7650  154.6660  134.6880 C   0  0  0  0  0  0  0  0  0  0  0  0
  147.7730  153.8050  133.4130 C   0  0  2  0  0  0  0  0  0  0  0  0
  149.1530  153.1340  133.2260 C   0  0  0  0  0  0  0  0  0  0  0  0
  149.7560  153.5600  132.0330 O   0  0  0  0  0  0  0  0  0  0  0  0
  147.4160  154.6410  132.2440 N   0  0  0  0  0  0  0  0  0  0  0  0
  147.4110  156.0480  132.5690 C   0  0  0  0  0  0  0  0  0  0  0  0
  148.6270  156.7800  132.6080 C   0  0  0  0  0  0  0  0  0  0  0  0
  148.6310  158.1480  132.9260 C   0  0  0  0  0  0  0  0  0  0  0  0
  147.4100  158.7610  133.1930 C   0  0  0  0  0  0  0  0  0  0  0  0
  147.1310  160.0590  133.5500 C   0  0  0  0  0  0  0  0  0  0  0  0
  145.7480  160.1110  133.7040 C   0  0  0  0  0  0  0  0  0  0  0  0
  145.0080  161.3540  134.0060 C   0  0  0  0  0  0  0  0  0  0  0  0
  143.6120  161.4600  133.7430 N   0  0  0  0  0  0  0  0  0  0  0  0
  145.6280  162.3530  134.4600 O   0  0  0  0  0  0  0  0  0  0  0  0
  145.1930  158.8900  133.4570 N   0  0  0  0  0  0  0  0  0  0  0  0
  143.8170  158.5060  133.6000 C   0  0  0  0  0  0  0  0  0  0  0  0
  143.2200  157.9400  132.6440 O   0  0  0  0  0  0  0  0  0  0  0  0
  143.1530  158.7440  134.8080 O   0  0  0  0  0  0  0  0  0  0  0  0
  141.8590  158.2250  135.1100 C   0  0  0  0  0  0  0  0  0  0  0  0
  140.7850  159.2850  134.8540 C   0  0  0  0  0  0  0  0  0  0  0  0
  140.4040  159.3410  133.3740 C   0  0  0  0  0  0  0  0  0  0  0  0
  141.4020  159.9950  132.6400 O   0  0  0  0  0  0  0  0  0  0  0  0
  146.2240  158.0750  133.1430 C   0  0  0  0  0  0  0  0  0  0  0  0
  146.1910  156.7070  132.8490 C   0  0  0  0  0  0  0  0  0  0  0  0
  147.7711  154.0118  135.5723 H   0  0  0  0  0  0  0  0  0  0  0  0
  148.6572  155.3093  134.7017 H   0  0  0  0  0  0  0  0  0  0  0  0
  146.8610  155.2926  134.7017 H   0  0  0  0  0  0  0  0  0  0  0  0
  147.0238  153.0052  133.5076 H   0  0  0  0  0  0  0  0  0  0  0  0
  149.8017  153.4009  134.0734 H   0  0  0  0  0  0  0  0  0  0  0  0
  149.0121  152.0440  133.1804 H   0  0  0  0  0  0  0  0  0  0  0  0
  150.7060  153.2740  132.0680 H   0  0  0  0  0  0  0  0  0  0  0  0
  146.4840  154.3480  131.8660 H   0  0  0  0  0  0  0  0  0  0  0  0
  148.1170  154.4930  131.4780 H   0  0  0  0  0  0  0  0  0  0  0  0
  149.5762  156.2701  132.3868 H   0  0  0  0  0  0  0  0  0  0  0  0
  149.5710  158.7181  132.9630 H   0  0  0  0  0  0  0  0  0  0  0  0
  147.8482  160.8820  133.6853 H   0  0  0  0  0  0  0  0  0  0  0  0
  142.9920  160.6210  133.7840 H   0  0  0  0  0  0  0  0  0  0  0  0
  141.6625  157.3492  134.4741 H   0  0  0  0  0  0  0  0  0  0  0  0
  141.8294  157.9365  136.1711 H   0  0  0  0  0  0  0  0  0  0  0  0
  139.8907  159.0396  135.4456 H   0  0  0  0  0  0  0  0  0  0  0  0
  141.1873  160.2659  135.1472 H   0  0  0  0  0  0  0  0  0  0  0  0
  140.2840  158.3168  132.9911 H   0  0  0  0  0  0  0  0  0  0  0  0
  139.4600  159.8956  133.2680 H   0  0  0  0  0  0  0  0  0  0  0  0
  142.2520  159.8600  133.1330 H   0  0  0  0  0  0  0  0  0  0  0  0
  145.2384  156.1570  132.8360 H   0  0  0  0  0  0  0  0  0  0  0  0
  1  2  1  0
  2  3  1  0
  3  4  1  0
  2  5  1  0
  5  6  1  0
  6  7  2  0
  7  8  1  0
  8  9  2  0
  9 10  1  0
 10 11  2  0
 11 12  1  0
 12 13  1  0
 12 14  2  0
 11 15  1  0
 15 16  1  0
 16 17  2  0
 16 18  1  0
 18 19  1  0
 19 20  1  0
 20 21  1  0
 21 22  1  0
 15 23  1  0
 23 24  2  0
 24  6  1  0
 23  9  1  0
  1 25  1  0
  1 26  1  0
  1 27  1  0
  2 28  1  1
  3 29  1  0
  3 30  1  0
  4 31  1  0
  5 32  1  0
  5 33  1  0
  7 34  1  0
  8 35  1  0
 10 36  1  0
 13 37  1  0
 19 38  1  0
 19 39  1  0
 20 40  1  0
 20 41  1  0
 21 42  1  0
 21 43  1  0
 22 44  1  0
 24 45  1  0
M  CHG  2   5   1  13  -1
M  END
>  <UniqueID>  (30) 
29

>  <SMILES>  (30) 
C[C@H](CO)[NH2+]c1ccc2cc(C([NH-])=O)n(C(=O)OCCCO)c2c1

>  <Energy>  (30) 
77.37953723843722

>  <Genealogy>  (30) 
CC(CO)[NH2+]c1ccc2cc(C([NH-])=O)n(C(=O)OCCCO)c2c1 (protonated)
C[C@H](CO)[NH2+]c1ccc2cc(C([NH-])=O)n(C(=O)OCCCO)c2c1 (chirality)
C[C@H](CO)[NH2+]c1ccc2cc(C([NH-])=O)n(C(=O)OCCCO)c2c1 (3D coordinates assigned)
C[C@H](CO)[NH2+]c1ccc2cc(C([NH-])=O)n(C(=O)OCCCO)c2c1 (optimized conformer: 77.37953723843722 kcal/mol)

>  <smiles>  (30) 
CC(CO)Nc1ccc2cc(C(N)=O)n(C(=O)OCCCO)c2c1

>  <score_type>  (30) 
oracle

>  <origin>  (30) 
adg

>  <m_score__min__energy>  (30) 
-5.9299999999999997

>  <m_primary>  (30) 
energy

$$$$
31:0
     RDKit          3D

 42 43  0  0  0  0  0  0  0  0999 V2000
  142.8270  160.1490  133.5470 H   0  0  0  0  0  0  0  0  0  0  0  0
  143.2820  161.0710  133.7250 N   0  0  0  0  0  0  0  0  0  0  0  0
  144.6820  161.1610  133.9830 C   0  0  0  0  0  0  0  0  0  0  0  0
  145.1600  162.2410  134.4180 O   0  0  0  0  0  0  0  0  0  0  0  0
  145.5840  160.0260  133.6940 C   0  0  0  0  0  0  0  0  0  0  0  0
  146.9470  160.1730  133.4470 C   0  0  0  0  0  0  0  0  0  0  0  0
  147.5371  161.1002  133.4925 H   0  0  0  0  0  0  0  0  0  0  0  0
  147.3980  158.9110  133.1340 C   0  0  0  0  0  0  0  0  0  0  0  0
  148.6790  158.4740  132.8100 C   0  0  0  0  0  0  0  0  0  0  0  0
  149.5211  159.1793  132.7524 H   0  0  0  0  0  0  0  0  0  0  0  0
  148.8630  157.1050  132.5590 C   0  0  0  0  0  0  0  0  0  0  0  0
  149.8628  156.7328  132.2909 H   0  0  0  0  0  0  0  0  0  0  0  0
  147.7790  156.1950  132.6460 C   0  0  0  0  0  0  0  0  0  0  0  0
  148.0210  154.7980  132.3880 N   0  0  0  0  0  0  0  0  0  0  0  0
  147.2310  154.2190  132.0210 H   0  0  0  0  0  0  0  0  0  0  0  0
  149.2940  154.1130  132.6200 C   0  0  0  0  0  0  0  0  0  0  0  0
  150.0964  154.6604  132.1038 H   0  0  0  0  0  0  0  0  0  0  0  0
  149.4835  154.0826  133.7031 H   0  0  0  0  0  0  0  0  0  0  0  0
  149.2480  152.6790  132.0930 C   0  0  0  0  0  0  0  0  0  0  0  0
  149.5391  152.6705  131.0323 H   0  0  0  0  0  0  0  0  0  0  0  0
  149.9443  152.0566  132.6742 H   0  0  0  0  0  0  0  0  0  0  0  0
  147.9520  152.1660  132.2230 O   0  0  0  0  0  0  0  0  0  0  0  0
  147.3530  152.8080  131.7590 H   0  0  0  0  0  0  0  0  0  0  0  0
  146.4900  156.6820  132.9760 C   0  0  0  0  0  0  0  0  0  0  0  0
  145.6324  155.9974  133.0520 H   0  0  0  0  0  0  0  0  0  0  0  0
  146.3330  158.0540  133.2030 C   0  0  0  0  0  0  0  0  0  0  0  0
  145.2110  158.7220  133.5500 N   0  0  0  0  0  0  0  0  0  0  0  0
  143.9190  158.1440  133.7930 C   0  0  0  0  0  0  0  0  0  0  0  0
  143.2700  158.4680  134.8250 O   0  0  0  0  0  0  0  0  0  0  0  0
  143.3990  157.2040  132.8950 O   0  0  0  0  0  0  0  0  0  0  0  0
  142.8210  155.9680  133.3040 C   0  0  0  0  0  0  0  0  0  0  0  0
  142.4224  156.0726  134.3239 H   0  0  0  0  0  0  0  0  0  0  0  0
  142.0095  155.7030  132.6103 H   0  0  0  0  0  0  0  0  0  0  0  0
  143.8590  154.8810  133.2850 C   0  0  0  0  0  0  0  0  0  0  0  0
  144.5999  154.8341  134.0967 H   0  0  0  0  0  0  0  0  0  0  0  0
  143.9060  153.9670  132.3050 C   0  0  0  0  0  0  0  0  0  0  0  0
  143.1521  153.9939  131.5045 H   0  0  0  0  0  0  0  0  0  0  0  0
  144.9700  152.9070  132.2810 C   0  0  0  0  0  0  0  0  0  0  0  0
  144.5015  151.9204  132.4118 H   0  0  0  0  0  0  0  0  0  0  0  0
  145.4957  152.9513  131.3157 H   0  0  0  0  0  0  0  0  0  0  0  0
  145.8950  153.1190  133.3120 O   0  0  0  0  0  0  0  0  0  0  0  0
  146.2820  152.2320  133.5330 H   0  0  0  0  0  0  0  0  0  0  0  0
  1  2  1  0
  2  3  1  0
  3  4  2  0
  3  5  1  0
  5  6  2  0
  6  7  1  0
  6  8  1  0
  8  9  2  0
  9 10  1  0
  9 11  1  0
 11 12  1  0
 11 13  2  0
 13 14  1  0
 14 15  1  0
 14 16  1  0
 16 17  1  0
 16 18  1  0
 16 19  1  0
 19 20  1  0
 19 21  1  0
 19 22  1  0
 22 23  1  0
 13 24  1  0
 24 25  1  0
 24 26  2  0
 26 27  1  0
 27 28  1  0
 28 29  2  0
 28 30  1  0
 30 31  1  0
 31 32  1  0
 31 33  1  0
 31 34  1  0
 34 35  1  0
 34 36  2  0
 36 37  1  0
 36 38  1  0
 38 39  1  0
 38 40  1  0
 38 41  1  0
 41 42  1  0
 27  5  1  0
 26  8  1  0
M  CHG  1   2  -1
M  END
>  <UniqueID>  (31) 
30

>  <SMILES>  (31) 
[NH-]C(=O)c1cc2ccc(NCCO)cc2n1C(=O)OC/C=C/CO

>  <Energy>  (31) 
72.15877011878699

>  <Genealogy>  (31) 
[NH-]C(=O)c1cc2ccc(NCCO)cc2n1C(=O)OC/C=C/CO (protonated)
[NH-]C(=O)c1cc2ccc(NCCO)cc2n1C(=O)OC/C=C/CO (cis-trans isomerization)
[NH-]C(=O)c1cc2ccc(NCCO)cc2n1C(=O)OC/C=C/CO (3D coordinates assigned)
[NH-]C(=O)c1cc2ccc(NCCO)cc2n1C(=O)OC/C=C/CO (optimized conformer: 72.15877011878699 kcal/mol)

>  <smiles>  (31) 
NC(=O)c1cc2ccc(NCCO)cc2n1C(=O)OC/C=C/CO

>  <score_type>  (31) 
oracle

>  <origin>  (31) 
adg

>  <m_score__min__energy>  (31) 
-5.75

>  <m_primary>  (31) 
energy

$$$$
32:0
     RDKit          3D

 38 39  0  0  0  0  0  0  0  0999 V2000
  139.4310  159.2040  131.5950 C   0  0  0  0  0  0  0  0  0  0  0  0
  140.3890  159.5500  132.6820 C   0  0  0  0  0  0  0  0  0  0  0  0
  140.5680  160.7580  132.9950 O   0  0  0  0  0  0  0  0  0  0  0  0
  141.1090  158.5320  133.3170 O   0  0  0  0  0  0  0  0  0  0  0  0
  141.7370  157.4710  132.6050 C   0  0  0  0  0  0  0  0  0  0  0  0
  143.1510  157.6080  132.6900 O   0  0  0  0  0  0  0  0  0  0  0  0
  143.7830  158.3050  133.7220 C   0  0  0  0  0  0  0  0  0  0  0  0
  143.2640  158.3440  134.8710 O   0  0  0  0  0  0  0  0  0  0  0  0
  145.0310  158.9760  133.4760 N   0  0  0  0  0  0  0  0  0  0  0  0
  145.2830  160.3140  133.5510 C   0  0  0  0  0  0  0  0  0  0  0  0
  144.2730  161.3740  133.7450 C   0  0  0  0  0  0  0  0  0  0  0  0
  142.8850  161.0620  133.8570 N   0  0  0  0  0  0  0  0  0  0  0  0
  144.6380  162.5800  133.7560 O   0  0  0  0  0  0  0  0  0  0  0  0
  146.6370  160.5720  133.3610 C   0  0  0  0  0  0  0  0  0  0  0  0
  147.2150  159.3420  133.1490 C   0  0  0  0  0  0  0  0  0  0  0  0
  148.5460  159.0080  132.9150 C   0  0  0  0  0  0  0  0  0  0  0  0
  148.8680  157.6490  132.7620 C   0  0  0  0  0  0  0  0  0  0  0  0
  147.8620  156.6610  132.8570 C   0  0  0  0  0  0  0  0  0  0  0  0
  148.2060  155.2720  132.7120 C   0  0  0  0  0  0  0  0  0  0  0  0
  148.4930  154.1070  132.5890 C   0  0  0  0  0  0  0  0  0  0  0  0
  148.8430  152.6920  132.4400 C   0  0  0  0  0  0  0  0  0  0  0  0
  150.2240  152.5190  132.5970 O   0  0  0  0  0  0  0  0  0  0  0  0
  146.5230  157.0300  133.1000 C   0  0  0  0  0  0  0  0  0  0  0  0
  146.2260  158.3930  133.2240 C   0  0  0  0  0  0  0  0  0  0  0  0
  138.4834  158.8618  132.0366 H   0  0  0  0  0  0  0  0  0  0  0  0
  139.2460  160.0921  130.9729 H   0  0  0  0  0  0  0  0  0  0  0  0
  139.8562  158.4026  130.9729 H   0  0  0  0  0  0  0  0  0  0  0  0
  141.4358  156.5080  133.0431 H   0  0  0  0  0  0  0  0  0  0  0  0
  141.4299  157.5084  131.5494 H   0  0  0  0  0  0  0  0  0  0  0  0
  142.1890  161.8220  134.0290 H   0  0  0  0  0  0  0  0  0  0  0  0
  142.5340  160.0940  133.6830 H   0  0  0  0  0  0  0  0  0  0  0  0
  147.1383  161.5510  133.3769 H   0  0  0  0  0  0  0  0  0  0  0  0
  149.3223  159.7847  132.8518 H   0  0  0  0  0  0  0  0  0  0  0  0
  149.9092  157.3523  132.5671 H   0  0  0  0  0  0  0  0  0  0  0  0
  148.3134  152.1038  133.2039 H   0  0  0  0  0  0  0  0  0  0  0  0
  148.5493  152.3521  131.4359 H   0  0  0  0  0  0  0  0  0  0  0  0
  150.6360  152.6960  131.7110 H   0  0  0  0  0  0  0  0  0  0  0  0
  145.7340  156.2688  133.1897 H   0  0  0  0  0  0  0  0  0  0  0  0
  1  2  1  0
  2  3  2  0
  2  4  1  0
  4  5  1  0
  5  6  1  0
  6  7  1  0
  7  8  2  0
  7  9  1  0
  9 10  1  0
 10 11  1  0
 11 12  1  0
 11 13  2  0
 10 14  2  0
 14 15  1  0
 15 16  2  0
 16 17  1  0
 17 18  2  0
 18 19  1  0
 19 20  3  0
 20 21  1  0
 21 22  1  0
 18 23  1  0
 23 24  2  0
 24  9  1  0
 24 15  1  0
  1 25  1  0
  1 26  1  0
  1 27  1  0
  5 28  1  0
  5 29  1  0
 12 30  1  0
 12 31  1  0
 14 32  1  0
 16 33  1  0
 17 34  1  0
 21 35  1  0
 21 36  1  0
 22 37  1  0
 23 38  1  0
M  END
>  <UniqueID>  (32) 
31

>  <SMILES>  (32) 
CC(=O)OCOC(=O)n1c(C(N)=O)cc2ccc(C#CCO)cc21

>  <Energy>  (32) 
67.42015037221448

>  <Genealogy>  (32) 
CC(=O)OCOC(=O)n1c(C(N)=O)cc2ccc(C#CCO)cc21 (3D coordinates assigned)
CC(=O)OCOC(=O)n1c(C(N)=O)cc2ccc(C#CCO)cc21 (optimized conformer: 67.42015037221448 kcal/mol)

>  <smiles>  (32) 
CC(=O)OCOC(=O)n1c(C(N)=O)cc2ccc(C#CCO)cc21

>  <score_type>  (32) 
oracle

>  <origin>  (32) 
adg

>  <m_score__min__energy>  (32) 
-6.3600000000000003

>  <m_primary>  (32) 
energy

$$$$
33:0
     RDKit          3D

 48 49  0  0  0  0  0  0  0  0999 V2000
  148.4950  161.2480  130.7590 C   0  0  0  0  0  0  0  0  0  0  0  0
  148.3150  159.9920  131.5570 C   0  0  0  0  0  0  0  0  0  0  0  0
  149.4070  159.1070  131.7370 C   0  0  0  0  0  0  0  0  0  0  0  0
  149.2440  157.9060  132.4460 C   0  0  0  0  0  0  0  0  0  0  0  0
  147.9830  157.6160  132.9590 C   0  0  0  0  0  0  0  0  0  0  0  0
  147.5420  156.5110  133.6490 C   0  0  0  0  0  0  0  0  0  0  0  0
  146.1890  156.7430  133.8900 C   0  0  0  0  0  0  0  0  0  0  0  0
  145.3400  155.8390  134.6910 C   0  0  0  0  0  0  0  0  0  0  0  0
  144.0580  156.2590  135.1490 N   0  0  0  0  0  0  0  0  0  0  0  0
  145.7740  154.7040  135.0230 O   0  0  0  0  0  0  0  0  0  0  0  0
  145.8050  157.9380  133.3610 N   0  0  0  0  0  0  0  0  0  0  0  0
  144.4780  158.4830  133.2960 C   0  0  0  0  0  0  0  0  0  0  0  0
  143.5930  157.9020  132.6080 O   0  0  0  0  0  0  0  0  0  0  0  0
  144.1600  159.6310  134.0290 O   0  0  0  0  0  0  0  0  0  0  0  0
  142.9830  159.7370  134.8260 C   0  0  0  0  0  0  0  0  0  0  0  0
  142.2620  158.5090  134.8050 O   0  0  0  0  0  0  0  0  0  0  0  0
  140.9450  158.3910  135.2560 C   0  0  0  0  0  0  0  0  0  0  0  0
  140.6980  158.1290  136.4650 O   0  0  0  0  0  0  0  0  0  0  0  0
  139.8180  158.5680  134.2890 C   0  0  0  0  0  0  0  0  0  0  0  0
  139.1370  157.2980  134.0670 N   0  0  0  0  0  0  0  0  0  0  0  0
  139.7920  156.1480  133.5290 C   0  0  0  0  0  0  0  0  0  0  0  0
  139.1020  155.2320  133.0060 O   0  0  0  0  0  0  0  0  0  0  0  0
  141.1870  156.0520  133.5820 O   0  0  0  0  0  0  0  0  0  0  0  0
  141.8860  154.8490  133.9030 C   0  0  2  0  0  0  0  0  0  0  0  0
  141.3730  153.6860  133.0450 C   0  0  0  0  0  0  0  0  0  0  0  0
  141.7080  154.5490  135.3950 C   0  0  0  0  0  0  0  0  0  0  0  0
  141.6130  155.7420  136.1240 O   0  0  0  0  0  0  0  0  0  0  0  0
  146.9160  158.4620  132.7950 C   0  0  0  0  0  0  0  0  0  0  0  0
  147.0440  159.6560  132.0760 C   0  0  0  0  0  0  0  0  0  0  0  0
  148.6173  162.1018  131.4417 H   0  0  0  0  0  0  0  0  0  0  0  0
  149.3889  161.1546  130.1248 H   0  0  0  0  0  0  0  0  0  0  0  0
  147.6108  161.4094  130.1248 H   0  0  0  0  0  0  0  0  0  0  0  0
  150.3911  159.3631  131.3176 H   0  0  0  0  0  0  0  0  0  0  0  0
  150.0875  157.2151  132.5916 H   0  0  0  0  0  0  0  0  0  0  0  0
  148.1316  155.6315  133.9471 H   0  0  0  0  0  0  0  0  0  0  0  0
  143.3480  156.6400  134.4880 H   0  0  0  0  0  0  0  0  0  0  0  0
  143.2661  159.9744  135.8621 H   0  0  0  0  0  0  0  0  0  0  0  0
  142.3446  160.5348  134.4187 H   0  0  0  0  0  0  0  0  0  0  0  0
  139.1020  159.2973  134.6958 H   0  0  0  0  0  0  0  0  0  0  0  0
  140.2216  158.9295  133.3317 H   0  0  0  0  0  0  0  0  0  0  0  0
  142.9571  154.9762  133.6872 H   0  0  0  0  0  0  0  0  0  0  0  0
  141.0162  152.8771  133.6995 H   0  0  0  0  0  0  0  0  0  0  0  0
  140.5457  154.0359  132.4101 H   0  0  0  0  0  0  0  0  0  0  0  0
  142.1892  153.3109  132.4101 H   0  0  0  0  0  0  0  0  0  0  0  0
  140.7894  153.9614  135.5397 H   0  0  0  0  0  0  0  0  0  0  0  0
  142.5796  153.9806  135.7517 H   0  0  0  0  0  0  0  0  0  0  0  0
  141.9300  156.4630  135.5170 H   0  0  0  0  0  0  0  0  0  0  0  0
  146.1779  160.3158  131.9189 H   0  0  0  0  0  0  0  0  0  0  0  0
  1  2  1  0
  2  3  2  0
  3  4  1  0
  4  5  2  0
  5  6  1  0
  6  7  2  0
  7  8  1  0
  8  9  1  0
  8 10  2  0
  7 11  1  0
 11 12  1  0
 12 13  2  0
 12 14  1  0
 14 15  1  0
 15 16  1  0
 16 17  1  0
 17 18  2  0
 17 19  1  0
 19 20  1  0
 20 21  1  0
 21 22  2  0
 21 23  1  0
 23 24  1  0
 24 25  1  0
 24 26  1  0
 26 27  1  0
 11 28  1  0
 28 29  2  0
 29  2  1  0
 28  5  1  0
  1 30  1  0
  1 31  1  0
  1 32  1  0
  3 33  1  0
  4 34  1  0
  6 35  1  0
  9 36  1  0
 15 37  1  0
 15 38  1  0
 19 39  1  0
 19 40  1  0
 24 41  1  1
 25 42  1  0
 25 43  1  0
 25 44  1  0
 26 45  1  0
 26 46  1  0
 27 47  1  0
 29 48  1  0
M  CHG  2   9  -1  20  -1
M  END
>  <UniqueID>  (33) 
32

>  <SMILES>  (33) 
Cc1ccc2cc(C([NH-])=O)n(C(=O)OCOC(=O)C[N-]C(=O)O[C@H](C)CO)c2c1

>  <Energy>  (33) 
73.57022919199275

>  <Genealogy>  (33) 
Cc1ccc2cc(C([NH-])=O)n(C(=O)OCOC(=O)C[N-]C(=O)OC(C)CO)c2c1 (protonated)
Cc1ccc2cc(C([NH-])=O)n(C(=O)OCOC(=O)C[N-]C(=O)O[C@H](C)CO)c2c1 (chirality)
Cc1ccc2cc(C([NH-])=O)n(C(=O)OCOC(=O)C[N-]C(=O)O[C@H](C)CO)c2c1 (3D coordinates assigned)
Cc1ccc2cc(C([NH-])=O)n(C(=O)OCOC(=O)C[N-]C(=O)O[C@H](C)CO)c2c1 (optimized conformer: 73.57022919199275 kcal/mol)

>  <smiles>  (33) 
Cc1ccc2cc(C(N)=O)n(C(=O)OCOC(=O)CNC(=O)OC(C)CO)c2c1

>  <score_type>  (33) 
oracle

>  <origin>  (33) 
adg

>  <m_score__min__energy>  (33) 
-5.5199999999999996

>  <m_primary>  (33) 
energy

$$$$
34:0
     RDKit          3D

 53 56  0  0  0  0  0  0  0  0999 V2000
  139.3490  150.0060  129.5360 C   0  0  0  0  0  0  0  0  0  0  0  0
  139.1230  149.0640  130.6460 N   0  0  0  0  0  0  0  0  0  0  0  0
  138.7350  149.7690  131.8960 C   0  0  0  0  0  0  0  0  0  0  0  0
  139.8660  149.8610  132.9390 C   0  0  0  0  0  0  0  0  0  0  0  0
  141.1680  149.9320  132.2710 N   0  0  0  0  0  0  0  0  0  0  0  0
  142.0750  151.0250  132.5140 C   0  0  0  0  0  0  0  0  0  0  0  0
  143.4760  150.8070  132.5020 C   0  0  0  0  0  0  0  0  0  0  0  0
  144.3700  151.8710  132.7140 C   0  0  0  0  0  0  0  0  0  0  0  0
  143.8380  153.1370  132.9330 C   0  0  0  0  0  0  0  0  0  0  0  0
  144.4710  154.3420  133.1390 C   0  0  0  0  0  0  0  0  0  0  0  0
  143.4470  155.2770  133.2820 C   0  0  0  0  0  0  0  0  0  0  0  0
  143.6770  156.6980  133.6090 C   0  0  0  0  0  0  0  0  0  0  0  0
  143.6590  157.6770  132.5720 N   0  0  0  0  0  0  0  0  0  0  0  0
  143.9230  157.0550  134.7910 O   0  0  0  0  0  0  0  0  0  0  0  0
  142.2310  154.6740  133.1590 N   0  0  0  0  0  0  0  0  0  0  0  0
  140.9340  155.2910  133.1700 C   0  0  0  0  0  0  0  0  0  0  0  0
  139.9310  154.6280  133.5520 O   0  0  0  0  0  0  0  0  0  0  0  0
  140.7720  156.6380  132.7040 N   0  0  0  0  0  0  0  0  0  0  0  0
  139.4750  157.3110  132.6750 C   0  0  0  0  0  0  0  0  0  0  0  0
  139.6520  158.8310  132.6070 C   0  0  1  0  0  0  0  0  0  0  0  0
  140.9770  159.1340  132.2550 O   0  0  0  0  0  0  0  0  0  0  0  0
  138.7080  159.4110  131.5920 C   0  0  0  0  0  0  0  0  0  0  0  0
  139.1200  160.1790  130.5610 N   0  0  0  0  0  0  0  0  0  0  0  0
  137.9780  160.5240  129.9430 C   0  0  0  0  0  0  0  0  0  0  0  0
  136.9130  159.9720  130.6130 C   0  0  0  0  0  0  0  0  0  0  0  0
  137.3680  159.2700  131.6650 N   0  0  0  0  0  0  0  0  0  0  0  0
  142.4870  153.3650  132.9520 C   0  0  0  0  0  0  0  0  0  0  0  0
  141.5740  152.3290  132.7310 C   0  0  0  0  0  0  0  0  0  0  0  0
  141.5240  148.8770  131.3160 C   0  0  0  0  0  0  0  0  0  0  0  0
  140.2650  148.1420  130.8240 C   0  0  0  0  0  0  0  0  0  0  0  0
  139.5875  151.0002  129.9417 H   0  0  0  0  0  0  0  0  0  0  0  0
  140.1875  149.6510  128.9188 H   0  0  0  0  0  0  0  0  0  0  0  0
  138.4407  150.0701  128.9188 H   0  0  0  0  0  0  0  0  0  0  0  0
  138.4215  150.7904  131.6343 H   0  0  0  0  0  0  0  0  0  0  0  0
  137.9252  149.1826  132.3546 H   0  0  0  0  0  0  0  0  0  0  0  0
  139.7225  150.7634  133.5515 H   0  0  0  0  0  0  0  0  0  0  0  0
  139.8390  148.9651  133.5766 H   0  0  0  0  0  0  0  0  0  0  0  0
  143.8676  149.7944  132.3249 H   0  0  0  0  0  0  0  0  0  0  0  0
  145.4577  151.7070  132.7069 H   0  0  0  0  0  0  0  0  0  0  0  0
  145.5544  154.5276  133.1817 H   0  0  0  0  0  0  0  0  0  0  0  0
  142.8560  158.3360  132.4690 H   0  0  0  0  0  0  0  0  0  0  0  0
  141.5930  157.1240  132.2780 H   0  0  0  0  0  0  0  0  0  0  0  0
  138.9133  156.9735  131.7915 H   0  0  0  0  0  0  0  0  0  0  0  0
  138.9274  157.0608  133.5956 H   0  0  0  0  0  0  0  0  0  0  0  0
  139.4287  159.2671  133.5918 H   0  0  0  0  0  0  0  0  0  0  0  0
  140.9750  159.3430  131.2840 H   0  0  0  0  0  0  0  0  0  0  0  0
  137.9068  161.1504  129.0416 H   0  0  0  0  0  0  0  0  0  0  0  0
  135.8555  160.0865  130.3328 H   0  0  0  0  0  0  0  0  0  0  0  0
  140.4915  152.5242  132.7261 H   0  0  0  0  0  0  0  0  0  0  0  0
  142.0386  149.3281  130.4548 H   0  0  0  0  0  0  0  0  0  0  0  0
  142.1830  148.1531  131.8178 H   0  0  0  0  0  0  0  0  0  0  0  0
  140.4877  147.6613  129.8600 H   0  0  0  0  0  0  0  0  0  0  0  0
  139.9865  147.3967  131.5836 H   0  0  0  0  0  0  0  0  0  0  0  0
  1  2  1  0
  2  3  1  0
  3  4  1  0
  4  5  1  0
  5  6  1  0
  6  7  2  0
  7  8  1  0
  8  9  2  0
  9 10  1  0
 10 11  2  0
 11 12  1  0
 12 13  1  0
 12 14  2  0
 11 15  1  0
 15 16  1  0
 16 17  2  0
 16 18  1  0
 18 19  1  0
 19 20  1  0
 20 21  1  0
 20 22  1  0
 22 23  2  0
 23 24  1  0
 24 25  2  0
 25 26  1  0
 15 27  1  0
 27 28  2  0
  5 29  1  0
 29 30  1  0
 30  2  1  0
 28  6  1  0
 27  9  1  0
 26 22  1  0
  1 31  1  0
  1 32  1  0
  1 33  1  0
  3 34  1  0
  3 35  1  0
  4 36  1  0
  4 37  1  0
  7 38  1  0
  8 39  1  0
 10 40  1  0
 13 41  1  0
 18 42  1  0
 19 43  1  0
 19 44  1  0
 20 45  1  1
 21 46  1  0
 24 47  1  0
 25 48  1  0
 28 49  1  0
 29 50  1  0
 29 51  1  0
 30 52  1  0
 30 53  1  0
M  CHG  2  13  -1  26  -1
M  END
>  <UniqueID>  (34) 
33

>  <SMILES>  (34) 
CN1CCN(c2ccc3cc(C([NH-])=O)n(C(=O)NC[C@@H](O)c4ncc[n-]4)c3c2)CC1

>  <Energy>  (34) 
128.38279664770087

>  <Genealogy>  (34) 
CN1CCN(c2ccc3cc(C([NH-])=O)n(C(=O)NCC(O)c4ncc[n-]4)c3c2)CC1 (protonated)
CN1CCN(c2ccc3cc(C([NH-])=O)n(C(=O)NC[C@@H](O)c4ncc[n-]4)c3c2)CC1 (chirality)
CN1CCN(c2ccc3cc(C([NH-])=O)n(C(=O)NC[C@@H](O)c4ncc[n-]4)c3c2)CC1 (3D coordinates assigned)
CN1CCN(c2ccc3cc(C([NH-])=O)n(C(=O)NC[C@@H](O)c4ncc[n-]4)c3c2)CC1 (nonaromatic ring conformer: 128.38279664770087 kcal/mol)

>  <smiles>  (34) 
CN1CCN(c2ccc3cc(C(N)=O)n(C(=O)NCC(O)c4ncc[nH]4)c3c2)CC1

>  <score_type>  (34) 
oracle

>  <origin>  (34) 
adg

>  <m_score__min__energy>  (34) 
-8.5399999999999991

>  <m_primary>  (34) 
energy

$$$$
35:0
     RDKit          3D

 32 33  0  0  0  0  0  0  0  0999 V2000
  148.2630  153.0510  134.1080 N   0  0  0  0  0  0  0  0  0  0  0  0
  148.6340  154.1100  133.2270 C   0  0  0  0  0  0  0  0  0  0  0  0
  149.6260  153.9610  132.4660 O   0  0  0  0  0  0  0  0  0  0  0  0
  147.8270  155.3480  133.1850 C   0  0  0  0  0  0  0  0  0  0  0  0
  148.3220  156.5740  132.7470 C   0  0  0  0  0  0  0  0  0  0  0  0
  147.3010  157.4730  132.9480 C   0  0  0  0  0  0  0  0  0  0  0  0
  147.2480  158.8380  132.6900 C   0  0  0  0  0  0  0  0  0  0  0  0
  146.0530  159.5180  132.9780 C   0  0  0  0  0  0  0  0  0  0  0  0
  144.9290  158.8230  133.4940 C   0  0  0  0  0  0  0  0  0  0  0  0
  143.6650  159.5710  133.8350 C   0  0  0  0  0  0  0  0  0  0  0  0
  143.9010  160.9290  133.7430 F   0  0  0  0  0  0  0  0  0  0  0  0
  143.2540  159.2720  135.1230 F   0  0  0  0  0  0  0  0  0  0  0  0
  142.6440  159.2300  132.9660 F   0  0  0  0  0  0  0  0  0  0  0  0
  145.0320  157.4390  133.7650 C   0  0  0  0  0  0  0  0  0  0  0  0
  146.2400  156.7910  133.4840 C   0  0  0  0  0  0  0  0  0  0  0  0
  146.5470  155.4830  133.6350 N   0  0  0  0  0  0  0  0  0  0  0  0
  145.6660  154.4470  134.0980 C   0  0  0  0  0  0  0  0  0  0  0  0
  144.9630  153.8030  133.2700 O   0  0  0  0  0  0  0  0  0  0  0  0
  145.6060  154.1430  135.4620 O   0  0  0  0  0  0  0  0  0  0  0  0
  146.7140  154.3030  136.3410 C   0  0  0  0  0  0  0  0  0  0  0  0
  147.1410  153.0360  136.7850 O   0  0  0  0  0  0  0  0  0  0  0  0
  148.0390  153.2470  138.2170 P   0  0  0  0  0  0  0  0  0  0  0  0
  149.2890  154.0350  137.9020 O   0  0  0  0  0  0  0  0  0  0  0  0
  148.4810  151.7420  138.8530 O   0  0  0  0  0  0  0  0  0  0  0  0
  147.1250  154.0960  139.3600 O   0  0  0  0  0  0  0  0  0  0  0  0
  147.3400  153.0590  134.5960 H   0  0  0  0  0  0  0  0  0  0  0  0
  149.3185  156.7796  132.3289 H   0  0  0  0  0  0  0  0  0  0  0  0
  148.1159  159.3697  132.2728 H   0  0  0  0  0  0  0  0  0  0  0  0
  145.9880  160.6018  132.8014 H   0  0  0  0  0  0  0  0  0  0  0  0
  144.1813  156.8840  134.1874 H   0  0  0  0  0  0  0  0  0  0  0  0
  147.5367  154.8025  135.8085 H   0  0  0  0  0  0  0  0  0  0  0  0
  146.4148  154.9152  137.2045 H   0  0  0  0  0  0  0  0  0  0  0  0
  1  2  1  0
  2  3  2  0
  2  4  1  0
  4  5  2  0
  5  6  1  0
  6  7  2  0
  7  8  1  0
  8  9  2  0
  9 10  1  0
 10 11  1  0
 10 12  1  0
 10 13  1  0
  9 14  1  0
 14 15  2  0
 15 16  1  0
 16 17  1  0
 17 18  2  0
 17 19  1  0
 19 20  1  0
 20 21  1  0
 21 22  1  0
 22 23  2  0
 22 24  1  0
 22 25  1  0
 16  4  1  0
 15  6  1  0
  1 26  1  0
  5 27  1  0
  7 28  1  0
  8 29  1  0
 14 30  1  0
 20 31  1  0
 20 32  1  0
M  CHG  3   1  -1  24  -1  25  -1
M  END
>  <UniqueID>  (35) 
34

>  <SMILES>  (35) 
[NH-]C(=O)c1cc2ccc(C(F)(F)F)cc2n1C(=O)OCOP(=O)([O-])[O-]

>  <Energy>  (35) 
69.00289011725627

>  <Genealogy>  (35) 
[NH-]C(=O)c1cc2ccc(C(F)(F)F)cc2n1C(=O)OCOP(=O)([O-])[O-] (protonated)
[NH-]C(=O)c1cc2ccc(C(F)(F)F)cc2n1C(=O)OCOP(=O)([O-])[O-] (3D coordinates assigned)
[NH-]C(=O)c1cc2ccc(C(F)(F)F)cc2n1C(=O)OCOP(=O)([O-])[O-] (optimized conformer: 69.00289011725627 kcal/mol)

>  <smiles>  (35) 
NC(=O)c1cc2ccc(C(F)(F)F)cc2n1C(=O)OCOP(=O)(O)O

>  <score_type>  (35) 
oracle

>  <origin>  (35) 
adg

>  <m_score__min__energy>  (35) 
-5.8799999999999999

>  <m_primary>  (35) 
energy

$$$$
36:0
     RDKit          3D

 42 43  0  0  0  0  0  0  0  0999 V2000
  139.5670  158.7590  132.6020 C   0  0  0  0  0  0  0  0  0  0  0  0
  140.4130  158.7100  133.8020 N   0  0  0  0  0  0  0  0  0  0  0  0
  139.8360  158.2010  135.0530 C   0  0  0  0  0  0  0  0  0  0  0  0
  141.7930  159.1580  133.7510 C   0  0  0  0  0  0  0  0  0  0  0  0
  142.1070  160.5460  133.7400 C   0  0  0  0  0  0  0  0  0  0  0  0
  143.4390  160.9890  133.7160 C   0  0  0  0  0  0  0  0  0  0  0  0
  144.4470  160.0320  133.6850 C   0  0  0  0  0  0  0  0  0  0  0  0
  145.8130  160.1910  133.7030 C   0  0  0  0  0  0  0  0  0  0  0  0
  146.3310  158.9000  133.6840 C   0  0  0  0  0  0  0  0  0  0  0  0
  147.7750  158.6090  133.6430 C   0  0  0  0  0  0  0  0  0  0  0  0
  148.2540  157.2660  133.6960 N   0  0  0  0  0  0  0  0  0  0  0  0
  148.5960  159.5550  133.5040 O   0  0  0  0  0  0  0  0  0  0  0  0
  145.3290  157.9750  133.6640 N   0  0  0  0  0  0  0  0  0  0  0  0
  145.4610  156.5450  133.7760 C   0  0  0  0  0  0  0  0  0  0  0  0
  145.3440  155.9870  134.9020 O   0  0  0  0  0  0  0  0  0  0  0  0
  145.7560  155.7780  132.6390 O   0  0  0  0  0  0  0  0  0  0  0  0
  145.2270  154.4660  132.4240 C   0  0  0  0  0  0  0  0  0  0  0  0
  145.9150  153.4220  133.3140 C   0  0  0  0  0  0  0  0  0  0  0  0
  147.4050  153.2900  132.9830 C   0  0  0  0  0  0  0  0  0  0  0  0
  148.1880  154.3910  133.6280 C   0  0  0  0  0  0  0  0  0  0  0  0
  149.0750  155.0040  132.9760 O   0  0  0  0  0  0  0  0  0  0  0  0
  147.9230  154.7560  134.9450 O   0  0  0  0  0  0  0  0  0  0  0  0
  144.1780  158.6890  133.6660 C   0  0  0  0  0  0  0  0  0  0  0  0
  142.8570  158.2170  133.7190 C   0  0  0  0  0  0  0  0  0  0  0  0
  138.5101  158.8202  132.9007 H   0  0  0  0  0  0  0  0  0  0  0  0
  139.8306  159.6434  132.0034 H   0  0  0  0  0  0  0  0  0  0  0  0
  139.7268  157.8501  132.0034 H   0  0  0  0  0  0  0  0  0  0  0  0
  140.3544  158.6583  135.9086 H   0  0  0  0  0  0  0  0  0  0  0  0
  138.7666  158.4553  135.0937 H   0  0  0  0  0  0  0  0  0  0  0  0
  139.9549  157.1082  135.0937 H   0  0  0  0  0  0  0  0  0  0  0  0
  141.2919  161.2846  133.7505 H   0  0  0  0  0  0  0  0  0  0  0  0
  143.6783  162.0626  133.7216 H   0  0  0  0  0  0  0  0  0  0  0  0
  146.3753  161.1361  133.7272 H   0  0  0  0  0  0  0  0  0  0  0  0
  149.2810  157.0830  133.7280 H   0  0  0  0  0  0  0  0  0  0  0  0
  147.5900  156.4570  133.6820 H   0  0  0  0  0  0  0  0  0  0  0  0
  144.1508  154.4742  132.6513 H   0  0  0  0  0  0  0  0  0  0  0  0
  145.4068  154.1924  131.3739 H   0  0  0  0  0  0  0  0  0  0  0  0
  145.8089  153.7247  134.3662 H   0  0  0  0  0  0  0  0  0  0  0  0
  145.4358  152.4483  133.1342 H   0  0  0  0  0  0  0  0  0  0  0  0
  147.7727  152.3210  133.3517 H   0  0  0  0  0  0  0  0  0  0  0  0
  147.5330  153.3558  131.8925 H   0  0  0  0  0  0  0  0  0  0  0  0
  142.6492  157.1369  133.7355 H   0  0  0  0  0  0  0  0  0  0  0  0
  1  2  1  0
  2  3  1  0
  2  4  1  0
  4  5  2  0
  5  6  1  0
  6  7  2  0
  7  8  1  0
  8  9  2  0
  9 10  1  0
 10 11  1  0
 10 12  2  0
  9 13  1  0
 13 14  1  0
 14 15  2  0
 14 16  1  0
 16 17  1  0
 17 18  1  0
 18 19  1  0
 19 20  1  0
 20 21  2  0
 20 22  1  0
 13 23  1  0
 23 24  2  0
 24  4  1  0
 23  7  1  0
  1 25  1  0
  1 26  1  0
  1 27  1  0
  3 28  1  0
  3 29  1  0
  3 30  1  0
  5 31  1  0
  6 32  1  0
  8 33  1  0
 11 34  1  0
 11 35  1  0
 17 36  1  0
 17 37  1  0
 18 38  1  0
 18 39  1  0
 19 40  1  0
 19 41  1  0
 24 42  1  0
M  CHG  1  22  -1
M  END
>  <UniqueID>  (36) 
35

>  <SMILES>  (36) 
CN(C)c1ccc2cc(C(N)=O)n(C(=O)OCCCC(=O)[O-])c2c1

>  <Energy>  (36) 
77.03409167094361

>  <Genealogy>  (36) 
CN(C)c1ccc2cc(C(N)=O)n(C(=O)OCCCC(=O)[O-])c2c1 (protonated)
CN(C)c1ccc2cc(C(N)=O)n(C(=O)OCCCC(=O)[O-])c2c1 (3D coordinates assigned)
CN(C)c1ccc2cc(C(N)=O)n(C(=O)OCCCC(=O)[O-])c2c1 (optimized conformer: 77.03409167094361 kcal/mol)

>  <smiles>  (36) 
CN(C)c1ccc2cc(C(N)=O)n(C(=O)OCCCC(=O)O)c2c1

>  <score_type>  (36) 
oracle

>  <origin>  (36) 
adg

>  <m_score__min__energy>  (36) 
-5.9299999999999997

>  <m_primary>  (36) 
energy

$$$$
37:0
     RDKit          3D

 45 47  0  0  0  0  0  0  0  0999 V2000
  144.7130  161.7770  133.8300 C   0  0  0  0  0  0  0  0  0  0  0  0
  145.1510  160.4240  133.5210 N   0  0  0  0  0  0  0  0  0  0  0  0
  144.4450  159.3000  133.7360 C   0  0  0  0  0  0  0  0  0  0  0  0
  145.2340  158.2200  133.3820 C   0  0  0  0  0  0  0  0  0  0  0  0
  144.8820  156.7780  133.4470 C   0  0  0  0  0  0  0  0  0  0  0  0
  145.8990  155.7870  133.4150 C   0  0  0  0  0  0  0  0  0  0  0  0
  145.5760  154.4200  133.4640 C   0  0  0  0  0  0  0  0  0  0  0  0
  144.2340  154.0700  133.5520 C   0  0  0  0  0  0  0  0  0  0  0  0
  143.6460  152.8250  133.5870 C   0  0  0  0  0  0  0  0  0  0  0  0
  142.2760  153.0670  133.6630 C   0  0  0  0  0  0  0  0  0  0  0  0
  141.2570  152.0040  133.8100 C   0  0  0  0  0  0  0  0  0  0  0  0
  140.1750  151.8960  132.8830 N   0  0  0  0  0  0  0  0  0  0  0  0
  141.3510  151.1630  134.7420 O   0  0  0  0  0  0  0  0  0  0  0  0
  142.0280  154.4070  133.6740 N   0  0  0  0  0  0  0  0  0  0  0  0
  140.7450  155.0550  133.6710 C   0  0  0  0  0  0  0  0  0  0  0  0
  139.8060  154.5800  132.9790 O   0  0  0  0  0  0  0  0  0  0  0  0
  140.5540  156.2060  134.4520 O   0  0  0  0  0  0  0  0  0  0  0  0
  140.1680  157.5040  133.9750 C   0  0  0  0  0  0  0  0  0  0  0  0
  140.8890  157.8340  132.6550 C   0  0  0  0  0  0  0  0  0  0  0  0
  140.4610  158.5800  135.0390 C   0  0  0  0  0  0  0  0  0  0  0  0
  138.6550  157.4600  133.7180 C   0  0  0  0  0  0  0  0  0  0  0  0
  143.2370  155.0070  133.6050 C   0  0  0  0  0  0  0  0  0  0  0  0
  143.5270  156.3750  133.5380 C   0  0  0  0  0  0  0  0  0  0  0  0
  146.4320  158.7830  132.9630 C   0  0  0  0  0  0  0  0  0  0  0  0
  146.3570  160.1250  133.0650 N   0  0  0  0  0  0  0  0  0  0  0  0
  144.6705  161.9084  134.9213 H   0  0  0  0  0  0  0  0  0  0  0  0
  145.4232  162.4993  133.4011 H   0  0  0  0  0  0  0  0  0  0  0  0
  143.7142  161.9460  133.4011 H   0  0  0  0  0  0  0  0  0  0  0  0
  143.4177  159.2481  134.1259 H   0  0  0  0  0  0  0  0  0  0  0  0
  146.9535  156.0935  133.3510 H   0  0  0  0  0  0  0  0  0  0  0  0
  146.3616  153.6506  133.4336 H   0  0  0  0  0  0  0  0  0  0  0  0
  144.1505  151.8479  133.5606 H   0  0  0  0  0  0  0  0  0  0  0  0
  139.4830  151.1200  132.9740 H   0  0  0  0  0  0  0  0  0  0  0  0
  140.0340  152.6060  132.1300 H   0  0  0  0  0  0  0  0  0  0  0  0
  141.8691  158.2826  132.8747 H   0  0  0  0  0  0  0  0  0  0  0  0
  141.0303  156.9109  132.0737 H   0  0  0  0  0  0  0  0  0  0  0  0
  140.2827  158.5443  132.0737 H   0  0  0  0  0  0  0  0  0  0  0  0
  140.3426  158.1452  136.0425 H   0  0  0  0  0  0  0  0  0  0  0  0
  141.4913  158.9454  134.9169 H   0  0  0  0  0  0  0  0  0  0  0  0
  139.7582  159.4173  134.9169 H   0  0  0  0  0  0  0  0  0  0  0  0
  138.1201  157.4445  134.6791 H   0  0  0  0  0  0  0  0  0  0  0  0
  138.3543  158.3498  133.1454 H   0  0  0  0  0  0  0  0  0  0  0  0
  138.4065  156.5543  133.1454 H   0  0  0  0  0  0  0  0  0  0  0  0
  142.7193  157.1215  133.5556 H   0  0  0  0  0  0  0  0  0  0  0  0
  147.3067  158.2211  132.6036 H   0  0  0  0  0  0  0  0  0  0  0  0
  1  2  1  0
  2  3  1  0
  3  4  2  0
  4  5  1  0
  5  6  2  0
  6  7  1  0
  7  8  2  0
  8  9  1  0
  9 10  2  0
 10 11  1  0
 11 12  1  0
 11 13  2  0
 10 14  1  0
 14 15  1  0
 15 16  2  0
 15 17  1  0
 17 18  1  0
 18 19  1  0
 18 20  1  0
 18 21  1  0
 14 22  1  0
 22 23  2  0
  4 24  1  0
 24 25  2  0
 25  2  1  0
 23  5  1  0
 22  8  1  0
  1 26  1  0
  1 27  1  0
  1 28  1  0
  3 29  1  0
  6 30  1  0
  7 31  1  0
  9 32  1  0
 12 33  1  0
 12 34  1  0
 19 35  1  0
 19 36  1  0
 19 37  1  0
 20 38  1  0
 20 39  1  0
 20 40  1  0
 21 41  1  0
 21 42  1  0
 21 43  1  0
 23 44  1  0
 24 45  1  0
M  END
>  <UniqueID>  (37) 
36

>  <SMILES>  (37) 
Cn1cc(-c2ccc3cc(C(N)=O)n(C(=O)OC(C)(C)C)c3c2)cn1

>  <Energy>  (37) 
111.46763582779741

>  <Genealogy>  (37) 
Cn1cc(-c2ccc3cc(C(N)=O)n(C(=O)OC(C)(C)C)c3c2)cn1 (3D coordinates assigned)
Cn1cc(-c2ccc3cc(C(N)=O)n(C(=O)OC(C)(C)C)c3c2)cn1 (optimized conformer: 111.46763582779741 kcal/mol)

>  <smiles>  (37) 
Cn1cc(-c2ccc3cc(C(N)=O)n(C(=O)OC(C)(C)C)c3c2)cn1

>  <score_type>  (37) 
oracle

>  <origin>  (37) 
adg

>  <m_score__min__energy>  (37) 
-7.9800000000000004

>  <m_primary>  (37) 
energy

$$$$
38:0
     RDKit          3D

 44 46  0  0  0  0  0  0  0  0999 V2000
  141.6160  160.4940  133.3750 C   0  0  0  0  0  0  0  0  0  0  0  0
  140.2770  160.0780  133.5240 O   0  0  0  0  0  0  0  0  0  0  0  0
  139.7760  159.5730  132.3000 C   0  0  0  0  0  0  0  0  0  0  0  0
  138.7060  158.5090  132.5540 C   0  0  0  0  0  0  0  0  0  0  0  0
  139.1450  157.5690  133.5320 O   0  0  0  0  0  0  0  0  0  0  0  0
  139.6070  156.2860  133.2160 C   0  0  0  0  0  0  0  0  0  0  0  0
  139.1180  155.6510  132.2430 O   0  0  0  0  0  0  0  0  0  0  0  0
  140.6620  155.6990  133.9950 N   0  0  0  0  0  0  0  0  0  0  0  0
  141.5060  156.3280  134.8600 C   0  0  0  0  0  0  0  0  0  0  0  0
  141.4010  157.7300  135.3130 C   0  0  0  0  0  0  0  0  0  0  0  0
  140.1680  158.2510  135.8010 N   0  0  0  0  0  0  0  0  0  0  0  0
  142.4240  158.4640  135.3140 O   0  0  0  0  0  0  0  0  0  0  0  0
  142.4650  155.4370  135.3400 C   0  0  0  0  0  0  0  0  0  0  0  0
  142.1750  154.2330  134.7430 C   0  0  0  0  0  0  0  0  0  0  0  0
  142.8170  153.0040  134.8490 C   0  0  0  0  0  0  0  0  0  0  0  0
  142.3210  151.9310  134.0890 C   0  0  0  0  0  0  0  0  0  0  0  0
  141.2020  152.1050  133.2310 C   0  0  0  0  0  0  0  0  0  0  0  0
  140.6950  150.9690  132.4200 C   0  0  0  0  0  0  0  0  0  0  0  0
  141.5530  149.9220  132.0390 C   0  0  0  0  0  0  0  0  0  0  0  0
  141.0750  148.8540  131.2760 C   0  0  0  0  0  0  0  0  0  0  0  0
  139.7270  148.8090  130.8760 C   0  0  0  0  0  0  0  0  0  0  0  0
  139.2170  147.6790  130.0680 C   0  0  0  0  0  0  0  0  0  0  0  0
  139.5400  146.4940  130.3460 O   0  0  0  0  0  0  0  0  0  0  0  0
  138.3730  147.9110  128.9870 O   0  0  0  0  0  0  0  0  0  0  0  0
  138.8700  149.8530  131.2570 C   0  0  0  0  0  0  0  0  0  0  0  0
  139.3480  150.9220  132.0210 C   0  0  0  0  0  0  0  0  0  0  0  0
  140.5780  153.3720  133.1520 C   0  0  0  0  0  0  0  0  0  0  0  0
  141.0830  154.4160  133.9350 C   0  0  0  0  0  0  0  0  0  0  0  0
  142.0688  160.6347  134.3675 H   0  0  0  0  0  0  0  0  0  0  0  0
  142.1783  159.7282  132.8206 H   0  0  0  0  0  0  0  0  0  0  0  0
  141.6454  161.4436  132.8206 H   0  0  0  0  0  0  0  0  0  0  0  0
  139.3350  160.3984  131.7218 H   0  0  0  0  0  0  0  0  0  0  0  0
  140.6046  159.1158  131.7393 H   0  0  0  0  0  0  0  0  0  0  0  0
  137.7886  158.9991  132.9119 H   0  0  0  0  0  0  0  0  0  0  0  0
  138.5132  157.9729  131.6130 H   0  0  0  0  0  0  0  0  0  0  0  0
  139.5760  158.8750  135.2090 H   0  0  0  0  0  0  0  0  0  0  0  0
  143.2804  155.6518  136.0463 H   0  0  0  0  0  0  0  0  0  0  0  0
  143.6878  152.8754  135.5086 H   0  0  0  0  0  0  0  0  0  0  0  0
  142.8045  150.9455  134.1592 H   0  0  0  0  0  0  0  0  0  0  0  0
  142.6095  149.9442  132.3444 H   0  0  0  0  0  0  0  0  0  0  0  0
  141.7578  148.0419  130.9857 H   0  0  0  0  0  0  0  0  0  0  0  0
  137.8134  149.8301  130.9520 H   0  0  0  0  0  0  0  0  0  0  0  0
  138.6643  151.7330  132.3122 H   0  0  0  0  0  0  0  0  0  0  0  0
  139.7147  153.5330  132.4896 H   0  0  0  0  0  0  0  0  0  0  0  0
  1  2  1  0
  2  3  1  0
  3  4  1  0
  4  5  1  0
  5  6  1  0
  6  7  2  0
  6  8  1  0
  8  9  1  0
  9 10  1  0
 10 11  1  0
 10 12  2  0
  9 13  2  0
 13 14  1  0
 14 15  2  0
 15 16  1  0
 16 17  2  0
 17 18  1  0
 18 19  2  0
 19 20  1  0
 20 21  2  0
 21 22  1  0
 22 23  2  0
 22 24  1  0
 21 25  1  0
 25 26  2  0
 17 27  1  0
 27 28  2  0
 28  8  1  0
 28 14  1  0
 26 18  1  0
  1 29  1  0
  1 30  1  0
  1 31  1  0
  3 32  1  0
  3 33  1  0
  4 34  1  0
  4 35  1  0
 11 36  1  0
 13 37  1  0
 15 38  1  0
 16 39  1  0
 19 40  1  0
 20 41  1  0
 25 42  1  0
 26 43  1  0
 27 44  1  0
M  CHG  2  11  -1  24  -1
M  END
>  <UniqueID>  (38) 
37

>  <SMILES>  (38) 
COCCOC(=O)n1c(C([NH-])=O)cc2ccc(-c3ccc(C(=O)[O-])cc3)cc21

>  <Energy>  (38) 
90.44915506091358

>  <Genealogy>  (38) 
COCCOC(=O)n1c(C([NH-])=O)cc2ccc(-c3ccc(C(=O)[O-])cc3)cc21 (protonated)
COCCOC(=O)n1c(C([NH-])=O)cc2ccc(-c3ccc(C(=O)[O-])cc3)cc21 (3D coordinates assigned)
COCCOC(=O)n1c(C([NH-])=O)cc2ccc(-c3ccc(C(=O)[O-])cc3)cc21 (optimized conformer: 90.44915506091358 kcal/mol)

>  <smiles>  (38) 
COCCOC(=O)n1c(C(N)=O)cc2ccc(-c3ccc(C(=O)O)cc3)cc21

>  <score_type>  (38) 
oracle

>  <origin>  (38) 
adg

>  <m_score__min__energy>  (38) 
-7.9100000000000001

>  <m_primary>  (38) 
energy

$$$$
40:0
     RDKit          3D

 40 41  0  0  0  0  0  0  0  0999 V2000
  146.3920  154.1300  133.0350 C   0  0  0  0  0  0  0  0  0  0  0  0
  147.5750  154.9860  132.8810 N   0  0  0  0  0  0  0  0  0  0  0  0
  148.8720  154.3580  132.5970 C   0  0  0  0  0  0  0  0  0  0  0  0
  147.4650  156.4280  133.0060 C   0  0  0  0  0  0  0  0  0  0  0  0
  148.6180  157.2580  132.9040 C   0  0  0  0  0  0  0  0  0  0  0  0
  148.5230  158.6520  133.0410 C   0  0  0  0  0  0  0  0  0  0  0  0
  147.2690  159.2020  133.2720 C   0  0  0  0  0  0  0  0  0  0  0  0
  146.8990  160.5130  133.4770 C   0  0  0  0  0  0  0  0  0  0  0  0
  145.5220  160.4800  133.6810 C   0  0  0  0  0  0  0  0  0  0  0  0
  144.6930  161.6880  133.8770 C   0  0  0  0  0  0  0  0  0  0  0  0
  143.2780  161.6100  133.7250 N   0  0  0  0  0  0  0  0  0  0  0  0
  145.2190  162.7840  134.2060 O   0  0  0  0  0  0  0  0  0  0  0  0
  145.0590  159.2000  133.6050 N   0  0  0  0  0  0  0  0  0  0  0  0
  143.7230  158.7330  133.8350 C   0  0  0  0  0  0  0  0  0  0  0  0
  143.1800  158.9190  134.9590 O   0  0  0  0  0  0  0  0  0  0  0  0
  143.0190  158.1070  132.8000 O   0  0  0  0  0  0  0  0  0  0  0  0
  142.0110  157.1180  133.0130 C   0  0  0  0  0  0  0  0  0  0  0  0
  140.6480  157.7710  133.2780 C   0  0  0  0  0  0  0  0  0  0  0  0
  140.4500  159.0950  132.5330 C   0  0  0  0  0  0  0  0  0  0  0  0
  141.0040  160.1530  133.2670 O   0  0  0  0  0  0  0  0  0  0  0  0
  146.1420  158.4310  133.3550 C   0  0  0  0  0  0  0  0  0  0  0  0
  146.2060  157.0380  133.2410 C   0  0  0  0  0  0  0  0  0  0  0  0
  146.1847  153.9800  134.1048 H   0  0  0  0  0  0  0  0  0  0  0  0
  145.5260  154.6120  132.5578 H   0  0  0  0  0  0  0  0  0  0  0  0
  146.5790  153.1567  132.5578 H   0  0  0  0  0  0  0  0  0  0  0  0
  149.3763  154.1138  133.5436 H   0  0  0  0  0  0  0  0  0  0  0  0
  148.7141  153.4365  132.0173 H   0  0  0  0  0  0  0  0  0  0  0  0
  149.4969  155.0533  132.0173 H   0  0  0  0  0  0  0  0  0  0  0  0
  149.5996  156.7990  132.7147 H   0  0  0  0  0  0  0  0  0  0  0  0
  149.4160  159.2900  132.9675 H   0  0  0  0  0  0  0  0  0  0  0  0
  147.5525  161.3979  133.4791 H   0  0  0  0  0  0  0  0  0  0  0  0
  142.7430  160.7910  134.0920 H   0  0  0  0  0  0  0  0  0  0  0  0
  141.9372  156.4812  132.1191 H   0  0  0  0  0  0  0  0  0  0  0  0
  142.2890  156.5176  133.8918 H   0  0  0  0  0  0  0  0  0  0  0  0
  139.8596  157.0721  132.9617 H   0  0  0  0  0  0  0  0  0  0  0  0
  140.5998  157.9946  134.3540 H   0  0  0  0  0  0  0  0  0  0  0  0
  140.9433  159.0366  131.5516 H   0  0  0  0  0  0  0  0  0  0  0  0
  139.3727  159.2750  132.4027 H   0  0  0  0  0  0  0  0  0  0  0  0
  141.9560  159.9140  133.4140 H   0  0  0  0  0  0  0  0  0  0  0  0
  145.2961  156.4266  133.3320 H   0  0  0  0  0  0  0  0  0  0  0  0
  1  2  1  0
  2  3  1  0
  2  4  1  0
  4  5  2  0
  5  6  1  0
  6  7  2  0
  7  8  1  0
  8  9  2  0
  9 10  1  0
 10 11  1  0
 10 12  2  0
  9 13  1  0
 13 14  1  0
 14 15  2  0
 14 16  1  0
 16 17  1  0
 17 18  1  0
 18 19  1  0
 19 20  1  0
 13 21  1  0
 21 22  2  0
 22  4  1  0
 21  7  1  0
  1 23  1  0
  1 24  1  0
  1 25  1  0
  3 26  1  0
  3 27  1  0
  3 28  1  0
  5 29  1  0
  6 30  1  0
  8 31  1  0
 11 32  1  0
 17 33  1  0
 17 34  1  0
 18 35  1  0
 18 36  1  0
 19 37  1  0
 19 38  1  0
 20 39  1  0
 22 40  1  0
M  CHG  1  11  -1
M  END
>  <UniqueID>  (39) 
38

>  <SMILES>  (39) 
CN(C)c1ccc2cc(C([NH-])=O)n(C(=O)OCCCO)c2c1

>  <Energy>  (39) 
75.0896643049006

>  <Genealogy>  (39) 
CN(C)c1ccc2cc(C([NH-])=O)n(C(=O)OCCCO)c2c1 (protonated)
CN(C)c1ccc2cc(C([NH-])=O)n(C(=O)OCCCO)c2c1 (3D coordinates assigned)
CN(C)c1ccc2cc(C([NH-])=O)n(C(=O)OCCCO)c2c1 (optimized conformer: 75.0896643049006 kcal/mol)

>  <smiles>  (39) 
CN(C)c1ccc2cc(C(N)=O)n(C(=O)OCCCO)c2c1

>  <score_type>  (39) 
oracle

>  <origin>  (39) 
adg

>  <m_score__min__energy>  (39) 
-5.4299999999999997

>  <m_primary>  (39) 
energy

$$$$
41:0
     RDKit          3D

 45 46  0  0  0  0  0  0  0  0999 V2000
  147.4020  153.8380  133.3610 C   0  0  0  0  0  0  0  0  0  0  0  0
  147.3010  155.3030  133.3690 N   0  0  0  0  0  0  0  0  0  0  0  0
  148.4710  156.0960  132.9720 C   0  0  0  0  0  0  0  0  0  0  0  0
  146.0650  155.9560  133.7600 C   0  0  0  0  0  0  0  0  0  0  0  0
  145.7210  157.2350  133.2340 C   0  0  0  0  0  0  0  0  0  0  0  0
  144.5210  157.8690  133.5950 C   0  0  0  0  0  0  0  0  0  0  0  0
  143.6800  157.2160  134.4880 C   0  0  0  0  0  0  0  0  0  0  0  0
  142.4480  157.5890  134.9770 C   0  0  0  0  0  0  0  0  0  0  0  0
  142.0570  156.5490  135.8190 C   0  0  0  0  0  0  0  0  0  0  0  0
  140.8150  156.5730  136.6190 C   0  0  0  0  0  0  0  0  0  0  0  0
  140.6100  155.6470  137.6820 N   0  0  0  0  0  0  0  0  0  0  0  0
  139.9430  157.4530  136.3920 O   0  0  0  0  0  0  0  0  0  0  0  0
  143.0070  155.5730  135.8430 N   0  0  0  0  0  0  0  0  0  0  0  0
  142.9400  154.3000  136.5050 C   0  0  0  0  0  0  0  0  0  0  0  0
  141.9910  153.5100  136.2500 O   0  0  0  0  0  0  0  0  0  0  0  0
  143.9210  153.9540  137.4410 O   0  0  0  0  0  0  0  0  0  0  0  0
  143.8770  152.7660  138.2300 C   0  0  0  0  0  0  0  0  0  0  0  0
  143.0620  152.9960  139.5100 C   0  0  1  0  0  0  0  0  0  0  0  0
  142.1940  154.0850  139.3250 O   0  0  0  0  0  0  0  0  0  0  0  0
  142.2500  151.7430  139.8650 C   0  0  0  0  0  0  0  0  0  0  0  0
  142.0750  150.9590  138.7080 O   0  0  0  0  0  0  0  0  0  0  0  0
  140.5480  151.3120  138.0360 P   0  0  2  0  0  0  0  0  0  0  0  0
  139.5060  150.3670  138.5940 O   0  0  0  0  0  0  0  0  0  0  0  0
  140.6320  151.1040  136.3600 O   0  0  0  0  0  0  0  0  0  0  0  0
  140.1080  152.9160  138.3630 O   0  0  0  0  0  0  0  0  0  0  0  0
  143.9930  155.9970  135.0230 C   0  0  0  0  0  0  0  0  0  0  0  0
  145.1720  155.3300  134.6690 C   0  0  0  0  0  0  0  0  0  0  0  0
  147.4276  153.4666  134.3961 H   0  0  0  0  0  0  0  0  0  0  0  0
  146.5310  153.4133  132.8405 H   0  0  0  0  0  0  0  0  0  0  0  0
  148.3230  153.5368  132.8405 H   0  0  0  0  0  0  0  0  0  0  0  0
  148.9954  156.4514  133.8713 H   0  0  0  0  0  0  0  0  0  0  0  0
  149.1510  155.4719  132.3736 H   0  0  0  0  0  0  0  0  0  0  0  0
  148.1432  156.9588  132.3736 H   0  0  0  0  0  0  0  0  0  0  0  0
  146.4068  157.7340  132.5335 H   0  0  0  0  0  0  0  0  0  0  0  0
  144.2546  158.8535  133.1830 H   0  0  0  0  0  0  0  0  0  0  0  0
  141.8913  158.5106  134.7515 H   0  0  0  0  0  0  0  0  0  0  0  0
  141.0360  154.6940  137.6560 H   0  0  0  0  0  0  0  0  0  0  0  0
  143.4101  151.9604  137.6443 H   0  0  0  0  0  0  0  0  0  0  0  0
  144.9040  152.4882  138.5093 H   0  0  0  0  0  0  0  0  0  0  0  0
  143.7552  153.2111  140.3365 H   0  0  0  0  0  0  0  0  0  0  0  0
  141.9350  154.0910  138.3670 H   0  0  0  0  0  0  0  0  0  0  0  0
  142.7885  151.1596  140.6263 H   0  0  0  0  0  0  0  0  0  0  0  0
  141.2677  152.0402  140.2611 H   0  0  0  0  0  0  0  0  0  0  0  0
  140.7390  153.4710  137.8390 H   0  0  0  0  0  0  0  0  0  0  0  0
  145.4022  154.3391  135.0875 H   0  0  0  0  0  0  0  0  0  0  0  0
  1  2  1  0
  2  3  1  0
  2  4  1  0
  4  5  2  0
  5  6  1  0
  6  7  2  0
  7  8  1  0
  8  9  2  0
  9 10  1  0
 10 11  1  0
 10 12  2  0
  9 13  1  0
 13 14  1  0
 14 15  2  0
 14 16  1  0
 16 17  1  0
 17 18  1  0
 18 19  1  0
 18 20  1  0
 20 21  1  0
 21 22  1  0
 22 23  2  0
 22 24  1  6
 22 25  1  0
 13 26  1  0
 26 27  2  0
 27  4  1  0
 26  7  1  0
  1 28  1  0
  1 29  1  0
  1 30  1  0
  3 31  1  0
  3 32  1  0
  3 33  1  0
  5 34  1  0
  6 35  1  0
  8 36  1  0
 11 37  1  0
 17 38  1  0
 17 39  1  0
 18 40  1  1
 19 41  1  0
 20 42  1  0
 20 43  1  0
 25 44  1  0
 27 45  1  0
M  CHG  2  11  -1  24  -1
M  END
>  <UniqueID>  (40) 
39

>  <SMILES>  (40) 
CN(C)c1ccc2cc(C([NH-])=O)n(C(=O)OC[C@@H](O)CO[P@](=O)([O-])O)c2c1

>  <Energy>  (40) 
79.23932295841253

>  <Genealogy>  (40) 
CN(C)c1ccc2cc(C([NH-])=O)n(C(=O)OCC(O)COP(=O)([O-])O)c2c1 (protonated)
CN(C)c1ccc2cc(C([NH-])=O)n(C(=O)OC[C@@H](O)CO[P@](=O)([O-])O)c2c1 (chirality)
CN(C)c1ccc2cc(C([NH-])=O)n(C(=O)OC[C@@H](O)CO[P@](=O)([O-])O)c2c1 (3D coordinates assigned)
CN(C)c1ccc2cc(C([NH-])=O)n(C(=O)OC[C@@H](O)CO[P@](=O)([O-])O)c2c1 (optimized conformer: 79.23932295841253 kcal/mol)

>  <smiles>  (40) 
CN(C)c1ccc2cc(C(N)=O)n(C(=O)OCC(O)COP(=O)(O)O)c2c1

>  <score_type>  (40) 
oracle

>  <origin>  (40) 
adg

>  <m_score__min__energy>  (40) 
-5.6200000000000001

>  <m_primary>  (40) 
energy

$$$$
42:0
     RDKit          3D

 40 41  0  0  0  0  0  0  0  0999 V2000
  148.8530  154.2930  132.6200 C   0  0  0  0  0  0  0  0  0  0  0  0
  148.3700  155.3880  132.7620 C   0  0  0  0  0  0  0  0  0  0  0  0
  147.7860  156.6920  132.9330 C   0  0  0  0  0  0  0  0  0  0  0  0
  148.5790  157.8520  132.7570 C   0  0  0  0  0  0  0  0  0  0  0  0
  148.0110  159.1300  132.9100 C   0  0  0  0  0  0  0  0  0  0  0  0
  146.6590  159.2110  133.2400 C   0  0  0  0  0  0  0  0  0  0  0  0
  145.8530  160.3120  133.4420 C   0  0  0  0  0  0  0  0  0  0  0  0
  144.5860  159.7980  133.7340 C   0  0  0  0  0  0  0  0  0  0  0  0
  143.3960  160.6160  134.0790 C   0  0  0  0  0  0  0  0  0  0  0  0
  142.3200  160.0730  134.8480 N   0  0  0  0  0  0  0  0  0  0  0  0
  143.3180  161.8100  133.6870 O   0  0  0  0  0  0  0  0  0  0  0  0
  144.6190  158.4360  133.7110 N   0  0  0  0  0  0  0  0  0  0  0  0
  143.5360  157.5230  133.9100 C   0  0  0  0  0  0  0  0  0  0  0  0
  143.2530  157.1330  135.0770 O   0  0  0  0  0  0  0  0  0  0  0  0
  142.8540  156.9020  132.7300 C   0  0  0  0  0  0  0  0  0  0  0  0
  141.4170  156.7720  133.0040 N   0  0  0  0  0  0  0  0  0  0  0  0
  140.8600  155.4730  133.3970 C   0  0  0  0  0  0  0  0  0  0  0  0
  140.5700  157.9370  133.0360 C   0  0  0  0  0  0  0  0  0  0  0  0
  139.9690  158.3150  131.9920 O   0  0  0  0  0  0  0  0  0  0  0  0
  140.4070  158.6460  134.2320 O   0  0  0  0  0  0  0  0  0  0  0  0
  139.5590  158.1960  135.2860 C   0  0  0  0  0  0  0  0  0  0  0  0
  140.2750  158.3350  136.5890 C   0  0  0  0  0  0  0  0  0  0  0  0
  140.2430  157.4020  137.4340 O   0  0  0  0  0  0  0  0  0  0  0  0
  140.9800  159.4990  136.8720 O   0  0  0  0  0  0  0  0  0  0  0  0
  145.8860  158.0920  133.4080 C   0  0  0  0  0  0  0  0  0  0  0  0
  146.4170  156.8080  133.2550 C   0  0  0  0  0  0  0  0  0  0  0  0
  149.2938  153.2936  132.4904 H   0  0  0  0  0  0  0  0  0  0  0  0
  149.6439  157.7534  132.4995 H   0  0  0  0  0  0  0  0  0  0  0  0
  148.6159  160.0385  132.7733 H   0  0  0  0  0  0  0  0  0  0  0  0
  146.1454  161.3709  133.3853 H   0  0  0  0  0  0  0  0  0  0  0  0
  142.3160  159.0840  135.1740 H   0  0  0  0  0  0  0  0  0  0  0  0
  141.4940  160.6690  135.0790 H   0  0  0  0  0  0  0  0  0  0  0  0
  143.0019  157.5383  131.8450 H   0  0  0  0  0  0  0  0  0  0  0  0
  143.2819  155.9060  132.5430 H   0  0  0  0  0  0  0  0  0  0  0  0
  140.8303  155.4037  134.4944 H   0  0  0  0  0  0  0  0  0  0  0  0
  139.8406  155.3746  132.9956 H   0  0  0  0  0  0  0  0  0  0  0  0
  141.4915  154.6667  132.9956 H   0  0  0  0  0  0  0  0  0  0  0  0
  138.6418  158.8029  135.3042 H   0  0  0  0  0  0  0  0  0  0  0  0
  139.2949  157.1409  135.1214 H   0  0  0  0  0  0  0  0  0  0  0  0
  145.7869  155.9153  133.3817 H   0  0  0  0  0  0  0  0  0  0  0  0
  1  2  3  0
  2  3  1  0
  3  4  2  0
  4  5  1  0
  5  6  2  0
  6  7  1  0
  7  8  2  0
  8  9  1  0
  9 10  1  0
  9 11  2  0
  8 12  1  0
 12 13  1  0
 13 14  2  0
 13 15  1  0
 15 16  1  0
 16 17  1  0
 16 18  1  0
 18 19  2  0
 18 20  1  0
 20 21  1  0
 21 22  1  0
 22 23  2  0
 22 24  1  0
 12 25  1  0
 25 26  2  0
 26  3  1  0
 25  6  1  0
  1 27  1  0
  4 28  1  0
  5 29  1  0
  7 30  1  0
 10 31  1  0
 10 32  1  0
 15 33  1  0
 15 34  1  0
 17 35  1  0
 17 36  1  0
 17 37  1  0
 21 38  1  0
 21 39  1  0
 26 40  1  0
M  CHG  1  24  -1
M  END
>  <UniqueID>  (41) 
40

>  <SMILES>  (41) 
C#Cc1ccc2cc(C(N)=O)n(C(=O)CN(C)C(=O)OCC(=O)[O-])c2c1

>  <Energy>  (41) 
69.93686383581475

>  <Genealogy>  (41) 
C#Cc1ccc2cc(C(N)=O)n(C(=O)CN(C)C(=O)OCC(=O)[O-])c2c1 (protonated)
C#Cc1ccc2cc(C(N)=O)n(C(=O)CN(C)C(=O)OCC(=O)[O-])c2c1 (3D coordinates assigned)
C#Cc1ccc2cc(C(N)=O)n(C(=O)CN(C)C(=O)OCC(=O)[O-])c2c1 (optimized conformer: 69.93686383581475 kcal/mol)

>  <smiles>  (41) 
C#Cc1ccc2cc(C(N)=O)n(C(=O)CN(C)C(=O)OCC(=O)O)c2c1

>  <score_type>  (41) 
oracle

>  <origin>  (41) 
adg

>  <m_score__min__energy>  (41) 
-6.3799999999999999

>  <m_primary>  (41) 
energy

$$$$
43:0
     RDKit          3D

 33 34  0  0  0  0  0  0  0  0999 V2000
  143.7410  161.7370  133.7370 N   0  0  0  0  0  0  0  0  0  0  0  0
  145.1220  161.5690  134.0450 C   0  0  0  0  0  0  0  0  0  0  0  0
  145.7110  162.4420  134.7380 O   0  0  0  0  0  0  0  0  0  0  0  0
  145.8560  160.3610  133.6140 C   0  0  0  0  0  0  0  0  0  0  0  0
  147.2230  160.3490  133.3480 C   0  0  0  0  0  0  0  0  0  0  0  0
  147.5290  159.0360  133.0690 C   0  0  0  0  0  0  0  0  0  0  0  0
  148.7450  158.4560  132.7230 C   0  0  0  0  0  0  0  0  0  0  0  0
  148.7640  157.0770  132.4570 C   0  0  0  0  0  0  0  0  0  0  0  0
  147.5750  156.3060  132.5340 C   0  0  0  0  0  0  0  0  0  0  0  0
  147.5990  154.8950  132.2300 N   0  0  0  0  0  0  0  0  0  0  0  0
  148.0340  154.0970  133.3890 C   0  0  0  0  0  0  0  0  0  0  0  0
  149.0650  153.0250  133.0030 C   0  0  0  0  0  0  0  0  0  0  0  0
  149.6260  153.3200  131.7530 O   0  0  0  0  0  0  0  0  0  0  0  0
  146.3590  156.9350  132.8880 C   0  0  0  0  0  0  0  0  0  0  0  0
  146.3720  158.3060  133.1660 C   0  0  0  0  0  0  0  0  0  0  0  0
  145.3340  159.1070  133.4970 N   0  0  0  0  0  0  0  0  0  0  0  0
  143.9540  158.7190  133.5930 C   0  0  0  0  0  0  0  0  0  0  0  0
  143.4050  158.1010  132.6400 O   0  0  0  0  0  0  0  0  0  0  0  0
  143.2200  159.0480  134.7330 O   0  0  0  0  0  0  0  0  0  0  0  0
  141.5190  159.5030  134.6520 P   0  0  0  0  0  0  0  0  0  0  0  0
  141.0120  160.4050  133.4970 O   0  0  0  0  0  0  0  0  0  0  0  0
  143.1160  160.9120  133.6040 H   0  0  0  0  0  0  0  0  0  0  0  0
  147.9119  161.2065  133.3586 H   0  0  0  0  0  0  0  0  0  0  0  0
  149.6631  159.0585  132.6597 H   0  0  0  0  0  0  0  0  0  0  0  0
  149.7117  156.5888  132.1858 H   0  0  0  0  0  0  0  0  0  0  0  0
  148.2700  154.7320  131.4420 H   0  0  0  0  0  0  0  0  0  0  0  0
  146.6590  154.5700  131.9040 H   0  0  0  0  0  0  0  0  0  0  0  0
  148.4848  154.7701  134.1332 H   0  0  0  0  0  0  0  0  0  0  0  0
  147.1502  153.5838  133.7959 H   0  0  0  0  0  0  0  0  0  0  0  0
  149.8615  152.9973  133.7612 H   0  0  0  0  0  0  0  0  0  0  0  0
  148.5632  152.0476  132.9492 H   0  0  0  0  0  0  0  0  0  0  0  0
  150.5800  153.0490  131.7980 H   0  0  0  0  0  0  0  0  0  0  0  0
  145.4235  156.3590  132.9436 H   0  0  0  0  0  0  0  0  0  0  0  0
  1  2  1  0
  2  3  2  0
  2  4  1  0
  4  5  2  0
  5  6  1  0
  6  7  2  0
  7  8  1  0
  8  9  2  0
  9 10  1  0
 10 11  1  0
 11 12  1  0
 12 13  1  0
  9 14  1  0
 14 15  2  0
 15 16  1  0
 16 17  1  0
 17 18  2  0
 17 19  1  0
 19 20  1  0
 20 21  2  0
 16  4  1  0
 15  6  1  0
  1 22  1  0
  5 23  1  0
  7 24  1  0
  8 25  1  0
 10 26  1  0
 10 27  1  0
 11 28  1  0
 11 29  1  0
 12 30  1  0
 12 31  1  0
 13 32  1  0
 14 33  1  0
M  CHG  2   1  -1  10   1
M  END
>  <UniqueID>  (42) 
41

>  <SMILES>  (42) 
[NH-]C(=O)c1cc2ccc([NH2+]CCO)cc2n1C(=O)OP=O

>  <Energy>  (42) 
71.06923074366537

>  <Genealogy>  (42) 
[NH-]C(=O)c1cc2ccc([NH2+]CCO)cc2n1C(=O)OP=O (protonated)
[NH-]C(=O)c1cc2ccc([NH2+]CCO)cc2n1C(=O)OP=O (3D coordinates assigned)
[NH-]C(=O)c1cc2ccc([NH2+]CCO)cc2n1C(=O)OP=O (optimized conformer: 71.06923074366537 kcal/mol)

>  <smiles>  (42) 
NC(=O)c1cc2ccc(NCCO)cc2n1C(=O)OP=O

>  <score_type>  (42) 
oracle

>  <origin>  (42) 
adg

>  <m_score__min__energy>  (42) 
-5.8700000000000001

>  <m_primary>  (42) 
energy

$$$$
44:0
     RDKit          3D

 37 38  0  0  0  0  0  0  0  0999 V2000
  149.6070  162.6990  130.0630 C   0  0  0  0  0  0  0  0  0  0  0  0
  149.3350  161.6420  130.5770 C   0  0  0  0  0  0  0  0  0  0  0  0
  149.0100  160.3800  131.1880 C   0  0  0  0  0  0  0  0  0  0  0  0
  149.9720  159.3450  131.2210 C   0  0  0  0  0  0  0  0  0  0  0  0
  149.6690  158.1100  131.8220 C   0  0  0  0  0  0  0  0  0  0  0  0
  148.4000  157.9470  132.3720 C   0  0  0  0  0  0  0  0  0  0  0  0
  147.8500  156.8680  133.0270 C   0  0  0  0  0  0  0  0  0  0  0  0
  146.5560  157.2610  133.3640 C   0  0  0  0  0  0  0  0  0  0  0  0
  145.5720  156.3620  134.0020 C   0  0  0  0  0  0  0  0  0  0  0  0
  144.4740  155.8600  133.2440 N   0  0  0  0  0  0  0  0  0  0  0  0
  145.6680  156.0640  135.2220 O   0  0  0  0  0  0  0  0  0  0  0  0
  146.3190  158.5370  132.9440 N   0  0  0  0  0  0  0  0  0  0  0  0
  145.1450  159.3380  133.1580 C   0  0  0  0  0  0  0  0  0  0  0  0
  145.2530  160.5760  133.3580 O   0  0  0  0  0  0  0  0  0  0  0  0
  143.8430  158.7290  133.2040 C   0  0  0  0  0  0  0  0  0  0  0  0
  142.7540  158.2150  133.2430 C   0  0  0  0  0  0  0  0  0  0  0  0
  141.4240  157.5870  133.2920 C   0  0  0  0  0  0  0  0  0  0  0  0
  141.5200  156.1130  133.3750 N   0  0  0  0  0  0  0  0  0  0  0  0
  141.8730  155.7090  134.7480 C   0  0  0  0  0  0  0  0  0  0  0  0
  140.2530  155.4690  132.9790 C   0  0  0  0  0  0  0  0  0  0  0  0
  147.4560  158.9410  132.3350 C   0  0  0  0  0  0  0  0  0  0  0  0
  147.7340  160.1840  131.7560 C   0  0  0  0  0  0  0  0  0  0  0  0
  149.8550  163.6628  129.5943 H   0  0  0  0  0  0  0  0  0  0  0  0
  150.9639  159.5064  130.7738 H   0  0  0  0  0  0  0  0  0  0  0  0
  150.4109  157.2986  131.8565 H   0  0  0  0  0  0  0  0  0  0  0  0
  148.3299  155.9012  133.2392 H   0  0  0  0  0  0  0  0  0  0  0  0
  144.3120  156.1720  132.2610 H   0  0  0  0  0  0  0  0  0  0  0  0
  140.8856  157.9599  134.1758 H   0  0  0  0  0  0  0  0  0  0  0  0
  140.8875  157.8451  132.3670 H   0  0  0  0  0  0  0  0  0  0  0  0
  142.2810  155.7760  132.7360 H   0  0  0  0  0  0  0  0  0  0  0  0
  141.3252  156.3359  135.4670 H   0  0  0  0  0  0  0  0  0  0  0  0
  141.6022  154.6538  134.9008 H   0  0  0  0  0  0  0  0  0  0  0  0
  142.9549  155.8357  134.9008 H   0  0  0  0  0  0  0  0  0  0  0  0
  139.6900  155.1828  133.8796 H   0  0  0  0  0  0  0  0  0  0  0  0
  139.6552  156.1727  132.3811 H   0  0  0  0  0  0  0  0  0  0  0  0
  140.4692  154.5714  132.3811 H   0  0  0  0  0  0  0  0  0  0  0  0
  146.9798  160.9846  131.7441 H   0  0  0  0  0  0  0  0  0  0  0  0
  1  2  3  0
  2  3  1  0
  3  4  2  0
  4  5  1  0
  5  6  2  0
  6  7  1  0
  7  8  2  0
  8  9  1  0
  9 10  1  0
  9 11  2  0
  8 12  1  0
 12 13  1  0
 13 14  2  0
 13 15  1  0
 15 16  3  0
 16 17  1  0
 17 18  1  0
 18 19  1  0
 18 20  1  0
 12 21  1  0
 21 22  2  0
 22  3  1  0
 21  6  1  0
  1 23  1  0
  4 24  1  0
  5 25  1  0
  7 26  1  0
 10 27  1  0
 17 28  1  0
 17 29  1  0
 18 30  1  0
 19 31  1  0
 19 32  1  0
 19 33  1  0
 20 34  1  0
 20 35  1  0
 20 36  1  0
 22 37  1  0
M  CHG  2  10  -1  18   1
M  END
>  <UniqueID>  (43) 
42

>  <SMILES>  (43) 
C#Cc1ccc2cc(C([NH-])=O)n(C(=O)C#CC[NH+](C)C)c2c1

>  <Energy>  (43) 
71.1522661944223

>  <Genealogy>  (43) 
C#Cc1ccc2cc(C([NH-])=O)n(C(=O)C#CC[NH+](C)C)c2c1 (protonated)
C#Cc1ccc2cc(C([NH-])=O)n(C(=O)C#CC[NH+](C)C)c2c1 (3D coordinates assigned)
C#Cc1ccc2cc(C([NH-])=O)n(C(=O)C#CC[NH+](C)C)c2c1 (optimized conformer: 71.1522661944223 kcal/mol)

>  <smiles>  (43) 
C#Cc1ccc2cc(C(N)=O)n(C(=O)C#CCN(C)C)c2c1

>  <score_type>  (43) 
oracle

>  <origin>  (43) 
adg

>  <m_score__min__energy>  (43) 
-6.8499999999999996

>  <m_primary>  (43) 
energy

$$$$
45:0
     RDKit          3D

 38 39  0  0  0  0  0  0  0  0999 V2000
  139.6150  158.7620  132.6250 C   0  0  0  0  0  0  0  0  0  0  0  0
  140.4470  158.7350  133.8330 N   0  0  0  0  0  0  0  0  0  0  0  0
  139.8410  158.2880  135.0960 C   0  0  0  0  0  0  0  0  0  0  0  0
  140.5730  158.8590  136.2720 C   0  0  0  0  0  0  0  0  0  0  0  0
  140.6170  160.1040  136.4500 O   0  0  0  0  0  0  0  0  0  0  0  0
  141.1810  158.0130  137.1900 O   0  0  0  0  0  0  0  0  0  0  0  0
  141.8310  159.1680  133.7760 C   0  0  0  0  0  0  0  0  0  0  0  0
  142.1580  160.5530  133.7700 C   0  0  0  0  0  0  0  0  0  0  0  0
  143.4940  160.9830  133.7280 C   0  0  0  0  0  0  0  0  0  0  0  0
  144.4910  160.0150  133.6810 C   0  0  0  0  0  0  0  0  0  0  0  0
  145.8590  160.1560  133.6700 C   0  0  0  0  0  0  0  0  0  0  0  0
  146.3610  158.8580  133.6400 C   0  0  0  0  0  0  0  0  0  0  0  0
  147.8020  158.5440  133.5560 C   0  0  0  0  0  0  0  0  0  0  0  0
  148.3650  157.4540  134.2850 N   0  0  0  0  0  0  0  0  0  0  0  0
  148.5360  159.2180  132.7860 O   0  0  0  0  0  0  0  0  0  0  0  0
  145.3450  157.9490  133.6460 N   0  0  0  0  0  0  0  0  0  0  0  0
  145.4510  156.5190  133.7310 C   0  0  0  0  0  0  0  0  0  0  0  0
  145.2500  155.8110  132.7050 O   0  0  0  0  0  0  0  0  0  0  0  0
  145.7800  155.9160  134.9500 O   0  0  0  0  0  0  0  0  0  0  0  0
  145.9390  154.5090  135.1120 C   0  0  0  0  0  0  0  0  0  0  0  0
  147.1290  154.2150  135.9680 C   0  0  0  0  0  0  0  0  0  0  0  0
  148.0860  155.0320  136.0210 O   0  0  0  0  0  0  0  0  0  0  0  0
  147.1690  153.0560  136.7340 O   0  0  0  0  0  0  0  0  0  0  0  0
  144.2050  158.6760  133.6690 C   0  0  0  0  0  0  0  0  0  0  0  0
  142.8840  158.2180  133.7330 C   0  0  0  0  0  0  0  0  0  0  0  0
  138.5535  158.7964  132.9116 H   0  0  0  0  0  0  0  0  0  0  0  0
  139.8629  159.6526  132.0288 H   0  0  0  0  0  0  0  0  0  0  0  0
  139.8047  157.8572  132.0288 H   0  0  0  0  0  0  0  0  0  0  0  0
  138.7925  158.6188  135.1292 H   0  0  0  0  0  0  0  0  0  0  0  0
  139.8995  157.1906  135.1447 H   0  0  0  0  0  0  0  0  0  0  0  0
  141.3504  161.2993  133.7988 H   0  0  0  0  0  0  0  0  0  0  0  0
  143.7445  162.0541  133.7321 H   0  0  0  0  0  0  0  0  0  0  0  0
  146.4336  161.0939  133.6823 H   0  0  0  0  0  0  0  0  0  0  0  0
  147.7590  156.7730  134.7930 H   0  0  0  0  0  0  0  0  0  0  0  0
  149.3930  157.2740  134.2460 H   0  0  0  0  0  0  0  0  0  0  0  0
  145.0383  154.0948  135.5886 H   0  0  0  0  0  0  0  0  0  0  0  0
  146.0880  154.0502  134.1234 H   0  0  0  0  0  0  0  0  0  0  0  0
  142.6659  157.1400  133.7497 H   0  0  0  0  0  0  0  0  0  0  0  0
  1  2  1  0
  2  3  1  0
  3  4  1  0
  4  5  2  0
  4  6  1  0
  2  7  1  0
  7  8  2  0
  8  9  1  0
  9 10  2  0
 10 11  1  0
 11 12  2  0
 12 13  1  0
 13 14  1  0
 13 15  2  0
 12 16  1  0
 16 17  1  0
 17 18  2  0
 17 19  1  0
 19 20  1  0
 20 21  1  0
 21 22  2  0
 21 23  1  0
 16 24  1  0
 24 25  2  0
 25  7  1  0
 24 10  1  0
  1 26  1  0
  1 27  1  0
  1 28  1  0
  3 29  1  0
  3 30  1  0
  8 31  1  0
  9 32  1  0
 11 33  1  0
 14 34  1  0
 14 35  1  0
 20 36  1  0
 20 37  1  0
 25 38  1  0
M  CHG  2   6  -1  23  -1
M  END
>  <UniqueID>  (44) 
43

>  <SMILES>  (44) 
CN(CC(=O)[O-])c1ccc2cc(C(N)=O)n(C(=O)OCC(=O)[O-])c2c1

>  <Energy>  (44) 
76.28560519264725

>  <Genealogy>  (44) 
CN(CC(=O)[O-])c1ccc2cc(C(N)=O)n(C(=O)OCC(=O)[O-])c2c1 (protonated)
CN(CC(=O)[O-])c1ccc2cc(C(N)=O)n(C(=O)OCC(=O)[O-])c2c1 (3D coordinates assigned)
CN(CC(=O)[O-])c1ccc2cc(C(N)=O)n(C(=O)OCC(=O)[O-])c2c1 (optimized conformer: 76.28560519264725 kcal/mol)

>  <smiles>  (44) 
CN(CC(=O)O)c1ccc2cc(C(N)=O)n(C(=O)OCC(=O)O)c2c1

>  <score_type>  (44) 
oracle

>  <origin>  (44) 
adg

>  <m_score__min__energy>  (44) 
-6.8099999999999996

>  <m_primary>  (44) 
energy

$$$$
46:0
     RDKit          3D

 42 44  0  0  0  0  0  0  0  0999 V2000
  143.7020  154.2690  134.3990 C   0  0  0  0  0  0  0  0  0  0  0  0
  145.1470  154.4630  134.5440 N   0  0  0  0  0  0  0  0  0  0  0  0
  145.7200  154.7950  135.8580 C   0  0  0  0  0  0  0  0  0  0  0  0
  146.7320  153.7700  136.2590 C   0  0  0  0  0  0  0  0  0  0  0  0
  147.8100  153.6610  135.6170 O   0  0  0  0  0  0  0  0  0  0  0  0
  146.4920  152.9410  137.3460 O   0  0  0  0  0  0  0  0  0  0  0  0
  145.9990  154.2560  133.3980 C   0  0  0  0  0  0  0  0  0  0  0  0
  145.7460  153.3280  132.5830 O   0  0  0  0  0  0  0  0  0  0  0  0
  147.1390  155.0960  133.1650 N   0  0  0  0  0  0  0  0  0  0  0  0
  148.4010  154.7080  132.8340 C   0  0  0  0  0  0  0  0  0  0  0  0
  148.8680  153.3030  132.7720 C   0  0  0  0  0  0  0  0  0  0  0  0
  148.1070  152.2460  133.3600 N   0  0  0  0  0  0  0  0  0  0  0  0
  149.9470  153.0240  132.1870 O   0  0  0  0  0  0  0  0  0  0  0  0
  149.2040  155.8280  132.6070 C   0  0  0  0  0  0  0  0  0  0  0  0
  148.3790  156.9140  132.7960 C   0  0  0  0  0  0  0  0  0  0  0  0
  148.6440  158.2740  132.6800 C   0  0  0  0  0  0  0  0  0  0  0  0
  147.5890  159.1740  132.9070 C   0  0  0  0  0  0  0  0  0  0  0  0
  146.2880  158.7050  133.2360 C   0  0  0  0  0  0  0  0  0  0  0  0
  145.1780  159.6620  133.4710 C   0  0  0  0  0  0  0  0  0  0  0  0
  145.2700  160.9950  133.8490 C   0  0  0  0  0  0  0  0  0  0  0  0
  144.0320  161.5130  133.9720 N   0  0  0  0  0  0  0  0  0  0  0  0
  143.1680  160.5580  133.6720 N   0  0  0  0  0  0  0  0  0  0  0  0
  141.7220  160.7140  133.7600 C   0  0  0  0  0  0  0  0  0  0  0  0
  143.8190  159.4190  133.3760 C   0  0  0  0  0  0  0  0  0  0  0  0
  146.0620  157.3110  133.3390 C   0  0  0  0  0  0  0  0  0  0  0  0
  147.1380  156.4450  133.1250 C   0  0  0  0  0  0  0  0  0  0  0  0
  143.2387  154.2068  135.3947 H   0  0  0  0  0  0  0  0  0  0  0  0
  143.2717  155.1174  133.8467 H   0  0  0  0  0  0  0  0  0  0  0  0
  143.5107  153.3371  133.8467 H   0  0  0  0  0  0  0  0  0  0  0  0
  146.2047  155.7810  135.8035 H   0  0  0  0  0  0  0  0  0  0  0  0
  144.9131  154.8114  136.6054 H   0  0  0  0  0  0  0  0  0  0  0  0
  147.2400  152.4330  133.9080 H   0  0  0  0  0  0  0  0  0  0  0  0
  148.4350  151.2580  133.2780 H   0  0  0  0  0  0  0  0  0  0  0  0
  150.2697  155.8399  132.3349 H   0  0  0  0  0  0  0  0  0  0  0  0
  149.6497  158.6347  132.4183 H   0  0  0  0  0  0  0  0  0  0  0  0
  147.7723  160.2558  132.8291 H   0  0  0  0  0  0  0  0  0  0  0  0
  146.2080  161.5431  134.0213 H   0  0  0  0  0  0  0  0  0  0  0  0
  141.4204  160.7465  134.8173 H   0  0  0  0  0  0  0  0  0  0  0  0
  141.4233  161.6496  133.2645 H   0  0  0  0  0  0  0  0  0  0  0  0
  141.2306  159.8637  133.2645 H   0  0  0  0  0  0  0  0  0  0  0  0
  143.3521  158.4605  133.1053 H   0  0  0  0  0  0  0  0  0  0  0  0
  145.0633  156.9189  133.5817 H   0  0  0  0  0  0  0  0  0  0  0  0
  1  2  1  0
  2  3  1  0
  3  4  1  0
  4  5  2  0
  4  6  1  0
  2  7  1  0
  7  8  2  0
  7  9  1  0
  9 10  1  0
 10 11  1  0
 11 12  1  0
 11 13  2  0
 10 14  2  0
 14 15  1  0
 15 16  2  0
 16 17  1  0
 17 18  2  0
 18 19  1  0
 19 20  1  0
 20 21  2  0
 21 22  1  0
 22 23  1  0
 22 24  1  0
 18 25  1  0
 25 26  2  0
 26  9  1  0
 26 15  1  0
 24 19  2  0
  1 27  1  0
  1 28  1  0
  1 29  1  0
  3 30  1  0
  3 31  1  0
 12 32  1  0
 12 33  1  0
 14 34  1  0
 16 35  1  0
 17 36  1  0
 20 37  1  0
 23 38  1  0
 23 39  1  0
 23 40  1  0
 24 41  1  0
 25 42  1  0
M  CHG  1   6  -1
M  END
>  <UniqueID>  (45) 
44

>  <SMILES>  (45) 
CN(CC(=O)[O-])C(=O)n1c(C(N)=O)cc2ccc(-c3cnn(C)c3)cc21

>  <Energy>  (45) 
110.81575845442633

>  <Genealogy>  (45) 
CN(CC(=O)[O-])C(=O)n1c(C(N)=O)cc2ccc(-c3cnn(C)c3)cc21 (protonated)
CN(CC(=O)[O-])C(=O)n1c(C(N)=O)cc2ccc(-c3cnn(C)c3)cc21 (3D coordinates assigned)
CN(CC(=O)[O-])C(=O)n1c(C(N)=O)cc2ccc(-c3cnn(C)c3)cc21 (optimized conformer: 110.81575845442633 kcal/mol)

>  <smiles>  (45) 
CN(CC(=O)O)C(=O)n1c(C(N)=O)cc2ccc(-c3cnn(C)c3)cc21

>  <score_type>  (45) 
oracle

>  <origin>  (45) 
adg

>  <m_score__min__energy>  (45) 
-7.5700000000000003

>  <m_primary>  (45) 
energy

$$$$
47:0
     RDKit          3D

 44 45  0  0  0  0  0  0  0  0999 V2000
  139.3750  157.8870  133.1520 C   0  0  0  0  0  0  0  0  0  0  0  0
  140.7810  158.3950  133.2800 C   0  0  0  0  0  0  0  0  0  0  0  0
  141.0140  159.7590  133.5810 C   0  0  0  0  0  0  0  0  0  0  0  0
  142.3250  160.2440  133.7420 C   0  0  0  0  0  0  0  0  0  0  0  0
  143.3740  159.3380  133.6140 C   0  0  0  0  0  0  0  0  0  0  0  0
  144.7350  159.5320  133.7130 C   0  0  0  0  0  0  0  0  0  0  0  0
  145.3040  158.2770  133.4920 C   0  0  0  0  0  0  0  0  0  0  0  0
  146.7580  158.0230  133.4580 C   0  0  0  0  0  0  0  0  0  0  0  0
  147.2440  156.7100  133.1830 N   0  0  0  0  0  0  0  0  0  0  0  0
  147.5790  158.9540  133.6750 O   0  0  0  0  0  0  0  0  0  0  0  0
  144.3320  157.3460  133.2870 N   0  0  0  0  0  0  0  0  0  0  0  0
  144.4960  155.9430  133.0200 C   0  0  0  0  0  0  0  0  0  0  0  0
  144.0460  155.4770  131.9370 O   0  0  0  0  0  0  0  0  0  0  0  0
  145.0950  155.0450  133.9830 N   0  0  1  0  0  0  0  0  0  0  0  0
  144.4150  155.0350  135.2600 C   0  0  0  0  0  0  0  0  0  0  0  0
  143.2510  155.3950  135.3640 O   0  0  0  0  0  0  0  0  0  0  0  0
  145.1780  153.7050  133.4390 C   0  0  0  0  0  0  0  0  0  0  0  0
  144.2260  152.9390  133.5350 O   0  0  0  0  0  0  0  0  0  0  0  0
  146.4640  153.2100  132.8170 C   0  0  0  0  0  0  0  0  0  0  0  0
  147.6440  153.9110  133.3690 N   0  0  0  0  0  0  0  0  0  0  0  0
  148.7300  153.9680  132.3790 C   0  0  0  0  0  0  0  0  0  0  0  0
  148.1040  153.3620  134.6690 C   0  0  0  0  0  0  0  0  0  0  0  0
  147.3830  153.9350  135.8610 C   0  0  0  0  0  0  0  0  0  0  0  0
  146.9960  153.1750  136.7900 O   0  0  0  0  0  0  0  0  0  0  0  0
  147.1440  155.3020  135.9510 O   0  0  0  0  0  0  0  0  0  0  0  0
  143.1600  158.0110  133.3440 C   0  0  0  0  0  0  0  0  0  0  0  0
  141.8700  157.5040  133.1700 C   0  0  0  0  0  0  0  0  0  0  0  0
  138.9482  157.7328  134.1540 H   0  0  0  0  0  0  0  0  0  0  0  0
  138.7678  158.6226  132.6041 H   0  0  0  0  0  0  0  0  0  0  0  0
  139.3782  156.9332  132.6041 H   0  0  0  0  0  0  0  0  0  0  0  0
  140.1619  160.4460  133.6900 H   0  0  0  0  0  0  0  0  0  0  0  0
  142.5148  161.3049  133.9619 H   0  0  0  0  0  0  0  0  0  0  0  0
  145.2608  160.4753  133.9218 H   0  0  0  0  0  0  0  0  0  0  0  0
  147.1870  155.9550  133.9020 H   0  0  0  0  0  0  0  0  0  0  0  0
  146.0640  155.3990  134.1670 H   0  0  0  0  0  0  0  0  0  0  0  0
  144.9562  154.6966  136.1558 H   0  0  0  0  0  0  0  0  0  0  0  0
  146.5643  152.1327  133.0153 H   0  0  0  0  0  0  0  0  0  0  0  0
  146.4212  153.4096  131.7361 H   0  0  0  0  0  0  0  0  0  0  0  0
  149.6980  154.0188  132.8991 H   0  0  0  0  0  0  0  0  0  0  0  0
  148.6992  153.0670  131.7487 H   0  0  0  0  0  0  0  0  0  0  0  0
  148.6051  154.8608  131.7487 H   0  0  0  0  0  0  0  0  0  0  0  0
  147.9482  152.2731  134.6601 H   0  0  0  0  0  0  0  0  0  0  0  0
  149.1643  153.6351  134.7746 H   0  0  0  0  0  0  0  0  0  0  0  0
  141.7072  156.4380  132.9529 H   0  0  0  0  0  0  0  0  0  0  0  0
  1  2  1  0
  2  3  2  0
  3  4  1  0
  4  5  2  0
  5  6  1  0
  6  7  2  0
  7  8  1  0
  8  9  1  0
  8 10  2  0
  7 11  1  0
 11 12  1  0
 12 13  2  0
 12 14  1  0
 14 15  1  0
 15 16  2  0
 14 17  1  0
 17 18  2  0
 17 19  1  0
 19 20  1  0
 20 21  1  0
 20 22  1  0
 22 23  1  0
 23 24  2  0
 23 25  1  0
 11 26  1  0
 26 27  2  0
 27  2  1  0
 26  5  1  0
  1 28  1  0
  1 29  1  0
  1 30  1  0
  3 31  1  0
  4 32  1  0
  6 33  1  0
  9 34  1  0
 14 35  1  1
 15 36  1  0
 19 37  1  0
 19 38  1  0
 21 39  1  0
 21 40  1  0
 21 41  1  0
 22 42  1  0
 22 43  1  0
 27 44  1  0
M  CHG  3   9  -1  14   1  25  -1
M  END
>  <UniqueID>  (46) 
45

>  <SMILES>  (46) 
Cc1ccc2cc(C([NH-])=O)n(C(=O)[NH+](C=O)C(=O)CN(C)CC(=O)[O-])c2c1

>  <Energy>  (46) 
91.44114408729182

>  <Genealogy>  (46) 
Cc1ccc2cc(C([NH-])=O)n(C(=O)[NH+](C=O)C(=O)CN(C)CC(=O)[O-])c2c1 (protonated)
Cc1ccc2cc(C([NH-])=O)n(C(=O)[NH+](C=O)C(=O)CN(C)CC(=O)[O-])c2c1 (3D coordinates assigned)
Cc1ccc2cc(C([NH-])=O)n(C(=O)[NH+](C=O)C(=O)CN(C)CC(=O)[O-])c2c1 (optimized conformer: 91.44114408729182 kcal/mol)

>  <smiles>  (46) 
Cc1ccc2cc(C(N)=O)n(C(=O)N(C=O)C(=O)CN(C)CC(=O)O)c2c1

>  <score_type>  (46) 
oracle

>  <origin>  (46) 
adg

>  <m_score__min__energy>  (46) 
-5.0800000000000001

>  <m_primary>  (46) 
energy

$$$$
48:0
     RDKit          3D

 44 45  0  0  0  0  0  0  0  0999 V2000
  147.3540  150.3490  139.3660 C   0  0  0  0  0  0  0  0  0  0  0  0
  147.0360  151.1870  138.2640 O   0  0  0  0  0  0  0  0  0  0  0  0
  146.4870  152.4650  138.4200 C   0  0  0  0  0  0  0  0  0  0  0  0
  145.5050  152.6520  139.1920 O   0  0  0  0  0  0  0  0  0  0  0  0
  147.0900  153.6290  137.6860 C   0  0  1  0  0  0  0  0  0  0  0  0
  148.5820  153.7810  138.0340 C   0  0  0  0  0  0  0  0  0  0  0  0
  148.7790  154.1980  139.4600 C   0  0  0  0  0  0  0  0  0  0  0  0
  149.9170  154.1270  139.9890 O   0  0  0  0  0  0  0  0  0  0  0  0
  147.7100  154.6940  140.1940 O   0  0  0  0  0  0  0  0  0  0  0  0
  146.9360  153.4100  136.2500 N   0  0  0  0  0  0  0  0  0  0  0  0
  147.6880  154.1130  135.2550 C   0  0  0  0  0  0  0  0  0  0  0  0
  148.1110  155.2800  135.4770 O   0  0  0  0  0  0  0  0  0  0  0  0
  148.0170  153.4390  133.9600 C   0  0  0  0  0  0  0  0  0  0  0  0
  148.0920  154.4690  132.8280 C   0  0  0  0  0  0  0  0  0  0  0  0
  147.0250  155.5170  132.9950 C   0  0  0  0  0  0  0  0  0  0  0  0
  145.6660  155.1380  133.1130 C   0  0  0  0  0  0  0  0  0  0  0  0
  144.6660  156.1090  133.2900 C   0  0  0  0  0  0  0  0  0  0  0  0
  145.0560  157.4420  133.3650 C   0  0  0  0  0  0  0  0  0  0  0  0
  144.2980  158.5780  133.5260 C   0  0  0  0  0  0  0  0  0  0  0  0
  145.2090  159.6330  133.5400 C   0  0  0  0  0  0  0  0  0  0  0  0
  144.8210  161.0380  133.7830 C   0  0  0  0  0  0  0  0  0  0  0  0
  145.7910  162.0160  134.1430 N   0  0  0  0  0  0  0  0  0  0  0  0
  143.6070  161.3710  133.7210 O   0  0  0  0  0  0  0  0  0  0  0  0
  146.4810  159.1670  133.3850 N   0  0  0  0  0  0  0  0  0  0  0  0
  147.6900  159.9320  133.2610 C   0  0  0  0  0  0  0  0  0  0  0  0
  147.7910  160.8210  132.3760 O   0  0  0  0  0  0  0  0  0  0  0  0
  148.7690  159.6780  134.0980 O   0  0  0  0  0  0  0  0  0  0  0  0
  146.3710  157.8240  133.2810 C   0  0  0  0  0  0  0  0  0  0  0  0
  147.3850  156.8820  133.0810 C   0  0  0  0  0  0  0  0  0  0  0  0
  147.1506  150.8849  140.3048 H   0  0  0  0  0  0  0  0  0  0  0  0
  146.7391  149.4379  139.3233 H   0  0  0  0  0  0  0  0  0  0  0  0
  148.4185  150.0752  139.3233 H   0  0  0  0  0  0  0  0  0  0  0  0
  146.5731  154.5524  137.9862 H   0  0  0  0  0  0  0  0  0  0  0  0
  149.0859  152.8168  137.8717 H   0  0  0  0  0  0  0  0  0  0  0  0
  149.0072  154.5620  137.3865 H   0  0  0  0  0  0  0  0  0  0  0  0
  148.9878  152.9300  134.0523 H   0  0  0  0  0  0  0  0  0  0  0  0
  147.2287  152.7081  133.7269 H   0  0  0  0  0  0  0  0  0  0  0  0
  149.0798  154.9528  132.8441 H   0  0  0  0  0  0  0  0  0  0  0  0
  147.9366  153.9539  131.8685 H   0  0  0  0  0  0  0  0  0  0  0  0
  145.3906  154.0741  133.0657 H   0  0  0  0  0  0  0  0  0  0  0  0
  143.6065  155.8235  133.3669 H   0  0  0  0  0  0  0  0  0  0  0  0
  143.2041  158.6409  133.6232 H   0  0  0  0  0  0  0  0  0  0  0  0
  146.5900  162.2410  133.5070 H   0  0  0  0  0  0  0  0  0  0  0  0
  148.4359  157.1947  132.9928 H   0  0  0  0  0  0  0  0  0  0  0  0
  1  2  1  0
  2  3  1  0
  3  4  2  0
  3  5  1  0
  5  6  1  0
  6  7  1  0
  7  8  2  0
  7  9  1  0
  5 10  1  0
 10 11  1  0
 11 12  2  0
 11 13  1  0
 13 14  1  0
 14 15  1  0
 15 16  2  0
 16 17  1  0
 17 18  2  0
 18 19  1  0
 19 20  2  0
 20 21  1  0
 21 22  1  0
 21 23  2  0
 20 24  1  0
 24 25  1  0
 25 26  2  0
 25 27  1  0
 24 28  1  0
 28 29  2  0
 29 15  1  0
 28 18  1  0
  1 30  1  0
  1 31  1  0
  1 32  1  0
  5 33  1  1
  6 34  1  0
  6 35  1  0
 13 36  1  0
 13 37  1  0
 14 38  1  0
 14 39  1  0
 16 40  1  0
 17 41  1  0
 19 42  1  0
 22 43  1  0
 29 44  1  0
M  CHG  4   9  -1  10  -1  22  -1  27  -1
M  END
>  <UniqueID>  (47) 
46

>  <SMILES>  (47) 
COC(=O)[C@@H](CC(=O)[O-])[N-]C(=O)CCc1ccc2cc(C([NH-])=O)n(C(=O)[O-])c2c1

>  <Energy>  (47) 
72.84107578774395

>  <Genealogy>  (47) 
COC(=O)C(CC(=O)[O-])[N-]C(=O)CCc1ccc2cc(C([NH-])=O)n(C(=O)[O-])c2c1 (protonated)
COC(=O)[C@@H](CC(=O)[O-])[N-]C(=O)CCc1ccc2cc(C([NH-])=O)n(C(=O)[O-])c2c1 (chirality)
COC(=O)[C@@H](CC(=O)[O-])[N-]C(=O)CCc1ccc2cc(C([NH-])=O)n(C(=O)[O-])c2c1 (3D coordinates assigned)
COC(=O)[C@@H](CC(=O)[O-])[N-]C(=O)CCc1ccc2cc(C([NH-])=O)n(C(=O)[O-])c2c1 (optimized conformer: 72.84107578774395 kcal/mol)

>  <smiles>  (47) 
COC(=O)C(CC(=O)O)NC(=O)CCc1ccc2cc(C(N)=O)n(C(=O)O)c2c1

>  <score_type>  (47) 
oracle

>  <origin>  (47) 
adg

>  <m_score__min__energy>  (47) 
-7.0999999999999996

>  <m_primary>  (47) 
energy

$$$$
49:0
     RDKit          3D

 40 41  0  0  0  0  0  0  0  0999 V2000
  148.0560  154.0200  136.8200 C   0  0  0  0  0  0  0  0  0  0  0  0
  146.8450  153.3700  136.5010 O   0  0  0  0  0  0  0  0  0  0  0  0
  145.8970  154.3180  136.0540 C   0  0  0  0  0  0  0  0  0  0  0  0
  145.3350  153.8990  134.8140 O   0  0  0  0  0  0  0  0  0  0  0  0
  145.3850  154.6810  133.6570 C   0  0  0  0  0  0  0  0  0  0  0  0
  144.4720  154.5930  132.7920 O   0  0  0  0  0  0  0  0  0  0  0  0
  146.4820  155.5880  133.4580 N   0  0  0  0  0  0  0  0  0  0  0  0
  147.7560  155.2720  133.0900 C   0  0  0  0  0  0  0  0  0  0  0  0
  148.3130  153.9080  132.9890 C   0  0  0  0  0  0  0  0  0  0  0  0
  147.7330  152.8160  133.7040 N   0  0  0  0  0  0  0  0  0  0  0  0
  149.3530  153.7130  132.3030 O   0  0  0  0  0  0  0  0  0  0  0  0
  148.5050  156.4230  132.8630 C   0  0  0  0  0  0  0  0  0  0  0  0
  147.6470  157.4680  133.1160 C   0  0  0  0  0  0  0  0  0  0  0  0
  147.8620  158.8380  133.0290 C   0  0  0  0  0  0  0  0  0  0  0  0
  146.7840  159.6940  133.3080 C   0  0  0  0  0  0  0  0  0  0  0  0
  145.5080  159.1740  133.6560 C   0  0  0  0  0  0  0  0  0  0  0  0
  144.3960  160.0630  133.9230 N   0  0  0  0  0  0  0  0  0  0  0  0
  144.5660  161.5110  133.7440 C   0  0  0  0  0  0  0  0  0  0  0  0
  143.1030  159.5430  134.3950 C   0  0  0  0  0  0  0  0  0  0  0  0
  141.9850  160.0710  133.5530 C   0  0  0  0  0  0  0  0  0  0  0  0
  141.5870  161.2560  133.7020 O   0  0  0  0  0  0  0  0  0  0  0  0
  141.3620  159.2480  132.6230 O   0  0  0  0  0  0  0  0  0  0  0  0
  145.3350  157.7700  133.7320 C   0  0  0  0  0  0  0  0  0  0  0  0
  146.4330  156.9410  133.4710 C   0  0  0  0  0  0  0  0  0  0  0  0
  148.1641  154.0780  137.9131 H   0  0  0  0  0  0  0  0  0  0  0  0
  148.8988  153.4530  136.3978 H   0  0  0  0  0  0  0  0  0  0  0  0
  148.0492  155.0357  136.3978 H   0  0  0  0  0  0  0  0  0  0  0  0
  145.0968  154.4135  136.8027 H   0  0  0  0  0  0  0  0  0  0  0  0
  146.3957  155.2885  135.9143 H   0  0  0  0  0  0  0  0  0  0  0  0
  148.1160  151.8520  133.5870 H   0  0  0  0  0  0  0  0  0  0  0  0
  146.9780  152.9730  134.4070 H   0  0  0  0  0  0  0  0  0  0  0  0
  149.5574  156.4839  132.5487 H   0  0  0  0  0  0  0  0  0  0  0  0
  148.8471  159.2402  132.7500 H   0  0  0  0  0  0  0  0  0  0  0  0
  146.9295  160.7831  133.2564 H   0  0  0  0  0  0  0  0  0  0  0  0
  144.6232  161.9980  134.7287 H   0  0  0  0  0  0  0  0  0  0  0  0
  145.4931  161.7050  133.1846 H   0  0  0  0  0  0  0  0  0  0  0  0
  143.7090  161.9144  133.1846 H   0  0  0  0  0  0  0  0  0  0  0  0
  143.1120  158.4446  134.3368 H   0  0  0  0  0  0  0  0  0  0  0  0
  142.9481  159.8673  135.4346 H   0  0  0  0  0  0  0  0  0  0  0  0
  144.3566  157.3392  133.9911 H   0  0  0  0  0  0  0  0  0  0  0  0
  1  2  1  0
  2  3  1  0
  3  4  1  0
  4  5  1  0
  5  6  2  0
  5  7  1  0
  7  8  1  0
  8  9  1  0
  9 10  1  0
  9 11  2  0
  8 12  2  0
 12 13  1  0
 13 14  2  0
 14 15  1  0
 15 16  2  0
 16 17  1  0
 17 18  1  0
 17 19  1  0
 19 20  1  0
 20 21  2  0
 20 22  1  0
 16 23  1  0
 23 24  2  0
 24  7  1  0
 24 13  1  0
  1 25  1  0
  1 26  1  0
  1 27  1  0
  3 28  1  0
  3 29  1  0
 10 30  1  0
 10 31  1  0
 12 32  1  0
 14 33  1  0
 15 34  1  0
 18 35  1  0
 18 36  1  0
 18 37  1  0
 19 38  1  0
 19 39  1  0
 23 40  1  0
M  CHG  1  22  -1
M  END
>  <UniqueID>  (48) 
47

>  <SMILES>  (48) 
COCOC(=O)n1c(C(N)=O)cc2ccc(N(C)CC(=O)[O-])cc21

>  <Energy>  (48) 
80.36967287476621

>  <Genealogy>  (48) 
COCOC(=O)n1c(C(N)=O)cc2ccc(N(C)CC(=O)[O-])cc21 (protonated)
COCOC(=O)n1c(C(N)=O)cc2ccc(N(C)CC(=O)[O-])cc21 (3D coordinates assigned)
COCOC(=O)n1c(C(N)=O)cc2ccc(N(C)CC(=O)[O-])cc21 (optimized conformer: 80.36967287476621 kcal/mol)

>  <smiles>  (48) 
COCOC(=O)n1c(C(N)=O)cc2ccc(N(C)CC(=O)O)cc21

>  <score_type>  (48) 
oracle

>  <origin>  (48) 
adg

>  <m_score__min__energy>  (48) 
-6.1699999999999999

>  <m_primary>  (48) 
energy

$$$$
50:0
     RDKit          3D

 36 37  0  0  0  0  0  0  0  0999 V2000
  144.6840  162.8820  134.1000 C   0  0  0  0  0  0  0  0  0  0  0  0
  144.3920  161.7210  133.9490 C   0  0  0  0  0  0  0  0  0  0  0  0
  144.0430  160.3360  133.7710 C   0  0  0  0  0  0  0  0  0  0  0  0
  145.0570  159.3780  133.5410 C   0  0  0  0  0  0  0  0  0  0  0  0
  144.7270  158.0260  133.3530 C   0  0  0  0  0  0  0  0  0  0  0  0
  143.3830  157.6670  133.4090 C   0  0  0  0  0  0  0  0  0  0  0  0
  142.7870  156.4400  133.2350 C   0  0  0  0  0  0  0  0  0  0  0  0
  141.4200  156.6680  133.3840 C   0  0  0  0  0  0  0  0  0  0  0  0
  140.4060  155.5930  133.3550 C   0  0  0  0  0  0  0  0  0  0  0  0
  139.1070  155.8570  132.8300 N   0  0  0  0  0  0  0  0  0  0  0  0
  140.6870  154.4330  133.7540 O   0  0  0  0  0  0  0  0  0  0  0  0
  141.1800  157.9870  133.6340 N   0  0  0  0  0  0  0  0  0  0  0  0
  139.9060  158.6360  133.7680 C   0  0  0  0  0  0  0  0  0  0  0  0
  139.0850  158.2260  134.6330 O   0  0  0  0  0  0  0  0  0  0  0  0
  139.6010  159.7320  132.9480 O   0  0  0  0  0  0  0  0  0  0  0  0
  139.0960  159.6780  131.6060 C   0  0  0  0  0  0  0  0  0  0  0  0
  138.8290  161.0970  131.0700 C   0  0  0  0  0  0  0  0  0  0  0  0
  140.1780  159.0150  130.7410 C   0  0  0  0  0  0  0  0  0  0  0  0
  137.8160  158.8230  131.5420 C   0  0  0  0  0  0  0  0  0  0  0  0
  142.3930  158.5850  133.6480 C   0  0  0  0  0  0  0  0  0  0  0  0
  142.6900  159.9420  133.8200 C   0  0  0  0  0  0  0  0  0  0  0  0
  144.9502  163.9404  134.2377 H   0  0  0  0  0  0  0  0  0  0  0  0
  146.1103  159.6934  133.5091 H   0  0  0  0  0  0  0  0  0  0  0  0
  145.5071  157.2731  133.1670 H   0  0  0  0  0  0  0  0  0  0  0  0
  143.2838  155.4817  133.0231 H   0  0  0  0  0  0  0  0  0  0  0  0
  138.5540  156.6800  133.1580 H   0  0  0  0  0  0  0  0  0  0  0  0
  138.6987  161.7895  131.9147 H   0  0  0  0  0  0  0  0  0  0  0  0
  139.6815  161.4236  130.4563 H   0  0  0  0  0  0  0  0  0  0  0  0
  137.9161  161.0914  130.4563 H   0  0  0  0  0  0  0  0  0  0  0  0
  140.9344  158.5515  131.3914 H   0  0  0  0  0  0  0  0  0  0  0  0
  139.7180  158.2435  130.1060 H   0  0  0  0  0  0  0  0  0  0  0  0
  140.6565  159.7751  130.1060 H   0  0  0  0  0  0  0  0  0  0  0  0
  137.4755  158.5956  132.5630 H   0  0  0  0  0  0  0  0  0  0  0  0
  137.0304  159.3783  131.0087 H   0  0  0  0  0  0  0  0  0  0  0  0
  138.0281  157.8846  131.0087 H   0  0  0  0  0  0  0  0  0  0  0  0
  141.8914  160.6794  133.9885 H   0  0  0  0  0  0  0  0  0  0  0  0
  1  2  3  0
  2  3  1  0
  3  4  2  0
  4  5  1  0
  5  6  2  0
  6  7  1  0
  7  8  2  0
  8  9  1  0
  9 10  1  0
  9 11  2  0
  8 12  1  0
 12 13  1  0
 13 14  2  0
 13 15  1  0
 15 16  1  0
 16 17  1  0
 16 18  1  0
 16 19  1  0
 12 20  1  0
 20 21  2  0
 21  3  1  0
 20  6  1  0
  1 22  1  0
  4 23  1  0
  5 24  1  0
  7 25  1  0
 10 26  1  0
 17 27  1  0
 17 28  1  0
 17 29  1  0
 18 30  1  0
 18 31  1  0
 18 32  1  0
 19 33  1  0
 19 34  1  0
 19 35  1  0
 21 36  1  0
M  CHG  1  10  -1
M  END
>  <UniqueID>  (49) 
48

>  <SMILES>  (49) 
C#Cc1ccc2cc(C([NH-])=O)n(C(=O)OC(C)(C)C)c2c1

>  <Energy>  (49) 
68.18885307170311

>  <Genealogy>  (49) 
C#Cc1ccc2cc(C([NH-])=O)n(C(=O)OC(C)(C)C)c2c1 (protonated)
C#Cc1ccc2cc(C([NH-])=O)n(C(=O)OC(C)(C)C)c2c1 (3D coordinates assigned)
C#Cc1ccc2cc(C([NH-])=O)n(C(=O)OC(C)(C)C)c2c1 (optimized conformer: 68.18885307170311 kcal/mol)

>  <smiles>  (49) 
C#Cc1ccc2cc(C(N)=O)n(C(=O)OC(C)(C)C)c2c1

>  <score_type>  (49) 
oracle

>  <origin>  (49) 
adg

>  <m_score__min__energy>  (49) 
-7.0700000000000003

>  <m_primary>  (49) 
energy

$$$$
51:0
     RDKit          3D

 41 42  0  0  0  0  0  0  0  0999 V2000
  141.0050  157.5880  134.1000 C   0  0  0  0  0  0  0  0  0  0  0  0
  141.6230  158.2350  132.9250 N   0  0  1  0  0  0  0  0  0  0  0  0
  142.5190  157.2710  132.2330 C   0  0  0  0  0  0  0  0  0  0  0  0
  143.7660  156.9130  133.0730 C   0  0  0  0  0  0  0  0  0  0  0  0
  144.2640  158.0650  133.9070 C   0  0  0  0  0  0  0  0  0  0  0  0
  143.5750  158.5000  134.8680 O   0  0  0  0  0  0  0  0  0  0  0  0
  145.4550  158.7670  133.5230 N   0  0  0  0  0  0  0  0  0  0  0  0
  145.6700  160.1120  133.4910 C   0  0  0  0  0  0  0  0  0  0  0  0
  144.6540  161.1570  133.7300 C   0  0  0  0  0  0  0  0  0  0  0  0
  143.2890  160.9460  133.3850 N   0  0  0  0  0  0  0  0  0  0  0  0
  145.0030  162.2670  134.2130 O   0  0  0  0  0  0  0  0  0  0  0  0
  146.9900  160.3850  133.1310 C   0  0  0  0  0  0  0  0  0  0  0  0
  147.5760  159.1550  132.9350 C   0  0  0  0  0  0  0  0  0  0  0  0
  148.8810  158.8290  132.5770 C   0  0  0  0  0  0  0  0  0  0  0  0
  149.2130  157.4670  132.4710 C   0  0  0  0  0  0  0  0  0  0  0  0
  148.2410  156.4650  132.7150 C   0  0  0  0  0  0  0  0  0  0  0  0
  148.6210  155.0160  132.6390 C   0  0  0  0  0  0  0  0  0  0  0  0
  149.9470  154.9040  132.2680 F   0  0  0  0  0  0  0  0  0  0  0  0
  146.9300  156.8340  133.0890 C   0  0  0  0  0  0  0  0  0  0  0  0
  146.6270  158.1960  133.1770 C   0  0  0  0  0  0  0  0  0  0  0  0
  140.5760  158.7360  132.0020 C   0  0  0  0  0  0  0  0  0  0  0  0
  140.0920  160.1040  132.3910 C   0  0  0  0  0  0  0  0  0  0  0  0
  140.6650  160.7390  133.3140 O   0  0  0  0  0  0  0  0  0  0  0  0
  138.9940  160.6630  131.7490 O   0  0  0  0  0  0  0  0  0  0  0  0
  141.4215  158.0240  135.0200 H   0  0  0  0  0  0  0  0  0  0  0  0
  139.9171  157.7494  134.0776 H   0  0  0  0  0  0  0  0  0  0  0  0
  141.2161  156.5087  134.0776 H   0  0  0  0  0  0  0  0  0  0  0  0
  142.1880  159.0450  133.2760 H   0  0  0  0  0  0  0  0  0  0  0  0
  141.9547  156.3491  132.0290 H   0  0  0  0  0  0  0  0  0  0  0  0
  142.8673  157.7464  131.3042 H   0  0  0  0  0  0  0  0  0  0  0  0
  143.5096  156.0797  133.7437 H   0  0  0  0  0  0  0  0  0  0  0  0
  144.5691  156.6429  132.3715 H   0  0  0  0  0  0  0  0  0  0  0  0
  142.7290  160.1910  133.8400 H   0  0  0  0  0  0  0  0  0  0  0  0
  147.4620  161.3730  133.0261 H   0  0  0  0  0  0  0  0  0  0  0  0
  149.6288  159.6121  132.3832 H   0  0  0  0  0  0  0  0  0  0  0  0
  150.2376  157.1762  132.1959 H   0  0  0  0  0  0  0  0  0  0  0  0
  148.4753  154.5471  133.6233 H   0  0  0  0  0  0  0  0  0  0  0  0
  147.9890  154.5110  131.8937 H   0  0  0  0  0  0  0  0  0  0  0  0
  146.1681  156.0706  133.3052 H   0  0  0  0  0  0  0  0  0  0  0  0
  140.9917  158.7821  130.9846 H   0  0  0  0  0  0  0  0  0  0  0  0
  139.7208  158.0459  132.0509 H   0  0  0  0  0  0  0  0  0  0  0  0
  1  2  1  0
  2  3  1  0
  3  4  1  0
  4  5  1  0
  5  6  2  0
  5  7  1  0
  7  8  1  0
  8  9  1  0
  9 10  1  0
  9 11  2  0
  8 12  2  0
 12 13  1  0
 13 14  2  0
 14 15  1  0
 15 16  2  0
 16 17  1  0
 17 18  1  0
 16 19  1  0
 19 20  2  0
  2 21  1  0
 21 22  1  0
 22 23  2  0
 22 24  1  0
 20  7  1  0
 20 13  1  0
  1 25  1  0
  1 26  1  0
  1 27  1  0
  2 28  1  1
  3 29  1  0
  3 30  1  0
  4 31  1  0
  4 32  1  0
 10 33  1  0
 12 34  1  0
 14 35  1  0
 15 36  1  0
 17 37  1  0
 17 38  1  0
 19 39  1  0
 21 40  1  0
 21 41  1  0
M  CHG  3   2   1  10  -1  24  -1
M  END
>  <UniqueID>  (50) 
49

>  <SMILES>  (50) 
C[N@@H+](CCC(=O)n1c(C([NH-])=O)cc2ccc(CF)cc21)CC(=O)[O-]

>  <Energy>  (50) 
83.0476555302361

>  <Genealogy>  (50) 
C[NH+](CCC(=O)n1c(C([NH-])=O)cc2ccc(CF)cc21)CC(=O)[O-] (protonated)
C[N@@H+](CCC(=O)n1c(C([NH-])=O)cc2ccc(CF)cc21)CC(=O)[O-] (chirality)
C[N@@H+](CCC(=O)n1c(C([NH-])=O)cc2ccc(CF)cc21)CC(=O)[O-] (3D coordinates assigned)
C[N@@H+](CCC(=O)n1c(C([NH-])=O)cc2ccc(CF)cc21)CC(=O)[O-] (optimized conformer: 83.0476555302361 kcal/mol)

>  <smiles>  (50) 
CN(CCC(=O)n1c(C(N)=O)cc2ccc(CF)cc21)CC(=O)O

>  <score_type>  (50) 
oracle

>  <origin>  (50) 
adg

>  <m_score__min__energy>  (50) 
-5.1500000000000004

>  <m_primary>  (50) 
energy

$$$$
52:0
     RDKit          3D

 47 48  0  0  0  0  0  0  0  0999 V2000
  139.0830  147.3210  130.1410 C   0  0  0  0  0  0  0  0  0  0  0  0
  139.3810  148.7230  130.6600 C   0  0  0  0  0  0  0  0  0  0  0  0
  140.2100  148.6710  131.8160 O   0  0  0  0  0  0  0  0  0  0  0  0
  140.3350  149.7250  132.7310 C   0  0  0  0  0  0  0  0  0  0  0  0
  140.5230  149.4990  133.9560 O   0  0  0  0  0  0  0  0  0  0  0  0
  140.3090  151.1360  132.2280 C   0  0  0  0  0  0  0  0  0  0  0  0
  140.9840  152.0920  133.2150 C   0  0  0  0  0  0  0  0  0  0  0  0
  141.0580  153.4460  132.6720 N   0  0  0  0  0  0  0  0  0  0  0  0
  140.5290  154.6040  133.3290 C   0  0  0  0  0  0  0  0  0  0  0  0
  139.2950  154.8550  133.2560 O   0  0  0  0  0  0  0  0  0  0  0  0
  141.3980  155.4650  134.0920 N   0  0  0  0  0  0  0  0  0  0  0  0
  141.3810  155.3900  135.5570 C   0  0  0  0  0  0  0  0  0  0  0  0
  142.2950  156.3780  133.4300 C   0  0  0  0  0  0  0  0  0  0  0  0
  143.1450  155.9420  132.6080 O   0  0  0  0  0  0  0  0  0  0  0  0
  142.2030  157.7940  133.6580 N   0  0  0  0  0  0  0  0  0  0  0  0
  141.0860  158.5320  133.9150 C   0  0  0  0  0  0  0  0  0  0  0  0
  139.7220  157.9970  134.1060 C   0  0  0  0  0  0  0  0  0  0  0  0
  138.9270  157.6580  132.9720 N   0  0  0  0  0  0  0  0  0  0  0  0
  139.2400  157.8580  135.2610 O   0  0  0  0  0  0  0  0  0  0  0  0
  141.4160  159.8800  134.0570 C   0  0  0  0  0  0  0  0  0  0  0  0
  142.7810  159.9420  133.8880 C   0  0  0  0  0  0  0  0  0  0  0  0
  143.6420  161.0330  133.9360 C   0  0  0  0  0  0  0  0  0  0  0  0
  145.0130  160.8010  133.7230 C   0  0  0  0  0  0  0  0  0  0  0  0
  145.4920  159.4930  133.4580 C   0  0  0  0  0  0  0  0  0  0  0  0
  146.9610  159.2640  133.2490 C   0  0  0  0  0  0  0  0  0  0  0  0
  147.6560  160.4410  133.4560 F   0  0  0  0  0  0  0  0  0  0  0  0
  147.4100  158.3050  134.1390 F   0  0  0  0  0  0  0  0  0  0  0  0
  144.5870  158.4080  133.4240 C   0  0  0  0  0  0  0  0  0  0  0  0
  143.2320  158.6690  133.6530 C   0  0  0  0  0  0  0  0  0  0  0  0
  138.9379  146.6384  130.9913 H   0  0  0  0  0  0  0  0  0  0  0  0
  138.1695  147.3432  129.5286 H   0  0  0  0  0  0  0  0  0  0  0  0
  139.9265  146.9697  129.5286 H   0  0  0  0  0  0  0  0  0  0  0  0
  139.8944  149.2964  129.8741 H   0  0  0  0  0  0  0  0  0  0  0  0
  138.4309  149.2071  130.9303 H   0  0  0  0  0  0  0  0  0  0  0  0
  140.8386  151.1827  131.2650 H   0  0  0  0  0  0  0  0  0  0  0  0
  139.2593  151.4430  132.1107 H   0  0  0  0  0  0  0  0  0  0  0  0
  140.4040  152.1113  134.1495 H   0  0  0  0  0  0  0  0  0  0  0  0
  142.0076  151.7349  133.4012 H   0  0  0  0  0  0  0  0  0  0  0  0
  141.6057  156.3813  135.9775 H   0  0  0  0  0  0  0  0  0  0  0  0
  140.3864  155.0648  135.8960 H   0  0  0  0  0  0  0  0  0  0  0  0
  142.1382  154.6677  135.8960 H   0  0  0  0  0  0  0  0  0  0  0  0
  138.3550  156.7850  132.9580 H   0  0  0  0  0  0  0  0  0  0  0  0
  140.7309  160.7161  134.2608 H   0  0  0  0  0  0  0  0  0  0  0  0
  143.2626  162.0463  134.1344 H   0  0  0  0  0  0  0  0  0  0  0  0
  145.7204  161.6425  133.7624 H   0  0  0  0  0  0  0  0  0  0  0  0
  147.1282  158.9204  132.2175 H   0  0  0  0  0  0  0  0  0  0  0  0
  144.9389  157.3854  133.2228 H   0  0  0  0  0  0  0  0  0  0  0  0
  1  2  1  0
  2  3  1  0
  3  4  1  0
  4  5  2  0
  4  6  1  0
  6  7  1  0
  7  8  1  0
  8  9  1  0
  9 10  2  0
  9 11  1  0
 11 12  1  0
 11 13  1  0
 13 14  2  0
 13 15  1  0
 15 16  1  0
 16 17  1  0
 17 18  1  0
 17 19  2  0
 16 20  2  0
 20 21  1  0
 21 22  2  0
 22 23  1  0
 23 24  2  0
 24 25  1  0
 25 26  1  0
 25 27  1  0
 24 28  1  0
 28 29  2  0
 29 15  1  0
 29 21  1  0
  1 30  1  0
  1 31  1  0
  1 32  1  0
  2 33  1  0
  2 34  1  0
  6 35  1  0
  6 36  1  0
  7 37  1  0
  7 38  1  0
 12 39  1  0
 12 40  1  0
 12 41  1  0
 18 42  1  0
 20 43  1  0
 22 44  1  0
 23 45  1  0
 25 46  1  0
 28 47  1  0
M  CHG  2   8  -1  18  -1
M  END
>  <UniqueID>  (51) 
50

>  <SMILES>  (51) 
CCOC(=O)CC[N-]C(=O)N(C)C(=O)n1c(C([NH-])=O)cc2ccc(C(F)F)cc21

>  <Energy>  (51) 
77.46076319223558

>  <Genealogy>  (51) 
CCOC(=O)CC[N-]C(=O)N(C)C(=O)n1c(C([NH-])=O)cc2ccc(C(F)F)cc21 (protonated)
CCOC(=O)CC[N-]C(=O)N(C)C(=O)n1c(C([NH-])=O)cc2ccc(C(F)F)cc21 (3D coordinates assigned)
CCOC(=O)CC[N-]C(=O)N(C)C(=O)n1c(C([NH-])=O)cc2ccc(C(F)F)cc21 (optimized conformer: 77.46076319223558 kcal/mol)

>  <smiles>  (51) 
CCOC(=O)CCNC(=O)N(C)C(=O)n1c(C(N)=O)cc2ccc(C(F)F)cc21

>  <score_type>  (51) 
oracle

>  <origin>  (51) 
adg

>  <m_score__min__energy>  (51) 
-6.8300000000000001

>  <m_primary>  (51) 
energy

$$$$
53:0
     RDKit          3D

 39 40  0  0  0  0  0  0  0  0999 V2000
  144.4050  160.6100  133.9520 C   0  0  0  0  0  0  0  0  0  0  0  0
  143.5300  159.4370  134.0540 N   0  0  0  0  0  0  0  0  0  0  0  0
  142.2830  159.5230  134.8350 C   0  0  0  0  0  0  0  0  0  0  0  0
  141.0450  159.3240  133.9500 C   0  0  1  0  0  0  0  0  0  0  0  0
  141.3070  159.8460  132.6740 O   0  0  0  0  0  0  0  0  0  0  0  0
  140.6920  157.8670  133.8300 C   0  0  0  0  0  0  0  0  0  0  0  0
  140.5780  157.3300  132.6960 O   0  0  0  0  0  0  0  0  0  0  0  0
  140.4640  157.1080  134.9710 O   0  0  0  0  0  0  0  0  0  0  0  0
  143.9070  158.2320  133.3500 C   0  0  0  0  0  0  0  0  0  0  0  0
  143.2340  157.8500  132.3540 O   0  0  0  0  0  0  0  0  0  0  0  0
  145.0450  157.4550  133.7560 N   0  0  0  0  0  0  0  0  0  0  0  0
  145.0480  156.2750  134.4380 C   0  0  0  0  0  0  0  0  0  0  0  0
  143.8660  155.5710  134.9920 C   0  0  0  0  0  0  0  0  0  0  0  0
  142.5430  155.8020  134.5040 N   0  0  0  0  0  0  0  0  0  0  0  0
  144.0290  154.7570  135.9400 O   0  0  0  0  0  0  0  0  0  0  0  0
  146.3370  155.7450  134.4870 C   0  0  0  0  0  0  0  0  0  0  0  0
  147.1250  156.6300  133.7870 C   0  0  0  0  0  0  0  0  0  0  0  0
  148.4740  156.5600  133.4590 C   0  0  0  0  0  0  0  0  0  0  0  0
  149.0070  157.5720  132.6410 C   0  0  0  0  0  0  0  0  0  0  0  0
  148.1870  158.6260  132.1640 C   0  0  0  0  0  0  0  0  0  0  0  0
  148.7620  159.6610  131.2320 C   0  0  0  0  0  0  0  0  0  0  0  0
  149.9260  160.1920  131.7600 F   0  0  0  0  0  0  0  0  0  0  0  0
  147.8680  160.6970  131.0280 F   0  0  0  0  0  0  0  0  0  0  0  0
  149.0490  159.0690  130.0160 F   0  0  0  0  0  0  0  0  0  0  0  0
  146.8110  158.6400  132.4920 C   0  0  0  0  0  0  0  0  0  0  0  0
  146.3180  157.6420  133.3400 C   0  0  0  0  0  0  0  0  0  0  0  0
  144.6668  160.9610  134.9611 H   0  0  0  0  0  0  0  0  0  0  0  0
  145.3221  160.3373  133.4092 H   0  0  0  0  0  0  0  0  0  0  0  0
  143.8822  161.4113  133.4092 H   0  0  0  0  0  0  0  0  0  0  0  0
  142.2946  158.7447  135.6122 H   0  0  0  0  0  0  0  0  0  0  0  0
  142.2271  160.5261  135.2830 H   0  0  0  0  0  0  0  0  0  0  0  0
  140.1950  159.8474  134.4121 H   0  0  0  0  0  0  0  0  0  0  0  0
  141.7050  159.1110  132.1380 H   0  0  0  0  0  0  0  0  0  0  0  0
  142.3240  156.5830  133.8510 H   0  0  0  0  0  0  0  0  0  0  0  0
  141.7460  155.2460  134.8860 H   0  0  0  0  0  0  0  0  0  0  0  0
  146.6566  154.8155  134.9810 H   0  0  0  0  0  0  0  0  0  0  0  0
  149.1052  155.7382  133.8280 H   0  0  0  0  0  0  0  0  0  0  0  0
  150.0723  157.5458  132.3680 H   0  0  0  0  0  0  0  0  0  0  0  0
  146.1443  159.4171  132.0899 H   0  0  0  0  0  0  0  0  0  0  0  0
  1  2  1  0
  2  3  1  0
  3  4  1  0
  4  5  1  0
  4  6  1  0
  6  7  2  0
  6  8  1  0
  2  9  1  0
  9 10  2  0
  9 11  1  0
 11 12  1  0
 12 13  1  0
 13 14  1  0
 13 15  2  0
 12 16  2  0
 16 17  1  0
 17 18  2  0
 18 19  1  0
 19 20  2  0
 20 21  1  0
 21 22  1  0
 21 23  1  0
 21 24  1  0
 20 25  1  0
 25 26  2  0
 26 11  1  0
 26 17  1  0
  1 27  1  0
  1 28  1  0
  1 29  1  0
  3 30  1  0
  3 31  1  0
  4 32  1  1
  5 33  1  0
 14 34  1  0
 14 35  1  0
 16 36  1  0
 18 37  1  0
 19 38  1  0
 25 39  1  0
M  CHG  1   8  -1
M  END
>  <UniqueID>  (52) 
51

>  <SMILES>  (52) 
CN(C[C@@H](O)C(=O)[O-])C(=O)n1c(C(N)=O)cc2ccc(C(F)(F)F)cc21

>  <Energy>  (52) 
76.00608594258811

>  <Genealogy>  (52) 
CN(CC(O)C(=O)[O-])C(=O)n1c(C(N)=O)cc2ccc(C(F)(F)F)cc21 (protonated)
CN(C[C@@H](O)C(=O)[O-])C(=O)n1c(C(N)=O)cc2ccc(C(F)(F)F)cc21 (chirality)
CN(C[C@@H](O)C(=O)[O-])C(=O)n1c(C(N)=O)cc2ccc(C(F)(F)F)cc21 (3D coordinates assigned)
CN(C[C@@H](O)C(=O)[O-])C(=O)n1c(C(N)=O)cc2ccc(C(F)(F)F)cc21 (optimized conformer: 76.00608594258811 kcal/mol)

>  <smiles>  (52) 
CN(CC(O)C(=O)O)C(=O)n1c(C(N)=O)cc2ccc(C(F)(F)F)cc21

>  <score_type>  (52) 
oracle

>  <origin>  (52) 
adg

>  <m_score__min__energy>  (52) 
-6.6100000000000003

>  <m_primary>  (52) 
energy

$$$$
54:0
     RDKit          3D

 36 37  0  0  0  0  0  0  0  0999 V2000
  138.7500  159.7300  130.8750 C   0  0  0  0  0  0  0  0  0  0  0  0
  139.5420  158.7310  131.5770 N   0  0  0  0  0  0  0  0  0  0  0  0
  140.4360  159.0640  132.6420 C   0  0  0  0  0  0  0  0  0  0  0  0
  140.6090  160.2680  132.9760 O   0  0  0  0  0  0  0  0  0  0  0  0
  141.1800  157.9760  133.3580 C   0  0  0  0  0  0  0  0  0  0  0  0
  142.6730  157.9680  133.0030 C   0  0  0  0  0  0  0  0  0  0  0  0
  143.4880  158.6990  134.0340 C   0  0  0  0  0  0  0  0  0  0  0  0
  142.9750  158.9700  135.1530 O   0  0  0  0  0  0  0  0  0  0  0  0
  144.8000  159.1890  133.7170 N   0  0  0  0  0  0  0  0  0  0  0  0
  145.2410  160.4780  133.7340 C   0  0  0  0  0  0  0  0  0  0  0  0
  144.3940  161.6790  133.8820 C   0  0  0  0  0  0  0  0  0  0  0  0
  142.9790  161.5980  133.7230 N   0  0  0  0  0  0  0  0  0  0  0  0
  144.9280  162.7970  134.1070 O   0  0  0  0  0  0  0  0  0  0  0  0
  146.6150  160.5250  133.5060 C   0  0  0  0  0  0  0  0  0  0  0  0
  147.0010  159.2150  133.3320 C   0  0  0  0  0  0  0  0  0  0  0  0
  148.2580  158.6750  133.0830 C   0  0  0  0  0  0  0  0  0  0  0  0
  148.3660  157.2780  132.9740 C   0  0  0  0  0  0  0  0  0  0  0  0
  147.2260  156.4470  133.1270 C   0  0  0  0  0  0  0  0  0  0  0  0
  147.3760  154.9530  132.9920 C   0  0  0  0  0  0  0  0  0  0  0  0
  147.5190  154.3450  134.2270 F   0  0  0  0  0  0  0  0  0  0  0  0
  148.4930  154.6600  132.2310 F   0  0  0  0  0  0  0  0  0  0  0  0
  146.2550  154.4370  132.3680 F   0  0  0  0  0  0  0  0  0  0  0  0
  145.9600  157.0370  133.3580 C   0  0  0  0  0  0  0  0  0  0  0  0
  145.8850  158.4300  133.4570 C   0  0  0  0  0  0  0  0  0  0  0  0
  138.2397  160.3737  131.6066 H   0  0  0  0  0  0  0  0  0  0  0  0
  139.4096  160.3437  130.2439 H   0  0  0  0  0  0  0  0  0  0  0  0
  138.0021  159.2277  130.2439 H   0  0  0  0  0  0  0  0  0  0  0  0
  141.0740  158.1279  134.4423 H   0  0  0  0  0  0  0  0  0  0  0  0
  140.7524  157.0115  133.0467 H   0  0  0  0  0  0  0  0  0  0  0  0
  143.0211  156.9262  132.9450 H   0  0  0  0  0  0  0  0  0  0  0  0
  142.8010  158.4777  132.0367 H   0  0  0  0  0  0  0  0  0  0  0  0
  142.4530  160.7500  134.0290 H   0  0  0  0  0  0  0  0  0  0  0  0
  147.2552  161.4189  133.4722 H   0  0  0  0  0  0  0  0  0  0  0  0
  149.1412  159.3217  132.9746 H   0  0  0  0  0  0  0  0  0  0  0  0
  149.3461  156.8233  132.7676 H   0  0  0  0  0  0  0  0  0  0  0  0
  145.0579  156.4154  133.4571 H   0  0  0  0  0  0  0  0  0  0  0  0
  1  2  1  0
  2  3  1  0
  3  4  2  0
  3  5  1  0
  5  6  1  0
  6  7  1  0
  7  8  2  0
  7  9  1  0
  9 10  1  0
 10 11  1  0
 11 12  1  0
 11 13  2  0
 10 14  2  0
 14 15  1  0
 15 16  2  0
 16 17  1  0
 17 18  2  0
 18 19  1  0
 19 20  1  0
 19 21  1  0
 19 22  1  0
 18 23  1  0
 23 24  2  0
 24  9  1  0
 24 15  1  0
  1 25  1  0
  1 26  1  0
  1 27  1  0
  5 28  1  0
  5 29  1  0
  6 30  1  0
  6 31  1  0
 12 32  1  0
 14 33  1  0
 16 34  1  0
 17 35  1  0
 23 36  1  0
M  CHG  2   2  -1  12  -1
M  END
>  <UniqueID>  (53) 
52

>  <SMILES>  (53) 
C[N-]C(=O)CCC(=O)n1c(C([NH-])=O)cc2ccc(C(F)(F)F)cc21

>  <Energy>  (53) 
67.71765632229821

>  <Genealogy>  (53) 
C[N-]C(=O)CCC(=O)n1c(C([NH-])=O)cc2ccc(C(F)(F)F)cc21 (protonated)
C[N-]C(=O)CCC(=O)n1c(C([NH-])=O)cc2ccc(C(F)(F)F)cc21 (3D coordinates assigned)
C[N-]C(=O)CCC(=O)n1c(C([NH-])=O)cc2ccc(C(F)(F)F)cc21 (optimized conformer: 67.71765632229821 kcal/mol)

>  <smiles>  (53) 
CNC(=O)CCC(=O)n1c(C(N)=O)cc2ccc(C(F)(F)F)cc21

>  <score_type>  (53) 
oracle

>  <origin>  (53) 
adg

>  <m_score__min__energy>  (53) 
-6.4000000000000004

>  <m_primary>  (53) 
energy

$$$$
55:0
     RDKit          3D

 44 46  0  0  0  0  0  0  0  0999 V2000
  141.2570  150.4520  132.2600 C   0  0  0  0  0  0  0  0  0  0  0  0
  140.7760  151.4550  133.1980 N   0  0  0  0  0  0  0  0  0  0  0  0
  141.1780  152.8300  133.1830 C   0  0  0  0  0  0  0  0  0  0  0  0
  140.4430  153.6740  132.6060 O   0  0  0  0  0  0  0  0  0  0  0  0
  142.4650  153.2840  133.8090 C   0  0  0  0  0  0  0  0  0  0  0  0
  142.2950  154.5560  134.4080 O   0  0  0  0  0  0  0  0  0  0  0  0
  143.5020  155.2950  134.3940 C   0  0  0  0  0  0  0  0  0  0  0  0
  143.5590  156.1660  133.1750 C   0  0  0  0  0  0  0  0  0  0  0  0
  143.9310  155.6770  132.0750 O   0  0  0  0  0  0  0  0  0  0  0  0
  143.2960  157.5710  133.2750 N   0  0  0  0  0  0  0  0  0  0  0  0
  142.0940  158.1850  133.4580 C   0  0  0  0  0  0  0  0  0  0  0  0
  140.7800  157.5030  133.4370 C   0  0  0  0  0  0  0  0  0  0  0  0
  140.6620  156.1430  133.0120 N   0  0  0  0  0  0  0  0  0  0  0  0
  139.7450  158.1190  133.8050 O   0  0  0  0  0  0  0  0  0  0  0  0
  142.2760  159.5590  133.6350 C   0  0  0  0  0  0  0  0  0  0  0  0
  143.6380  159.7590  133.5670 C   0  0  0  0  0  0  0  0  0  0  0  0
  144.3880  160.9190  133.7410 C   0  0  0  0  0  0  0  0  0  0  0  0
  145.7890  160.8100  133.7020 C   0  0  0  0  0  0  0  0  0  0  0  0
  146.4090  159.5540  133.4800 C   0  0  0  0  0  0  0  0  0  0  0  0
  147.9060  159.4230  133.5300 C   0  0  0  0  0  0  0  0  0  0  0  0
  148.4660  159.6810  132.2080 N   0  0  0  0  0  0  0  0  0  0  0  0
  148.9570  158.7720  131.3510 C   0  0  0  0  0  0  0  0  0  0  0  0
  149.2980  159.3450  130.1800 N   0  0  0  0  0  0  0  0  0  0  0  0
  148.9740  160.6410  130.3850 C   0  0  0  0  0  0  0  0  0  0  0  0
  148.4590  160.8570  131.6100 N   0  0  0  0  0  0  0  0  0  0  0  0
  145.6160  158.4020  133.2990 C   0  0  0  0  0  0  0  0  0  0  0  0
  144.2270  158.5420  133.3450 C   0  0  0  0  0  0  0  0  0  0  0  0
  141.6673  149.5964  132.8165 H   0  0  0  0  0  0  0  0  0  0  0  0
  140.4238  150.1123  131.6272 H   0  0  0  0  0  0  0  0  0  0  0  0
  142.0435  150.8890  131.6272 H   0  0  0  0  0  0  0  0  0  0  0  0
  142.7713  152.5586  134.5771 H   0  0  0  0  0  0  0  0  0  0  0  0
  143.2382  153.3544  133.0297 H   0  0  0  0  0  0  0  0  0  0  0  0
  143.5532  155.9252  135.2941 H   0  0  0  0  0  0  0  0  0  0  0  0
  144.3515  154.5964  134.3773 H   0  0  0  0  0  0  0  0  0  0  0  0
  139.7330  155.6680  133.0380 H   0  0  0  0  0  0  0  0  0  0  0  0
  141.4790  155.6150  132.6350 H   0  0  0  0  0  0  0  0  0  0  0  0
  141.4975  160.3196  133.7947 H   0  0  0  0  0  0  0  0  0  0  0  0
  143.8993  161.8909  133.9040 H   0  0  0  0  0  0  0  0  0  0  0  0
  146.4098  161.7068  133.8449 H   0  0  0  0  0  0  0  0  0  0  0  0
  148.3130  160.1503  134.2479 H   0  0  0  0  0  0  0  0  0  0  0  0
  148.1724  158.4036  133.8461 H   0  0  0  0  0  0  0  0  0  0  0  0
  149.0666  157.7006  131.5751 H   0  0  0  0  0  0  0  0  0  0  0  0
  149.1155  161.4320  129.6338 H   0  0  0  0  0  0  0  0  0  0  0  0
  146.0790  157.4193  133.1262 H   0  0  0  0  0  0  0  0  0  0  0  0
  1  2  1  0
  2  3  1  0
  3  4  2  0
  3  5  1  0
  5  6  1  0
  6  7  1  0
  7  8  1  0
  8  9  2  0
  8 10  1  0
 10 11  1  0
 11 12  1  0
 12 13  1  0
 12 14  2  0
 11 15  2  0
 15 16  1  0
 16 17  2  0
 17 18  1  0
 18 19  2  0
 19 20  1  0
 20 21  1  0
 21 22  1  0
 22 23  2  0
 23 24  1  0
 24 25  2  0
 19 26  1  0
 26 27  2  0
 27 10  1  0
 27 16  1  0
 25 21  1  0
  1 28  1  0
  1 29  1  0
  1 30  1  0
  5 31  1  0
  5 32  1  0
  7 33  1  0
  7 34  1  0
 13 35  1  0
 13 36  1  0
 15 37  1  0
 17 38  1  0
 18 39  1  0
 20 40  1  0
 20 41  1  0
 22 42  1  0
 24 43  1  0
 26 44  1  0
M  CHG  1   2  -1
M  END
>  <UniqueID>  (54) 
53

>  <SMILES>  (54) 
C[N-]C(=O)COCC(=O)n1c(C(N)=O)cc2ccc(Cn3cncn3)cc21

>  <Energy>  (54) 
114.05143580383744

>  <Genealogy>  (54) 
C[N-]C(=O)COCC(=O)n1c(C(N)=O)cc2ccc(Cn3cncn3)cc21 (protonated)
C[N-]C(=O)COCC(=O)n1c(C(N)=O)cc2ccc(Cn3cncn3)cc21 (3D coordinates assigned)
C[N-]C(=O)COCC(=O)n1c(C(N)=O)cc2ccc(Cn3cncn3)cc21 (optimized conformer: 114.05143580383744 kcal/mol)

>  <smiles>  (54) 
CNC(=O)COCC(=O)n1c(C(N)=O)cc2ccc(Cn3cncn3)cc21

>  <score_type>  (54) 
oracle

>  <origin>  (54) 
adg

>  <m_score__min__energy>  (54) 
-7.25

>  <m_primary>  (54) 
energy

$$$$
57:0
     RDKit          3D

 41 43  0  0  0  0  0  0  0  0999 V2000
  143.2210  161.3120  133.7270 N   0  0  0  0  0  0  0  0  0  0  0  0
  144.6370  161.4400  133.8310 C   0  0  0  0  0  0  0  0  0  0  0  0
  145.1310  162.5360  134.2070 O   0  0  0  0  0  0  0  0  0  0  0  0
  145.5270  160.2920  133.5570 C   0  0  0  0  0  0  0  0  0  0  0  0
  146.9010  160.4170  133.3590 C   0  0  0  0  0  0  0  0  0  0  0  0
  147.3690  159.1300  133.2320 C   0  0  0  0  0  0  0  0  0  0  0  0
  148.6610  158.6680  133.0100 C   0  0  0  0  0  0  0  0  0  0  0  0
  148.8550  157.2810  132.8920 C   0  0  0  0  0  0  0  0  0  0  0  0
  147.7600  156.3780  132.9880 C   0  0  0  0  0  0  0  0  0  0  0  0
  147.9690  154.9530  132.8540 N   0  0  0  0  0  0  0  0  0  0  0  0
  146.9160  153.9590  133.0060 C   0  0  0  0  0  0  0  0  0  0  0  0
  147.5420  152.6250  132.6200 C   0  0  0  0  0  0  0  0  0  0  0  0
  149.0480  152.8420  132.6860 C   0  0  0  0  0  0  0  0  0  0  0  0
  149.2570  154.3430  132.5560 C   0  0  0  0  0  0  0  0  0  0  0  0
  146.4600  156.8970  133.2120 C   0  0  0  0  0  0  0  0  0  0  0  0
  146.3020  158.2810  133.3450 C   0  0  0  0  0  0  0  0  0  0  0  0
  145.1610  158.9790  133.5410 N   0  0  0  0  0  0  0  0  0  0  0  0
  143.8370  158.4320  133.6300 C   0  0  0  0  0  0  0  0  0  0  0  0
  143.3220  157.8680  132.6270 O   0  0  0  0  0  0  0  0  0  0  0  0
  143.1370  158.5040  134.8390 O   0  0  0  0  0  0  0  0  0  0  0  0
  141.8210  157.9830  135.0170 C   0  0  0  0  0  0  0  0  0  0  0  0
  140.7730  159.0080  134.5830 C   0  0  0  0  0  0  0  0  0  0  0  0
  141.0860  159.5140  133.3130 O   0  0  0  0  0  0  0  0  0  0  0  0
  142.7380  160.4380  134.0260 H   0  0  0  0  0  0  0  0  0  0  0  0
  147.4865  161.3471  133.3139 H   0  0  0  0  0  0  0  0  0  0  0  0
  149.5064  159.3671  132.9291 H   0  0  0  0  0  0  0  0  0  0  0  0
  149.8684  156.8880  132.7229 H   0  0  0  0  0  0  0  0  0  0  0  0
  146.5651  153.9297  134.0481 H   0  0  0  0  0  0  0  0  0  0  0  0
  146.0452  154.1937  132.3762 H   0  0  0  0  0  0  0  0  0  0  0  0
  147.2364  151.8392  133.3265 H   0  0  0  0  0  0  0  0  0  0  0  0
  147.2220  152.3010  131.6187 H   0  0  0  0  0  0  0  0  0  0  0  0
  149.4451  152.4818  133.6465 H   0  0  0  0  0  0  0  0  0  0  0  0
  149.5716  152.2902  131.8914 H   0  0  0  0  0  0  0  0  0  0  0  0
  150.0179  154.6867  133.2722 H   0  0  0  0  0  0  0  0  0  0  0  0
  149.6099  154.6158  131.5505 H   0  0  0  0  0  0  0  0  0  0  0  0
  145.5921  156.2246  133.2800 H   0  0  0  0  0  0  0  0  0  0  0  0
  141.7080  157.0718  134.4112 H   0  0  0  0  0  0  0  0  0  0  0  0
  141.6719  157.7528  136.0823 H   0  0  0  0  0  0  0  0  0  0  0  0
  139.7853  158.5251  134.5482 H   0  0  0  0  0  0  0  0  0  0  0  0
  140.7611  159.8368  135.3062 H   0  0  0  0  0  0  0  0  0  0  0  0
  142.0760  159.5630  133.2620 H   0  0  0  0  0  0  0  0  0  0  0  0
  1  2  1  0
  2  3  2  0
  2  4  1  0
  4  5  2  0
  5  6  1  0
  6  7  2  0
  7  8  1  0
  8  9  2  0
  9 10  1  0
 10 11  1  0
 11 12  1  0
 12 13  1  0
 13 14  1  0
  9 15  1  0
 15 16  2  0
 16 17  1  0
 17 18  1  0
 18 19  2  0
 18 20  1  0
 20 21  1  0
 21 22  1  0
 22 23  1  0
 17  4  1  0
 16  6  1  0
 14 10  1  0
  1 24  1  0
  5 25  1  0
  7 26  1  0
  8 27  1  0
 11 28  1  0
 11 29  1  0
 12 30  1  0
 12 31  1  0
 13 32  1  0
 13 33  1  0
 14 34  1  0
 14 35  1  0
 15 36  1  0
 21 37  1  0
 21 38  1  0
 22 39  1  0
 22 40  1  0
 23 41  1  0
M  CHG  1   1  -1
M  END
>  <UniqueID>  (55) 
54

>  <SMILES>  (55) 
[NH-]C(=O)c1cc2ccc(N3CCCC3)cc2n1C(=O)OCCO

>  <Energy>  (55) 
78.74122596377052

>  <Genealogy>  (55) 
[NH-]C(=O)c1cc2ccc(N3CCCC3)cc2n1C(=O)OCCO (protonated)
[NH-]C(=O)c1cc2ccc(N3CCCC3)cc2n1C(=O)OCCO (3D coordinates assigned)
[NH-]C(=O)c1cc2ccc(N3CCCC3)cc2n1C(=O)OCCO (nonaromatic ring conformer: 78.74122596377052 kcal/mol)

>  <smiles>  (55) 
NC(=O)c1cc2ccc(N3CCCC3)cc2n1C(=O)OCCO

>  <score_type>  (55) 
oracle

>  <origin>  (55) 
adg

>  <m_score__min__energy>  (55) 
-6.4400000000000004

>  <m_primary>  (55) 
energy

$$$$
58:0
     RDKit          3D

 48 50  0  0  0  0  0  0  0  0999 V2000
  150.1820  150.6660  130.8900 C   0  0  0  0  0  0  0  0  0  0  0  0
  150.2350  151.5390  132.0130 O   0  0  0  0  0  0  0  0  0  0  0  0
  149.2490  152.4860  132.3270 C   0  0  0  0  0  0  0  0  0  0  0  0
  147.9220  152.1230  132.6230 C   0  0  0  0  0  0  0  0  0  0  0  0
  146.9750  153.1050  132.9300 C   0  0  0  0  0  0  0  0  0  0  0  0
  147.3330  154.4640  132.9440 C   0  0  0  0  0  0  0  0  0  0  0  0
  146.3130  155.4940  133.2590 C   0  0  0  0  0  0  0  0  0  0  0  0
  145.0330  155.1080  133.7370 C   0  0  0  0  0  0  0  0  0  0  0  0
  144.0600  156.0740  134.0430 C   0  0  0  0  0  0  0  0  0  0  0  0
  144.3860  157.4130  133.8530 C   0  0  0  0  0  0  0  0  0  0  0  0
  143.6450  158.5480  134.0910 C   0  0  0  0  0  0  0  0  0  0  0  0
  144.4690  159.6110  133.7270 C   0  0  0  0  0  0  0  0  0  0  0  0
  144.0310  161.0220  133.7430 C   0  0  0  0  0  0  0  0  0  0  0  0
  144.9320  162.0660  134.1020 N   0  0  0  0  0  0  0  0  0  0  0  0
  142.8580  161.3150  133.3880 O   0  0  0  0  0  0  0  0  0  0  0  0
  145.6760  159.1510  133.2910 N   0  0  0  0  0  0  0  0  0  0  0  0
  146.8290  159.9160  132.9090 C   0  0  0  0  0  0  0  0  0  0  0  0
  147.3500  160.7140  133.7330 O   0  0  0  0  0  0  0  0  0  0  0  0
  147.3750  159.7420  131.6280 O   0  0  0  0  0  0  0  0  0  0  0  0
  148.7680  159.7440  131.2900 C   0  0  0  0  0  0  0  0  0  0  0  0
  149.6030  159.1220  132.4240 C   0  0  0  0  0  0  0  0  0  0  0  0
  149.1870  161.2110  131.1100 C   0  0  0  0  0  0  0  0  0  0  0  0
  149.0040  158.9940  129.9650 C   0  0  0  0  0  0  0  0  0  0  0  0
  145.6080  157.8040  133.3720 C   0  0  0  0  0  0  0  0  0  0  0  0
  146.6030  156.8660  133.0750 C   0  0  0  0  0  0  0  0  0  0  0  0
  148.6630  154.8240  132.6520 C   0  0  0  0  0  0  0  0  0  0  0  0
  149.0600  156.1200  132.6970 F   0  0  0  0  0  0  0  0  0  0  0  0
  149.6070  153.8380  132.3470 C   0  0  0  0  0  0  0  0  0  0  0  0
  150.1188  149.6244  131.2380 H   0  0  0  0  0  0  0  0  0  0  0  0
  149.2966  150.9039  130.2821 H   0  0  0  0  0  0  0  0  0  0  0  0
  151.0896  150.7951  130.2821 H   0  0  0  0  0  0  0  0  0  0  0  0
  147.6286  151.0629  132.6129 H   0  0  0  0  0  0  0  0  0  0  0  0
  145.9408  152.8112  133.1626 H   0  0  0  0  0  0  0  0  0  0  0  0
  144.8007  154.0410  133.8692 H   0  0  0  0  0  0  0  0  0  0  0  0
  143.0698  155.7804  134.4216 H   0  0  0  0  0  0  0  0  0  0  0  0
  142.6196  158.6041  134.4851 H   0  0  0  0  0  0  0  0  0  0  0  0
  145.8210  162.2150  133.5730 H   0  0  0  0  0  0  0  0  0  0  0  0
  149.1892  159.4302  133.3955 H   0  0  0  0  0  0  0  0  0  0  0  0
  149.5716  158.0254  132.3434 H   0  0  0  0  0  0  0  0  0  0  0  0
  150.6447  159.4659  132.3434 H   0  0  0  0  0  0  0  0  0  0  0  0
  149.3204  161.6780  132.0970 H   0  0  0  0  0  0  0  0  0  0  0  0
  150.1339  161.2561  130.5521 H   0  0  0  0  0  0  0  0  0  0  0  0
  148.4067  161.7494  130.5521 H   0  0  0  0  0  0  0  0  0  0  0  0
  149.3279  157.9648  130.1789 H   0  0  0  0  0  0  0  0  0  0  0  0
  148.0696  158.9713  129.3850 H   0  0  0  0  0  0  0  0  0  0  0  0
  149.7830  159.5105  129.3850 H   0  0  0  0  0  0  0  0  0  0  0  0
  147.5882  157.1883  132.7068 H   0  0  0  0  0  0  0  0  0  0  0  0
  150.6432  154.1293  132.1202 H   0  0  0  0  0  0  0  0  0  0  0  0
  1  2  1  0
  2  3  1  0
  3  4  2  0
  4  5  1  0
  5  6  2  0
  6  7  1  0
  7  8  2  0
  8  9  1  0
  9 10  2  0
 10 11  1  0
 11 12  2  0
 12 13  1  0
 13 14  1  0
 13 15  2  0
 12 16  1  0
 16 17  1  0
 17 18  2  0
 17 19  1  0
 19 20  1  0
 20 21  1  0
 20 22  1  0
 20 23  1  0
 16 24  1  0
 24 25  2  0
  6 26  1  0
 26 27  1  0
 26 28  2  0
 28  3  1  0
 25  7  1  0
 24 10  1  0
  1 29  1  0
  1 30  1  0
  1 31  1  0
  4 32  1  0
  5 33  1  0
  8 34  1  0
  9 35  1  0
 11 36  1  0
 14 37  1  0
 21 38  1  0
 21 39  1  0
 21 40  1  0
 22 41  1  0
 22 42  1  0
 22 43  1  0
 23 44  1  0
 23 45  1  0
 23 46  1  0
 25 47  1  0
 28 48  1  0
M  CHG  1  14  -1
M  END
>  <UniqueID>  (56) 
55

>  <SMILES>  (56) 
COc1ccc(-c2ccc3cc(C([NH-])=O)n(C(=O)OC(C)(C)C)c3c2)c(F)c1

>  <Energy>  (56) 
89.7360670735583

>  <Genealogy>  (56) 
COc1ccc(-c2ccc3cc(C([NH-])=O)n(C(=O)OC(C)(C)C)c3c2)c(F)c1 (protonated)
COc1ccc(-c2ccc3cc(C([NH-])=O)n(C(=O)OC(C)(C)C)c3c2)c(F)c1 (3D coordinates assigned)
COc1ccc(-c2ccc3cc(C([NH-])=O)n(C(=O)OC(C)(C)C)c3c2)c(F)c1 (optimized conformer: 89.7360670735583 kcal/mol)

>  <smiles>  (56) 
COc1ccc(-c2ccc3cc(C(N)=O)n(C(=O)OC(C)(C)C)c3c2)c(F)c1

>  <score_type>  (56) 
oracle

>  <origin>  (56) 
adg

>  <m_score__min__energy>  (56) 
-8.2400000000000002

>  <m_primary>  (56) 
energy

$$$$
59:0
     RDKit          3D

 39 40  0  0  0  0  0  0  0  0999 V2000
  148.8230  154.0840  132.9220 C   0  0  0  0  0  0  0  0  0  0  0  0
  148.4170  155.2180  132.9500 C   0  0  0  0  0  0  0  0  0  0  0  0
  147.9290  156.5720  132.9870 C   0  0  0  0  0  0  0  0  0  0  0  0
  148.8040  157.6470  132.7030 C   0  0  0  0  0  0  0  0  0  0  0  0
  148.3430  158.9740  132.7600 C   0  0  0  0  0  0  0  0  0  0  0  0
  147.0080  159.1860  133.0960 C   0  0  0  0  0  0  0  0  0  0  0  0
  146.3130  160.3620  133.2650 C   0  0  0  0  0  0  0  0  0  0  0  0
  145.0220  159.9800  133.6290 C   0  0  0  0  0  0  0  0  0  0  0  0
  143.9060  160.9290  133.8450 C   0  0  0  0  0  0  0  0  0  0  0  0
  142.5710  160.4570  134.0310 N   0  0  0  0  0  0  0  0  0  0  0  0
  144.1290  162.1670  133.8910 O   0  0  0  0  0  0  0  0  0  0  0  0
  144.9240  158.6210  133.6780 N   0  0  0  0  0  0  0  0  0  0  0  0
  143.7940  157.8350  134.0860 C   0  0  0  0  0  0  0  0  0  0  0  0
  143.2950  157.9990  135.2330 O   0  0  0  0  0  0  0  0  0  0  0  0
  143.2640  156.8770  133.2160 O   0  0  0  0  0  0  0  0  0  0  0  0
  141.8680  156.7550  132.9600 C   0  0  0  0  0  0  0  0  0  0  0  0
  141.3260  158.0250  132.6080 O   0  0  0  0  0  0  0  0  0  0  0  0
  140.3030  158.6390  133.3390 C   0  0  0  0  0  0  0  0  0  0  0  0
  140.2040  159.8940  133.3810 O   0  0  0  0  0  0  0  0  0  0  0  0
  139.2920  157.7900  134.0460 C   0  0  0  0  0  0  0  0  0  0  0  0
  139.1440  158.2040  135.5160 C   0  0  0  0  0  0  0  0  0  0  0  0
  140.4670  158.5400  136.1390 C   0  0  0  0  0  0  0  0  0  0  0  0
  141.0100  157.7390  136.9440 O   0  0  0  0  0  0  0  0  0  0  0  0
  141.0910  159.7450  135.8420 O   0  0  0  0  0  0  0  0  0  0  0  0
  146.1470  158.1500  133.3520 C   0  0  0  0  0  0  0  0  0  0  0  0
  146.5830  156.8210  133.3180 C   0  0  0  0  0  0  0  0  0  0  0  0
  149.1937  153.0486  132.8964 H   0  0  0  0  0  0  0  0  0  0  0  0
  149.8515  157.4433  132.4360 H   0  0  0  0  0  0  0  0  0  0  0  0
  149.0153  159.8180  132.5460 H   0  0  0  0  0  0  0  0  0  0  0  0
  146.6948  161.3859  133.1396 H   0  0  0  0  0  0  0  0  0  0  0  0
  142.3330  159.4430  133.9410 H   0  0  0  0  0  0  0  0  0  0  0  0
  141.7980  161.1330  134.2210 H   0  0  0  0  0  0  0  0  0  0  0  0
  141.7096  156.0487  132.1317 H   0  0  0  0  0  0  0  0  0  0  0  0
  141.3650  156.3854  133.8657 H   0  0  0  0  0  0  0  0  0  0  0  0
  138.3194  157.8985  133.5438 H   0  0  0  0  0  0  0  0  0  0  0  0
  139.6335  156.7449  134.0131 H   0  0  0  0  0  0  0  0  0  0  0  0
  138.4899  159.0866  135.5727 H   0  0  0  0  0  0  0  0  0  0  0  0
  138.7135  157.3551  136.0674 H   0  0  0  0  0  0  0  0  0  0  0  0
  145.8938  155.9938  133.5435 H   0  0  0  0  0  0  0  0  0  0  0  0
  1  2  3  0
  2  3  1  0
  3  4  2  0
  4  5  1  0
  5  6  2  0
  6  7  1  0
  7  8  2  0
  8  9  1  0
  9 10  1  0
  9 11  2  0
  8 12  1  0
 12 13  1  0
 13 14  2  0
 13 15  1  0
 15 16  1  0
 16 17  1  0
 17 18  1  0
 18 19  2  0
 18 20  1  0
 20 21  1  0
 21 22  1  0
 22 23  2  0
 22 24  1  0
 12 25  1  0
 25 26  2  0
 26  3  1  0
 25  6  1  0
  1 27  1  0
  4 28  1  0
  5 29  1  0
  7 30  1  0
 10 31  1  0
 10 32  1  0
 16 33  1  0
 16 34  1  0
 20 35  1  0
 20 36  1  0
 21 37  1  0
 21 38  1  0
 26 39  1  0
M  CHG  1  24  -1
M  END
>  <UniqueID>  (57) 
56

>  <SMILES>  (57) 
C#Cc1ccc2cc(C(N)=O)n(C(=O)OCOC(=O)CCC(=O)[O-])c2c1

>  <Energy>  (57) 
66.52661063207941

>  <Genealogy>  (57) 
C#Cc1ccc2cc(C(N)=O)n(C(=O)OCOC(=O)CCC(=O)[O-])c2c1 (protonated)
C#Cc1ccc2cc(C(N)=O)n(C(=O)OCOC(=O)CCC(=O)[O-])c2c1 (3D coordinates assigned)
C#Cc1ccc2cc(C(N)=O)n(C(=O)OCOC(=O)CCC(=O)[O-])c2c1 (optimized conformer: 66.52661063207941 kcal/mol)

>  <smiles>  (57) 
C#Cc1ccc2cc(C(N)=O)n(C(=O)OCOC(=O)CCC(=O)O)c2c1

>  <score_type>  (57) 
oracle

>  <origin>  (57) 
adg

>  <m_score__min__energy>  (57) 
-7.2199999999999998

>  <m_primary>  (57) 
energy

$$$$
60:0
     RDKit          3D

 42 44  0  0  0  0  0  0  0  0999 V2000
  142.6590  160.6920  133.9760 N   0  0  0  0  0  0  0  0  0  0  0  0
  144.0250  161.0430  133.7750 C   0  0  0  0  0  0  0  0  0  0  0  0
  144.3490  162.2600  133.7420 O   0  0  0  0  0  0  0  0  0  0  0  0
  145.0620  160.0040  133.5870 C   0  0  0  0  0  0  0  0  0  0  0  0
  146.4060  160.2850  133.3430 C   0  0  0  0  0  0  0  0  0  0  0  0
  147.0140  159.0590  133.1920 C   0  0  0  0  0  0  0  0  0  0  0  0
  148.3440  158.7420  132.9430 C   0  0  0  0  0  0  0  0  0  0  0  0
  148.6920  157.3830  132.8550 C   0  0  0  0  0  0  0  0  0  0  0  0
  147.7140  156.3650  133.0210 C   0  0  0  0  0  0  0  0  0  0  0  0
  148.0940  154.9330  132.9330 C   0  0  0  0  0  0  0  0  0  0  0  0
  147.2770  153.8380  133.1600 C   0  0  0  0  0  0  0  0  0  0  0  0
  148.0680  152.7270  132.9550 C   0  0  0  0  0  0  0  0  0  0  0  0
  149.2820  153.1000  132.6270 O   0  0  0  0  0  0  0  0  0  0  0  0
  149.3360  154.4130  132.6040 C   0  0  0  0  0  0  0  0  0  0  0  0
  146.3720  156.7340  133.2760 C   0  0  0  0  0  0  0  0  0  0  0  0
  146.0540  158.0940  133.3430 C   0  0  0  0  0  0  0  0  0  0  0  0
  144.8520  158.6580  133.5850 N   0  0  0  0  0  0  0  0  0  0  0  0
  143.6200  157.9630  133.8140 C   0  0  0  0  0  0  0  0  0  0  0  0
  143.2040  157.8030  134.9920 O   0  0  0  0  0  0  0  0  0  0  0  0
  142.7940  157.4940  132.6580 C   0  0  0  0  0  0  0  0  0  0  0  0
  141.5610  158.1780  132.6840 O   0  0  0  0  0  0  0  0  0  0  0  0
  140.5290  157.2830  133.0440 C   0  0  0  0  0  0  0  0  0  0  0  0
  139.4600  158.0280  133.8480 C   0  0  0  0  0  0  0  0  0  0  0  0
  139.8440  158.1930  135.3210 C   0  0  0  0  0  0  0  0  0  0  0  0
  140.8470  159.1640  135.4540 O   0  0  0  0  0  0  0  0  0  0  0  0
  142.3640  159.6920  134.0400 H   0  0  0  0  0  0  0  0  0  0  0  0
  146.8798  161.2760  133.2838 H   0  0  0  0  0  0  0  0  0  0  0  0
  149.1010  159.5303  132.8186 H   0  0  0  0  0  0  0  0  0  0  0  0
  149.7368  157.1031  132.6547 H   0  0  0  0  0  0  0  0  0  0  0  0
  146.2147  153.8516  133.4454 H   0  0  0  0  0  0  0  0  0  0  0  0
  147.7313  151.6843  133.0520 H   0  0  0  0  0  0  0  0  0  0  0  0
  150.2291  155.0075  132.3611 H   0  0  0  0  0  0  0  0  0  0  0  0
  145.5958  155.9677  133.4184 H   0  0  0  0  0  0  0  0  0  0  0  0
  143.3184  157.7095  131.7153 H   0  0  0  0  0  0  0  0  0  0  0  0
  142.6256  156.4094  132.7299 H   0  0  0  0  0  0  0  0  0  0  0  0
  140.0758  156.8620  132.1344 H   0  0  0  0  0  0  0  0  0  0  0  0
  140.9472  156.4710  133.6570 H   0  0  0  0  0  0  0  0  0  0  0  0
  139.3177  159.0254  133.4066 H   0  0  0  0  0  0  0  0  0  0  0  0
  138.5359  157.4327  133.8079 H   0  0  0  0  0  0  0  0  0  0  0  0
  138.9585  158.5042  135.8947 H   0  0  0  0  0  0  0  0  0  0  0  0
  140.2208  157.2329  135.7035 H   0  0  0  0  0  0  0  0  0  0  0  0
  141.4480  159.0470  134.6730 H   0  0  0  0  0  0  0  0  0  0  0  0
  1  2  1  0
  2  3  2  0
  2  4  1  0
  4  5  2  0
  5  6  1  0
  6  7  2  0
  7  8  1  0
  8  9  2  0
  9 10  1  0
 10 11  1  0
 11 12  2  0
 12 13  1  0
 13 14  1  0
  9 15  1  0
 15 16  2  0
 16 17  1  0
 17 18  1  0
 18 19  2  0
 18 20  1  0
 20 21  1  0
 21 22  1  0
 22 23  1  0
 23 24  1  0
 24 25  1  0
 17  4  1  0
 16  6  1  0
 14 10  2  0
  1 26  1  0
  5 27  1  0
  7 28  1  0
  8 29  1  0
 11 30  1  0
 12 31  1  0
 14 32  1  0
 15 33  1  0
 20 34  1  0
 20 35  1  0
 22 36  1  0
 22 37  1  0
 23 38  1  0
 23 39  1  0
 24 40  1  0
 24 41  1  0
 25 42  1  0
M  CHG  1   1  -1
M  END
>  <UniqueID>  (58) 
57

>  <SMILES>  (58) 
[NH-]C(=O)c1cc2ccc(-c3ccoc3)cc2n1C(=O)COCCCO

>  <Energy>  (58) 
108.07474998527378

>  <Genealogy>  (58) 
[NH-]C(=O)c1cc2ccc(-c3ccoc3)cc2n1C(=O)COCCCO (protonated)
[NH-]C(=O)c1cc2ccc(-c3ccoc3)cc2n1C(=O)COCCCO (3D coordinates assigned)
[NH-]C(=O)c1cc2ccc(-c3ccoc3)cc2n1C(=O)COCCCO (optimized conformer: 108.07474998527378 kcal/mol)

>  <smiles>  (58) 
NC(=O)c1cc2ccc(-c3ccoc3)cc2n1C(=O)COCCCO

>  <score_type>  (58) 
oracle

>  <origin>  (58) 
adg

>  <m_score__min__energy>  (58) 
-6.1699999999999999

>  <m_primary>  (58) 
energy

$$$$
61:0
     RDKit          3D

 39 40  0  0  0  0  0  0  0  0999 V2000
  143.0730  160.4490  133.3850 N   0  0  0  0  0  0  0  0  0  0  0  0
  144.4020  160.4800  133.9010 C   0  0  0  0  0  0  0  0  0  0  0  0
  144.7510  161.4300  134.6500 O   0  0  0  0  0  0  0  0  0  0  0  0
  145.3580  159.4120  133.5370 C   0  0  0  0  0  0  0  0  0  0  0  0
  146.7300  159.6140  133.3970 C   0  0  0  0  0  0  0  0  0  0  0  0
  147.2520  158.3740  133.1040 C   0  0  0  0  0  0  0  0  0  0  0  0
  148.5680  157.9890  132.8620 C   0  0  0  0  0  0  0  0  0  0  0  0
  148.8150  156.6380  132.5660 C   0  0  0  0  0  0  0  0  0  0  0  0
  147.7480  155.7040  132.5000 C   0  0  0  0  0  0  0  0  0  0  0  0
  148.0140  154.3160  132.2150 N   0  0  0  0  0  0  0  0  0  0  0  0
  148.8790  153.7470  133.2570 C   0  0  0  0  0  0  0  0  0  0  0  0
  148.8380  152.2150  133.2240 C   0  0  0  0  0  0  0  0  0  0  0  0
  147.6350  151.7740  132.6540 O   0  0  0  0  0  0  0  0  0  0  0  0
  146.4280  156.1340  132.7610 C   0  0  0  0  0  0  0  0  0  0  0  0
  146.2140  157.4800  133.0720 C   0  0  0  0  0  0  0  0  0  0  0  0
  145.0470  158.1000  133.3390 N   0  0  0  0  0  0  0  0  0  0  0  0
  143.7440  157.4990  133.3700 C   0  0  0  0  0  0  0  0  0  0  0  0
  142.8370  157.9440  132.6160 O   0  0  0  0  0  0  0  0  0  0  0  0
  143.4260  156.4340  134.3890 C   0  0  0  0  0  0  0  0  0  0  0  0
  143.5220  155.0090  133.8270 C   0  0  0  0  0  0  0  0  0  0  0  0
  144.6850  154.2600  134.4020 C   0  0  0  0  0  0  0  0  0  0  0  0
  144.9600  154.3600  135.6270 O   0  0  0  0  0  0  0  0  0  0  0  0
  145.4910  153.4860  133.5770 O   0  0  0  0  0  0  0  0  0  0  0  0
  142.8790  160.0840  132.4260 H   0  0  0  0  0  0  0  0  0  0  0  0
  147.2787  160.5619  133.4989 H   0  0  0  0  0  0  0  0  0  0  0  0
  149.3890  158.7201  132.9014 H   0  0  0  0  0  0  0  0  0  0  0  0
  149.8459  156.3005  132.3835 H   0  0  0  0  0  0  0  0  0  0  0  0
  148.4790  154.2280  131.2820 H   0  0  0  0  0  0  0  0  0  0  0  0
  147.1100  153.7880  132.1780 H   0  0  0  0  0  0  0  0  0  0  0  0
  149.9129  154.0835  133.0904 H   0  0  0  0  0  0  0  0  0  0  0  0
  148.5181  154.0876  134.2387 H   0  0  0  0  0  0  0  0  0  0  0  0
  149.6819  151.8419  132.6251 H   0  0  0  0  0  0  0  0  0  0  0  0
  148.9088  151.8322  134.2528 H   0  0  0  0  0  0  0  0  0  0  0  0
  146.9360  151.8800  133.3500 H   0  0  0  0  0  0  0  0  0  0  0  0
  145.5874  155.4257  132.7204 H   0  0  0  0  0  0  0  0  0  0  0  0
  144.1344  156.5281  135.2253 H   0  0  0  0  0  0  0  0  0  0  0  0
  142.3850  156.5890  134.7087 H   0  0  0  0  0  0  0  0  0  0  0  0
  142.5954  154.4678  134.0691 H   0  0  0  0  0  0  0  0  0  0  0  0
  143.6662  155.0802  132.7388 H   0  0  0  0  0  0  0  0  0  0  0  0
  1  2  1  0
  2  3  2  0
  2  4  1  0
  4  5  2  0
  5  6  1  0
  6  7  2  0
  7  8  1  0
  8  9  2  0
  9 10  1  0
 10 11  1  0
 11 12  1  0
 12 13  1  0
  9 14  1  0
 14 15  2  0
 15 16  1  0
 16 17  1  0
 17 18  2  0
 17 19  1  0
 19 20  1  0
 20 21  1  0
 21 22  2  0
 21 23  1  0
 16  4  1  0
 15  6  1  0
  1 24  1  0
  5 25  1  0
  7 26  1  0
  8 27  1  0
 10 28  1  0
 10 29  1  0
 11 30  1  0
 11 31  1  0
 12 32  1  0
 12 33  1  0
 13 34  1  0
 14 35  1  0
 19 36  1  0
 19 37  1  0
 20 38  1  0
 20 39  1  0
M  CHG  3   1  -1  10   1  23  -1
M  END
>  <UniqueID>  (59) 
58

>  <SMILES>  (59) 
[NH-]C(=O)c1cc2ccc([NH2+]CCO)cc2n1C(=O)CCC(=O)[O-]

>  <Energy>  (59) 
73.56325632784872

>  <Genealogy>  (59) 
[NH-]C(=O)c1cc2ccc([NH2+]CCO)cc2n1C(=O)CCC(=O)[O-] (protonated)
[NH-]C(=O)c1cc2ccc([NH2+]CCO)cc2n1C(=O)CCC(=O)[O-] (3D coordinates assigned)
[NH-]C(=O)c1cc2ccc([NH2+]CCO)cc2n1C(=O)CCC(=O)[O-] (optimized conformer: 73.56325632784872 kcal/mol)

>  <smiles>  (59) 
NC(=O)c1cc2ccc(NCCO)cc2n1C(=O)CCC(=O)O

>  <score_type>  (59) 
oracle

>  <origin>  (59) 
adg

>  <m_score__min__energy>  (59) 
-5.9500000000000002

>  <m_primary>  (59) 
energy

$$$$
62:0
     RDKit          3D

 38 39  0  0  0  0  0  0  0  0999 V2000
  141.6990  158.6330  137.8890 C   0  0  0  0  0  0  0  0  0  0  0  0
  141.0000  159.2200  136.7560 N   0  0  0  0  0  0  0  0  0  0  0  0
  140.0360  158.5200  135.9600 C   0  0  0  0  0  0  0  0  0  0  0  0
  139.1230  157.8750  136.5420 O   0  0  0  0  0  0  0  0  0  0  0  0
  140.0770  158.5800  134.4540 C   0  0  0  0  0  0  0  0  0  0  0  0
  141.2250  157.8330  133.9150 N   0  0  0  0  0  0  0  0  0  0  0  0
  141.0060  156.4450  133.4800 C   0  0  0  0  0  0  0  0  0  0  0  0
  139.5840  156.2460  133.0460 C   0  0  0  0  0  0  0  0  0  0  0  0
  139.1100  155.1230  133.0060 O   0  0  0  0  0  0  0  0  0  0  0  0
  142.5270  158.4580  133.7890 C   0  0  0  0  0  0  0  0  0  0  0  0
  142.6540  159.8750  133.8100 C   0  0  0  0  0  0  0  0  0  0  0  0
  143.9070  160.4920  133.6740 C   0  0  0  0  0  0  0  0  0  0  0  0
  145.0230  159.6780  133.5290 C   0  0  0  0  0  0  0  0  0  0  0  0
  146.3440  160.0170  133.3450 C   0  0  0  0  0  0  0  0  0  0  0  0
  147.0210  158.8060  133.2430 C   0  0  0  0  0  0  0  0  0  0  0  0
  148.4880  158.7060  133.0990 C   0  0  0  0  0  0  0  0  0  0  0  0
  149.0770  157.8680  132.1040 N   0  0  0  0  0  0  0  0  0  0  0  0
  149.2320  159.3240  133.9060 O   0  0  0  0  0  0  0  0  0  0  0  0
  146.1560  157.7580  133.3450 N   0  0  0  0  0  0  0  0  0  0  0  0
  146.4550  156.3620  133.1690 C   0  0  0  0  0  0  0  0  0  0  0  0
  147.0340  155.9590  132.1250 O   0  0  0  0  0  0  0  0  0  0  0  0
  146.1130  155.4420  134.1530 O   0  0  0  0  0  0  0  0  0  0  0  0
  144.9340  158.3110  133.5240 C   0  0  0  0  0  0  0  0  0  0  0  0
  143.6940  157.6690  133.6340 C   0  0  0  0  0  0  0  0  0  0  0  0
  141.2567  159.0044  138.8252 H   0  0  0  0  0  0  0  0  0  0  0  0
  141.6068  157.5376  137.8492 H   0  0  0  0  0  0  0  0  0  0  0  0
  142.7620  158.9132  137.8492 H   0  0  0  0  0  0  0  0  0  0  0  0
  139.1487  158.1464  134.0537 H   0  0  0  0  0  0  0  0  0  0  0  0
  140.1789  159.6332  134.1534 H   0  0  0  0  0  0  0  0  0  0  0  0
  141.6761  156.2203  132.6371 H   0  0  0  0  0  0  0  0  0  0  0  0
  141.2169  155.7714  134.3237 H   0  0  0  0  0  0  0  0  0  0  0  0
  138.9687  157.1130  132.7638 H   0  0  0  0  0  0  0  0  0  0  0  0
  141.7554  160.4970  133.9349 H   0  0  0  0  0  0  0  0  0  0  0  0
  144.0025  161.5878  133.6820 H   0  0  0  0  0  0  0  0  0  0  0  0
  146.7726  161.0286  133.2903 H   0  0  0  0  0  0  0  0  0  0  0  0
  148.4950  157.2190  131.5320 H   0  0  0  0  0  0  0  0  0  0  0  0
  150.1160  157.8380  131.9940 H   0  0  0  0  0  0  0  0  0  0  0  0
  143.6272  156.5715  133.6007 H   0  0  0  0  0  0  0  0  0  0  0  0
  1  2  1  0
  2  3  1  0
  3  4  2  0
  3  5  1  0
  5  6  1  0
  6  7  1  0
  7  8  1  0
  8  9  2  0
  6 10  1  0
 10 11  2  0
 11 12  1  0
 12 13  2  0
 13 14  1  0
 14 15  2  0
 15 16  1  0
 16 17  1  0
 16 18  2  0
 15 19  1  0
 19 20  1  0
 20 21  2  0
 20 22  1  0
 19 23  1  0
 23 24  2  0
 24 10  1  0
 23 13  1  0
  1 25  1  0
  1 26  1  0
  1 27  1  0
  5 28  1  0
  5 29  1  0
  7 30  1  0
  7 31  1  0
  8 32  1  0
 11 33  1  0
 12 34  1  0
 14 35  1  0
 17 36  1  0
 17 37  1  0
 24 38  1  0
M  CHG  2   2  -1  22  -1
M  END
>  <UniqueID>  (60) 
59

>  <SMILES>  (60) 
C[N-]C(=O)CN(CC=O)c1ccc2cc(C(N)=O)n(C(=O)[O-])c2c1

>  <Energy>  (60) 
76.92141819830145

>  <Genealogy>  (60) 
C[N-]C(=O)CN(CC=O)c1ccc2cc(C(N)=O)n(C(=O)[O-])c2c1 (protonated)
C[N-]C(=O)CN(CC=O)c1ccc2cc(C(N)=O)n(C(=O)[O-])c2c1 (3D coordinates assigned)
C[N-]C(=O)CN(CC=O)c1ccc2cc(C(N)=O)n(C(=O)[O-])c2c1 (optimized conformer: 76.92141819830145 kcal/mol)

>  <smiles>  (60) 
CNC(=O)CN(CC=O)c1ccc2cc(C(N)=O)n(C(=O)O)c2c1

>  <score_type>  (60) 
oracle

>  <origin>  (60) 
adg

>  <m_score__min__energy>  (60) 
-6.29

>  <m_primary>  (60) 
energy

$$$$
63:0
     RDKit          3D

 41 43  0  0  0  0  0  0  0  0999 V2000
  139.6440  148.6840  130.4520 C   0  0  0  0  0  0  0  0  0  0  0  0
  139.8980  148.6970  131.9020 N   0  0  0  0  0  0  0  0  0  0  0  0
  139.3320  149.8950  132.5530 C   0  0  0  0  0  0  0  0  0  0  0  0
  140.1120  151.1860  132.2250 C   0  0  0  0  0  0  0  0  0  0  0  0
  141.6350  150.9510  132.0520 C   0  0  0  0  0  0  0  0  0  0  0  0
  142.4100  152.1060  132.5290 N   0  0  0  0  0  0  0  0  0  0  0  0
  142.3820  152.6090  133.8820 C   0  0  0  0  0  0  0  0  0  0  0  0
  143.0640  153.8170  134.1760 C   0  0  0  0  0  0  0  0  0  0  0  0
  143.0770  154.3410  135.4780 C   0  0  0  0  0  0  0  0  0  0  0  0
  142.3970  153.6440  136.4700 C   0  0  0  0  0  0  0  0  0  0  0  0
  142.2680  153.9140  137.8120 C   0  0  0  0  0  0  0  0  0  0  0  0
  141.4900  152.8790  138.3250 C   0  0  0  0  0  0  0  0  0  0  0  0
  141.0340  152.8240  139.7290 C   0  0  0  0  0  0  0  0  0  0  0  0
  141.4750  151.7660  140.5770 N   0  0  0  0  0  0  0  0  0  0  0  0
  140.2880  153.7220  140.2010 O   0  0  0  0  0  0  0  0  0  0  0  0
  141.1570  151.9980  137.3400 N   0  0  0  0  0  0  0  0  0  0  0  0
  140.4260  150.7680  137.4710 C   0  0  0  0  0  0  0  0  0  0  0  0
  140.2950  149.9970  136.4840 O   0  0  0  0  0  0  0  0  0  0  0  0
  139.8780  150.4040  138.6960 O   0  0  0  0  0  0  0  0  0  0  0  0
  141.7180  152.4830  136.2090 C   0  0  0  0  0  0  0  0  0  0  0  0
  141.7050  151.9250  134.9230 C   0  0  0  0  0  0  0  0  0  0  0  0
  142.0660  149.6790  132.7950 C   0  0  0  0  0  0  0  0  0  0  0  0
  141.3250  148.4480  132.2350 C   0  0  0  0  0  0  0  0  0  0  0  0
  138.5606  148.6286  130.2700 H   0  0  0  0  0  0  0  0  0  0  0  0
  140.0449  149.6038  130.0013 H   0  0  0  0  0  0  0  0  0  0  0  0
  140.1367  147.8099  130.0013 H   0  0  0  0  0  0  0  0  0  0  0  0
  138.2922  150.0187  132.2160 H   0  0  0  0  0  0  0  0  0  0  0  0
  139.3960  149.7395  133.6401 H   0  0  0  0  0  0  0  0  0  0  0  0
  139.7145  151.6068  131.2896 H   0  0  0  0  0  0  0  0  0  0  0  0
  139.9811  151.8723  133.0746 H   0  0  0  0  0  0  0  0  0  0  0  0
  141.8384  150.8246  130.9784 H   0  0  0  0  0  0  0  0  0  0  0  0
  143.0210  152.6130  131.8490 H   0  0  0  0  0  0  0  0  0  0  0  0
  143.5907  154.3514  133.3716 H   0  0  0  0  0  0  0  0  0  0  0  0
  143.6097  155.2759  135.7067 H   0  0  0  0  0  0  0  0  0  0  0  0
  142.6900  154.7670  138.3637 H   0  0  0  0  0  0  0  0  0  0  0  0
  141.1240  150.7910  140.4450 H   0  0  0  0  0  0  0  0  0  0  0  0
  141.1814  150.9779  134.7261 H   0  0  0  0  0  0  0  0  0  0  0  0
  143.1496  149.5367  132.6703 H   0  0  0  0  0  0  0  0  0  0  0  0
  141.8177  149.7887  133.8610 H   0  0  0  0  0  0  0  0  0  0  0  0
  141.8410  148.1210  131.3202 H   0  0  0  0  0  0  0  0  0  0  0  0
  141.3369  147.6840  133.0263 H   0  0  0  0  0  0  0  0  0  0  0  0
  1  2  1  0
  2  3  1  0
  3  4  1  0
  4  5  1  0
  5  6  1  0
  6  7  1  0
  7  8  2  0
  8  9  1  0
  9 10  2  0
 10 11  1  0
 11 12  2  0
 12 13  1  0
 13 14  1  0
 13 15  2  0
 12 16  1  0
 16 17  1  0
 17 18  2  0
 17 19  1  0
 16 20  1  0
 20 21  2  0
  5 22  1  0
 22 23  1  0
 23  2  1  0
 21  7  1  0
 20 10  1  0
  1 24  1  0
  1 25  1  0
  1 26  1  0
  3 27  1  0
  3 28  1  0
  4 29  1  0
  4 30  1  0
  5 31  1  0
  6 32  1  0
  8 33  1  0
  9 34  1  0
 11 35  1  0
 14 36  1  0
 21 37  1  0
 22 38  1  0
 22 39  1  0
 23 40  1  0
 23 41  1  0
M  CHG  2  14  -1  19  -1
M  END
>  <UniqueID>  (61) 
60

>  <SMILES>  (61) 
CN1CCC(Nc2ccc3cc(C([NH-])=O)n(C(=O)[O-])c3c2)CC1

>  <Energy>  (61) 
91.0862498949275

>  <Genealogy>  (61) 
CN1CCC(Nc2ccc3cc(C([NH-])=O)n(C(=O)[O-])c3c2)CC1 (protonated)
CN1CCC(Nc2ccc3cc(C([NH-])=O)n(C(=O)[O-])c3c2)CC1 (3D coordinates assigned)
CN1CCC(Nc2ccc3cc(C([NH-])=O)n(C(=O)[O-])c3c2)CC1 (nonaromatic ring conformer: 91.0862498949275 kcal/mol)

>  <smiles>  (61) 
CN1CCC(Nc2ccc3cc(C(N)=O)n(C(=O)O)c3c2)CC1

>  <score_type>  (61) 
oracle

>  <origin>  (61) 
adg

>  <m_score__min__energy>  (61) 
-7.54

>  <m_primary>  (61) 
energy

$$$$
64:0
     RDKit          3D

 41 42  0  0  0  0  0  0  0  0999 V2000
  148.4130  153.2920  134.2530 N   0  0  0  0  0  0  0  0  0  0  0  0
  148.5700  154.3000  133.2570 C   0  0  0  0  0  0  0  0  0  0  0  0
  149.3530  154.0930  132.2910 O   0  0  0  0  0  0  0  0  0  0  0  0
  147.8160  155.5700  133.3290 C   0  0  0  0  0  0  0  0  0  0  0  0
  148.4020  156.8270  133.1870 C   0  0  0  0  0  0  0  0  0  0  0  0
  147.3640  157.7270  133.2720 C   0  0  0  0  0  0  0  0  0  0  0  0
  147.3730  159.1180  133.2040 C   0  0  0  0  0  0  0  0  0  0  0  0
  146.1470  159.7920  133.3440 C   0  0  0  0  0  0  0  0  0  0  0  0
  144.9470  159.0700  133.5610 C   0  0  0  0  0  0  0  0  0  0  0  0
  143.6420  159.7940  133.7280 C   0  0  0  0  0  0  0  0  0  0  0  0
  143.0490  159.4180  134.9200 F   0  0  0  0  0  0  0  0  0  0  0  0
  143.8640  161.1580  133.7380 F   0  0  0  0  0  0  0  0  0  0  0  0
  144.9780  157.6600  133.6240 C   0  0  0  0  0  0  0  0  0  0  0  0
  146.2080  157.0150  133.4610 C   0  0  0  0  0  0  0  0  0  0  0  0
  146.4690  155.6920  133.4950 N   0  0  0  0  0  0  0  0  0  0  0  0
  145.5150  154.6380  133.6850 C   0  0  0  0  0  0  0  0  0  0  0  0
  144.7270  154.6830  134.6680 O   0  0  0  0  0  0  0  0  0  0  0  0
  145.4300  153.4880  132.7160 C   0  0  0  0  0  0  0  0  0  0  0  0
  146.6600  152.6770  132.7440 N   0  0  0  0  0  0  0  0  0  0  0  0
  146.4490  151.3320  132.1580 C   0  0  0  0  0  0  0  0  0  0  0  0
  147.7640  150.5760  131.8640 C   0  0  1  0  0  0  0  0  0  0  0  0
  148.8150  151.4980  131.7170 O   0  0  0  0  0  0  0  0  0  0  0  0
  148.1020  149.5490  132.9550 C   0  0  0  0  0  0  0  0  0  0  0  0
  148.8770  150.1550  133.9520 O   0  0  0  0  0  0  0  0  0  0  0  0
  148.2930  152.2900  133.9890 H   0  0  0  0  0  0  0  0  0  0  0  0
  149.4684  157.0520  133.0384 H   0  0  0  0  0  0  0  0  0  0  0  0
  148.3100  159.6721  133.0457 H   0  0  0  0  0  0  0  0  0  0  0  0
  146.1190  160.8900  133.2845 H   0  0  0  0  0  0  0  0  0  0  0  0
  142.9774  159.5363  132.8902 H   0  0  0  0  0  0  0  0  0  0  0  0
  144.0575  157.0831  133.7970 H   0  0  0  0  0  0  0  0  0  0  0  0
  144.5745  152.8522  132.9876 H   0  0  0  0  0  0  0  0  0  0  0  0
  145.3035  153.8950  131.7019 H   0  0  0  0  0  0  0  0  0  0  0  0
  147.0190  152.6120  133.7240 H   0  0  0  0  0  0  0  0  0  0  0  0
  147.3900  153.1710  132.1780 H   0  0  0  0  0  0  0  0  0  0  0  0
  145.8536  150.7340  132.8636 H   0  0  0  0  0  0  0  0  0  0  0  0
  145.9351  151.4746  131.1959 H   0  0  0  0  0  0  0  0  0  0  0  0
  147.6269  150.0154  130.9276 H   0  0  0  0  0  0  0  0  0  0  0  0
  148.9400  151.9410  132.5960 H   0  0  0  0  0  0  0  0  0  0  0  0
  147.1706  149.1667  133.3981 H   0  0  0  0  0  0  0  0  0  0  0  0
  148.6682  148.7179  132.5092 H   0  0  0  0  0  0  0  0  0  0  0  0
  148.6730  151.1250  133.9090 H   0  0  0  0  0  0  0  0  0  0  0  0
  1  2  1  0
  2  3  2  0
  2  4  1  0
  4  5  2  0
  5  6  1  0
  6  7  2  0
  7  8  1  0
  8  9  2  0
  9 10  1  0
 10 11  1  0
 10 12  1  0
  9 13  1  0
 13 14  2  0
 14 15  1  0
 15 16  1  0
 16 17  2  0
 16 18  1  0
 18 19  1  0
 19 20  1  0
 20 21  1  0
 21 22  1  0
 21 23  1  0
 23 24  1  0
 15  4  1  0
 14  6  1  0
  1 25  1  0
  5 26  1  0
  7 27  1  0
  8 28  1  0
 10 29  1  0
 13 30  1  0
 18 31  1  0
 18 32  1  0
 19 33  1  0
 19 34  1  0
 20 35  1  0
 20 36  1  0
 21 37  1  6
 22 38  1  0
 23 39  1  0
 23 40  1  0
 24 41  1  0
M  CHG  2   1  -1  19   1
M  END
>  <UniqueID>  (62) 
61

>  <SMILES>  (62) 
[NH-]C(=O)c1cc2ccc(C(F)F)cc2n1C(=O)C[NH2+]C[C@@H](O)CO

>  <Energy>  (62) 
79.13134435716529

>  <Genealogy>  (62) 
[NH-]C(=O)c1cc2ccc(C(F)F)cc2n1C(=O)C[NH2+]C[C@@H](O)CO (protonated)
[NH-]C(=O)c1cc2ccc(C(F)F)cc2n1C(=O)C[NH2+]C[C@@H](O)CO (3D coordinates assigned)
[NH-]C(=O)c1cc2ccc(C(F)F)cc2n1C(=O)C[NH2+]C[C@@H](O)CO (optimized conformer: 79.13134435716529 kcal/mol)

>  <smiles>  (62) 
NC(=O)c1cc2ccc(C(F)F)cc2n1C(=O)CNC[C@@H](O)CO

>  <score_type>  (62) 
oracle

>  <origin>  (62) 
adg

>  <m_score__min__energy>  (62) 
-4.3799999999999999

>  <m_primary>  (62) 
energy

$$$$
65:0
     RDKit          3D

 50 51  0  0  0  0  0  0  0  0999 V2000
  142.1160  149.4540  132.1860 C   0  0  0  0  0  0  0  0  0  0  0  0
  141.9390  150.8370  132.6380 N   0  0  0  0  0  0  0  0  0  0  0  0
  140.5990  151.4270  132.6330 C   0  0  0  0  0  0  0  0  0  0  0  0
  143.0690  151.5700  133.1560 C   0  0  0  0  0  0  0  0  0  0  0  0
  144.1860  151.4770  132.5860 O   0  0  0  0  0  0  0  0  0  0  0  0
  142.9560  152.4260  134.3890 C   0  0  0  0  0  0  0  0  0  0  0  0
  142.8940  153.8530  134.0300 N   0  0  0  0  0  0  0  0  0  0  0  0
  144.1130  154.5420  133.5630 C   0  0  0  0  0  0  0  0  0  0  0  0
  145.0180  154.9550  134.7370 C   0  0  1  0  0  0  0  0  0  0  0  0
  144.2740  155.6640  135.6940 O   0  0  0  0  0  0  0  0  0  0  0  0
  145.6560  153.7300  135.4060 C   0  0  0  0  0  0  0  0  0  0  0  0
  146.1460  154.0480  136.6830 O   0  0  0  0  0  0  0  0  0  0  0  0
  141.6590  154.5760  134.2430 C   0  0  0  0  0  0  0  0  0  0  0  0
  140.6670  154.3660  133.4920 O   0  0  0  0  0  0  0  0  0  0  0  0
  141.5150  155.4930  135.3390 N   0  0  0  0  0  0  0  0  0  0  0  0
  141.7290  155.2570  136.6650 C   0  0  0  0  0  0  0  0  0  0  0  0
  142.1260  153.9650  137.2650 C   0  0  0  0  0  0  0  0  0  0  0  0
  143.4920  153.7310  137.5960 N   0  0  0  0  0  0  0  0  0  0  0  0
  141.2760  153.0610  137.4790 O   0  0  0  0  0  0  0  0  0  0  0  0
  141.5280  156.4260  137.4040 C   0  0  0  0  0  0  0  0  0  0  0  0
  141.2100  157.3960  136.4780 C   0  0  0  0  0  0  0  0  0  0  0  0
  140.9110  158.7440  136.6530 C   0  0  0  0  0  0  0  0  0  0  0  0
  140.6210  159.5090  135.5120 C   0  0  0  0  0  0  0  0  0  0  0  0
  140.6810  158.9310  134.2160 C   0  0  0  0  0  0  0  0  0  0  0  0
  140.3030  159.7200  132.9880 C   0  0  0  0  0  0  0  0  0  0  0  0
  138.9280  159.7740  132.8700 F   0  0  0  0  0  0  0  0  0  0  0  0
  140.8160  159.1470  131.8400 F   0  0  0  0  0  0  0  0  0  0  0  0
  140.7960  161.0090  133.1070 F   0  0  0  0  0  0  0  0  0  0  0  0
  141.0060  157.5600  134.0790 C   0  0  0  0  0  0  0  0  0  0  0  0
  141.2400  156.8160  135.2390 C   0  0  0  0  0  0  0  0  0  0  0  0
  142.2009  148.7908  133.0595 H   0  0  0  0  0  0  0  0  0  0  0  0
  141.2491  149.1526  131.5797 H   0  0  0  0  0  0  0  0  0  0  0  0
  143.0309  149.3806  131.5797 H   0  0  0  0  0  0  0  0  0  0  0  0
  140.2602  151.5762  133.6688 H   0  0  0  0  0  0  0  0  0  0  0  0
  140.6270  152.3960  132.1132 H   0  0  0  0  0  0  0  0  0  0  0  0
  139.9031  150.7520  132.1132 H   0  0  0  0  0  0  0  0  0  0  0  0
  142.0421  152.1516  134.9362 H   0  0  0  0  0  0  0  0  0  0  0  0
  143.8430  152.2584  135.0176 H   0  0  0  0  0  0  0  0  0  0  0  0
  144.6738  153.8654  132.9014 H   0  0  0  0  0  0  0  0  0  0  0  0
  143.8082  155.4533  133.0277 H   0  0  0  0  0  0  0  0  0  0  0  0
  145.8171  155.5943  134.3336 H   0  0  0  0  0  0  0  0  0  0  0  0
  144.5240  155.3100  136.5830 H   0  0  0  0  0  0  0  0  0  0  0  0
  144.8995  152.9369  135.4990 H   0  0  0  0  0  0  0  0  0  0  0  0
  146.4975  153.3913  134.7838 H   0  0  0  0  0  0  0  0  0  0  0  0
  145.4130  154.5280  137.1560 H   0  0  0  0  0  0  0  0  0  0  0  0
  144.2090  154.4900  137.5070 H   0  0  0  0  0  0  0  0  0  0  0  0
  141.6069  156.5465  138.4945 H   0  0  0  0  0  0  0  0  0  0  0  0
  140.9021  159.1966  137.6555 H   0  0  0  0  0  0  0  0  0  0  0  0
  140.3442  160.5678  135.6230 H   0  0  0  0  0  0  0  0  0  0  0  0
  141.0726  157.0924  133.0856 H   0  0  0  0  0  0  0  0  0  0  0  0
  1  2  1  0
  2  3  1  0
  2  4  1  0
  4  5  2  0
  4  6  1  0
  6  7  1  0
  7  8  1  0
  8  9  1  0
  9 10  1  0
  9 11  1  0
 11 12  1  0
  7 13  1  0
 13 14  2  0
 13 15  1  0
 15 16  1  0
 16 17  1  0
 17 18  1  0
 17 19  2  0
 16 20  2  0
 20 21  1  0
 21 22  2  0
 22 23  1  0
 23 24  2  0
 24 25  1  0
 25 26  1  0
 25 27  1  0
 25 28  1  0
 24 29  1  0
 29 30  2  0
 30 15  1  0
 30 21  1  0
  1 31  1  0
  1 32  1  0
  1 33  1  0
  3 34  1  0
  3 35  1  0
  3 36  1  0
  6 37  1  0
  6 38  1  0
  8 39  1  0
  8 40  1  0
  9 41  1  6
 10 42  1  0
 11 43  1  0
 11 44  1  0
 12 45  1  0
 18 46  1  0
 20 47  1  0
 22 48  1  0
 23 49  1  0
 29 50  1  0
M  CHG  1  18  -1
M  END
>  <UniqueID>  (63) 
62

>  <SMILES>  (63) 
CN(C)C(=O)CN(C[C@@H](O)CO)C(=O)n1c(C([NH-])=O)cc2ccc(C(F)(F)F)cc21

>  <Energy>  (63) 
85.69153685401311

>  <Genealogy>  (63) 
CN(C)C(=O)CN(CC(O)CO)C(=O)n1c(C([NH-])=O)cc2ccc(C(F)(F)F)cc21 (protonated)
CN(C)C(=O)CN(C[C@@H](O)CO)C(=O)n1c(C([NH-])=O)cc2ccc(C(F)(F)F)cc21 (chirality)
CN(C)C(=O)CN(C[C@@H](O)CO)C(=O)n1c(C([NH-])=O)cc2ccc(C(F)(F)F)cc21 (3D coordinates assigned)
CN(C)C(=O)CN(C[C@@H](O)CO)C(=O)n1c(C([NH-])=O)cc2ccc(C(F)(F)F)cc21 (optimized conformer: 85.69153685401311 kcal/mol)

>  <smiles>  (63) 
CN(C)C(=O)CN(CC(O)CO)C(=O)n1c(C(N)=O)cc2ccc(C(F)(F)F)cc21

>  <score_type>  (63) 
oracle

>  <origin>  (63) 
adg

>  <m_score__min__energy>  (63) 
-5.71

>  <m_primary>  (63) 
energy

$$$$
66:0
     RDKit          3D

 35 36  0  0  0  0  0  0  0  0999 V2000
  143.9130  161.6370  133.5500 N   0  0  0  0  0  0  0  0  0  0  0  0
  143.4410  160.3760  134.0150 C   0  0  0  0  0  0  0  0  0  0  0  0
  142.3430  160.3180  134.6300 O   0  0  0  0  0  0  0  0  0  0  0  0
  144.1920  159.1340  133.7390 C   0  0  0  0  0  0  0  0  0  0  0  0
  143.6240  157.8640  133.8060 C   0  0  0  0  0  0  0  0  0  0  0  0
  144.6160  156.9990  133.4030 C   0  0  0  0  0  0  0  0  0  0  0  0
  144.6070  155.6110  133.3020 C   0  0  0  0  0  0  0  0  0  0  0  0
  145.7910  154.9720  132.9000 C   0  0  0  0  0  0  0  0  0  0  0  0
  146.9590  155.7250  132.6090 C   0  0  0  0  0  0  0  0  0  0  0  0
  148.1820  155.0530  132.2370 N   0  0  0  0  0  0  0  0  0  0  0  0
  148.6350  154.1420  133.3010 C   0  0  0  0  0  0  0  0  0  0  0  0
  149.2000  152.8700  132.7390 C   0  0  0  0  0  0  0  0  0  0  0  0
  149.2840  152.7100  131.4930 O   0  0  0  0  0  0  0  0  0  0  0  0
  149.6680  151.8800  133.5930 O   0  0  0  0  0  0  0  0  0  0  0  0
  146.9270  157.1350  132.7270 C   0  0  0  0  0  0  0  0  0  0  0  0
  145.7290  157.7440  133.1150 C   0  0  0  0  0  0  0  0  0  0  0  0
  145.4860  159.0580  133.3190 N   0  0  0  0  0  0  0  0  0  0  0  0
  146.4410  160.1250  133.2240 C   0  0  0  0  0  0  0  0  0  0  0  0
  146.3960  161.0850  134.0420 O   0  0  0  0  0  0  0  0  0  0  0  0
  147.4020  160.1090  132.2060 O   0  0  0  0  0  0  0  0  0  0  0  0
  148.8000  159.9730  132.4510 C   0  0  0  0  0  0  0  0  0  0  0  0
  149.4010  158.9910  131.4960 C   0  0  0  0  0  0  0  0  0  0  0  0
  149.5760  157.7940  131.8460 O   0  0  0  0  0  0  0  0  0  0  0  0
  149.7450  159.3900  130.2110 O   0  0  0  0  0  0  0  0  0  0  0  0
  144.7620  161.7050  132.9470 H   0  0  0  0  0  0  0  0  0  0  0  0
  142.6002  157.6069  134.1153 H   0  0  0  0  0  0  0  0  0  0  0  0
  143.6999  155.0321  133.5302 H   0  0  0  0  0  0  0  0  0  0  0  0
  145.8139  153.8760  132.8095 H   0  0  0  0  0  0  0  0  0  0  0  0
  148.0140  154.4950  131.3680 H   0  0  0  0  0  0  0  0  0  0  0  0
  148.9320  155.7500  132.0170 H   0  0  0  0  0  0  0  0  0  0  0  0
  149.4121  154.6456  133.8947 H   0  0  0  0  0  0  0  0  0  0  0  0
  147.7666  153.8852  133.9255 H   0  0  0  0  0  0  0  0  0  0  0  0
  147.8232  157.7378  132.5185 H   0  0  0  0  0  0  0  0  0  0  0  0
  149.2879  160.9503  132.3215 H   0  0  0  0  0  0  0  0  0  0  0  0
  148.9497  159.6105  133.4787 H   0  0  0  0  0  0  0  0  0  0  0  0
  1  2  1  0
  2  3  2  0
  2  4  1  0
  4  5  2  0
  5  6  1  0
  6  7  2  0
  7  8  1  0
  8  9  2  0
  9 10  1  0
 10 11  1  0
 11 12  1  0
 12 13  2  0
 12 14  1  0
  9 15  1  0
 15 16  2  0
 16 17  1  0
 17 18  1  0
 18 19  2  0
 18 20  1  0
 20 21  1  0
 21 22  1  0
 22 23  2  0
 22 24  1  0
 17  4  1  0
 16  6  1  0
  1 25  1  0
  5 26  1  0
  7 27  1  0
  8 28  1  0
 10 29  1  0
 10 30  1  0
 11 31  1  0
 11 32  1  0
 15 33  1  0
 21 34  1  0
 21 35  1  0
M  CHG  4   1  -1  10   1  14  -1  24  -1
M  END
>  <UniqueID>  (64) 
63

>  <SMILES>  (64) 
[NH-]C(=O)c1cc2ccc([NH2+]CC(=O)[O-])cc2n1C(=O)OCC(=O)[O-]

>  <Energy>  (64) 
72.49110741958906

>  <Genealogy>  (64) 
[NH-]C(=O)c1cc2ccc([NH2+]CC(=O)[O-])cc2n1C(=O)OCC(=O)[O-] (protonated)
[NH-]C(=O)c1cc2ccc([NH2+]CC(=O)[O-])cc2n1C(=O)OCC(=O)[O-] (3D coordinates assigned)
[NH-]C(=O)c1cc2ccc([NH2+]CC(=O)[O-])cc2n1C(=O)OCC(=O)[O-] (optimized conformer: 72.49110741958906 kcal/mol)

>  <smiles>  (64) 
NC(=O)c1cc2ccc(NCC(=O)O)cc2n1C(=O)OCC(=O)O

>  <score_type>  (64) 
oracle

>  <origin>  (64) 
adg

>  <m_score__min__energy>  (64) 
-5.3200000000000003

>  <m_primary>  (64) 
energy

$$$$
67:0
     RDKit          3D

 37 39  0  0  0  0  0  0  0  0999 V2000
  141.7130  160.4270  133.1370 N   0  0  0  0  0  0  0  0  0  0  0  0
  141.3760  159.4950  134.1620 C   0  0  0  0  0  0  0  0  0  0  0  0
  141.0120  159.9220  135.2890 O   0  0  0  0  0  0  0  0  0  0  0  0
  141.4770  158.0450  133.9020 C   0  0  0  0  0  0  0  0  0  0  0  0
  142.6140  157.2830  134.1750 C   0  0  0  0  0  0  0  0  0  0  0  0
  142.2690  155.9870  133.8580 C   0  0  0  0  0  0  0  0  0  0  0  0
  143.0130  154.8150  133.9350 C   0  0  0  0  0  0  0  0  0  0  0  0
  142.3990  153.6160  133.5340 C   0  0  0  0  0  0  0  0  0  0  0  0
  141.0580  153.6080  133.0630 C   0  0  0  0  0  0  0  0  0  0  0  0
  140.4120  152.3920  132.6430 N   0  0  0  0  0  0  0  0  0  0  0  0
  140.9600  151.0600  132.9060 C   0  0  0  0  0  0  0  0  0  0  0  0
  140.2950  150.0310  132.0390 C   0  0  0  0  0  0  0  0  0  0  0  0
  140.8740  148.7710  131.8530 C   0  0  0  0  0  0  0  0  0  0  0  0
  140.1990  147.8370  131.0670 C   0  0  0  0  0  0  0  0  0  0  0  0
  139.0020  148.1580  130.5100 N   0  0  0  0  0  0  0  0  0  0  0  0
  138.4470  149.3820  130.7090 C   0  0  0  0  0  0  0  0  0  0  0  0
  139.0890  150.3050  131.4720 N   0  0  0  0  0  0  0  0  0  0  0  0
  140.3370  154.8220  133.0020 C   0  0  0  0  0  0  0  0  0  0  0  0
  140.9740  155.9960  133.4150 C   0  0  0  0  0  0  0  0  0  0  0  0
  140.4770  157.2500  133.4280 N   0  0  0  0  0  0  0  0  0  0  0  0
  139.1620  157.6370  133.0050 C   0  0  0  0  0  0  0  0  0  0  0  0
  138.1610  157.2770  133.6810 O   0  0  0  0  0  0  0  0  0  0  0  0
  138.9530  158.3870  131.7240 C   0  0  0  0  0  0  0  0  0  0  0  0
  138.0850  159.4390  131.9490 F   0  0  0  0  0  0  0  0  0  0  0  0
  140.1610  158.8870  131.2750 F   0  0  0  0  0  0  0  0  0  0  0  0
  138.4140  157.5640  130.7530 F   0  0  0  0  0  0  0  0  0  0  0  0
  142.1080  160.1040  132.2270 H   0  0  0  0  0  0  0  0  0  0  0  0
  143.5799  157.6408  134.5610 H   0  0  0  0  0  0  0  0  0  0  0  0
  144.0510  154.8258  134.2988 H   0  0  0  0  0  0  0  0  0  0  0  0
  142.9628  152.6729  133.5853 H   0  0  0  0  0  0  0  0  0  0  0  0
  139.5060  152.4700  132.1240 H   0  0  0  0  0  0  0  0  0  0  0  0
  142.0397  151.0659  132.6956 H   0  0  0  0  0  0  0  0  0  0  0  0
  140.7775  150.8048  133.9603 H   0  0  0  0  0  0  0  0  0  0  0  0
  141.8402  148.5224  132.3164 H   0  0  0  0  0  0  0  0  0  0  0  0
  140.6354  146.8415  130.8983 H   0  0  0  0  0  0  0  0  0  0  0  0
  137.4767  149.6261  130.2519 H   0  0  0  0  0  0  0  0  0  0  0  0
  139.2991  154.8427  132.6382 H   0  0  0  0  0  0  0  0  0  0  0  0
  1  2  1  0
  2  3  2  0
  2  4  1  0
  4  5  2  0
  5  6  1  0
  6  7  2  0
  7  8  1  0
  8  9  2  0
  9 10  1  0
 10 11  1  0
 11 12  1  0
 12 13  2  0
 13 14  1  0
 14 15  2  0
 15 16  1  0
 16 17  2  0
  9 18  1  0
 18 19  2  0
 19 20  1  0
 20 21  1  0
 21 22  2  0
 21 23  1  0
 23 24  1  0
 23 25  1  0
 23 26  1  0
 20  4  1  0
 19  6  1  0
 17 12  1  0
  1 27  1  0
  5 28  1  0
  7 29  1  0
  8 30  1  0
 10 31  1  0
 11 32  1  0
 11 33  1  0
 13 34  1  0
 14 35  1  0
 16 36  1  0
 18 37  1  0
M  CHG  1   1  -1
M  END
>  <UniqueID>  (65) 
64

>  <SMILES>  (65) 
[NH-]C(=O)c1cc2ccc(NCc3ccncn3)cc2n1C(=O)C(F)(F)F

>  <Energy>  (65) 
79.7116833667424

>  <Genealogy>  (65) 
[NH-]C(=O)c1cc2ccc(NCc3ccncn3)cc2n1C(=O)C(F)(F)F (protonated)
[NH-]C(=O)c1cc2ccc(NCc3ccncn3)cc2n1C(=O)C(F)(F)F (3D coordinates assigned)
[NH-]C(=O)c1cc2ccc(NCc3ccncn3)cc2n1C(=O)C(F)(F)F (optimized conformer: 79.7116833667424 kcal/mol)

>  <smiles>  (65) 
NC(=O)c1cc2ccc(NCc3ccncn3)cc2n1C(=O)C(F)(F)F

>  <score_type>  (65) 
oracle

>  <origin>  (65) 
adg

>  <m_score__min__energy>  (65) 
-7.1799999999999997

>  <m_primary>  (65) 
energy

$$$$
68:0
     RDKit          3D

 38 39  0  0  0  0  0  0  0  0999 V2000
  142.6910  160.4320  133.0180 N   0  0  0  0  0  0  0  0  0  0  0  0
  143.9980  160.6780  133.5410 C   0  0  0  0  0  0  0  0  0  0  0  0
  144.2330  161.7780  134.1100 O   0  0  0  0  0  0  0  0  0  0  0  0
  145.0750  159.6710  133.4020 C   0  0  0  0  0  0  0  0  0  0  0  0
  146.4360  159.9710  133.3440 C   0  0  0  0  0  0  0  0  0  0  0  0
  147.0770  158.7520  133.2930 C   0  0  0  0  0  0  0  0  0  0  0  0
  148.4340  158.4530  133.2150 C   0  0  0  0  0  0  0  0  0  0  0  0
  148.8080  157.0980  133.1540 C   0  0  0  0  0  0  0  0  0  0  0  0
  147.8240  156.0760  133.1660 C   0  0  0  0  0  0  0  0  0  0  0  0
  148.2280  154.6310  133.0950 C   0  0  0  0  0  0  0  0  0  0  0  0
  147.1750  153.8780  132.6080 F   0  0  0  0  0  0  0  0  0  0  0  0
  149.3170  154.4900  132.2540 F   0  0  0  0  0  0  0  0  0  0  0  0
  146.4570  156.4190  133.2500 C   0  0  0  0  0  0  0  0  0  0  0  0
  146.1180  157.7740  133.3200 C   0  0  0  0  0  0  0  0  0  0  0  0
  144.8880  158.3210  133.3870 N   0  0  0  0  0  0  0  0  0  0  0  0
  143.6460  157.6040  133.3770 C   0  0  0  0  0  0  0  0  0  0  0  0
  142.9940  157.4980  132.3040 O   0  0  0  0  0  0  0  0  0  0  0  0
  143.0670  157.0730  134.6520 C   0  0  0  0  0  0  0  0  0  0  0  0
  141.8280  157.8330  134.9990 C   0  0  0  0  0  0  0  0  0  0  0  0
  141.4330  157.8780  136.1960 O   0  0  0  0  0  0  0  0  0  0  0  0
  141.1190  158.5390  133.9770 N   0  0  0  0  0  0  0  0  0  0  0  0
  139.8080  158.1210  133.4980 C   0  0  0  0  0  0  0  0  0  0  0  0
  139.5080  158.7820  132.1540 C   0  0  0  0  0  0  0  0  0  0  0  0
  140.6230  159.4960  131.6940 O   0  0  0  0  0  0  0  0  0  0  0  0
  141.9520  161.1660  133.0920 H   0  0  0  0  0  0  0  0  0  0  0  0
  142.4340  159.5100  132.6040 H   0  0  0  0  0  0  0  0  0  0  0  0
  146.8993  160.9687  133.3398 H   0  0  0  0  0  0  0  0  0  0  0  0
  149.1907  159.2513  133.2014 H   0  0  0  0  0  0  0  0  0  0  0  0
  149.8729  156.8286  133.0965 H   0  0  0  0  0  0  0  0  0  0  0  0
  148.4963  154.2824  134.1032 H   0  0  0  0  0  0  0  0  0  0  0  0
  145.6793  155.6412  133.2601 H   0  0  0  0  0  0  0  0  0  0  0  0
  142.8195  156.0087  134.5255 H   0  0  0  0  0  0  0  0  0  0  0  0
  143.8030  157.1881  135.4614 H   0  0  0  0  0  0  0  0  0  0  0  0
  139.7959  157.0277  133.3771 H   0  0  0  0  0  0  0  0  0  0  0  0
  139.0432  158.4240  134.2282 H   0  0  0  0  0  0  0  0  0  0  0  0
  139.2482  158.0054  131.4195 H   0  0  0  0  0  0  0  0  0  0  0  0
  138.6685  159.4811  132.2829 H   0  0  0  0  0  0  0  0  0  0  0  0
  141.4150  158.9160  131.8510 H   0  0  0  0  0  0  0  0  0  0  0  0
  1  2  1  0
  2  3  2  0
  2  4  1  0
  4  5  2  0
  5  6  1  0
  6  7  2  0
  7  8  1  0
  8  9  2  0
  9 10  1  0
 10 11  1  0
 10 12  1  0
  9 13  1  0
 13 14  2  0
 14 15  1  0
 15 16  1  0
 16 17  2  0
 16 18  1  0
 18 19  1  0
 19 20  2  0
 19 21  1  0
 21 22  1  0
 22 23  1  0
 23 24  1  0
 15  4  1  0
 14  6  1  0
  1 25  1  0
  1 26  1  0
  5 27  1  0
  7 28  1  0
  8 29  1  0
 10 30  1  0
 13 31  1  0
 18 32  1  0
 18 33  1  0
 22 34  1  0
 22 35  1  0
 23 36  1  0
 23 37  1  0
 24 38  1  0
M  CHG  1  21  -1
M  END
>  <UniqueID>  (66) 
65

>  <SMILES>  (66) 
NC(=O)c1cc2ccc(C(F)F)cc2n1C(=O)CC(=O)[N-]CCO

>  <Energy>  (66) 
69.75939888887164

>  <Genealogy>  (66) 
NC(=O)c1cc2ccc(C(F)F)cc2n1C(=O)CC(=O)[N-]CCO (protonated)
NC(=O)c1cc2ccc(C(F)F)cc2n1C(=O)CC(=O)[N-]CCO (3D coordinates assigned)
NC(=O)c1cc2ccc(C(F)F)cc2n1C(=O)CC(=O)[N-]CCO (optimized conformer: 69.75939888887164 kcal/mol)

>  <smiles>  (66) 
NC(=O)c1cc2ccc(C(F)F)cc2n1C(=O)CC(=O)NCCO

>  <score_type>  (66) 
oracle

>  <origin>  (66) 
adg

>  <m_score__min__energy>  (66) 
-5.6200000000000001

>  <m_primary>  (66) 
energy

$$$$
69:0
     RDKit          3D

 39 40  0  0  0  0  0  0  0  0999 V2000
  148.9540  150.7870  131.9130 C   0  0  0  0  0  0  0  0  0  0  0  0
  149.9610  151.5350  132.7930 C   0  0  0  0  0  0  0  0  0  0  0  0
  149.6140  151.3410  134.2740 C   0  0  0  0  0  0  0  0  0  0  0  0
  149.9640  152.9660  132.4550 N   0  0  0  0  0  0  0  0  0  0  0  0
  148.8540  153.8600  132.6740 C   0  0  0  0  0  0  0  0  0  0  0  0
  147.5820  153.3100  132.9780 C   0  0  0  0  0  0  0  0  0  0  0  0
  146.4720  154.1390  133.2160 C   0  0  0  0  0  0  0  0  0  0  0  0
  146.6590  155.5150  133.1420 C   0  0  0  0  0  0  0  0  0  0  0  0
  145.7690  156.5450  133.3480 C   0  0  0  0  0  0  0  0  0  0  0  0
  146.5070  157.7140  133.1580 C   0  0  0  0  0  0  0  0  0  0  0  0
  145.9420  159.0820  133.2060 C   0  0  0  0  0  0  0  0  0  0  0  0
  146.6900  160.2030  132.7320 N   0  0  0  0  0  0  0  0  0  0  0  0
  144.7940  159.2720  133.6880 O   0  0  0  0  0  0  0  0  0  0  0  0
  147.7970  157.4110  132.8470 N   0  0  0  0  0  0  0  0  0  0  0  0
  148.8900  158.3160  132.6370 C   0  0  0  0  0  0  0  0  0  0  0  0
  149.2250  159.1140  133.5530 O   0  0  0  0  0  0  0  0  0  0  0  0
  149.5520  158.4110  131.2970 C   0  0  0  0  0  0  0  0  0  0  0  0
  149.2250  160.0410  130.5650 P   0  0  0  0  0  0  0  0  0  0  0  0
  147.8080  160.0820  130.0420 O   0  0  0  0  0  0  0  0  0  0  0  0
  150.3020  160.3190  129.2900 O   0  0  0  0  0  0  0  0  0  0  0  0
  149.4230  161.2410  131.7390 O   0  0  0  0  0  0  0  0  0  0  0  0
  147.8750  156.0650  132.8390 C   0  0  0  0  0  0  0  0  0  0  0  0
  149.0000  155.2690  132.6090 C   0  0  0  0  0  0  0  0  0  0  0  0
  148.2349  150.2529  132.5514 H   0  0  0  0  0  0  0  0  0  0  0  0
  148.4165  151.5066  131.2779 H   0  0  0  0  0  0  0  0  0  0  0  0
  149.4876  150.0646  131.2779 H   0  0  0  0  0  0  0  0  0  0  0  0
  150.9655  151.1264  132.6088 H   0  0  0  0  0  0  0  0  0  0  0  0
  150.4053  151.7834  134.8970 H   0  0  0  0  0  0  0  0  0  0  0  0
  148.6556  151.8342  134.4937 H   0  0  0  0  0  0  0  0  0  0  0  0
  149.5322  150.2663  134.4937 H   0  0  0  0  0  0  0  0  0  0  0  0
  150.8290  153.3680  132.0270 H   0  0  0  0  0  0  0  0  0  0  0  0
  147.4625  152.2177  133.0282 H   0  0  0  0  0  0  0  0  0  0  0  0
  145.4862  153.7126  133.4534 H   0  0  0  0  0  0  0  0  0  0  0  0
  144.7031  156.4638  133.6072 H   0  0  0  0  0  0  0  0  0  0  0  0
  146.2890  161.1650  132.7980 H   0  0  0  0  0  0  0  0  0  0  0  0
  147.6190  160.0840  132.2740 H   0  0  0  0  0  0  0  0  0  0  0  0
  150.6371  158.2745  131.4150 H   0  0  0  0  0  0  0  0  0  0  0  0
  149.1502  157.6285  130.6365 H   0  0  0  0  0  0  0  0  0  0  0  0
  149.9755  155.7243  132.3829 H   0  0  0  0  0  0  0  0  0  0  0  0
  1  2  1  0
  2  3  1  0
  2  4  1  0
  4  5  1  0
  5  6  2  0
  6  7  1  0
  7  8  2  0
  8  9  1  0
  9 10  2  0
 10 11  1  0
 11 12  1  0
 11 13  2  0
 10 14  1  0
 14 15  1  0
 15 16  2  0
 15 17  1  0
 17 18  1  0
 18 19  2  0
 18 20  1  0
 18 21  1  0
 14 22  1  0
 22 23  2  0
 23  5  1  0
 22  8  1  0
  1 24  1  0
  1 25  1  0
  1 26  1  0
  2 27  1  0
  3 28  1  0
  3 29  1  0
  3 30  1  0
  4 31  1  0
  6 32  1  0
  7 33  1  0
  9 34  1  0
 12 35  1  0
 12 36  1  0
 17 37  1  0
 17 38  1  0
 23 39  1  0
M  CHG  2  20  -1  21  -1
M  END
>  <UniqueID>  (67) 
66

>  <SMILES>  (67) 
CC(C)Nc1ccc2cc(C(N)=O)n(C(=O)CP(=O)([O-])[O-])c2c1

>  <Energy>  (67) 
68.52163052685711

>  <Genealogy>  (67) 
CC(C)Nc1ccc2cc(C(N)=O)n(C(=O)CP(=O)([O-])[O-])c2c1 (protonated)
CC(C)Nc1ccc2cc(C(N)=O)n(C(=O)CP(=O)([O-])[O-])c2c1 (3D coordinates assigned)
CC(C)Nc1ccc2cc(C(N)=O)n(C(=O)CP(=O)([O-])[O-])c2c1 (optimized conformer: 68.52163052685711 kcal/mol)

>  <smiles>  (67) 
CC(C)Nc1ccc2cc(C(N)=O)n(C(=O)CP(=O)(O)O)c2c1

>  <score_type>  (67) 
oracle

>  <origin>  (67) 
adg

>  <m_score__min__energy>  (67) 
-7.3600000000000003

>  <m_primary>  (67) 
energy

$$$$
70:0
     RDKit          3D

 51 52  0  0  0  0  0  0  0  0999 V2000
  139.8600  155.7500  132.9860 C   0  0  0  0  0  0  0  0  0  0  0  0
  140.8260  155.2700  133.9780 N   0  0  0  0  0  0  0  0  0  0  0  0
  141.7770  154.3190  133.3820 C   0  0  0  0  0  0  0  0  0  0  0  0
  143.0860  154.3440  134.1080 C   0  0  0  0  0  0  0  0  0  0  0  0
  143.2440  155.1190  135.0910 O   0  0  0  0  0  0  0  0  0  0  0  0
  144.1350  153.5270  133.6640 O   0  0  0  0  0  0  0  0  0  0  0  0
  145.4820  153.6700  134.1110 C   0  0  0  0  0  0  0  0  0  0  0  0
  146.4070  154.0080  132.9320 C   0  0  0  0  0  0  0  0  0  0  0  0
  147.5710  154.9190  133.3410 C   0  0  0  0  0  0  0  0  0  0  0  0
  147.1590  156.3680  133.3950 C   0  0  0  0  0  0  0  0  0  0  0  0
  148.1230  157.3900  133.1950 C   0  0  0  0  0  0  0  0  0  0  0  0
  147.7450  158.7440  133.2100 C   0  0  0  0  0  0  0  0  0  0  0  0
  146.4010  159.0430  133.4130 C   0  0  0  0  0  0  0  0  0  0  0  0
  145.7640  160.2620  133.4800 C   0  0  0  0  0  0  0  0  0  0  0  0
  144.4180  159.9650  133.6910 C   0  0  0  0  0  0  0  0  0  0  0  0
  143.3540  160.9930  133.7340 C   0  0  0  0  0  0  0  0  0  0  0  0
  142.0010  160.6030  133.9560 N   0  0  0  0  0  0  0  0  0  0  0  0
  143.6320  162.2150  133.6110 O   0  0  0  0  0  0  0  0  0  0  0  0
  144.2310  158.6160  133.7610 N   0  0  0  0  0  0  0  0  0  0  0  0
  143.0070  157.9010  133.9970 C   0  0  0  0  0  0  0  0  0  0  0  0
  142.2840  157.5570  133.0240 O   0  0  0  0  0  0  0  0  0  0  0  0
  142.6150  157.6230  135.3130 O   0  0  0  0  0  0  0  0  0  0  0  0
  141.2760  157.7520  135.8110 C   0  0  0  0  0  0  0  0  0  0  0  0
  140.8880  156.5390  136.4090 O   0  0  0  0  0  0  0  0  0  0  0  0
  140.4220  158.0260  134.7260 O   0  0  0  0  0  0  0  0  0  0  0  0
  141.2040  158.9060  136.8370 C   0  0  0  0  0  0  0  0  0  0  0  0
  140.8320  160.1060  136.2110 O   0  0  0  0  0  0  0  0  0  0  0  0
  145.4530  158.0670  133.5860 C   0  0  0  0  0  0  0  0  0  0  0  0
  145.8040  156.7110  133.5960 C   0  0  0  0  0  0  0  0  0  0  0  0
  138.9896  156.1825  133.5012 H   0  0  0  0  0  0  0  0  0  0  0  0
  140.3323  156.5182  132.3561 H   0  0  0  0  0  0  0  0  0  0  0  0
  139.5330  154.9096  132.3561 H   0  0  0  0  0  0  0  0  0  0  0  0
  141.3760  156.0990  134.3060 H   0  0  0  0  0  0  0  0  0  0  0  0
  141.3542  153.3050  133.4372 H   0  0  0  0  0  0  0  0  0  0  0  0
  141.9512  154.6070  132.3348 H   0  0  0  0  0  0  0  0  0  0  0  0
  145.5327  154.4791  134.8545 H   0  0  0  0  0  0  0  0  0  0  0  0
  145.8104  152.7211  134.5602 H   0  0  0  0  0  0  0  0  0  0  0  0
  146.8176  153.0717  132.5262 H   0  0  0  0  0  0  0  0  0  0  0  0
  145.8091  154.5462  132.1818 H   0  0  0  0  0  0  0  0  0  0  0  0
  147.9289  154.6138  134.3354 H   0  0  0  0  0  0  0  0  0  0  0  0
  148.3643  154.8182  132.5856 H   0  0  0  0  0  0  0  0  0  0  0  0
  149.1760  157.1202  133.0266 H   0  0  0  0  0  0  0  0  0  0  0  0
  148.4882  159.5421  133.0658 H   0  0  0  0  0  0  0  0  0  0  0  0
  146.2202  161.2586  133.3868 H   0  0  0  0  0  0  0  0  0  0  0  0
  141.7670  159.6410  134.2860 H   0  0  0  0  0  0  0  0  0  0  0  0
  141.4000  155.8100  135.9710 H   0  0  0  0  0  0  0  0  0  0  0  0
  140.8240  158.7790  134.2170 H   0  0  0  0  0  0  0  0  0  0  0  0
  140.4613  158.6565  137.6091 H   0  0  0  0  0  0  0  0  0  0  0  0
  142.1975  159.0377  137.2904 H   0  0  0  0  0  0  0  0  0  0  0  0
  141.0930  160.0270  135.2550 H   0  0  0  0  0  0  0  0  0  0  0  0
  145.0432  155.9329  133.7564 H   0  0  0  0  0  0  0  0  0  0  0  0
  1  2  1  0
  2  3  1  0
  3  4  1  0
  4  5  2  0
  4  6  1  0
  6  7  1  0
  7  8  1  0
  8  9  1  0
  9 10  1  0
 10 11  2  0
 11 12  1  0
 12 13  2  0
 13 14  1  0
 14 15  2  0
 15 16  1  0
 16 17  1  0
 16 18  2  0
 15 19  1  0
 19 20  1  0
 20 21  2  0
 20 22  1  0
 22 23  1  0
 23 24  1  0
 23 25  1  0
 23 26  1  0
 26 27  1  0
 19 28  1  0
 28 29  2  0
 29 10  1  0
 28 13  1  0
  1 30  1  0
  1 31  1  0
  1 32  1  0
  2 33  1  0
  3 34  1  0
  3 35  1  0
  7 36  1  0
  7 37  1  0
  8 38  1  0
  8 39  1  0
  9 40  1  0
  9 41  1  0
 11 42  1  0
 12 43  1  0
 14 44  1  0
 17 45  1  0
 24 46  1  0
 25 47  1  0
 26 48  1  0
 26 49  1  0
 27 50  1  0
 29 51  1  0
M  CHG  1  17  -1
M  END
>  <UniqueID>  (68) 
67

>  <SMILES>  (68) 
CNCC(=O)OCCCc1ccc2cc(C([NH-])=O)n(C(=O)OC(O)(O)CO)c2c1

>  <Energy>  (68) 
80.58227413231519

>  <Genealogy>  (68) 
CNCC(=O)OCCCc1ccc2cc(C([NH-])=O)n(C(=O)OC(O)(O)CO)c2c1 (protonated)
CNCC(=O)OCCCc1ccc2cc(C([NH-])=O)n(C(=O)OC(O)(O)CO)c2c1 (3D coordinates assigned)
CNCC(=O)OCCCc1ccc2cc(C([NH-])=O)n(C(=O)OC(O)(O)CO)c2c1 (optimized conformer: 80.58227413231519 kcal/mol)

>  <smiles>  (68) 
CNCC(=O)OCCCc1ccc2cc(C(N)=O)n(C(=O)OC(O)(O)CO)c2c1

>  <score_type>  (68) 
oracle

>  <origin>  (68) 
adg

>  <m_score__min__energy>  (68) 
-4.3099999999999996

>  <m_primary>  (68) 
energy

$$$$
71:0
     RDKit          3D

 42 43  0  0  0  0  0  0  0  0999 V2000
  143.2210  156.9880  134.6580 C   0  0  0  0  0  0  0  0  0  0  0  0
  143.5510  157.8380  133.4730 C   0  0  0  0  0  0  0  0  0  0  0  0
  142.6970  157.9780  132.5570 O   0  0  0  0  0  0  0  0  0  0  0  0
  144.7970  158.5490  133.3990 N   0  0  0  0  0  0  0  0  0  0  0  0
  145.0050  159.8940  133.4670 C   0  0  0  0  0  0  0  0  0  0  0  0
  143.9800  160.9120  133.7740 C   0  0  0  0  0  0  0  0  0  0  0  0
  142.6530  160.5070  134.1050 N   0  0  0  0  0  0  0  0  0  0  0  0
  144.2530  162.1390  133.7170 O   0  0  0  0  0  0  0  0  0  0  0  0
  146.3560  160.1880  133.2900 C   0  0  0  0  0  0  0  0  0  0  0  0
  146.9740  158.9690  133.1180 C   0  0  0  0  0  0  0  0  0  0  0  0
  148.3140  158.6660  132.9000 C   0  0  0  0  0  0  0  0  0  0  0  0
  148.6670  157.3150  132.7420 C   0  0  0  0  0  0  0  0  0  0  0  0
  147.6800  156.2930  132.8030 C   0  0  0  0  0  0  0  0  0  0  0  0
  148.0210  154.9030  132.6370 N   0  0  0  0  0  0  0  0  0  0  0  0
  148.4600  154.0480  133.7420 C   0  0  0  0  0  0  0  0  0  0  0  0
  148.4070  152.5670  133.3430 C   0  0  0  0  0  0  0  0  0  0  0  0
  149.2000  152.2580  132.0940 C   0  0  0  0  0  0  0  0  0  0  0  0
  149.7000  153.2030  131.4230 O   0  0  0  0  0  0  0  0  0  0  0  0
  149.3960  150.8960  131.6550 N   0  0  0  0  0  0  0  0  0  0  0  0
  150.1730  150.6420  130.4380 C   0  0  0  0  0  0  0  0  0  0  0  0
  148.8300  149.7750  132.4140 C   0  0  0  0  0  0  0  0  0  0  0  0
  146.3300  156.6460  133.0270 C   0  0  0  0  0  0  0  0  0  0  0  0
  146.0120  157.9980  133.1910 C   0  0  0  0  0  0  0  0  0  0  0  0
  143.4375  157.5458  135.5810 H   0  0  0  0  0  0  0  0  0  0  0  0
  142.1541  156.7215  134.6324 H   0  0  0  0  0  0  0  0  0  0  0  0
  143.8286  156.0714  134.6324 H   0  0  0  0  0  0  0  0  0  0  0  0
  142.1260  159.8450  133.4950 H   0  0  0  0  0  0  0  0  0  0  0  0
  146.8280  161.1816  133.2881 H   0  0  0  0  0  0  0  0  0  0  0  0
  149.0741  159.4597  132.8527 H   0  0  0  0  0  0  0  0  0  0  0  0
  149.7192  157.0448  132.5691 H   0  0  0  0  0  0  0  0  0  0  0  0
  147.9500  154.4910  131.6780 H   0  0  0  0  0  0  0  0  0  0  0  0
  149.4932  154.3113  134.0126 H   0  0  0  0  0  0  0  0  0  0  0  0
  147.7867  154.2058  134.5974 H   0  0  0  0  0  0  0  0  0  0  0  0
  148.8117  151.9671  134.1714 H   0  0  0  0  0  0  0  0  0  0  0  0
  147.3555  152.3230  133.1313 H   0  0  0  0  0  0  0  0  0  0  0  0
  151.1856  150.3110  130.7119 H   0  0  0  0  0  0  0  0  0  0  0  0
  149.6791  149.8585  129.8445 H   0  0  0  0  0  0  0  0  0  0  0  0
  150.2373  151.5659  129.8445 H   0  0  0  0  0  0  0  0  0  0  0  0
  148.9304  149.9737  133.4912 H   0  0  0  0  0  0  0  0  0  0  0  0
  147.7659  149.6602  132.1599 H   0  0  0  0  0  0  0  0  0  0  0  0
  149.3694  148.8506  132.1599 H   0  0  0  0  0  0  0  0  0  0  0  0
  145.5470  155.8747  133.0714 H   0  0  0  0  0  0  0  0  0  0  0  0
  1  2  1  0
  2  3  2  0
  2  4  1  0
  4  5  1  0
  5  6  1  0
  6  7  1  0
  6  8  2  0
  5  9  2  0
  9 10  1  0
 10 11  2  0
 11 12  1  0
 12 13  2  0
 13 14  1  0
 14 15  1  0
 15 16  1  0
 16 17  1  0
 17 18  2  0
 17 19  1  0
 19 20  1  0
 19 21  1  0
 13 22  1  0
 22 23  2  0
 23  4  1  0
 23 10  1  0
  1 24  1  0
  1 25  1  0
  1 26  1  0
  7 27  1  0
  9 28  1  0
 11 29  1  0
 12 30  1  0
 14 31  1  0
 15 32  1  0
 15 33  1  0
 16 34  1  0
 16 35  1  0
 20 36  1  0
 20 37  1  0
 20 38  1  0
 21 39  1  0
 21 40  1  0
 21 41  1  0
 22 42  1  0
M  CHG  1   7  -1
M  END
>  <UniqueID>  (69) 
68

>  <SMILES>  (69) 
CC(=O)n1c(C([NH-])=O)cc2ccc(NCCC(=O)N(C)C)cc21

>  <Energy>  (69) 
76.04424902308554

>  <Genealogy>  (69) 
CC(=O)n1c(C([NH-])=O)cc2ccc(NCCC(=O)N(C)C)cc21 (protonated)
CC(=O)n1c(C([NH-])=O)cc2ccc(NCCC(=O)N(C)C)cc21 (3D coordinates assigned)
CC(=O)n1c(C([NH-])=O)cc2ccc(NCCC(=O)N(C)C)cc21 (optimized conformer: 76.04424902308554 kcal/mol)

>  <smiles>  (69) 
CC(=O)n1c(C(N)=O)cc2ccc(NCCC(=O)N(C)C)cc21

>  <score_type>  (69) 
oracle

>  <origin>  (69) 
adg

>  <m_score__min__energy>  (69) 
-7.3200000000000003

>  <m_primary>  (69) 
energy

$$$$
72:0
     RDKit          3D

 45 46  0  0  0  0  0  0  0  0999 V2000
  148.5110  154.6830  132.6860 C   0  0  0  0  0  0  0  0  0  0  0  0
  147.6070  155.7610  132.6020 O   0  0  0  0  0  0  0  0  0  0  0  0
  146.2860  155.2620  132.5820 C   0  0  0  0  0  0  0  0  0  0  0  0
  145.9550  154.6470  133.9350 C   0  0  0  0  0  0  0  0  0  0  0  0
  144.8570  153.7660  133.7970 O   0  0  0  0  0  0  0  0  0  0  0  0
  143.7470  154.4570  133.2610 C   0  0  0  0  0  0  0  0  0  0  0  0
  143.4990  155.6410  134.0160 O   0  0  0  0  0  0  0  0  0  0  0  0
  142.3590  156.4320  133.8350 C   0  0  0  0  0  0  0  0  0  0  0  0
  141.2480  155.9020  133.5620 O   0  0  0  0  0  0  0  0  0  0  0  0
  142.4550  157.8550  133.9820 N   0  0  0  0  0  0  0  0  0  0  0  0
  141.5050  158.7220  134.4340 C   0  0  0  0  0  0  0  0  0  0  0  0
  140.1030  158.3830  134.7550 C   0  0  0  0  0  0  0  0  0  0  0  0
  139.6820  158.1880  136.1030 N   0  0  0  0  0  0  0  0  0  0  0  0
  139.2700  158.2250  133.8220 O   0  0  0  0  0  0  0  0  0  0  0  0
  142.0190  160.0160  134.4970 C   0  0  0  0  0  0  0  0  0  0  0  0
  143.3220  159.9130  134.0640 C   0  0  0  0  0  0  0  0  0  0  0  0
  144.3070  160.8890  133.9420 C   0  0  0  0  0  0  0  0  0  0  0  0
  145.5810  160.4860  133.5060 C   0  0  0  0  0  0  0  0  0  0  0  0
  145.8540  159.1260  133.2120 C   0  0  0  0  0  0  0  0  0  0  0  0
  147.1800  158.7510  132.7910 N   0  0  0  0  0  0  0  0  0  0  0  0
  148.1380  159.7060  132.2240 C   0  0  0  0  0  0  0  0  0  0  0  0
  149.2680  158.9950  131.4770 C   0  0  0  0  0  0  0  0  0  0  0  0
  149.3980  157.6720  131.9260 O   0  0  0  0  0  0  0  0  0  0  0  0
  144.8220  158.1660  133.3460 C   0  0  0  0  0  0  0  0  0  0  0  0
  143.5590  158.6000  133.7610 C   0  0  0  0  0  0  0  0  0  0  0  0
  148.7065  154.4499  133.7431 H   0  0  0  0  0  0  0  0  0  0  0  0
  148.0779  153.8018  132.1902 H   0  0  0  0  0  0  0  0  0  0  0  0
  149.4542  154.9560  132.1902 H   0  0  0  0  0  0  0  0  0  0  0  0
  145.5865  156.0846  132.3722 H   0  0  0  0  0  0  0  0  0  0  0  0
  146.1957  154.4950  131.7987 H   0  0  0  0  0  0  0  0  0  0  0  0
  146.8273  154.0901  134.3078 H   0  0  0  0  0  0  0  0  0  0  0  0
  145.6974  155.4449  134.6471 H   0  0  0  0  0  0  0  0  0  0  0  0
  143.9569  154.7286  132.2159 H   0  0  0  0  0  0  0  0  0  0  0  0
  142.8606  153.8072  133.3066 H   0  0  0  0  0  0  0  0  0  0  0  0
  139.4820  159.0010  136.7260 H   0  0  0  0  0  0  0  0  0  0  0  0
  141.4949  160.9264  134.8234 H   0  0  0  0  0  0  0  0  0  0  0  0
  144.0951  161.9420  134.1792 H   0  0  0  0  0  0  0  0  0  0  0  0
  146.3773  161.2361  133.3912 H   0  0  0  0  0  0  0  0  0  0  0  0
  147.4540  157.7460  132.8740 H   0  0  0  0  0  0  0  0  0  0  0  0
  147.6089  160.3689  131.5235 H   0  0  0  0  0  0  0  0  0  0  0  0
  148.5808  160.2806  133.0509 H   0  0  0  0  0  0  0  0  0  0  0  0
  149.0438  158.9914  130.4001 H   0  0  0  0  0  0  0  0  0  0  0  0
  150.2108  159.5291  131.6664 H   0  0  0  0  0  0  0  0  0  0  0  0
  148.7630  157.1230  131.3980 H   0  0  0  0  0  0  0  0  0  0  0  0
  145.0092  157.1040  133.1288 H   0  0  0  0  0  0  0  0  0  0  0  0
  1  2  1  0
  2  3  1  0
  3  4  1  0
  4  5  1  0
  5  6  1  0
  6  7  1  0
  7  8  1  0
  8  9  2  0
  8 10  1  0
 10 11  1  0
 11 12  1  0
 12 13  1  0
 12 14  2  0
 11 15  2  0
 15 16  1  0
 16 17  2  0
 17 18  1  0
 18 19  2  0
 19 20  1  0
 20 21  1  0
 21 22  1  0
 22 23  1  0
 19 24  1  0
 24 25  2  0
 25 10  1  0
 25 16  1  0
  1 26  1  0
  1 27  1  0
  1 28  1  0
  3 29  1  0
  3 30  1  0
  4 31  1  0
  4 32  1  0
  6 33  1  0
  6 34  1  0
 13 35  1  0
 15 36  1  0
 17 37  1  0
 18 38  1  0
 20 39  1  0
 21 40  1  0
 21 41  1  0
 22 42  1  0
 22 43  1  0
 23 44  1  0
 24 45  1  0
M  CHG  1  13  -1
M  END
>  <UniqueID>  (70) 
69

>  <SMILES>  (70) 
COCCOCOC(=O)n1c(C([NH-])=O)cc2ccc(NCCO)cc21

>  <Energy>  (70) 
78.4124247831559

>  <Genealogy>  (70) 
COCCOCOC(=O)n1c(C([NH-])=O)cc2ccc(NCCO)cc21 (protonated)
COCCOCOC(=O)n1c(C([NH-])=O)cc2ccc(NCCO)cc21 (3D coordinates assigned)
COCCOCOC(=O)n1c(C([NH-])=O)cc2ccc(NCCO)cc21 (optimized conformer: 78.4124247831559 kcal/mol)

>  <smiles>  (70) 
COCCOCOC(=O)n1c(C(N)=O)cc2ccc(NCCO)cc21

>  <score_type>  (70) 
oracle

>  <origin>  (70) 
adg

>  <m_score__min__energy>  (70) 
-6.0199999999999996

>  <m_primary>  (70) 
energy

$$$$
73:0
     RDKit          3D

 58 59  0  0  0  0  0  0  0  0999 V2000
  146.2910  159.6920  133.1890 C   0  0  0  0  0  0  0  0  0  0  0  0
  147.5350  158.9720  132.8970 N   0  0  0  0  0  0  0  0  0  0  0  0
  148.6790  159.6950  132.3130 C   0  0  0  0  0  0  0  0  0  0  0  0
  148.2590  160.4920  131.0740 C   0  0  0  0  0  0  0  0  0  0  0  0
  149.4500  161.0410  130.3500 C   0  0  0  0  0  0  0  0  0  0  0  0
  149.6260  162.2850  130.2730 O   0  0  0  0  0  0  0  0  0  0  0  0
  150.3860  160.1780  129.7950 O   0  0  0  0  0  0  0  0  0  0  0  0
  147.6130  157.5720  133.2410 C   0  0  0  0  0  0  0  0  0  0  0  0
  148.2310  156.7830  132.4750 O   0  0  0  0  0  0  0  0  0  0  0  0
  146.9330  157.0170  134.4700 C   0  0  0  0  0  0  0  0  0  0  0  0
  145.6840  156.2540  134.1120 C   0  0  0  0  0  0  0  0  0  0  0  0
  145.7530  154.8700  133.8100 C   0  0  0  0  0  0  0  0  0  0  0  0
  144.5860  154.1420  133.5150 C   0  0  0  0  0  0  0  0  0  0  0  0
  143.3720  154.8230  133.5330 C   0  0  0  0  0  0  0  0  0  0  0  0
  142.0930  154.3610  133.3120 C   0  0  0  0  0  0  0  0  0  0  0  0
  141.2650  155.4750  133.4730 C   0  0  0  0  0  0  0  0  0  0  0  0
  139.7970  155.4640  133.2650 C   0  0  0  0  0  0  0  0  0  0  0  0
  139.0280  156.6590  133.4100 N   0  0  0  0  0  0  0  0  0  0  0  0
  139.2070  154.3900  132.9730 O   0  0  0  0  0  0  0  0  0  0  0  0
  142.0070  156.5760  133.7740 N   0  0  0  0  0  0  0  0  0  0  0  0
  141.5290  157.9040  134.0410 C   0  0  0  0  0  0  0  0  0  0  0  0
  141.3110  158.6950  133.0840 O   0  0  0  0  0  0  0  0  0  0  0  0
  141.3220  158.3710  135.4490 C   0  0  0  0  0  0  0  0  0  0  0  0
  140.0580  157.7930  135.9950 C   0  0  0  0  0  0  0  0  0  0  0  0
  138.9500  158.2370  135.5910 O   0  0  0  0  0  0  0  0  0  0  0  0
  140.1320  156.7370  136.9160 O   0  0  0  0  0  0  0  0  0  0  0  0
  141.2300  156.4580  137.7970 C   0  0  0  0  0  0  0  0  0  0  0  0
  142.4010  155.8260  137.0190 C   0  0  0  0  0  0  0  0  0  0  0  0
  141.6930  157.7990  138.3850 C   0  0  0  0  0  0  0  0  0  0  0  0
  140.7820  155.5390  138.9500 C   0  0  0  0  0  0  0  0  0  0  0  0
  143.2920  156.1610  133.8140 C   0  0  0  0  0  0  0  0  0  0  0  0
  144.4320  156.9060  134.1310 C   0  0  0  0  0  0  0  0  0  0  0  0
  146.1587  159.7686  134.2783 H   0  0  0  0  0  0  0  0  0  0  0  0
  146.3406  160.7010  132.7538 H   0  0  0  0  0  0  0  0  0  0  0  0
  145.4408  159.1464  132.7538 H   0  0  0  0  0  0  0  0  0  0  0  0
  149.0862  160.3880  133.0639 H   0  0  0  0  0  0  0  0  0  0  0  0
  149.4383  158.9584  132.0115 H   0  0  0  0  0  0  0  0  0  0  0  0
  147.7005  159.8308  130.3951 H   0  0  0  0  0  0  0  0  0  0  0  0
  147.6320  161.3350  131.3998 H   0  0  0  0  0  0  0  0  0  0  0  0
  147.6285  156.3411  134.9890 H   0  0  0  0  0  0  0  0  0  0  0  0
  146.6494  157.8594  135.1180 H   0  0  0  0  0  0  0  0  0  0  0  0
  146.7282  154.3611  133.8064 H   0  0  0  0  0  0  0  0  0  0  0  0
  144.6313  153.0689  133.2777 H   0  0  0  0  0  0  0  0  0  0  0  0
  141.7885  153.3340  133.0620 H   0  0  0  0  0  0  0  0  0  0  0  0
  139.4820  157.5860  133.5670 H   0  0  0  0  0  0  0  0  0  0  0  0
  137.9860  156.6260  133.3320 H   0  0  0  0  0  0  0  0  0  0  0  0
  142.1699  158.0456  136.0697 H   0  0  0  0  0  0  0  0  0  0  0  0
  141.2530  159.4688  135.4602 H   0  0  0  0  0  0  0  0  0  0  0  0
  143.1402  155.4271  137.7292 H   0  0  0  0  0  0  0  0  0  0  0  0
  142.0227  155.0096  136.3863 H   0  0  0  0  0  0  0  0  0  0  0  0
  142.8758  156.5904  136.3863 H   0  0  0  0  0  0  0  0  0  0  0  0
  141.6739  157.7438  139.4834 H   0  0  0  0  0  0  0  0  0  0  0  0
  142.7173  158.0137  138.0464 H   0  0  0  0  0  0  0  0  0  0  0  0
  141.0194  158.6000  138.0464 H   0  0  0  0  0  0  0  0  0  0  0  0
  141.0154  156.0178  139.9124 H   0  0  0  0  0  0  0  0  0  0  0  0
  139.6981  155.3651  138.8803 H   0  0  0  0  0  0  0  0  0  0  0  0
  141.3127  154.5780  138.8803 H   0  0  0  0  0  0  0  0  0  0  0  0
  144.3553  157.9727  134.3886 H   0  0  0  0  0  0  0  0  0  0  0  0
  1  2  1  0
  2  3  1  0
  3  4  1  0
  4  5  1  0
  5  6  2  0
  5  7  1  0
  2  8  1  0
  8  9  2  0
  8 10  1  0
 10 11  1  0
 11 12  2  0
 12 13  1  0
 13 14  2  0
 14 15  1  0
 15 16  2  0
 16 17  1  0
 17 18  1  0
 17 19  2  0
 16 20  1  0
 20 21  1  0
 21 22  2  0
 21 23  1  0
 23 24  1  0
 24 25  2  0
 24 26  1  0
 26 27  1  0
 27 28  1  0
 27 29  1  0
 27 30  1  0
 20 31  1  0
 31 32  2  0
 32 11  1  0
 31 14  1  0
  1 33  1  0
  1 34  1  0
  1 35  1  0
  3 36  1  0
  3 37  1  0
  4 38  1  0
  4 39  1  0
 10 40  1  0
 10 41  1  0
 12 42  1  0
 13 43  1  0
 15 44  1  0
 18 45  1  0
 18 46  1  0
 23 47  1  0
 23 48  1  0
 28 49  1  0
 28 50  1  0
 28 51  1  0
 29 52  1  0
 29 53  1  0
 29 54  1  0
 30 55  1  0
 30 56  1  0
 30 57  1  0
 32 58  1  0
M  CHG  1   7  -1
M  END
>  <UniqueID>  (71) 
70

>  <SMILES>  (71) 
CN(CCC(=O)[O-])C(=O)Cc1ccc2cc(C(N)=O)n(C(=O)CC(=O)OC(C)(C)C)c2c1

>  <Energy>  (71) 
85.37974635632129

>  <Genealogy>  (71) 
CN(CCC(=O)[O-])C(=O)Cc1ccc2cc(C(N)=O)n(C(=O)CC(=O)OC(C)(C)C)c2c1 (protonated)
CN(CCC(=O)[O-])C(=O)Cc1ccc2cc(C(N)=O)n(C(=O)CC(=O)OC(C)(C)C)c2c1 (3D coordinates assigned)
CN(CCC(=O)[O-])C(=O)Cc1ccc2cc(C(N)=O)n(C(=O)CC(=O)OC(C)(C)C)c2c1 (optimized conformer: 85.37974635632129 kcal/mol)

>  <smiles>  (71) 
CN(CCC(=O)O)C(=O)Cc1ccc2cc(C(N)=O)n(C(=O)CC(=O)OC(C)(C)C)c2c1

>  <score_type>  (71) 
oracle

>  <origin>  (71) 
adg

>  <m_score__min__energy>  (71) 
-8.6999999999999993

>  <m_primary>  (71) 
energy

$$$$
74:0
     RDKit          3D

 33 34  0  0  0  0  0  0  0  0999 V2000
  142.5790  161.0390  133.7300 N   0  0  0  0  0  0  0  0  0  0  0  0
  143.9760  161.3220  133.7380 C   0  0  0  0  0  0  0  0  0  0  0  0
  144.3620  162.5210  133.7960 O   0  0  0  0  0  0  0  0  0  0  0  0
  144.9720  160.2370  133.6230 C   0  0  0  0  0  0  0  0  0  0  0  0
  146.3320  160.4640  133.4280 C   0  0  0  0  0  0  0  0  0  0  0  0
  146.8930  159.2160  133.2840 C   0  0  0  0  0  0  0  0  0  0  0  0
  148.2210  158.8490  133.0920 C   0  0  0  0  0  0  0  0  0  0  0  0
  148.5230  157.4790  133.0160 C   0  0  0  0  0  0  0  0  0  0  0  0
  147.4980  156.5040  133.1240 C   0  0  0  0  0  0  0  0  0  0  0  0
  147.8420  155.0360  133.1050 C   0  0  0  0  0  0  0  0  0  0  0  0
  148.9500  154.8040  132.3080 F   0  0  0  0  0  0  0  0  0  0  0  0
  146.7690  154.3240  132.6030 F   0  0  0  0  0  0  0  0  0  0  0  0
  148.1260  154.5840  134.3820 F   0  0  0  0  0  0  0  0  0  0  0  0
  146.1630  156.9180  133.3450 C   0  0  0  0  0  0  0  0  0  0  0  0
  145.8900  158.2900  133.3970 C   0  0  0  0  0  0  0  0  0  0  0  0
  144.7020  158.9010  133.6080 N   0  0  0  0  0  0  0  0  0  0  0  0
  143.4450  158.2580  133.8690 C   0  0  0  0  0  0  0  0  0  0  0  0
  143.2360  157.7300  134.9950 O   0  0  0  0  0  0  0  0  0  0  0  0
  142.4580  158.2450  132.8750 O   0  0  0  0  0  0  0  0  0  0  0  0
  141.1040  158.5360  133.0810 C   0  0  0  0  0  0  0  0  0  0  0  0
  140.5840  159.5840  132.6090 O   0  0  0  0  0  0  0  0  0  0  0  0
  140.3320  157.6410  133.8290 O   0  0  0  0  0  0  0  0  0  0  0  0
  139.6250  158.0120  135.0100 C   0  0  0  0  0  0  0  0  0  0  0  0
  140.5440  158.6740  135.9920 C   0  0  0  0  0  0  0  0  0  0  0  0
  141.0000  159.7790  135.7520 O   0  0  0  0  0  0  0  0  0  0  0  0
  142.2200  160.0950  133.9960 H   0  0  0  0  0  0  0  0  0  0  0  0
  146.8481  161.4349  133.3959 H   0  0  0  0  0  0  0  0  0  0  0  0
  149.0112  159.6089  133.0023 H   0  0  0  0  0  0  0  0  0  0  0  0
  149.5654  157.1589  132.8712 H   0  0  0  0  0  0  0  0  0  0  0  0
  145.3584  156.1789  133.4730 H   0  0  0  0  0  0  0  0  0  0  0  0
  138.8180  158.7103  134.7433 H   0  0  0  0  0  0  0  0  0  0  0  0
  139.2079  157.1050  135.4720 H   0  0  0  0  0  0  0  0  0  0  0  0
  140.8071  158.1626  136.9297 H   0  0  0  0  0  0  0  0  0  0  0  0
  1  2  1  0
  2  3  2  0
  2  4  1  0
  4  5  2  0
  5  6  1  0
  6  7  2  0
  7  8  1  0
  8  9  2  0
  9 10  1  0
 10 11  1  0
 10 12  1  0
 10 13  1  0
  9 14  1  0
 14 15  2  0
 15 16  1  0
 16 17  1  0
 17 18  2  0
 17 19  1  0
 19 20  1  0
 20 21  2  0
 20 22  1  0
 22 23  1  0
 23 24  1  0
 24 25  2  0
 16  4  1  0
 15  6  1  0
  1 26  1  0
  5 27  1  0
  7 28  1  0
  8 29  1  0
 14 30  1  0
 23 31  1  0
 23 32  1  0
 24 33  1  0
M  CHG  1   1  -1
M  END
>  <UniqueID>  (72) 
71

>  <SMILES>  (72) 
[NH-]C(=O)c1cc2ccc(C(F)(F)F)cc2n1C(=O)OC(=O)OCC=O

>  <Energy>  (72) 
71.65016311991486

>  <Genealogy>  (72) 
[NH-]C(=O)c1cc2ccc(C(F)(F)F)cc2n1C(=O)OC(=O)OCC=O (protonated)
[NH-]C(=O)c1cc2ccc(C(F)(F)F)cc2n1C(=O)OC(=O)OCC=O (3D coordinates assigned)
[NH-]C(=O)c1cc2ccc(C(F)(F)F)cc2n1C(=O)OC(=O)OCC=O (optimized conformer: 71.65016311991486 kcal/mol)

>  <smiles>  (72) 
NC(=O)c1cc2ccc(C(F)(F)F)cc2n1C(=O)OC(=O)OCC=O

>  <score_type>  (72) 
oracle

>  <origin>  (72) 
adg

>  <m_score__min__energy>  (72) 
-5.7400000000000002

>  <m_primary>  (72) 
energy

$$$$
75:0
     RDKit          3D

 50 53  0  0  0  0  0  0  0  0999 V2000
  141.9300  157.7070  132.4660 N   0  0  0  0  0  0  0  0  0  0  0  0
  141.4950  158.1050  133.7670 C   0  0  0  0  0  0  0  0  0  0  0  0
  141.1070  159.2890  133.9490 O   0  0  0  0  0  0  0  0  0  0  0  0
  141.4480  157.1470  134.8920 C   0  0  0  0  0  0  0  0  0  0  0  0
  140.7930  157.4030  136.0930 C   0  0  0  0  0  0  0  0  0  0  0  0
  140.9510  156.2600  136.8450 C   0  0  0  0  0  0  0  0  0  0  0  0
  140.4990  155.9580  138.1250 C   0  0  0  0  0  0  0  0  0  0  0  0
  140.8290  154.7020  138.6610 C   0  0  0  0  0  0  0  0  0  0  0  0
  141.6210  153.7830  137.9240 C   0  0  0  0  0  0  0  0  0  0  0  0
  141.9340  152.4230  138.4950 C   0  0  0  0  0  0  0  0  0  0  0  0
  143.3000  152.2020  138.5080 F   0  0  0  0  0  0  0  0  0  0  0  0
  141.3430  151.4260  137.7390 F   0  0  0  0  0  0  0  0  0  0  0  0
  141.4530  152.3510  139.7890 F   0  0  0  0  0  0  0  0  0  0  0  0
  142.0410  154.1190  136.6160 C   0  0  0  0  0  0  0  0  0  0  0  0
  141.6860  155.3710  136.1040 C   0  0  0  0  0  0  0  0  0  0  0  0
  142.0060  155.9040  134.9060 N   0  0  0  0  0  0  0  0  0  0  0  0
  142.8360  155.2940  133.9040 C   0  0  0  0  0  0  0  0  0  0  0  0
  143.7720  155.9650  133.3910 O   0  0  0  0  0  0  0  0  0  0  0  0
  142.6050  153.8980  133.4600 C   0  0  0  0  0  0  0  0  0  0  0  0
  141.3070  153.3620  133.4500 C   0  0  0  0  0  0  0  0  0  0  0  0
  141.0840  152.0510  133.0200 C   0  0  0  0  0  0  0  0  0  0  0  0
  142.1550  151.2520  132.5900 C   0  0  0  0  0  0  0  0  0  0  0  0
  141.9270  149.8610  132.1380 C   0  0  0  0  0  0  0  0  0  0  0  0
  142.8660  149.0240  132.2410 O   0  0  0  0  0  0  0  0  0  0  0  0
  140.6690  149.4450  131.5720 N   0  0  0  0  0  0  0  0  0  0  0  0
  139.8530  150.3580  130.7660 C   0  0  0  0  0  0  0  0  0  0  0  0
  139.2420  149.5910  129.5890 C   0  0  0  0  0  0  0  0  0  0  0  0
  138.5590  148.4370  130.0430 O   0  0  0  0  0  0  0  0  0  0  0  0
  139.4800  147.5290  130.6170 C   0  0  0  0  0  0  0  0  0  0  0  0
  140.1170  148.1220  131.8780 C   0  0  0  0  0  0  0  0  0  0  0  0
  143.4570  151.7750  132.6320 C   0  0  0  0  0  0  0  0  0  0  0  0
  143.6800  153.0860  133.0600 C   0  0  0  0  0  0  0  0  0  0  0  0
  142.0750  156.7020  132.2280 H   0  0  0  0  0  0  0  0  0  0  0  0
  142.0190  158.4150  131.7050 H   0  0  0  0  0  0  0  0  0  0  0  0
  140.2621  158.3225  136.3805 H   0  0  0  0  0  0  0  0  0  0  0  0
  139.9013  156.6804  138.7002 H   0  0  0  0  0  0  0  0  0  0  0  0
  140.4694  154.4275  139.6636 H   0  0  0  0  0  0  0  0  0  0  0  0
  142.6328  153.4124  136.0157 H   0  0  0  0  0  0  0  0  0  0  0  0
  140.4593  153.9787  133.7832 H   0  0  0  0  0  0  0  0  0  0  0  0
  140.0626  151.6427  133.0185 H   0  0  0  0  0  0  0  0  0  0  0  0
  139.0484  150.7771  131.3881 H   0  0  0  0  0  0  0  0  0  0  0  0
  140.4838  151.1744  130.3844 H   0  0  0  0  0  0  0  0  0  0  0  0
  138.5331  150.2455  129.0608 H   0  0  0  0  0  0  0  0  0  0  0  0
  140.0513  149.2792  128.9124 H   0  0  0  0  0  0  0  0  0  0  0  0
  138.9531  146.6005  130.8820 H   0  0  0  0  0  0  0  0  0  0  0  0
  140.2746  147.3236  129.8846 H   0  0  0  0  0  0  0  0  0  0  0  0
  139.3538  148.2163  132.6645 H   0  0  0  0  0  0  0  0  0  0  0  0
  140.9237  147.4603  132.2266 H   0  0  0  0  0  0  0  0  0  0  0  0
  144.3075  151.1482  132.3258 H   0  0  0  0  0  0  0  0  0  0  0  0
  144.7045  153.4856  133.0841 H   0  0  0  0  0  0  0  0  0  0  0  0
  1  2  1  0
  2  3  2  0
  2  4  1  0
  4  5  2  0
  5  6  1  0
  6  7  2  0
  7  8  1  0
  8  9  2  0
  9 10  1  0
 10 11  1  0
 10 12  1  0
 10 13  1  0
  9 14  1  0
 14 15  2  0
 15 16  1  0
 16 17  1  0
 17 18  2  0
 17 19  1  0
 19 20  2  0
 20 21  1  0
 21 22  2  0
 22 23  1  0
 23 24  2  0
 23 25  1  0
 25 26  1  0
 26 27  1  0
 27 28  1  0
 28 29  1  0
 29 30  1  0
 22 31  1  0
 31 32  2  0
 16  4  1  0
 32 19  1  0
 15  6  1  0
 30 25  1  0
  1 33  1  0
  1 34  1  0
  5 35  1  0
  7 36  1  0
  8 37  1  0
 14 38  1  0
 20 39  1  0
 21 40  1  0
 26 41  1  0
 26 42  1  0
 27 43  1  0
 27 44  1  0
 29 45  1  0
 29 46  1  0
 30 47  1  0
 30 48  1  0
 31 49  1  0
 32 50  1  0
M  END
>  <UniqueID>  (73) 
72

>  <SMILES>  (73) 
NC(=O)c1cc2ccc(C(F)(F)F)cc2n1C(=O)c1ccc(C(=O)N2CCOCC2)cc1

>  <Energy>  (73) 
102.3709398464935

>  <Genealogy>  (73) 
NC(=O)c1cc2ccc(C(F)(F)F)cc2n1C(=O)c1ccc(C(=O)N2CCOCC2)cc1 (3D coordinates assigned)
NC(=O)c1cc2ccc(C(F)(F)F)cc2n1C(=O)c1ccc(C(=O)N2CCOCC2)cc1 (nonaromatic ring conformer: 102.3709398464935 kcal/mol)

>  <smiles>  (73) 
NC(=O)c1cc2ccc(C(F)(F)F)cc2n1C(=O)c1ccc(C(=O)N2CCOCC2)cc1

>  <score_type>  (73) 
oracle

>  <origin>  (73) 
adg

>  <m_score__min__energy>  (73) 
-9.1799999999999997

>  <m_primary>  (73) 
energy

$$$$
76:0
     RDKit          3D

 57 58  0  0  0  0  0  0  0  0999 V2000
  147.7400  156.3360  133.4230 C   0  0  0  0  0  0  0  0  0  0  0  0
  147.4040  155.0450  132.6580 C   0  0  2  0  0  0  0  0  0  0  0  0
  145.9750  154.9780  132.2490 N   0  0  0  0  0  0  0  0  0  0  0  0
  145.0170  155.2760  133.2950 C   0  0  0  0  0  0  0  0  0  0  0  0
  144.9740  154.5030  134.4860 C   0  0  0  0  0  0  0  0  0  0  0  0
  144.0180  154.7680  135.4810 C   0  0  0  0  0  0  0  0  0  0  0  0
  143.1260  155.8150  135.2710 C   0  0  0  0  0  0  0  0  0  0  0  0
  142.1000  156.2750  136.0640 C   0  0  0  0  0  0  0  0  0  0  0  0
  141.5400  157.3380  135.3610 C   0  0  0  0  0  0  0  0  0  0  0  0
  140.3220  158.0490  135.7990 C   0  0  0  0  0  0  0  0  0  0  0  0
  140.4000  159.3580  136.3520 N   0  0  0  0  0  0  0  0  0  0  0  0
  139.1920  157.5190  135.6210 O   0  0  0  0  0  0  0  0  0  0  0  0
  142.2060  157.5430  134.1870 N   0  0  0  0  0  0  0  0  0  0  0  0
  142.0270  158.6160  133.2440 C   0  0  0  0  0  0  0  0  0  0  0  0
  142.6940  159.6780  133.3720 O   0  0  0  0  0  0  0  0  0  0  0  0
  141.1390  158.4510  132.1690 O   0  0  0  0  0  0  0  0  0  0  0  0
  139.8340  159.0370  132.0410 C   0  0  0  0  0  0  0  0  0  0  0  0
  138.7860  158.1710  132.7640 C   0  0  0  0  0  0  0  0  0  0  0  0
  139.8280  160.4780  132.5890 C   0  0  0  0  0  0  0  0  0  0  0  0
  139.4990  159.0750  130.5410 C   0  0  0  0  0  0  0  0  0  0  0  0
  143.1700  156.5950  134.1450 C   0  0  0  0  0  0  0  0  0  0  0  0
  144.1320  156.3720  133.1530 C   0  0  0  0  0  0  0  0  0  0  0  0
  147.8830  153.8230  133.4370 C   0  0  0  0  0  0  0  0  0  0  0  0
  147.6050  153.7350  134.6660 O   0  0  0  0  0  0  0  0  0  0  0  0
  148.7000  152.7870  132.8360 N   0  0  0  0  0  0  0  0  0  0  0  0
  149.9780  153.1780  132.2240 C   0  0  0  0  0  0  0  0  0  0  0  0
  148.1950  151.4260  132.5860 C   0  0  0  0  0  0  0  0  0  0  0  0
  146.7830  151.4630  131.9920 C   0  0  0  0  0  0  0  0  0  0  0  0
  145.8970  152.0940  132.8720 O   0  0  0  0  0  0  0  0  0  0  0  0
  147.6902  156.1445  134.5051 H   0  0  0  0  0  0  0  0  0  0  0  0
  148.7543  156.6672  133.1556 H   0  0  0  0  0  0  0  0  0  0  0  0
  147.0159  157.1197  133.1556 H   0  0  0  0  0  0  0  0  0  0  0  0
  147.9588  155.0530  131.7082 H   0  0  0  0  0  0  0  0  0  0  0  0
  145.7900  154.0240  131.8600 H   0  0  0  0  0  0  0  0  0  0  0  0
  145.8170  155.6400  131.4540 H   0  0  0  0  0  0  0  0  0  0  0  0
  145.6977  153.6874  134.6310 H   0  0  0  0  0  0  0  0  0  0  0  0
  143.9760  154.1649  136.3999 H   0  0  0  0  0  0  0  0  0  0  0  0
  141.7886  155.8857  137.0446 H   0  0  0  0  0  0  0  0  0  0  0  0
  139.8240  159.6240  137.1820 H   0  0  0  0  0  0  0  0  0  0  0  0
  138.9118  158.2750  133.8518 H   0  0  0  0  0  0  0  0  0  0  0  0
  137.7766  158.5020  132.4783 H   0  0  0  0  0  0  0  0  0  0  0  0
  138.9209  157.1173  132.4783 H   0  0  0  0  0  0  0  0  0  0  0  0
  139.8281  160.4521  133.6887 H   0  0  0  0  0  0  0  0  0  0  0  0
  140.7239  161.0088  132.2347 H   0  0  0  0  0  0  0  0  0  0  0  0
  138.9277  161.0013  132.2347 H   0  0  0  0  0  0  0  0  0  0  0  0
  138.4137  159.1981  130.4107 H   0  0  0  0  0  0  0  0  0  0  0  0
  140.0230  159.9195  130.0695 H   0  0  0  0  0  0  0  0  0  0  0  0
  139.8206  158.1346  130.0695 H   0  0  0  0  0  0  0  0  0  0  0  0
  144.1992  157.0363  132.2788 H   0  0  0  0  0  0  0  0  0  0  0  0
  150.7097  153.4018  133.0143 H   0  0  0  0  0  0  0  0  0  0  0  0
  150.3531  152.3535  131.5999 H   0  0  0  0  0  0  0  0  0  0  0  0
  149.8276  154.0712  131.5999 H   0  0  0  0  0  0  0  0  0  0  0  0
  148.8683  150.9167  131.8809 H   0  0  0  0  0  0  0  0  0  0  0  0
  148.1577  150.8854  133.5433 H   0  0  0  0  0  0  0  0  0  0  0  0
  146.8046  152.0164  131.0416 H   0  0  0  0  0  0  0  0  0  0  0  0
  146.4414  150.4312  131.8227 H   0  0  0  0  0  0  0  0  0  0  0  0
  146.3720  152.1630  133.7390 H   0  0  0  0  0  0  0  0  0  0  0  0
  1  2  1  0
  2  3  1  0
  3  4  1  0
  4  5  2  0
  5  6  1  0
  6  7  2  0
  7  8  1  0
  8  9  2  0
  9 10  1  0
 10 11  1  0
 10 12  2  0
  9 13  1  0
 13 14  1  0
 14 15  2  0
 14 16  1  0
 16 17  1  0
 17 18  1  0
 17 19  1  0
 17 20  1  0
 13 21  1  0
 21 22  2  0
  2 23  1  0
 23 24  2  0
 23 25  1  0
 25 26  1  0
 25 27  1  0
 27 28  1  0
 28 29  1  0
 22  4  1  0
 21  7  1  0
  1 30  1  0
  1 31  1  0
  1 32  1  0
  2 33  1  6
  3 34  1  0
  3 35  1  0
  5 36  1  0
  6 37  1  0
  8 38  1  0
 11 39  1  0
 18 40  1  0
 18 41  1  0
 18 42  1  0
 19 43  1  0
 19 44  1  0
 19 45  1  0
 20 46  1  0
 20 47  1  0
 20 48  1  0
 22 49  1  0
 26 50  1  0
 26 51  1  0
 26 52  1  0
 27 53  1  0
 27 54  1  0
 28 55  1  0
 28 56  1  0
 29 57  1  0
M  CHG  2   3   1  11  -1
M  END
>  <UniqueID>  (74) 
73

>  <SMILES>  (74) 
C[C@H]([NH2+]c1ccc2cc(C([NH-])=O)n(C(=O)OC(C)(C)C)c2c1)C(=O)N(C)CCO

>  <Energy>  (74) 
94.29427478211858

>  <Genealogy>  (74) 
CC([NH2+]c1ccc2cc(C([NH-])=O)n(C(=O)OC(C)(C)C)c2c1)C(=O)N(C)CCO (protonated)
C[C@H]([NH2+]c1ccc2cc(C([NH-])=O)n(C(=O)OC(C)(C)C)c2c1)C(=O)N(C)CCO (chirality)
C[C@H]([NH2+]c1ccc2cc(C([NH-])=O)n(C(=O)OC(C)(C)C)c2c1)C(=O)N(C)CCO (3D coordinates assigned)
C[C@H]([NH2+]c1ccc2cc(C([NH-])=O)n(C(=O)OC(C)(C)C)c2c1)C(=O)N(C)CCO (optimized conformer: 94.29427478211858 kcal/mol)

>  <smiles>  (74) 
CC(Nc1ccc2cc(C(N)=O)n(C(=O)OC(C)(C)C)c2c1)C(=O)N(C)CCO

>  <score_type>  (74) 
oracle

>  <origin>  (74) 
adg

>  <m_score__min__energy>  (74) 
-8.0600000000000005

>  <m_primary>  (74) 
energy

$$$$
77:0
     RDKit          3D

 42 44  0  0  0  0  0  0  0  0999 V2000
  139.7360  158.3640  132.9720 C   0  0  0  0  0  0  0  0  0  0  0  0
  140.9450  157.6410  133.3850 N   0  0  0  0  0  0  0  0  0  0  0  0
  140.8320  156.2290  133.7690 C   0  0  0  0  0  0  0  0  0  0  0  0
  142.2320  158.3100  133.4030 C   0  0  0  0  0  0  0  0  0  0  0  0
  142.3140  159.7310  133.4160 C   0  0  0  0  0  0  0  0  0  0  0  0
  143.5570  160.3860  133.4360 C   0  0  0  0  0  0  0  0  0  0  0  0
  144.7060  159.6050  133.4600 C   0  0  0  0  0  0  0  0  0  0  0  0
  146.0320  159.9780  133.4530 C   0  0  0  0  0  0  0  0  0  0  0  0
  146.7490  158.7850  133.4670 C   0  0  0  0  0  0  0  0  0  0  0  0
  148.2240  158.7150  133.4850 C   0  0  0  0  0  0  0  0  0  0  0  0
  148.9380  157.8410  132.6100 N   0  0  0  0  0  0  0  0  0  0  0  0
  148.8650  159.4080  134.3210 O   0  0  0  0  0  0  0  0  0  0  0  0
  145.9030  157.7170  133.4780 N   0  0  0  0  0  0  0  0  0  0  0  0
  146.2520  156.3280  133.3590 C   0  0  0  0  0  0  0  0  0  0  0  0
  146.6670  155.8930  132.2510 O   0  0  0  0  0  0  0  0  0  0  0  0
  146.1420  155.4070  134.5170 C   0  0  0  0  0  0  0  0  0  0  0  0
  144.8860  154.9370  134.9300 C   0  0  0  0  0  0  0  0  0  0  0  0
  144.7780  154.0830  136.0270 C   0  0  0  0  0  0  0  0  0  0  0  0
  145.9180  153.6810  136.7290 C   0  0  0  0  0  0  0  0  0  0  0  0
  145.7620  152.8350  137.8220 O   0  0  0  0  0  0  0  0  0  0  0  0
  147.1950  154.1300  136.3260 C   0  0  0  0  0  0  0  0  0  0  0  0
  148.4290  153.7220  137.0460 C   0  0  0  0  0  0  0  0  0  0  0  0
  148.9070  152.5680  136.8860 O   0  0  0  0  0  0  0  0  0  0  0  0
  149.0800  154.5980  137.9050 O   0  0  0  0  0  0  0  0  0  0  0  0
  147.2900  154.9860  135.2110 C   0  0  0  0  0  0  0  0  0  0  0  0
  144.6550  158.2380  133.4650 C   0  0  0  0  0  0  0  0  0  0  0  0
  143.4350  157.5580  133.4130 C   0  0  0  0  0  0  0  0  0  0  0  0
  139.1836  158.6943  133.8640 H   0  0  0  0  0  0  0  0  0  0  0  0
  140.0202  159.2405  132.3712 H   0  0  0  0  0  0  0  0  0  0  0  0
  139.0983  157.6989  132.3712 H   0  0  0  0  0  0  0  0  0  0  0  0
  140.8254  156.1467  134.8659 H   0  0  0  0  0  0  0  0  0  0  0  0
  139.8977  155.8126  133.3645 H   0  0  0  0  0  0  0  0  0  0  0  0
  141.6882  155.6693  133.3645 H   0  0  0  0  0  0  0  0  0  0  0  0
  141.3890  160.3262  133.4103 H   0  0  0  0  0  0  0  0  0  0  0  0
  143.6186  161.4843  133.4328 H   0  0  0  0  0  0  0  0  0  0  0  0
  146.4377  161.0004  133.4393 H   0  0  0  0  0  0  0  0  0  0  0  0
  148.4440  157.1160  132.0460 H   0  0  0  0  0  0  0  0  0  0  0  0
  149.9830  157.8500  132.6020 H   0  0  0  0  0  0  0  0  0  0  0  0
  143.9811  155.2441  134.3851 H   0  0  0  0  0  0  0  0  0  0  0  0
  143.7877  153.7227  136.3425 H   0  0  0  0  0  0  0  0  0  0  0  0
  148.2798  155.3310  134.8775 H   0  0  0  0  0  0  0  0  0  0  0  0
  143.4080  156.4588  133.3804 H   0  0  0  0  0  0  0  0  0  0  0  0
  1  2  1  0
  2  3  1  0
  2  4  1  0
  4  5  2  0
  5  6  1  0
  6  7  2  0
  7  8  1  0
  8  9  2  0
  9 10  1  0
 10 11  1  0
 10 12  2  0
  9 13  1  0
 13 14  1  0
 14 15  2  0
 14 16  1  0
 16 17  2  0
 17 18  1  0
 18 19  2  0
 19 20  1  0
 19 21  1  0
 21 22  1  0
 22 23  2  0
 22 24  1  0
 21 25  2  0
 13 26  1  0
 26 27  2  0
 27  4  1  0
 26  7  1  0
 25 16  1  0
  1 28  1  0
  1 29  1  0
  1 30  1  0
  3 31  1  0
  3 32  1  0
  3 33  1  0
  5 34  1  0
  6 35  1  0
  8 36  1  0
 11 37  1  0
 11 38  1  0
 17 39  1  0
 18 40  1  0
 25 41  1  0
 27 42  1  0
M  CHG  2  20  -1  24  -1
M  END
>  <UniqueID>  (75) 
74

>  <SMILES>  (75) 
CN(C)c1ccc2cc(C(N)=O)n(C(=O)c3ccc([O-])c(C(=O)[O-])c3)c2c1

>  <Energy>  (75) 
89.17688468620463

>  <Genealogy>  (75) 
CN(C)c1ccc2cc(C(N)=O)n(C(=O)c3ccc([O-])c(C(=O)[O-])c3)c2c1 (protonated)
CN(C)c1ccc2cc(C(N)=O)n(C(=O)c3ccc([O-])c(C(=O)[O-])c3)c2c1 (3D coordinates assigned)
CN(C)c1ccc2cc(C(N)=O)n(C(=O)c3ccc([O-])c(C(=O)[O-])c3)c2c1 (optimized conformer: 89.17688468620463 kcal/mol)

>  <smiles>  (75) 
CN(C)c1ccc2cc(C(N)=O)n(C(=O)c3ccc(O)c(C(=O)O)c3)c2c1

>  <score_type>  (75) 
oracle

>  <origin>  (75) 
adg

>  <m_score__min__energy>  (75) 
-7.9299999999999997

>  <m_primary>  (75) 
energy

$$$$
78:0
     RDKit          3D

 35 36  0  0  0  0  0  0  0  0999 V2000
  139.6030  159.2150  131.6440 C   0  0  0  0  0  0  0  0  0  0  0  0
  139.2710  158.5520  132.5950 C   0  0  0  0  0  0  0  0  0  0  0  0
  138.8610  157.7530  133.7540 C   0  0  0  0  0  0  0  0  0  0  0  0
  139.8730  157.7790  134.7440 O   0  0  0  0  0  0  0  0  0  0  0  0
  140.8520  156.7830  134.5140 C   0  0  0  0  0  0  0  0  0  0  0  0
  142.1640  157.3320  134.6330 O   0  0  0  0  0  0  0  0  0  0  0  0
  143.0170  157.5600  133.5450 C   0  0  0  0  0  0  0  0  0  0  0  0
  143.1060  156.7130  132.6150 O   0  0  0  0  0  0  0  0  0  0  0  0
  143.8010  158.7600  133.4990 N   0  0  0  0  0  0  0  0  0  0  0  0
  143.3970  160.0230  133.8100 C   0  0  0  0  0  0  0  0  0  0  0  0
  142.0070  160.4430  134.0830 C   0  0  0  0  0  0  0  0  0  0  0  0
  141.2150  159.7870  135.0730 N   0  0  0  0  0  0  0  0  0  0  0  0
  141.4920  161.3630  133.3930 O   0  0  0  0  0  0  0  0  0  0  0  0
  144.4770  160.9010  133.8090 C   0  0  0  0  0  0  0  0  0  0  0  0
  145.5690  160.1320  133.4770 C   0  0  0  0  0  0  0  0  0  0  0  0
  146.9110  160.4850  133.3640 C   0  0  0  0  0  0  0  0  0  0  0  0
  147.8360  159.4720  133.0660 C   0  0  0  0  0  0  0  0  0  0  0  0
  147.4090  158.1310  132.8950 C   0  0  0  0  0  0  0  0  0  0  0  0
  148.4040  157.0450  132.6060 C   0  0  0  0  0  0  0  0  0  0  0  0
  148.5510  156.2370  133.7190 F   0  0  0  0  0  0  0  0  0  0  0  0
  149.6260  157.6080  132.2850 F   0  0  0  0  0  0  0  0  0  0  0  0
  146.0390  157.8100  133.0200 C   0  0  0  0  0  0  0  0  0  0  0  0
  145.1360  158.8430  133.2970 C   0  0  0  0  0  0  0  0  0  0  0  0
  139.9058  159.8198  130.7765 H   0  0  0  0  0  0  0  0  0  0  0  0
  137.9320  158.1680  134.1720 H   0  0  0  0  0  0  0  0  0  0  0  0
  138.6954  156.7134  133.4349 H   0  0  0  0  0  0  0  0  0  0  0  0
  140.7288  155.9774  135.2528 H   0  0  0  0  0  0  0  0  0  0  0  0
  140.7237  156.3878  133.4955 H   0  0  0  0  0  0  0  0  0  0  0  0
  141.5490  158.9150  135.5410 H   0  0  0  0  0  0  0  0  0  0  0  0
  140.2500  160.1270  135.2830 H   0  0  0  0  0  0  0  0  0  0  0  0
  144.4611  161.9791  134.0270 H   0  0  0  0  0  0  0  0  0  0  0  0
  147.2367  161.5263  133.5040 H   0  0  0  0  0  0  0  0  0  0  0  0
  148.9026  159.7211  132.9642 H   0  0  0  0  0  0  0  0  0  0  0  0
  148.0428  156.4412  131.7604 H   0  0  0  0  0  0  0  0  0  0  0  0
  145.6903  156.7734  132.9025 H   0  0  0  0  0  0  0  0  0  0  0  0
  1  2  3  0
  2  3  1  0
  3  4  1  0
  4  5  1  0
  5  6  1  0
  6  7  1  0
  7  8  2  0
  7  9  1  0
  9 10  1  0
 10 11  1  0
 11 12  1  0
 11 13  2  0
 10 14  2  0
 14 15  1  0
 15 16  2  0
 16 17  1  0
 17 18  2  0
 18 19  1  0
 19 20  1  0
 19 21  1  0
 18 22  1  0
 22 23  2  0
 23  9  1  0
 23 15  1  0
  1 24  1  0
  3 25  1  0
  3 26  1  0
  5 27  1  0
  5 28  1  0
 12 29  1  0
 12 30  1  0
 14 31  1  0
 16 32  1  0
 17 33  1  0
 19 34  1  0
 22 35  1  0
M  END
>  <UniqueID>  (76) 
75

>  <SMILES>  (76) 
C#CCOCOC(=O)n1c(C(N)=O)cc2ccc(C(F)F)cc21

>  <Energy>  (76) 
74.04801515731373

>  <Genealogy>  (76) 
C#CCOCOC(=O)n1c(C(N)=O)cc2ccc(C(F)F)cc21 (3D coordinates assigned)
C#CCOCOC(=O)n1c(C(N)=O)cc2ccc(C(F)F)cc21 (optimized conformer: 74.04801515731373 kcal/mol)

>  <smiles>  (76) 
C#CCOCOC(=O)n1c(C(N)=O)cc2ccc(C(F)F)cc21

>  <score_type>  (76) 
oracle

>  <origin>  (76) 
adg

>  <m_score__min__energy>  (76) 
-6

>  <m_primary>  (76) 
energy

$$$$
79:0
     RDKit          3D

 42 43  0  0  0  0  0  0  0  0999 V2000
  144.2720  152.2840  132.9920 C   0  0  0  0  0  0  0  0  0  0  0  0
  143.8870  153.3930  133.8830 N   0  0  0  0  0  0  0  0  0  0  0  0
  145.0600  154.2180  134.2250 C   0  0  0  0  0  0  0  0  0  0  0  0
  142.8790  154.2140  133.2510 C   0  0  0  0  0  0  0  0  0  0  0  0
  143.2250  155.2420  132.5990 O   0  0  0  0  0  0  0  0  0  0  0  0
  141.4850  153.8790  133.3600 N   0  0  0  0  0  0  0  0  0  0  0  0
  141.0200  152.5520  132.9280 C   0  0  0  0  0  0  0  0  0  0  0  0
  141.3520  151.5090  133.9620 C   0  0  0  0  0  0  0  0  0  0  0  0
  141.3450  150.2860  133.6640 O   0  0  0  0  0  0  0  0  0  0  0  0
  141.7490  151.8940  135.2440 O   0  0  0  0  0  0  0  0  0  0  0  0
  140.5190  154.9180  133.6320 C   0  0  0  0  0  0  0  0  0  0  0  0
  139.3290  154.8080  133.2280 O   0  0  0  0  0  0  0  0  0  0  0  0
  140.9210  156.1200  134.3090 N   0  0  0  0  0  0  0  0  0  0  0  0
  141.3830  156.2510  135.5820 C   0  0  0  0  0  0  0  0  0  0  0  0
  141.7630  155.1410  136.4820 C   0  0  0  0  0  0  0  0  0  0  0  0
  143.0000  154.4420  136.3020 N   0  0  0  0  0  0  0  0  0  0  0  0
  141.0130  154.8330  137.4490 O   0  0  0  0  0  0  0  0  0  0  0  0
  141.5290  157.5970  135.9110 C   0  0  0  0  0  0  0  0  0  0  0  0
  141.1400  158.2930  134.7860 C   0  0  0  0  0  0  0  0  0  0  0  0
  141.0590  159.6640  134.5600 C   0  0  0  0  0  0  0  0  0  0  0  0
  140.5850  160.0990  133.3100 C   0  0  0  0  0  0  0  0  0  0  0  0
  140.2220  159.1620  132.3110 C   0  0  0  0  0  0  0  0  0  0  0  0
  139.6810  159.6300  130.9910 C   0  0  0  0  0  0  0  0  0  0  0  0
  137.9080  159.7870  131.0940 Cl  0  0  0  0  0  0  0  0  0  0  0  0
  140.2980  157.7750  132.5850 C   0  0  0  0  0  0  0  0  0  0  0  0
  140.7790  157.3750  133.8350 C   0  0  0  0  0  0  0  0  0  0  0  0
  144.5734  151.4158  133.5964 H   0  0  0  0  0  0  0  0  0  0  0  0
  143.4165  152.0097  132.3573 H   0  0  0  0  0  0  0  0  0  0  0  0
  145.1134  152.5988  132.3573 H   0  0  0  0  0  0  0  0  0  0  0  0
  143.5160  152.9890  134.7790 H   0  0  0  0  0  0  0  0  0  0  0  0
  145.1549  154.2848  135.3189 H   0  0  0  0  0  0  0  0  0  0  0  0
  145.9668  153.7577  133.8057 H   0  0  0  0  0  0  0  0  0  0  0  0
  144.9334  155.2270  133.8057 H   0  0  0  0  0  0  0  0  0  0  0  0
  139.9302  152.5813  132.7816 H   0  0  0  0  0  0  0  0  0  0  0  0
  141.5246  152.2897  131.9864 H   0  0  0  0  0  0  0  0  0  0  0  0
  143.0190  153.4660  135.9300 H   0  0  0  0  0  0  0  0  0  0  0  0
  141.8801  158.0156  136.8657 H   0  0  0  0  0  0  0  0  0  0  0  0
  141.3567  160.3850  135.3356 H   0  0  0  0  0  0  0  0  0  0  0  0
  140.4952  161.1761  133.1057 H   0  0  0  0  0  0  0  0  0  0  0  0
  140.1212  160.6064  130.7403 H   0  0  0  0  0  0  0  0  0  0  0  0
  139.9386  158.8990  130.2104 H   0  0  0  0  0  0  0  0  0  0  0  0
  139.9872  157.0328  131.8350 H   0  0  0  0  0  0  0  0  0  0  0  0
  1  2  1  0
  2  3  1  0
  2  4  1  0
  4  5  2  0
  4  6  1  0
  6  7  1  0
  7  8  1  0
  8  9  2  0
  8 10  1  0
  6 11  1  0
 11 12  2  0
 11 13  1  0
 13 14  1  0
 14 15  1  0
 15 16  1  0
 15 17  2  0
 14 18  2  0
 18 19  1  0
 19 20  2  0
 20 21  1  0
 21 22  2  0
 22 23  1  0
 23 24  1  0
 22 25  1  0
 25 26  2  0
 26 13  1  0
 26 19  1  0
  1 27  1  0
  1 28  1  0
  1 29  1  0
  2 30  1  0
  3 31  1  0
  3 32  1  0
  3 33  1  0
  7 34  1  0
  7 35  1  0
 16 36  1  0
 18 37  1  0
 20 38  1  0
 21 39  1  0
 23 40  1  0
 23 41  1  0
 25 42  1  0
M  CHG  3   2   1  10  -1  16  -1
M  END
>  <UniqueID>  (77) 
76

>  <SMILES>  (77) 
C[NH+](C)C(=O)N(CC(=O)[O-])C(=O)n1c(C([NH-])=O)cc2ccc(CCl)cc21

>  <Energy>  (77) 
86.03260005987629

>  <Genealogy>  (77) 
C[NH+](C)C(=O)N(CC(=O)[O-])C(=O)n1c(C([NH-])=O)cc2ccc(CCl)cc21 (protonated)
C[NH+](C)C(=O)N(CC(=O)[O-])C(=O)n1c(C([NH-])=O)cc2ccc(CCl)cc21 (3D coordinates assigned)
C[NH+](C)C(=O)N(CC(=O)[O-])C(=O)n1c(C([NH-])=O)cc2ccc(CCl)cc21 (optimized conformer: 86.03260005987629 kcal/mol)

>  <smiles>  (77) 
CN(C)C(=O)N(CC(=O)O)C(=O)n1c(C(N)=O)cc2ccc(CCl)cc21

>  <score_type>  (77) 
oracle

>  <origin>  (77) 
adg

>  <m_score__min__energy>  (77) 
-6.3499999999999996

>  <m_primary>  (77) 
energy

$$$$
80:0
     RDKit          3D

 37 38  0  0  0  0  0  0  0  0999 V2000
  143.6940  161.7230  133.7200 N   0  0  0  0  0  0  0  0  0  0  0  0
  145.0640  161.6270  134.1040 C   0  0  0  0  0  0  0  0  0  0  0  0
  145.5850  162.5600  134.7710 O   0  0  0  0  0  0  0  0  0  0  0  0
  145.8440  160.4220  133.7530 C   0  0  0  0  0  0  0  0  0  0  0  0
  147.2110  160.4410  133.4850 C   0  0  0  0  0  0  0  0  0  0  0  0
  147.5310  159.1520  133.1220 C   0  0  0  0  0  0  0  0  0  0  0  0
  148.7560  158.6020  132.7610 C   0  0  0  0  0  0  0  0  0  0  0  0
  148.7990  157.2310  132.4610 C   0  0  0  0  0  0  0  0  0  0  0  0
  147.6270  156.4340  132.5410 C   0  0  0  0  0  0  0  0  0  0  0  0
  147.6820  155.0300  132.2150 N   0  0  0  0  0  0  0  0  0  0  0  0
  148.4910  154.3140  133.2120 C   0  0  0  0  0  0  0  0  0  0  0  0
  147.6030  153.7300  134.3170 C   0  0  0  0  0  0  0  0  0  0  0  0
  146.3580  153.3570  133.7940 O   0  0  0  0  0  0  0  0  0  0  0  0
  146.3980  157.0340  132.9010 C   0  0  0  0  0  0  0  0  0  0  0  0
  146.3830  158.4050  133.1780 C   0  0  0  0  0  0  0  0  0  0  0  0
  145.3380  159.1700  133.5640 N   0  0  0  0  0  0  0  0  0  0  0  0
  143.9960  158.7210  133.8060 C   0  0  0  0  0  0  0  0  0  0  0  0
  143.3600  159.1500  134.8080 O   0  0  0  0  0  0  0  0  0  0  0  0
  143.3930  157.8230  132.9170 O   0  0  0  0  0  0  0  0  0  0  0  0
  142.8450  156.5700  133.3210 C   0  0  0  0  0  0  0  0  0  0  0  0
  143.9360  155.6020  133.6490 C   0  0  0  0  0  0  0  0  0  0  0  0
  144.2810  155.4150  134.8450 O   0  0  0  0  0  0  0  0  0  0  0  0
  144.5840  154.9120  132.6290 O   0  0  0  0  0  0  0  0  0  0  0  0
  143.1320  160.8660  133.5240 H   0  0  0  0  0  0  0  0  0  0  0  0
  147.8908  161.3033  133.5497 H   0  0  0  0  0  0  0  0  0  0  0  0
  149.6634  159.2219  132.7120 H   0  0  0  0  0  0  0  0  0  0  0  0
  149.7513  156.7695  132.1607 H   0  0  0  0  0  0  0  0  0  0  0  0
  146.7120  154.6360  132.1950 H   0  0  0  0  0  0  0  0  0  0  0  0
  148.1020  154.9060  131.2630 H   0  0  0  0  0  0  0  0  0  0  0  0
  149.0338  153.4960  132.7157 H   0  0  0  0  0  0  0  0  0  0  0  0
  149.1985  155.0231  133.6666 H   0  0  0  0  0  0  0  0  0  0  0  0
  148.0949  152.8458  134.7485 H   0  0  0  0  0  0  0  0  0  0  0  0
  147.4504  154.4933  135.0943 H   0  0  0  0  0  0  0  0  0  0  0  0
  145.7270  154.0920  134.0090 H   0  0  0  0  0  0  0  0  0  0  0  0
  145.4761  156.4369  132.9617 H   0  0  0  0  0  0  0  0  0  0  0  0
  142.2152  156.7203  134.2102 H   0  0  0  0  0  0  0  0  0  0  0  0
  142.2441  156.1619  132.4949 H   0  0  0  0  0  0  0  0  0  0  0  0
  1  2  1  0
  2  3  2  0
  2  4  1  0
  4  5  2  0
  5  6  1  0
  6  7  2  0
  7  8  1  0
  8  9  2  0
  9 10  1  0
 10 11  1  0
 11 12  1  0
 12 13  1  0
  9 14  1  0
 14 15  2  0
 15 16  1  0
 16 17  1  0
 17 18  2  0
 17 19  1  0
 19 20  1  0
 20 21  1  0
 21 22  2  0
 21 23  1  0
 16  4  1  0
 15  6  1  0
  1 24  1  0
  5 25  1  0
  7 26  1  0
  8 27  1  0
 10 28  1  0
 10 29  1  0
 11 30  1  0
 11 31  1  0
 12 32  1  0
 12 33  1  0
 13 34  1  0
 14 35  1  0
 20 36  1  0
 20 37  1  0
M  CHG  3   1  -1  10   1  23  -1
M  END
>  <UniqueID>  (78) 
77

>  <SMILES>  (78) 
[NH-]C(=O)c1cc2ccc([NH2+]CCO)cc2n1C(=O)OCC(=O)[O-]

>  <Energy>  (78) 
71.76150312319372

>  <Genealogy>  (78) 
[NH-]C(=O)c1cc2ccc([NH2+]CCO)cc2n1C(=O)OCC(=O)[O-] (protonated)
[NH-]C(=O)c1cc2ccc([NH2+]CCO)cc2n1C(=O)OCC(=O)[O-] (3D coordinates assigned)
[NH-]C(=O)c1cc2ccc([NH2+]CCO)cc2n1C(=O)OCC(=O)[O-] (optimized conformer: 71.76150312319372 kcal/mol)

>  <smiles>  (78) 
NC(=O)c1cc2ccc(NCCO)cc2n1C(=O)OCC(=O)O

>  <score_type>  (78) 
oracle

>  <origin>  (78) 
adg

>  <m_score__min__energy>  (78) 
-5.4299999999999997

>  <m_primary>  (78) 
energy

$$$$
81:0
     RDKit          3D

 42 43  0  0  0  0  0  0  0  0999 V2000
  149.7050  153.0120  131.7710 N   0  0  0  0  0  0  0  0  0  0  0  0
  148.6800  153.4190  132.6730 C   0  0  0  0  0  0  0  0  0  0  0  0
  148.0720  152.5500  133.3510 O   0  0  0  0  0  0  0  0  0  0  0  0
  148.3150  154.8460  132.7810 C   0  0  0  0  0  0  0  0  0  0  0  0
  149.2220  155.8920  132.6300 C   0  0  0  0  0  0  0  0  0  0  0  0
  148.4700  157.0430  132.7140 C   0  0  0  0  0  0  0  0  0  0  0  0
  148.8570  158.3770  132.6390 C   0  0  0  0  0  0  0  0  0  0  0  0
  147.8620  159.3610  132.7760 C   0  0  0  0  0  0  0  0  0  0  0  0
  146.5040  158.9980  132.9890 C   0  0  0  0  0  0  0  0  0  0  0  0
  145.4690  159.9910  133.1290 N   0  0  0  0  0  0  0  0  0  0  0  0
  144.1110  159.6770  133.5820 C   0  0  0  0  0  0  0  0  0  0  0  0
  143.3210  160.9320  133.7870 C   0  0  0  0  0  0  0  0  0  0  0  0
  143.8830  162.0570  133.7110 O   0  0  0  0  0  0  0  0  0  0  0  0
  141.9720  160.8560  134.1110 O   0  0  0  0  0  0  0  0  0  0  0  0
  146.1560  157.6310  133.0660 C   0  0  0  0  0  0  0  0  0  0  0  0
  147.1660  156.6750  132.9140 C   0  0  0  0  0  0  0  0  0  0  0  0
  147.0540  155.3320  132.9670 N   0  0  0  0  0  0  0  0  0  0  0  0
  145.8480  154.5990  133.2370 C   0  0  0  0  0  0  0  0  0  0  0  0
  144.9700  154.4970  132.3370 O   0  0  0  0  0  0  0  0  0  0  0  0
  145.5840  153.9840  134.5820 C   0  0  0  0  0  0  0  0  0  0  0  0
  146.3580  154.6540  135.6190 N   0  0  0  0  0  0  0  0  0  0  0  0
  147.1480  153.9900  136.6140 C   0  0  0  0  0  0  0  0  0  0  0  0
  146.6950  152.9380  137.1370 O   0  0  0  0  0  0  0  0  0  0  0  0
  148.4680  154.5500  137.0920 C   0  0  0  0  0  0  0  0  0  0  0  0
  149.0180  153.8010  138.3140 C   0  0  0  0  0  0  0  0  0  0  0  0
  148.6910  154.5150  139.5920 C   0  0  0  0  0  0  0  0  0  0  0  0
  149.5950  155.1140  140.2330 O   0  0  0  0  0  0  0  0  0  0  0  0
  147.4000  154.4720  140.1020 O   0  0  0  0  0  0  0  0  0  0  0  0
  150.6620  153.4240  131.8270 H   0  0  0  0  0  0  0  0  0  0  0  0
  150.3085  155.8153  132.4763 H   0  0  0  0  0  0  0  0  0  0  0  0
  149.9093  158.6537  132.4775 H   0  0  0  0  0  0  0  0  0  0  0  0
  148.1376  160.4243  132.7177 H   0  0  0  0  0  0  0  0  0  0  0  0
  145.7090  160.9840  132.9080 H   0  0  0  0  0  0  0  0  0  0  0  0
  143.6118  159.0552  132.8243 H   0  0  0  0  0  0  0  0  0  0  0  0
  144.1720  159.1360  134.5378 H   0  0  0  0  0  0  0  0  0  0  0  0
  145.1141  157.3251  133.2415 H   0  0  0  0  0  0  0  0  0  0  0  0
  144.5130  154.0749  134.8160 H   0  0  0  0  0  0  0  0  0  0  0  0
  145.8807  152.9252  134.5496 H   0  0  0  0  0  0  0  0  0  0  0  0
  149.1996  154.4751  136.2740 H   0  0  0  0  0  0  0  0  0  0  0  0
  148.2987  155.5953  137.3898 H   0  0  0  0  0  0  0  0  0  0  0  0
  148.5760  152.7941  138.3443 H   0  0  0  0  0  0  0  0  0  0  0  0
  150.1127  153.7466  138.2204 H   0  0  0  0  0  0  0  0  0  0  0  0
  1  2  1  0
  2  3  2  0
  2  4  1  0
  4  5  2  0
  5  6  1  0
  6  7  2  0
  7  8  1  0
  8  9  2  0
  9 10  1  0
 10 11  1  0
 11 12  1  0
 12 13  2  0
 12 14  1  0
  9 15  1  0
 15 16  2  0
 16 17  1  0
 17 18  1  0
 18 19  2  0
 18 20  1  0
 20 21  1  0
 21 22  1  0
 22 23  2  0
 22 24  1  0
 24 25  1  0
 25 26  1  0
 26 27  2  0
 26 28  1  0
 17  4  1  0
 16  6  1  0
  1 29  1  0
  5 30  1  0
  7 31  1  0
  8 32  1  0
 10 33  1  0
 11 34  1  0
 11 35  1  0
 15 36  1  0
 20 37  1  0
 20 38  1  0
 24 39  1  0
 24 40  1  0
 25 41  1  0
 25 42  1  0
M  CHG  4   1  -1  14  -1  21  -1  28  -1
M  END
>  <UniqueID>  (79) 
78

>  <SMILES>  (79) 
[NH-]C(=O)c1cc2ccc(NCC(=O)[O-])cc2n1C(=O)C[N-]C(=O)CCC(=O)[O-]

>  <Energy>  (79) 
76.49248796927317

>  <Genealogy>  (79) 
[NH-]C(=O)c1cc2ccc(NCC(=O)[O-])cc2n1C(=O)C[N-]C(=O)CCC(=O)[O-] (protonated)
[NH-]C(=O)c1cc2ccc(NCC(=O)[O-])cc2n1C(=O)C[N-]C(=O)CCC(=O)[O-] (3D coordinates assigned)
[NH-]C(=O)c1cc2ccc(NCC(=O)[O-])cc2n1C(=O)C[N-]C(=O)CCC(=O)[O-] (optimized conformer: 76.49248796927317 kcal/mol)

>  <smiles>  (79) 
NC(=O)c1cc2ccc(NCC(=O)O)cc2n1C(=O)CNC(=O)CCC(=O)O

>  <score_type>  (79) 
oracle

>  <origin>  (79) 
adg

>  <m_score__min__energy>  (79) 
-7.5800000000000001

>  <m_primary>  (79) 
energy

$$$$
82:0
     RDKit          3D

 44 45  0  0  0  0  0  0  0  0999 V2000
  149.9760  150.7570  130.6720 C   0  0  0  0  0  0  0  0  0  0  0  0
  149.0770  151.2550  131.7280 N   0  0  0  0  0  0  0  0  0  0  0  0
  148.6080  150.1240  132.5440 C   0  0  0  0  0  0  0  0  0  0  0  0
  149.7520  152.2540  132.5840 C   0  0  0  0  0  0  0  0  0  0  0  0
  148.7590  153.2790  133.1700 C   0  0  0  0  0  0  0  0  0  0  0  0
  147.3590  153.0070  132.7940 N   0  0  0  0  0  0  0  0  0  0  0  0
  146.5120  154.1650  132.9600 C   0  0  0  0  0  0  0  0  0  0  0  0
  145.0990  154.0200  132.9760 C   0  0  0  0  0  0  0  0  0  0  0  0
  144.2630  155.1370  133.1270 C   0  0  0  0  0  0  0  0  0  0  0  0
  144.8610  156.3870  133.2530 C   0  0  0  0  0  0  0  0  0  0  0  0
  144.2890  157.6350  133.3630 C   0  0  0  0  0  0  0  0  0  0  0  0
  145.3590  158.5280  133.4100 C   0  0  0  0  0  0  0  0  0  0  0  0
  145.2060  159.9890  133.5630 C   0  0  0  0  0  0  0  0  0  0  0  0
  146.3580  160.8100  133.7360 N   0  0  0  0  0  0  0  0  0  0  0  0
  144.0670  160.5250  133.5220 O   0  0  0  0  0  0  0  0  0  0  0  0
  146.5420  157.8560  133.3370 N   0  0  0  0  0  0  0  0  0  0  0  0
  147.8620  158.4170  133.2730 C   0  0  0  0  0  0  0  0  0  0  0  0
  148.5060  158.6090  134.3410 O   0  0  0  0  0  0  0  0  0  0  0  0
  148.4600  158.7490  131.9670 C   0  0  0  0  0  0  0  0  0  0  0  0
  148.8110  159.9970  131.6390 C   0  0  0  0  0  0  0  0  0  0  0  0
  149.4290  160.3200  130.3440 C   0  0  0  0  0  0  0  0  0  0  0  0
  149.7980  159.3890  129.5820 O   0  0  0  0  0  0  0  0  0  0  0  0
  149.6050  161.6390  129.9420 O   0  0  0  0  0  0  0  0  0  0  0  0
  146.2220  156.5480  133.2400 C   0  0  0  0  0  0  0  0  0  0  0  0
  147.0810  155.4550  133.0850 C   0  0  0  0  0  0  0  0  0  0  0  0
  150.8498  150.2729  131.1325 H   0  0  0  0  0  0  0  0  0  0  0  0
  149.4394  150.0275  130.0476 H   0  0  0  0  0  0  0  0  0  0  0  0
  150.3098  151.5988  130.0476 H   0  0  0  0  0  0  0  0  0  0  0  0
  148.7114  150.3734  133.6103 H   0  0  0  0  0  0  0  0  0  0  0  0
  147.5513  149.9205  132.3159 H   0  0  0  0  0  0  0  0  0  0  0  0
  149.2106  149.2325  132.3159 H   0  0  0  0  0  0  0  0  0  0  0  0
  150.2529  151.7314  133.4122 H   0  0  0  0  0  0  0  0  0  0  0  0
  150.4763  152.8003  131.9619 H   0  0  0  0  0  0  0  0  0  0  0  0
  148.8380  153.2556  134.2669 H   0  0  0  0  0  0  0  0  0  0  0  0
  149.0238  154.2646  132.7595 H   0  0  0  0  0  0  0  0  0  0  0  0
  147.3180  152.6490  131.8100 H   0  0  0  0  0  0  0  0  0  0  0  0
  146.9930  152.2450  133.4100 H   0  0  0  0  0  0  0  0  0  0  0  0
  144.6545  153.0196  132.8687 H   0  0  0  0  0  0  0  0  0  0  0  0
  143.1686  155.0277  133.1452 H   0  0  0  0  0  0  0  0  0  0  0  0
  143.2165  157.8760  133.4049 H   0  0  0  0  0  0  0  0  0  0  0  0
  147.2570  160.4070  134.0840 H   0  0  0  0  0  0  0  0  0  0  0  0
  148.6231  157.9423  131.2372 H   0  0  0  0  0  0  0  0  0  0  0  0
  148.6319  160.8077  132.3606 H   0  0  0  0  0  0  0  0  0  0  0  0
  148.1718  155.5945  133.0609 H   0  0  0  0  0  0  0  0  0  0  0  0
  1  2  1  0
  2  3  1  0
  2  4  1  0
  4  5  1  0
  5  6  1  0
  6  7  1  0
  7  8  2  0
  8  9  1  0
  9 10  2  0
 10 11  1  0
 11 12  2  0
 12 13  1  0
 13 14  1  0
 13 15  2  0
 12 16  1  0
 16 17  1  0
 17 18  2  0
 17 19  1  0
 19 20  2  3
 20 21  1  0
 21 22  2  0
 21 23  1  0
 16 24  1  0
 24 25  2  0
 25  7  1  0
 24 10  1  0
  1 26  1  0
  1 27  1  0
  1 28  1  0
  3 29  1  0
  3 30  1  0
  3 31  1  0
  4 32  1  0
  4 33  1  0
  5 34  1  0
  5 35  1  0
  6 36  1  0
  6 37  1  0
  8 38  1  0
  9 39  1  0
 11 40  1  0
 14 41  1  0
 19 42  1  0
 20 43  1  0
 25 44  1  0
M  CHG  3   6   1  14  -1  23  -1
M  END
>  <UniqueID>  (80) 
79

>  <SMILES>  (80) 
CN(C)CC[NH2+]c1ccc2cc(C([NH-])=O)n(C(=O)C=CC(=O)[O-])c2c1

>  <Energy>  (80) 
80.30531769035278

>  <Genealogy>  (80) 
CN(C)CC[NH2+]c1ccc2cc(C([NH-])=O)n(C(=O)C=CC(=O)[O-])c2c1 (protonated)
CN(C)CC[NH2+]c1ccc2cc(C([NH-])=O)n(C(=O)C=CC(=O)[O-])c2c1 (3D coordinates assigned)
CN(C)CC[NH2+]c1ccc2cc(C([NH-])=O)n(C(=O)C=CC(=O)[O-])c2c1 (optimized conformer: 80.30531769035278 kcal/mol)

>  <smiles>  (80) 
CN(C)CCNc1ccc2cc(C(N)=O)n(C(=O)C=CC(=O)O)c2c1

>  <score_type>  (80) 
oracle

>  <origin>  (80) 
adg

>  <m_score__min__energy>  (80) 
-7.5800000000000001

>  <m_primary>  (80) 
energy

$$$$
83:0
     RDKit          3D

 35 37  0  0  0  0  0  0  0  0999 V2000
  138.3580  158.0360  131.3470 N   0  0  0  0  0  0  0  0  0  0  0  0
  139.5690  158.6340  131.8140 C   0  0  0  0  0  0  0  0  0  0  0  0
  140.2510  159.3340  131.0200 O   0  0  0  0  0  0  0  0  0  0  0  0
  140.0350  158.4210  133.2040 C   0  0  0  0  0  0  0  0  0  0  0  0
  140.4020  159.4460  134.0780 C   0  0  0  0  0  0  0  0  0  0  0  0
  140.7010  158.8220  135.2670 C   0  0  0  0  0  0  0  0  0  0  0  0
  141.1190  159.3610  136.4800 C   0  0  0  0  0  0  0  0  0  0  0  0
  141.3700  158.4750  137.5420 C   0  0  0  0  0  0  0  0  0  0  0  0
  141.2300  157.0740  137.3690 C   0  0  0  0  0  0  0  0  0  0  0  0
  141.4600  156.1380  138.5280 C   0  0  0  0  0  0  0  0  0  0  0  0
  142.0080  156.8160  139.6020 F   0  0  0  0  0  0  0  0  0  0  0  0
  142.3290  155.1210  138.1700 F   0  0  0  0  0  0  0  0  0  0  0  0
  140.2530  155.5850  138.9120 F   0  0  0  0  0  0  0  0  0  0  0  0
  140.7850  156.5690  136.1250 C   0  0  0  0  0  0  0  0  0  0  0  0
  140.5180  157.4760  135.0930 C   0  0  0  0  0  0  0  0  0  0  0  0
  140.1000  157.2150  133.8350 N   0  0  0  0  0  0  0  0  0  0  0  0
  139.8360  155.9210  133.2710 C   0  0  0  0  0  0  0  0  0  0  0  0
  138.7350  155.7010  132.6980 O   0  0  0  0  0  0  0  0  0  0  0  0
  140.8360  154.8470  133.3680 C   0  0  0  0  0  0  0  0  0  0  0  0
  142.2030  155.0150  133.4950 C   0  0  0  0  0  0  0  0  0  0  0  0
  142.7310  153.7430  133.5660 C   0  0  0  0  0  0  0  0  0  0  0  0
  141.6530  152.8840  133.4710 C   0  0  0  0  0  0  0  0  0  0  0  0
  141.7100  151.3940  133.5350 C   0  0  0  0  0  0  0  0  0  0  0  0
  140.6130  150.7080  132.3140 Cl  0  0  0  0  0  0  0  0  0  0  0  0
  140.5390  153.5680  133.3530 O   0  0  0  0  0  0  0  0  0  0  0  0
  137.7300  157.5050  131.9870 H   0  0  0  0  0  0  0  0  0  0  0  0
  138.0620  158.1640  130.3540 H   0  0  0  0  0  0  0  0  0  0  0  0
  140.4433  160.5238  133.8618 H   0  0  0  0  0  0  0  0  0  0  0  0
  141.2489  160.4463  136.6038 H   0  0  0  0  0  0  0  0  0  0  0  0
  141.6789  158.8732  138.5198 H   0  0  0  0  0  0  0  0  0  0  0  0
  140.6518  155.4879  135.9721 H   0  0  0  0  0  0  0  0  0  0  0  0
  142.7546  155.9660  133.5317 H   0  0  0  0  0  0  0  0  0  0  0  0
  143.7907  153.4691  133.6755 H   0  0  0  0  0  0  0  0  0  0  0  0
  142.7380  151.0571  133.3355 H   0  0  0  0  0  0  0  0  0  0  0  0
  141.4026  151.0571  134.5360 H   0  0  0  0  0  0  0  0  0  0  0  0
  1  2  1  0
  2  3  2  0
  2  4  1  0
  4  5  2  0
  5  6  1  0
  6  7  2  0
  7  8  1  0
  8  9  2  0
  9 10  1  0
 10 11  1  0
 10 12  1  0
 10 13  1  0
  9 14  1  0
 14 15  2  0
 15 16  1  0
 16 17  1  0
 17 18  2  0
 17 19  1  0
 19 20  2  0
 20 21  1  0
 21 22  2  0
 22 23  1  0
 23 24  1  0
 22 25  1  0
 16  4  1  0
 25 19  1  0
 15  6  1  0
  1 26  1  0
  1 27  1  0
  5 28  1  0
  7 29  1  0
  8 30  1  0
 14 31  1  0
 20 32  1  0
 21 33  1  0
 23 34  1  0
 23 35  1  0
M  END
>  <UniqueID>  (81) 
80

>  <SMILES>  (81) 
NC(=O)c1cc2ccc(C(F)(F)F)cc2n1C(=O)c1ccc(CCl)o1

>  <Energy>  (81) 
100.19295432568705

>  <Genealogy>  (81) 
NC(=O)c1cc2ccc(C(F)(F)F)cc2n1C(=O)c1ccc(CCl)o1 (3D coordinates assigned)
NC(=O)c1cc2ccc(C(F)(F)F)cc2n1C(=O)c1ccc(CCl)o1 (optimized conformer: 100.19295432568705 kcal/mol)

>  <smiles>  (81) 
NC(=O)c1cc2ccc(C(F)(F)F)cc2n1C(=O)c1ccc(CCl)o1

>  <score_type>  (81) 
oracle

>  <origin>  (81) 
adg

>  <m_score__min__energy>  (81) 
-7.3099999999999996

>  <m_primary>  (81) 
energy

$$$$
84:0
     RDKit          3D

 50 51  0  0  0  0  0  0  0  0999 V2000
  143.7290  158.5620  133.6790 C   0  0  0  0  0  0  0  0  0  0  0  0
  142.3640  158.8570  133.8860 O   0  0  0  0  0  0  0  0  0  0  0  0
  141.5850  158.3610  132.8150 C   0  0  0  0  0  0  0  0  0  0  0  0
  140.4260  159.3150  132.5160 C   0  0  0  0  0  0  0  0  0  0  0  0
  139.1370  158.6520  132.7520 N   0  0  0  0  0  0  0  0  0  0  0  0
  138.0130  158.8780  131.8410 C   0  0  0  0  0  0  0  0  0  0  0  0
  138.9700  157.7770  133.8820 C   0  0  0  0  0  0  0  0  0  0  0  0
  139.0110  158.2450  135.0530 O   0  0  0  0  0  0  0  0  0  0  0  0
  138.7630  156.4070  133.6780 O   0  0  0  0  0  0  0  0  0  0  0  0
  139.5760  155.5920  132.8350 C   0  0  0  0  0  0  0  0  0  0  0  0
  140.7610  155.0040  133.6060 C   0  0  0  0  0  0  0  0  0  0  0  0
  141.1700  155.8740  134.7040 N   0  0  0  0  0  0  0  0  0  0  0  0
  142.0780  155.4900  135.7400 C   0  0  0  0  0  0  0  0  0  0  0  0
  143.2460  155.1170  135.4460 O   0  0  0  0  0  0  0  0  0  0  0  0
  141.6900  155.5890  137.1230 N   0  0  0  0  0  0  0  0  0  0  0  0
  141.4890  156.7130  137.8720 C   0  0  0  0  0  0  0  0  0  0  0  0
  141.6750  158.1130  137.4270 C   0  0  0  0  0  0  0  0  0  0  0  0
  141.3740  158.4930  136.0830 N   0  0  0  0  0  0  0  0  0  0  0  0
  142.0720  158.9940  138.2330 O   0  0  0  0  0  0  0  0  0  0  0  0
  141.0010  156.3730  139.1340 C   0  0  0  0  0  0  0  0  0  0  0  0
  140.9100  155.0020  139.1370 C   0  0  0  0  0  0  0  0  0  0  0  0
  140.4740  154.1360  140.1350 C   0  0  0  0  0  0  0  0  0  0  0  0
  140.4810  152.7580  139.8610 C   0  0  0  0  0  0  0  0  0  0  0  0
  140.9420  152.2680  138.6110 C   0  0  0  0  0  0  0  0  0  0  0  0
  140.9050  150.7910  138.3140 C   0  0  0  0  0  0  0  0  0  0  0  0
  141.9830  150.1790  138.9250 F   0  0  0  0  0  0  0  0  0  0  0  0
  139.7350  150.2260  138.7920 F   0  0  0  0  0  0  0  0  0  0  0  0
  140.9700  150.5650  136.9510 F   0  0  0  0  0  0  0  0  0  0  0  0
  141.3550  153.1840  137.6150 C   0  0  0  0  0  0  0  0  0  0  0  0
  141.3270  154.5530  137.9120 C   0  0  0  0  0  0  0  0  0  0  0  0
  144.2322  158.4533  134.6511 H   0  0  0  0  0  0  0  0  0  0  0  0
  143.8195  157.6236  133.1123 H   0  0  0  0  0  0  0  0  0  0  0  0
  144.1989  159.3793  133.1123 H   0  0  0  0  0  0  0  0  0  0  0  0
  142.2172  158.2660  131.9198 H   0  0  0  0  0  0  0  0  0  0  0  0
  141.1772  157.3782  133.0938 H   0  0  0  0  0  0  0  0  0  0  0  0
  140.5047  160.1957  133.1703 H   0  0  0  0  0  0  0  0  0  0  0  0
  140.4803  159.6193  131.4603 H   0  0  0  0  0  0  0  0  0  0  0  0
  137.0990  159.0618  132.4249 H   0  0  0  0  0  0  0  0  0  0  0  0
  138.2249  159.7515  131.2069 H   0  0  0  0  0  0  0  0  0  0  0  0
  137.8708  157.9905  131.2069 H   0  0  0  0  0  0  0  0  0  0  0  0
  138.9653  154.7694  132.4345 H   0  0  0  0  0  0  0  0  0  0  0  0
  139.9680  156.2179  132.0197 H   0  0  0  0  0  0  0  0  0  0  0  0
  140.4709  154.0249  134.0149 H   0  0  0  0  0  0  0  0  0  0  0  0
  141.6083  154.9032  132.9118 H   0  0  0  0  0  0  0  0  0  0  0  0
  141.1000  157.7840  135.3680 H   0  0  0  0  0  0  0  0  0  0  0  0
  141.4700  159.4890  135.7870 H   0  0  0  0  0  0  0  0  0  0  0  0
  140.7432  157.0587  139.9546 H   0  0  0  0  0  0  0  0  0  0  0  0
  140.1342  154.5186  141.1087 H   0  0  0  0  0  0  0  0  0  0  0  0
  140.1250  152.0504  140.6242 H   0  0  0  0  0  0  0  0  0  0  0  0
  141.6906  152.8293  136.6293 H   0  0  0  0  0  0  0  0  0  0  0  0
  1  2  1  0
  2  3  1  0
  3  4  1  0
  4  5  1  0
  5  6  1  0
  5  7  1  0
  7  8  2  0
  7  9  1  0
  9 10  1  0
 10 11  1  0
 11 12  1  0
 12 13  1  0
 13 14  2  0
 13 15  1  0
 15 16  1  0
 16 17  1  0
 17 18  1  0
 17 19  2  0
 16 20  2  0
 20 21  1  0
 21 22  2  0
 22 23  1  0
 23 24  2  0
 24 25  1  0
 25 26  1  0
 25 27  1  0
 25 28  1  0
 24 29  1  0
 29 30  2  0
 30 15  1  0
 30 21  1  0
  1 31  1  0
  1 32  1  0
  1 33  1  0
  3 34  1  0
  3 35  1  0
  4 36  1  0
  4 37  1  0
  6 38  1  0
  6 39  1  0
  6 40  1  0
 10 41  1  0
 10 42  1  0
 11 43  1  0
 11 44  1  0
 18 45  1  0
 18 46  1  0
 20 47  1  0
 22 48  1  0
 23 49  1  0
 29 50  1  0
M  CHG  1  12  -1
M  END
>  <UniqueID>  (82) 
81

>  <SMILES>  (82) 
COCCN(C)C(=O)OCC[N-]C(=O)n1c(C(N)=O)cc2ccc(C(F)(F)F)cc21

>  <Energy>  (82) 
83.54841060823702

>  <Genealogy>  (82) 
COCCN(C)C(=O)OCC[N-]C(=O)n1c(C(N)=O)cc2ccc(C(F)(F)F)cc21 (protonated)
COCCN(C)C(=O)OCC[N-]C(=O)n1c(C(N)=O)cc2ccc(C(F)(F)F)cc21 (3D coordinates assigned)
COCCN(C)C(=O)OCC[N-]C(=O)n1c(C(N)=O)cc2ccc(C(F)(F)F)cc21 (optimized conformer: 83.54841060823702 kcal/mol)

>  <smiles>  (82) 
COCCN(C)C(=O)OCCNC(=O)n1c(C(N)=O)cc2ccc(C(F)(F)F)cc21

>  <score_type>  (82) 
oracle

>  <origin>  (82) 
adg

>  <m_score__min__energy>  (82) 
-7.3300000000000001

>  <m_primary>  (82) 
energy

$$$$
85:0
     RDKit          3D

 41 42  0  0  0  0  0  0  0  0999 V2000
  140.5970  151.6600  140.8020 C   0  0  0  0  0  0  0  0  0  0  0  0
  141.3330  151.8540  139.5500 N   0  0  0  0  0  0  0  0  0  0  0  0
  141.5710  150.7110  138.6620 C   0  0  0  0  0  0  0  0  0  0  0  0
  140.4220  150.5450  137.7210 C   0  0  0  0  0  0  0  0  0  0  0  0
  139.2940  150.1890  138.1540 O   0  0  0  0  0  0  0  0  0  0  0  0
  140.6060  150.7430  136.3590 O   0  0  0  0  0  0  0  0  0  0  0  0
  141.9690  153.1210  139.3000 C   0  0  0  0  0  0  0  0  0  0  0  0
  143.1730  153.2900  139.6390 O   0  0  0  0  0  0  0  0  0  0  0  0
  141.2510  154.2040  138.6780 N   0  0  0  0  0  0  0  0  0  0  0  0
  139.8360  154.3940  139.0030 C   0  0  0  0  0  0  0  0  0  0  0  0
  141.8390  154.9650  137.5990 C   0  0  0  0  0  0  0  0  0  0  0  0
  142.6880  154.4270  136.8390 O   0  0  0  0  0  0  0  0  0  0  0  0
  141.5050  156.3500  137.4020 N   0  0  0  0  0  0  0  0  0  0  0  0
  141.5950  157.3740  138.2990 C   0  0  0  0  0  0  0  0  0  0  0  0
  142.1210  157.2860  139.6790 C   0  0  0  0  0  0  0  0  0  0  0  0
  142.8000  156.1220  140.1420 N   0  0  0  0  0  0  0  0  0  0  0  0
  141.9820  158.2640  140.4610 O   0  0  0  0  0  0  0  0  0  0  0  0
  141.1500  158.5630  137.7220 C   0  0  0  0  0  0  0  0  0  0  0  0
  140.7680  158.2300  136.4430 C   0  0  0  0  0  0  0  0  0  0  0  0
  140.2370  159.0240  135.4300 C   0  0  0  0  0  0  0  0  0  0  0  0
  139.9110  158.4040  134.2110 C   0  0  0  0  0  0  0  0  0  0  0  0
  140.1080  157.0120  134.0330 C   0  0  0  0  0  0  0  0  0  0  0  0
  139.7470  156.3690  132.7250 C   0  0  0  0  0  0  0  0  0  0  0  0
  139.0630  157.2740  131.9330 F   0  0  0  0  0  0  0  0  0  0  0  0
  138.9450  155.2670  132.9550 F   0  0  0  0  0  0  0  0  0  0  0  0
  140.6440  156.2390  135.0860 C   0  0  0  0  0  0  0  0  0  0  0  0
  140.9820  156.8880  136.2790 C   0  0  0  0  0  0  0  0  0  0  0  0
  141.2697  151.8373  141.6540 H   0  0  0  0  0  0  0  0  0  0  0  0
  139.7554  152.3670  140.8459 H   0  0  0  0  0  0  0  0  0  0  0  0
  140.2133  150.6300  140.8459 H   0  0  0  0  0  0  0  0  0  0  0  0
  142.4917  150.8836  138.0854 H   0  0  0  0  0  0  0  0  0  0  0  0
  141.6750  149.7991  139.2683 H   0  0  0  0  0  0  0  0  0  0  0  0
  139.7098  154.4109  140.0956 H   0  0  0  0  0  0  0  0  0  0  0  0
  139.4871  155.3471  138.5788 H   0  0  0  0  0  0  0  0  0  0  0  0
  139.2481  153.5667  138.5788 H   0  0  0  0  0  0  0  0  0  0  0  0
  143.2440  155.4550  139.4720 H   0  0  0  0  0  0  0  0  0  0  0  0
  141.1123  159.5574  138.1907 H   0  0  0  0  0  0  0  0  0  0  0  0
  140.0776  160.1022  135.5787 H   0  0  0  0  0  0  0  0  0  0  0  0
  139.4989  159.0054  133.3873 H   0  0  0  0  0  0  0  0  0  0  0  0
  140.6676  156.0544  132.2118 H   0  0  0  0  0  0  0  0  0  0  0  0
  140.7920  155.1550  134.9717 H   0  0  0  0  0  0  0  0  0  0  0  0
  1  2  1  0
  2  3  1  0
  3  4  1  0
  4  5  2  0
  4  6  1  0
  2  7  1  0
  7  8  2  0
  7  9  1  0
  9 10  1  0
  9 11  1  0
 11 12  2  0
 11 13  1  0
 13 14  1  0
 14 15  1  0
 15 16  1  0
 15 17  2  0
 14 18  2  0
 18 19  1  0
 19 20  2  0
 20 21  1  0
 21 22  2  0
 22 23  1  0
 23 24  1  0
 23 25  1  0
 22 26  1  0
 26 27  2  0
 27 13  1  0
 27 19  1  0
  1 28  1  0
  1 29  1  0
  1 30  1  0
  3 31  1  0
  3 32  1  0
 10 33  1  0
 10 34  1  0
 10 35  1  0
 16 36  1  0
 18 37  1  0
 20 38  1  0
 21 39  1  0
 23 40  1  0
 26 41  1  0
M  CHG  2   6  -1  16  -1
M  END
>  <UniqueID>  (83) 
82

>  <SMILES>  (83) 
CN(CC(=O)[O-])C(=O)N(C)C(=O)n1c(C([NH-])=O)cc2ccc(C(F)F)cc21

>  <Energy>  (83) 
79.47587471293085

>  <Genealogy>  (83) 
CN(CC(=O)[O-])C(=O)N(C)C(=O)n1c(C([NH-])=O)cc2ccc(C(F)F)cc21 (protonated)
CN(CC(=O)[O-])C(=O)N(C)C(=O)n1c(C([NH-])=O)cc2ccc(C(F)F)cc21 (3D coordinates assigned)
CN(CC(=O)[O-])C(=O)N(C)C(=O)n1c(C([NH-])=O)cc2ccc(C(F)F)cc21 (optimized conformer: 79.47587471293085 kcal/mol)

>  <smiles>  (83) 
CN(CC(=O)O)C(=O)N(C)C(=O)n1c(C(N)=O)cc2ccc(C(F)F)cc21

>  <score_type>  (83) 
oracle

>  <origin>  (83) 
adg

>  <m_score__min__energy>  (83) 
-6.4199999999999999

>  <m_primary>  (83) 
energy

$$$$
86:0
     RDKit          3D

 40 41  0  0  0  0  0  0  0  0999 V2000
  144.6010  154.0150  132.3680 C   0  0  0  0  0  0  0  0  0  0  0  0
  144.0190  154.9150  133.4530 C   0  0  1  0  0  0  0  0  0  0  0  0
  142.7120  155.3350  133.0610 O   0  0  0  0  0  0  0  0  0  0  0  0
  142.3000  156.6730  133.0610 C   0  0  0  0  0  0  0  0  0  0  0  0
  142.7820  157.4870  132.2270 O   0  0  0  0  0  0  0  0  0  0  0  0
  141.3000  157.1130  133.9940 N   0  0  0  0  0  0  0  0  0  0  0  0
  140.2370  157.9330  133.7540 C   0  0  0  0  0  0  0  0  0  0  0  0
  139.7990  158.4230  132.4310 C   0  0  0  0  0  0  0  0  0  0  0  0
  140.6030  159.3630  131.7210 N   0  0  0  0  0  0  0  0  0  0  0  0
  138.7030  158.0520  131.9360 O   0  0  0  0  0  0  0  0  0  0  0  0
  139.5440  158.1950  134.9340 C   0  0  0  0  0  0  0  0  0  0  0  0
  140.2160  157.5010  135.9140 C   0  0  0  0  0  0  0  0  0  0  0  0
  139.9650  157.4130  137.2790 C   0  0  0  0  0  0  0  0  0  0  0  0
  140.8400  156.6440  138.0620 C   0  0  0  0  0  0  0  0  0  0  0  0
  141.9530  155.9870  137.4730 C   0  0  0  0  0  0  0  0  0  0  0  0
  142.8420  155.1950  138.2890 N   0  0  0  0  0  0  0  0  0  0  0  0
  142.1710  153.9960  138.8220 C   0  0  0  0  0  0  0  0  0  0  0  0
  142.9110  152.6960  138.4810 C   0  0  0  0  0  0  0  0  0  0  0  0
  144.1310  152.9820  137.8550 O   0  0  0  0  0  0  0  0  0  0  0  0
  142.1730  156.1010  136.0810 C   0  0  0  0  0  0  0  0  0  0  0  0
  141.2720  156.8570  135.3220 C   0  0  0  0  0  0  0  0  0  0  0  0
  143.9620  154.1760  134.7590 C   0  0  0  0  0  0  0  0  0  0  0  0
  144.5650  154.6280  135.7680 O   0  0  0  0  0  0  0  0  0  0  0  0
  143.2680  152.9770  134.8540 O   0  0  0  0  0  0  0  0  0  0  0  0
  145.1416  153.1791  132.8360 H   0  0  0  0  0  0  0  0  0  0  0  0
  143.7864  153.6207  131.7427 H   0  0  0  0  0  0  0  0  0  0  0  0
  145.2948  154.5961  131.7427 H   0  0  0  0  0  0  0  0  0  0  0  0
  144.6604  155.7990  133.5835 H   0  0  0  0  0  0  0  0  0  0  0  0
  141.6140  159.1770  131.5410 H   0  0  0  0  0  0  0  0  0  0  0  0
  138.6495  158.8234  135.0563 H   0  0  0  0  0  0  0  0  0  0  0  0
  139.1063  157.9306  137.7316 H   0  0  0  0  0  0  0  0  0  0  0  0
  140.6619  156.5491  139.1433 H   0  0  0  0  0  0  0  0  0  0  0  0
  143.1670  155.7780  139.0950 H   0  0  0  0  0  0  0  0  0  0  0  0
  143.6960  154.9210  137.7490 H   0  0  0  0  0  0  0  0  0  0  0  0
  142.1073  154.0868  139.9164 H   0  0  0  0  0  0  0  0  0  0  0  0
  141.1757  153.9408  138.3570 H   0  0  0  0  0  0  0  0  0  0  0  0
  143.1011  152.1329  139.4067 H   0  0  0  0  0  0  0  0  0  0  0  0
  142.2893  152.0985  137.7980 H   0  0  0  0  0  0  0  0  0  0  0  0
  143.9310  153.0790  136.8890 H   0  0  0  0  0  0  0  0  0  0  0  0
  143.0328  155.6067  135.6052 H   0  0  0  0  0  0  0  0  0  0  0  0
  1  2  1  0
  2  3  1  0
  3  4  1  0
  4  5  2  0
  4  6  1  0
  6  7  1  0
  7  8  1  0
  8  9  1  0
  8 10  2  0
  7 11  2  0
 11 12  1  0
 12 13  2  0
 13 14  1  0
 14 15  2  0
 15 16  1  0
 16 17  1  0
 17 18  1  0
 18 19  1  0
 15 20  1  0
 20 21  2  0
  2 22  1  0
 22 23  2  0
 22 24  1  0
 21  6  1  0
 21 12  1  0
  1 25  1  0
  1 26  1  0
  1 27  1  0
  2 28  1  1
  9 29  1  0
 11 30  1  0
 13 31  1  0
 14 32  1  0
 16 33  1  0
 16 34  1  0
 17 35  1  0
 17 36  1  0
 18 37  1  0
 18 38  1  0
 19 39  1  0
 20 40  1  0
M  CHG  3   9  -1  16   1  24  -1
M  END
>  <UniqueID>  (84) 
83

>  <SMILES>  (84) 
C[C@@H](OC(=O)n1c(C([NH-])=O)cc2ccc([NH2+]CCO)cc21)C(=O)[O-]

>  <Energy>  (84) 
73.2493350906649

>  <Genealogy>  (84) 
CC(OC(=O)n1c(C([NH-])=O)cc2ccc([NH2+]CCO)cc21)C(=O)[O-] (protonated)
C[C@@H](OC(=O)n1c(C([NH-])=O)cc2ccc([NH2+]CCO)cc21)C(=O)[O-] (chirality)
C[C@@H](OC(=O)n1c(C([NH-])=O)cc2ccc([NH2+]CCO)cc21)C(=O)[O-] (3D coordinates assigned)
C[C@@H](OC(=O)n1c(C([NH-])=O)cc2ccc([NH2+]CCO)cc21)C(=O)[O-] (optimized conformer: 73.2493350906649 kcal/mol)

>  <smiles>  (84) 
CC(OC(=O)n1c(C(N)=O)cc2ccc(NCCO)cc21)C(=O)O

>  <score_type>  (84) 
oracle

>  <origin>  (84) 
adg

>  <m_score__min__energy>  (84) 
-6.1900000000000004

>  <m_primary>  (84) 
energy

$$$$
87:0
     RDKit          3D

 38 39  0  0  0  0  0  0  0  0999 V2000
  149.6070  151.5550  131.4800 C   0  0  0  0  0  0  0  0  0  0  0  0
  149.1260  152.8040  131.9250 O   0  0  0  0  0  0  0  0  0  0  0  0
  148.7960  152.7460  133.3000 C   0  0  0  0  0  0  0  0  0  0  0  0
  147.9460  153.9570  133.6910 C   0  0  0  0  0  0  0  0  0  0  0  0
  147.8200  154.8960  132.5750 N   0  0  0  0  0  0  0  0  0  0  0  0
  147.6950  156.3200  132.7510 C   0  0  0  0  0  0  0  0  0  0  0  0
  148.8080  157.1910  132.6000 C   0  0  0  0  0  0  0  0  0  0  0  0
  148.6630  158.5780  132.7640 C   0  0  0  0  0  0  0  0  0  0  0  0
  147.4030  159.0690  133.0860 C   0  0  0  0  0  0  0  0  0  0  0  0
  146.9800  160.3650  133.2770 C   0  0  0  0  0  0  0  0  0  0  0  0
  145.6210  160.2720  133.5660 C   0  0  0  0  0  0  0  0  0  0  0  0
  144.7840  161.4350  133.9270 C   0  0  0  0  0  0  0  0  0  0  0  0
  143.3710  161.3750  133.7450 N   0  0  0  0  0  0  0  0  0  0  0  0
  145.3040  162.4950  134.3620 O   0  0  0  0  0  0  0  0  0  0  0  0
  145.2170  158.9690  133.5450 N   0  0  0  0  0  0  0  0  0  0  0  0
  143.8900  158.4540  133.7330 C   0  0  0  0  0  0  0  0  0  0  0  0
  143.3270  158.5590  134.8570 O   0  0  0  0  0  0  0  0  0  0  0  0
  143.2160  157.8590  132.6590 O   0  0  0  0  0  0  0  0  0  0  0  0
  141.7970  157.8260  132.5460 C   0  0  0  0  0  0  0  0  0  0  0  0
  141.2220  159.1080  132.9670 C   0  0  0  0  0  0  0  0  0  0  0  0
  140.7690  160.1200  133.2980 N   0  0  0  0  0  0  0  0  0  0  0  0
  146.3210  158.2460  133.2530 C   0  0  0  0  0  0  0  0  0  0  0  0
  146.4310  156.8620  133.0780 C   0  0  0  0  0  0  0  0  0  0  0  0
  149.8496  150.9250  132.3484 H   0  0  0  0  0  0  0  0  0  0  0  0
  148.8351  151.0602  130.8722 H   0  0  0  0  0  0  0  0  0  0  0  0
  150.5114  151.7057  130.8722 H   0  0  0  0  0  0  0  0  0  0  0  0
  148.2291  151.8246  133.4991 H   0  0  0  0  0  0  0  0  0  0  0  0
  149.7230  152.7519  133.8922 H   0  0  0  0  0  0  0  0  0  0  0  0
  146.9437  153.6123  133.9851 H   0  0  0  0  0  0  0  0  0  0  0  0
  148.4387  154.4736  134.5278 H   0  0  0  0  0  0  0  0  0  0  0  0
  147.8190  154.5210  131.5990 H   0  0  0  0  0  0  0  0  0  0  0  0
  149.7949  156.7735  132.3517 H   0  0  0  0  0  0  0  0  0  0  0  0
  149.5207  159.2557  132.6414 H   0  0  0  0  0  0  0  0  0  0  0  0
  147.5870  161.2802  133.2145 H   0  0  0  0  0  0  0  0  0  0  0  0
  142.8520  160.4770  133.8610 H   0  0  0  0  0  0  0  0  0  0  0  0
  141.5209  157.6309  131.4992 H   0  0  0  0  0  0  0  0  0  0  0  0
  141.4053  157.0284  133.1944 H   0  0  0  0  0  0  0  0  0  0  0  0
  145.5527  156.2097  133.1924 H   0  0  0  0  0  0  0  0  0  0  0  0
  1  2  1  0
  2  3  1  0
  3  4  1  0
  4  5  1  0
  5  6  1  0
  6  7  2  0
  7  8  1  0
  8  9  2  0
  9 10  1  0
 10 11  2  0
 11 12  1  0
 12 13  1  0
 12 14  2  0
 11 15  1  0
 15 16  1  0
 16 17  2  0
 16 18  1  0
 18 19  1  0
 19 20  1  0
 20 21  3  0
 15 22  1  0
 22 23  2  0
 23  6  1  0
 22  9  1  0
  1 24  1  0
  1 25  1  0
  1 26  1  0
  3 27  1  0
  3 28  1  0
  4 29  1  0
  4 30  1  0
  5 31  1  0
  7 32  1  0
  8 33  1  0
 10 34  1  0
 13 35  1  0
 19 36  1  0
 19 37  1  0
 23 38  1  0
M  CHG  1  13  -1
M  END
>  <UniqueID>  (85) 
84

>  <SMILES>  (85) 
COCCNc1ccc2cc(C([NH-])=O)n(C(=O)OCC#N)c2c1

>  <Energy>  (85) 
73.83635985734934

>  <Genealogy>  (85) 
COCCNc1ccc2cc(C([NH-])=O)n(C(=O)OCC#N)c2c1 (protonated)
COCCNc1ccc2cc(C([NH-])=O)n(C(=O)OCC#N)c2c1 (3D coordinates assigned)
COCCNc1ccc2cc(C([NH-])=O)n(C(=O)OCC#N)c2c1 (optimized conformer: 73.83635985734934 kcal/mol)

>  <smiles>  (85) 
COCCNc1ccc2cc(C(N)=O)n(C(=O)OCC#N)c2c1

>  <score_type>  (85) 
oracle

>  <origin>  (85) 
adg

>  <m_score__min__energy>  (85) 
-6.1399999999999997

>  <m_primary>  (85) 
energy

$$$$
88:0
     RDKit          3D

 41 42  0  0  0  0  0  0  0  0999 V2000
  138.7170  158.2140  131.6230 C   0  0  0  0  0  0  0  0  0  0  0  0
  139.2770  159.4240  131.7490 C   0  0  0  0  0  0  0  0  0  0  0  0
  138.7720  160.5720  130.9200 C   0  0  0  0  0  0  0  0  0  0  0  0
  140.3440  159.6680  132.7450 C   0  0  0  0  0  0  0  0  0  0  0  0
  140.7500  160.8410  132.9750 O   0  0  0  0  0  0  0  0  0  0  0  0
  140.9050  158.5850  133.4330 O   0  0  0  0  0  0  0  0  0  0  0  0
  141.6450  157.5550  132.7860 C   0  0  0  0  0  0  0  0  0  0  0  0
  143.0010  157.9620  132.6410 O   0  0  0  0  0  0  0  0  0  0  0  0
  143.9050  157.9770  133.7080 C   0  0  0  0  0  0  0  0  0  0  0  0
  143.6040  157.4260  134.8020 O   0  0  0  0  0  0  0  0  0  0  0  0
  145.1850  158.6110  133.5500 N   0  0  0  0  0  0  0  0  0  0  0  0
  145.4570  159.9460  133.6060 C   0  0  0  0  0  0  0  0  0  0  0  0
  144.5020  161.0030  134.0080 C   0  0  0  0  0  0  0  0  0  0  0  0
  143.0970  160.8240  133.8220 N   0  0  0  0  0  0  0  0  0  0  0  0
  144.9250  162.0860  134.4880 O   0  0  0  0  0  0  0  0  0  0  0  0
  146.8010  160.1830  133.3190 C   0  0  0  0  0  0  0  0  0  0  0  0
  147.3470  158.9420  133.0860 C   0  0  0  0  0  0  0  0  0  0  0  0
  148.6490  158.5890  132.7450 C   0  0  0  0  0  0  0  0  0  0  0  0
  148.9310  157.2300  132.5330 C   0  0  0  0  0  0  0  0  0  0  0  0
  147.9090  156.2490  132.6570 C   0  0  0  0  0  0  0  0  0  0  0  0
  148.1750  154.8520  132.4310 N   0  0  0  0  0  0  0  0  0  0  0  0
  148.4950  153.9100  133.4990 C   0  0  0  0  0  0  0  0  0  0  0  0
  146.6000  156.6500  133.0060 C   0  0  0  0  0  0  0  0  0  0  0  0
  146.3530  158.0100  133.2290 C   0  0  0  0  0  0  0  0  0  0  0  0
  139.0844  157.3722  132.2283 H   0  0  0  0  0  0  0  0  0  0  0  0
  137.8896  158.0620  130.9143 H   0  0  0  0  0  0  0  0  0  0  0  0
  138.4186  161.3755  131.5830 H   0  0  0  0  0  0  0  0  0  0  0  0
  139.5861  160.9519  130.2852 H   0  0  0  0  0  0  0  0  0  0  0  0
  137.9418  160.2286  130.2852 H   0  0  0  0  0  0  0  0  0  0  0  0
  141.6007  156.6371  133.3905 H   0  0  0  0  0  0  0  0  0  0  0  0
  141.2127  157.3624  131.7930 H   0  0  0  0  0  0  0  0  0  0  0  0
  142.4350  161.5910  134.0740 H   0  0  0  0  0  0  0  0  0  0  0  0
  142.7060  159.9210  133.4750 H   0  0  0  0  0  0  0  0  0  0  0  0
  147.3149  161.1550  133.2860 H   0  0  0  0  0  0  0  0  0  0  0  0
  149.4345  159.3524  132.6444 H   0  0  0  0  0  0  0  0  0  0  0  0
  149.9530  156.9209  132.2683 H   0  0  0  0  0  0  0  0  0  0  0  0
  148.1390  154.4830  131.4540 H   0  0  0  0  0  0  0  0  0  0  0  0
  148.3313  154.3919  134.4742 H   0  0  0  0  0  0  0  0  0  0  0  0
  147.8470  153.0252  133.4138 H   0  0  0  0  0  0  0  0  0  0  0  0
  149.5478  153.6030  133.4138 H   0  0  0  0  0  0  0  0  0  0  0  0
  145.7921  155.9095  133.1005 H   0  0  0  0  0  0  0  0  0  0  0  0
  1  2  2  0
  2  3  1  0
  2  4  1  0
  4  5  2  0
  4  6  1  0
  6  7  1  0
  7  8  1  0
  8  9  1  0
  9 10  2  0
  9 11  1  0
 11 12  1  0
 12 13  1  0
 13 14  1  0
 13 15  2  0
 12 16  2  0
 16 17  1  0
 17 18  2  0
 18 19  1  0
 19 20  2  0
 20 21  1  0
 21 22  1  0
 20 23  1  0
 23 24  2  0
 24 11  1  0
 24 17  1  0
  1 25  1  0
  1 26  1  0
  3 27  1  0
  3 28  1  0
  3 29  1  0
  7 30  1  0
  7 31  1  0
 14 32  1  0
 14 33  1  0
 16 34  1  0
 18 35  1  0
 19 36  1  0
 21 37  1  0
 22 38  1  0
 22 39  1  0
 22 40  1  0
 23 41  1  0
M  END
>  <UniqueID>  (86) 
85

>  <SMILES>  (86) 
C=C(C)C(=O)OCOC(=O)n1c(C(N)=O)cc2ccc(NC)cc21

>  <Energy>  (86) 
72.84581762166852

>  <Genealogy>  (86) 
C=C(C)C(=O)OCOC(=O)n1c(C(N)=O)cc2ccc(NC)cc21 (3D coordinates assigned)
C=C(C)C(=O)OCOC(=O)n1c(C(N)=O)cc2ccc(NC)cc21 (optimized conformer: 72.84581762166852 kcal/mol)

>  <smiles>  (86) 
C=C(C)C(=O)OCOC(=O)n1c(C(N)=O)cc2ccc(NC)cc21

>  <score_type>  (86) 
oracle

>  <origin>  (86) 
adg

>  <m_score__min__energy>  (86) 
-6.8099999999999996

>  <m_primary>  (86) 
energy

$$$$
89:0
     RDKit          3D

 37 38  0  0  0  0  0  0  0  0999 V2000
  139.4450  158.6080  132.0960 C   0  0  0  0  0  0  0  0  0  0  0  0
  140.3940  157.9300  132.9830 N   0  0  0  0  0  0  0  0  0  0  0  0
  141.8140  157.8450  132.6310 C   0  0  0  0  0  0  0  0  0  0  0  0
  139.9310  157.3850  134.2330 C   0  0  0  0  0  0  0  0  0  0  0  0
  138.7610  157.6280  134.6370 O   0  0  0  0  0  0  0  0  0  0  0  0
  140.7960  156.5830  135.0480 N   0  0  0  0  0  0  0  0  0  0  0  0
  141.2900  156.8720  136.2840 C   0  0  0  0  0  0  0  0  0  0  0  0
  141.0670  158.1270  137.0320 C   0  0  0  0  0  0  0  0  0  0  0  0
  140.2340  159.1570  136.5070 N   0  0  0  0  0  0  0  0  0  0  0  0
  141.6290  158.2980  138.1460 O   0  0  0  0  0  0  0  0  0  0  0  0
  142.0800  155.8190  136.7460 C   0  0  0  0  0  0  0  0  0  0  0  0
  142.0570  154.8760  135.7420 C   0  0  0  0  0  0  0  0  0  0  0  0
  142.6720  153.6310  135.6620 C   0  0  0  0  0  0  0  0  0  0  0  0
  142.4670  152.8680  134.5000 C   0  0  0  0  0  0  0  0  0  0  0  0
  141.6520  153.3560  133.4450 C   0  0  0  0  0  0  0  0  0  0  0  0
  141.4650  152.5740  132.2460 N   0  0  0  0  0  0  0  0  0  0  0  0
  140.7200  151.3350  132.5250 C   0  0  0  0  0  0  0  0  0  0  0  0
  141.6300  150.1430  132.5870 C   0  0  0  0  0  0  0  0  0  0  0  0
  141.1840  149.0250  132.9540 O   0  0  0  0  0  0  0  0  0  0  0  0
  142.9780  150.2790  132.2800 O   0  0  0  0  0  0  0  0  0  0  0  0
  141.0480  154.6300  133.5630 C   0  0  0  0  0  0  0  0  0  0  0  0
  141.2750  155.3650  134.7280 C   0  0  0  0  0  0  0  0  0  0  0  0
  138.6967  159.1426  132.6995 H   0  0  0  0  0  0  0  0  0  0  0  0
  139.9851  159.3260  131.4613 H   0  0  0  0  0  0  0  0  0  0  0  0
  138.9408  157.8644  131.4613 H   0  0  0  0  0  0  0  0  0  0  0  0
  142.4180  157.8089  133.5497 H   0  0  0  0  0  0  0  0  0  0  0  0
  141.9913  156.9346  132.0396 H   0  0  0  0  0  0  0  0  0  0  0  0
  142.0986  158.7277  132.0396 H   0  0  0  0  0  0  0  0  0  0  0  0
  139.2260  158.9820  136.3020 H   0  0  0  0  0  0  0  0  0  0  0  0
  142.6092  155.7552  137.7082 H   0  0  0  0  0  0  0  0  0  0  0  0
  143.2997  153.2551  136.4834 H   0  0  0  0  0  0  0  0  0  0  0  0
  142.9436  151.8810  134.4067 H   0  0  0  0  0  0  0  0  0  0  0  0
  140.9680  153.1340  131.5140 H   0  0  0  0  0  0  0  0  0  0  0  0
  142.4020  152.3210  131.8550 H   0  0  0  0  0  0  0  0  0  0  0  0
  140.2029  151.4395  133.4902 H   0  0  0  0  0  0  0  0  0  0  0  0
  140.0008  151.1756  131.7081 H   0  0  0  0  0  0  0  0  0  0  0  0
  140.4156  155.0312  132.7573 H   0  0  0  0  0  0  0  0  0  0  0  0
  1  2  1  0
  2  3  1  0
  2  4  1  0
  4  5  2  0
  4  6  1  0
  6  7  1  0
  7  8  1  0
  8  9  1  0
  8 10  2  0
  7 11  2  0
 11 12  1  0
 12 13  2  0
 13 14  1  0
 14 15  2  0
 15 16  1  0
 16 17  1  0
 17 18  1  0
 18 19  2  0
 18 20  1  0
 15 21  1  0
 21 22  2  0
 22  6  1  0
 22 12  1  0
  1 23  1  0
  1 24  1  0
  1 25  1  0
  3 26  1  0
  3 27  1  0
  3 28  1  0
  9 29  1  0
 11 30  1  0
 13 31  1  0
 14 32  1  0
 16 33  1  0
 16 34  1  0
 17 35  1  0
 17 36  1  0
 21 37  1  0
M  CHG  3   9  -1  16   1  20  -1
M  END
>  <UniqueID>  (87) 
86

>  <SMILES>  (87) 
CN(C)C(=O)n1c(C([NH-])=O)cc2ccc([NH2+]CC(=O)[O-])cc21

>  <Energy>  (87) 
74.41785442406824

>  <Genealogy>  (87) 
CN(C)C(=O)n1c(C([NH-])=O)cc2ccc([NH2+]CC(=O)[O-])cc21 (protonated)
CN(C)C(=O)n1c(C([NH-])=O)cc2ccc([NH2+]CC(=O)[O-])cc21 (3D coordinates assigned)
CN(C)C(=O)n1c(C([NH-])=O)cc2ccc([NH2+]CC(=O)[O-])cc21 (optimized conformer: 74.41785442406824 kcal/mol)

>  <smiles>  (87) 
CN(C)C(=O)n1c(C(N)=O)cc2ccc(NCC(=O)O)cc21

>  <score_type>  (87) 
oracle

>  <origin>  (87) 
adg

>  <m_score__min__energy>  (87) 
-6.1200000000000001

>  <m_primary>  (87) 
energy

$$$$
90:0
     RDKit          3D

 52 53  0  0  0  0  0  0  0  0999 V2000
  144.2430  154.1340  136.5170 C   0  0  0  0  0  0  0  0  0  0  0  0
  144.7230  154.0180  135.1360 N   0  0  0  0  0  0  0  0  0  0  0  0
  143.7760  154.1110  134.0220 C   0  0  0  0  0  0  0  0  0  0  0  0
  146.1330  153.8110  134.9000 C   0  0  0  0  0  0  0  0  0  0  0  0
  146.9190  153.6950  135.8810 O   0  0  0  0  0  0  0  0  0  0  0  0
  146.7140  153.7440  133.5100 C   0  0  0  0  0  0  0  0  0  0  0  0
  147.7960  154.7230  133.3090 N   0  0  0  0  0  0  0  0  0  0  0  0
  149.0220  154.3080  132.6160 C   0  0  0  0  0  0  0  0  0  0  0  0
  147.4730  156.1280  133.3800 C   0  0  0  0  0  0  0  0  0  0  0  0
  148.5030  157.1080  133.3910 C   0  0  0  0  0  0  0  0  0  0  0  0
  148.1950  158.4750  133.4780 C   0  0  0  0  0  0  0  0  0  0  0  0
  146.8550  158.8400  133.5420 C   0  0  0  0  0  0  0  0  0  0  0  0
  146.2790  160.0840  133.6580 C   0  0  0  0  0  0  0  0  0  0  0  0
  144.9040  159.8550  133.6850 C   0  0  0  0  0  0  0  0  0  0  0  0
  143.8980  160.9370  133.7160 C   0  0  0  0  0  0  0  0  0  0  0  0
  142.5410  160.6890  133.3610 N   0  0  0  0  0  0  0  0  0  0  0  0
  144.2520  162.1080  134.0210 O   0  0  0  0  0  0  0  0  0  0  0  0
  144.6430  158.5190  133.5990 N   0  0  0  0  0  0  0  0  0  0  0  0
  143.3690  157.8630  133.6540 C   0  0  0  0  0  0  0  0  0  0  0  0
  142.6300  157.8460  132.6330 O   0  0  0  0  0  0  0  0  0  0  0  0
  142.9580  157.2620  134.8530 O   0  0  0  0  0  0  0  0  0  0  0  0
  141.7510  157.5430  135.5750 C   0  0  0  0  0  0  0  0  0  0  0  0
  141.6570  156.6640  136.8380 C   0  0  0  0  0  0  0  0  0  0  0  0
  140.5190  157.3310  134.6750 C   0  0  0  0  0  0  0  0  0  0  0  0
  141.8080  159.0170  136.0020 C   0  0  0  0  0  0  0  0  0  0  0  0
  145.8460  157.9130  133.5080 C   0  0  0  0  0  0  0  0  0  0  0  0
  146.1230  156.5430  133.4420 C   0  0  0  0  0  0  0  0  0  0  0  0
  145.0722  153.9336  137.2114 H   0  0  0  0  0  0  0  0  0  0  0  0
  143.8594  155.1507  136.6877 H   0  0  0  0  0  0  0  0  0  0  0  0
  143.4374  153.4047  136.6877 H   0  0  0  0  0  0  0  0  0  0  0  0
  142.7542  154.2113  134.4168 H   0  0  0  0  0  0  0  0  0  0  0  0
  144.0192  154.9896  133.4064 H   0  0  0  0  0  0  0  0  0  0  0  0
  143.8436  153.2019  133.4064 H   0  0  0  0  0  0  0  0  0  0  0  0
  147.1155  152.7336  133.3426 H   0  0  0  0  0  0  0  0  0  0  0  0
  145.9100  153.9797  132.7973 H   0  0  0  0  0  0  0  0  0  0  0  0
  149.7919  154.0474  133.3572 H   0  0  0  0  0  0  0  0  0  0  0  0
  148.8084  153.4321  131.9858 H   0  0  0  0  0  0  0  0  0  0  0  0
  149.3843  155.1336  131.9858 H   0  0  0  0  0  0  0  0  0  0  0  0
  149.5546  156.7911  133.3306 H   0  0  0  0  0  0  0  0  0  0  0  0
  148.9903  159.2347  133.4950 H   0  0  0  0  0  0  0  0  0  0  0  0
  146.7943  161.0541  133.7170 H   0  0  0  0  0  0  0  0  0  0  0  0
  142.2970  159.9940  132.6210 H   0  0  0  0  0  0  0  0  0  0  0  0
  141.7250  157.2998  137.7331 H   0  0  0  0  0  0  0  0  0  0  0  0
  140.6964  156.1280  136.8410 H   0  0  0  0  0  0  0  0  0  0  0  0
  142.4825  155.9370  136.8410 H   0  0  0  0  0  0  0  0  0  0  0  0
  139.6286  157.1778  135.3024 H   0  0  0  0  0  0  0  0  0  0  0  0
  140.3720  158.2170  134.0399 H   0  0  0  0  0  0  0  0  0  0  0  0
  140.6766  156.4468  134.0399 H   0  0  0  0  0  0  0  0  0  0  0  0
  141.8105  159.0808  137.1001 H   0  0  0  0  0  0  0  0  0  0  0  0
  142.7247  159.4783  135.6059 H   0  0  0  0  0  0  0  0  0  0  0  0
  140.9297  159.5477  135.6059 H   0  0  0  0  0  0  0  0  0  0  0  0
  145.3077  155.8046  133.4384 H   0  0  0  0  0  0  0  0  0  0  0  0
  1  2  1  0
  2  3  1  0
  2  4  1  0
  4  5  2  0
  4  6  1  0
  6  7  1  0
  7  8  1  0
  7  9  1  0
  9 10  2  0
 10 11  1  0
 11 12  2  0
 12 13  1  0
 13 14  2  0
 14 15  1  0
 15 16  1  0
 15 17  2  0
 14 18  1  0
 18 19  1  0
 19 20  2  0
 19 21  1  0
 21 22  1  0
 22 23  1  0
 22 24  1  0
 22 25  1  0
 18 26  1  0
 26 27  2  0
 27  9  1  0
 26 12  1  0
  1 28  1  0
  1 29  1  0
  1 30  1  0
  3 31  1  0
  3 32  1  0
  3 33  1  0
  6 34  1  0
  6 35  1  0
  8 36  1  0
  8 37  1  0
  8 38  1  0
 10 39  1  0
 11 40  1  0
 13 41  1  0
 16 42  1  0
 23 43  1  0
 23 44  1  0
 23 45  1  0
 24 46  1  0
 24 47  1  0
 24 48  1  0
 25 49  1  0
 25 50  1  0
 25 51  1  0
 27 52  1  0
M  CHG  1  16  -1
M  END
>  <UniqueID>  (88) 
87

>  <SMILES>  (88) 
CN(C)C(=O)CN(C)c1ccc2cc(C([NH-])=O)n(C(=O)OC(C)(C)C)c2c1

>  <Energy>  (88) 
85.35057629760284

>  <Genealogy>  (88) 
CN(C)C(=O)CN(C)c1ccc2cc(C([NH-])=O)n(C(=O)OC(C)(C)C)c2c1 (protonated)
CN(C)C(=O)CN(C)c1ccc2cc(C([NH-])=O)n(C(=O)OC(C)(C)C)c2c1 (3D coordinates assigned)
CN(C)C(=O)CN(C)c1ccc2cc(C([NH-])=O)n(C(=O)OC(C)(C)C)c2c1 (optimized conformer: 85.35057629760284 kcal/mol)

>  <smiles>  (88) 
CN(C)C(=O)CN(C)c1ccc2cc(C(N)=O)n(C(=O)OC(C)(C)C)c2c1

>  <score_type>  (88) 
oracle

>  <origin>  (88) 
adg

>  <m_score__min__energy>  (88) 
-7.3300000000000001

>  <m_primary>  (88) 
energy

$$$$
91:0
     RDKit          3D

 46 48  0  0  0  0  0  0  0  0999 V2000
  139.8790  157.3190  137.4750 N   0  0  0  0  0  0  0  0  0  0  0  0
  141.2550  157.5990  137.2300 C   0  0  0  0  0  0  0  0  0  0  0  0
  142.0730  156.6520  137.0650 O   0  0  0  0  0  0  0  0  0  0  0  0
  141.7350  159.0160  137.2170 C   0  0  0  0  0  0  0  0  0  0  0  0
  141.0770  159.7490  136.1880 O   0  0  0  0  0  0  0  0  0  0  0  0
  141.3470  159.5670  134.8270 C   0  0  0  0  0  0  0  0  0  0  0  0
  141.4690  160.5620  134.0600 O   0  0  0  0  0  0  0  0  0  0  0  0
  141.4470  158.2400  134.2930 N   0  0  0  0  0  0  0  0  0  0  0  0
  140.4330  157.3920  133.9600 C   0  0  0  0  0  0  0  0  0  0  0  0
  138.9920  157.6280  134.2370 C   0  0  0  0  0  0  0  0  0  0  0  0
  138.5660  158.2720  135.4410 N   0  0  0  0  0  0  0  0  0  0  0  0
  138.1220  157.2800  133.3960 O   0  0  0  0  0  0  0  0  0  0  0  0
  140.9480  156.2260  133.3900 C   0  0  0  0  0  0  0  0  0  0  0  0
  142.3140  156.3960  133.3780 C   0  0  0  0  0  0  0  0  0  0  0  0
  143.3160  155.5610  132.8950 C   0  0  0  0  0  0  0  0  0  0  0  0
  144.6460  156.0110  132.9790 C   0  0  0  0  0  0  0  0  0  0  0  0
  144.9530  157.2780  133.5420 C   0  0  0  0  0  0  0  0  0  0  0  0
  146.3230  157.7230  133.6390 N   0  0  0  0  0  0  0  0  0  0  0  0
  147.4060  156.7860  133.9700 C   0  0  0  0  0  0  0  0  0  0  0  0
  148.4950  156.8120  132.8850 C   0  0  0  0  0  0  0  0  0  0  0  0
  148.6370  158.1880  132.1960 C   0  0  0  0  0  0  0  0  0  0  0  0
  148.1420  159.3500  133.0780 C   0  0  2  0  0  0  0  0  0  0  0  0
  148.9500  159.4460  134.2990 N   0  0  0  0  0  0  0  0  0  0  0  0
  146.6490  159.1450  133.4210 C   0  0  0  0  0  0  0  0  0  0  0  0
  143.9010  158.0900  134.0320 C   0  0  0  0  0  0  0  0  0  0  0  0
  142.5890  157.6160  133.9330 C   0  0  0  0  0  0  0  0  0  0  0  0
  139.1740  158.0910  137.4910 H   0  0  0  0  0  0  0  0  0  0  0  0
  141.5190  159.4817  138.1898 H   0  0  0  0  0  0  0  0  0  0  0  0
  142.8186  159.0261  137.0281 H   0  0  0  0  0  0  0  0  0  0  0  0
  137.5520  158.4830  135.5850 H   0  0  0  0  0  0  0  0  0  0  0  0
  139.2390  158.5600  136.1840 H   0  0  0  0  0  0  0  0  0  0  0  0
  140.3818  155.3555  133.0272 H   0  0  0  0  0  0  0  0  0  0  0  0
  143.0758  154.5793  132.4608 H   0  0  0  0  0  0  0  0  0  0  0  0
  145.4594  155.3728  132.6035 H   0  0  0  0  0  0  0  0  0  0  0  0
  147.8500  157.0729  134.9347 H   0  0  0  0  0  0  0  0  0  0  0  0
  146.9895  155.7697  134.0299 H   0  0  0  0  0  0  0  0  0  0  0  0
  149.4577  156.5531  133.3500 H   0  0  0  0  0  0  0  0  0  0  0  0
  148.2014  156.0880  132.1106 H   0  0  0  0  0  0  0  0  0  0  0  0
  149.6980  158.3543  131.9581 H   0  0  0  0  0  0  0  0  0  0  0  0
  148.0140  158.1709  131.2896 H   0  0  0  0  0  0  0  0  0  0  0  0
  148.2501  160.2944  132.5244 H   0  0  0  0  0  0  0  0  0  0  0  0
  149.1930  160.4520  134.4610 H   0  0  0  0  0  0  0  0  0  0  0  0
  149.8570  158.9510  134.1330 H   0  0  0  0  0  0  0  0  0  0  0  0
  146.4143  159.7077  134.3366 H   0  0  0  0  0  0  0  0  0  0  0  0
  146.0521  159.5041  132.5697 H   0  0  0  0  0  0  0  0  0  0  0  0
  144.1114  159.0721  134.4806 H   0  0  0  0  0  0  0  0  0  0  0  0
  1  2  1  0
  2  3  2  0
  2  4  1  0
  4  5  1  0
  5  6  1  0
  6  7  2  0
  6  8  1  0
  8  9  1  0
  9 10  1  0
 10 11  1  0
 10 12  2  0
  9 13  2  0
 13 14  1  0
 14 15  2  0
 15 16  1  0
 16 17  2  0
 17 18  1  0
 18 19  1  0
 19 20  1  0
 20 21  1  0
 21 22  1  0
 22 23  1  0
 22 24  1  0
 17 25  1  0
 25 26  2  0
 26  8  1  0
 26 14  1  0
 24 18  1  0
  1 27  1  0
  4 28  1  0
  4 29  1  0
 11 30  1  0
 11 31  1  0
 13 32  1  0
 15 33  1  0
 16 34  1  0
 19 35  1  0
 19 36  1  0
 20 37  1  0
 20 38  1  0
 21 39  1  0
 21 40  1  0
 22 41  1  6
 23 42  1  0
 23 43  1  0
 24 44  1  0
 24 45  1  0
 25 46  1  0
M  CHG  1   1  -1
M  END
>  <UniqueID>  (89) 
88

>  <SMILES>  (89) 
[NH-]C(=O)COC(=O)n1c(C(N)=O)cc2ccc(N3CCC[C@H](N)C3)cc21

>  <Energy>  (89) 
89.04157821856204

>  <Genealogy>  (89) 
[NH-]C(=O)COC(=O)n1c(C(N)=O)cc2ccc(N3CCC[C@H](N)C3)cc21 (protonated)
[NH-]C(=O)COC(=O)n1c(C(N)=O)cc2ccc(N3CCC[C@H](N)C3)cc21 (3D coordinates assigned)
[NH-]C(=O)COC(=O)n1c(C(N)=O)cc2ccc(N3CCC[C@H](N)C3)cc21 (nonaromatic ring conformer: 89.04157821856204 kcal/mol)

>  <smiles>  (89) 
NC(=O)COC(=O)n1c(C(N)=O)cc2ccc(N3CCC[C@H](N)C3)cc21

>  <score_type>  (89) 
oracle

>  <origin>  (89) 
adg

>  <m_score__min__energy>  (89) 
-8.0199999999999996

>  <m_primary>  (89) 
energy

$$$$
92:0
     RDKit          3D

 62 63  0  0  0  0  0  0  0  0999 V2000
  139.8420  160.4270  132.6160 C   0  0  0  0  0  0  0  0  0  0  0  0
  139.4610  159.2170  131.7430 C   0  0  0  0  0  0  0  0  0  0  0  0
  140.1090  159.3240  130.3530 C   0  0  0  0  0  0  0  0  0  0  0  0
  137.9330  159.1800  131.5730 C   0  0  0  0  0  0  0  0  0  0  0  0
  139.8430  157.9960  132.3870 O   0  0  0  0  0  0  0  0  0  0  0  0
  139.2580  157.4450  133.5380 C   0  0  0  0  0  0  0  0  0  0  0  0
  138.0180  157.5190  133.7350 O   0  0  0  0  0  0  0  0  0  0  0  0
  140.0960  156.7760  134.4840 N   0  0  0  0  0  0  0  0  0  0  0  0
  140.1310  157.0950  135.9070 C   0  0  0  0  0  0  0  0  0  0  0  0
  139.8400  158.5790  136.1340 C   0  0  0  0  0  0  0  0  0  0  0  0
  141.0430  159.4780  135.8030 C   0  0  0  0  0  0  0  0  0  0  0  0
  141.7300  159.0290  134.5860 N   0  0  0  0  0  0  0  0  0  0  0  0
  143.0480  159.4460  134.1690 C   0  0  0  0  0  0  0  0  0  0  0  0
  143.3990  160.8170  134.0360 C   0  0  0  0  0  0  0  0  0  0  0  0
  144.6950  161.1920  133.6420 C   0  0  0  0  0  0  0  0  0  0  0  0
  145.6180  160.1860  133.3860 C   0  0  0  0  0  0  0  0  0  0  0  0
  146.9370  160.2790  132.9930 C   0  0  0  0  0  0  0  0  0  0  0  0
  147.3780  158.9630  132.8840 C   0  0  0  0  0  0  0  0  0  0  0  0
  148.7680  158.6030  132.5500 C   0  0  0  0  0  0  0  0  0  0  0  0
  149.0620  157.4020  131.8390 N   0  0  0  0  0  0  0  0  0  0  0  0
  149.7160  159.3260  132.9690 O   0  0  0  0  0  0  0  0  0  0  0  0
  146.3720  158.0840  133.1790 N   0  0  0  0  0  0  0  0  0  0  0  0
  146.4110  156.6500  133.0310 C   0  0  0  0  0  0  0  0  0  0  0  0
  147.4330  156.0070  133.3820 O   0  0  0  0  0  0  0  0  0  0  0  0
  145.2890  155.9720  132.5200 O   0  0  0  0  0  0  0  0  0  0  0  0
  144.4820  155.0230  133.2280 C   0  0  0  0  0  0  0  0  0  0  0  0
  144.8370  155.0450  134.7260 C   0  0  0  0  0  0  0  0  0  0  0  0
  144.6580  153.6050  132.6390 C   0  0  0  0  0  0  0  0  0  0  0  0
  143.0180  155.4490  133.0470 C   0  0  0  0  0  0  0  0  0  0  0  0
  145.3000  158.8540  133.4960 C   0  0  0  0  0  0  0  0  0  0  0  0
  144.0120  158.4540  133.8770 C   0  0  0  0  0  0  0  0  0  0  0  0
  139.7561  160.1543  133.6782 H   0  0  0  0  0  0  0  0  0  0  0  0
  140.8777  160.7258  132.3967 H   0  0  0  0  0  0  0  0  0  0  0  0
  139.1643  161.2653  132.3967 H   0  0  0  0  0  0  0  0  0  0  0  0
  141.1887  159.5023  130.4645 H   0  0  0  0  0  0  0  0  0  0  0  0
  139.9473  158.3870  129.7999 H   0  0  0  0  0  0  0  0  0  0  0  0
  139.6546  160.1593  129.7999 H   0  0  0  0  0  0  0  0  0  0  0  0
  137.4541  159.1684  132.5632 H   0  0  0  0  0  0  0  0  0  0  0  0
  137.6042  160.0704  131.0171 H   0  0  0  0  0  0  0  0  0  0  0  0
  137.6477  158.2747  131.0171 H   0  0  0  0  0  0  0  0  0  0  0  0
  139.3732  156.4939  136.4308 H   0  0  0  0  0  0  0  0  0  0  0  0
  141.1341  156.8670  136.2966 H   0  0  0  0  0  0  0  0  0  0  0  0
  138.9945  158.8734  135.4949 H   0  0  0  0  0  0  0  0  0  0  0  0
  139.6096  158.7125  137.2013 H   0  0  0  0  0  0  0  0  0  0  0  0
  140.6889  160.5088  135.6542 H   0  0  0  0  0  0  0  0  0  0  0  0
  141.7542  159.4259  136.6405 H   0  0  0  0  0  0  0  0  0  0  0  0
  141.2510  158.2820  134.0290 H   0  0  0  0  0  0  0  0  0  0  0  0
  142.6478  161.5933  134.2438 H   0  0  0  0  0  0  0  0  0  0  0  0
  144.9705  162.2520  133.5393 H   0  0  0  0  0  0  0  0  0  0  0  0
  147.5157  161.1956  132.8060 H   0  0  0  0  0  0  0  0  0  0  0  0
  148.3180  156.6880  131.6350 H   0  0  0  0  0  0  0  0  0  0  0  0
  150.0420  157.2080  131.5290 H   0  0  0  0  0  0  0  0  0  0  0  0
  143.9144  154.9878  135.3223 H   0  0  0  0  0  0  0  0  0  0  0  0
  145.4807  154.1850  134.9630 H   0  0  0  0  0  0  0  0  0  0  0  0
  145.3695  155.9779  134.9630 H   0  0  0  0  0  0  0  0  0  0  0  0
  144.7484  152.8764  133.4581 H   0  0  0  0  0  0  0  0  0  0  0  0
  143.7841  153.3541  132.0199 H   0  0  0  0  0  0  0  0  0  0  0  0
  145.5667  153.5753  132.0199 H   0  0  0  0  0  0  0  0  0  0  0  0
  142.5510  155.5849  134.0336 H   0  0  0  0  0  0  0  0  0  0  0  0
  142.9780  156.3960  132.4888 H   0  0  0  0  0  0  0  0  0  0  0  0
  142.4761  154.6713  132.4888 H   0  0  0  0  0  0  0  0  0  0  0  0
  143.7556  157.3866  133.9476 H   0  0  0  0  0  0  0  0  0  0  0  0
  1  2  1  0
  2  3  1  0
  2  4  1  0
  2  5  1  0
  5  6  1  0
  6  7  2  0
  6  8  1  0
  8  9  1  0
  9 10  1  0
 10 11  1  0
 11 12  1  0
 12 13  1  0
 13 14  2  0
 14 15  1  0
 15 16  2  0
 16 17  1  0
 17 18  2  0
 18 19  1  0
 19 20  1  0
 19 21  2  0
 18 22  1  0
 22 23  1  0
 23 24  2  0
 23 25  1  0
 25 26  1  0
 26 27  1  0
 26 28  1  0
 26 29  1  0
 22 30  1  0
 30 31  2  0
 31 13  1  0
 30 16  1  0
  1 32  1  0
  1 33  1  0
  1 34  1  0
  3 35  1  0
  3 36  1  0
  3 37  1  0
  4 38  1  0
  4 39  1  0
  4 40  1  0
  9 41  1  0
  9 42  1  0
 10 43  1  0
 10 44  1  0
 11 45  1  0
 11 46  1  0
 12 47  1  0
 14 48  1  0
 15 49  1  0
 17 50  1  0
 20 51  1  0
 20 52  1  0
 27 53  1  0
 27 54  1  0
 27 55  1  0
 28 56  1  0
 28 57  1  0
 28 58  1  0
 29 59  1  0
 29 60  1  0
 29 61  1  0
 31 62  1  0
M  CHG  1   8  -1
M  END
>  <UniqueID>  (90) 
89

>  <SMILES>  (90) 
CC(C)(C)OC(=O)[N-]CCCNc1ccc2cc(C(N)=O)n(C(=O)OC(C)(C)C)c2c1

>  <Energy>  (90) 
87.81260971300128

>  <Genealogy>  (90) 
CC(C)(C)OC(=O)[N-]CCCNc1ccc2cc(C(N)=O)n(C(=O)OC(C)(C)C)c2c1 (protonated)
CC(C)(C)OC(=O)[N-]CCCNc1ccc2cc(C(N)=O)n(C(=O)OC(C)(C)C)c2c1 (3D coordinates assigned)
CC(C)(C)OC(=O)[N-]CCCNc1ccc2cc(C(N)=O)n(C(=O)OC(C)(C)C)c2c1 (optimized conformer: 87.81260971300128 kcal/mol)

>  <smiles>  (90) 
CC(C)(C)OC(=O)NCCCNc1ccc2cc(C(N)=O)n(C(=O)OC(C)(C)C)c2c1

>  <score_type>  (90) 
oracle

>  <origin>  (90) 
adg

>  <m_score__min__energy>  (90) 
-7.9500000000000002

>  <m_primary>  (90) 
energy

$$$$
93:0
     RDKit          3D

 49 50  0  0  0  0  0  0  0  0999 V2000
  137.8760  159.9200  130.8650 C   0  0  0  0  0  0  0  0  0  0  0  0
  138.9330  159.1700  131.5670 N   0  0  0  0  0  0  0  0  0  0  0  0
  139.8540  160.1160  132.2170 C   0  0  0  0  0  0  0  0  0  0  0  0
  138.3620  158.2420  132.5690 C   0  0  0  0  0  0  0  0  0  0  0  0
  139.4600  157.5200  133.3690 C   0  0  0  0  0  0  0  0  0  0  0  0
  139.4420  157.8600  134.8690 C   0  0  0  0  0  0  0  0  0  0  0  0
  140.7950  158.0950  135.3960 N   0  0  0  0  0  0  0  0  0  0  0  0
  141.1160  159.3480  136.0870 C   0  0  0  0  0  0  0  0  0  0  0  0
  141.8090  157.0800  135.2970 C   0  0  0  0  0  0  0  0  0  0  0  0
  141.5220  155.8730  135.5270 O   0  0  0  0  0  0  0  0  0  0  0  0
  143.1140  157.4470  134.9370 O   0  0  0  0  0  0  0  0  0  0  0  0
  143.4900  157.9990  133.7050 C   0  0  0  0  0  0  0  0  0  0  0  0
  142.7280  157.9250  132.7030 O   0  0  0  0  0  0  0  0  0  0  0  0
  144.7720  158.6330  133.5810 N   0  0  0  0  0  0  0  0  0  0  0  0
  145.0470  159.9680  133.5390 C   0  0  0  0  0  0  0  0  0  0  0  0
  144.0820  161.0620  133.7750 C   0  0  0  0  0  0  0  0  0  0  0  0
  142.6780  160.8270  133.7170 N   0  0  0  0  0  0  0  0  0  0  0  0
  144.5040  162.2090  134.0830 O   0  0  0  0  0  0  0  0  0  0  0  0
  146.4080  160.1800  133.3330 C   0  0  0  0  0  0  0  0  0  0  0  0
  146.9660  158.9240  133.2620 C   0  0  0  0  0  0  0  0  0  0  0  0
  148.2920  158.5430  133.0770 C   0  0  0  0  0  0  0  0  0  0  0  0
  148.5840  157.1700  133.0340 C   0  0  0  0  0  0  0  0  0  0  0  0
  147.5490  156.2050  133.1470 C   0  0  0  0  0  0  0  0  0  0  0  0
  147.8780  154.7330  133.1390 C   0  0  0  0  0  0  0  0  0  0  0  0
  148.1550  154.2880  134.4200 F   0  0  0  0  0  0  0  0  0  0  0  0
  148.9870  154.5210  132.3400 F   0  0  0  0  0  0  0  0  0  0  0  0
  146.8170  153.9960  132.6430 F   0  0  0  0  0  0  0  0  0  0  0  0
  146.2170  156.6330  133.3540 C   0  0  0  0  0  0  0  0  0  0  0  0
  145.9590  158.0080  133.4130 C   0  0  0  0  0  0  0  0  0  0  0  0
  137.2102  160.3924  131.6023 H   0  0  0  0  0  0  0  0  0  0  0  0
  138.3342  160.6961  130.2344 H   0  0  0  0  0  0  0  0  0  0  0  0
  137.2947  159.2312  130.2344 H   0  0  0  0  0  0  0  0  0  0  0  0
  139.7639  160.0235  133.3094 H   0  0  0  0  0  0  0  0  0  0  0  0
  140.8868  159.8893  131.9137 H   0  0  0  0  0  0  0  0  0  0  0  0
  139.5997  161.1423  131.9137 H   0  0  0  0  0  0  0  0  0  0  0  0
  137.7315  158.8140  133.2656 H   0  0  0  0  0  0  0  0  0  0  0  0
  137.7721  157.4825  132.0350 H   0  0  0  0  0  0  0  0  0  0  0  0
  139.3190  156.4350  133.2551 H   0  0  0  0  0  0  0  0  0  0  0  0
  140.4285  157.8559  132.9700 H   0  0  0  0  0  0  0  0  0  0  0  0
  138.8391  158.7675  135.0204 H   0  0  0  0  0  0  0  0  0  0  0  0
  139.0115  157.0026  135.4070 H   0  0  0  0  0  0  0  0  0  0  0  0
  141.0750  159.1879  137.1745 H   0  0  0  0  0  0  0  0  0  0  0  0
  142.1269  159.6751  135.8024 H   0  0  0  0  0  0  0  0  0  0  0  0
  140.3868  160.1209  135.8024 H   0  0  0  0  0  0  0  0  0  0  0  0
  142.3000  159.8750  133.5200 H   0  0  0  0  0  0  0  0  0  0  0  0
  146.9267  161.1461  133.2456 H   0  0  0  0  0  0  0  0  0  0  0  0
  149.0874  159.2949  132.9677 H   0  0  0  0  0  0  0  0  0  0  0  0
  149.6258  156.8388  132.9114 H   0  0  0  0  0  0  0  0  0  0  0  0
  145.4023  155.9024  133.4661 H   0  0  0  0  0  0  0  0  0  0  0  0
  1  2  1  0
  2  3  1  0
  2  4  1  0
  4  5  1  0
  5  6  1  0
  6  7  1  0
  7  8  1  0
  7  9  1  0
  9 10  2  0
  9 11  1  0
 11 12  1  0
 12 13  2  0
 12 14  1  0
 14 15  1  0
 15 16  1  0
 16 17  1  0
 16 18  2  0
 15 19  2  0
 19 20  1  0
 20 21  2  0
 21 22  1  0
 22 23  2  0
 23 24  1  0
 24 25  1  0
 24 26  1  0
 24 27  1  0
 23 28  1  0
 28 29  2  0
 29 14  1  0
 29 20  1  0
  1 30  1  0
  1 31  1  0
  1 32  1  0
  3 33  1  0
  3 34  1  0
  3 35  1  0
  4 36  1  0
  4 37  1  0
  5 38  1  0
  5 39  1  0
  6 40  1  0
  6 41  1  0
  8 42  1  0
  8 43  1  0
  8 44  1  0
 17 45  1  0
 19 46  1  0
 21 47  1  0
 22 48  1  0
 28 49  1  0
M  CHG  1  17  -1
M  END
>  <UniqueID>  (91) 
90

>  <SMILES>  (91) 
CN(C)CCCN(C)C(=O)OC(=O)n1c(C([NH-])=O)cc2ccc(C(F)(F)F)cc21

>  <Energy>  (91) 
82.35429500456985

>  <Genealogy>  (91) 
CN(C)CCCN(C)C(=O)OC(=O)n1c(C([NH-])=O)cc2ccc(C(F)(F)F)cc21 (protonated)
CN(C)CCCN(C)C(=O)OC(=O)n1c(C([NH-])=O)cc2ccc(C(F)(F)F)cc21 (3D coordinates assigned)
CN(C)CCCN(C)C(=O)OC(=O)n1c(C([NH-])=O)cc2ccc(C(F)(F)F)cc21 (optimized conformer: 82.35429500456985 kcal/mol)

>  <smiles>  (91) 
CN(C)CCCN(C)C(=O)OC(=O)n1c(C(N)=O)cc2ccc(C(F)(F)F)cc21

>  <score_type>  (91) 
oracle

>  <origin>  (91) 
adg

>  <m_score__min__energy>  (91) 
-7.0499999999999998

>  <m_primary>  (91) 
energy

$$$$
94:0
     RDKit          3D

 39 40  0  0  0  0  0  0  0  0999 V2000
  142.9380  163.1650  133.3690 H   0  0  0  0  0  0  0  0  0  0  0  0
  143.9820  163.2000  133.4010 N   0  0  0  0  0  0  0  0  0  0  0  0
  144.7250  162.2890  134.2060 C   0  0  0  0  0  0  0  0  0  0  0  0
  145.4870  162.7370  135.1030 O   0  0  0  0  0  0  0  0  0  0  0  0
  144.6560  160.8340  133.9640 C   0  0  0  0  0  0  0  0  0  0  0  0
  145.7800  160.0410  133.7430 C   0  0  0  0  0  0  0  0  0  0  0  0
  146.8343  160.3515  133.7885 H   0  0  0  0  0  0  0  0  0  0  0  0
  145.2920  158.7880  133.4560 C   0  0  0  0  0  0  0  0  0  0  0  0
  145.9670  157.6100  133.1560 C   0  0  0  0  0  0  0  0  0  0  0  0
  147.0654  157.5846  133.1025 H   0  0  0  0  0  0  0  0  0  0  0  0
  145.2040  156.4520  132.9230 C   0  0  0  0  0  0  0  0  0  0  0  0
  145.7099  155.5067  132.6771 H   0  0  0  0  0  0  0  0  0  0  0  0
  143.7880  156.4910  133.0020 C   0  0  0  0  0  0  0  0  0  0  0  0
  143.0160  155.2930  132.7680 N   0  0  0  0  0  0  0  0  0  0  0  0
  142.0060  155.5590  132.6900 H   0  0  0  0  0  0  0  0  0  0  0  0
  143.2810  154.8500  131.8580 H   0  0  0  0  0  0  0  0  0  0  0  0
  143.1560  154.3230  133.8690 C   0  0  0  0  0  0  0  0  0  0  0  0
  144.1629  153.8828  133.8203 H   0  0  0  0  0  0  0  0  0  0  0  0
  142.9872  154.8704  134.8081 H   0  0  0  0  0  0  0  0  0  0  0  0
  142.1230  153.1850  133.8140 C   0  0  0  0  0  0  0  0  0  0  0  0
  141.0080  153.6180  133.1220 F   0  0  0  0  0  0  0  0  0  0  0  0
  142.6460  152.0820  133.1640 F   0  0  0  0  0  0  0  0  0  0  0  0
  141.7320  152.8240  135.0900 F   0  0  0  0  0  0  0  0  0  0  0  0
  143.1380  157.7090  133.3100 C   0  0  0  0  0  0  0  0  0  0  0  0
  142.0417  157.7595  133.3849 H   0  0  0  0  0  0  0  0  0  0  0  0
  143.9240  158.8480  133.5170 C   0  0  0  0  0  0  0  0  0  0  0  0
  143.5170  160.0940  133.8420 N   0  0  0  0  0  0  0  0  0  0  0  0
  142.1540  160.5140  134.0460 C   0  0  0  0  0  0  0  0  0  0  0  0
  141.6940  161.4640  133.3580 O   0  0  0  0  0  0  0  0  0  0  0  0
  141.2920  159.9140  135.0860 C   0  0  0  0  0  0  0  0  0  0  0  0
  141.3158  160.3733  136.0853 H   0  0  0  0  0  0  0  0  0  0  0  0
  140.4790  158.8520  134.9150 C   0  0  0  0  0  0  0  0  0  0  0  0
  140.1800  158.2600  133.5930 C   0  0  0  0  0  0  0  0  0  0  0  0
  139.6080  158.9370  132.6980 O   0  0  0  0  0  0  0  0  0  0  0  0
  140.4580  156.9210  133.3530 O   0  0  0  0  0  0  0  0  0  0  0  0
  139.8580  158.2150  136.1270 C   0  0  0  0  0  0  0  0  0  0  0  0
  140.2902  158.6583  137.0362 H   0  0  0  0  0  0  0  0  0  0  0  0
  138.7716  158.3873  136.1158 H   0  0  0  0  0  0  0  0  0  0  0  0
  140.0579  157.1334  136.1158 H   0  0  0  0  0  0  0  0  0  0  0  0
  1  2  1  0
  2  3  1  0
  3  4  2  0
  3  5  1  0
  5  6  2  0
  6  7  1  0
  6  8  1  0
  8  9  2  0
  9 10  1  0
  9 11  1  0
 11 12  1  0
 11 13  2  0
 13 14  1  0
 14 15  1  0
 14 16  1  0
 14 17  1  0
 17 18  1  0
 17 19  1  0
 17 20  1  0
 20 21  1  0
 20 22  1  0
 20 23  1  0
 13 24  1  0
 24 25  1  0
 24 26  2  0
 26 27  1  0
 27 28  1  0
 28 29  2  0
 28 30  1  0
 30 31  1  0
 30 32  2  0
 32 33  1  0
 33 34  2  0
 33 35  1  0
 32 36  1  0
 36 37  1  0
 36 38  1  0
 36 39  1  0
 27  5  1  0
 26  8  1  0
M  CHG  3   2  -1  14   1  35  -1
M  END
>  <UniqueID>  (92) 
91

>  <SMILES>  (92) 
C/C(=C/C(=O)n1c(C([NH-])=O)cc2ccc([NH2+]CC(F)(F)F)cc21)C(=O)[O-]

>  <Energy>  (92) 
85.08240912644912

>  <Genealogy>  (92) 
CC(=CC(=O)n1c(C([NH-])=O)cc2ccc([NH2+]CC(F)(F)F)cc21)C(=O)[O-] (protonated)
C/C(=C/C(=O)n1c(C([NH-])=O)cc2ccc([NH2+]CC(F)(F)F)cc21)C(=O)[O-] (cis-trans isomerization)
C/C(=C/C(=O)n1c(C([NH-])=O)cc2ccc([NH2+]CC(F)(F)F)cc21)C(=O)[O-] (3D coordinates assigned)
C/C(=C/C(=O)n1c(C([NH-])=O)cc2ccc([NH2+]CC(F)(F)F)cc21)C(=O)[O-] (optimized conformer: 85.08240912644912 kcal/mol)

>  <smiles>  (92) 
CC(=CC(=O)n1c(C(N)=O)cc2ccc(NCC(F)(F)F)cc21)C(=O)O

>  <score_type>  (92) 
oracle

>  <origin>  (92) 
adg

>  <m_score__min__energy>  (92) 
-6.5800000000000001

>  <m_primary>  (92) 
energy

$$$$
95:0
     RDKit          3D

 40 41  0  0  0  0  0  0  0  0999 V2000
  149.5330  153.5630  132.3290 C   0  0  0  0  0  0  0  0  0  0  0  0
  148.5130  154.4740  133.0340 C   0  0  2  0  0  0  0  0  0  0  0  0
  147.6340  153.6740  134.0160 C   0  0  0  0  0  0  0  0  0  0  0  0
  146.5010  153.1840  133.3540 O   0  0  0  0  0  0  0  0  0  0  0  0
  147.7080  155.2640  132.0720 N   0  0  0  0  0  0  0  0  0  0  0  0
  147.6520  156.6770  132.3800 C   0  0  0  0  0  0  0  0  0  0  0  0
  148.8030  157.4920  132.2210 C   0  0  0  0  0  0  0  0  0  0  0  0
  148.7620  158.8630  132.5240 C   0  0  0  0  0  0  0  0  0  0  0  0
  147.5600  159.3940  132.9820 C   0  0  0  0  0  0  0  0  0  0  0  0
  147.2480  160.6790  133.3620 C   0  0  0  0  0  0  0  0  0  0  0  0
  145.9060  160.6390  133.7360 C   0  0  0  0  0  0  0  0  0  0  0  0
  145.1350  161.8360  134.1310 C   0  0  0  0  0  0  0  0  0  0  0  0
  143.9590  162.1920  133.4080 N   0  0  0  0  0  0  0  0  0  0  0  0
  145.4830  162.5300  135.1230 O   0  0  0  0  0  0  0  0  0  0  0  0
  145.4110  159.3740  133.6000 N   0  0  0  0  0  0  0  0  0  0  0  0
  144.0920  158.9030  133.9170 C   0  0  0  0  0  0  0  0  0  0  0  0
  143.0920  159.6450  133.7200 O   0  0  0  0  0  0  0  0  0  0  0  0
  143.9270  157.6270  134.4680 O   0  0  0  0  0  0  0  0  0  0  0  0
  143.2960  156.5510  133.7800 C   0  0  0  0  0  0  0  0  0  0  0  0
  144.2200  155.3790  133.6830 C   0  0  0  0  0  0  0  0  0  0  0  0
  144.6480  155.0030  132.5610 O   0  0  0  0  0  0  0  0  0  0  0  0
  144.5880  154.6840  134.8280 O   0  0  0  0  0  0  0  0  0  0  0  0
  146.4350  158.6270  133.1350 C   0  0  0  0  0  0  0  0  0  0  0  0
  146.4540  157.2550  132.8640 C   0  0  0  0  0  0  0  0  0  0  0  0
  150.1305  153.0294  133.0828 H   0  0  0  0  0  0  0  0  0  0  0  0
  149.0006  152.8343  131.7001 H   0  0  0  0  0  0  0  0  0  0  0  0
  150.1972  154.1740  131.7001 H   0  0  0  0  0  0  0  0  0  0  0  0
  149.0819  155.2044  133.6281 H   0  0  0  0  0  0  0  0  0  0  0  0
  148.2134  152.8306  134.4196 H   0  0  0  0  0  0  0  0  0  0  0  0
  147.3159  154.3342  134.8363 H   0  0  0  0  0  0  0  0  0  0  0  0
  145.7190  153.6200  133.7840 H   0  0  0  0  0  0  0  0  0  0  0  0
  148.1010  155.1340  131.1100 H   0  0  0  0  0  0  0  0  0  0  0  0
  146.7360  154.8760  132.0420 H   0  0  0  0  0  0  0  0  0  0  0  0
  149.7391  157.0444  131.8558 H   0  0  0  0  0  0  0  0  0  0  0  0
  149.6525  159.4973  132.4030 H   0  0  0  0  0  0  0  0  0  0  0  0
  147.9162  161.5528  133.3691 H   0  0  0  0  0  0  0  0  0  0  0  0
  143.3470  161.4580  132.9850 H   0  0  0  0  0  0  0  0  0  0  0  0
  142.3895  156.2532  134.3273 H   0  0  0  0  0  0  0  0  0  0  0  0
  143.0335  156.8826  132.7646 H   0  0  0  0  0  0  0  0  0  0  0  0
  145.5572  156.6384  133.0236 H   0  0  0  0  0  0  0  0  0  0  0  0
  1  2  1  0
  2  3  1  0
  3  4  1  0
  2  5  1  0
  5  6  1  0
  6  7  2  0
  7  8  1  0
  8  9  2  0
  9 10  1  0
 10 11  2  0
 11 12  1  0
 12 13  1  0
 12 14  2  0
 11 15  1  0
 15 16  1  0
 16 17  2  0
 16 18  1  0
 18 19  1  0
 19 20  1  0
 20 21  2  0
 20 22  1  0
 15 23  1  0
 23 24  2  0
 24  6  1  0
 23  9  1  0
  1 25  1  0
  1 26  1  0
  1 27  1  0
  2 28  1  1
  3 29  1  0
  3 30  1  0
  4 31  1  0
  5 32  1  0
  5 33  1  0
  7 34  1  0
  8 35  1  0
 10 36  1  0
 13 37  1  0
 19 38  1  0
 19 39  1  0
 24 40  1  0
M  CHG  3   5   1  13  -1  22  -1
M  END
>  <UniqueID>  (93) 
92

>  <SMILES>  (93) 
C[C@H](CO)[NH2+]c1ccc2cc(C([NH-])=O)n(C(=O)OCC(=O)[O-])c2c1

>  <Energy>  (93) 
76.2126575275796

>  <Genealogy>  (93) 
CC(CO)[NH2+]c1ccc2cc(C([NH-])=O)n(C(=O)OCC(=O)[O-])c2c1 (protonated)
C[C@H](CO)[NH2+]c1ccc2cc(C([NH-])=O)n(C(=O)OCC(=O)[O-])c2c1 (chirality)
C[C@H](CO)[NH2+]c1ccc2cc(C([NH-])=O)n(C(=O)OCC(=O)[O-])c2c1 (3D coordinates assigned)
C[C@H](CO)[NH2+]c1ccc2cc(C([NH-])=O)n(C(=O)OCC(=O)[O-])c2c1 (optimized conformer: 76.2126575275796 kcal/mol)

>  <smiles>  (93) 
CC(CO)Nc1ccc2cc(C(N)=O)n(C(=O)OCC(=O)O)c2c1

>  <score_type>  (93) 
oracle

>  <origin>  (93) 
adg

>  <m_score__min__energy>  (93) 
-4.9299999999999997

>  <m_primary>  (93) 
energy

$$$$
