0:0
     RDKit          3D

 37 38  0  0  0  0  0  0  0  0999 V2000
  143.9070  161.9640  133.6160 N   0  0  0  0  0  0  0  0  0  0  0  0
  145.2280  161.7160  134.0940 C   0  0  0  0  0  0  0  0  0  0  0  0
  145.7740  162.5570  134.8550 O   0  0  0  0  0  0  0  0  0  0  0  0
  145.9520  160.5040  133.6550 C   0  0  0  0  0  0  0  0  0  0  0  0
  147.3150  160.4850  133.3710 C   0  0  0  0  0  0  0  0  0  0  0  0
  147.6080  159.1750  133.0720 C   0  0  0  0  0  0  0  0  0  0  0  0
  148.8160  158.5890  132.7050 C   0  0  0  0  0  0  0  0  0  0  0  0
  148.8230  157.2130  132.4260 C   0  0  0  0  0  0  0  0  0  0  0  0
  147.6270  156.4510  132.5030 C   0  0  0  0  0  0  0  0  0  0  0  0
  147.6510  155.0360  132.2300 N   0  0  0  0  0  0  0  0  0  0  0  0
  148.4490  154.3400  133.2500 C   0  0  0  0  0  0  0  0  0  0  0  0
  147.5580  153.7500  134.3470 C   0  0  0  0  0  0  0  0  0  0  0  0
  146.3100  153.4020  133.8150 O   0  0  0  0  0  0  0  0  0  0  0  0
  146.4210  157.0820  132.8910 C   0  0  0  0  0  0  0  0  0  0  0  0
  146.4470  158.4520  133.1770 C   0  0  0  0  0  0  0  0  0  0  0  0
  145.4210  159.2550  133.5320 N   0  0  0  0  0  0  0  0  0  0  0  0
  144.0430  158.8700  133.6600 C   0  0  0  0  0  0  0  0  0  0  0  0
  143.3010  159.4520  134.4990 O   0  0  0  0  0  0  0  0  0  0  0  0
  143.5350  157.8350  132.8700 O   0  0  0  0  0  0  0  0  0  0  0  0
  142.9550  156.6600  133.4240 C   0  0  0  0  0  0  0  0  0  0  0  0
  144.0090  155.6170  133.5870 C   0  0  0  0  0  0  0  0  0  0  0  0
  144.5300  155.0830  132.5750 O   0  0  0  0  0  0  0  0  0  0  0  0
  144.4360  155.2530  134.8550 O   0  0  0  0  0  0  0  0  0  0  0  0
  143.3220  161.1880  133.2340 H   0  0  0  0  0  0  0  0  0  0  0  0
  148.0102  161.3373  133.3832 H   0  0  0  0  0  0  0  0  0  0  0  0
  149.7373  159.1859  132.6356 H   0  0  0  0  0  0  0  0  0  0  0  0
  149.7651  156.7198  132.1447 H   0  0  0  0  0  0  0  0  0  0  0  0
  146.6730  154.6590  132.2280 H   0  0  0  0  0  0  0  0  0  0  0  0
  148.0620  154.8720  131.2800 H   0  0  0  0  0  0  0  0  0  0  0  0
  149.0128  153.5264  132.7702 H   0  0  0  0  0  0  0  0  0  0  0  0
  149.1325  155.0676  133.7120 H   0  0  0  0  0  0  0  0  0  0  0  0
  148.0392  152.8530  134.7639 H   0  0  0  0  0  0  0  0  0  0  0  0
  147.4164  154.4998  135.1393 H   0  0  0  0  0  0  0  0  0  0  0  0
  145.6750  154.1000  134.1240 H   0  0  0  0  0  0  0  0  0  0  0  0
  145.4850  156.5091  132.9661 H   0  0  0  0  0  0  0  0  0  0  0  0
  142.5161  156.8948  134.4049 H   0  0  0  0  0  0  0  0  0  0  0  0
  142.1688  156.2861  132.7517 H   0  0  0  0  0  0  0  0  0  0  0  0
  1  2  1  0
  2  3  2  0
  2  4  1  0
  4  5  2  0
  5  6  1  0
  6  7  2  0
  7  8  1  0
  8  9  2  0
  9 10  1  0
 10 11  1  0
 11 12  1  0
 12 13  1  0
  9 14  1  0
 14 15  2  0
 15 16  1  0
 16 17  1  0
 17 18  2  0
 17 19  1  0
 19 20  1  0
 20 21  1  0
 21 22  2  0
 21 23  1  0
 16  4  1  0
 15  6  1  0
  1 24  1  0
  5 25  1  0
  7 26  1  0
  8 27  1  0
 10 28  1  0
 10 29  1  0
 11 30  1  0
 11 31  1  0
 12 32  1  0
 12 33  1  0
 13 34  1  0
 14 35  1  0
 20 36  1  0
 20 37  1  0
M  CHG  3   1  -1  10   1  23  -1
M  END
>  <UniqueID>  (1) 
1

>  <SMILES>  (1) 
[NH-]C(=O)c1cc2ccc([NH2+]CCO)cc2n1C(=O)OCC(=O)[O-]

>  <Energy>  (1) 
70.74589531219527

>  <Genealogy>  (1) 
[NH-]C(=O)c1cc2ccc([NH2+]CCO)cc2n1C(=O)OCC(=O)[O-] (protonated)
[NH-]C(=O)c1cc2ccc([NH2+]CCO)cc2n1C(=O)OCC(=O)[O-] (3D coordinates assigned)
[NH-]C(=O)c1cc2ccc([NH2+]CCO)cc2n1C(=O)OCC(=O)[O-] (optimized conformer: 70.74589531219527 kcal/mol)

>  <smiles>  (1) 
NC(=O)c1cc2ccc(NCCO)cc2n1C(=O)OCC(=O)O

>  <score_type>  (1) 
oracle

>  <origin>  (1) 
adg

>  <m_score__min__energy>  (1) 
-5.1200000000000001

>  <m_primary>  (1) 
energy

$$$$
1:0
     RDKit          3D

 44 46  0  0  0  0  0  0  0  0999 V2000
  142.9400  157.3290  133.8770 N   0  0  0  0  0  0  0  0  0  0  0  0
  143.8860  156.2640  133.9410 C   0  0  0  0  0  0  0  0  0  0  0  0
  145.0820  156.5180  134.2420 O   0  0  0  0  0  0  0  0  0  0  0  0
  143.4640  154.8860  133.6140 C   0  0  0  0  0  0  0  0  0  0  0  0
  144.3400  153.9030  133.1610 C   0  0  0  0  0  0  0  0  0  0  0  0
  143.5820  152.7580  133.0570 C   0  0  0  0  0  0  0  0  0  0  0  0
  143.9400  151.4840  132.6290 C   0  0  0  0  0  0  0  0  0  0  0  0
  142.9400  150.4980  132.5870 C   0  0  0  0  0  0  0  0  0  0  0  0
  141.6100  150.7960  132.9800 C   0  0  0  0  0  0  0  0  0  0  0  0
  140.5330  149.7470  132.8700 C   0  0  0  0  0  0  0  0  0  0  0  0
  140.2250  149.2300  134.1160 F   0  0  0  0  0  0  0  0  0  0  0  0
  139.3790  150.2870  132.3290 F   0  0  0  0  0  0  0  0  0  0  0  0
  140.9760  148.7230  132.0540 F   0  0  0  0  0  0  0  0  0  0  0  0
  141.2820  152.1100  133.3860 C   0  0  0  0  0  0  0  0  0  0  0  0
  142.3020  153.0680  133.4360 C   0  0  0  0  0  0  0  0  0  0  0  0
  142.2130  154.3720  133.7780 N   0  0  0  0  0  0  0  0  0  0  0  0
  141.0170  155.0750  134.1550 C   0  0  0  0  0  0  0  0  0  0  0  0
  140.9500  155.6430  135.2790 O   0  0  0  0  0  0  0  0  0  0  0  0
  139.9260  155.1070  133.2790 O   0  0  0  0  0  0  0  0  0  0  0  0
  139.4970  156.2870  132.6050 C   0  0  0  0  0  0  0  0  0  0  0  0
  138.9630  157.3170  133.6200 C   0  0  0  0  0  0  0  0  0  0  0  0
  140.0100  157.9900  134.4200 N   0  0  0  0  0  0  0  0  0  0  0  0
  140.5390  159.2110  133.7810 C   0  0  0  0  0  0  0  0  0  0  0  0
  141.4690  159.9710  134.7470 C   0  0  0  0  0  0  0  0  0  0  0  0
  141.9410  159.1110  135.7650 O   0  0  0  0  0  0  0  0  0  0  0  0
  140.8680  158.7240  136.6100 C   0  0  0  0  0  0  0  0  0  0  0  0
  139.6350  158.2320  135.8230 C   0  0  0  0  0  0  0  0  0  0  0  0
  142.0940  157.3340  134.4880 H   0  0  0  0  0  0  0  0  0  0  0  0
  145.4103  154.0169  132.9343 H   0  0  0  0  0  0  0  0  0  0  0  0
  144.9743  151.2554  132.3325 H   0  0  0  0  0  0  0  0  0  0  0  0
  143.1914  149.4831  132.2454 H   0  0  0  0  0  0  0  0  0  0  0  0
  140.2489  152.3737  133.6565 H   0  0  0  0  0  0  0  0  0  0  0  0
  140.3467  156.7224  132.0587 H   0  0  0  0  0  0  0  0  0  0  0  0
  138.6921  156.0258  131.9022 H   0  0  0  0  0  0  0  0  0  0  0  0
  138.4052  158.0870  133.0669 H   0  0  0  0  0  0  0  0  0  0  0  0
  138.3361  156.7592  134.3312 H   0  0  0  0  0  0  0  0  0  0  0  0
  141.1047  158.9312  132.8801 H   0  0  0  0  0  0  0  0  0  0  0  0
  139.6956  159.8646  133.5138 H   0  0  0  0  0  0  0  0  0  0  0  0
  142.3262  160.3696  134.1846 H   0  0  0  0  0  0  0  0  0  0  0  0
  140.9028  160.7919  135.2113 H   0  0  0  0  0  0  0  0  0  0  0  0
  141.2130  157.9117  137.2666 H   0  0  0  0  0  0  0  0  0  0  0  0
  140.5622  159.6108  137.1845 H   0  0  0  0  0  0  0  0  0  0  0  0
  139.2645  157.2974  136.2695 H   0  0  0  0  0  0  0  0  0  0  0  0
  138.8459  158.9972  135.8638 H   0  0  0  0  0  0  0  0  0  0  0  0
  1  2  1  0
  2  3  2  0
  2  4  1  0
  4  5  2  0
  5  6  1  0
  6  7  2  0
  7  8  1  0
  8  9  2  0
  9 10  1  0
 10 11  1  0
 10 12  1  0
 10 13  1  0
  9 14  1  0
 14 15  2  0
 15 16  1  0
 16 17  1  0
 17 18  2  0
 17 19  1  0
 19 20  1  0
 20 21  1  0
 21 22  1  0
 22 23  1  0
 23 24  1  0
 24 25  1  0
 25 26  1  0
 26 27  1  0
 16  4  1  0
 27 22  1  0
 15  6  1  0
  1 28  1  0
  5 29  1  0
  7 30  1  0
  8 31  1  0
 14 32  1  0
 20 33  1  0
 20 34  1  0
 21 35  1  0
 21 36  1  0
 23 37  1  0
 23 38  1  0
 24 39  1  0
 24 40  1  0
 26 41  1  0
 26 42  1  0
 27 43  1  0
 27 44  1  0
M  CHG  1   1  -1
M  END
>  <UniqueID>  (2) 
2

>  <SMILES>  (2) 
[NH-]C(=O)c1cc2ccc(C(F)(F)F)cc2n1C(=O)OCCN1CCOCC1

>  <Energy>  (2) 
94.64201818870673

>  <Genealogy>  (2) 
[NH-]C(=O)c1cc2ccc(C(F)(F)F)cc2n1C(=O)OCCN1CCOCC1 (protonated)
[NH-]C(=O)c1cc2ccc(C(F)(F)F)cc2n1C(=O)OCCN1CCOCC1 (3D coordinates assigned)
[NH-]C(=O)c1cc2ccc(C(F)(F)F)cc2n1C(=O)OCCN1CCOCC1 (nonaromatic ring conformer: 94.64201818870673 kcal/mol)

>  <smiles>  (2) 
NC(=O)c1cc2ccc(C(F)(F)F)cc2n1C(=O)OCCN1CCOCC1

>  <score_type>  (2) 
oracle

>  <origin>  (2) 
adg

>  <m_score__min__energy>  (2) 
-6.5800000000000001

>  <m_primary>  (2) 
energy

$$$$
2:0
     RDKit          3D

 66 69  0  0  0  0  0  0  0  0999 V2000
  145.6720  162.7190  134.5110 C   0  0  0  0  0  0  0  0  0  0  0  0
  145.4160  161.4750  134.1090 C   0  0  0  0  0  0  0  0  0  0  0  0
  146.4180  160.5510  133.7800 O   0  0  0  0  0  0  0  0  0  0  0  0
  146.2750  159.4660  132.9020 C   0  0  0  0  0  0  0  0  0  0  0  0
  145.1960  159.2830  132.2750 O   0  0  0  0  0  0  0  0  0  0  0  0
  147.3780  158.5700  132.7040 N   0  0  0  0  0  0  0  0  0  0  0  0
  148.5930  158.8330  132.1430 C   0  0  0  0  0  0  0  0  0  0  0  0
  149.0950  160.1610  131.7310 C   0  0  0  0  0  0  0  0  0  0  0  0
  148.2140  161.2740  131.5970 N   0  0  0  0  0  0  0  0  0  0  0  0
  150.3280  160.3260  131.5320 O   0  0  0  0  0  0  0  0  0  0  0  0
  149.3600  157.6700  132.0750 C   0  0  0  0  0  0  0  0  0  0  0  0
  148.5750  156.6820  132.6240 C   0  0  0  0  0  0  0  0  0  0  0  0
  148.8370  155.3280  132.8100 C   0  0  0  0  0  0  0  0  0  0  0  0
  147.8300  154.5350  133.3850 C   0  0  0  0  0  0  0  0  0  0  0  0
  146.5810  155.1010  133.7430 C   0  0  0  0  0  0  0  0  0  0  0  0
  145.5570  154.2810  134.3360 N   0  0  0  0  0  0  0  0  0  0  0  0
  144.8870  154.7110  135.5700 C   0  0  0  0  0  0  0  0  0  0  0  0
  143.3990  154.3080  135.5680 C   0  0  0  0  0  0  0  0  0  0  0  0
  142.8500  154.0490  134.1370 C   0  0  0  0  0  0  0  0  0  0  0  0
  143.6740  152.8980  133.4810 C   0  0  0  0  0  0  0  0  0  0  0  0
  145.1930  152.9880  133.7480 C   0  0  0  0  0  0  0  0  0  0  0  0
  141.3520  153.6750  134.1910 C   0  0  0  0  0  0  0  0  0  0  0  0
  140.6450  154.6550  133.2670 C   0  0  0  0  0  0  0  0  0  0  0  0
  141.5070  155.8360  133.1370 N   0  0  1  0  0  0  0  0  0  0  0  0
  141.2330  156.8530  134.1290 C   0  0  0  0  0  0  0  0  0  0  0  0
  141.1820  156.5610  135.3560 O   0  0  0  0  0  0  0  0  0  0  0  0
  141.1070  158.1860  133.7070 O   0  0  0  0  0  0  0  0  0  0  0  0
  141.7160  159.3300  134.3210 C   0  0  0  0  0  0  0  0  0  0  0  0
  141.5090  160.5200  133.3720 C   0  0  0  0  0  0  0  0  0  0  0  0
  143.2300  159.1010  134.5070 C   0  0  0  0  0  0  0  0  0  0  0  0
  141.0440  159.6480  135.6710 C   0  0  0  0  0  0  0  0  0  0  0  0
  142.8840  155.3410  133.2750 C   0  0  0  0  0  0  0  0  0  0  0  0
  146.3550  156.4800  133.5420 C   0  0  0  0  0  0  0  0  0  0  0  0
  147.3840  157.2500  132.9910 C   0  0  0  0  0  0  0  0  0  0  0  0
  144.8431  163.3995  134.7556 H   0  0  0  0  0  0  0  0  0  0  0  0
  146.7123  163.0657  134.5983 H   0  0  0  0  0  0  0  0  0  0  0  0
  144.3659  161.1568  134.0312 H   0  0  0  0  0  0  0  0  0  0  0  0
  147.6850  161.6420  132.4180 H   0  0  0  0  0  0  0  0  0  0  0  0
  150.3768  157.5648  131.6687 H   0  0  0  0  0  0  0  0  0  0  0  0
  149.8031  154.8920  132.5158 H   0  0  0  0  0  0  0  0  0  0  0  0
  148.0127  153.4643  133.5591 H   0  0  0  0  0  0  0  0  0  0  0  0
  145.3847  154.2405  136.4308 H   0  0  0  0  0  0  0  0  0  0  0  0
  144.9501  155.8072  135.6360 H   0  0  0  0  0  0  0  0  0  0  0  0
  143.2824  153.3891  136.1614 H   0  0  0  0  0  0  0  0  0  0  0  0
  142.8275  155.1443  135.9970 H   0  0  0  0  0  0  0  0  0  0  0  0
  143.3082  151.9397  133.8783 H   0  0  0  0  0  0  0  0  0  0  0  0
  143.5343  152.9837  132.3933 H   0  0  0  0  0  0  0  0  0  0  0  0
  145.4826  152.1851  134.4418 H   0  0  0  0  0  0  0  0  0  0  0  0
  145.7201  152.8834  132.7882 H   0  0  0  0  0  0  0  0  0  0  0  0
  141.2023  152.6429  133.8411 H   0  0  0  0  0  0  0  0  0  0  0  0
  140.9582  153.7305  135.2166 H   0  0  0  0  0  0  0  0  0  0  0  0
  140.4870  154.1945  132.2806 H   0  0  0  0  0  0  0  0  0  0  0  0
  139.6627  154.9343  133.6756 H   0  0  0  0  0  0  0  0  0  0  0  0
  141.3730  156.2600  132.1890 H   0  0  0  0  0  0  0  0  0  0  0  0
  141.3498  161.4353  133.9610 H   0  0  0  0  0  0  0  0  0  0  0  0
  142.3994  160.6424  132.7377 H   0  0  0  0  0  0  0  0  0  0  0  0
  140.6296  160.3345  132.7377 H   0  0  0  0  0  0  0  0  0  0  0  0
  143.4662  159.0653  135.5807 H   0  0  0  0  0  0  0  0  0  0  0  0
  143.5174  158.1492  134.0365 H   0  0  0  0  0  0  0  0  0  0  0  0
  143.7860  159.9253  134.0365 H   0  0  0  0  0  0  0  0  0  0  0  0
  141.7053  159.3351  136.4925 H   0  0  0  0  0  0  0  0  0  0  0  0
  140.8577  160.7298  135.7421 H   0  0  0  0  0  0  0  0  0  0  0  0
  140.0894  159.1061  135.7421 H   0  0  0  0  0  0  0  0  0  0  0  0
  143.3001  155.1156  132.2820 H   0  0  0  0  0  0  0  0  0  0  0  0
  143.5157  156.1025  133.7557 H   0  0  0  0  0  0  0  0  0  0  0  0
  145.3921  156.9380  133.8125 H   0  0  0  0  0  0  0  0  0  0  0  0
  1  2  2  0
  2  3  1  0
  3  4  1  0
  4  5  2  0
  4  6  1  0
  6  7  1  0
  7  8  1  0
  8  9  1  0
  8 10  2  0
  7 11  2  0
 11 12  1  0
 12 13  2  0
 13 14  1  0
 14 15  2  0
 15 16  1  0
 16 17  1  0
 17 18  1  0
 18 19  1  0
 19 20  1  0
 20 21  1  0
 19 22  1  0
 22 23  1  0
 23 24  1  0
 24 25  1  0
 25 26  2  0
 25 27  1  0
 27 28  1  0
 28 29  1  0
 28 30  1  0
 28 31  1  0
 24 32  1  0
 15 33  1  0
 33 34  2  0
 34  6  1  0
 34 12  1  0
 21 16  1  0
 32 19  1  0
  1 35  1  0
  1 36  1  0
  2 37  1  0
  9 38  1  0
 11 39  1  0
 13 40  1  0
 14 41  1  0
 17 42  1  0
 17 43  1  0
 18 44  1  0
 18 45  1  0
 20 46  1  0
 20 47  1  0
 21 48  1  0
 21 49  1  0
 22 50  1  0
 22 51  1  0
 23 52  1  0
 23 53  1  0
 24 54  1  6
 29 55  1  0
 29 56  1  0
 29 57  1  0
 30 58  1  0
 30 59  1  0
 30 60  1  0
 31 61  1  0
 31 62  1  0
 31 63  1  0
 32 64  1  0
 32 65  1  0
 33 66  1  0
M  CHG  2   9  -1  24   1
M  END
>  <UniqueID>  (3) 
3

>  <SMILES>  (3) 
C=COC(=O)n1c(C([NH-])=O)cc2ccc(N3CCC4(CC3)CC[N@@H+](C(=O)OC(C)(C)C)C4)cc21

>  <Energy>  (3) 
122.06797122025576

>  <Genealogy>  (3) 
C=COC(=O)n1c(C([NH-])=O)cc2ccc(N3CCC4(CC3)CC[NH+](C(=O)OC(C)(C)C)C4)cc21 (protonated)
C=COC(=O)n1c(C([NH-])=O)cc2ccc(N3CCC4(CC3)CC[N@@H+](C(=O)OC(C)(C)C)C4)cc21 (chirality)
C=COC(=O)n1c(C([NH-])=O)cc2ccc(N3CCC4(CC3)CC[N@@H+](C(=O)OC(C)(C)C)C4)cc21 (3D coordinates assigned)
C=COC(=O)n1c(C([NH-])=O)cc2ccc(N3CCC4(CC3)CC[N@@H+](C(=O)OC(C)(C)C)C4)cc21 (nonaromatic ring conformer: 122.06797122025576 kcal/mol)

>  <smiles>  (3) 
C=COC(=O)n1c(C(N)=O)cc2ccc(N3CCC4(CCN(C(=O)OC(C)(C)C)C4)CC3)cc21

>  <score_type>  (3) 
oracle

>  <origin>  (3) 
adg

>  <m_score__min__energy>  (3) 
-8.6500000000000004

>  <m_primary>  (3) 
energy

$$$$
3:0
     RDKit          3D

 47 48  0  0  0  0  0  0  0  0999 V2000
  139.7640  157.4930  136.2010 C   0  0  0  0  0  0  0  0  0  0  0  0
  140.0900  157.5400  134.9060 C   0  0  0  0  0  0  0  0  0  0  0  0
  141.3970  158.0400  134.5490 C   0  0  0  0  0  0  0  0  0  0  0  0
  142.4860  158.4560  134.2410 C   0  0  0  0  0  0  0  0  0  0  0  0
  143.7810  158.9580  133.8710 C   0  0  0  0  0  0  0  0  0  0  0  0
  143.9900  160.3530  133.7650 C   0  0  0  0  0  0  0  0  0  0  0  0
  145.2480  160.8570  133.3900 C   0  0  0  0  0  0  0  0  0  0  0  0
  146.2690  159.9440  133.1400 C   0  0  0  0  0  0  0  0  0  0  0  0
  147.5670  160.1530  132.7320 C   0  0  0  0  0  0  0  0  0  0  0  0
  148.1270  158.8810  132.6140 C   0  0  0  0  0  0  0  0  0  0  0  0
  149.5320  158.6360  132.2230 C   0  0  0  0  0  0  0  0  0  0  0  0
  150.0340  157.3030  132.1790 N   0  0  0  0  0  0  0  0  0  0  0  0
  150.2940  159.5910  131.9170 O   0  0  0  0  0  0  0  0  0  0  0  0
  147.2120  157.9260  132.9430 N   0  0  0  0  0  0  0  0  0  0  0  0
  147.3880  156.5020  132.9300 C   0  0  0  0  0  0  0  0  0  0  0  0
  147.2700  155.8670  131.8470 O   0  0  0  0  0  0  0  0  0  0  0  0
  147.7610  155.7670  134.1810 C   0  0  0  0  0  0  0  0  0  0  0  0
  146.3900  154.6990  134.7130 P   0  0  0  0  0  0  0  0  0  0  0  0
  145.9010  153.8730  133.5450 O   0  0  0  0  0  0  0  0  0  0  0  0
  146.9160  153.6740  135.9510 O   0  0  0  0  0  0  0  0  0  0  0  0
  145.1230  155.6620  135.2860 O   0  0  0  0  0  0  0  0  0  0  0  0
  146.0790  158.5900  133.2560 C   0  0  0  0  0  0  0  0  0  0  0  0
  144.8330  158.0600  133.6070 C   0  0  0  0  0  0  0  0  0  0  0  0
  139.1670  157.1230  133.8680 N   0  0  0  0  0  0  0  0  0  0  0  0
  138.2770  158.1130  133.2410 C   0  0  0  0  0  0  0  0  0  0  0  0
  138.8370  158.5710  131.8980 C   0  0  0  0  0  0  0  0  0  0  0  0
  139.1430  155.7370  133.3670 C   0  0  0  0  0  0  0  0  0  0  0  0
  140.5280  155.1000  133.4420 C   0  0  0  0  0  0  0  0  0  0  0  0
  138.7762  157.1174  136.5062 H   0  0  0  0  0  0  0  0  0  0  0  0
  140.4835  157.8299  136.9618 H   0  0  0  0  0  0  0  0  0  0  0  0
  143.1637  161.0475  133.9771 H   0  0  0  0  0  0  0  0  0  0  0  0
  145.4202  161.9394  133.2970 H   0  0  0  0  0  0  0  0  0  0  0  0
  148.0583  161.1182  132.5398 H   0  0  0  0  0  0  0  0  0  0  0  0
  149.4260  156.5100  131.8730 H   0  0  0  0  0  0  0  0  0  0  0  0
  148.6498  155.1484  133.9878 H   0  0  0  0  0  0  0  0  0  0  0  0
  147.9771  156.4966  134.9754 H   0  0  0  0  0  0  0  0  0  0  0  0
  144.6794  156.9729  133.6748 H   0  0  0  0  0  0  0  0  0  0  0  0
  137.2873  157.6595  133.0833 H   0  0  0  0  0  0  0  0  0  0  0  0
  138.1966  158.9858  133.9056 H   0  0  0  0  0  0  0  0  0  0  0  0
  139.6784  159.2591  132.0670 H   0  0  0  0  0  0  0  0  0  0  0  0
  139.1868  157.6968  131.3293 H   0  0  0  0  0  0  0  0  0  0  0  0
  138.0496  159.0873  131.3293 H   0  0  0  0  0  0  0  0  0  0  0  0
  138.4430  155.1469  133.9768 H   0  0  0  0  0  0  0  0  0  0  0  0
  138.8225  155.7520  132.3148 H   0  0  0  0  0  0  0  0  0  0  0  0
  140.8144  154.9683  134.4959 H   0  0  0  0  0  0  0  0  0  0  0  0
  140.5086  154.1204  132.9421 H   0  0  0  0  0  0  0  0  0  0  0  0
  141.2592  155.7523  132.9421 H   0  0  0  0  0  0  0  0  0  0  0  0
  1  2  2  0
  2  3  1  0
  3  4  3  0
  4  5  1  0
  5  6  2  0
  6  7  1  0
  7  8  2  0
  8  9  1  0
  9 10  2  0
 10 11  1  0
 11 12  1  0
 11 13  2  0
 10 14  1  0
 14 15  1  0
 15 16  2  0
 15 17  1  0
 17 18  1  0
 18 19  2  0
 18 20  1  0
 18 21  1  0
 14 22  1  0
 22 23  2  0
  2 24  1  0
 24 25  1  0
 25 26  1  0
 24 27  1  0
 27 28  1  0
 23  5  1  0
 22  8  1  0
  1 29  1  0
  1 30  1  0
  6 31  1  0
  7 32  1  0
  9 33  1  0
 12 34  1  0
 17 35  1  0
 17 36  1  0
 23 37  1  0
 25 38  1  0
 25 39  1  0
 26 40  1  0
 26 41  1  0
 26 42  1  0
 27 43  1  0
 27 44  1  0
 28 45  1  0
 28 46  1  0
 28 47  1  0
M  CHG  3  12  -1  20  -1  21  -1
M  END
>  <UniqueID>  (4) 
4

>  <SMILES>  (4) 
C=C(C#Cc1ccc2cc(C([NH-])=O)n(C(=O)CP(=O)([O-])[O-])c2c1)N(CC)CC

>  <Energy>  (4) 
71.89682742254531

>  <Genealogy>  (4) 
C=C(C#Cc1ccc2cc(C([NH-])=O)n(C(=O)CP(=O)([O-])[O-])c2c1)N(CC)CC (protonated)
C=C(C#Cc1ccc2cc(C([NH-])=O)n(C(=O)CP(=O)([O-])[O-])c2c1)N(CC)CC (3D coordinates assigned)
C=C(C#Cc1ccc2cc(C([NH-])=O)n(C(=O)CP(=O)([O-])[O-])c2c1)N(CC)CC (optimized conformer: 71.89682742254531 kcal/mol)

>  <smiles>  (4) 
C=C(C#Cc1ccc2cc(C(N)=O)n(C(=O)CP(=O)(O)O)c2c1)N(CC)CC

>  <score_type>  (4) 
oracle

>  <origin>  (4) 
adg

>  <m_score__min__energy>  (4) 
-7.9800000000000004

>  <m_primary>  (4) 
energy

$$$$
4:0
     RDKit          3D

 36 37  0  0  0  0  0  0  0  0999 V2000
  143.3800  159.8880  133.6690 C   0  0  0  0  0  0  0  0  0  0  0  0
  144.7900  160.2780  133.7780 N   0  0  0  0  0  0  0  0  0  0  0  0
  145.1160  161.6670  134.1240 C   0  0  0  0  0  0  0  0  0  0  0  0
  145.8460  159.3080  133.5430 C   0  0  0  0  0  0  0  0  0  0  0  0
  147.1850  159.7350  133.3140 C   0  0  0  0  0  0  0  0  0  0  0  0
  148.2120  158.8060  133.0820 C   0  0  0  0  0  0  0  0  0  0  0  0
  147.8870  157.4560  133.0920 C   0  0  0  0  0  0  0  0  0  0  0  0
  148.6820  156.3560  132.8680 C   0  0  0  0  0  0  0  0  0  0  0  0
  147.8340  155.2590  132.9890 C   0  0  0  0  0  0  0  0  0  0  0  0
  148.2970  153.8610  132.8870 C   0  0  0  0  0  0  0  0  0  0  0  0
  147.7780  152.8440  133.7450 N   0  0  0  0  0  0  0  0  0  0  0  0
  149.2110  153.5710  132.0700 O   0  0  0  0  0  0  0  0  0  0  0  0
  146.5600  155.6630  133.2620 N   0  0  0  0  0  0  0  0  0  0  0  0
  145.3850  154.8370  133.3310 C   0  0  0  0  0  0  0  0  0  0  0  0
  144.5280  154.8740  132.4060 O   0  0  0  0  0  0  0  0  0  0  0  0
  145.1970  153.9900  134.4280 O   0  0  0  0  0  0  0  0  0  0  0  0
  145.3270  154.4330  135.7740 C   0  0  0  0  0  0  0  0  0  0  0  0
  146.7010  154.1260  136.2640 C   0  0  0  0  0  0  0  0  0  0  0  0
  146.9650  152.9870  136.7320 O   0  0  0  0  0  0  0  0  0  0  0  0
  147.7010  155.0890  136.1920 O   0  0  0  0  0  0  0  0  0  0  0  0
  146.6110  157.0140  133.3260 C   0  0  0  0  0  0  0  0  0  0  0  0
  145.5620  157.9180  133.5370 C   0  0  0  0  0  0  0  0  0  0  0  0
  142.9533  159.7700  134.6760 H   0  0  0  0  0  0  0  0  0  0  0  0
  142.8253  160.6664  133.1247 H   0  0  0  0  0  0  0  0  0  0  0  0
  143.3041  158.9352  133.1247 H   0  0  0  0  0  0  0  0  0  0  0  0
  145.1416  161.7760  135.2183 H   0  0  0  0  0  0  0  0  0  0  0  0
  146.0997  161.9277  133.7065 H   0  0  0  0  0  0  0  0  0  0  0  0
  144.3510  162.3381  133.7065 H   0  0  0  0  0  0  0  0  0  0  0  0
  147.4186  160.8099  133.3189 H   0  0  0  0  0  0  0  0  0  0  0  0
  149.2443  159.1381  132.8976 H   0  0  0  0  0  0  0  0  0  0  0  0
  149.7584  156.3456  132.6415 H   0  0  0  0  0  0  0  0  0  0  0  0
  148.0890  151.8540  133.6340 H   0  0  0  0  0  0  0  0  0  0  0  0
  147.1390  153.0790  134.5370 H   0  0  0  0  0  0  0  0  0  0  0  0
  145.1539  155.5182  135.8219 H   0  0  0  0  0  0  0  0  0  0  0  0
  144.5876  153.9173  136.4043 H   0  0  0  0  0  0  0  0  0  0  0  0
  144.5353  157.5563  133.6954 H   0  0  0  0  0  0  0  0  0  0  0  0
  1  2  1  0
  2  3  1  0
  2  4  1  0
  4  5  2  0
  5  6  1  0
  6  7  2  0
  7  8  1  0
  8  9  2  0
  9 10  1  0
 10 11  1  0
 10 12  2  0
  9 13  1  0
 13 14  1  0
 14 15  2  0
 14 16  1  0
 16 17  1  0
 17 18  1  0
 18 19  2  0
 18 20  1  0
 13 21  1  0
 21 22  2  0
 22  4  1  0
 21  7  1  0
  1 23  1  0
  1 24  1  0
  1 25  1  0
  3 26  1  0
  3 27  1  0
  3 28  1  0
  5 29  1  0
  6 30  1  0
  8 31  1  0
 11 32  1  0
 11 33  1  0
 17 34  1  0
 17 35  1  0
 22 36  1  0
M  CHG  1  20  -1
M  END
>  <UniqueID>  (5) 
5

>  <SMILES>  (5) 
CN(C)c1ccc2cc(C(N)=O)n(C(=O)OCC(=O)[O-])c2c1

>  <Energy>  (5) 
73.58629140730717

>  <Genealogy>  (5) 
CN(C)c1ccc2cc(C(N)=O)n(C(=O)OCC(=O)[O-])c2c1 (protonated)
CN(C)c1ccc2cc(C(N)=O)n(C(=O)OCC(=O)[O-])c2c1 (3D coordinates assigned)
CN(C)c1ccc2cc(C(N)=O)n(C(=O)OCC(=O)[O-])c2c1 (optimized conformer: 73.58629140730717 kcal/mol)

>  <smiles>  (5) 
CN(C)c1ccc2cc(C(N)=O)n(C(=O)OCC(=O)O)c2c1

>  <score_type>  (5) 
oracle

>  <origin>  (5) 
adg

>  <m_score__min__energy>  (5) 
-6.2999999999999998

>  <m_primary>  (5) 
energy

$$$$
5:0
     RDKit          3D

 33 34  0  0  0  0  0  0  0  0999 V2000
  149.5720  161.4180  130.8580 C   0  0  0  0  0  0  0  0  0  0  0  0
  148.7460  160.1650  130.5430 C   0  0  2  0  0  0  0  0  0  0  0  0
  147.4240  160.4980  130.2010 O   0  0  0  0  0  0  0  0  0  0  0  0
  148.7700  159.2140  131.6670 N   0  0  0  0  0  0  0  0  0  0  0  0
  150.0060  158.4990  131.9800 C   0  0  0  0  0  0  0  0  0  0  0  0
  147.5540  158.8030  132.3090 C   0  0  0  0  0  0  0  0  0  0  0  0
  147.2700  157.4270  132.4720 C   0  0  0  0  0  0  0  0  0  0  0  0
  146.0700  157.0130  133.0760 C   0  0  0  0  0  0  0  0  0  0  0  0
  145.1820  157.9970  133.5010 C   0  0  0  0  0  0  0  0  0  0  0  0
  143.9420  157.8750  134.0880 C   0  0  0  0  0  0  0  0  0  0  0  0
  143.4980  159.1810  134.2840 C   0  0  0  0  0  0  0  0  0  0  0  0
  142.2310  159.5100  134.9720 C   0  0  0  0  0  0  0  0  0  0  0  0
  141.1700  160.1660  134.2820 N   0  0  0  0  0  0  0  0  0  0  0  0
  142.1040  159.2550  136.2000 O   0  0  0  0  0  0  0  0  0  0  0  0
  144.4200  160.0750  133.8280 N   0  0  0  0  0  0  0  0  0  0  0  0
  144.3080  161.5070  133.7690 C   0  0  0  0  0  0  0  0  0  0  0  0
  143.2430  162.0450  133.3700 O   0  0  0  0  0  0  0  0  0  0  0  0
  145.3850  162.3110  134.1250 O   0  0  0  0  0  0  0  0  0  0  0  0
  145.4470  159.3340  133.3560 C   0  0  0  0  0  0  0  0  0  0  0  0
  146.6260  159.7730  132.7410 C   0  0  0  0  0  0  0  0  0  0  0  0
  149.6523  161.5397  131.9483 H   0  0  0  0  0  0  0  0  0  0  0  0
  150.5780  161.3122  130.4258 H   0  0  0  0  0  0  0  0  0  0  0  0
  149.0783  162.3009  130.4258 H   0  0  0  0  0  0  0  0  0  0  0  0
  149.2084  159.6755  129.6732 H   0  0  0  0  0  0  0  0  0  0  0  0
  147.4460  161.3410  129.6780 H   0  0  0  0  0  0  0  0  0  0  0  0
  150.1238  158.4308  133.0715 H   0  0  0  0  0  0  0  0  0  0  0  0
  149.9624  157.4866  131.5520 H   0  0  0  0  0  0  0  0  0  0  0  0
  150.8619  159.0415  131.5520 H   0  0  0  0  0  0  0  0  0  0  0  0
  147.9935  156.6752  132.1235 H   0  0  0  0  0  0  0  0  0  0  0  0
  145.8401  155.9455  133.2085 H   0  0  0  0  0  0  0  0  0  0  0  0
  143.4147  156.9449  134.3468 H   0  0  0  0  0  0  0  0  0  0  0  0
  141.3510  161.0150  133.7030 H   0  0  0  0  0  0  0  0  0  0  0  0
  146.8230  160.8458  132.5987 H   0  0  0  0  0  0  0  0  0  0  0  0
  1  2  1  0
  2  3  1  0
  2  4  1  0
  4  5  1  0
  4  6  1  0
  6  7  2  0
  7  8  1  0
  8  9  2  0
  9 10  1  0
 10 11  2  0
 11 12  1  0
 12 13  1  0
 12 14  2  0
 11 15  1  0
 15 16  1  0
 16 17  2  0
 16 18  1  0
 15 19  1  0
 19 20  2  0
 20  6  1  0
 19  9  1  0
  1 21  1  0
  1 22  1  0
  1 23  1  0
  2 24  1  6
  3 25  1  0
  5 26  1  0
  5 27  1  0
  5 28  1  0
  7 29  1  0
  8 30  1  0
 10 31  1  0
 13 32  1  0
 20 33  1  0
M  CHG  2  13  -1  18  -1
M  END
>  <UniqueID>  (6) 
6

>  <SMILES>  (6) 
C[C@H](O)N(C)c1ccc2cc(C([NH-])=O)n(C(=O)[O-])c2c1

>  <Energy>  (6) 
76.69341586371621

>  <Genealogy>  (6) 
CC(O)N(C)c1ccc2cc(C([NH-])=O)n(C(=O)[O-])c2c1 (protonated)
C[C@H](O)N(C)c1ccc2cc(C([NH-])=O)n(C(=O)[O-])c2c1 (chirality)
C[C@H](O)N(C)c1ccc2cc(C([NH-])=O)n(C(=O)[O-])c2c1 (3D coordinates assigned)
C[C@H](O)N(C)c1ccc2cc(C([NH-])=O)n(C(=O)[O-])c2c1 (optimized conformer: 76.69341586371621 kcal/mol)

>  <smiles>  (6) 
CC(O)N(C)c1ccc2cc(C(N)=O)n(C(=O)O)c2c1

>  <score_type>  (6) 
oracle

>  <origin>  (6) 
adg

>  <m_score__min__energy>  (6) 
-6.0199999999999996

>  <m_primary>  (6) 
energy

$$$$
6:0
     RDKit          3D

 33 34  0  0  0  0  0  0  0  0999 V2000
  148.9400  154.0720  133.0610 C   0  0  0  0  0  0  0  0  0  0  0  0
  147.9240  154.8930  132.4110 N   0  0  0  0  0  0  0  0  0  0  0  0
  147.7560  156.3000  132.6640 C   0  0  0  0  0  0  0  0  0  0  0  0
  148.8500  157.2050  132.5890 C   0  0  0  0  0  0  0  0  0  0  0  0
  148.6640  158.5770  132.8270 C   0  0  0  0  0  0  0  0  0  0  0  0
  147.3840  159.0180  133.1430 C   0  0  0  0  0  0  0  0  0  0  0  0
  146.9220  160.2900  133.3910 C   0  0  0  0  0  0  0  0  0  0  0  0
  145.5580  160.1460  133.6360 C   0  0  0  0  0  0  0  0  0  0  0  0
  144.6770  161.2660  134.0270 C   0  0  0  0  0  0  0  0  0  0  0  0
  143.2640  161.1410  133.8880 N   0  0  0  0  0  0  0  0  0  0  0  0
  145.1610  162.3500  134.4490 O   0  0  0  0  0  0  0  0  0  0  0  0
  145.1900  158.8370  133.5370 N   0  0  0  0  0  0  0  0  0  0  0  0
  143.8690  158.2850  133.6420 C   0  0  0  0  0  0  0  0  0  0  0  0
  143.2870  157.8470  132.6120 O   0  0  0  0  0  0  0  0  0  0  0  0
  143.2270  158.2530  134.8860 O   0  0  0  0  0  0  0  0  0  0  0  0
  141.9770  157.6060  135.1080 C   0  0  0  0  0  0  0  0  0  0  0  0
  140.8520  158.7010  136.0290 P   0  0  0  0  0  0  0  0  0  0  0  0
  140.9940  160.1150  135.5150 O   0  0  0  0  0  0  0  0  0  0  0  0
  139.2520  158.1910  135.8320 O   0  0  0  0  0  0  0  0  0  0  0  0
  141.2530  158.6580  137.6710 O   0  0  0  0  0  0  0  0  0  0  0  0
  146.3200  158.1590  133.2370 C   0  0  0  0  0  0  0  0  0  0  0  0
  146.4720  156.7900  132.9880 C   0  0  0  0  0  0  0  0  0  0  0  0
  148.8360  154.1561  134.1528 H   0  0  0  0  0  0  0  0  0  0  0  0
  148.8105  153.0219  132.7601 H   0  0  0  0  0  0  0  0  0  0  0  0
  149.9395  154.4191  132.7601 H   0  0  0  0  0  0  0  0  0  0  0  0
  147.2860  154.4230  131.7280 H   0  0  0  0  0  0  0  0  0  0  0  0
  149.8530  156.8268  132.3419 H   0  0  0  0  0  0  0  0  0  0  0  0
  149.5064  159.2816  132.7651 H   0  0  0  0  0  0  0  0  0  0  0  0
  147.5055  161.2225  133.3950 H   0  0  0  0  0  0  0  0  0  0  0  0
  142.7650  160.2860  134.2220 H   0  0  0  0  0  0  0  0  0  0  0  0
  141.5230  157.3519  134.1388 H   0  0  0  0  0  0  0  0  0  0  0  0
  142.1472  156.6922  135.6962 H   0  0  0  0  0  0  0  0  0  0  0  0
  145.6091  156.1100  133.0436 H   0  0  0  0  0  0  0  0  0  0  0  0
  1  2  1  0
  2  3  1  0
  3  4  2  0
  4  5  1  0
  5  6  2  0
  6  7  1  0
  7  8  2  0
  8  9  1  0
  9 10  1  0
  9 11  2  0
  8 12  1  0
 12 13  1  0
 13 14  2  0
 13 15  1  0
 15 16  1  0
 16 17  1  0
 17 18  2  0
 17 19  1  0
 17 20  1  0
 12 21  1  0
 21 22  2  0
 22  3  1  0
 21  6  1  0
  1 23  1  0
  1 24  1  0
  1 25  1  0
  2 26  1  0
  4 27  1  0
  5 28  1  0
  7 29  1  0
 10 30  1  0
 16 31  1  0
 16 32  1  0
 22 33  1  0
M  CHG  3  10  -1  19  -1  20  -1
M  END
>  <UniqueID>  (7) 
7

>  <SMILES>  (7) 
CNc1ccc2cc(C([NH-])=O)n(C(=O)OCP(=O)([O-])[O-])c2c1

>  <Energy>  (7) 
65.77540506536806

>  <Genealogy>  (7) 
CNc1ccc2cc(C([NH-])=O)n(C(=O)OCP(=O)([O-])[O-])c2c1 (protonated)
CNc1ccc2cc(C([NH-])=O)n(C(=O)OCP(=O)([O-])[O-])c2c1 (3D coordinates assigned)
CNc1ccc2cc(C([NH-])=O)n(C(=O)OCP(=O)([O-])[O-])c2c1 (optimized conformer: 65.77540506536806 kcal/mol)

>  <smiles>  (7) 
CNc1ccc2cc(C(N)=O)n(C(=O)OCP(=O)(O)O)c2c1

>  <score_type>  (7) 
oracle

>  <origin>  (7) 
adg

>  <m_score__min__energy>  (7) 
-6.21

>  <m_primary>  (7) 
energy

$$$$
7:0
     RDKit          3D

 33 34  0  0  0  0  0  0  0  0999 V2000
  144.9910  162.5940  134.1210 C   0  0  0  0  0  0  0  0  0  0  0  0
  144.6510  161.4460  133.9720 C   0  0  0  0  0  0  0  0  0  0  0  0
  144.2460  160.0770  133.7940 C   0  0  0  0  0  0  0  0  0  0  0  0
  145.2210  159.0560  133.7330 C   0  0  0  0  0  0  0  0  0  0  0  0
  144.8360  157.7150  133.5720 C   0  0  0  0  0  0  0  0  0  0  0  0
  143.4760  157.4340  133.4690 C   0  0  0  0  0  0  0  0  0  0  0  0
  142.8310  156.2250  133.3460 C   0  0  0  0  0  0  0  0  0  0  0  0
  141.4740  156.5370  133.3050 C   0  0  0  0  0  0  0  0  0  0  0  0
  140.4170  155.5270  133.0990 C   0  0  0  0  0  0  0  0  0  0  0  0
  139.1060  155.9110  132.6860 N   0  0  0  0  0  0  0  0  0  0  0  0
  140.6940  154.3060  133.2290 O   0  0  0  0  0  0  0  0  0  0  0  0
  141.2820  157.8800  133.4100 N   0  0  0  0  0  0  0  0  0  0  0  0
  140.0290  158.5750  133.5440 C   0  0  0  0  0  0  0  0  0  0  0  0
  139.1110  158.0840  134.2540 O   0  0  0  0  0  0  0  0  0  0  0  0
  139.8210  159.7770  132.8550 O   0  0  0  0  0  0  0  0  0  0  0  0
  139.6150  159.8420  131.4430 C   0  0  0  0  0  0  0  0  0  0  0  0
  138.3980  159.0080  131.0180 C   0  0  0  0  0  0  0  0  0  0  0  0
  137.5770  158.6230  132.1650 N   0  0  0  0  0  0  0  0  0  0  0  0
  142.5200  158.4180  133.5080 C   0  0  0  0  0  0  0  0  0  0  0  0
  142.8750  159.7610  133.6870 C   0  0  0  0  0  0  0  0  0  0  0  0
  145.3010  163.6406  134.2568 H   0  0  0  0  0  0  0  0  0  0  0  0
  146.2876  159.3130  133.8121 H   0  0  0  0  0  0  0  0  0  0  0  0
  145.5858  156.9113  133.5286 H   0  0  0  0  0  0  0  0  0  0  0  0
  143.2887  155.2262  133.2917 H   0  0  0  0  0  0  0  0  0  0  0  0
  138.3670  155.1850  132.5550 H   0  0  0  0  0  0  0  0  0  0  0  0
  138.8830  156.9030  132.4520 H   0  0  0  0  0  0  0  0  0  0  0  0
  139.4502  160.8901  131.1528 H   0  0  0  0  0  0  0  0  0  0  0  0
  140.5064  159.4354  130.9429 H   0  0  0  0  0  0  0  0  0  0  0  0
  137.7845  159.6012  130.3240 H   0  0  0  0  0  0  0  0  0  0  0  0
  138.7641  158.0897  130.5356 H   0  0  0  0  0  0  0  0  0  0  0  0
  137.7930  159.2640  132.9640 H   0  0  0  0  0  0  0  0  0  0  0  0
  137.8370  157.6560  132.4610 H   0  0  0  0  0  0  0  0  0  0  0  0
  142.1072  160.5467  133.7426 H   0  0  0  0  0  0  0  0  0  0  0  0
  1  2  3  0
  2  3  1  0
  3  4  2  0
  4  5  1  0
  5  6  2  0
  6  7  1  0
  7  8  2  0
  8  9  1  0
  9 10  1  0
  9 11  2  0
  8 12  1  0
 12 13  1  0
 13 14  2  0
 13 15  1  0
 15 16  1  0
 16 17  1  0
 17 18  1  0
 12 19  1  0
 19 20  2  0
 20  3  1  0
 19  6  1  0
  1 21  1  0
  4 22  1  0
  5 23  1  0
  7 24  1  0
 10 25  1  0
 10 26  1  0
 16 27  1  0
 16 28  1  0
 17 29  1  0
 17 30  1  0
 18 31  1  0
 18 32  1  0
 20 33  1  0
M  END
>  <UniqueID>  (8) 
8

>  <SMILES>  (8) 
C#Cc1ccc2cc(C(N)=O)n(C(=O)OCCN)c2c1

>  <Energy>  (8) 
67.42929631312818

>  <Genealogy>  (8) 
C#Cc1ccc2cc(C(N)=O)n(C(=O)OCCN)c2c1 (3D coordinates assigned)
C#Cc1ccc2cc(C(N)=O)n(C(=O)OCCN)c2c1 (optimized conformer: 67.42929631312818 kcal/mol)

>  <smiles>  (8) 
C#Cc1ccc2cc(C(N)=O)n(C(=O)OCCN)c2c1

>  <score_type>  (8) 
oracle

>  <origin>  (8) 
adg

>  <m_score__min__energy>  (8) 
-7.0099999999999998

>  <m_primary>  (8) 
energy

$$$$
8:0
     RDKit          3D

 32 33  0  0  0  0  0  0  0  0999 V2000
  144.0300  159.9940  133.3780 N   0  0  0  0  0  0  0  0  0  0  0  0
  145.4050  159.6230  133.4230 C   0  0  0  0  0  0  0  0  0  0  0  0
  146.2890  160.5190  133.3700 O   0  0  0  0  0  0  0  0  0  0  0  0
  145.7790  158.1950  133.4860 C   0  0  0  0  0  0  0  0  0  0  0  0
  144.8510  157.1640  133.6060 C   0  0  0  0  0  0  0  0  0  0  0  0
  145.5860  156.0020  133.5400 C   0  0  0  0  0  0  0  0  0  0  0  0
  145.1720  154.6770  133.6260 C   0  0  0  0  0  0  0  0  0  0  0  0
  146.1550  153.6770  133.5640 C   0  0  0  0  0  0  0  0  0  0  0  0
  147.5270  154.0060  133.4280 C   0  0  0  0  0  0  0  0  0  0  0  0
  148.4950  152.9360  133.3920 N   0  0  0  0  0  0  0  0  0  0  0  0
  149.6080  152.8210  132.4440 C   0  0  0  0  0  0  0  0  0  0  0  0
  150.1780  151.3920  132.3920 C   0  0  2  0  0  0  0  0  0  0  0  0
  149.9810  150.6850  130.7610 S   0  0  0  0  0  0  0  0  0  0  0  0
  149.5740  150.5000  133.4400 C   0  0  0  0  0  0  0  0  0  0  0  0
  149.8910  150.7100  134.8130 N   0  0  0  0  0  0  0  0  0  0  0  0
  148.7530  149.5970  133.1210 O   0  0  0  0  0  0  0  0  0  0  0  0
  147.9050  155.3700  133.3380 C   0  0  0  0  0  0  0  0  0  0  0  0
  146.9030  156.3460  133.3890 C   0  0  0  0  0  0  0  0  0  0  0  0
  147.0410  157.6910  133.3570 N   0  0  0  0  0  0  0  0  0  0  0  0
  148.2760  158.4230  133.2900 C   0  0  0  0  0  0  0  0  0  0  0  0
  148.8880  158.5380  132.1950 O   0  0  0  0  0  0  0  0  0  0  0  0
  148.8200  158.9890  134.4360 O   0  0  0  0  0  0  0  0  0  0  0  0
  143.4180  159.6900  132.5880 H   0  0  0  0  0  0  0  0  0  0  0  0
  143.7618  157.2581  133.7277 H   0  0  0  0  0  0  0  0  0  0  0  0
  144.1082  154.4209  133.7390 H   0  0  0  0  0  0  0  0  0  0  0  0
  145.8556  152.6201  133.6219 H   0  0  0  0  0  0  0  0  0  0  0  0
  148.4080  152.1720  134.1010 H   0  0  0  0  0  0  0  0  0  0  0  0
  149.2499  153.0969  131.4412 H   0  0  0  0  0  0  0  0  0  0  0  0
  150.4105  153.4941  132.7800 H   0  0  0  0  0  0  0  0  0  0  0  0
  151.2532  151.4657  132.6124 H   0  0  0  0  0  0  0  0  0  0  0  0
  150.3810  149.9740  135.3680 H   0  0  0  0  0  0  0  0  0  0  0  0
  148.9621  155.6546  133.2305 H   0  0  0  0  0  0  0  0  0  0  0  0
  1  2  1  0
  2  3  2  0
  2  4  1  0
  4  5  2  0
  5  6  1  0
  6  7  2  0
  7  8  1  0
  8  9  2  0
  9 10  1  0
 10 11  1  0
 11 12  1  0
 12 13  1  0
 12 14  1  0
 14 15  1  0
 14 16  2  0
  9 17  1  0
 17 18  2  0
 18 19  1  0
 19 20  1  0
 20 21  2  0
 20 22  1  0
 19  4  1  0
 18  6  1  0
  1 23  1  0
  5 24  1  0
  7 25  1  0
  8 26  1  0
 10 27  1  0
 11 28  1  0
 11 29  1  0
 12 30  1  1
 15 31  1  0
 17 32  1  0
M  CHG  4   1  -1  13  -1  15  -1  22  -1
M  END
>  <UniqueID>  (9) 
9

>  <SMILES>  (9) 
[NH-]C(=O)c1cc2ccc(NC[C@H]([S-])C([NH-])=O)cc2n1C(=O)[O-]

>  <Energy>  (9) 
70.36429031907427

>  <Genealogy>  (9) 
[NH-]C(=O)c1cc2ccc(NCC([S-])C([NH-])=O)cc2n1C(=O)[O-] (protonated)
[NH-]C(=O)c1cc2ccc(NC[C@H]([S-])C([NH-])=O)cc2n1C(=O)[O-] (chirality)
[NH-]C(=O)c1cc2ccc(NC[C@H]([S-])C([NH-])=O)cc2n1C(=O)[O-] (3D coordinates assigned)
[NH-]C(=O)c1cc2ccc(NC[C@H]([S-])C([NH-])=O)cc2n1C(=O)[O-] (optimized conformer: 70.36429031907427 kcal/mol)

>  <smiles>  (9) 
NC(=O)c1cc2ccc(NCC(S)C(N)=O)cc2n1C(=O)O

>  <score_type>  (9) 
oracle

>  <origin>  (9) 
adg

>  <m_score__min__energy>  (9) 
-6.5

>  <m_primary>  (9) 
energy

$$$$
9:0
     RDKit          3D

 41 42  0  0  0  0  0  0  0  0999 V2000
  149.2630  161.0630  130.4360 C   0  0  0  0  0  0  0  0  0  0  0  0
  149.9250  159.8410  131.0650 C   0  0  0  0  0  0  0  0  0  0  0  0
  148.9210  158.7270  131.3730 C   0  0  0  0  0  0  0  0  0  0  0  0
  148.0510  159.0980  132.4420 O   0  0  0  0  0  0  0  0  0  0  0  0
  147.7130  158.2540  133.5070 C   0  0  0  0  0  0  0  0  0  0  0  0
  148.4860  158.1450  134.4990 O   0  0  0  0  0  0  0  0  0  0  0  0
  146.4700  157.5270  133.4830 N   0  0  0  0  0  0  0  0  0  0  0  0
  145.2080  158.0440  133.4550 C   0  0  0  0  0  0  0  0  0  0  0  0
  144.8520  159.4670  133.6100 C   0  0  0  0  0  0  0  0  0  0  0  0
  145.5640  160.4840  132.9060 N   0  0  0  0  0  0  0  0  0  0  0  0
  143.9440  159.7950  134.4190 O   0  0  0  0  0  0  0  0  0  0  0  0
  144.2630  157.0350  133.2990 C   0  0  0  0  0  0  0  0  0  0  0  0
  144.9870  155.8680  133.2430 C   0  0  0  0  0  0  0  0  0  0  0  0
  144.5490  154.5590  133.0750 C   0  0  0  0  0  0  0  0  0  0  0  0
  145.5170  153.5430  133.0070 C   0  0  0  0  0  0  0  0  0  0  0  0
  146.9010  153.8530  133.0930 C   0  0  0  0  0  0  0  0  0  0  0  0
  147.9100  152.8280  133.0080 N   0  0  0  0  0  0  0  0  0  0  0  0
  149.2170  153.0360  132.3780 C   0  0  0  0  0  0  0  0  0  0  0  0
  150.1280  151.8240  132.5670 C   0  0  0  0  0  0  0  0  0  0  0  0
  149.6040  150.9630  133.5990 N   0  0  0  0  0  0  0  0  0  0  0  0
  148.8570  150.0750  133.3230 O   0  0  0  0  0  0  0  0  0  0  0  0
  147.3030  155.1970  133.2600 C   0  0  0  0  0  0  0  0  0  0  0  0
  146.3160  156.1890  133.3510 C   0  0  0  0  0  0  0  0  0  0  0  0
  148.9002  161.7327  131.2297 H   0  0  0  0  0  0  0  0  0  0  0  0
  149.9954  161.5965  129.8124 H   0  0  0  0  0  0  0  0  0  0  0  0
  148.4160  160.7409  129.8124 H   0  0  0  0  0  0  0  0  0  0  0  0
  150.6820  159.4516  130.3684 H   0  0  0  0  0  0  0  0  0  0  0  0
  150.3774  160.1572  132.0165 H   0  0  0  0  0  0  0  0  0  0  0  0
  148.3197  158.5271  130.4738 H   0  0  0  0  0  0  0  0  0  0  0  0
  149.4791  157.8281  131.6738 H   0  0  0  0  0  0  0  0  0  0  0  0
  145.2750  161.4840  132.9910 H   0  0  0  0  0  0  0  0  0  0  0  0
  146.4320  160.2560  132.3740 H   0  0  0  0  0  0  0  0  0  0  0  0
  143.1706  157.1471  133.2343 H   0  0  0  0  0  0  0  0  0  0  0  0
  143.4768  154.3260  132.9976 H   0  0  0  0  0  0  0  0  0  0  0  0
  145.2001  152.4966  132.8859 H   0  0  0  0  0  0  0  0  0  0  0  0
  147.6900  151.8890  133.4130 H   0  0  0  0  0  0  0  0  0  0  0  0
  149.0715  153.2096  131.3016 H   0  0  0  0  0  0  0  0  0  0  0  0
  149.6952  153.9051  132.8533 H   0  0  0  0  0  0  0  0  0  0  0  0
  150.1881  151.2638  131.6222 H   0  0  0  0  0  0  0  0  0  0  0  0
  151.1293  152.1703  132.8627 H   0  0  0  0  0  0  0  0  0  0  0  0
  148.3695  155.4602  133.3175 H   0  0  0  0  0  0  0  0  0  0  0  0
  1  2  1  0
  2  3  1  0
  3  4  1  0
  4  5  1  0
  5  6  2  0
  5  7  1  0
  7  8  1  0
  8  9  1  0
  9 10  1  0
  9 11  2  0
  8 12  2  0
 12 13  1  0
 13 14  2  0
 14 15  1  0
 15 16  2  0
 16 17  1  0
 17 18  1  0
 18 19  1  0
 19 20  1  0
 20 21  2  0
 16 22  1  0
 22 23  2  0
 23  7  1  0
 23 13  1  0
  1 24  1  0
  1 25  1  0
  1 26  1  0
  2 27  1  0
  2 28  1  0
  3 29  1  0
  3 30  1  0
 10 31  1  0
 10 32  1  0
 12 33  1  0
 14 34  1  0
 15 35  1  0
 17 36  1  0
 18 37  1  0
 18 38  1  0
 19 39  1  0
 19 40  1  0
 22 41  1  0
M  END
>  <UniqueID>  (10) 
10

>  <SMILES>  (10) 
CCCOC(=O)n1c(C(N)=O)cc2ccc(NCCN=O)cc21

>  <Energy>  (10) 
72.25935088189298

>  <Genealogy>  (10) 
CCCOC(=O)n1c(C(N)=O)cc2ccc(NCCN=O)cc21 (3D coordinates assigned)
CCCOC(=O)n1c(C(N)=O)cc2ccc(NCCN=O)cc21 (optimized conformer: 72.25935088189298 kcal/mol)

>  <smiles>  (10) 
CCCOC(=O)n1c(C(N)=O)cc2ccc(NCCN=O)cc21

>  <score_type>  (10) 
oracle

>  <origin>  (10) 
adg

>  <m_score__min__energy>  (10) 
-6.9100000000000001

>  <m_primary>  (10) 
energy

$$$$
10:0
     RDKit          3D

 37 38  0  0  0  0  0  0  0  0999 V2000
  149.3220  151.0070  133.6940 C   0  0  0  0  0  0  0  0  0  0  0  0
  148.7410  152.1680  132.8640 C   0  0  0  0  0  0  0  0  0  0  0  0
  147.2940  151.8590  132.4340 C   0  0  0  0  0  0  0  0  0  0  0  0
  149.6030  152.3580  131.6070 C   0  0  0  0  0  0  0  0  0  0  0  0
  148.7980  153.3950  133.6040 O   0  0  0  0  0  0  0  0  0  0  0  0
  148.8670  154.6890  133.0660 C   0  0  0  0  0  0  0  0  0  0  0  0
  149.7630  155.0000  132.2370 O   0  0  0  0  0  0  0  0  0  0  0  0
  147.8830  155.6630  133.4500 N   0  0  0  0  0  0  0  0  0  0  0  0
  146.8430  155.5090  134.3180 C   0  0  0  0  0  0  0  0  0  0  0  0
  146.4260  154.2420  134.9570 C   0  0  0  0  0  0  0  0  0  0  0  0
  147.2680  153.6260  135.9280 N   0  0  0  0  0  0  0  0  0  0  0  0
  145.3170  153.7140  134.6790 O   0  0  0  0  0  0  0  0  0  0  0  0
  146.1520  156.7090  134.4690 C   0  0  0  0  0  0  0  0  0  0  0  0
  146.8010  157.6080  133.6540 C   0  0  0  0  0  0  0  0  0  0  0  0
  146.5340  158.9520  133.4140 C   0  0  0  0  0  0  0  0  0  0  0  0
  147.3820  159.6450  132.5340 C   0  0  0  0  0  0  0  0  0  0  0  0
  148.4920  158.9960  131.9320 C   0  0  0  0  0  0  0  0  0  0  0  0
  149.3710  159.7400  130.9600 C   0  0  0  0  0  0  0  0  0  0  0  0
  150.6930  159.3590  131.1070 F   0  0  0  0  0  0  0  0  0  0  0  0
  148.9880  159.4780  129.6560 F   0  0  0  0  0  0  0  0  0  0  0  0
  149.2640  161.0970  131.1970 F   0  0  0  0  0  0  0  0  0  0  0  0
  148.7140  157.6220  132.1840 C   0  0  0  0  0  0  0  0  0  0  0  0
  147.8420  156.9530  133.0510 C   0  0  0  0  0  0  0  0  0  0  0  0
  149.2103  151.2303  134.7653 H   0  0  0  0  0  0  0  0  0  0  0  0
  148.7821  150.0790  133.4546 H   0  0  0  0  0  0  0  0  0  0  0  0
  150.3884  150.8829  133.4546 H   0  0  0  0  0  0  0  0  0  0  0  0
  146.6666  151.7250  133.3276 H   0  0  0  0  0  0  0  0  0  0  0  0
  146.9036  152.6940  131.8337 H   0  0  0  0  0  0  0  0  0  0  0  0
  147.2788  150.9373  131.8337 H   0  0  0  0  0  0  0  0  0  0  0  0
  150.6376  152.5861  131.9029 H   0  0  0  0  0  0  0  0  0  0  0  0
  149.5877  151.4349  131.0089 H   0  0  0  0  0  0  0  0  0  0  0  0
  149.2010  153.1891  131.0089 H   0  0  0  0  0  0  0  0  0  0  0  0
  148.0980  153.0640  135.6400 H   0  0  0  0  0  0  0  0  0  0  0  0
  145.2742  156.8978  135.1045 H   0  0  0  0  0  0  0  0  0  0  0  0
  145.6850  159.4566  133.8983 H   0  0  0  0  0  0  0  0  0  0  0  0
  147.1836  160.7032  132.3087 H   0  0  0  0  0  0  0  0  0  0  0  0
  149.5526  157.0913  131.7096 H   0  0  0  0  0  0  0  0  0  0  0  0
  1  2  1  0
  2  3  1  0
  2  4  1  0
  2  5  1  0
  5  6  1  0
  6  7  2  0
  6  8  1  0
  8  9  1  0
  9 10  1  0
 10 11  1  0
 10 12  2  0
  9 13  2  0
 13 14  1  0
 14 15  2  0
 15 16  1  0
 16 17  2  0
 17 18  1  0
 18 19  1  0
 18 20  1  0
 18 21  1  0
 17 22  1  0
 22 23  2  0
 23  8  1  0
 23 14  1  0
  1 24  1  0
  1 25  1  0
  1 26  1  0
  3 27  1  0
  3 28  1  0
  3 29  1  0
  4 30  1  0
  4 31  1  0
  4 32  1  0
 11 33  1  0
 13 34  1  0
 15 35  1  0
 16 36  1  0
 22 37  1  0
M  CHG  1  11  -1
M  END
>  <UniqueID>  (11) 
11

>  <SMILES>  (11) 
CC(C)(C)OC(=O)n1c(C([NH-])=O)cc2ccc(C(F)(F)F)cc21

>  <Energy>  (11) 
71.430943267202

>  <Genealogy>  (11) 
CC(C)(C)OC(=O)n1c(C([NH-])=O)cc2ccc(C(F)(F)F)cc21 (protonated)
CC(C)(C)OC(=O)n1c(C([NH-])=O)cc2ccc(C(F)(F)F)cc21 (3D coordinates assigned)
CC(C)(C)OC(=O)n1c(C([NH-])=O)cc2ccc(C(F)(F)F)cc21 (optimized conformer: 71.430943267202 kcal/mol)

>  <smiles>  (11) 
CC(C)(C)OC(=O)n1c(C(N)=O)cc2ccc(C(F)(F)F)cc21

>  <score_type>  (11) 
oracle

>  <origin>  (11) 
adg

>  <m_score__min__energy>  (11) 
-6.2800000000000002

>  <m_primary>  (11) 
energy

$$$$
11:0
     RDKit          3D

 43 44  0  0  0  0  0  0  0  0999 V2000
  148.4710  160.5120  130.6920 C   0  0  0  0  0  0  0  0  0  0  0  0
  148.1060  160.2390  131.8080 C   0  0  0  0  0  0  0  0  0  0  0  0
  147.6680  159.9140  133.1390 C   0  0  0  0  0  0  0  0  0  0  0  0
  148.4480  160.1160  134.1060 O   0  0  0  0  0  0  0  0  0  0  0  0
  146.3470  159.3940  133.3710 N   0  0  0  0  0  0  0  0  0  0  0  0
  145.2500  160.0710  133.8160 C   0  0  0  0  0  0  0  0  0  0  0  0
  145.1430  161.5350  133.9780 C   0  0  0  0  0  0  0  0  0  0  0  0
  146.2690  162.3210  134.3680 N   0  0  0  0  0  0  0  0  0  0  0  0
  144.0520  162.1080  133.7120 O   0  0  0  0  0  0  0  0  0  0  0  0
  144.1920  159.1970  134.0480 C   0  0  0  0  0  0  0  0  0  0  0  0
  144.6720  157.9510  133.7150 C   0  0  0  0  0  0  0  0  0  0  0  0
  144.0430  156.7120  133.7540 C   0  0  0  0  0  0  0  0  0  0  0  0
  144.7880  155.5850  133.3700 C   0  0  0  0  0  0  0  0  0  0  0  0
  146.1420  155.7040  132.9700 C   0  0  0  0  0  0  0  0  0  0  0  0
  146.8500  154.5130  132.5680 N   0  0  0  0  0  0  0  0  0  0  0  0
  146.8820  153.2450  133.3010 C   0  0  0  0  0  0  0  0  0  0  0  0
  147.8120  152.2330  132.6190 C   0  0  0  0  0  0  0  0  0  0  0  0
  149.2650  152.7240  132.4790 C   0  0  0  0  0  0  0  0  0  0  0  0
  150.2510  151.6350  132.6590 N   0  0  0  0  0  0  0  0  0  0  0  0
  150.2680  150.7250  131.4990 C   0  0  0  0  0  0  0  0  0  0  0  0
  149.9330  150.8660  133.8730 C   0  0  0  0  0  0  0  0  0  0  0  0
  146.7450  156.9870  132.9450 C   0  0  0  0  0  0  0  0  0  0  0  0
  145.9740  158.0950  133.3110 C   0  0  0  0  0  0  0  0  0  0  0  0
  148.8040  160.7611  129.6737 H   0  0  0  0  0  0  0  0  0  0  0  0
  146.1650  163.3490  134.5160 H   0  0  0  0  0  0  0  0  0  0  0  0
  147.2220  161.9000  134.4370 H   0  0  0  0  0  0  0  0  0  0  0  0
  143.1872  159.4484  134.4183 H   0  0  0  0  0  0  0  0  0  0  0  0
  142.9953  156.6172  134.0753 H   0  0  0  0  0  0  0  0  0  0  0  0
  144.3123  154.5933  133.3800 H   0  0  0  0  0  0  0  0  0  0  0  0
  147.3920  154.5450  131.6740 H   0  0  0  0  0  0  0  0  0  0  0  0
  147.2421  153.4307  134.3236 H   0  0  0  0  0  0  0  0  0  0  0  0
  145.8648  152.8268  133.3179 H   0  0  0  0  0  0  0  0  0  0  0  0
  147.8139  151.3076  133.2136 H   0  0  0  0  0  0  0  0  0  0  0  0
  147.4259  152.0769  131.6009 H   0  0  0  0  0  0  0  0  0  0  0  0
  149.3962  153.1564  131.4761 H   0  0  0  0  0  0  0  0  0  0  0  0
  149.4432  153.4700  133.2675 H   0  0  0  0  0  0  0  0  0  0  0  0
  150.2875  149.6829  131.8507 H   0  0  0  0  0  0  0  0  0  0  0  0
  149.3666  150.8898  130.8904 H   0  0  0  0  0  0  0  0  0  0  0  0
  151.1626  150.9234  130.8904 H   0  0  0  0  0  0  0  0  0  0  0  0
  150.1807  151.4649  134.7618 H   0  0  0  0  0  0  0  0  0  0  0  0
  148.8604  150.6224  133.8823 H   0  0  0  0  0  0  0  0  0  0  0  0
  150.5203  149.9359  133.8823 H   0  0  0  0  0  0  0  0  0  0  0  0
  147.7961  157.1083  132.6444 H   0  0  0  0  0  0  0  0  0  0  0  0
  1  2  3  0
  2  3  1  0
  3  4  2  0
  3  5  1  0
  5  6  1  0
  6  7  1  0
  7  8  1  0
  7  9  2  0
  6 10  2  0
 10 11  1  0
 11 12  2  0
 12 13  1  0
 13 14  2  0
 14 15  1  0
 15 16  1  0
 16 17  1  0
 17 18  1  0
 18 19  1  0
 19 20  1  0
 19 21  1  0
 14 22  1  0
 22 23  2  0
 23  5  1  0
 23 11  1  0
  1 24  1  0
  8 25  1  0
  8 26  1  0
 10 27  1  0
 12 28  1  0
 13 29  1  0
 15 30  1  0
 16 31  1  0
 16 32  1  0
 17 33  1  0
 17 34  1  0
 18 35  1  0
 18 36  1  0
 20 37  1  0
 20 38  1  0
 20 39  1  0
 21 40  1  0
 21 41  1  0
 21 42  1  0
 22 43  1  0
M  END
>  <UniqueID>  (12) 
12

>  <SMILES>  (12) 
C#CC(=O)n1c(C(N)=O)cc2ccc(NCCCN(C)C)cc21

>  <Energy>  (12) 
78.50221488318013

>  <Genealogy>  (12) 
C#CC(=O)n1c(C(N)=O)cc2ccc(NCCCN(C)C)cc21 (3D coordinates assigned)
C#CC(=O)n1c(C(N)=O)cc2ccc(NCCCN(C)C)cc21 (optimized conformer: 78.50221488318013 kcal/mol)

>  <smiles>  (12) 
C#CC(=O)n1c(C(N)=O)cc2ccc(NCCCN(C)C)cc21

>  <score_type>  (12) 
oracle

>  <origin>  (12) 
adg

>  <m_score__min__energy>  (12) 
-7.8200000000000003

>  <m_primary>  (12) 
energy

$$$$
12:0
     RDKit          3D

 37 39  0  0  0  0  0  0  0  0999 V2000
  143.0010  161.1330  133.7360 N   0  0  0  0  0  0  0  0  0  0  0  0
  144.4090  161.3230  133.8410 C   0  0  0  0  0  0  0  0  0  0  0  0
  144.8540  162.4410  134.2170 O   0  0  0  0  0  0  0  0  0  0  0  0
  145.3490  160.2150  133.5700 C   0  0  0  0  0  0  0  0  0  0  0  0
  146.7170  160.4010  133.3820 C   0  0  0  0  0  0  0  0  0  0  0  0
  147.2430  159.1350  133.2530 C   0  0  0  0  0  0  0  0  0  0  0  0
  148.5560  158.7290  133.0400 C   0  0  0  0  0  0  0  0  0  0  0  0
  148.8090  157.3520  132.9190 C   0  0  0  0  0  0  0  0  0  0  0  0
  147.7510  156.4090  133.0050 C   0  0  0  0  0  0  0  0  0  0  0  0
  148.0290  154.9560  132.8640 C   0  0  0  0  0  0  0  0  0  0  0  0
  146.9890  154.0150  132.9860 C   0  0  0  0  0  0  0  0  0  0  0  0
  147.2520  152.6480  132.8510 C   0  0  0  0  0  0  0  0  0  0  0  0
  148.5520  152.2060  132.5950 C   0  0  0  0  0  0  0  0  0  0  0  0
  148.8120  150.8480  132.4610 O   0  0  0  0  0  0  0  0  0  0  0  0
  149.5920  153.1310  132.4710 C   0  0  0  0  0  0  0  0  0  0  0  0
  149.3340  154.4990  132.6060 C   0  0  0  0  0  0  0  0  0  0  0  0
  146.4290  156.8650  133.2220 C   0  0  0  0  0  0  0  0  0  0  0  0
  146.2100  158.2400  133.3560 C   0  0  0  0  0  0  0  0  0  0  0  0
  145.0400  158.8880  133.5480 N   0  0  0  0  0  0  0  0  0  0  0  0
  143.7390  158.2840  133.6250 C   0  0  0  0  0  0  0  0  0  0  0  0
  143.2570  157.7010  132.6160 O   0  0  0  0  0  0  0  0  0  0  0  0
  143.0240  158.3260  134.8270 O   0  0  0  0  0  0  0  0  0  0  0  0
  141.6400  158.0020  134.9260 C   0  0  0  0  0  0  0  0  0  0  0  0
  140.9730  158.8760  135.9390 C   0  0  0  0  0  0  0  0  0  0  0  0
  141.0100  160.1290  135.8150 O   0  0  0  0  0  0  0  0  0  0  0  0
  140.2850  158.3110  137.0050 O   0  0  0  0  0  0  0  0  0  0  0  0
  142.5210  160.3660  134.2570 H   0  0  0  0  0  0  0  0  0  0  0  0
  147.2612  161.3562  133.3446 H   0  0  0  0  0  0  0  0  0  0  0  0
  149.3717  159.4635  132.9684 H   0  0  0  0  0  0  0  0  0  0  0  0
  149.8385  157.0007  132.7558 H   0  0  0  0  0  0  0  0  0  0  0  0
  145.9633  154.3570  133.1887 H   0  0  0  0  0  0  0  0  0  0  0  0
  146.4334  151.9195  132.9466 H   0  0  0  0  0  0  0  0  0  0  0  0
  150.6152  152.7827  132.2669 H   0  0  0  0  0  0  0  0  0  0  0  0
  150.1571  155.2223  132.5098 H   0  0  0  0  0  0  0  0  0  0  0  0
  145.5921  156.1538  133.2839 H   0  0  0  0  0  0  0  0  0  0  0  0
  141.1615  158.1513  133.9468 H   0  0  0  0  0  0  0  0  0  0  0  0
  141.5401  156.9521  135.2384 H   0  0  0  0  0  0  0  0  0  0  0  0
  1  2  1  0
  2  3  2  0
  2  4  1  0
  4  5  2  0
  5  6  1  0
  6  7  2  0
  7  8  1  0
  8  9  2  0
  9 10  1  0
 10 11  2  0
 11 12  1  0
 12 13  2  0
 13 14  1  0
 13 15  1  0
 15 16  2  0
  9 17  1  0
 17 18  2  0
 18 19  1  0
 19 20  1  0
 20 21  2  0
 20 22  1  0
 22 23  1  0
 23 24  1  0
 24 25  2  0
 24 26  1  0
 19  4  1  0
 18  6  1  0
 16 10  1  0
  1 27  1  0
  5 28  1  0
  7 29  1  0
  8 30  1  0
 11 31  1  0
 12 32  1  0
 15 33  1  0
 16 34  1  0
 17 35  1  0
 23 36  1  0
 23 37  1  0
M  CHG  3   1  -1  14  -1  26  -1
M  END
>  <UniqueID>  (13) 
13

>  <SMILES>  (13) 
[NH-]C(=O)c1cc2ccc(-c3ccc([O-])cc3)cc2n1C(=O)OCC(=O)[O-]

>  <Energy>  (13) 
82.10219503708964

>  <Genealogy>  (13) 
[NH-]C(=O)c1cc2ccc(-c3ccc([O-])cc3)cc2n1C(=O)OCC(=O)[O-] (protonated)
[NH-]C(=O)c1cc2ccc(-c3ccc([O-])cc3)cc2n1C(=O)OCC(=O)[O-] (3D coordinates assigned)
[NH-]C(=O)c1cc2ccc(-c3ccc([O-])cc3)cc2n1C(=O)OCC(=O)[O-] (optimized conformer: 82.10219503708964 kcal/mol)

>  <smiles>  (13) 
NC(=O)c1cc2ccc(-c3ccc(O)cc3)cc2n1C(=O)OCC(=O)O

>  <score_type>  (13) 
oracle

>  <origin>  (13) 
adg

>  <m_score__min__energy>  (13) 
-7.3799999999999999

>  <m_primary>  (13) 
energy

$$$$
13:0
     RDKit          3D

 48 51  0  0  0  0  0  0  0  0999 V2000
  149.6000  153.1800  131.9690 C   0  0  0  0  0  0  0  0  0  0  0  0
  149.2500  154.4910  132.3650 O   0  0  0  0  0  0  0  0  0  0  0  0
  148.2160  154.4410  133.3310 C   0  0  0  0  0  0  0  0  0  0  0  0
  147.7880  155.7580  133.6790 O   0  0  0  0  0  0  0  0  0  0  0  0
  146.7740  156.4410  132.9970 C   0  0  0  0  0  0  0  0  0  0  0  0
  145.9610  155.7880  132.2850 O   0  0  0  0  0  0  0  0  0  0  0  0
  146.6230  157.8720  133.1510 N   0  0  0  0  0  0  0  0  0  0  0  0
  147.5270  158.8350  132.8010 C   0  0  0  0  0  0  0  0  0  0  0  0
  148.9230  158.6080  132.3890 C   0  0  0  0  0  0  0  0  0  0  0  0
  149.3420  157.3340  131.8990 N   0  0  0  0  0  0  0  0  0  0  0  0
  149.7700  159.5320  132.5280 O   0  0  0  0  0  0  0  0  0  0  0  0
  146.9710  160.1050  132.8950 C   0  0  0  0  0  0  0  0  0  0  0  0
  145.6910  159.9040  133.3470 C   0  0  0  0  0  0  0  0  0  0  0  0
  144.6980  160.8350  133.6300 C   0  0  0  0  0  0  0  0  0  0  0  0
  143.4640  160.3620  134.0980 C   0  0  0  0  0  0  0  0  0  0  0  0
  143.2470  158.9740  134.2890 C   0  0  0  0  0  0  0  0  0  0  0  0
  141.9870  158.4870  134.7940 N   0  0  0  0  0  0  0  0  0  0  0  0
  140.8160  159.3460  134.9430 C   0  0  2  0  0  0  0  0  0  0  0  0
  140.6330  159.6430  136.4600 C   0  0  0  0  0  0  0  0  0  0  0  0
  141.6290  159.0090  137.2530 O   0  0  0  0  0  0  0  0  0  0  0  0
  141.6320  157.6020  137.0400 C   0  0  0  0  0  0  0  0  0  0  0  0
  141.8400  157.2410  135.5410 C   0  0  1  0  0  0  0  0  0  0  0  0
  140.6030  156.5180  134.9680 C   0  0  0  0  0  0  0  0  0  0  0  0
  139.4360  157.3250  135.0650 O   0  0  0  0  0  0  0  0  0  0  0  0
  139.6120  158.5600  134.3820 C   0  0  0  0  0  0  0  0  0  0  0  0
  144.2820  158.0600  133.9920 C   0  0  0  0  0  0  0  0  0  0  0  0
  145.5020  158.5530  133.5030 C   0  0  0  0  0  0  0  0  0  0  0  0
  149.7657  152.5592  132.8618 H   0  0  0  0  0  0  0  0  0  0  0  0
  148.7856  152.7486  131.3685 H   0  0  0  0  0  0  0  0  0  0  0  0
  150.5211  153.2119  131.3685 H   0  0  0  0  0  0  0  0  0  0  0  0
  147.3635  153.8810  132.9191 H   0  0  0  0  0  0  0  0  0  0  0  0
  148.5986  153.9427  134.2339 H   0  0  0  0  0  0  0  0  0  0  0  0
  148.6780  156.5270  131.8680 H   0  0  0  0  0  0  0  0  0  0  0  0
  150.3300  157.1880  131.5920 H   0  0  0  0  0  0  0  0  0  0  0  0
  147.4531  161.0649  132.6581 H   0  0  0  0  0  0  0  0  0  0  0  0
  144.8754  161.9116  133.4907 H   0  0  0  0  0  0  0  0  0  0  0  0
  142.6560  161.0749  134.3192 H   0  0  0  0  0  0  0  0  0  0  0  0
  140.9166  160.3012  134.4068 H   0  0  0  0  0  0  0  0  0  0  0  0
  140.6922  160.7299  136.6183 H   0  0  0  0  0  0  0  0  0  0  0  0
  139.6533  159.2479  136.7669 H   0  0  0  0  0  0  0  0  0  0  0  0
  142.4462  157.1551  137.6294 H   0  0  0  0  0  0  0  0  0  0  0  0
  140.6533  157.2086  137.3521 H   0  0  0  0  0  0  0  0  0  0  0  0
  142.7220  156.5892  135.4559 H   0  0  0  0  0  0  0  0  0  0  0  0
  140.7863  156.2804  133.9097 H   0  0  0  0  0  0  0  0  0  0  0  0
  140.4379  155.6009  135.5525 H   0  0  0  0  0  0  0  0  0  0  0  0
  139.7826  158.3576  133.3143 H   0  0  0  0  0  0  0  0  0  0  0  0
  138.7055  159.1668  134.5238 H   0  0  0  0  0  0  0  0  0  0  0  0
  144.1346  156.9802  134.1413 H   0  0  0  0  0  0  0  0  0  0  0  0
  1  2  1  0
  2  3  1  0
  3  4  1  0
  4  5  1  0
  5  6  2  0
  5  7  1  0
  7  8  1  0
  8  9  1  0
  9 10  1  0
  9 11  2  0
  8 12  2  0
 12 13  1  0
 13 14  2  0
 14 15  1  0
 15 16  2  0
 16 17  1  0
 17 18  1  0
 18 19  1  0
 19 20  1  0
 20 21  1  0
 21 22  1  0
 22 23  1  0
 23 24  1  0
 24 25  1  0
 16 26  1  0
 26 27  2  0
 27  7  1  0
 27 13  1  0
 22 17  1  0
 25 18  1  0
  1 28  1  0
  1 29  1  0
  1 30  1  0
  3 31  1  0
  3 32  1  0
 10 33  1  0
 10 34  1  0
 12 35  1  0
 14 36  1  0
 15 37  1  0
 18 38  1  6
 19 39  1  0
 19 40  1  0
 21 41  1  0
 21 42  1  0
 22 43  1  1
 23 44  1  0
 23 45  1  0
 25 46  1  0
 25 47  1  0
 26 48  1  0
M  END
>  <UniqueID>  (14) 
14

>  <SMILES>  (14) 
COCOC(=O)n1c(C(N)=O)cc2ccc(N3C4COCC3COC4)cc21

>  <Energy>  (14) 
114.15355075817428

>  <Genealogy>  (14) 
COCOC(=O)n1c(C(N)=O)cc2ccc(N3C4COCC3COC4)cc21 (3D coordinates assigned)
COCOC(=O)n1c(C(N)=O)cc2ccc(N3C4COCC3COC4)cc21 (nonaromatic ring conformer: 114.15355075817428 kcal/mol)

>  <smiles>  (14) 
COCOC(=O)n1c(C(N)=O)cc2ccc(N3C4COCC3COC4)cc21

>  <score_type>  (14) 
oracle

>  <origin>  (14) 
adg

>  <m_score__min__energy>  (14) 
-7.21

>  <m_primary>  (14) 
energy

$$$$
14:0
     RDKit          3D

 54 57  0  0  0  0  0  0  0  0999 V2000
  144.3690  154.8340  131.8630 C   0  0  0  0  0  0  0  0  0  0  0  0
  144.9180  154.4030  133.2320 C   0  0  0  0  0  0  0  0  0  0  0  0
  143.7350  154.0340  134.1480 C   0  0  0  0  0  0  0  0  0  0  0  0
  145.8510  153.1930  133.0350 C   0  0  0  0  0  0  0  0  0  0  0  0
  145.6440  155.5190  133.7670 O   0  0  0  0  0  0  0  0  0  0  0  0
  146.3670  156.4700  133.0320 C   0  0  0  0  0  0  0  0  0  0  0  0
  147.2610  156.1160  132.2180 O   0  0  0  0  0  0  0  0  0  0  0  0
  146.1020  157.8670  133.2330 N   0  0  0  0  0  0  0  0  0  0  0  0
  146.9900  158.8990  133.1710 C   0  0  0  0  0  0  0  0  0  0  0  0
  148.4550  158.7730  133.0280 C   0  0  0  0  0  0  0  0  0  0  0  0
  149.0130  158.3520  131.7860 N   0  0  0  0  0  0  0  0  0  0  0  0
  149.2240  159.0700  133.9800 O   0  0  0  0  0  0  0  0  0  0  0  0
  146.3350  160.1160  133.3430 C   0  0  0  0  0  0  0  0  0  0  0  0
  145.0080  159.7950  133.5190 C   0  0  0  0  0  0  0  0  0  0  0  0
  143.9090  160.6180  133.7190 C   0  0  0  0  0  0  0  0  0  0  0  0
  142.6450  160.0170  133.8340 C   0  0  0  0  0  0  0  0  0  0  0  0
  142.4900  158.6040  133.7360 C   0  0  0  0  0  0  0  0  0  0  0  0
  141.1760  157.9940  133.8390 N   0  0  0  0  0  0  0  0  0  0  0  0
  140.9270  156.5650  133.9550 C   0  0  2  0  0  0  0  0  0  0  0  0
  139.4350  156.4100  133.6420 C   0  0  0  0  0  0  0  0  0  0  0  0
  138.8300  157.7730  133.9710 C   0  0  0  0  0  0  0  0  0  0  0  0
  140.0140  158.6130  134.4580 C   0  0  1  0  0  0  0  0  0  0  0  0
  140.1750  158.4800  135.9880 C   0  0  0  0  0  0  0  0  0  0  0  0
  140.6570  157.1340  136.3850 N   0  0  0  0  0  0  0  0  0  0  0  0
  140.7140  156.8070  137.7840 C   0  0  0  0  0  0  0  0  0  0  0  0
  140.1530  155.7670  138.2230 O   0  0  0  0  0  0  0  0  0  0  0  0
  141.3890  157.6360  138.6750 O   0  0  0  0  0  0  0  0  0  0  0  0
  141.2160  156.1620  135.4160 C   0  0  0  0  0  0  0  0  0  0  0  0
  143.6460  157.8060  133.5390 C   0  0  0  0  0  0  0  0  0  0  0  0
  144.8930  158.4330  133.4470 C   0  0  0  0  0  0  0  0  0  0  0  0
  143.5113  155.5074  132.0074 H   0  0  0  0  0  0  0  0  0  0  0  0
  145.1560  155.3580  131.3008 H   0  0  0  0  0  0  0  0  0  0  0  0
  144.0468  153.9451  131.3008 H   0  0  0  0  0  0  0  0  0  0  0  0
  144.0420  154.1298  135.1999 H   0  0  0  0  0  0  0  0  0  0  0  0
  142.8918  154.7118  133.9490 H   0  0  0  0  0  0  0  0  0  0  0  0
  143.4267  152.9970  133.9490 H   0  0  0  0  0  0  0  0  0  0  0  0
  146.1540  152.8000  134.0167 H   0  0  0  0  0  0  0  0  0  0  0  0
  145.3213  152.4091  132.4738 H   0  0  0  0  0  0  0  0  0  0  0  0
  146.7438  153.5059  132.4738 H   0  0  0  0  0  0  0  0  0  0  0  0
  148.7880  157.4150  131.3860 H   0  0  0  0  0  0  0  0  0  0  0  0
  146.7830  161.1206  133.3391 H   0  0  0  0  0  0  0  0  0  0  0  0
  144.0245  161.7099  133.7856 H   0  0  0  0  0  0  0  0  0  0  0  0
  141.7597  160.6477  134.0026 H   0  0  0  0  0  0  0  0  0  0  0  0
  141.5443  155.9433  133.2899 H   0  0  0  0  0  0  0  0  0  0  0  0
  139.2842  156.1640  132.5805 H   0  0  0  0  0  0  0  0  0  0  0  0
  138.9697  155.5965  134.2180 H   0  0  0  0  0  0  0  0  0  0  0  0
  138.3766  158.2231  133.0755 H   0  0  0  0  0  0  0  0  0  0  0  0
  138.0299  157.7041  134.7227 H   0  0  0  0  0  0  0  0  0  0  0  0
  139.8838  159.6767  134.2099 H   0  0  0  0  0  0  0  0  0  0  0  0
  140.8987  159.2322  136.3350 H   0  0  0  0  0  0  0  0  0  0  0  0
  139.1871  158.6342  136.4466 H   0  0  0  0  0  0  0  0  0  0  0  0
  142.3052  156.1053  135.5592 H   0  0  0  0  0  0  0  0  0  0  0  0
  140.7374  155.1887  135.5992 H   0  0  0  0  0  0  0  0  0  0  0  0
  143.5632  156.7120  133.4599 H   0  0  0  0  0  0  0  0  0  0  0  0
  1  2  1  0
  2  3  1  0
  2  4  1  0
  2  5  1  0
  5  6  1  0
  6  7  2  0
  6  8  1  0
  8  9  1  0
  9 10  1  0
 10 11  1  0
 10 12  2  0
  9 13  2  0
 13 14  1  0
 14 15  2  0
 15 16  1  0
 16 17  2  0
 17 18  1  0
 18 19  1  0
 19 20  1  0
 20 21  1  0
 21 22  1  0
 22 23  1  0
 23 24  1  0
 24 25  1  0
 25 26  2  0
 25 27  1  0
 24 28  1  0
 17 29  1  0
 29 30  2  0
 30  8  1  0
 30 14  1  0
 22 18  1  0
 28 19  1  0
  1 31  1  0
  1 32  1  0
  1 33  1  0
  3 34  1  0
  3 35  1  0
  3 36  1  0
  4 37  1  0
  4 38  1  0
  4 39  1  0
 11 40  1  0
 13 41  1  0
 15 42  1  0
 16 43  1  0
 19 44  1  6
 20 45  1  0
 20 46  1  0
 21 47  1  0
 21 48  1  0
 22 49  1  1
 23 50  1  0
 23 51  1  0
 28 52  1  0
 28 53  1  0
 29 54  1  0
M  CHG  2  11  -1  27  -1
M  END
>  <UniqueID>  (15) 
15

>  <SMILES>  (15) 
CC(C)(C)OC(=O)n1c(C([NH-])=O)cc2ccc(N3[C@@H]4CC[C@H]3CN(C(=O)[O-])C4)cc21

>  <Energy>  (15) 
106.19046243072238

>  <Genealogy>  (15) 
CC(C)(C)OC(=O)n1c(C([NH-])=O)cc2ccc(N3C4CCC3CN(C(=O)[O-])C4)cc21 (protonated)
CC(C)(C)OC(=O)n1c(C([NH-])=O)cc2ccc(N3[C@@H]4CC[C@H]3CN(C(=O)[O-])C4)cc21 (chirality)
CC(C)(C)OC(=O)n1c(C([NH-])=O)cc2ccc(N3[C@@H]4CC[C@H]3CN(C(=O)[O-])C4)cc21 (3D coordinates assigned)
CC(C)(C)OC(=O)n1c(C([NH-])=O)cc2ccc(N3[C@@H]4CC[C@H]3CN(C(=O)[O-])C4)cc21 (nonaromatic ring conformer: 106.19046243072238 kcal/mol)

>  <smiles>  (15) 
CC(C)(C)OC(=O)n1c(C(N)=O)cc2ccc(N3C4CCC3CN(C(=O)O)C4)cc21

>  <score_type>  (15) 
oracle

>  <origin>  (15) 
adg

>  <m_score__min__energy>  (15) 
-8.9800000000000004

>  <m_primary>  (15) 
energy

$$$$
15:0
     RDKit          3D

 40 41  0  0  0  0  0  0  0  0999 V2000
  139.3060  157.9130  133.8410 C   0  0  0  0  0  0  0  0  0  0  0  0
  140.3290  158.2190  134.8480 N   0  0  0  0  0  0  0  0  0  0  0  0
  140.0170  157.9970  136.2650 C   0  0  0  0  0  0  0  0  0  0  0  0
  141.6280  158.7300  134.4490 C   0  0  0  0  0  0  0  0  0  0  0  0
  141.8860  160.1300  134.4390 C   0  0  0  0  0  0  0  0  0  0  0  0
  143.1430  160.6340  134.0670 C   0  0  0  0  0  0  0  0  0  0  0  0
  144.1270  159.7270  133.6970 C   0  0  0  0  0  0  0  0  0  0  0  0
  145.4350  159.9450  133.3270 C   0  0  0  0  0  0  0  0  0  0  0  0
  145.9610  158.6800  133.0820 C   0  0  0  0  0  0  0  0  0  0  0  0
  147.3360  158.4520  132.5950 C   0  0  0  0  0  0  0  0  0  0  0  0
  147.6740  157.2780  131.8530 N   0  0  0  0  0  0  0  0  0  0  0  0
  148.2140  159.3340  132.7870 O   0  0  0  0  0  0  0  0  0  0  0  0
  145.0230  157.7170  133.3030 N   0  0  0  0  0  0  0  0  0  0  0  0
  145.2220  156.2940  133.2770 C   0  0  0  0  0  0  0  0  0  0  0  0
  144.9300  155.6380  132.2390 O   0  0  0  0  0  0  0  0  0  0  0  0
  145.7330  155.6510  134.4110 O   0  0  0  0  0  0  0  0  0  0  0  0
  147.0920  155.5700  134.7470 C   0  0  0  0  0  0  0  0  0  0  0  0
  147.7420  156.5950  135.0910 O   0  0  0  0  0  0  0  0  0  0  0  0
  147.7690  154.2350  134.7300 C   0  0  0  0  0  0  0  0  0  0  0  0
  148.3770  153.9410  133.3560 C   0  0  0  0  0  0  0  0  0  0  0  0
  147.8940  154.8370  132.3920 O   0  0  0  0  0  0  0  0  0  0  0  0
  143.9030  158.3750  133.6770 C   0  0  0  0  0  0  0  0  0  0  0  0
  142.6670  157.8420  134.0650 C   0  0  0  0  0  0  0  0  0  0  0  0
  138.3687  157.6326  134.3439 H   0  0  0  0  0  0  0  0  0  0  0  0
  139.1339  158.7990  133.2122 H   0  0  0  0  0  0  0  0  0  0  0  0
  139.6487  157.0780  133.2122 H   0  0  0  0  0  0  0  0  0  0  0  0
  140.7548  158.5220  136.8895 H   0  0  0  0  0  0  0  0  0  0  0  0
  139.0105  158.3831  136.4837 H   0  0  0  0  0  0  0  0  0  0  0  0
  140.0519  156.9195  136.4837 H   0  0  0  0  0  0  0  0  0  0  0  0
  141.0872  160.8290  134.7276 H   0  0  0  0  0  0  0  0  0  0  0  0
  143.3422  161.7158  134.0687 H   0  0  0  0  0  0  0  0  0  0  0  0
  145.9532  160.9117  133.2430 H   0  0  0  0  0  0  0  0  0  0  0  0
  146.9400  156.6070  131.5400 H   0  0  0  0  0  0  0  0  0  0  0  0
  148.6580  157.1190  131.5450 H   0  0  0  0  0  0  0  0  0  0  0  0
  148.5687  154.2284  135.4853 H   0  0  0  0  0  0  0  0  0  0  0  0
  147.0196  153.4611  134.9525 H   0  0  0  0  0  0  0  0  0  0  0  0
  149.4711  154.0353  133.4189 H   0  0  0  0  0  0  0  0  0  0  0  0
  148.0953  152.9201  133.0587 H   0  0  0  0  0  0  0  0  0  0  0  0
  146.9560  155.0450  132.6430 H   0  0  0  0  0  0  0  0  0  0  0  0
  142.5043  156.7541  134.0720 H   0  0  0  0  0  0  0  0  0  0  0  0
  1  2  1  0
  2  3  1  0
  2  4  1  0
  4  5  2  0
  5  6  1  0
  6  7  2  0
  7  8  1  0
  8  9  2  0
  9 10  1  0
 10 11  1  0
 10 12  2  0
  9 13  1  0
 13 14  1  0
 14 15  2  0
 14 16  1  0
 16 17  1  0
 17 18  2  0
 17 19  1  0
 19 20  1  0
 20 21  1  0
 13 22  1  0
 22 23  2  0
 23  4  1  0
 22  7  1  0
  1 24  1  0
  1 25  1  0
  1 26  1  0
  3 27  1  0
  3 28  1  0
  3 29  1  0
  5 30  1  0
  6 31  1  0
  8 32  1  0
 11 33  1  0
 11 34  1  0
 19 35  1  0
 19 36  1  0
 20 37  1  0
 20 38  1  0
 21 39  1  0
 23 40  1  0
M  END
>  <UniqueID>  (16) 
16

>  <SMILES>  (16) 
CN(C)c1ccc2cc(C(N)=O)n(C(=O)OC(=O)CCO)c2c1

>  <Energy>  (16) 
77.59328026139494

>  <Genealogy>  (16) 
CN(C)c1ccc2cc(C(N)=O)n(C(=O)OC(=O)CCO)c2c1 (3D coordinates assigned)
CN(C)c1ccc2cc(C(N)=O)n(C(=O)OC(=O)CCO)c2c1 (optimized conformer: 77.59328026139494 kcal/mol)

>  <smiles>  (16) 
CN(C)c1ccc2cc(C(N)=O)n(C(=O)OC(=O)CCO)c2c1

>  <score_type>  (16) 
oracle

>  <origin>  (16) 
adg

>  <m_score__min__energy>  (16) 
-6.7199999999999998

>  <m_primary>  (16) 
energy

$$$$
16:0
     RDKit          3D

 41 42  0  0  0  0  0  0  0  0999 V2000
  140.2230  156.8940  133.7140 C   0  0  0  0  0  0  0  0  0  0  0  0
  141.2810  157.4720  133.6760 C   0  0  0  0  0  0  0  0  0  0  0  0
  142.5420  158.1630  133.6300 C   0  0  0  0  0  0  0  0  0  0  0  0
  142.5840  159.5670  133.7920 C   0  0  0  0  0  0  0  0  0  0  0  0
  143.8080  160.2550  133.7360 C   0  0  0  0  0  0  0  0  0  0  0  0
  144.9660  159.5090  133.5280 C   0  0  0  0  0  0  0  0  0  0  0  0
  146.2730  159.9200  133.4050 C   0  0  0  0  0  0  0  0  0  0  0  0
  147.0090  158.7550  133.1940 C   0  0  0  0  0  0  0  0  0  0  0  0
  148.4820  158.7310  133.0890 C   0  0  0  0  0  0  0  0  0  0  0  0
  149.1000  158.2960  131.8790 N   0  0  0  0  0  0  0  0  0  0  0  0
  149.2020  159.1230  134.0430 O   0  0  0  0  0  0  0  0  0  0  0  0
  146.1870  157.6670  133.1800 N   0  0  0  0  0  0  0  0  0  0  0  0
  146.5440  156.3020  132.9150 C   0  0  0  0  0  0  0  0  0  0  0  0
  147.2280  156.0180  131.8920 O   0  0  0  0  0  0  0  0  0  0  0  0
  146.1540  155.2950  133.8060 O   0  0  0  0  0  0  0  0  0  0  0  0
  146.4550  155.3210  135.2010 C   0  0  0  0  0  0  0  0  0  0  0  0
  147.2220  154.0950  135.6200 C   0  0  0  0  0  0  0  0  0  0  0  0
  148.1330  153.6560  134.8700 O   0  0  0  0  0  0  0  0  0  0  0  0
  146.9300  153.3620  136.8230 N   0  0  0  0  0  0  0  0  0  0  0  0
  147.8200  152.7890  137.8430 C   0  0  0  0  0  0  0  0  0  0  0  0
  149.1300  152.2670  137.2240 C   0  0  0  0  0  0  0  0  0  0  0  0
  147.0830  151.6670  138.5990 C   0  0  0  0  0  0  0  0  0  0  0  0
  148.1730  153.8960  138.8150 C   0  0  0  0  0  0  0  0  0  0  0  0
  149.1940  154.6120  138.6290 O   0  0  0  0  0  0  0  0  0  0  0  0
  147.3320  154.1850  139.8840 O   0  0  0  0  0  0  0  0  0  0  0  0
  144.9400  158.1450  133.3870 C   0  0  0  0  0  0  0  0  0  0  0  0
  143.7320  157.4370  133.4200 C   0  0  0  0  0  0  0  0  0  0  0  0
  139.2582  156.3669  133.7487 H   0  0  0  0  0  0  0  0  0  0  0  0
  141.6515  160.1249  133.9632 H   0  0  0  0  0  0  0  0  0  0  0  0
  143.8504  161.3480  133.8527 H   0  0  0  0  0  0  0  0  0  0  0  0
  146.6561  160.9496  133.4612 H   0  0  0  0  0  0  0  0  0  0  0  0
  148.8360  157.3870  131.4390 H   0  0  0  0  0  0  0  0  0  0  0  0
  147.0593  156.2136  135.4203 H   0  0  0  0  0  0  0  0  0  0  0  0
  145.5076  155.3445  135.7594 H   0  0  0  0  0  0  0  0  0  0  0  0
  149.8291  151.9884  138.0263 H   0  0  0  0  0  0  0  0  0  0  0  0
  148.9158  151.3855  136.6018 H   0  0  0  0  0  0  0  0  0  0  0  0
  149.5808  153.0542  136.6018 H   0  0  0  0  0  0  0  0  0  0  0  0
  147.1870  151.8253  139.6826 H   0  0  0  0  0  0  0  0  0  0  0  0
  146.0172  151.6804  138.3271 H   0  0  0  0  0  0  0  0  0  0  0  0
  147.5186  150.6942  138.3271 H   0  0  0  0  0  0  0  0  0  0  0  0
  143.7124  156.3454  133.2859 H   0  0  0  0  0  0  0  0  0  0  0  0
  1  2  3  0
  2  3  1  0
  3  4  2  0
  4  5  1  0
  5  6  2  0
  6  7  1  0
  7  8  2  0
  8  9  1  0
  9 10  1  0
  9 11  2  0
  8 12  1  0
 12 13  1  0
 13 14  2  0
 13 15  1  0
 15 16  1  0
 16 17  1  0
 17 18  2  0
 17 19  1  0
 19 20  1  0
 20 21  1  0
 20 22  1  0
 20 23  1  0
 23 24  2  0
 23 25  1  0
 12 26  1  0
 26 27  2  0
 27  3  1  0
 26  6  1  0
  1 28  1  0
  4 29  1  0
  5 30  1  0
  7 31  1  0
 10 32  1  0
 16 33  1  0
 16 34  1  0
 21 35  1  0
 21 36  1  0
 21 37  1  0
 22 38  1  0
 22 39  1  0
 22 40  1  0
 27 41  1  0
M  CHG  3  10  -1  19  -1  25  -1
M  END
>  <UniqueID>  (17) 
17

>  <SMILES>  (17) 
C#Cc1ccc2cc(C([NH-])=O)n(C(=O)OCC(=O)[N-]C(C)(C)C(=O)[O-])c2c1

>  <Energy>  (17) 
78.49195277856997

>  <Genealogy>  (17) 
C#Cc1ccc2cc(C([NH-])=O)n(C(=O)OCC(=O)[N-]C(C)(C)C(=O)[O-])c2c1 (protonated)
C#Cc1ccc2cc(C([NH-])=O)n(C(=O)OCC(=O)[N-]C(C)(C)C(=O)[O-])c2c1 (3D coordinates assigned)
C#Cc1ccc2cc(C([NH-])=O)n(C(=O)OCC(=O)[N-]C(C)(C)C(=O)[O-])c2c1 (optimized conformer: 78.49195277856997 kcal/mol)

>  <smiles>  (17) 
C#Cc1ccc2cc(C(N)=O)n(C(=O)OCC(=O)NC(C)(C)C(=O)O)c2c1

>  <score_type>  (17) 
oracle

>  <origin>  (17) 
adg

>  <m_score__min__energy>  (17) 
-7.9800000000000004

>  <m_primary>  (17) 
energy

$$$$
17:0
     RDKit          3D

 42 43  0  0  0  0  0  0  0  0999 V2000
  137.3670  160.1190  130.7440 C   0  0  0  0  0  0  0  0  0  0  0  0
  138.3950  159.1340  130.7580 O   0  0  0  0  0  0  0  0  0  0  0  0
  139.4190  159.1260  131.7100 C   0  0  0  0  0  0  0  0  0  0  0  0
  140.6100  159.3730  131.3760 O   0  0  0  0  0  0  0  0  0  0  0  0
  139.1030  158.7680  133.1290 C   0  0  0  0  0  0  0  0  0  0  0  0
  140.3390  158.6000  133.8870 N   0  0  0  0  0  0  0  0  0  0  0  0
  140.3590  158.0290  135.1990 C   0  0  0  0  0  0  0  0  0  0  0  0
  139.2830  157.8750  135.8420 O   0  0  0  0  0  0  0  0  0  0  0  0
  141.5770  157.6180  135.7510 O   0  0  0  0  0  0  0  0  0  0  0  0
  142.2650  156.4540  135.3060 C   0  0  0  0  0  0  0  0  0  0  0  0
  143.5370  156.8330  134.7920 O   0  0  0  0  0  0  0  0  0  0  0  0
  143.7040  157.6140  133.6480 C   0  0  0  0  0  0  0  0  0  0  0  0
  142.8160  157.6280  132.7510 O   0  0  0  0  0  0  0  0  0  0  0  0
  144.9060  158.3850  133.4860 N   0  0  0  0  0  0  0  0  0  0  0  0
  145.0330  159.7410  133.4150 C   0  0  0  0  0  0  0  0  0  0  0  0
  143.9560  160.7300  133.6320 C   0  0  0  0  0  0  0  0  0  0  0  0
  142.5950  160.4000  133.3770 N   0  0  0  0  0  0  0  0  0  0  0  0
  144.2380  161.8650  134.1020 O   0  0  0  0  0  0  0  0  0  0  0  0
  146.3630  160.0970  133.2030 C   0  0  0  0  0  0  0  0  0  0  0  0
  147.0570  158.9110  133.1640 C   0  0  0  0  0  0  0  0  0  0  0  0
  148.4150  158.6760  132.9770 C   0  0  0  0  0  0  0  0  0  0  0  0
  148.8590  157.3430  132.9600 C   0  0  0  0  0  0  0  0  0  0  0  0
  147.9450  156.2730  133.1390 C   0  0  0  0  0  0  0  0  0  0  0  0
  148.4290  154.8460  133.0570 C   0  0  0  0  0  0  0  0  0  0  0  0
  147.5520  154.1120  132.2800 F   0  0  0  0  0  0  0  0  0  0  0  0
  149.6900  154.7950  132.4880 F   0  0  0  0  0  0  0  0  0  0  0  0
  148.5000  154.2760  134.3170 F   0  0  0  0  0  0  0  0  0  0  0  0
  146.5680  156.5530  133.3030 C   0  0  0  0  0  0  0  0  0  0  0  0
  146.1580  157.8910  133.3370 C   0  0  0  0  0  0  0  0  0  0  0  0
  137.0949  160.3797  131.7774 H   0  0  0  0  0  0  0  0  0  0  0  0
  137.7273  161.0176  130.2219 H   0  0  0  0  0  0  0  0  0  0  0  0
  136.4846  159.7206  130.2219 H   0  0  0  0  0  0  0  0  0  0  0  0
  138.5034  159.5709  133.5827 H   0  0  0  0  0  0  0  0  0  0  0  0
  138.5368  157.8251  133.1467 H   0  0  0  0  0  0  0  0  0  0  0  0
  141.2490  158.8150  133.4190 H   0  0  0  0  0  0  0  0  0  0  0  0
  142.4001  155.7609  136.1494 H   0  0  0  0  0  0  0  0  0  0  0  0
  141.6803  155.9562  134.5184 H   0  0  0  0  0  0  0  0  0  0  0  0
  142.3360  159.7420  132.6090 H   0  0  0  0  0  0  0  0  0  0  0  0
  146.7714  161.1122  133.0906 H   0  0  0  0  0  0  0  0  0  0  0  0
  149.1209  159.5094  132.8462 H   0  0  0  0  0  0  0  0  0  0  0  0
  149.9265  157.1269  132.8063 H   0  0  0  0  0  0  0  0  0  0  0  0
  145.8361  155.7378  133.4015 H   0  0  0  0  0  0  0  0  0  0  0  0
  1  2  1  0
  2  3  1  0
  3  4  2  0
  3  5  1  0
  5  6  1  0
  6  7  1  0
  7  8  2  0
  7  9  1  0
  9 10  1  0
 10 11  1  0
 11 12  1  0
 12 13  2  0
 12 14  1  0
 14 15  1  0
 15 16  1  0
 16 17  1  0
 16 18  2  0
 15 19  2  0
 19 20  1  0
 20 21  2  0
 21 22  1  0
 22 23  2  0
 23 24  1  0
 24 25  1  0
 24 26  1  0
 24 27  1  0
 23 28  1  0
 28 29  2  0
 29 14  1  0
 29 20  1  0
  1 30  1  0
  1 31  1  0
  1 32  1  0
  5 33  1  0
  5 34  1  0
  6 35  1  0
 10 36  1  0
 10 37  1  0
 17 38  1  0
 19 39  1  0
 21 40  1  0
 22 41  1  0
 28 42  1  0
M  CHG  1  17  -1
M  END
>  <UniqueID>  (18) 
18

>  <SMILES>  (18) 
COC(=O)CNC(=O)OCOC(=O)n1c(C([NH-])=O)cc2ccc(C(F)(F)F)cc21

>  <Energy>  (18) 
71.34581306036203

>  <Genealogy>  (18) 
COC(=O)CNC(=O)OCOC(=O)n1c(C([NH-])=O)cc2ccc(C(F)(F)F)cc21 (protonated)
COC(=O)CNC(=O)OCOC(=O)n1c(C([NH-])=O)cc2ccc(C(F)(F)F)cc21 (3D coordinates assigned)
COC(=O)CNC(=O)OCOC(=O)n1c(C([NH-])=O)cc2ccc(C(F)(F)F)cc21 (optimized conformer: 71.34581306036203 kcal/mol)

>  <smiles>  (18) 
COC(=O)CNC(=O)OCOC(=O)n1c(C(N)=O)cc2ccc(C(F)(F)F)cc21

>  <score_type>  (18) 
oracle

>  <origin>  (18) 
adg

>  <m_score__min__energy>  (18) 
-5.5700000000000003

>  <m_primary>  (18) 
energy

$$$$
18:0
     RDKit          3D

 49 50  0  0  0  0  0  0  0  0999 V2000
  148.8740  154.9100  132.6120 C   0  0  0  0  0  0  0  0  0  0  0  0
  148.3890  156.3330  132.6670 C   0  0  0  0  0  0  0  0  0  0  0  0
  149.2370  157.3900  132.2590 C   0  0  0  0  0  0  0  0  0  0  0  0
  148.8030  158.7250  132.3390 C   0  0  0  0  0  0  0  0  0  0  0  0
  147.5310  158.9690  132.8480 C   0  0  0  0  0  0  0  0  0  0  0  0
  146.8760  160.1650  133.0240 C   0  0  0  0  0  0  0  0  0  0  0  0
  145.6470  159.8270  133.5740 C   0  0  0  0  0  0  0  0  0  0  0  0
  144.6540  160.8340  133.9810 C   0  0  0  0  0  0  0  0  0  0  0  0
  143.2640  160.6270  133.7250 N   0  0  0  0  0  0  0  0  0  0  0  0
  145.0250  161.8660  134.6030 O   0  0  0  0  0  0  0  0  0  0  0  0
  145.5270  158.4750  133.7230 N   0  0  0  0  0  0  0  0  0  0  0  0
  144.3400  157.7540  134.1270 C   0  0  0  0  0  0  0  0  0  0  0  0
  144.4290  156.7440  134.8800 O   0  0  0  0  0  0  0  0  0  0  0  0
  143.0880  158.1520  133.6460 O   0  0  0  0  0  0  0  0  0  0  0  0
  142.3930  157.5050  132.5770 C   0  0  0  0  0  0  0  0  0  0  0  0
  141.0780  158.2170  132.2180 C   0  0  0  0  0  0  0  0  0  0  0  0
  140.4440  158.9060  133.4070 C   0  0  0  0  0  0  0  0  0  0  0  0
  140.8050  160.0870  133.6700 O   0  0  0  0  0  0  0  0  0  0  0  0
  139.4010  158.2910  134.2040 N   0  0  0  0  0  0  0  0  0  0  0  0
  138.2330  157.7320  133.5140 C   0  0  0  0  0  0  0  0  0  0  0  0
  139.4560  158.2270  135.6780 C   0  0  0  0  0  0  0  0  0  0  0  0
  140.8410  157.7820  136.1760 C   0  0  0  0  0  0  0  0  0  0  0  0
  141.6700  158.9420  136.7440 C   0  0  0  0  0  0  0  0  0  0  0  0
  142.2100  159.7290  135.7160 O   0  0  0  0  0  0  0  0  0  0  0  0
  146.7010  157.9610  133.2730 C   0  0  0  0  0  0  0  0  0  0  0  0
  147.1100  156.6180  133.1900 C   0  0  0  0  0  0  0  0  0  0  0  0
  149.0044  154.5273  133.6350 H   0  0  0  0  0  0  0  0  0  0  0  0
  148.1360  154.2914  132.0804 H   0  0  0  0  0  0  0  0  0  0  0  0
  149.8362  154.8709  132.0804 H   0  0  0  0  0  0  0  0  0  0  0  0
  150.2435  157.1654  131.8763 H   0  0  0  0  0  0  0  0  0  0  0  0
  149.4494  159.5517  132.0092 H   0  0  0  0  0  0  0  0  0  0  0  0
  147.2459  161.1721  132.7814 H   0  0  0  0  0  0  0  0  0  0  0  0
  142.5560  161.3320  134.0360 H   0  0  0  0  0  0  0  0  0  0  0  0
  142.9360  159.7410  133.2800 H   0  0  0  0  0  0  0  0  0  0  0  0
  143.0424  157.4933  131.6892 H   0  0  0  0  0  0  0  0  0  0  0  0
  142.1437  156.4857  132.9069 H   0  0  0  0  0  0  0  0  0  0  0  0
  141.2856  158.9705  131.4440 H   0  0  0  0  0  0  0  0  0  0  0  0
  140.3723  157.4521  131.8618 H   0  0  0  0  0  0  0  0  0  0  0  0
  137.5012  157.3818  134.2568 H   0  0  0  0  0  0  0  0  0  0  0  0
  137.7733  158.5077  132.8839 H   0  0  0  0  0  0  0  0  0  0  0  0
  138.5488  156.8874  132.8839 H   0  0  0  0  0  0  0  0  0  0  0  0
  139.2334  159.2237  136.0868 H   0  0  0  0  0  0  0  0  0  0  0  0
  138.7155  157.4877  136.0173 H   0  0  0  0  0  0  0  0  0  0  0  0
  140.7051  157.0278  136.9651 H   0  0  0  0  0  0  0  0  0  0  0  0
  141.3883  157.3755  135.3128 H   0  0  0  0  0  0  0  0  0  0  0  0
  141.0238  159.5698  137.3751 H   0  0  0  0  0  0  0  0  0  0  0  0
  142.4982  158.5227  137.3342 H   0  0  0  0  0  0  0  0  0  0  0  0
  142.2910  159.1360  134.9160 H   0  0  0  0  0  0  0  0  0  0  0  0
  146.4469  155.8071  133.5257 H   0  0  0  0  0  0  0  0  0  0  0  0
  1  2  1  0
  2  3  2  0
  3  4  1  0
  4  5  2  0
  5  6  1  0
  6  7  2  0
  7  8  1  0
  8  9  1  0
  8 10  2  0
  7 11  1  0
 11 12  1  0
 12 13  2  0
 12 14  1  0
 14 15  1  0
 15 16  1  0
 16 17  1  0
 17 18  2  0
 17 19  1  0
 19 20  1  0
 19 21  1  0
 21 22  1  0
 22 23  1  0
 23 24  1  0
 11 25  1  0
 25 26  2  0
 26  2  1  0
 25  5  1  0
  1 27  1  0
  1 28  1  0
  1 29  1  0
  3 30  1  0
  4 31  1  0
  6 32  1  0
  9 33  1  0
  9 34  1  0
 15 35  1  0
 15 36  1  0
 16 37  1  0
 16 38  1  0
 20 39  1  0
 20 40  1  0
 20 41  1  0
 21 42  1  0
 21 43  1  0
 22 44  1  0
 22 45  1  0
 23 46  1  0
 23 47  1  0
 24 48  1  0
 26 49  1  0
M  END
>  <UniqueID>  (19) 
19

>  <SMILES>  (19) 
Cc1ccc2cc(C(N)=O)n(C(=O)OCCC(=O)N(C)CCCO)c2c1

>  <Energy>  (19) 
80.33702317856114

>  <Genealogy>  (19) 
Cc1ccc2cc(C(N)=O)n(C(=O)OCCC(=O)N(C)CCCO)c2c1 (3D coordinates assigned)
Cc1ccc2cc(C(N)=O)n(C(=O)OCCC(=O)N(C)CCCO)c2c1 (optimized conformer: 80.33702317856114 kcal/mol)

>  <smiles>  (19) 
Cc1ccc2cc(C(N)=O)n(C(=O)OCCC(=O)N(C)CCCO)c2c1

>  <score_type>  (19) 
oracle

>  <origin>  (19) 
adg

>  <m_score__min__energy>  (19) 
-7.1399999999999997

>  <m_primary>  (19) 
energy

$$$$
19:0
     RDKit          3D

 48 50  0  0  0  0  0  0  0  0999 V2000
  149.5550  151.8540  132.2270 C   0  0  0  0  0  0  0  0  0  0  0  0
  148.6470  152.9670  132.6360 C   0  0  0  0  0  0  0  0  0  0  0  0
  148.8690  154.3160  132.4300 C   0  0  0  0  0  0  0  0  0  0  0  0
  147.8060  154.9430  133.0610 C   0  0  0  0  0  0  0  0  0  0  0  0
  147.6050  156.4080  133.1270 C   0  0  0  0  0  0  0  0  0  0  0  0
  148.7190  157.2770  133.0050 C   0  0  0  0  0  0  0  0  0  0  0  0
  148.5550  158.6710  133.0730 C   0  0  0  0  0  0  0  0  0  0  0  0
  147.2700  159.1660  133.2790 C   0  0  0  0  0  0  0  0  0  0  0  0
  146.8260  160.4660  133.3630 C   0  0  0  0  0  0  0  0  0  0  0  0
  145.4530  160.3730  133.5730 C   0  0  0  0  0  0  0  0  0  0  0  0
  144.5840  161.5470  133.8090 C   0  0  0  0  0  0  0  0  0  0  0  0
  143.1670  161.4380  133.7310 N   0  0  0  0  0  0  0  0  0  0  0  0
  145.1020  162.6490  134.1320 O   0  0  0  0  0  0  0  0  0  0  0  0
  145.0610  159.0680  133.6090 N   0  0  0  0  0  0  0  0  0  0  0  0
  143.7260  158.5470  133.7040 C   0  0  0  0  0  0  0  0  0  0  0  0
  143.2480  157.8740  132.7510 O   0  0  0  0  0  0  0  0  0  0  0  0
  142.9840  158.7690  134.8730 O   0  0  0  0  0  0  0  0  0  0  0  0
  141.5660  158.6130  135.0240 C   0  0  0  0  0  0  0  0  0  0  0  0
  140.8220  159.2370  133.8280 C   0  0  0  0  0  0  0  0  0  0  0  0
  141.1990  157.1240  135.1780 C   0  0  0  0  0  0  0  0  0  0  0  0
  141.1640  159.3580  136.3060 C   0  0  0  0  0  0  0  0  0  0  0  0
  146.1870  158.3420  133.4300 C   0  0  0  0  0  0  0  0  0  0  0  0
  146.3200  156.9500  133.3520 C   0  0  0  0  0  0  0  0  0  0  0  0
  146.9990  153.9960  133.5980 N   0  0  0  0  0  0  0  0  0  0  0  0
  145.7490  154.1880  134.3300 C   0  0  0  0  0  0  0  0  0  0  0  0
  147.5210  152.8040  133.3550 N   0  0  0  0  0  0  0  0  0  0  0  0
  149.9574  151.3607  133.1240 H   0  0  0  0  0  0  0  0  0  0  0  0
  148.9922  151.1230  131.6279 H   0  0  0  0  0  0  0  0  0  0  0  0
  150.3841  152.2585  131.6279 H   0  0  0  0  0  0  0  0  0  0  0  0
  149.7022  154.7862  131.8872 H   0  0  0  0  0  0  0  0  0  0  0  0
  149.7236  156.8548  132.8553 H   0  0  0  0  0  0  0  0  0  0  0  0
  149.4143  159.3494  132.9669 H   0  0  0  0  0  0  0  0  0  0  0  0
  147.4279  161.3831  133.2816 H   0  0  0  0  0  0  0  0  0  0  0  0
  142.7040  160.5100  133.6110 H   0  0  0  0  0  0  0  0  0  0  0  0
  140.0280  159.9029  134.1970 H   0  0  0  0  0  0  0  0  0  0  0  0
  141.5305  159.8150  133.2165 H   0  0  0  0  0  0  0  0  0  0  0  0
  140.3762  158.4387  133.2165 H   0  0  0  0  0  0  0  0  0  0  0  0
  141.1365  156.8704  136.2465 H   0  0  0  0  0  0  0  0  0  0  0  0
  140.2273  156.9344  134.6987 H   0  0  0  0  0  0  0  0  0  0  0  0
  141.9714  156.5045  134.6987 H   0  0  0  0  0  0  0  0  0  0  0  0
  141.4790  158.7742  137.1834 H   0  0  0  0  0  0  0  0  0  0  0  0
  141.6530  160.3431  136.3262 H   0  0  0  0  0  0  0  0  0  0  0  0
  140.0722  159.4901  136.3262 H   0  0  0  0  0  0  0  0  0  0  0  0
  145.4441  156.2939  133.4634 H   0  0  0  0  0  0  0  0  0  0  0  0
  145.9488  154.1573  135.4113 H   0  0  0  0  0  0  0  0  0  0  0  0
  145.3149  155.1634  134.0649 H   0  0  0  0  0  0  0  0  0  0  0  0
  145.0422  153.3879  134.0649 H   0  0  0  0  0  0  0  0  0  0  0  0
  147.1160  151.8950  133.6740 H   0  0  0  0  0  0  0  0  0  0  0  0
  1  2  1  0
  2  3  1  0
  3  4  2  0
  4  5  1  0
  5  6  2  0
  6  7  1  0
  7  8  2  0
  8  9  1  0
  9 10  2  0
 10 11  1  0
 11 12  1  0
 11 13  2  0
 10 14  1  0
 14 15  1  0
 15 16  2  0
 15 17  1  0
 17 18  1  0
 18 19  1  0
 18 20  1  0
 18 21  1  0
 14 22  1  0
 22 23  2  0
  4 24  1  0
 24 25  1  0
 24 26  1  0
 26  2  2  0
 23  5  1  0
 22  8  1  0
  1 27  1  0
  1 28  1  0
  1 29  1  0
  3 30  1  0
  6 31  1  0
  7 32  1  0
  9 33  1  0
 12 34  1  0
 19 35  1  0
 19 36  1  0
 19 37  1  0
 20 38  1  0
 20 39  1  0
 20 40  1  0
 21 41  1  0
 21 42  1  0
 21 43  1  0
 23 44  1  0
 25 45  1  0
 25 46  1  0
 25 47  1  0
 26 48  1  0
M  CHG  2  12  -1  26   1
M  END
>  <UniqueID>  (20) 
20

>  <SMILES>  (20) 
Cc1cc(-c2ccc3cc(C([NH-])=O)n(C(=O)OC(C)(C)C)c3c2)n(C)[nH+]1

>  <Energy>  (20) 
116.80536299626692

>  <Genealogy>  (20) 
Cc1cc(-c2ccc3cc(C([NH-])=O)n(C(=O)OC(C)(C)C)c3c2)n(C)[nH+]1 (protonated)
Cc1cc(-c2ccc3cc(C([NH-])=O)n(C(=O)OC(C)(C)C)c3c2)n(C)[nH+]1 (3D coordinates assigned)
Cc1cc(-c2ccc3cc(C([NH-])=O)n(C(=O)OC(C)(C)C)c3c2)n(C)[nH+]1 (optimized conformer: 116.80536299626692 kcal/mol)

>  <smiles>  (20) 
Cc1cc(-c2ccc3cc(C(N)=O)n(C(=O)OC(C)(C)C)c3c2)n(C)n1

>  <score_type>  (20) 
oracle

>  <origin>  (20) 
adg

>  <m_score__min__energy>  (20) 
-8.3499999999999996

>  <m_primary>  (20) 
energy

$$$$
20:0
     RDKit          3D

 39 41  0  0  0  0  0  0  0  0999 V2000
  150.0090  160.1190  129.6460 C   0  0  0  0  0  0  0  0  0  0  0  0
  149.1550  159.9660  130.8580 C   0  0  0  0  0  0  0  0  0  0  0  0
  148.5880  160.9800  131.3490 O   0  0  0  0  0  0  0  0  0  0  0  0
  149.0370  158.7040  131.4570 O   0  0  0  0  0  0  0  0  0  0  0  0
  148.6340  158.4740  132.7800 C   0  0  0  0  0  0  0  0  0  0  0  0
  149.2490  159.0090  133.7430 O   0  0  0  0  0  0  0  0  0  0  0  0
  147.5160  157.6100  133.0380 N   0  0  0  0  0  0  0  0  0  0  0  0
  146.2110  157.9720  133.2000 C   0  0  0  0  0  0  0  0  0  0  0  0
  145.7120  159.3610  133.3020 C   0  0  0  0  0  0  0  0  0  0  0  0
  146.6070  160.4680  133.1790 N   0  0  0  0  0  0  0  0  0  0  0  0
  144.4830  159.5820  133.4670 O   0  0  0  0  0  0  0  0  0  0  0  0
  145.4080  156.8440  133.3550 C   0  0  0  0  0  0  0  0  0  0  0  0
  146.2660  155.7710  133.2830 C   0  0  0  0  0  0  0  0  0  0  0  0
  146.0010  154.4080  133.3650 C   0  0  0  0  0  0  0  0  0  0  0  0
  147.0780  153.5190  133.2300 C   0  0  0  0  0  0  0  0  0  0  0  0
  148.3970  154.0010  133.0090 C   0  0  0  0  0  0  0  0  0  0  0  0
  149.5650  153.0410  132.8510 C   0  0  1  0  0  0  0  0  0  0  0  0
  149.4790  151.8680  133.8030 C   0  0  0  0  0  0  0  0  0  0  0  0
  149.1860  150.6740  132.9050 C   0  0  0  0  0  0  0  0  0  0  0  0
  148.9720  151.1180  131.5860 O   0  0  0  0  0  0  0  0  0  0  0  0
  149.5840  152.3790  131.4810 C   0  0  0  0  0  0  0  0  0  0  0  0
  148.6220  155.3950  132.9340 C   0  0  0  0  0  0  0  0  0  0  0  0
  147.5330  156.2590  133.0910 C   0  0  0  0  0  0  0  0  0  0  0  0
  151.0492  160.3054  129.9515 H   0  0  0  0  0  0  0  0  0  0  0  0
  149.9624  159.1982  129.0460 H   0  0  0  0  0  0  0  0  0  0  0  0
  149.6457  160.9664  129.0460 H   0  0  0  0  0  0  0  0  0  0  0  0
  146.2400  161.4450  133.2140 H   0  0  0  0  0  0  0  0  0  0  0  0
  147.6370  160.3260  133.0940 H   0  0  0  0  0  0  0  0  0  0  0  0
  144.3184  156.8171  133.5035 H   0  0  0  0  0  0  0  0  0  0  0  0
  144.9783  154.0384  133.5306 H   0  0  0  0  0  0  0  0  0  0  0  0
  146.8996  152.4356  133.2960 H   0  0  0  0  0  0  0  0  0  0  0  0
  150.4487  153.6703  133.0328 H   0  0  0  0  0  0  0  0  0  0  0  0
  150.4305  151.7294  134.3372 H   0  0  0  0  0  0  0  0  0  0  0  0
  148.7098  152.0105  134.5763 H   0  0  0  0  0  0  0  0  0  0  0  0
  150.0411  149.9823  132.9245 H   0  0  0  0  0  0  0  0  0  0  0  0
  148.2859  150.1558  133.2673 H   0  0  0  0  0  0  0  0  0  0  0  0
  150.6233  152.2598  131.1410 H   0  0  0  0  0  0  0  0  0  0  0  0
  149.0416  153.0016  130.7542 H   0  0  0  0  0  0  0  0  0  0  0  0
  149.6323  155.7918  132.7559 H   0  0  0  0  0  0  0  0  0  0  0  0
  1  2  1  0
  2  3  2  0
  2  4  1  0
  4  5  1  0
  5  6  2  0
  5  7  1  0
  7  8  1  0
  8  9  1  0
  9 10  1  0
  9 11  2  0
  8 12  2  0
 12 13  1  0
 13 14  2  0
 14 15  1  0
 15 16  2  0
 16 17  1  0
 17 18  1  0
 18 19  1  0
 19 20  1  0
 20 21  1  0
 16 22  1  0
 22 23  2  0
 23  7  1  0
 23 13  1  0
 21 17  1  0
  1 24  1  0
  1 25  1  0
  1 26  1  0
 10 27  1  0
 10 28  1  0
 12 29  1  0
 14 30  1  0
 15 31  1  0
 17 32  1  1
 18 33  1  0
 18 34  1  0
 19 35  1  0
 19 36  1  0
 21 37  1  0
 21 38  1  0
 22 39  1  0
M  END
>  <UniqueID>  (21) 
21

>  <SMILES>  (21) 
CC(=O)OC(=O)n1c(C(N)=O)cc2ccc([C@H]3CCOC3)cc21

>  <Energy>  (21) 
80.35552535284859

>  <Genealogy>  (21) 
CC(=O)OC(=O)n1c(C(N)=O)cc2ccc([C@H]3CCOC3)cc21 (3D coordinates assigned)
CC(=O)OC(=O)n1c(C(N)=O)cc2ccc([C@H]3CCOC3)cc21 (nonaromatic ring conformer: 80.35552535284859 kcal/mol)

>  <smiles>  (21) 
CC(=O)OC(=O)n1c(C(N)=O)cc2ccc([C@H]3CCOC3)cc21

>  <score_type>  (21) 
oracle

>  <origin>  (21) 
adg

>  <m_score__min__energy>  (21) 
-7.4299999999999997

>  <m_primary>  (21) 
energy

$$$$
21:0
     RDKit          3D

 45 46  0  0  0  0  0  0  0  0999 V2000
  145.2110  160.2690  133.3920 C   0  0  0  0  0  0  0  0  0  0  0  0
  146.2430  159.2040  133.1720 C   0  0  0  0  0  0  0  0  0  0  0  0
  147.5690  159.5540  132.8140 C   0  0  0  0  0  0  0  0  0  0  0  0
  148.5430  158.5590  132.6190 C   0  0  0  0  0  0  0  0  0  0  0  0
  148.1680  157.2320  132.8100 C   0  0  0  0  0  0  0  0  0  0  0  0
  148.8920  156.0720  132.6470 C   0  0  0  0  0  0  0  0  0  0  0  0
  148.0050  155.0410  132.9480 C   0  0  0  0  0  0  0  0  0  0  0  0
  148.3770  153.6130  132.9370 C   0  0  0  0  0  0  0  0  0  0  0  0
  147.4560  152.6050  133.3560 N   0  0  0  0  0  0  0  0  0  0  0  0
  149.5440  153.2800  132.6010 O   0  0  0  0  0  0  0  0  0  0  0  0
  146.7820  155.5420  133.2770 N   0  0  0  0  0  0  0  0  0  0  0  0
  145.5560  154.8220  133.4770 C   0  0  0  0  0  0  0  0  0  0  0  0
  145.1660  154.5710  134.6490 O   0  0  0  0  0  0  0  0  0  0  0  0
  144.7090  154.3980  132.3100 C   0  0  0  0  0  0  0  0  0  0  0  0
  144.1150  153.0350  132.5460 C   0  0  0  0  0  0  0  0  0  0  0  0
  144.8490  152.0630  132.6290 O   0  0  0  0  0  0  0  0  0  0  0  0
  142.6230  152.8510  132.6490 C   0  0  0  0  0  0  0  0  0  0  0  0
  142.2930  151.6910  133.5040 N   0  0  0  0  0  0  0  0  0  0  0  0
  141.7610  152.1510  134.8030 C   0  0  0  0  0  0  0  0  0  0  0  0
  141.3120  150.8140  132.8230 C   0  0  0  0  0  0  0  0  0  0  0  0
  141.9820  149.5480  132.2750 C   0  0  0  0  0  0  0  0  0  0  0  0
  143.3760  149.6990  132.2380 O   0  0  0  0  0  0  0  0  0  0  0  0
  146.8980  156.8830  133.1880 C   0  0  0  0  0  0  0  0  0  0  0  0
  145.9020  157.8480  133.3710 C   0  0  0  0  0  0  0  0  0  0  0  0
  145.0645  160.4202  134.4717 H   0  0  0  0  0  0  0  0  0  0  0  0
  145.5506  161.2091  132.9329 H   0  0  0  0  0  0  0  0  0  0  0  0
  144.2606  159.9591  132.9329 H   0  0  0  0  0  0  0  0  0  0  0  0
  147.8383  160.6130  132.6877 H   0  0  0  0  0  0  0  0  0  0  0  0
  149.5699  158.8211  132.3245 H   0  0  0  0  0  0  0  0  0  0  0  0
  149.9454  155.9794  132.3440 H   0  0  0  0  0  0  0  0  0  0  0  0
  146.5380  152.8560  133.7840 H   0  0  0  0  0  0  0  0  0  0  0  0
  147.7220  151.5970  133.3020 H   0  0  0  0  0  0  0  0  0  0  0  0
  143.8963  155.1262  132.1712 H   0  0  0  0  0  0  0  0  0  0  0  0
  145.3430  154.3550  131.4121 H   0  0  0  0  0  0  0  0  0  0  0  0
  142.1774  153.7577  133.0842 H   0  0  0  0  0  0  0  0  0  0  0  0
  142.2204  152.6711  131.6413 H   0  0  0  0  0  0  0  0  0  0  0  0
  142.3188  151.6687  135.6192 H   0  0  0  0  0  0  0  0  0  0  0  0
  141.8715  153.2428  134.8786 H   0  0  0  0  0  0  0  0  0  0  0  0
  140.6966  151.8841  134.8786 H   0  0  0  0  0  0  0  0  0  0  0  0
  140.5315  150.5238  133.5417 H   0  0  0  0  0  0  0  0  0  0  0  0
  140.8771  151.3695  131.9791 H   0  0  0  0  0  0  0  0  0  0  0  0
  141.7285  148.6962  132.9233 H   0  0  0  0  0  0  0  0  0  0  0  0
  141.6190  149.3714  131.2518 H   0  0  0  0  0  0  0  0  0  0  0  0
  143.5850  150.5240  132.7470 H   0  0  0  0  0  0  0  0  0  0  0  0
  144.8814  157.5587  133.6619 H   0  0  0  0  0  0  0  0  0  0  0  0
  1  2  1  0
  2  3  2  0
  3  4  1  0
  4  5  2  0
  5  6  1  0
  6  7  2  0
  7  8  1  0
  8  9  1  0
  8 10  2  0
  7 11  1  0
 11 12  1  0
 12 13  2  0
 12 14  1  0
 14 15  1  0
 15 16  2  0
 15 17  1  0
 17 18  1  0
 18 19  1  0
 18 20  1  0
 20 21  1  0
 21 22  1  0
 11 23  1  0
 23 24  2  0
 24  2  1  0
 23  5  1  0
  1 25  1  0
  1 26  1  0
  1 27  1  0
  3 28  1  0
  4 29  1  0
  6 30  1  0
  9 31  1  0
  9 32  1  0
 14 33  1  0
 14 34  1  0
 17 35  1  0
 17 36  1  0
 19 37  1  0
 19 38  1  0
 19 39  1  0
 20 40  1  0
 20 41  1  0
 21 42  1  0
 21 43  1  0
 22 44  1  0
 24 45  1  0
M  END
>  <UniqueID>  (22) 
22

>  <SMILES>  (22) 
Cc1ccc2cc(C(N)=O)n(C(=O)CC(=O)CN(C)CCO)c2c1

>  <Energy>  (22) 
80.16529585916447

>  <Genealogy>  (22) 
Cc1ccc2cc(C(N)=O)n(C(=O)CC(=O)CN(C)CCO)c2c1 (3D coordinates assigned)
Cc1ccc2cc(C(N)=O)n(C(=O)CC(=O)CN(C)CCO)c2c1 (optimized conformer: 80.16529585916447 kcal/mol)

>  <smiles>  (22) 
Cc1ccc2cc(C(N)=O)n(C(=O)CC(=O)CN(C)CCO)c2c1

>  <score_type>  (22) 
oracle

>  <origin>  (22) 
adg

>  <m_score__min__energy>  (22) 
-6.3899999999999997

>  <m_primary>  (22) 
energy

$$$$
22:0
     RDKit          3D

 41 42  0  0  0  0  0  0  0  0999 V2000
  140.6210  156.8060  135.0230 C   0  0  0  0  0  0  0  0  0  0  0  0
  140.5160  156.7570  133.5520 N   0  0  2  0  0  0  0  0  0  0  0  0
  139.4340  157.6170  132.9970 C   0  0  0  0  0  0  0  0  0  0  0  0
  139.8310  158.9650  132.3190 C   0  0  2  0  0  0  0  0  0  0  0  0
  140.5330  158.7820  131.1190 O   0  0  0  0  0  0  0  0  0  0  0  0
  140.6200  159.8910  133.2600 C   0  0  0  0  0  0  0  0  0  0  0  0
  141.9530  159.4650  133.3600 O   0  0  0  0  0  0  0  0  0  0  0  0
  140.5180  155.3860  133.0860 C   0  0  0  0  0  0  0  0  0  0  0  0
  139.4390  154.7490  132.9560 O   0  0  0  0  0  0  0  0  0  0  0  0
  141.7580  154.6660  132.9970 N   0  0  0  0  0  0  0  0  0  0  0  0
  143.0210  155.1390  133.1720 C   0  0  0  0  0  0  0  0  0  0  0  0
  143.4000  156.5600  133.2760 C   0  0  0  0  0  0  0  0  0  0  0  0
  143.0740  157.4750  132.2350 N   0  0  0  0  0  0  0  0  0  0  0  0
  144.0630  156.9620  134.2680 O   0  0  0  0  0  0  0  0  0  0  0  0
  143.9390  154.0910  133.1830 C   0  0  0  0  0  0  0  0  0  0  0  0
  143.1890  152.9500  133.0010 C   0  0  0  0  0  0  0  0  0  0  0  0
  143.5780  151.6160  132.9530 C   0  0  0  0  0  0  0  0  0  0  0  0
  142.5790  150.6420  132.7890 C   0  0  0  0  0  0  0  0  0  0  0  0
  141.2150  151.0160  132.6600 C   0  0  0  0  0  0  0  0  0  0  0  0
  140.1460  149.9590  132.5420 C   0  0  0  0  0  0  0  0  0  0  0  0
  140.0080  149.2690  133.7330 F   0  0  0  0  0  0  0  0  0  0  0  0
  138.9420  150.5620  132.2280 F   0  0  0  0  0  0  0  0  0  0  0  0
  140.4660  149.0490  131.5490 F   0  0  0  0  0  0  0  0  0  0  0  0
  140.8580  152.3810  132.7370 C   0  0  0  0  0  0  0  0  0  0  0  0
  141.8760  153.3270  132.8920 C   0  0  0  0  0  0  0  0  0  0  0  0
  139.7102  156.3810  135.4700 H   0  0  0  0  0  0  0  0  0  0  0  0
  141.4953  156.2229  135.3478 H   0  0  0  0  0  0  0  0  0  0  0  0
  140.7357  157.8507  135.3478 H   0  0  0  0  0  0  0  0  0  0  0  0
  141.4040  157.1890  133.2000 H   0  0  0  0  0  0  0  0  0  0  0  0
  138.8981  157.0200  132.2444 H   0  0  0  0  0  0  0  0  0  0  0  0
  138.8504  157.9198  133.8789 H   0  0  0  0  0  0  0  0  0  0  0  0
  138.8772  159.4579  132.0795 H   0  0  0  0  0  0  0  0  0  0  0  0
  141.4890  158.6590  131.3590 H   0  0  0  0  0  0  0  0  0  0  0  0
  140.5960  160.9167  132.8633 H   0  0  0  0  0  0  0  0  0  0  0  0
  140.1598  159.8614  134.2587 H   0  0  0  0  0  0  0  0  0  0  0  0
  142.2100  159.1170  132.4670 H   0  0  0  0  0  0  0  0  0  0  0  0
  142.0860  157.7580  132.0580 H   0  0  0  0  0  0  0  0  0  0  0  0
  145.0295  154.1600  133.3099 H   0  0  0  0  0  0  0  0  0  0  0  0
  144.6370  151.3316  133.0409 H   0  0  0  0  0  0  0  0  0  0  0  0
  142.8563  149.5779  132.7602 H   0  0  0  0  0  0  0  0  0  0  0  0
  139.8046  152.6920  132.6765 H   0  0  0  0  0  0  0  0  0  0  0  0
  1  2  1  0
  2  3  1  0
  3  4  1  0
  4  5  1  0
  4  6  1  0
  6  7  1  0
  2  8  1  0
  8  9  2  0
  8 10  1  0
 10 11  1  0
 11 12  1  0
 12 13  1  0
 12 14  2  0
 11 15  2  0
 15 16  1  0
 16 17  2  0
 17 18  1  0
 18 19  2  0
 19 20  1  0
 20 21  1  0
 20 22  1  0
 20 23  1  0
 19 24  1  0
 24 25  2  0
 25 10  1  0
 25 16  1  0
  1 26  1  0
  1 27  1  0
  1 28  1  0
  2 29  1  6
  3 30  1  0
  3 31  1  0
  4 32  1  6
  5 33  1  0
  6 34  1  0
  6 35  1  0
  7 36  1  0
 13 37  1  0
 15 38  1  0
 17 39  1  0
 18 40  1  0
 24 41  1  0
M  CHG  2   2   1  13  -1
M  END
>  <UniqueID>  (23) 
23

>  <SMILES>  (23) 
C[N@H+](C[C@H](O)CO)C(=O)n1c(C([NH-])=O)cc2ccc(C(F)(F)F)cc21

>  <Energy>  (23) 
93.62996406079064

>  <Genealogy>  (23) 
C[NH+](CC(O)CO)C(=O)n1c(C([NH-])=O)cc2ccc(C(F)(F)F)cc21 (protonated)
C[N@H+](C[C@H](O)CO)C(=O)n1c(C([NH-])=O)cc2ccc(C(F)(F)F)cc21 (chirality)
C[N@H+](C[C@H](O)CO)C(=O)n1c(C([NH-])=O)cc2ccc(C(F)(F)F)cc21 (3D coordinates assigned)
C[N@H+](C[C@H](O)CO)C(=O)n1c(C([NH-])=O)cc2ccc(C(F)(F)F)cc21 (optimized conformer: 93.62996406079064 kcal/mol)

>  <smiles>  (23) 
CN(CC(O)CO)C(=O)n1c(C(N)=O)cc2ccc(C(F)(F)F)cc21

>  <score_type>  (23) 
oracle

>  <origin>  (23) 
adg

>  <m_score__min__energy>  (23) 
-4.6900000000000004

>  <m_primary>  (23) 
energy

$$$$
23:0
     RDKit          3D

 41 42  0  0  0  0  0  0  0  0999 V2000
  139.1920  157.2600  132.4800 C   0  0  0  0  0  0  0  0  0  0  0  0
  139.2920  158.7210  132.5210 N   0  0  0  0  0  0  0  0  0  0  0  0
  140.3400  159.3600  133.3240 C   0  0  0  0  0  0  0  0  0  0  0  0
  140.2320  158.9500  134.7600 C   0  0  0  0  0  0  0  0  0  0  0  0
  139.3230  158.1480  135.1100 O   0  0  0  0  0  0  0  0  0  0  0  0
  141.1000  159.4990  135.7100 O   0  0  0  0  0  0  0  0  0  0  0  0
  142.5130  159.3150  135.6710 C   0  0  0  0  0  0  0  0  0  0  0  0
  142.8490  158.1990  134.8500 O   0  0  0  0  0  0  0  0  0  0  0  0
  143.4710  158.3250  133.6040 C   0  0  0  0  0  0  0  0  0  0  0  0
  142.8910  157.9180  132.5600 O   0  0  0  0  0  0  0  0  0  0  0  0
  144.7630  158.9440  133.5140 N   0  0  0  0  0  0  0  0  0  0  0  0
  145.0710  160.2670  133.6320 C   0  0  0  0  0  0  0  0  0  0  0  0
  144.1020  161.3780  133.7460 C   0  0  0  0  0  0  0  0  0  0  0  0
  142.7080  161.1200  133.5960 N   0  0  0  0  0  0  0  0  0  0  0  0
  144.4880  162.5450  134.0090 O   0  0  0  0  0  0  0  0  0  0  0  0
  146.4490  160.4580  133.5470 C   0  0  0  0  0  0  0  0  0  0  0  0
  146.9800  159.2030  133.3640 C   0  0  0  0  0  0  0  0  0  0  0  0
  148.3070  158.8050  133.2270 C   0  0  0  0  0  0  0  0  0  0  0  0
  148.5710  157.4330  133.0780 C   0  0  0  0  0  0  0  0  0  0  0  0
  147.5120  156.4900  133.0750 C   0  0  0  0  0  0  0  0  0  0  0  0
  147.8180  155.0260  132.9340 C   0  0  0  0  0  0  0  0  0  0  0  0
  147.6120  154.3900  134.1430 F   0  0  0  0  0  0  0  0  0  0  0  0
  149.1370  154.8590  132.5500 F   0  0  0  0  0  0  0  0  0  0  0  0
  146.1780  156.9320  133.2200 C   0  0  0  0  0  0  0  0  0  0  0  0
  145.9440  158.3060  133.3460 C   0  0  0  0  0  0  0  0  0  0  0  0
  138.4100  159.5170  131.7060 C   0  0  0  0  0  0  0  0  0  0  0  0
  138.8160  160.5920  131.1890 O   0  0  0  0  0  0  0  0  0  0  0  0
  137.1000  159.1120  131.4810 O   0  0  0  0  0  0  0  0  0  0  0  0
  139.1650  156.8654  133.5064 H   0  0  0  0  0  0  0  0  0  0  0  0
  138.2719  156.9701  131.9514 H   0  0  0  0  0  0  0  0  0  0  0  0
  140.0640  156.8475  131.9514 H   0  0  0  0  0  0  0  0  0  0  0  0
  141.3248  159.0604  132.9363 H   0  0  0  0  0  0  0  0  0  0  0  0
  140.2192  160.4514  133.2583 H   0  0  0  0  0  0  0  0  0  0  0  0
  142.9847  160.2205  135.2617 H   0  0  0  0  0  0  0  0  0  0  0  0
  142.8755  159.1270  136.6924 H   0  0  0  0  0  0  0  0  0  0  0  0
  142.3010  160.1970  133.8670 H   0  0  0  0  0  0  0  0  0  0  0  0
  146.9956  161.4103  133.6124 H   0  0  0  0  0  0  0  0  0  0  0  0
  149.1237  159.5419  133.2352 H   0  0  0  0  0  0  0  0  0  0  0  0
  149.6088  157.0872  132.9626 H   0  0  0  0  0  0  0  0  0  0  0  0
  147.1554  154.5917  132.1708 H   0  0  0  0  0  0  0  0  0  0  0  0
  145.3444  156.2144  133.2335 H   0  0  0  0  0  0  0  0  0  0  0  0
  1  2  1  0
  2  3  1  0
  3  4  1  0
  4  5  2  0
  4  6  1  0
  6  7  1  0
  7  8  1  0
  8  9  1  0
  9 10  2  0
  9 11  1  0
 11 12  1  0
 12 13  1  0
 13 14  1  0
 13 15  2  0
 12 16  2  0
 16 17  1  0
 17 18  2  0
 18 19  1  0
 19 20  2  0
 20 21  1  0
 21 22  1  0
 21 23  1  0
 20 24  1  0
 24 25  2  0
  2 26  1  0
 26 27  2  0
 26 28  1  0
 25 11  1  0
 25 17  1  0
  1 29  1  0
  1 30  1  0
  1 31  1  0
  3 32  1  0
  3 33  1  0
  7 34  1  0
  7 35  1  0
 14 36  1  0
 16 37  1  0
 18 38  1  0
 19 39  1  0
 21 40  1  0
 24 41  1  0
M  CHG  2  14  -1  28  -1
M  END
>  <UniqueID>  (24) 
24

>  <SMILES>  (24) 
CN(CC(=O)OCOC(=O)n1c(C([NH-])=O)cc2ccc(C(F)F)cc21)C(=O)[O-]

>  <Energy>  (24) 
72.03982810048859

>  <Genealogy>  (24) 
CN(CC(=O)OCOC(=O)n1c(C([NH-])=O)cc2ccc(C(F)F)cc21)C(=O)[O-] (protonated)
CN(CC(=O)OCOC(=O)n1c(C([NH-])=O)cc2ccc(C(F)F)cc21)C(=O)[O-] (3D coordinates assigned)
CN(CC(=O)OCOC(=O)n1c(C([NH-])=O)cc2ccc(C(F)F)cc21)C(=O)[O-] (optimized conformer: 72.03982810048859 kcal/mol)

>  <smiles>  (24) 
CN(CC(=O)OCOC(=O)n1c(C(N)=O)cc2ccc(C(F)F)cc21)C(=O)O

>  <score_type>  (24) 
oracle

>  <origin>  (24) 
adg

>  <m_score__min__energy>  (24) 
-5.8300000000000001

>  <m_primary>  (24) 
energy

$$$$
24:0
     RDKit          3D

 34 35  0  0  0  0  0  0  0  0999 V2000
  141.2360  158.1320  134.8380 C   0  0  0  0  0  0  0  0  0  0  0  0
  142.3070  158.5680  134.4990 C   0  0  0  0  0  0  0  0  0  0  0  0
  143.5870  159.0880  134.0940 C   0  0  0  0  0  0  0  0  0  0  0  0
  143.8230  160.4820  134.1270 C   0  0  0  0  0  0  0  0  0  0  0  0
  145.0720  161.0010  133.7470 C   0  0  0  0  0  0  0  0  0  0  0  0
  146.0540  160.1040  133.3340 C   0  0  0  0  0  0  0  0  0  0  0  0
  147.3530  160.3300  132.9420 C   0  0  0  0  0  0  0  0  0  0  0  0
  147.8780  159.0710  132.6580 C   0  0  0  0  0  0  0  0  0  0  0  0
  149.2400  158.8550  132.1250 C   0  0  0  0  0  0  0  0  0  0  0  0
  149.7400  157.5290  131.9720 N   0  0  0  0  0  0  0  0  0  0  0  0
  149.9820  159.8310  131.8380 O   0  0  0  0  0  0  0  0  0  0  0  0
  146.9410  158.1040  132.8670 N   0  0  0  0  0  0  0  0  0  0  0  0
  147.1060  156.6820  132.7660 C   0  0  0  0  0  0  0  0  0  0  0  0
  147.0130  156.1180  131.6420 O   0  0  0  0  0  0  0  0  0  0  0  0
  147.3450  155.9270  133.9210 O   0  0  0  0  0  0  0  0  0  0  0  0
  146.9840  154.5530  134.0610 C   0  0  0  0  0  0  0  0  0  0  0  0
  148.2160  153.6460  133.9540 C   0  0  0  0  0  0  0  0  0  0  0  0
  148.8510  153.6440  132.5620 C   0  0  0  0  0  0  0  0  0  0  0  0
  149.6000  154.8120  132.3690 O   0  0  0  0  0  0  0  0  0  0  0  0
  145.8290  158.7510  133.2800 C   0  0  0  0  0  0  0  0  0  0  0  0
  144.6010  158.2060  133.6700 C   0  0  0  0  0  0  0  0  0  0  0  0
  140.2583  157.7340  135.1475 H   0  0  0  0  0  0  0  0  0  0  0  0
  143.0237  161.1641  134.4522 H   0  0  0  0  0  0  0  0  0  0  0  0
  145.2683  162.0830  133.7748 H   0  0  0  0  0  0  0  0  0  0  0  0
  147.8681  161.2992  132.8684 H   0  0  0  0  0  0  0  0  0  0  0  0
  149.0950  156.7300  131.7810 H   0  0  0  0  0  0  0  0  0  0  0  0
  146.5119  154.4036  135.0433 H   0  0  0  0  0  0  0  0  0  0  0  0
  146.2852  154.2908  133.2530 H   0  0  0  0  0  0  0  0  0  0  0  0
  148.9673  153.9916  134.6793 H   0  0  0  0  0  0  0  0  0  0  0  0
  147.8812  152.6185  134.1593 H   0  0  0  0  0  0  0  0  0  0  0  0
  149.5109  152.7693  132.4652 H   0  0  0  0  0  0  0  0  0  0  0  0
  148.0544  153.5999  131.8047 H   0  0  0  0  0  0  0  0  0  0  0  0
  148.9580  155.5650  132.4330 H   0  0  0  0  0  0  0  0  0  0  0  0
  144.4317  157.1194  133.6464 H   0  0  0  0  0  0  0  0  0  0  0  0
  1  2  3  0
  2  3  1  0
  3  4  2  0
  4  5  1  0
  5  6  2  0
  6  7  1  0
  7  8  2  0
  8  9  1  0
  9 10  1  0
  9 11  2  0
  8 12  1  0
 12 13  1  0
 13 14  2  0
 13 15  1  0
 15 16  1  0
 16 17  1  0
 17 18  1  0
 18 19  1  0
 12 20  1  0
 20 21  2  0
 21  3  1  0
 20  6  1  0
  1 22  1  0
  4 23  1  0
  5 24  1  0
  7 25  1  0
 10 26  1  0
 16 27  1  0
 16 28  1  0
 17 29  1  0
 17 30  1  0
 18 31  1  0
 18 32  1  0
 19 33  1  0
 21 34  1  0
M  CHG  1  10  -1
M  END
>  <UniqueID>  (25) 
25

>  <SMILES>  (25) 
C#Cc1ccc2cc(C([NH-])=O)n(C(=O)OCCCO)c2c1

>  <Energy>  (25) 
66.51207830165241

>  <Genealogy>  (25) 
C#Cc1ccc2cc(C([NH-])=O)n(C(=O)OCCCO)c2c1 (protonated)
C#Cc1ccc2cc(C([NH-])=O)n(C(=O)OCCCO)c2c1 (3D coordinates assigned)
C#Cc1ccc2cc(C([NH-])=O)n(C(=O)OCCCO)c2c1 (optimized conformer: 66.51207830165241 kcal/mol)

>  <smiles>  (25) 
C#Cc1ccc2cc(C(N)=O)n(C(=O)OCCCO)c2c1

>  <score_type>  (25) 
oracle

>  <origin>  (25) 
adg

>  <m_score__min__energy>  (25) 
-6.2400000000000002

>  <m_primary>  (25) 
energy

$$$$
25:0
     RDKit          3D

 36 37  0  0  0  0  0  0  0  0999 V2000
  149.9620  158.1600  132.4440 N   0  0  0  0  0  0  0  0  0  0  0  0
  149.1050  159.2710  132.1730 C   0  0  0  0  0  0  0  0  0  0  0  0
  149.5530  160.2410  131.5050 O   0  0  0  0  0  0  0  0  0  0  0  0
  147.7220  159.3050  132.6950 C   0  0  0  0  0  0  0  0  0  0  0  0
  147.0280  160.4780  132.9870 C   0  0  0  0  0  0  0  0  0  0  0  0
  145.7650  160.0740  133.3530 C   0  0  0  0  0  0  0  0  0  0  0  0
  144.6630  160.8270  133.7480 C   0  0  0  0  0  0  0  0  0  0  0  0
  143.4870  160.1420  134.0940 C   0  0  0  0  0  0  0  0  0  0  0  0
  143.4360  158.7260  134.0560 C   0  0  0  0  0  0  0  0  0  0  0  0
  142.1550  158.0110  134.4120 C   0  0  2  0  0  0  0  0  0  0  0  0
  141.3370  157.9020  133.3000 F   0  0  0  0  0  0  0  0  0  0  0  0
  141.4110  158.7420  135.5290 C   0  0  0  0  0  0  0  0  0  0  0  0
  140.3150  158.0080  135.9450 F   0  0  0  0  0  0  0  0  0  0  0  0
  144.5710  157.9960  133.6350 C   0  0  0  0  0  0  0  0  0  0  0  0
  145.7240  158.7050  133.2780 C   0  0  0  0  0  0  0  0  0  0  0  0
  146.9180  158.2190  132.8740 N   0  0  0  0  0  0  0  0  0  0  0  0
  147.2800  156.8340  132.7480 C   0  0  0  0  0  0  0  0  0  0  0  0
  146.9790  156.1980  131.7010 O   0  0  0  0  0  0  0  0  0  0  0  0
  147.9580  156.1960  133.7940 O   0  0  0  0  0  0  0  0  0  0  0  0
  148.0750  154.7790  133.9120 C   0  0  0  0  0  0  0  0  0  0  0  0
  149.0190  154.2180  132.8490 C   0  0  0  0  0  0  0  0  0  0  0  0
  149.7540  155.2470  132.2420 O   0  0  0  0  0  0  0  0  0  0  0  0
  149.6120  157.3140  132.9460 H   0  0  0  0  0  0  0  0  0  0  0  0
  150.9490  158.1640  132.1020 H   0  0  0  0  0  0  0  0  0  0  0  0
  147.4094  161.5085  132.9356 H   0  0  0  0  0  0  0  0  0  0  0  0
  144.7118  161.9252  133.7879 H   0  0  0  0  0  0  0  0  0  0  0  0
  142.5957  160.7105  134.3978 H   0  0  0  0  0  0  0  0  0  0  0  0
  142.4191  157.0040  134.7672 H   0  0  0  0  0  0  0  0  0  0  0  0
  142.0916  158.8896  136.3805 H   0  0  0  0  0  0  0  0  0  0  0  0
  141.0633  159.7133  135.1472 H   0  0  0  0  0  0  0  0  0  0  0  0
  144.5487  156.8972  133.5890 H   0  0  0  0  0  0  0  0  0  0  0  0
  148.4684  154.5322  134.9091 H   0  0  0  0  0  0  0  0  0  0  0  0
  147.0803  154.3317  133.7692 H   0  0  0  0  0  0  0  0  0  0  0  0
  149.7143  153.5090  133.3222 H   0  0  0  0  0  0  0  0  0  0  0  0
  148.4202  153.7107  132.0783 H   0  0  0  0  0  0  0  0  0  0  0  0
  149.0990  155.9270  131.9380 H   0  0  0  0  0  0  0  0  0  0  0  0
  1  2  1  0
  2  3  2  0
  2  4  1  0
  4  5  2  0
  5  6  1  0
  6  7  2  0
  7  8  1  0
  8  9  2  0
  9 10  1  0
 10 11  1  0
 10 12  1  0
 12 13  1  0
  9 14  1  0
 14 15  2  0
 15 16  1  0
 16 17  1  0
 17 18  2  0
 17 19  1  0
 19 20  1  0
 20 21  1  0
 21 22  1  0
 16  4  1  0
 15  6  1  0
  1 23  1  0
  1 24  1  0
  5 25  1  0
  7 26  1  0
  8 27  1  0
 10 28  1  1
 12 29  1  0
 12 30  1  0
 14 31  1  0
 20 32  1  0
 20 33  1  0
 21 34  1  0
 21 35  1  0
 22 36  1  0
M  END
>  <UniqueID>  (26) 
26

>  <SMILES>  (26) 
NC(=O)c1cc2ccc([C@H](F)CF)cc2n1C(=O)OCCO

>  <Energy>  (26) 
69.37103131792759

>  <Genealogy>  (26) 
NC(=O)c1cc2ccc([C@H](F)CF)cc2n1C(=O)OCCO (chirality)
NC(=O)c1cc2ccc([C@H](F)CF)cc2n1C(=O)OCCO (3D coordinates assigned)
NC(=O)c1cc2ccc([C@H](F)CF)cc2n1C(=O)OCCO (optimized conformer: 69.37103131792759 kcal/mol)

>  <smiles>  (26) 
NC(=O)c1cc2ccc(C(F)CF)cc2n1C(=O)OCCO

>  <score_type>  (26) 
oracle

>  <origin>  (26) 
adg

>  <m_score__min__energy>  (26) 
-5.9400000000000004

>  <m_primary>  (26) 
energy

$$$$
26:0
     RDKit          3D

 43 44  0  0  0  0  0  0  0  0999 V2000
  148.1120  153.4120  136.6760 C   0  0  0  0  0  0  0  0  0  0  0  0
  147.9700  153.9560  135.3210 N   0  0  0  0  0  0  0  0  0  0  0  0
  148.4340  153.1480  134.1810 C   0  0  0  0  0  0  0  0  0  0  0  0
  148.3060  153.9290  132.8700 C   0  0  0  0  0  0  0  0  0  0  0  0
  149.0820  155.0960  132.9090 O   0  0  0  0  0  0  0  0  0  0  0  0
  147.3130  155.2330  135.1490 C   0  0  0  0  0  0  0  0  0  0  0  0
  148.0090  156.2840  135.0760 O   0  0  0  0  0  0  0  0  0  0  0  0
  145.8170  155.3460  135.0330 C   0  0  0  0  0  0  0  0  0  0  0  0
  145.4500  155.7410  133.7140 O   0  0  0  0  0  0  0  0  0  0  0  0
  146.1270  156.7360  133.0040 C   0  0  0  0  0  0  0  0  0  0  0  0
  146.9800  156.4210  132.1300 O   0  0  0  0  0  0  0  0  0  0  0  0
  145.8460  158.1210  133.2670 N   0  0  0  0  0  0  0  0  0  0  0  0
  146.7100  159.1720  133.1940 C   0  0  0  0  0  0  0  0  0  0  0  0
  148.1680  159.0810  132.9840 C   0  0  0  0  0  0  0  0  0  0  0  0
  148.8740  157.8600  133.2140 N   0  0  0  0  0  0  0  0  0  0  0  0
  148.8110  160.1110  132.6490 O   0  0  0  0  0  0  0  0  0  0  0  0
  146.0400  160.3750  133.3970 C   0  0  0  0  0  0  0  0  0  0  0  0
  144.7270  160.0280  133.6150 C   0  0  0  0  0  0  0  0  0  0  0  0
  143.6170  160.8330  133.8510 C   0  0  0  0  0  0  0  0  0  0  0  0
  142.3690  160.2070  133.9980 C   0  0  0  0  0  0  0  0  0  0  0  0
  142.2530  158.7980  133.9070 C   0  0  0  0  0  0  0  0  0  0  0  0
  140.9060  158.1450  134.0150 C   0  0  0  0  0  0  0  0  0  0  0  0
  139.7200  158.6460  132.3110 I   0  0  0  0  0  0  0  0  0  0  0  0
  143.3980  158.0130  133.6510 C   0  0  0  0  0  0  0  0  0  0  0  0
  144.6350  158.6610  133.5310 C   0  0  0  0  0  0  0  0  0  0  0  0
  147.9056  154.2029  137.4121 H   0  0  0  0  0  0  0  0  0  0  0  0
  147.3994  152.5858  136.8159 H   0  0  0  0  0  0  0  0  0  0  0  0
  149.1375  153.0395  136.8159 H   0  0  0  0  0  0  0  0  0  0  0  0
  149.4885  152.8768  134.3372 H   0  0  0  0  0  0  0  0  0  0  0  0
  147.8108  152.2440  134.1140 H   0  0  0  0  0  0  0  0  0  0  0  0
  148.6480  153.2959  132.0380 H   0  0  0  0  0  0  0  0  0  0  0  0
  147.2521  154.2104  132.7282 H   0  0  0  0  0  0  0  0  0  0  0  0
  148.4500  155.8550  132.9990 H   0  0  0  0  0  0  0  0  0  0  0  0
  145.3611  154.3709  135.2595 H   0  0  0  0  0  0  0  0  0  0  0  0
  145.4599  156.1044  135.7452 H   0  0  0  0  0  0  0  0  0  0  0  0
  148.4020  157.0390  133.6520 H   0  0  0  0  0  0  0  0  0  0  0  0
  149.8990  157.8030  133.0210 H   0  0  0  0  0  0  0  0  0  0  0  0
  146.4692  161.3877  133.3855 H   0  0  0  0  0  0  0  0  0  0  0  0
  143.7143  161.9265  133.9203 H   0  0  0  0  0  0  0  0  0  0  0  0
  141.4727  160.8164  134.1856 H   0  0  0  0  0  0  0  0  0  0  0  0
  141.0323  157.0534  134.0638 H   0  0  0  0  0  0  0  0  0  0  0  0
  140.4019  158.5010  134.9256 H   0  0  0  0  0  0  0  0  0  0  0  0
  143.3213  156.9205  133.5483 H   0  0  0  0  0  0  0  0  0  0  0  0
  1  2  1  0
  2  3  1  0
  3  4  1  0
  4  5  1  0
  2  6  1  0
  6  7  2  0
  6  8  1  0
  8  9  1  0
  9 10  1  0
 10 11  2  0
 10 12  1  0
 12 13  1  0
 13 14  1  0
 14 15  1  0
 14 16  2  0
 13 17  2  0
 17 18  1  0
 18 19  2  0
 19 20  1  0
 20 21  2  0
 21 22  1  0
 22 23  1  0
 21 24  1  0
 24 25  2  0
 25 12  1  0
 25 18  1  0
  1 26  1  0
  1 27  1  0
  1 28  1  0
  3 29  1  0
  3 30  1  0
  4 31  1  0
  4 32  1  0
  5 33  1  0
  8 34  1  0
  8 35  1  0
 15 36  1  0
 15 37  1  0
 17 38  1  0
 19 39  1  0
 20 40  1  0
 22 41  1  0
 22 42  1  0
 24 43  1  0
M  END
>  <UniqueID>  (27) 
27

>  <SMILES>  (27) 
CN(CCO)C(=O)COC(=O)n1c(C(N)=O)cc2ccc(CI)cc21

>  <Energy>  (27) 
75.34906968317169

>  <Genealogy>  (27) 
CN(CCO)C(=O)COC(=O)n1c(C(N)=O)cc2ccc(CI)cc21 (3D coordinates assigned)
CN(CCO)C(=O)COC(=O)n1c(C(N)=O)cc2ccc(CI)cc21 (optimized conformer: 75.34906968317169 kcal/mol)

>  <smiles>  (27) 
CN(CCO)C(=O)COC(=O)n1c(C(N)=O)cc2ccc(CI)cc21

>  <score_type>  (27) 
oracle

>  <origin>  (27) 
adg

>  <m_score__min__energy>  (27) 
-7.8499999999999996

>  <m_primary>  (27) 
energy

$$$$
27:0
     RDKit          3D

 40 41  0  0  0  0  0  0  0  0999 V2000
  145.4880  162.3720  134.3790 C   0  0  0  0  0  0  0  0  0  0  0  0
  145.0550  161.0440  133.9270 N   0  0  0  0  0  0  0  0  0  0  0  0
  143.6200  160.7870  133.7510 C   0  0  0  0  0  0  0  0  0  0  0  0
  146.0300  160.0030  133.6560 C   0  0  0  0  0  0  0  0  0  0  0  0
  147.3760  160.3330  133.3330 C   0  0  0  0  0  0  0  0  0  0  0  0
  148.3290  159.3330  133.0830 C   0  0  0  0  0  0  0  0  0  0  0  0
  147.9180  158.0080  133.1470 C   0  0  0  0  0  0  0  0  0  0  0  0
  148.6430  156.8500  132.9830 C   0  0  0  0  0  0  0  0  0  0  0  0
  147.7290  155.8170  133.1730 C   0  0  0  0  0  0  0  0  0  0  0  0
  148.0770  154.3890  133.0280 C   0  0  0  0  0  0  0  0  0  0  0  0
  147.3940  153.3820  133.7760 N   0  0  0  0  0  0  0  0  0  0  0  0
  148.9520  154.0470  132.1890 O   0  0  0  0  0  0  0  0  0  0  0  0
  146.4920  156.3130  133.4560 N   0  0  0  0  0  0  0  0  0  0  0  0
  145.3150  155.5730  133.8200 C   0  0  0  0  0  0  0  0  0  0  0  0
  145.2200  155.0700  134.9730 O   0  0  0  0  0  0  0  0  0  0  0  0
  144.2780  155.4130  132.8940 O   0  0  0  0  0  0  0  0  0  0  0  0
  143.5870  154.1800  132.6980 C   0  0  0  0  0  0  0  0  0  0  0  0
  144.4820  152.9970  132.9750 C   0  0  0  0  0  0  0  0  0  0  0  0
  144.6580  152.6300  134.1270 O   0  0  0  0  0  0  0  0  0  0  0  0
  145.2240  152.2890  131.8720 C   0  0  0  0  0  0  0  0  0  0  0  0
  146.2340  151.4550  132.3750 O   0  0  0  0  0  0  0  0  0  0  0  0
  146.6250  157.6600  133.4340 C   0  0  0  0  0  0  0  0  0  0  0  0
  145.6590  158.6340  133.7130 C   0  0  0  0  0  0  0  0  0  0  0  0
  145.4972  162.4001  135.4786 H   0  0  0  0  0  0  0  0  0  0  0  0
  146.4995  162.5770  133.9985 H   0  0  0  0  0  0  0  0  0  0  0  0
  144.7917  163.1339  133.9985 H   0  0  0  0  0  0  0  0  0  0  0  0
  143.1393  160.7009  134.7367 H   0  0  0  0  0  0  0  0  0  0  0  0
  143.1645  161.6179  133.1923 H   0  0  0  0  0  0  0  0  0  0  0  0
  143.4812  159.8497  133.1923 H   0  0  0  0  0  0  0  0  0  0  0  0
  147.6750  161.3902  133.2782 H   0  0  0  0  0  0  0  0  0  0  0  0
  149.3710  159.5914  132.8434 H   0  0  0  0  0  0  0  0  0  0  0  0
  149.7146  156.7598  132.7515 H   0  0  0  0  0  0  0  0  0  0  0  0
  146.5500  153.6130  134.3460 H   0  0  0  0  0  0  0  0  0  0  0  0
  147.6810  152.3820  133.6920 H   0  0  0  0  0  0  0  0  0  0  0  0
  142.7230  154.1420  133.3777 H   0  0  0  0  0  0  0  0  0  0  0  0
  143.2608  154.1290  131.6487 H   0  0  0  0  0  0  0  0  0  0  0  0
  144.5112  151.6786  131.2981 H   0  0  0  0  0  0  0  0  0  0  0  0
  145.6959  153.0506  131.2338 H   0  0  0  0  0  0  0  0  0  0  0  0
  146.1900  151.5190  133.3650 H   0  0  0  0  0  0  0  0  0  0  0  0
  144.6301  158.3435  133.9719 H   0  0  0  0  0  0  0  0  0  0  0  0
  1  2  1  0
  2  3  1  0
  2  4  1  0
  4  5  2  0
  5  6  1  0
  6  7  2  0
  7  8  1  0
  8  9  2  0
  9 10  1  0
 10 11  1  0
 10 12  2  0
  9 13  1  0
 13 14  1  0
 14 15  2  0
 14 16  1  0
 16 17  1  0
 17 18  1  0
 18 19  2  0
 18 20  1  0
 20 21  1  0
 13 22  1  0
 22 23  2  0
 23  4  1  0
 22  7  1  0
  1 24  1  0
  1 25  1  0
  1 26  1  0
  3 27  1  0
  3 28  1  0
  3 29  1  0
  5 30  1  0
  6 31  1  0
  8 32  1  0
 11 33  1  0
 11 34  1  0
 17 35  1  0
 17 36  1  0
 20 37  1  0
 20 38  1  0
 21 39  1  0
 23 40  1  0
M  END
>  <UniqueID>  (28) 
28

>  <SMILES>  (28) 
CN(C)c1ccc2cc(C(N)=O)n(C(=O)OCC(=O)CO)c2c1

>  <Energy>  (28) 
78.1699339924043

>  <Genealogy>  (28) 
CN(C)c1ccc2cc(C(N)=O)n(C(=O)OCC(=O)CO)c2c1 (3D coordinates assigned)
CN(C)c1ccc2cc(C(N)=O)n(C(=O)OCC(=O)CO)c2c1 (optimized conformer: 78.1699339924043 kcal/mol)

>  <smiles>  (28) 
CN(C)c1ccc2cc(C(N)=O)n(C(=O)OCC(=O)CO)c2c1

>  <score_type>  (28) 
oracle

>  <origin>  (28) 
adg

>  <m_score__min__energy>  (28) 
-6.25

>  <m_primary>  (28) 
energy

$$$$
28:0
     RDKit          3D

 45 46  0  0  0  0  0  0  0  0999 V2000
  142.5870  160.8320  133.7500 N   0  0  0  0  0  0  0  0  0  0  0  0
  143.9540  161.2400  133.7230 C   0  0  0  0  0  0  0  0  0  0  0  0
  144.2330  162.4640  133.8180 O   0  0  0  0  0  0  0  0  0  0  0  0
  145.0220  160.2250  133.6240 C   0  0  0  0  0  0  0  0  0  0  0  0
  146.3780  160.5390  133.5480 C   0  0  0  0  0  0  0  0  0  0  0  0
  147.0230  159.3350  133.3870 C   0  0  0  0  0  0  0  0  0  0  0  0
  148.3800  159.0570  133.2600 C   0  0  0  0  0  0  0  0  0  0  0  0
  148.7690  157.7120  133.1310 C   0  0  0  0  0  0  0  0  0  0  0  0
  147.8030  156.6730  133.1570 C   0  0  0  0  0  0  0  0  0  0  0  0
  148.2290  155.2370  132.9810 C   0  0  0  0  0  0  0  0  0  0  0  0
  148.3520  154.6090  134.2080 F   0  0  0  0  0  0  0  0  0  0  0  0
  149.4480  155.2010  132.3320 F   0  0  0  0  0  0  0  0  0  0  0  0
  147.2970  154.5400  132.2310 F   0  0  0  0  0  0  0  0  0  0  0  0
  146.4300  157.0000  133.2630 C   0  0  0  0  0  0  0  0  0  0  0  0
  146.0720  158.3480  133.3720 C   0  0  0  0  0  0  0  0  0  0  0  0
  144.8390  158.8790  133.5160 N   0  0  0  0  0  0  0  0  0  0  0  0
  143.6050  158.1500  133.6220 C   0  0  0  0  0  0  0  0  0  0  0  0
  143.2170  157.4280  132.6630 O   0  0  0  0  0  0  0  0  0  0  0  0
  142.8580  158.2200  134.8020 O   0  0  0  0  0  0  0  0  0  0  0  0
  142.3550  157.0660  135.4690 C   0  0  0  0  0  0  0  0  0  0  0  0
  140.9440  156.9690  135.2920 O   0  0  0  0  0  0  0  0  0  0  0  0
  140.1160  158.0880  135.1530 C   0  0  0  0  0  0  0  0  0  0  0  0
  140.5020  159.2260  135.5380 O   0  0  0  0  0  0  0  0  0  0  0  0
  138.7570  157.9290  134.5470 C   0  0  0  0  0  0  0  0  0  0  0  0
  138.7470  158.2100  133.0340 C   0  0  0  0  0  0  0  0  0  0  0  0
  139.7540  159.2770  132.5330 C   0  0  1  0  0  0  0  0  0  0  0  0
  141.1420  158.9350  132.8780 N   0  0  0  0  0  0  0  0  0  0  0  0
  139.5930  159.5600  131.0590 C   0  0  0  0  0  0  0  0  0  0  0  0
  140.5370  159.3570  130.2500 O   0  0  0  0  0  0  0  0  0  0  0  0
  138.3780  160.0370  130.5820 O   0  0  0  0  0  0  0  0  0  0  0  0
  142.2210  160.2340  134.5230 H   0  0  0  0  0  0  0  0  0  0  0  0
  146.8352  161.5379  133.6048 H   0  0  0  0  0  0  0  0  0  0  0  0
  149.1263  159.8651  133.2605 H   0  0  0  0  0  0  0  0  0  0  0  0
  149.8333  157.4626  133.0086 H   0  0  0  0  0  0  0  0  0  0  0  0
  145.6621  156.2124  133.2598 H   0  0  0  0  0  0  0  0  0  0  0  0
  142.8356  156.1681  135.0533 H   0  0  0  0  0  0  0  0  0  0  0  0
  142.5764  157.1483  136.5433 H   0  0  0  0  0  0  0  0  0  0  0  0
  138.4144  156.8975  134.7160 H   0  0  0  0  0  0  0  0  0  0  0  0
  138.0908  158.6615  135.0262 H   0  0  0  0  0  0  0  0  0  0  0  0
  138.9711  157.2663  132.5152 H   0  0  0  0  0  0  0  0  0  0  0  0
  137.7494  158.6188  132.8154 H   0  0  0  0  0  0  0  0  0  0  0  0
  139.5154  160.2095  133.0654 H   0  0  0  0  0  0  0  0  0  0  0  0
  141.1820  157.9670  133.2750 H   0  0  0  0  0  0  0  0  0  0  0  0
  141.4950  159.5990  133.6050 H   0  0  0  0  0  0  0  0  0  0  0  0
  141.7660  158.9910  132.0420 H   0  0  0  0  0  0  0  0  0  0  0  0
  1  2  1  0
  2  3  2  0
  2  4  1  0
  4  5  2  0
  5  6  1  0
  6  7  2  0
  7  8  1  0
  8  9  2  0
  9 10  1  0
 10 11  1  0
 10 12  1  0
 10 13  1  0
  9 14  1  0
 14 15  2  0
 15 16  1  0
 16 17  1  0
 17 18  2  0
 17 19  1  0
 19 20  1  0
 20 21  1  0
 21 22  1  0
 22 23  2  0
 22 24  1  0
 24 25  1  0
 25 26  1  0
 26 27  1  0
 26 28  1  0
 28 29  2  0
 28 30  1  0
 16  4  1  0
 15  6  1  0
  1 31  1  0
  5 32  1  0
  7 33  1  0
  8 34  1  0
 14 35  1  0
 20 36  1  0
 20 37  1  0
 24 38  1  0
 24 39  1  0
 25 40  1  0
 25 41  1  0
 26 42  1  1
 27 43  1  0
 27 44  1  0
 27 45  1  0
M  CHG  3   1  -1  27   1  30  -1
M  END
>  <UniqueID>  (29) 
29

>  <SMILES>  (29) 
[NH-]C(=O)c1cc2ccc(C(F)(F)F)cc2n1C(=O)OCOC(=O)CC[C@@H]([NH3+])C(=O)[O-]

>  <Energy>  (29) 
78.82564516872489

>  <Genealogy>  (29) 
[NH-]C(=O)c1cc2ccc(C(F)(F)F)cc2n1C(=O)OCOC(=O)CC[C@@H]([NH3+])C(=O)[O-] (protonated)
[NH-]C(=O)c1cc2ccc(C(F)(F)F)cc2n1C(=O)OCOC(=O)CC[C@@H]([NH3+])C(=O)[O-] (3D coordinates assigned)
[NH-]C(=O)c1cc2ccc(C(F)(F)F)cc2n1C(=O)OCOC(=O)CC[C@@H]([NH3+])C(=O)[O-] (optimized conformer: 78.82564516872489 kcal/mol)

>  <smiles>  (29) 
NC(=O)c1cc2ccc(C(F)(F)F)cc2n1C(=O)OCOC(=O)CC[C@@H](N)C(=O)O

>  <score_type>  (29) 
oracle

>  <origin>  (29) 
adg

>  <m_score__min__energy>  (29) 
-5.2599999999999998

>  <m_primary>  (29) 
energy

$$$$
29:0
     RDKit          3D

 48 49  0  0  0  0  0  0  0  0999 V2000
  148.2340  155.2450  132.6990 C   0  0  0  0  0  0  0  0  0  0  0  0
  147.4390  155.5210  133.8980 N   0  0  0  0  0  0  0  0  0  0  0  0
  146.8180  156.8380  134.0880 C   0  0  0  0  0  0  0  0  0  0  0  0
  147.1410  157.7550  132.9040 C   0  0  0  0  0  0  0  0  0  0  0  0
  146.6110  159.1090  133.1330 N   0  0  0  0  0  0  0  0  0  0  0  0
  147.5230  160.2580  133.0810 C   0  0  0  0  0  0  0  0  0  0  0  0
  145.2020  159.3280  133.3850 C   0  0  0  0  0  0  0  0  0  0  0  0
  144.7050  160.6350  133.6330 C   0  0  0  0  0  0  0  0  0  0  0  0
  143.3430  160.8510  133.8990 C   0  0  0  0  0  0  0  0  0  0  0  0
  142.4960  159.7480  133.8990 C   0  0  0  0  0  0  0  0  0  0  0  0
  141.1470  159.6730  134.1600 C   0  0  0  0  0  0  0  0  0  0  0  0
  140.8250  158.3250  134.0370 C   0  0  0  0  0  0  0  0  0  0  0  0
  139.4510  157.8040  134.1770 C   0  0  0  0  0  0  0  0  0  0  0  0
  138.9090  156.8820  133.2310 N   0  0  0  0  0  0  0  0  0  0  0  0
  138.7240  158.2240  135.1160 O   0  0  0  0  0  0  0  0  0  0  0  0
  141.9300  157.5910  133.7240 N   0  0  0  0  0  0  0  0  0  0  0  0
  142.0300  156.1600  133.6240 C   0  0  0  0  0  0  0  0  0  0  0  0
  141.1140  155.4970  133.0710 O   0  0  0  0  0  0  0  0  0  0  0  0
  143.1350  155.4930  134.1360 O   0  0  0  0  0  0  0  0  0  0  0  0
  142.9460  158.4800  133.6410 C   0  0  0  0  0  0  0  0  0  0  0  0
  144.3030  158.2340  133.3960 C   0  0  0  0  0  0  0  0  0  0  0  0
  147.2770  154.4860  134.8860 C   0  0  0  0  0  0  0  0  0  0  0  0
  147.8180  153.3580  134.7150 O   0  0  0  0  0  0  0  0  0  0  0  0
  146.5190  154.7340  136.0370 O   0  0  0  0  0  0  0  0  0  0  0  0
  146.2440  153.7360  137.0140 C   0  0  0  0  0  0  0  0  0  0  0  0
  147.4130  152.9900  137.2580 O   0  0  0  0  0  0  0  0  0  0  0  0
  148.1690  153.6140  138.6540 P   0  0  0  0  0  0  0  0  0  0  0  0
  149.0150  154.8120  138.2910 O   0  0  0  0  0  0  0  0  0  0  0  0
  149.1410  152.4330  139.3770 O   0  0  0  0  0  0  0  0  0  0  0  0
  146.9770  154.0930  139.7530 O   0  0  0  0  0  0  0  0  0  0  0  0
  149.2349  154.8975  132.9947 H   0  0  0  0  0  0  0  0  0  0  0  0
  147.7375  154.4666  132.1010 H   0  0  0  0  0  0  0  0  0  0  0  0
  148.3266  156.1636  132.1010 H   0  0  0  0  0  0  0  0  0  0  0  0
  145.7275  156.7169  134.1660 H   0  0  0  0  0  0  0  0  0  0  0  0
  147.2142  157.2905  135.0090 H   0  0  0  0  0  0  0  0  0  0  0  0
  148.2324  157.8112  132.7784 H   0  0  0  0  0  0  0  0  0  0  0  0
  146.6727  157.3410  131.9988 H   0  0  0  0  0  0  0  0  0  0  0  0
  147.7736  160.5738  134.1044 H   0  0  0  0  0  0  0  0  0  0  0  0
  148.4429  159.9722  132.5498 H   0  0  0  0  0  0  0  0  0  0  0  0
  147.0359  161.0890  132.5498 H   0  0  0  0  0  0  0  0  0  0  0  0
  145.3966  161.4903  133.6165 H   0  0  0  0  0  0  0  0  0  0  0  0
  142.9581  161.8614  134.1011 H   0  0  0  0  0  0  0  0  0  0  0  0
  140.4685  160.5014  134.4119 H   0  0  0  0  0  0  0  0  0  0  0  0
  139.4210  156.6470  132.3530 H   0  0  0  0  0  0  0  0  0  0  0  0
  137.9480  156.4960  133.3670 H   0  0  0  0  0  0  0  0  0  0  0  0
  144.6634  157.2105  133.2156 H   0  0  0  0  0  0  0  0  0  0  0  0
  145.9129  154.2160  137.9467 H   0  0  0  0  0  0  0  0  0  0  0  0
  145.4507  153.0686  136.6463 H   0  0  0  0  0  0  0  0  0  0  0  0
  1  2  1  0
  2  3  1  0
  3  4  1  0
  4  5  1  0
  5  6  1  0
  5  7  1  0
  7  8  2  0
  8  9  1  0
  9 10  2  0
 10 11  1  0
 11 12  2  0
 12 13  1  0
 13 14  1  0
 13 15  2  0
 12 16  1  0
 16 17  1  0
 17 18  2  0
 17 19  1  0
 16 20  1  0
 20 21  2  0
  2 22  1  0
 22 23  2  0
 22 24  1  0
 24 25  1  0
 25 26  1  0
 26 27  1  0
 27 28  2  0
 27 29  1  0
 27 30  1  0
 21  7  1  0
 20 10  1  0
  1 31  1  0
  1 32  1  0
  1 33  1  0
  3 34  1  0
  3 35  1  0
  4 36  1  0
  4 37  1  0
  6 38  1  0
  6 39  1  0
  6 40  1  0
  8 41  1  0
  9 42  1  0
 11 43  1  0
 14 44  1  0
 14 45  1  0
 21 46  1  0
 25 47  1  0
 25 48  1  0
M  CHG  3  19  -1  29  -1  30  -1
M  END
>  <UniqueID>  (30) 
30

>  <SMILES>  (30) 
CN(CCN(C)c1ccc2cc(C(N)=O)n(C(=O)[O-])c2c1)C(=O)OCOP(=O)([O-])[O-]

>  <Energy>  (30) 
82.24474602150627

>  <Genealogy>  (30) 
CN(CCN(C)c1ccc2cc(C(N)=O)n(C(=O)[O-])c2c1)C(=O)OCOP(=O)([O-])[O-] (protonated)
CN(CCN(C)c1ccc2cc(C(N)=O)n(C(=O)[O-])c2c1)C(=O)OCOP(=O)([O-])[O-] (3D coordinates assigned)
CN(CCN(C)c1ccc2cc(C(N)=O)n(C(=O)[O-])c2c1)C(=O)OCOP(=O)([O-])[O-] (optimized conformer: 82.24474602150627 kcal/mol)

>  <smiles>  (30) 
CN(CCN(C)c1ccc2cc(C(N)=O)n(C(=O)O)c2c1)C(=O)OCOP(=O)(O)O

>  <score_type>  (30) 
oracle

>  <origin>  (30) 
adg

>  <m_score__min__energy>  (30) 
-7.3300000000000001

>  <m_primary>  (30) 
energy

$$$$
30:0
     RDKit          3D

 41 42  0  0  0  0  0  0  0  0999 V2000
  149.0130  153.9210  132.5250 C   0  0  0  0  0  0  0  0  0  0  0  0
  148.5930  155.0440  132.6480 C   0  0  0  0  0  0  0  0  0  0  0  0
  148.0910  156.3850  132.7960 C   0  0  0  0  0  0  0  0  0  0  0  0
  148.9700  157.4850  132.6670 C   0  0  0  0  0  0  0  0  0  0  0  0
  148.4950  158.7990  132.8200 C   0  0  0  0  0  0  0  0  0  0  0  0
  147.1400  158.9750  133.0940 C   0  0  0  0  0  0  0  0  0  0  0  0
  146.4240  160.1280  133.3110 C   0  0  0  0  0  0  0  0  0  0  0  0
  145.1150  159.7110  133.5460 C   0  0  0  0  0  0  0  0  0  0  0  0
  143.9860  160.6460  133.7400 C   0  0  0  0  0  0  0  0  0  0  0  0
  142.6370  160.2030  133.6120 N   0  0  0  0  0  0  0  0  0  0  0  0
  144.2170  161.8620  133.9740 O   0  0  0  0  0  0  0  0  0  0  0  0
  145.0280  158.3510  133.4870 N   0  0  0  0  0  0  0  0  0  0  0  0
  143.8800  157.5290  133.7460 C   0  0  0  0  0  0  0  0  0  0  0  0
  142.8570  157.6290  133.0160 O   0  0  0  0  0  0  0  0  0  0  0  0
  143.8950  156.6390  134.8260 O   0  0  0  0  0  0  0  0  0  0  0  0
  142.7430  155.9250  135.2720 C   0  0  0  0  0  0  0  0  0  0  0  0
  141.9320  156.7740  136.2470 C   0  0  0  0  0  0  0  0  0  0  0  0
  142.1180  158.1340  135.9350 O   0  0  0  0  0  0  0  0  0  0  0  0
  140.6040  158.9330  135.9340 P   0  0  2  0  0  0  0  0  0  0  0  0
  140.6210  160.2050  136.7560 O   0  0  0  0  0  0  0  0  0  0  0  0
  139.4550  157.8850  136.5990 O   0  0  0  0  0  0  0  0  0  0  0  0
  140.1360  159.2920  134.3340 O   0  0  0  0  0  0  0  0  0  0  0  0
  139.7470  158.0950  133.7050 C   0  0  0  0  0  0  0  0  0  0  0  0
  139.2900  158.4040  132.2880 C   0  0  0  0  0  0  0  0  0  0  0  0
  146.2750  157.9160  133.2050 C   0  0  0  0  0  0  0  0  0  0  0  0
  146.7250  156.5960  133.0740 C   0  0  0  0  0  0  0  0  0  0  0  0
  149.3963  152.8961  132.4127 H   0  0  0  0  0  0  0  0  0  0  0  0
  150.0333  157.3112  132.4453 H   0  0  0  0  0  0  0  0  0  0  0  0
  149.1715  159.6613  132.7264 H   0  0  0  0  0  0  0  0  0  0  0  0
  146.8034  161.1604  133.3013 H   0  0  0  0  0  0  0  0  0  0  0  0
  142.2890  159.3790  134.1490 H   0  0  0  0  0  0  0  0  0  0  0  0
  142.1159  155.6716  134.4045 H   0  0  0  0  0  0  0  0  0  0  0  0
  143.0693  155.0082  135.7849 H   0  0  0  0  0  0  0  0  0  0  0  0
  140.8657  156.5182  136.1601 H   0  0  0  0  0  0  0  0  0  0  0  0
  142.2671  156.5798  137.2765 H   0  0  0  0  0  0  0  0  0  0  0  0
  140.5999  157.4010  133.6740 H   0  0  0  0  0  0  0  0  0  0  0  0
  138.9233  157.6312  134.2675 H   0  0  0  0  0  0  0  0  0  0  0  0
  138.3792  159.0198  132.3226 H   0  0  0  0  0  0  0  0  0  0  0  0
  140.0832  158.9519  131.7582 H   0  0  0  0  0  0  0  0  0  0  0  0
  139.0770  157.4638  131.7582 H   0  0  0  0  0  0  0  0  0  0  0  0
  146.0326  155.7485  133.1848 H   0  0  0  0  0  0  0  0  0  0  0  0
  1  2  3  0
  2  3  1  0
  3  4  2  0
  4  5  1  0
  5  6  2  0
  6  7  1  0
  7  8  2  0
  8  9  1  0
  9 10  1  0
  9 11  2  0
  8 12  1  0
 12 13  1  0
 13 14  2  0
 13 15  1  0
 15 16  1  0
 16 17  1  0
 17 18  1  0
 18 19  1  0
 19 20  2  0
 19 21  1  1
 19 22  1  0
 22 23  1  0
 23 24  1  0
 12 25  1  0
 25 26  2  0
 26  3  1  0
 25  6  1  0
  1 27  1  0
  4 28  1  0
  5 29  1  0
  7 30  1  0
 10 31  1  0
 16 32  1  0
 16 33  1  0
 17 34  1  0
 17 35  1  0
 23 36  1  0
 23 37  1  0
 24 38  1  0
 24 39  1  0
 24 40  1  0
 26 41  1  0
M  CHG  2  10  -1  21  -1
M  END
>  <UniqueID>  (31) 
31

>  <SMILES>  (31) 
C#Cc1ccc2cc(C([NH-])=O)n(C(=O)OCCO[P@](=O)([O-])OCC)c2c1

>  <Energy>  (31) 
71.58472818226835

>  <Genealogy>  (31) 
C#Cc1ccc2cc(C([NH-])=O)n(C(=O)OCCOP(=O)([O-])OCC)c2c1 (protonated)
C#Cc1ccc2cc(C([NH-])=O)n(C(=O)OCCO[P@](=O)([O-])OCC)c2c1 (chirality)
C#Cc1ccc2cc(C([NH-])=O)n(C(=O)OCCO[P@](=O)([O-])OCC)c2c1 (3D coordinates assigned)
C#Cc1ccc2cc(C([NH-])=O)n(C(=O)OCCO[P@](=O)([O-])OCC)c2c1 (optimized conformer: 71.58472818226835 kcal/mol)

>  <smiles>  (31) 
C#Cc1ccc2cc(C(N)=O)n(C(=O)OCCOP(=O)(O)OCC)c2c1

>  <score_type>  (31) 
oracle

>  <origin>  (31) 
adg

>  <m_score__min__energy>  (31) 
-6.8600000000000003

>  <m_primary>  (31) 
energy

$$$$
31:0
     RDKit          3D

 40 41  0  0  0  0  0  0  0  0999 V2000
  139.6840  157.8900  136.1520 C   0  0  0  0  0  0  0  0  0  0  0  0
  141.3860  158.3640  136.3600 S   0  0  0  0  0  0  0  0  0  0  0  0
  142.2690  157.1930  136.0320 O   0  0  0  0  0  0  0  0  0  0  0  0
  141.6100  158.7740  137.7880 O   0  0  0  0  0  0  0  0  0  0  0  0
  141.7530  159.7290  135.2660 C   0  0  0  0  0  0  0  0  0  0  0  0
  140.8540  159.7190  134.0270 C   0  0  0  0  0  0  0  0  0  0  0  0
  141.5270  159.1510  132.9030 O   0  0  0  0  0  0  0  0  0  0  0  0
  142.4000  158.0620  132.9970 C   0  0  0  0  0  0  0  0  0  0  0  0
  141.9880  156.9490  133.4270 O   0  0  0  0  0  0  0  0  0  0  0  0
  143.7320  158.2370  132.6040 O   0  0  0  0  0  0  0  0  0  0  0  0
  144.7260  158.8540  133.3770 C   0  0  0  0  0  0  0  0  0  0  0  0
  144.4530  159.8460  134.1050 O   0  0  0  0  0  0  0  0  0  0  0  0
  146.0700  158.3470  133.3330 N   0  0  0  0  0  0  0  0  0  0  0  0
  146.5180  157.1570  133.8230 C   0  0  0  0  0  0  0  0  0  0  0  0
  145.7430  156.2190  134.6580 C   0  0  0  0  0  0  0  0  0  0  0  0
  144.3390  156.3890  134.8570 N   0  0  0  0  0  0  0  0  0  0  0  0
  146.3410  155.2830  135.2540 O   0  0  0  0  0  0  0  0  0  0  0  0
  147.8500  156.9510  133.4750 C   0  0  0  0  0  0  0  0  0  0  0  0
  148.2160  158.0670  132.7590 C   0  0  0  0  0  0  0  0  0  0  0  0
  149.4290  158.3850  132.1560 C   0  0  0  0  0  0  0  0  0  0  0  0
  149.5150  159.5940  131.4450 C   0  0  0  0  0  0  0  0  0  0  0  0
  148.3930  160.4490  131.3420 C   0  0  0  0  0  0  0  0  0  0  0  0
  148.4900  161.6700  130.6040 N   0  0  0  0  0  0  0  0  0  0  0  0
  147.1770  160.0960  131.9640 C   0  0  0  0  0  0  0  0  0  0  0  0
  147.1240  158.8960  132.6850 C   0  0  0  0  0  0  0  0  0  0  0  0
  139.2164  157.7598  137.1391 H   0  0  0  0  0  0  0  0  0  0  0  0
  139.1507  158.6738  135.5941 H   0  0  0  0  0  0  0  0  0  0  0  0
  139.6326  156.9434  135.5941 H   0  0  0  0  0  0  0  0  0  0  0  0
  141.6000  160.6728  135.8099 H   0  0  0  0  0  0  0  0  0  0  0  0
  142.7968  159.6306  134.9331 H   0  0  0  0  0  0  0  0  0  0  0  0
  139.9531  159.1259  134.2426 H   0  0  0  0  0  0  0  0  0  0  0  0
  140.5866  160.7578  133.7833 H   0  0  0  0  0  0  0  0  0  0  0  0
  143.8440  157.2390  134.5100 H   0  0  0  0  0  0  0  0  0  0  0  0
  143.8040  155.6980  135.4280 H   0  0  0  0  0  0  0  0  0  0  0  0
  148.4766  156.0809  133.7204 H   0  0  0  0  0  0  0  0  0  0  0  0
  150.2944  157.7104  132.2335 H   0  0  0  0  0  0  0  0  0  0  0  0
  150.4629  159.8778  130.9645 H   0  0  0  0  0  0  0  0  0  0  0  0
  148.8560  161.6760  129.6260 H   0  0  0  0  0  0  0  0  0  0  0  0
  148.1950  162.5760  131.0310 H   0  0  0  0  0  0  0  0  0  0  0  0
  146.2933  160.7462  131.8849 H   0  0  0  0  0  0  0  0  0  0  0  0
  1  2  1  0
  2  3  2  0
  2  4  2  0
  2  5  1  0
  5  6  1  0
  6  7  1  0
  7  8  1  0
  8  9  2  0
  8 10  1  0
 10 11  1  0
 11 12  2  0
 11 13  1  0
 13 14  1  0
 14 15  1  0
 15 16  1  0
 15 17  2  0
 14 18  2  0
 18 19  1  0
 19 20  2  0
 20 21  1  0
 21 22  2  0
 22 23  1  0
 22 24  1  0
 24 25  2  0
 25 13  1  0
 25 19  1  0
  1 26  1  0
  1 27  1  0
  1 28  1  0
  5 29  1  0
  5 30  1  0
  6 31  1  0
  6 32  1  0
 16 33  1  0
 16 34  1  0
 18 35  1  0
 20 36  1  0
 21 37  1  0
 23 38  1  0
 23 39  1  0
 24 40  1  0
M  END
>  <UniqueID>  (32) 
32

>  <SMILES>  (32) 
CS(=O)(=O)CCOC(=O)OC(=O)n1c(C(N)=O)cc2ccc(N)cc21

>  <Energy>  (32) 
68.8277548945014

>  <Genealogy>  (32) 
CS(=O)(=O)CCOC(=O)OC(=O)n1c(C(N)=O)cc2ccc(N)cc21 (3D coordinates assigned)
CS(=O)(=O)CCOC(=O)OC(=O)n1c(C(N)=O)cc2ccc(N)cc21 (optimized conformer: 68.8277548945014 kcal/mol)

>  <smiles>  (32) 
CS(=O)(=O)CCOC(=O)OC(=O)n1c(C(N)=O)cc2ccc(N)cc21

>  <score_type>  (32) 
oracle

>  <origin>  (32) 
adg

>  <m_score__min__energy>  (32) 
-7.21

>  <m_primary>  (32) 
energy

$$$$
32:0
     RDKit          3D

 50 53  0  0  0  0  0  0  0  0999 V2000
  148.8580  158.9860  134.5420 C   0  0  0  0  0  0  0  0  0  0  0  0
  148.9400  158.1340  133.3380 N   0  0  0  0  0  0  0  0  0  0  0  0
  148.6700  158.9100  132.1040 C   0  0  0  0  0  0  0  0  0  0  0  0
  147.2190  159.4200  132.0520 C   0  0  0  0  0  0  0  0  0  0  0  0
  146.3000  158.4290  132.6220 N   0  0  0  0  0  0  0  0  0  0  0  0
  144.9940  158.8300  133.0810 C   0  0  0  0  0  0  0  0  0  0  0  0
  144.7320  160.1880  133.4000 C   0  0  0  0  0  0  0  0  0  0  0  0
  143.4620  160.5900  133.8440 C   0  0  0  0  0  0  0  0  0  0  0  0
  142.4690  159.6200  133.9450 C   0  0  0  0  0  0  0  0  0  0  0  0
  141.1630  159.7290  134.3650 C   0  0  0  0  0  0  0  0  0  0  0  0
  140.6340  158.4430  134.2660 C   0  0  0  0  0  0  0  0  0  0  0  0
  139.2180  158.1230  134.5420 C   0  0  0  0  0  0  0  0  0  0  0  0
  138.3800  157.6440  133.4930 N   0  0  0  0  0  0  0  0  0  0  0  0
  138.7460  158.2340  135.7050 O   0  0  0  0  0  0  0  0  0  0  0  0
  141.5800  157.5730  133.8080 N   0  0  0  0  0  0  0  0  0  0  0  0
  141.4620  156.1550  133.6180 C   0  0  0  0  0  0  0  0  0  0  0  0
  140.4960  155.6850  132.9560 O   0  0  0  0  0  0  0  0  0  0  0  0
  142.4380  155.3050  134.1530 O   0  0  0  0  0  0  0  0  0  0  0  0
  142.7480  154.0330  133.6500 C   0  0  0  0  0  0  0  0  0  0  0  0
  144.0930  153.7140  133.4160 C   0  0  0  0  0  0  0  0  0  0  0  0
  145.0580  154.6360  133.6590 F   0  0  0  0  0  0  0  0  0  0  0  0
  144.4450  152.4540  132.9200 C   0  0  0  0  0  0  0  0  0  0  0  0
  145.7480  152.1590  132.6850 F   0  0  0  0  0  0  0  0  0  0  0  0
  143.4560  151.5000  132.6690 C   0  0  0  0  0  0  0  0  0  0  0  0
  143.7990  150.2770  132.1910 F   0  0  0  0  0  0  0  0  0  0  0  0
  142.1140  151.7990  132.9230 C   0  0  0  0  0  0  0  0  0  0  0  0
  141.1590  150.8620  132.7040 F   0  0  0  0  0  0  0  0  0  0  0  0
  141.7570  153.0590  133.4180 C   0  0  0  0  0  0  0  0  0  0  0  0
  140.4570  153.3020  133.7250 F   0  0  0  0  0  0  0  0  0  0  0  0
  142.6950  158.3100  133.6150 C   0  0  0  0  0  0  0  0  0  0  0  0
  143.9560  157.8780  133.1900 C   0  0  0  0  0  0  0  0  0  0  0  0
  146.7380  157.0330  132.6980 C   0  0  0  0  0  0  0  0  0  0  0  0
  148.0730  156.9280  133.4640 C   0  0  0  0  0  0  0  0  0  0  0  0
  148.9186  158.3561  135.4418 H   0  0  0  0  0  0  0  0  0  0  0  0
  149.6912  159.7042  134.5404 H   0  0  0  0  0  0  0  0  0  0  0  0
  147.9031  159.5321  134.5404 H   0  0  0  0  0  0  0  0  0  0  0  0
  149.9330  157.8050  133.2770 H   0  0  0  0  0  0  0  0  0  0  0  0
  149.3515  159.7728  132.0704 H   0  0  0  0  0  0  0  0  0  0  0  0
  148.8285  158.2452  131.2421 H   0  0  0  0  0  0  0  0  0  0  0  0
  147.1440  160.3547  132.6271 H   0  0  0  0  0  0  0  0  0  0  0  0
  146.9432  159.5948  131.0016 H   0  0  0  0  0  0  0  0  0  0  0  0
  145.5335  160.9345  133.2982 H   0  0  0  0  0  0  0  0  0  0  0  0
  143.2582  161.6392  134.1040 H   0  0  0  0  0  0  0  0  0  0  0  0
  140.6461  160.6380  134.7064 H   0  0  0  0  0  0  0  0  0  0  0  0
  138.5650  156.7250  133.0350 H   0  0  0  0  0  0  0  0  0  0  0  0
  144.1352  156.8205  132.9461 H   0  0  0  0  0  0  0  0  0  0  0  0
  145.9726  156.4412  133.2213 H   0  0  0  0  0  0  0  0  0  0  0  0
  146.8816  156.6485  131.6774 H   0  0  0  0  0  0  0  0  0  0  0  0
  147.8492  156.7726  134.5297 H   0  0  0  0  0  0  0  0  0  0  0  0
  148.6290  156.0883  133.0215 H   0  0  0  0  0  0  0  0  0  0  0  0
  1  2  1  0
  2  3  1  0
  3  4  1  0
  4  5  1  0
  5  6  1  0
  6  7  2  0
  7  8  1  0
  8  9  2  0
  9 10  1  0
 10 11  2  0
 11 12  1  0
 12 13  1  0
 12 14  2  0
 11 15  1  0
 15 16  1  0
 16 17  2  0
 16 18  1  0
 18 19  1  0
 19 20  2  0
 20 21  1  0
 20 22  1  0
 22 23  1  0
 22 24  2  0
 24 25  1  0
 24 26  1  0
 26 27  1  0
 26 28  2  0
 28 29  1  0
 15 30  1  0
 30 31  2  0
  5 32  1  0
 32 33  1  0
 33  2  1  0
 31  6  1  0
 30  9  1  0
 28 19  1  0
  1 34  1  0
  1 35  1  0
  1 36  1  0
  2 37  1  0
  3 38  1  0
  3 39  1  0
  4 40  1  0
  4 41  1  0
  7 42  1  0
  8 43  1  0
 10 44  1  0
 13 45  1  0
 31 46  1  0
 32 47  1  0
 32 48  1  0
 33 49  1  0
 33 50  1  0
M  CHG  2   2   1  13  -1
M  END
>  <UniqueID>  (33) 
33

>  <SMILES>  (33) 
C[NH+]1CCN(c2ccc3cc(C([NH-])=O)n(C(=O)Oc4c(F)c(F)c(F)c(F)c4F)c3c2)CC1

>  <Energy>  (33) 
109.9747342990397

>  <Genealogy>  (33) 
C[NH+]1CCN(c2ccc3cc(C([NH-])=O)n(C(=O)Oc4c(F)c(F)c(F)c(F)c4F)c3c2)CC1 (protonated)
C[NH+]1CCN(c2ccc3cc(C([NH-])=O)n(C(=O)Oc4c(F)c(F)c(F)c(F)c4F)c3c2)CC1 (3D coordinates assigned)
C[NH+]1CCN(c2ccc3cc(C([NH-])=O)n(C(=O)Oc4c(F)c(F)c(F)c(F)c4F)c3c2)CC1 (nonaromatic ring conformer: 109.9747342990397 kcal/mol)

>  <smiles>  (33) 
CN1CCN(c2ccc3cc(C(N)=O)n(C(=O)Oc4c(F)c(F)c(F)c(F)c4F)c3c2)CC1

>  <score_type>  (33) 
oracle

>  <origin>  (33) 
adg

>  <m_score__min__energy>  (33) 
-7.6100000000000003

>  <m_primary>  (33) 
energy

$$$$
33:0
     RDKit          3D

 39 40  0  0  0  0  0  0  0  0999 V2000
  143.3300  161.5820  133.7330 N   0  0  0  0  0  0  0  0  0  0  0  0
  144.7320  161.6400  133.9830 C   0  0  0  0  0  0  0  0  0  0  0  0
  145.2390  162.7080  134.4190 O   0  0  0  0  0  0  0  0  0  0  0  0
  145.6050  160.4860  133.6840 C   0  0  0  0  0  0  0  0  0  0  0  0
  146.9770  160.5960  133.4720 C   0  0  0  0  0  0  0  0  0  0  0  0
  147.3990  159.3280  133.1420 C   0  0  0  0  0  0  0  0  0  0  0  0
  148.6730  158.8580  132.8450 C   0  0  0  0  0  0  0  0  0  0  0  0
  148.8260  157.4890  132.5730 C   0  0  0  0  0  0  0  0  0  0  0  0
  147.7050  156.6130  132.6040 C   0  0  0  0  0  0  0  0  0  0  0  0
  147.8360  155.2010  132.3450 N   0  0  0  0  0  0  0  0  0  0  0  0
  149.0030  154.3910  132.7020 C   0  0  0  0  0  0  0  0  0  0  0  0
  148.6120  152.9230  132.9410 C   0  0  0  0  0  0  0  0  0  0  0  0
  147.1680  152.7190  132.8350 N   0  0  0  0  0  0  0  0  0  0  0  0
  146.4300  157.1320  132.9170 C   0  0  0  0  0  0  0  0  0  0  0  0
  146.3050  158.5040  133.1660 C   0  0  0  0  0  0  0  0  0  0  0  0
  145.1950  159.1990  133.4990 N   0  0  0  0  0  0  0  0  0  0  0  0
  143.8850  158.6550  133.7170 C   0  0  0  0  0  0  0  0  0  0  0  0
  143.3160  158.8140  134.8320 O   0  0  0  0  0  0  0  0  0  0  0  0
  143.2420  157.9620  132.6850 O   0  0  0  0  0  0  0  0  0  0  0  0
  141.9500  157.3700  132.8130 C   0  0  0  0  0  0  0  0  0  0  0  0
  140.8660  158.4450  132.9150 C   0  0  0  0  0  0  0  0  0  0  0  0
  141.3910  159.7170  132.6500 O   0  0  0  0  0  0  0  0  0  0  0  0
  142.7790  160.7260  133.9630 H   0  0  0  0  0  0  0  0  0  0  0  0
  147.5930  161.5039  133.5514 H   0  0  0  0  0  0  0  0  0  0  0  0
  149.5366  159.5390  132.8237 H   0  0  0  0  0  0  0  0  0  0  0  0
  149.8226  157.0896  132.3335 H   0  0  0  0  0  0  0  0  0  0  0  0
  147.0480  154.7090  131.8640 H   0  0  0  0  0  0  0  0  0  0  0  0
  149.7359  154.4379  131.8830 H   0  0  0  0  0  0  0  0  0  0  0  0
  149.4326  154.7918  133.6319 H   0  0  0  0  0  0  0  0  0  0  0  0
  149.1159  152.2944  132.1920 H   0  0  0  0  0  0  0  0  0  0  0  0
  148.9209  152.6497  133.9608 H   0  0  0  0  0  0  0  0  0  0  0  0
  146.9130  151.8270  133.3170 H   0  0  0  0  0  0  0  0  0  0  0  0
  146.9100  152.6230  131.8260 H   0  0  0  0  0  0  0  0  0  0  0  0
  145.5518  156.4713  132.9643 H   0  0  0  0  0  0  0  0  0  0  0  0
  141.7526  156.7416  131.9320 H   0  0  0  0  0  0  0  0  0  0  0  0
  141.9305  156.7623  133.7297 H   0  0  0  0  0  0  0  0  0  0  0  0
  140.0720  158.2250  132.1862 H   0  0  0  0  0  0  0  0  0  0  0  0
  140.4633  158.4394  133.9386 H   0  0  0  0  0  0  0  0  0  0  0  0
  142.2200  159.8000  133.1910 H   0  0  0  0  0  0  0  0  0  0  0  0
  1  2  1  0
  2  3  2  0
  2  4  1  0
  4  5  2  0
  5  6  1  0
  6  7  2  0
  7  8  1  0
  8  9  2  0
  9 10  1  0
 10 11  1  0
 11 12  1  0
 12 13  1  0
  9 14  1  0
 14 15  2  0
 15 16  1  0
 16 17  1  0
 17 18  2  0
 17 19  1  0
 19 20  1  0
 20 21  1  0
 21 22  1  0
 16  4  1  0
 15  6  1  0
  1 23  1  0
  5 24  1  0
  7 25  1  0
  8 26  1  0
 10 27  1  0
 11 28  1  0
 11 29  1  0
 12 30  1  0
 12 31  1  0
 13 32  1  0
 13 33  1  0
 14 34  1  0
 20 35  1  0
 20 36  1  0
 21 37  1  0
 21 38  1  0
 22 39  1  0
M  CHG  1   1  -1
M  END
>  <UniqueID>  (34) 
34

>  <SMILES>  (34) 
[NH-]C(=O)c1cc2ccc(NCCN)cc2n1C(=O)OCCO

>  <Energy>  (34) 
72.33889110981782

>  <Genealogy>  (34) 
[NH-]C(=O)c1cc2ccc(NCCN)cc2n1C(=O)OCCO (protonated)
[NH-]C(=O)c1cc2ccc(NCCN)cc2n1C(=O)OCCO (3D coordinates assigned)
[NH-]C(=O)c1cc2ccc(NCCN)cc2n1C(=O)OCCO (optimized conformer: 72.33889110981782 kcal/mol)

>  <smiles>  (34) 
NCCNc1ccc2cc(C(N)=O)n(C(=O)OCCO)c2c1

>  <score_type>  (34) 
oracle

>  <origin>  (34) 
adg

>  <m_score__min__energy>  (34) 
-6.2199999999999998

>  <m_primary>  (34) 
energy

$$$$
34:0
     RDKit          3D

 46 47  0  0  0  0  0  0  0  0999 V2000
  148.1130  160.8270  131.9070 C   0  0  0  0  0  0  0  0  0  0  0  0
  147.7100  159.5270  132.5360 C   0  0  0  0  0  0  0  0  0  0  0  0
  148.6970  158.5730  132.8900 C   0  0  0  0  0  0  0  0  0  0  0  0
  148.3300  157.3400  133.4550 C   0  0  0  0  0  0  0  0  0  0  0  0
  146.9740  157.0820  133.6330 C   0  0  0  0  0  0  0  0  0  0  0  0
  146.3440  155.9840  134.1750 C   0  0  0  0  0  0  0  0  0  0  0  0
  144.9820  156.2700  134.1110 C   0  0  0  0  0  0  0  0  0  0  0  0
  143.9290  155.3190  134.5240 C   0  0  0  0  0  0  0  0  0  0  0  0
  142.5560  155.6540  134.3360 N   0  0  0  0  0  0  0  0  0  0  0  0
  144.2260  154.2240  135.0680 O   0  0  0  0  0  0  0  0  0  0  0  0
  144.7770  157.4970  133.5550 N   0  0  0  0  0  0  0  0  0  0  0  0
  143.5300  158.1890  133.3870 C   0  0  0  0  0  0  0  0  0  0  0  0
  142.6350  157.7000  132.6450 O   0  0  0  0  0  0  0  0  0  0  0  0
  143.3300  159.4210  134.0200 O   0  0  0  0  0  0  0  0  0  0  0  0
  142.0400  159.9560  134.3030 C   0  0  0  0  0  0  0  0  0  0  0  0
  141.4020  159.2110  135.4460 C   0  0  0  0  0  0  0  0  0  0  0  0
  141.3770  159.7340  136.5520 O   0  0  0  0  0  0  0  0  0  0  0  0
  140.8640  157.8780  135.2460 N   0  0  1  0  0  0  0  0  0  0  0  0
  141.1310  157.0060  136.4050 C   0  0  0  0  0  0  0  0  0  0  0  0
  139.4390  157.8680  134.8140 C   0  0  0  0  0  0  0  0  0  0  0  0
  139.1560  158.1060  133.3090 C   0  0  0  0  0  0  0  0  0  0  0  0
  139.5420  156.9360  132.4000 C   0  0  0  0  0  0  0  0  0  0  0  0
  140.3900  156.0670  133.0980 O   0  0  0  0  0  0  0  0  0  0  0  0
  146.0060  157.9820  133.2670 C   0  0  0  0  0  0  0  0  0  0  0  0
  146.3440  159.2250  132.7200 C   0  0  0  0  0  0  0  0  0  0  0  0
  148.3404  161.5605  132.6946 H   0  0  0  0  0  0  0  0  0  0  0  0
  149.0050  160.6712  131.2825 H   0  0  0  0  0  0  0  0  0  0  0  0
  147.2893  161.2031  131.2825 H   0  0  0  0  0  0  0  0  0  0  0  0
  149.7599  158.8001  132.7208 H   0  0  0  0  0  0  0  0  0  0  0  0
  149.0909  156.6015  133.7476 H   0  0  0  0  0  0  0  0  0  0  0  0
  146.8160  155.0740  134.5739 H   0  0  0  0  0  0  0  0  0  0  0  0
  142.2800  156.5590  133.8950 H   0  0  0  0  0  0  0  0  0  0  0  0
  142.1391  161.0178  134.5727 H   0  0  0  0  0  0  0  0  0  0  0  0
  141.4062  159.8505  133.4102 H   0  0  0  0  0  0  0  0  0  0  0  0
  141.3980  157.4430  134.4560 H   0  0  0  0  0  0  0  0  0  0  0  0
  140.9588  157.5685  137.3345 H   0  0  0  0  0  0  0  0  0  0  0  0
  140.4579  156.1366  136.3725 H   0  0  0  0  0  0  0  0  0  0  0  0
  142.1755  156.6625  136.3725 H   0  0  0  0  0  0  0  0  0  0  0  0
  139.0193  156.8863  135.0789 H   0  0  0  0  0  0  0  0  0  0  0  0
  138.9794  158.7245  135.3290 H   0  0  0  0  0  0  0  0  0  0  0  0
  138.0793  158.2956  133.1872 H   0  0  0  0  0  0  0  0  0  0  0  0
  139.7790  158.9596  133.0036 H   0  0  0  0  0  0  0  0  0  0  0  0
  138.6349  156.3954  132.0919 H   0  0  0  0  0  0  0  0  0  0  0  0
  140.0598  157.3181  131.5078 H   0  0  0  0  0  0  0  0  0  0  0  0
  141.2760  156.1260  132.6530 H   0  0  0  0  0  0  0  0  0  0  0  0
  145.5641  159.9486  132.4404 H   0  0  0  0  0  0  0  0  0  0  0  0
  1  2  1  0
  2  3  2  0
  3  4  1  0
  4  5  2  0
  5  6  1  0
  6  7  2  0
  7  8  1  0
  8  9  1  0
  8 10  2  0
  7 11  1  0
 11 12  1  0
 12 13  2  0
 12 14  1  0
 14 15  1  0
 15 16  1  0
 16 17  2  0
 16 18  1  0
 18 19  1  0
 18 20  1  0
 20 21  1  0
 21 22  1  0
 22 23  1  0
 11 24  1  0
 24 25  2  0
 25  2  1  0
 24  5  1  0
  1 26  1  0
  1 27  1  0
  1 28  1  0
  3 29  1  0
  4 30  1  0
  6 31  1  0
  9 32  1  0
 15 33  1  0
 15 34  1  0
 18 35  1  6
 19 36  1  0
 19 37  1  0
 19 38  1  0
 20 39  1  0
 20 40  1  0
 21 41  1  0
 21 42  1  0
 22 43  1  0
 22 44  1  0
 23 45  1  0
 25 46  1  0
M  CHG  2   9  -1  18   1
M  END
>  <UniqueID>  (35) 
35

>  <SMILES>  (35) 
Cc1ccc2cc(C([NH-])=O)n(C(=O)OCC(=O)[N@@H+](C)CCCO)c2c1

>  <Energy>  (35) 
85.89769958239043

>  <Genealogy>  (35) 
Cc1ccc2cc(C([NH-])=O)n(C(=O)OCC(=O)[NH+](C)CCCO)c2c1 (protonated)
Cc1ccc2cc(C([NH-])=O)n(C(=O)OCC(=O)[N@@H+](C)CCCO)c2c1 (chirality)
Cc1ccc2cc(C([NH-])=O)n(C(=O)OCC(=O)[N@@H+](C)CCCO)c2c1 (3D coordinates assigned)
Cc1ccc2cc(C([NH-])=O)n(C(=O)OCC(=O)[N@@H+](C)CCCO)c2c1 (optimized conformer: 85.89769958239043 kcal/mol)

>  <smiles>  (35) 
Cc1ccc2cc(C(N)=O)n(C(=O)OCC(=O)N(C)CCCO)c2c1

>  <score_type>  (35) 
oracle

>  <origin>  (35) 
adg

>  <m_score__min__energy>  (35) 
-5.4800000000000004

>  <m_primary>  (35) 
energy

$$$$
35:0
     RDKit          3D

 72 75  0  0  0  0  0  0  0  0999 V2000
  143.0020  152.6720  132.7250 C   0  0  0  0  0  0  0  0  0  0  0  0
  141.9530  153.2110  133.7180 C   0  0  0  0  0  0  0  0  0  0  0  0
  141.7870  152.2530  134.9120 C   0  0  0  0  0  0  0  0  0  0  0  0
  140.6060  153.3430  132.9950 C   0  0  0  0  0  0  0  0  0  0  0  0
  142.3230  154.5240  134.1600 O   0  0  0  0  0  0  0  0  0  0  0  0
  142.0200  155.0850  135.4120 C   0  0  0  0  0  0  0  0  0  0  0  0
  142.6960  154.7780  136.4310 O   0  0  0  0  0  0  0  0  0  0  0  0
  140.9590  156.0510  135.5130 N   0  0  0  0  0  0  0  0  0  0  0  0
  140.8460  156.8310  136.7620 C   0  0  0  0  0  0  0  0  0  0  0  0
  139.8830  158.0340  136.6990 C   0  0  0  0  0  0  0  0  0  0  0  0
  139.6540  158.5340  135.3350 N   0  0  0  0  0  0  0  0  0  0  0  0
  140.6210  159.5560  134.8350 C   0  0  0  0  0  0  0  0  0  0  0  0
  140.8660  159.4660  133.3000 C   0  0  0  0  0  0  0  0  0  0  0  0
  142.1490  158.7010  132.9210 C   0  0  0  0  0  0  0  0  0  0  0  0
  143.3040  159.1110  133.7370 N   0  0  0  0  0  0  0  0  0  0  0  0
  144.5990  158.5060  133.5300 C   0  0  0  0  0  0  0  0  0  0  0  0
  145.6420  159.2340  132.8970 C   0  0  0  0  0  0  0  0  0  0  0  0
  146.8860  158.6350  132.6490 C   0  0  0  0  0  0  0  0  0  0  0  0
  147.0600  157.3080  133.0240 C   0  0  0  0  0  0  0  0  0  0  0  0
  148.1560  156.4890  132.8880 C   0  0  0  0  0  0  0  0  0  0  0  0
  147.7620  155.2580  133.4060 C   0  0  0  0  0  0  0  0  0  0  0  0
  148.6110  154.0490  133.3580 C   0  0  0  0  0  0  0  0  0  0  0  0
  148.3320  152.9150  134.1850 N   0  0  0  0  0  0  0  0  0  0  0  0
  149.5500  153.9860  132.5200 O   0  0  0  0  0  0  0  0  0  0  0  0
  146.4810  155.3160  133.8680 N   0  0  0  0  0  0  0  0  0  0  0  0
  145.7670  154.2860  134.5680 C   0  0  0  0  0  0  0  0  0  0  0  0
  145.5530  153.1740  134.0150 O   0  0  0  0  0  0  0  0  0  0  0  0
  145.3240  154.5170  135.8720 O   0  0  0  0  0  0  0  0  0  0  0  0
  145.3890  153.5280  136.8940 C   0  0  0  0  0  0  0  0  0  0  0  0
  146.7670  153.4690  137.4630 C   0  0  0  0  0  0  0  0  0  0  0  0
  147.7010  152.9560  136.7890 O   0  0  0  0  0  0  0  0  0  0  0  0
  147.0200  153.9290  138.7490 O   0  0  0  0  0  0  0  0  0  0  0  0
  146.0620  156.5800  133.6210 C   0  0  0  0  0  0  0  0  0  0  0  0
  144.8210  157.1610  133.9090 C   0  0  0  0  0  0  0  0  0  0  0  0
  143.1190  160.0980  134.8070 C   0  0  0  0  0  0  0  0  0  0  0  0
  141.9320  159.6710  135.6630 C   0  0  0  0  0  0  0  0  0  0  0  0
  139.1860  157.4600  134.4470 C   0  0  0  0  0  0  0  0  0  0  0  0
  140.2190  156.3530  134.2760 C   0  0  0  0  0  0  0  0  0  0  0  0
  143.8456  152.2385  133.2822 H   0  0  0  0  0  0  0  0  0  0  0  0
  142.5439  151.8976  132.0922 H   0  0  0  0  0  0  0  0  0  0  0  0
  143.3649  153.4953  132.0922 H   0  0  0  0  0  0  0  0  0  0  0  0
  141.8848  152.8173  135.8512 H   0  0  0  0  0  0  0  0  0  0  0  0
  140.7939  151.7820  134.8689 H   0  0  0  0  0  0  0  0  0  0  0  0
  142.5638  151.4753  134.8689 H   0  0  0  0  0  0  0  0  0  0  0  0
  139.7978  153.4222  133.7370 H   0  0  0  0  0  0  0  0  0  0  0  0
  140.6149  154.2446  132.3649 H   0  0  0  0  0  0  0  0  0  0  0  0
  140.4397  152.4569  132.3649 H   0  0  0  0  0  0  0  0  0  0  0  0
  140.4945  156.1547  137.5551 H   0  0  0  0  0  0  0  0  0  0  0  0
  141.8454  157.2492  136.9527 H   0  0  0  0  0  0  0  0  0  0  0  0
  138.9158  157.7278  137.1241 H   0  0  0  0  0  0  0  0  0  0  0  0
  140.3501  158.8513  137.2680 H   0  0  0  0  0  0  0  0  0  0  0  0
  140.1135  160.5170  135.0054 H   0  0  0  0  0  0  0  0  0  0  0  0
  140.0077  158.9536  132.8408 H   0  0  0  0  0  0  0  0  0  0  0  0
  140.9856  160.4960  132.9327 H   0  0  0  0  0  0  0  0  0  0  0  0
  141.9759  157.6247  133.0680 H   0  0  0  0  0  0  0  0  0  0  0  0
  142.3802  158.9301  131.8703 H   0  0  0  0  0  0  0  0  0  0  0  0
  145.4722  160.2789  132.5981 H   0  0  0  0  0  0  0  0  0  0  0  0
  147.7005  159.1994  132.1714 H   0  0  0  0  0  0  0  0  0  0  0  0
  149.1354  156.7505  132.4610 H   0  0  0  0  0  0  0  0  0  0  0  0
  147.4840  152.8840  134.7900 H   0  0  0  0  0  0  0  0  0  0  0  0
  148.9680  152.0840  134.1680 H   0  0  0  0  0  0  0  0  0  0  0  0
  144.6763  153.7823  137.6923 H   0  0  0  0  0  0  0  0  0  0  0  0
  145.1348  152.5481  136.4637 H   0  0  0  0  0  0  0  0  0  0  0  0
  144.0354  156.5841  134.4190 H   0  0  0  0  0  0  0  0  0  0  0  0
  144.0257  160.1455  135.4281 H   0  0  0  0  0  0  0  0  0  0  0  0
  142.9315  161.0914  134.3735 H   0  0  0  0  0  0  0  0  0  0  0  0
  142.1538  158.6920  136.1128 H   0  0  0  0  0  0  0  0  0  0  0  0
  141.7778  160.4405  136.4338 H   0  0  0  0  0  0  0  0  0  0  0  0
  138.2696  157.0248  134.8722 H   0  0  0  0  0  0  0  0  0  0  0  0
  139.0020  157.9015  133.4565 H   0  0  0  0  0  0  0  0  0  0  0  0
  139.7012  155.4399  133.9471 H   0  0  0  0  0  0  0  0  0  0  0  0
  140.9524  156.7032  133.5347 H   0  0  0  0  0  0  0  0  0  0  0  0
  1  2  1  0
  2  3  1  0
  2  4  1  0
  2  5  1  0
  5  6  1  0
  6  7  2  0
  6  8  1  0
  8  9  1  0
  9 10  1  0
 10 11  1  0
 11 12  1  0
 12 13  1  0
 13 14  1  0
 14 15  1  0
 15 16  1  0
 16 17  2  0
 17 18  1  0
 18 19  2  0
 19 20  1  0
 20 21  2  0
 21 22  1  0
 22 23  1  0
 22 24  2  0
 21 25  1  0
 25 26  1  0
 26 27  2  0
 26 28  1  0
 28 29  1  0
 29 30  1  0
 30 31  2  0
 30 32  1  0
 25 33  1  0
 33 34  2  0
 15 35  1  0
 35 36  1  0
 11 37  1  0
 37 38  1  0
 38  8  1  0
 36 12  1  0
 34 16  1  0
 33 19  1  0
  1 39  1  0
  1 40  1  0
  1 41  1  0
  3 42  1  0
  3 43  1  0
  3 44  1  0
  4 45  1  0
  4 46  1  0
  4 47  1  0
  9 48  1  0
  9 49  1  0
 10 50  1  0
 10 51  1  0
 12 52  1  0
 13 53  1  0
 13 54  1  0
 14 55  1  0
 14 56  1  0
 17 57  1  0
 18 58  1  0
 20 59  1  0
 23 60  1  0
 23 61  1  0
 29 62  1  0
 29 63  1  0
 34 64  1  0
 35 65  1  0
 35 66  1  0
 36 67  1  0
 36 68  1  0
 37 69  1  0
 37 70  1  0
 38 71  1  0
 38 72  1  0
M  CHG  1  32  -1
M  END
>  <UniqueID>  (36) 
36

>  <SMILES>  (36) 
CC(C)(C)OC(=O)N1CCN(C2CCN(c3ccc4cc(C(N)=O)n(C(=O)OCC(=O)[O-])c4c3)CC2)CC1

>  <Energy>  (36) 
127.89134600182426

>  <Genealogy>  (36) 
CC(C)(C)OC(=O)N1CCN(C2CCN(c3ccc4cc(C(N)=O)n(C(=O)OCC(=O)[O-])c4c3)CC2)CC1 (protonated)
CC(C)(C)OC(=O)N1CCN(C2CCN(c3ccc4cc(C(N)=O)n(C(=O)OCC(=O)[O-])c4c3)CC2)CC1 (3D coordinates assigned)
CC(C)(C)OC(=O)N1CCN(C2CCN(c3ccc4cc(C(N)=O)n(C(=O)OCC(=O)[O-])c4c3)CC2)CC1 (nonaromatic ring conformer: 127.89134600182426 kcal/mol)

>  <smiles>  (36) 
CC(C)(C)OC(=O)N1CCN(C2CCN(c3ccc4cc(C(N)=O)n(C(=O)OCC(=O)O)c4c3)CC2)CC1

>  <score_type>  (36) 
oracle

>  <origin>  (36) 
adg

>  <m_score__min__energy>  (36) 
-9.8000000000000007

>  <m_primary>  (36) 
energy

$$$$
36:0
     RDKit          3D

 34 35  0  0  0  0  0  0  0  0999 V2000
  139.1520  156.4550  133.5430 N   0  0  0  0  0  0  0  0  0  0  0  0
  139.8810  157.4450  134.2650 C   0  0  0  0  0  0  0  0  0  0  0  0
  139.2850  158.1370  135.1330 O   0  0  0  0  0  0  0  0  0  0  0  0
  141.3050  157.7070  133.9710 C   0  0  0  0  0  0  0  0  0  0  0  0
  142.3050  156.7490  134.1210 C   0  0  0  0  0  0  0  0  0  0  0  0
  143.4830  157.4020  133.8400 C   0  0  0  0  0  0  0  0  0  0  0  0
  144.7880  156.9240  133.8210 C   0  0  0  0  0  0  0  0  0  0  0  0
  145.8110  157.8170  133.4650 C   0  0  0  0  0  0  0  0  0  0  0  0
  145.5190  159.1630  133.1310 C   0  0  0  0  0  0  0  0  0  0  0  0
  146.6030  160.0350  132.7550 N   0  0  0  0  0  0  0  0  0  0  0  0
  147.9770  159.6020  132.4820 C   0  0  0  0  0  0  0  0  0  0  0  0
  148.4210  159.9610  131.0500 C   0  0  1  0  0  0  0  0  0  0  0  0
  147.3660  160.5540  130.3370 O   0  0  0  0  0  0  0  0  0  0  0  0
  149.6300  160.9090  131.0560 C   0  0  0  0  0  0  0  0  0  0  0  0
  149.4520  161.9330  130.1150 O   0  0  0  0  0  0  0  0  0  0  0  0
  144.1740  159.6070  133.1460 C   0  0  0  0  0  0  0  0  0  0  0  0
  143.1770  158.7020  133.5290 C   0  0  0  0  0  0  0  0  0  0  0  0
  141.8430  158.9040  133.6010 N   0  0  0  0  0  0  0  0  0  0  0  0
  141.1490  160.1190  133.2710 C   0  0  0  0  0  0  0  0  0  0  0  0
  141.4800  161.2070  133.8090 O   0  0  0  0  0  0  0  0  0  0  0  0
  140.0890  160.0990  132.3730 O   0  0  0  0  0  0  0  0  0  0  0  0
  138.2710  156.6980  133.0400 H   0  0  0  0  0  0  0  0  0  0  0  0
  142.1794  155.6935  134.4042 H   0  0  0  0  0  0  0  0  0  0  0  0
  145.0123  155.8780  134.0771 H   0  0  0  0  0  0  0  0  0  0  0  0
  146.8537  157.4672  133.4450 H   0  0  0  0  0  0  0  0  0  0  0  0
  146.3950  161.0500  132.6220 H   0  0  0  0  0  0  0  0  0  0  0  0
  148.6531  160.0933  133.1973 H   0  0  0  0  0  0  0  0  0  0  0  0
  148.0157  158.5076  132.5858 H   0  0  0  0  0  0  0  0  0  0  0  0
  148.7143  159.0232  130.5555 H   0  0  0  0  0  0  0  0  0  0  0  0
  147.7380  160.8480  129.4660 H   0  0  0  0  0  0  0  0  0  0  0  0
  149.7388  161.3515  132.0572 H   0  0  0  0  0  0  0  0  0  0  0  0
  150.5331  160.3376  130.7955 H   0  0  0  0  0  0  0  0  0  0  0  0
  148.4730  162.0240  129.9740 H   0  0  0  0  0  0  0  0  0  0  0  0
  143.9188  160.6390  132.8633 H   0  0  0  0  0  0  0  0  0  0  0  0
  1  2  1  0
  2  3  2  0
  2  4  1  0
  4  5  2  0
  5  6  1  0
  6  7  2  0
  7  8  1  0
  8  9  2  0
  9 10  1  0
 10 11  1  0
 11 12  1  0
 12 13  1  0
 12 14  1  0
 14 15  1  0
  9 16  1  0
 16 17  2  0
 17 18  1  0
 18 19  1  0
 19 20  2  0
 19 21  1  0
 18  4  1  0
 17  6  1  0
  1 22  1  0
  5 23  1  0
  7 24  1  0
  8 25  1  0
 10 26  1  0
 11 27  1  0
 11 28  1  0
 12 29  1  6
 13 30  1  0
 14 31  1  0
 14 32  1  0
 15 33  1  0
 16 34  1  0
M  CHG  2   1  -1  21  -1
M  END
>  <UniqueID>  (37) 
37

>  <SMILES>  (37) 
[NH-]C(=O)c1cc2ccc(NC[C@@H](O)CO)cc2n1C(=O)[O-]

>  <Energy>  (37) 
71.49311151167872

>  <Genealogy>  (37) 
[NH-]C(=O)c1cc2ccc(NC[C@@H](O)CO)cc2n1C(=O)[O-] (protonated)
[NH-]C(=O)c1cc2ccc(NC[C@@H](O)CO)cc2n1C(=O)[O-] (3D coordinates assigned)
[NH-]C(=O)c1cc2ccc(NC[C@@H](O)CO)cc2n1C(=O)[O-] (optimized conformer: 71.49311151167872 kcal/mol)

>  <smiles>  (37) 
NC(=O)c1cc2ccc(NC[C@@H](O)CO)cc2n1C(=O)O

>  <score_type>  (37) 
oracle

>  <origin>  (37) 
adg

>  <m_score__min__energy>  (37) 
-6.4000000000000004

>  <m_primary>  (37) 
energy

$$$$
37:0
     RDKit          3D

 28 29  0  0  0  0  0  0  0  0999 V2000
  149.3910  158.9890  133.3060 N   0  0  0  0  0  0  0  0  0  0  0  0
  148.3000  159.7120  132.7350 C   0  0  0  0  0  0  0  0  0  0  0  0
  148.5230  160.5350  131.8070 O   0  0  0  0  0  0  0  0  0  0  0  0
  146.9090  159.4650  133.1660 C   0  0  0  0  0  0  0  0  0  0  0  0
  145.9650  160.4770  133.3180 C   0  0  0  0  0  0  0  0  0  0  0  0
  144.7990  159.8340  133.6650 C   0  0  0  0  0  0  0  0  0  0  0  0
  143.5440  160.3610  133.9590 C   0  0  0  0  0  0  0  0  0  0  0  0
  142.5270  159.4680  134.3330 C   0  0  0  0  0  0  0  0  0  0  0  0
  142.7800  158.0760  134.4080 C   0  0  0  0  0  0  0  0  0  0  0  0
  141.6980  157.1360  134.8590 C   0  0  0  0  0  0  0  0  0  0  0  0
  140.7500  157.8740  136.2240 P   0  0  0  0  0  0  0  0  0  0  0  0
  139.5310  158.5810  135.6770 O   0  0  0  0  0  0  0  0  0  0  0  0
  140.2590  156.6540  137.2880 O   0  0  0  0  0  0  0  0  0  0  0  0
  141.7170  158.9850  137.0550 O   0  0  0  0  0  0  0  0  0  0  0  0
  144.0700  157.5800  134.1130 C   0  0  0  0  0  0  0  0  0  0  0  0
  145.0600  158.4890  133.7230 C   0  0  0  0  0  0  0  0  0  0  0  0
  146.3570  158.2460  133.4200 N   0  0  0  0  0  0  0  0  0  0  0  0
  147.0290  156.9760  133.4830 C   0  0  0  0  0  0  0  0  0  0  0  0
  147.8760  156.7490  134.3870 O   0  0  0  0  0  0  0  0  0  0  0  0
  146.7520  155.9860  132.5490 O   0  0  0  0  0  0  0  0  0  0  0  0
  149.2260  158.1840  133.9500 H   0  0  0  0  0  0  0  0  0  0  0  0
  150.3710  159.2030  133.0160 H   0  0  0  0  0  0  0  0  0  0  0  0
  146.1184  161.5585  133.1885 H   0  0  0  0  0  0  0  0  0  0  0  0
  143.3553  161.4431  133.9001 H   0  0  0  0  0  0  0  0  0  0  0  0
  141.5242  159.8529  134.5700 H   0  0  0  0  0  0  0  0  0  0  0  0
  141.0212  156.9307  134.0165 H   0  0  0  0  0  0  0  0  0  0  0  0
  142.1592  156.2005  135.2083 H   0  0  0  0  0  0  0  0  0  0  0  0
  144.2907  156.5050  134.1882 H   0  0  0  0  0  0  0  0  0  0  0  0
  1  2  1  0
  2  3  2  0
  2  4  1  0
  4  5  2  0
  5  6  1  0
  6  7  2  0
  7  8  1  0
  8  9  2  0
  9 10  1  0
 10 11  1  0
 11 12  2  0
 11 13  1  0
 11 14  1  0
  9 15  1  0
 15 16  2  0
 16 17  1  0
 17 18  1  0
 18 19  2  0
 18 20  1  0
 17  4  1  0
 16  6  1  0
  1 21  1  0
  1 22  1  0
  5 23  1  0
  7 24  1  0
  8 25  1  0
 10 26  1  0
 10 27  1  0
 15 28  1  0
M  CHG  3  13  -1  14  -1  20  -1
M  END
>  <UniqueID>  (38) 
38

>  <SMILES>  (38) 
NC(=O)c1cc2ccc(CP(=O)([O-])[O-])cc2n1C(=O)[O-]

>  <Energy>  (38) 
63.74675005883282

>  <Genealogy>  (38) 
NC(=O)c1cc2ccc(CP(=O)([O-])[O-])cc2n1C(=O)[O-] (protonated)
NC(=O)c1cc2ccc(CP(=O)([O-])[O-])cc2n1C(=O)[O-] (3D coordinates assigned)
NC(=O)c1cc2ccc(CP(=O)([O-])[O-])cc2n1C(=O)[O-] (optimized conformer: 63.74675005883282 kcal/mol)

>  <smiles>  (38) 
NC(=O)c1cc2ccc(CP(=O)(O)O)cc2n1C(=O)O

>  <score_type>  (38) 
oracle

>  <origin>  (38) 
adg

>  <m_score__min__energy>  (38) 
-6.1100000000000003

>  <m_primary>  (38) 
energy

$$$$
38:0
     RDKit          3D

 45 46  0  0  0  0  0  0  0  0999 V2000
  149.2410  154.0900  132.5940 C   0  0  0  0  0  0  0  0  0  0  0  0
  148.7290  155.1830  132.6460 C   0  0  0  0  0  0  0  0  0  0  0  0
  148.1200  156.4870  132.7240 C   0  0  0  0  0  0  0  0  0  0  0  0
  148.9120  157.6430  132.5530 C   0  0  0  0  0  0  0  0  0  0  0  0
  148.3360  158.9230  132.6600 C   0  0  0  0  0  0  0  0  0  0  0  0
  146.9750  159.0060  132.9420 C   0  0  0  0  0  0  0  0  0  0  0  0
  146.1790  160.1140  133.0990 C   0  0  0  0  0  0  0  0  0  0  0  0
  144.9150  159.6170  133.3890 C   0  0  0  0  0  0  0  0  0  0  0  0
  143.7700  160.4800  133.7240 C   0  0  0  0  0  0  0  0  0  0  0  0
  142.4800  159.9160  133.9600 N   0  0  0  0  0  0  0  0  0  0  0  0
  143.9400  161.7230  133.8440 O   0  0  0  0  0  0  0  0  0  0  0  0
  144.9110  158.2520  133.3940 N   0  0  0  0  0  0  0  0  0  0  0  0
  143.7590  157.3930  133.5330 C   0  0  0  0  0  0  0  0  0  0  0  0
  143.1400  156.9860  132.5180 O   0  0  0  0  0  0  0  0  0  0  0  0
  143.3200  157.0180  134.8050 O   0  0  0  0  0  0  0  0  0  0  0  0
  141.9570  156.7530  135.1240 C   0  0  1  0  0  0  0  0  0  0  0  0
  141.9120  155.6840  136.2120 C   0  0  0  0  0  0  0  0  0  0  0  0
  141.3470  157.9590  135.5880 O   0  0  0  0  0  0  0  0  0  0  0  0
  140.1100  158.4250  135.1320 C   0  0  0  0  0  0  0  0  0  0  0  0
  139.0700  158.2800  135.8330 O   0  0  0  0  0  0  0  0  0  0  0  0
  140.0390  159.0790  133.8630 N   0  0  0  0  0  0  0  0  0  0  0  0
  140.1600  158.3610  132.6020 C   0  0  0  0  0  0  0  0  0  0  0  0
  139.8150  159.2870  131.4360 C   0  0  0  0  0  0  0  0  0  0  0  0
  138.8370  160.2360  131.8200 O   0  0  0  0  0  0  0  0  0  0  0  0
  137.6800  160.1030  131.0200 C   0  0  0  0  0  0  0  0  0  0  0  0
  146.1920  157.8910  133.1220 C   0  0  0  0  0  0  0  0  0  0  0  0
  146.7420  156.6030  133.0030 C   0  0  0  0  0  0  0  0  0  0  0  0
  149.7072  153.0948  132.5466 H   0  0  0  0  0  0  0  0  0  0  0  0
  149.9855  157.5430  132.3349 H   0  0  0  0  0  0  0  0  0  0  0  0
  148.9429  159.8304  132.5249 H   0  0  0  0  0  0  0  0  0  0  0  0
  146.4784  161.1690  133.0134 H   0  0  0  0  0  0  0  0  0  0  0  0
  142.3390  158.8770  133.9510 H   0  0  0  0  0  0  0  0  0  0  0  0
  141.6580  160.5390  134.1390 H   0  0  0  0  0  0  0  0  0  0  0  0
  141.4124  156.3944  134.2381 H   0  0  0  0  0  0  0  0  0  0  0  0
  141.9323  156.1659  137.2006 H   0  0  0  0  0  0  0  0  0  0  0  0
  140.9883  155.0955  136.1099 H   0  0  0  0  0  0  0  0  0  0  0  0
  142.7830  155.0200  136.1099 H   0  0  0  0  0  0  0  0  0  0  0  0
  141.1925  157.9996  132.4866 H   0  0  0  0  0  0  0  0  0  0  0  0
  139.4638  157.5094  132.6040 H   0  0  0  0  0  0  0  0  0  0  0  0
  140.7242  159.8161  131.1145 H   0  0  0  0  0  0  0  0  0  0  0  0
  139.4130  158.6805  130.6111 H   0  0  0  0  0  0  0  0  0  0  0  0
  136.7964  160.0014  131.6672 H   0  0  0  0  0  0  0  0  0  0  0  0
  137.5689  160.9943  130.3850 H   0  0  0  0  0  0  0  0  0  0  0  0
  137.7740  159.2097  130.3850 H   0  0  0  0  0  0  0  0  0  0  0  0
  146.1139  155.7081  133.1244 H   0  0  0  0  0  0  0  0  0  0  0  0
  1  2  3  0
  2  3  1  0
  3  4  2  0
  4  5  1  0
  5  6  2  0
  6  7  1  0
  7  8  2  0
  8  9  1  0
  9 10  1  0
  9 11  2  0
  8 12  1  0
 12 13  1  0
 13 14  2  0
 13 15  1  0
 15 16  1  0
 16 17  1  0
 16 18  1  0
 18 19  1  0
 19 20  2  0
 19 21  1  0
 21 22  1  0
 22 23  1  0
 23 24  1  0
 24 25  1  0
 12 26  1  0
 26 27  2  0
 27  3  1  0
 26  6  1  0
  1 28  1  0
  4 29  1  0
  5 30  1  0
  7 31  1  0
 10 32  1  0
 10 33  1  0
 16 34  1  6
 17 35  1  0
 17 36  1  0
 17 37  1  0
 22 38  1  0
 22 39  1  0
 23 40  1  0
 23 41  1  0
 25 42  1  0
 25 43  1  0
 25 44  1  0
 27 45  1  0
M  CHG  1  21  -1
M  END
>  <UniqueID>  (39) 
39

>  <SMILES>  (39) 
C#Cc1ccc2cc(C(N)=O)n(C(=O)O[C@@H](C)OC(=O)[N-]CCOC)c2c1

>  <Energy>  (39) 
76.17576845332836

>  <Genealogy>  (39) 
C#Cc1ccc2cc(C(N)=O)n(C(=O)OC(C)OC(=O)[N-]CCOC)c2c1 (protonated)
C#Cc1ccc2cc(C(N)=O)n(C(=O)O[C@@H](C)OC(=O)[N-]CCOC)c2c1 (chirality)
C#Cc1ccc2cc(C(N)=O)n(C(=O)O[C@@H](C)OC(=O)[N-]CCOC)c2c1 (3D coordinates assigned)
C#Cc1ccc2cc(C(N)=O)n(C(=O)O[C@@H](C)OC(=O)[N-]CCOC)c2c1 (optimized conformer: 76.17576845332836 kcal/mol)

>  <smiles>  (39) 
C#Cc1ccc2cc(C(N)=O)n(C(=O)OC(C)OC(=O)NCCOC)c2c1

>  <score_type>  (39) 
oracle

>  <origin>  (39) 
adg

>  <m_score__min__energy>  (39) 
-6.9699999999999998

>  <m_primary>  (39) 
energy

$$$$
39:0
     RDKit          3D

 55 57  0  0  0  0  0  0  0  0999 V2000
  138.8140  160.7420  131.1800 C   0  0  0  0  0  0  0  0  0  0  0  0
  139.1110  159.3030  131.2720 N   0  0  0  0  0  0  0  0  0  0  0  0
  138.1270  158.6150  132.1250 C   0  0  0  0  0  0  0  0  0  0  0  0
  138.7570  158.4050  133.4880 C   0  0  0  0  0  0  0  0  0  0  0  0
  140.2420  158.3140  133.1900 C   0  0  2  0  0  0  0  0  0  0  0  0
  141.0720  158.8490  134.2900 N   0  0  0  0  0  0  0  0  0  0  0  0
  140.5750  158.9120  135.6720 C   0  0  0  0  0  0  0  0  0  0  0  0
  142.4380  159.2350  134.0330 C   0  0  0  0  0  0  0  0  0  0  0  0
  142.7940  160.6070  133.9700 C   0  0  0  0  0  0  0  0  0  0  0  0
  144.1220  160.9950  133.7240 C   0  0  0  0  0  0  0  0  0  0  0  0
  145.0680  159.9940  133.5320 C   0  0  0  0  0  0  0  0  0  0  0  0
  146.4230  160.0890  133.3090 C   0  0  0  0  0  0  0  0  0  0  0  0
  146.8700  158.7740  133.2020 C   0  0  0  0  0  0  0  0  0  0  0  0
  148.2680  158.4130  132.8950 C   0  0  0  0  0  0  0  0  0  0  0  0
  148.5820  157.4630  131.8750 N   0  0  0  0  0  0  0  0  0  0  0  0
  149.2050  158.9930  133.5060 O   0  0  0  0  0  0  0  0  0  0  0  0
  145.8380  157.9000  133.3670 N   0  0  0  0  0  0  0  0  0  0  0  0
  145.9030  156.4670  133.4270 C   0  0  0  0  0  0  0  0  0  0  0  0
  145.0090  155.8250  134.0420 O   0  0  0  0  0  0  0  0  0  0  0  0
  146.9630  155.7990  132.7930 O   0  0  0  0  0  0  0  0  0  0  0  0
  147.5840  154.5820  133.2280 C   0  0  0  0  0  0  0  0  0  0  0  0
  146.6910  153.3710  132.9030 C   0  0  0  0  0  0  0  0  0  0  0  0
  148.9740  154.4230  132.5850 C   0  0  0  0  0  0  0  0  0  0  0  0
  147.7520  154.6820  134.7520 C   0  0  0  0  0  0  0  0  0  0  0  0
  144.7390  158.6640  133.5650 C   0  0  0  0  0  0  0  0  0  0  0  0
  143.4290  158.2500  133.8330 C   0  0  0  0  0  0  0  0  0  0  0  0
  140.4390  159.0640  131.8680 C   0  0  0  0  0  0  0  0  0  0  0  0
  138.7269  161.1639  132.1921 H   0  0  0  0  0  0  0  0  0  0  0  0
  139.6262  161.2502  130.6395 H   0  0  0  0  0  0  0  0  0  0  0  0
  137.8670  160.8871  130.6395 H   0  0  0  0  0  0  0  0  0  0  0  0
  137.2214  159.2318  132.2230 H   0  0  0  0  0  0  0  0  0  0  0  0
  137.8442  157.6492  131.6809 H   0  0  0  0  0  0  0  0  0  0  0  0
  138.5422  159.2537  134.1540 H   0  0  0  0  0  0  0  0  0  0  0  0
  138.3708  157.5126  134.0023 H   0  0  0  0  0  0  0  0  0  0  0  0
  140.5731  157.2688  133.1006 H   0  0  0  0  0  0  0  0  0  0  0  0
  141.4183  158.8051  136.3702 H   0  0  0  0  0  0  0  0  0  0  0  0
  140.0803  159.8800  135.8400 H   0  0  0  0  0  0  0  0  0  0  0  0
  139.8544  158.0980  135.8400 H   0  0  0  0  0  0  0  0  0  0  0  0
  142.0212  161.3762  134.1155 H   0  0  0  0  0  0  0  0  0  0  0  0
  144.4044  162.0574  133.6845 H   0  0  0  0  0  0  0  0  0  0  0  0
  147.0242  161.0069  133.2318 H   0  0  0  0  0  0  0  0  0  0  0  0
  149.5740  157.1880  131.7020 H   0  0  0  0  0  0  0  0  0  0  0  0
  147.8440  157.0970  131.2330 H   0  0  0  0  0  0  0  0  0  0  0  0
  146.3483  152.9063  133.8393 H   0  0  0  0  0  0  0  0  0  0  0  0
  145.8204  153.7037  132.3187 H   0  0  0  0  0  0  0  0  0  0  0  0
  147.2661  152.6376  132.3187 H   0  0  0  0  0  0  0  0  0  0  0  0
  149.7353  154.3359  133.3742 H   0  0  0  0  0  0  0  0  0  0  0  0
  148.9878  153.5174  131.9607 H   0  0  0  0  0  0  0  0  0  0  0  0
  149.1919  155.3021  131.9607 H   0  0  0  0  0  0  0  0  0  0  0  0
  146.9082  154.1797  135.2476 H   0  0  0  0  0  0  0  0  0  0  0  0
  148.6935  154.1972  135.0497 H   0  0  0  0  0  0  0  0  0  0  0  0
  147.7746  155.7407  135.0497 H   0  0  0  0  0  0  0  0  0  0  0  0
  143.1774  157.1805  133.8865 H   0  0  0  0  0  0  0  0  0  0  0  0
  140.9412  160.0244  132.0559 H   0  0  0  0  0  0  0  0  0  0  0  0
  141.0618  158.4699  131.1830 H   0  0  0  0  0  0  0  0  0  0  0  0
  1  2  1  0
  2  3  1  0
  3  4  1  0
  4  5  1  0
  5  6  1  0
  6  7  1  0
  6  8  1  0
  8  9  2  0
  9 10  1  0
 10 11  2  0
 11 12  1  0
 12 13  2  0
 13 14  1  0
 14 15  1  0
 14 16  2  0
 13 17  1  0
 17 18  1  0
 18 19  2  0
 18 20  1  0
 20 21  1  0
 21 22  1  0
 21 23  1  0
 21 24  1  0
 17 25  1  0
 25 26  2  0
  5 27  1  0
 27  2  1  0
 26  8  1  0
 25 11  1  0
  1 28  1  0
  1 29  1  0
  1 30  1  0
  3 31  1  0
  3 32  1  0
  4 33  1  0
  4 34  1  0
  5 35  1  6
  7 36  1  0
  7 37  1  0
  7 38  1  0
  9 39  1  0
 10 40  1  0
 12 41  1  0
 15 42  1  0
 15 43  1  0
 22 44  1  0
 22 45  1  0
 22 46  1  0
 23 47  1  0
 23 48  1  0
 23 49  1  0
 24 50  1  0
 24 51  1  0
 24 52  1  0
 26 53  1  0
 27 54  1  0
 27 55  1  0
M  END
>  <UniqueID>  (40) 
40

>  <SMILES>  (40) 
CN1CC[C@H](N(C)c2ccc3cc(C(N)=O)n(C(=O)OC(C)(C)C)c3c2)C1

>  <Energy>  (40) 
97.0239015989133

>  <Genealogy>  (40) 
CN1CC[C@H](N(C)c2ccc3cc(C(N)=O)n(C(=O)OC(C)(C)C)c3c2)C1 (chirality)
CN1CC[C@H](N(C)c2ccc3cc(C(N)=O)n(C(=O)OC(C)(C)C)c3c2)C1 (3D coordinates assigned)
CN1CC[C@H](N(C)c2ccc3cc(C(N)=O)n(C(=O)OC(C)(C)C)c3c2)C1 (nonaromatic ring conformer: 97.0239015989133 kcal/mol)

>  <smiles>  (40) 
CN1CCC(N(C)c2ccc3cc(C(N)=O)n(C(=O)OC(C)(C)C)c3c2)C1

>  <score_type>  (40) 
oracle

>  <origin>  (40) 
adg

>  <m_score__min__energy>  (40) 
-8.7100000000000009

>  <m_primary>  (40) 
energy

$$$$
40:0
     RDKit          3D

 55 56  0  0  0  0  0  0  0  0999 V2000
  141.5580  155.5390  134.7600 C   0  0  0  0  0  0  0  0  0  0  0  0
  140.8910  156.8430  134.7000 N   0  0  0  0  0  0  0  0  0  0  0  0
  140.3390  157.4340  135.9290 C   0  0  0  0  0  0  0  0  0  0  0  0
  140.5970  158.9480  135.9990 C   0  0  0  0  0  0  0  0  0  0  0  0
  142.0730  159.2960  136.2030 C   0  0  0  0  0  0  0  0  0  0  0  0
  142.8510  158.7680  135.1370 O   0  0  0  0  0  0  0  0  0  0  0  0
  143.2720  159.5330  134.0470 C   0  0  0  0  0  0  0  0  0  0  0  0
  142.4260  160.0880  133.2960 O   0  0  0  0  0  0  0  0  0  0  0  0
  144.6770  159.6620  133.7710 N   0  0  0  0  0  0  0  0  0  0  0  0
  145.4240  160.8020  133.7330 C   0  0  0  0  0  0  0  0  0  0  0  0
  144.9710  162.1550  134.1160 C   0  0  0  0  0  0  0  0  0  0  0  0
  143.8260  162.7470  133.5070 N   0  0  0  0  0  0  0  0  0  0  0  0
  145.5670  162.7730  135.0390 O   0  0  0  0  0  0  0  0  0  0  0  0
  146.7410  160.5120  133.3860 C   0  0  0  0  0  0  0  0  0  0  0  0
  146.7840  159.1450  133.2320 C   0  0  0  0  0  0  0  0  0  0  0  0
  147.8520  158.3170  132.9060 C   0  0  0  0  0  0  0  0  0  0  0  0
  147.6090  156.9380  132.7990 C   0  0  0  0  0  0  0  0  0  0  0  0
  146.3060  156.4080  133.0020 C   0  0  0  0  0  0  0  0  0  0  0  0
  146.0600  154.9870  132.8680 N   0  0  0  0  0  0  0  0  0  0  0  0
  144.7900  154.5030  132.3180 C   0  0  0  0  0  0  0  0  0  0  0  0
  147.0750  154.0160  133.2900 C   0  0  0  0  0  0  0  0  0  0  0  0
  145.2480  157.2910  133.3320 C   0  0  0  0  0  0  0  0  0  0  0  0
  145.5270  158.6560  133.4620 C   0  0  0  0  0  0  0  0  0  0  0  0
  140.8270  157.5460  133.4450 C   0  0  0  0  0  0  0  0  0  0  0  0
  141.7610  157.4210  132.6050 O   0  0  0  0  0  0  0  0  0  0  0  0
  139.7280  158.3630  133.1520 O   0  0  0  0  0  0  0  0  0  0  0  0
  138.6630  157.9560  132.2990 C   0  0  0  0  0  0  0  0  0  0  0  0
  138.0010  159.0930  131.7990 O   0  0  0  0  0  0  0  0  0  0  0  0
  139.1650  160.1410  131.1250 P   0  0  1  0  0  0  0  0  0  0  0  0
  138.6740  160.6730  129.7960 O   0  0  0  0  0  0  0  0  0  0  0  0
  139.4720  161.4350  132.1720 O   0  0  0  0  0  0  0  0  0  0  0  0
  140.6020  159.2840  130.8770 O   0  0  0  0  0  0  0  0  0  0  0  0
  141.7055  155.2506  135.8112 H   0  0  0  0  0  0  0  0  0  0  0  0
  140.9349  154.7849  134.2569 H   0  0  0  0  0  0  0  0  0  0  0  0
  142.5341  155.6029  134.2569 H   0  0  0  0  0  0  0  0  0  0  0  0
  139.2538  157.2560  135.9536 H   0  0  0  0  0  0  0  0  0  0  0  0
  140.8361  156.9619  136.7892 H   0  0  0  0  0  0  0  0  0  0  0  0
  140.2562  159.4052  135.0583 H   0  0  0  0  0  0  0  0  0  0  0  0
  140.0453  159.3351  136.8683 H   0  0  0  0  0  0  0  0  0  0  0  0
  142.1885  160.3896  136.2308 H   0  0  0  0  0  0  0  0  0  0  0  0
  142.4182  158.8590  137.1516 H   0  0  0  0  0  0  0  0  0  0  0  0
  142.9890  162.1720  133.2650 H   0  0  0  0  0  0  0  0  0  0  0  0
  147.5703  161.2238  133.2615 H   0  0  0  0  0  0  0  0  0  0  0  0
  148.8575  158.7297  132.7369 H   0  0  0  0  0  0  0  0  0  0  0  0
  148.4388  156.2585  132.5546 H   0  0  0  0  0  0  0  0  0  0  0  0
  144.1089  154.2434  133.1418 H   0  0  0  0  0  0  0  0  0  0  0  0
  144.3343  155.2905  131.6998 H   0  0  0  0  0  0  0  0  0  0  0  0
  144.9740  153.6120  131.6998 H   0  0  0  0  0  0  0  0  0  0  0  0
  147.1131  153.9795  134.3887 H   0  0  0  0  0  0  0  0  0  0  0  0
  146.8157  153.0211  132.8989 H   0  0  0  0  0  0  0  0  0  0  0  0
  148.0574  154.3191  132.8989 H   0  0  0  0  0  0  0  0  0  0  0  0
  144.2270  156.9107  133.4831 H   0  0  0  0  0  0  0  0  0  0  0  0
  139.0681  157.3696  131.4611 H   0  0  0  0  0  0  0  0  0  0  0  0
  137.9524  157.3392  132.8688 H   0  0  0  0  0  0  0  0  0  0  0  0
  141.0700  159.3220  131.7490 H   0  0  0  0  0  0  0  0  0  0  0  0
  1  2  1  0
  2  3  1  0
  3  4  1  0
  4  5  1  0
  5  6  1  0
  6  7  1  0
  7  8  2  0
  7  9  1  0
  9 10  1  0
 10 11  1  0
 11 12  1  0
 11 13  2  0
 10 14  2  0
 14 15  1  0
 15 16  2  0
 16 17  1  0
 17 18  2  0
 18 19  1  0
 19 20  1  0
 19 21  1  0
 18 22  1  0
 22 23  2  0
  2 24  1  0
 24 25  2  0
 24 26  1  0
 26 27  1  0
 27 28  1  0
 28 29  1  0
 29 30  2  0
 29 31  1  1
 29 32  1  0
 23  9  1  0
 23 15  1  0
  1 33  1  0
  1 34  1  0
  1 35  1  0
  3 36  1  0
  3 37  1  0
  4 38  1  0
  4 39  1  0
  5 40  1  0
  5 41  1  0
 12 42  1  0
 14 43  1  0
 16 44  1  0
 17 45  1  0
 20 46  1  0
 20 47  1  0
 20 48  1  0
 21 49  1  0
 21 50  1  0
 21 51  1  0
 22 52  1  0
 27 53  1  0
 27 54  1  0
 32 55  1  0
M  CHG  2  12  -1  31  -1
M  END
>  <UniqueID>  (41) 
41

>  <SMILES>  (41) 
CN(CCCOC(=O)n1c(C([NH-])=O)cc2ccc(N(C)C)cc21)C(=O)OCO[P@@](=O)([O-])O

>  <Energy>  (41) 
76.19270675041803

>  <Genealogy>  (41) 
CN(CCCOC(=O)n1c(C([NH-])=O)cc2ccc(N(C)C)cc21)C(=O)OCOP(=O)([O-])O (protonated)
CN(CCCOC(=O)n1c(C([NH-])=O)cc2ccc(N(C)C)cc21)C(=O)OCO[P@@](=O)([O-])O (chirality)
CN(CCCOC(=O)n1c(C([NH-])=O)cc2ccc(N(C)C)cc21)C(=O)OCO[P@@](=O)([O-])O (3D coordinates assigned)
CN(CCCOC(=O)n1c(C([NH-])=O)cc2ccc(N(C)C)cc21)C(=O)OCO[P@@](=O)([O-])O (optimized conformer: 76.19270675041803 kcal/mol)

>  <smiles>  (41) 
CN(CCCOC(=O)n1c(C(N)=O)cc2ccc(N(C)C)cc21)C(=O)OCOP(=O)(O)O

>  <score_type>  (41) 
oracle

>  <origin>  (41) 
adg

>  <m_score__min__energy>  (41) 
-6.7699999999999996

>  <m_primary>  (41) 
energy

$$$$
42:0
     RDKit          3D

 31 32  0  0  0  0  0  0  0  0999 V2000
  142.8890  160.7820  133.3560 N   0  0  0  0  0  0  0  0  0  0  0  0
  144.2530  160.9960  133.7140 C   0  0  0  0  0  0  0  0  0  0  0  0
  144.6060  162.1240  134.1500 O   0  0  0  0  0  0  0  0  0  0  0  0
  145.2640  159.9330  133.5300 C   0  0  0  0  0  0  0  0  0  0  0  0
  146.6270  160.1890  133.3920 C   0  0  0  0  0  0  0  0  0  0  0  0
  147.2060  158.9630  133.1590 C   0  0  0  0  0  0  0  0  0  0  0  0
  148.5420  158.6280  132.9600 C   0  0  0  0  0  0  0  0  0  0  0  0
  148.8610  157.2720  132.7730 C   0  0  0  0  0  0  0  0  0  0  0  0
  147.8470  156.2820  132.7950 C   0  0  0  0  0  0  0  0  0  0  0  0
  148.2120  154.8380  132.6110 C   0  0  0  0  0  0  0  0  0  0  0  0
  149.5570  154.7290  132.3110 F   0  0  0  0  0  0  0  0  0  0  0  0
  147.9470  154.1390  133.7750 F   0  0  0  0  0  0  0  0  0  0  0  0
  146.5010  156.6600  133.0030 C   0  0  0  0  0  0  0  0  0  0  0  0
  146.2110  158.0200  133.1660 C   0  0  0  0  0  0  0  0  0  0  0  0
  145.0110  158.6000  133.3950 N   0  0  0  0  0  0  0  0  0  0  0  0
  143.7540  157.9220  133.5480 C   0  0  0  0  0  0  0  0  0  0  0  0
  142.9190  157.9220  132.6030 O   0  0  0  0  0  0  0  0  0  0  0  0
  143.4450  157.2620  134.7780 N   0  0  0  0  0  0  0  0  0  0  0  0
  142.1740  157.4330  135.4690 C   0  0  0  0  0  0  0  0  0  0  0  0
  141.8540  158.9150  135.6020 C   0  0  0  0  0  0  0  0  0  0  0  0
  141.0950  159.1360  136.7380 F   0  0  0  0  0  0  0  0  0  0  0  0
  142.6290  160.0830  132.6240 H   0  0  0  0  0  0  0  0  0  0  0  0
  147.1323  161.1640  133.4558 H   0  0  0  0  0  0  0  0  0  0  0  0
  149.3246  159.4010  132.9494 H   0  0  0  0  0  0  0  0  0  0  0  0
  149.9076  156.9763  132.6080 H   0  0  0  0  0  0  0  0  0  0  0  0
  147.6172  154.4202  131.7854 H   0  0  0  0  0  0  0  0  0  0  0  0
  145.7018  155.9050  133.0360 H   0  0  0  0  0  0  0  0  0  0  0  0
  141.3770  156.9375  134.8952 H   0  0  0  0  0  0  0  0  0  0  0  0
  142.2428  156.9852  136.4714 H   0  0  0  0  0  0  0  0  0  0  0  0
  142.7920  159.4850  135.6742 H   0  0  0  0  0  0  0  0  0  0  0  0
  141.2854  159.2419  134.7190 H   0  0  0  0  0  0  0  0  0  0  0  0
  1  2  1  0
  2  3  2  0
  2  4  1  0
  4  5  2  0
  5  6  1  0
  6  7  2  0
  7  8  1  0
  8  9  2  0
  9 10  1  0
 10 11  1  0
 10 12  1  0
  9 13  1  0
 13 14  2  0
 14 15  1  0
 15 16  1  0
 16 17  2  0
 16 18  1  0
 18 19  1  0
 19 20  1  0
 20 21  1  0
 15  4  1  0
 14  6  1  0
  1 22  1  0
  5 23  1  0
  7 24  1  0
  8 25  1  0
 10 26  1  0
 13 27  1  0
 19 28  1  0
 19 29  1  0
 20 30  1  0
 20 31  1  0
M  CHG  2   1  -1  18  -1
M  END
>  <UniqueID>  (42) 
42

>  <SMILES>  (42) 
[NH-]C(=O)c1cc2ccc(C(F)F)cc2n1C(=O)[N-]CCF

>  <Energy>  (42) 
65.20144958016022

>  <Genealogy>  (42) 
[NH-]C(=O)c1cc2ccc(C(F)F)cc2n1C(=O)[N-]CCF (protonated)
[NH-]C(=O)c1cc2ccc(C(F)F)cc2n1C(=O)[N-]CCF (3D coordinates assigned)
[NH-]C(=O)c1cc2ccc(C(F)F)cc2n1C(=O)[N-]CCF (optimized conformer: 65.20144958016022 kcal/mol)

>  <smiles>  (42) 
NC(=O)c1cc2ccc(C(F)F)cc2n1C(=O)NCCF

>  <score_type>  (42) 
oracle

>  <origin>  (42) 
adg

>  <m_score__min__energy>  (42) 
-5.5800000000000001

>  <m_primary>  (42) 
energy

$$$$
43:0
     RDKit          3D

 37 38  0  0  0  0  0  0  0  0999 V2000
  140.1310  149.7860  132.6440 C   0  0  0  0  0  0  0  0  0  0  0  0
  141.0530  150.9420  132.8910 C   0  0  0  0  0  0  0  0  0  0  0  0
  142.4460  150.7220  133.0270 C   0  0  0  0  0  0  0  0  0  0  0  0
  143.3270  151.8020  133.2090 C   0  0  0  0  0  0  0  0  0  0  0  0
  142.7880  153.0840  133.2440 C   0  0  0  0  0  0  0  0  0  0  0  0
  143.4120  154.3030  133.3780 C   0  0  0  0  0  0  0  0  0  0  0  0
  142.3890  155.2490  133.3260 C   0  0  0  0  0  0  0  0  0  0  0  0
  142.6090  156.6970  133.5200 C   0  0  0  0  0  0  0  0  0  0  0  0
  142.8060  157.5420  132.3880 N   0  0  0  0  0  0  0  0  0  0  0  0
  142.6650  157.1920  134.6760 O   0  0  0  0  0  0  0  0  0  0  0  0
  141.1810  154.6380  133.1570 N   0  0  0  0  0  0  0  0  0  0  0  0
  139.8960  155.2550  132.9700 C   0  0  0  0  0  0  0  0  0  0  0  0
  138.8430  154.5770  133.1070 O   0  0  0  0  0  0  0  0  0  0  0  0
  139.7970  156.6330  132.5740 C   0  0  0  0  0  0  0  0  0  0  0  0
  139.7290  157.7920  132.2480 C   0  0  0  0  0  0  0  0  0  0  0  0
  139.6280  159.2050  131.8520 C   0  0  2  0  0  0  0  0  0  0  0  0
  138.1470  159.5260  131.5780 C   0  0  0  0  0  0  0  0  0  0  0  0
  140.3970  159.3780  130.6860 O   0  0  0  0  0  0  0  0  0  0  0  0
  140.1860  160.0770  132.9980 C   0  0  0  0  0  0  0  0  0  0  0  0
  141.5840  160.1790  132.9270 O   0  0  0  0  0  0  0  0  0  0  0  0
  141.4420  153.3140  133.1140 C   0  0  0  0  0  0  0  0  0  0  0  0
  140.5440  152.2590  132.9150 C   0  0  0  0  0  0  0  0  0  0  0  0
  139.7989  149.3697  133.6065 H   0  0  0  0  0  0  0  0  0  0  0  0
  139.2566  150.1301  132.0721 H   0  0  0  0  0  0  0  0  0  0  0  0
  140.6609  149.0100  132.0721 H   0  0  0  0  0  0  0  0  0  0  0  0
  142.8418  149.6963  132.9898 H   0  0  0  0  0  0  0  0  0  0  0  0
  144.4091  151.6386  133.3203 H   0  0  0  0  0  0  0  0  0  0  0  0
  144.4889  154.4912  133.5002 H   0  0  0  0  0  0  0  0  0  0  0  0
  142.0760  158.2330  132.1010 H   0  0  0  0  0  0  0  0  0  0  0  0
  137.6140  159.6415  132.5333 H   0  0  0  0  0  0  0  0  0  0  0  0
  138.0748  160.4607  131.0025 H   0  0  0  0  0  0  0  0  0  0  0  0
  137.6943  158.7051  131.0025 H   0  0  0  0  0  0  0  0  0  0  0  0
  141.3540  159.2740  130.9280 H   0  0  0  0  0  0  0  0  0  0  0  0
  139.7492  161.0841  132.9272 H   0  0  0  0  0  0  0  0  0  0  0  0
  139.9206  159.6040  133.9550 H   0  0  0  0  0  0  0  0  0  0  0  0
  141.8900  159.5040  132.2660 H   0  0  0  0  0  0  0  0  0  0  0  0
  139.4692  152.4509  132.7807 H   0  0  0  0  0  0  0  0  0  0  0  0
  1  2  1  0
  2  3  2  0
  3  4  1  0
  4  5  2  0
  5  6  1  0
  6  7  2  0
  7  8  1  0
  8  9  1  0
  8 10  2  0
  7 11  1  0
 11 12  1  0
 12 13  2  0
 12 14  1  0
 14 15  3  0
 16 15  1  1
 16 17  1  0
 16 18  1  0
 16 19  1  0
 19 20  1  0
 11 21  1  0
 21 22  2  0
 22  2  1  0
 21  5  1  0
  1 23  1  0
  1 24  1  0
  1 25  1  0
  3 26  1  0
  4 27  1  0
  6 28  1  0
  9 29  1  0
 17 30  1  0
 17 31  1  0
 17 32  1  0
 18 33  1  0
 19 34  1  0
 19 35  1  0
 20 36  1  0
 22 37  1  0
M  CHG  1   9  -1
M  END
>  <UniqueID>  (43) 
43

>  <SMILES>  (43) 
Cc1ccc2cc(C([NH-])=O)n(C(=O)C#C[C@](C)(O)CO)c2c1

>  <Energy>  (43) 
69.39805416102658

>  <Genealogy>  (43) 
Cc1ccc2cc(C([NH-])=O)n(C(=O)C#CC(C)(O)CO)c2c1 (protonated)
Cc1ccc2cc(C([NH-])=O)n(C(=O)C#C[C@](C)(O)CO)c2c1 (chirality)
Cc1ccc2cc(C([NH-])=O)n(C(=O)C#C[C@](C)(O)CO)c2c1 (3D coordinates assigned)
Cc1ccc2cc(C([NH-])=O)n(C(=O)C#C[C@](C)(O)CO)c2c1 (optimized conformer: 69.39805416102658 kcal/mol)

>  <smiles>  (43) 
Cc1ccc2cc(C(N)=O)n(C(=O)C#CC(C)(O)CO)c2c1

>  <score_type>  (43) 
oracle

>  <origin>  (43) 
adg

>  <m_score__min__energy>  (43) 
-7.2599999999999998

>  <m_primary>  (43) 
energy

$$$$
44:0
     RDKit          3D

 53 54  0  0  0  0  0  0  0  0999 V2000
  140.9330  155.7390  133.4790 C   0  0  0  0  0  0  0  0  0  0  0  0
  141.7560  157.0180  133.7090 C   0  0  0  0  0  0  0  0  0  0  0  0
  142.4440  156.9440  135.0830 C   0  0  0  0  0  0  0  0  0  0  0  0
  142.8230  157.1390  132.6060 C   0  0  0  0  0  0  0  0  0  0  0  0
  140.6060  158.5320  133.6390 Si  0  0  0  0  0  4  0  0  0  0  0  0
  138.9800  158.1450  134.4780 C   0  0  0  0  0  0  0  0  0  0  0  0
  140.1990  158.9710  131.8570 C   0  0  0  0  0  0  0  0  0  0  0  0
  141.3430  159.8370  134.5220 O   0  0  0  0  0  0  0  0  0  0  0  0
  142.4120  160.3970  133.7970 C   0  0  0  0  0  0  0  0  0  0  0  0
  143.7360  159.9070  134.3830 C   0  0  0  0  0  0  0  0  0  0  0  0
  144.9400  160.5500  133.6840 C   0  0  0  0  0  0  0  0  0  0  0  0
  145.9770  159.5090  133.3590 C   0  0  0  0  0  0  0  0  0  0  0  0
  147.2310  159.8990  132.8250 C   0  0  0  0  0  0  0  0  0  0  0  0
  148.2240  158.9420  132.5620 C   0  0  0  0  0  0  0  0  0  0  0  0
  147.9390  157.6100  132.8460 C   0  0  0  0  0  0  0  0  0  0  0  0
  148.7280  156.4910  132.7150 C   0  0  0  0  0  0  0  0  0  0  0  0
  147.9420  155.4300  133.1640 C   0  0  0  0  0  0  0  0  0  0  0  0
  148.3660  154.0130  133.1140 C   0  0  0  0  0  0  0  0  0  0  0  0
  147.5630  152.9900  133.7060 N   0  0  0  0  0  0  0  0  0  0  0  0
  149.4610  153.7000  132.5770 O   0  0  0  0  0  0  0  0  0  0  0  0
  146.7160  155.8760  133.5590 N   0  0  0  0  0  0  0  0  0  0  0  0
  145.6540  155.1070  134.1490 C   0  0  0  0  0  0  0  0  0  0  0  0
  144.6150  154.8420  133.4880 O   0  0  0  0  0  0  0  0  0  0  0  0
  145.7540  154.6640  135.4620 O   0  0  0  0  0  0  0  0  0  0  0  0
  146.7300  157.2140  133.3570 C   0  0  0  0  0  0  0  0  0  0  0  0
  145.7270  158.1490  133.6440 C   0  0  0  0  0  0  0  0  0  0  0  0
  140.6529  155.3037  134.4496 H   0  0  0  0  0  0  0  0  0  0  0  0
  140.0235  155.9853  132.9115 H   0  0  0  0  0  0  0  0  0  0  0  0
  141.5341  155.0133  132.9115 H   0  0  0  0  0  0  0  0  0  0  0  0
  141.6870  157.0254  135.8770 H   0  0  0  0  0  0  0  0  0  0  0  0
  142.9724  155.9838  135.1772 H   0  0  0  0  0  0  0  0  0  0  0  0
  143.1645  157.7698  135.1772 H   0  0  0  0  0  0  0  0  0  0  0  0
  143.8155  157.2516  133.0667 H   0  0  0  0  0  0  0  0  0  0  0  0
  142.8092  156.2335  131.9816 H   0  0  0  0  0  0  0  0  0  0  0  0
  142.6068  158.0184  131.9816 H   0  0  0  0  0  0  0  0  0  0  0  0
  139.1138  158.1769  135.5694 H   0  0  0  0  0  0  0  0  0  0  0  0
  138.2269  158.8890  134.1791 H   0  0  0  0  0  0  0  0  0  0  0  0
  138.6428  157.1415  134.1791 H   0  0  0  0  0  0  0  0  0  0  0  0
  139.4512  159.7776  131.8397 H   0  0  0  0  0  0  0  0  0  0  0  0
  141.1124  159.3068  131.3443 H   0  0  0  0  0  0  0  0  0  0  0  0
  139.7952  158.0855  131.3443 H   0  0  0  0  0  0  0  0  0  0  0  0
  142.3413  160.0898  132.7431 H   0  0  0  0  0  0  0  0  0  0  0  0
  142.3652  161.4940  133.8627 H   0  0  0  0  0  0  0  0  0  0  0  0
  143.7677  160.1610  135.4528 H   0  0  0  0  0  0  0  0  0  0  0  0
  143.7945  158.8188  134.2335 H   0  0  0  0  0  0  0  0  0  0  0  0
  144.6044  161.0300  132.7529 H   0  0  0  0  0  0  0  0  0  0  0  0
  145.3848  161.2981  134.3567 H   0  0  0  0  0  0  0  0  0  0  0  0
  147.4277  160.9607  132.6149 H   0  0  0  0  0  0  0  0  0  0  0  0
  149.1980  159.2363  132.1440 H   0  0  0  0  0  0  0  0  0  0  0  0
  149.7597  156.4431  132.3365 H   0  0  0  0  0  0  0  0  0  0  0  0
  147.8910  151.9990  133.7000 H   0  0  0  0  0  0  0  0  0  0  0  0
  146.6270  153.2050  134.1150 H   0  0  0  0  0  0  0  0  0  0  0  0
  144.7686  157.8315  134.0805 H   0  0  0  0  0  0  0  0  0  0  0  0
  1  2  1  0
  2  3  1  0
  2  4  1  0
  2  5  1  0
  5  6  1  0
  5  7  1  0
  5  8  1  0
  8  9  1  0
  9 10  1  0
 10 11  1  0
 11 12  1  0
 12 13  2  0
 13 14  1  0
 14 15  2  0
 15 16  1  0
 16 17  2  0
 17 18  1  0
 18 19  1  0
 18 20  2  0
 17 21  1  0
 21 22  1  0
 22 23  2  0
 22 24  1  0
 21 25  1  0
 25 26  2  0
 26 12  1  0
 25 15  1  0
  1 27  1  0
  1 28  1  0
  1 29  1  0
  3 30  1  0
  3 31  1  0
  3 32  1  0
  4 33  1  0
  4 34  1  0
  4 35  1  0
  6 36  1  0
  6 37  1  0
  6 38  1  0
  7 39  1  0
  7 40  1  0
  7 41  1  0
  9 42  1  0
  9 43  1  0
 10 44  1  0
 10 45  1  0
 11 46  1  0
 11 47  1  0
 13 48  1  0
 14 49  1  0
 16 50  1  0
 19 51  1  0
 19 52  1  0
 26 53  1  0
M  CHG  1  24  -1
M  END
>  <UniqueID>  (44) 
44

>  <SMILES>  (44) 
CC(C)(C)[Si](C)(C)OCCCc1ccc2cc(C(N)=O)n(C(=O)[O-])c2c1

>  <Energy>  (44) 
70.01433249045198

>  <Genealogy>  (44) 
CC(C)(C)[Si](C)(C)OCCCc1ccc2cc(C(N)=O)n(C(=O)[O-])c2c1 (protonated)
CC(C)(C)[Si](C)(C)OCCCc1ccc2cc(C(N)=O)n(C(=O)[O-])c2c1 (3D coordinates assigned)
CC(C)(C)[Si](C)(C)OCCCc1ccc2cc(C(N)=O)n(C(=O)[O-])c2c1 (optimized conformer: 70.01433249045198 kcal/mol)

>  <smiles>  (44) 
CC(C)(C)[Si](C)(C)OCCCc1ccc2cc(C(N)=O)n(C(=O)O)c2c1

>  <score_type>  (44) 
oracle

>  <origin>  (44) 
adg

>  <m_score__min__energy>  (44) 
-7.96

>  <m_primary>  (44) 
energy

$$$$
45:0
     RDKit          3D

 50 51  0  0  0  0  0  0  0  0999 V2000
  142.4080  157.7960  139.8450 C   0  0  0  0  0  0  0  0  0  0  0  0
  141.8450  156.4090  139.7550 C   0  0  0  0  0  0  0  0  0  0  0  0
  141.0800  155.8840  140.8260 C   0  0  0  0  0  0  0  0  0  0  0  0
  140.5130  154.6000  140.7390 C   0  0  0  0  0  0  0  0  0  0  0  0
  140.7260  153.8720  139.5720 C   0  0  0  0  0  0  0  0  0  0  0  0
  140.2800  152.6200  139.2190 C   0  0  0  0  0  0  0  0  0  0  0  0
  140.7860  152.3950  137.9400 C   0  0  0  0  0  0  0  0  0  0  0  0
  140.6260  151.1180  137.2180 C   0  0  0  0  0  0  0  0  0  0  0  0
  140.9870  151.0300  135.8400 N   0  0  0  0  0  0  0  0  0  0  0  0
  140.1360  150.1120  137.7940 O   0  0  0  0  0  0  0  0  0  0  0  0
  141.5090  153.4720  137.5150 N   0  0  0  0  0  0  0  0  0  0  0  0
  142.1420  153.6540  136.2390 C   0  0  0  0  0  0  0  0  0  0  0  0
  143.1920  153.0130  135.9640 O   0  0  0  0  0  0  0  0  0  0  0  0
  141.6240  154.5780  135.3260 O   0  0  0  0  0  0  0  0  0  0  0  0
  141.0070  154.1890  134.1020 C   0  0  0  0  0  0  0  0  0  0  0  0
  141.6930  153.0740  133.5380 O   0  0  0  0  0  0  0  0  0  0  0  0
  141.0260  151.9660  133.0070 C   0  0  0  0  0  0  0  0  0  0  0  0
  139.8300  152.0770  132.6220 O   0  0  0  0  0  0  0  0  0  0  0  0
  141.7040  150.7020  132.8860 N   0  0  0  0  0  0  0  0  0  0  0  0
  143.1520  150.6830  132.6600 C   0  0  0  0  0  0  0  0  0  0  0  0
  140.9570  149.4400  132.9060 C   0  0  0  0  0  0  0  0  0  0  0  0
  140.8040  148.8770  131.4880 C   0  0  0  0  0  0  0  0  0  0  0  0
  139.4670  148.2700  131.3090 N   0  0  0  0  0  0  0  0  0  0  0  0
  139.4870  147.2730  130.2230 C   0  0  0  0  0  0  0  0  0  0  0  0
  138.4610  149.3010  131.0110 C   0  0  0  0  0  0  0  0  0  0  0  0
  141.4660  154.3650  138.5270 C   0  0  0  0  0  0  0  0  0  0  0  0
  142.0250  155.6490  138.5790 C   0  0  0  0  0  0  0  0  0  0  0  0
  142.5223  158.0775  140.9022 H   0  0  0  0  0  0  0  0  0  0  0  0
  143.3896  157.8262  139.3494 H   0  0  0  0  0  0  0  0  0  0  0  0
  141.7252  158.5018  139.3494 H   0  0  0  0  0  0  0  0  0  0  0  0
  140.9282  156.4863  141.7338 H   0  0  0  0  0  0  0  0  0  0  0  0
  139.9200  154.1842  141.5669 H   0  0  0  0  0  0  0  0  0  0  0  0
  139.6564  151.9405  139.8186 H   0  0  0  0  0  0  0  0  0  0  0  0
  141.4270  151.8360  135.3490 H   0  0  0  0  0  0  0  0  0  0  0  0
  139.9600  153.9120  134.2947 H   0  0  0  0  0  0  0  0  0  0  0  0
  141.0485  155.0310  133.3954 H   0  0  0  0  0  0  0  0  0  0  0  0
  143.6741  150.6761  133.6282 H   0  0  0  0  0  0  0  0  0  0  0  0
  143.4225  149.7812  132.0911 H   0  0  0  0  0  0  0  0  0  0  0  0
  143.4461  151.5774  132.0911 H   0  0  0  0  0  0  0  0  0  0  0  0
  141.4972  148.7107  133.5275 H   0  0  0  0  0  0  0  0  0  0  0  0
  139.9559  149.6287  133.3210 H   0  0  0  0  0  0  0  0  0  0  0  0
  140.9312  149.6918  130.7601 H   0  0  0  0  0  0  0  0  0  0  0  0
  141.5687  148.1021  131.3302 H   0  0  0  0  0  0  0  0  0  0  0  0
  139.5073  146.2613  130.6544 H   0  0  0  0  0  0  0  0  0  0  0  0
  138.5863  147.3889  129.6022 H   0  0  0  0  0  0  0  0  0  0  0  0
  140.3823  147.4249  129.6022 H   0  0  0  0  0  0  0  0  0  0  0  0
  138.0635  149.7084  131.9523 H   0  0  0  0  0  0  0  0  0  0  0  0
  138.9264  150.1100  130.4289 H   0  0  0  0  0  0  0  0  0  0  0  0
  137.6408  148.8556  130.4289 H   0  0  0  0  0  0  0  0  0  0  0  0
  142.5892  156.0540  137.7260 H   0  0  0  0  0  0  0  0  0  0  0  0
  1  2  1  0
  2  3  2  0
  3  4  1  0
  4  5  2  0
  5  6  1  0
  6  7  2  0
  7  8  1  0
  8  9  1  0
  8 10  2  0
  7 11  1  0
 11 12  1  0
 12 13  2  0
 12 14  1  0
 14 15  1  0
 15 16  1  0
 16 17  1  0
 17 18  2  0
 17 19  1  0
 19 20  1  0
 19 21  1  0
 21 22  1  0
 22 23  1  0
 23 24  1  0
 23 25  1  0
 11 26  1  0
 26 27  2  0
 27  2  1  0
 26  5  1  0
  1 28  1  0
  1 29  1  0
  1 30  1  0
  3 31  1  0
  4 32  1  0
  6 33  1  0
  9 34  1  0
 15 35  1  0
 15 36  1  0
 20 37  1  0
 20 38  1  0
 20 39  1  0
 21 40  1  0
 21 41  1  0
 22 42  1  0
 22 43  1  0
 24 44  1  0
 24 45  1  0
 24 46  1  0
 25 47  1  0
 25 48  1  0
 25 49  1  0
 27 50  1  0
M  CHG  1   9  -1
M  END
>  <UniqueID>  (45) 
45

>  <SMILES>  (45) 
Cc1ccc2cc(C([NH-])=O)n(C(=O)OCOC(=O)N(C)CCN(C)C)c2c1

>  <Energy>  (45) 
78.75947855212453

>  <Genealogy>  (45) 
Cc1ccc2cc(C([NH-])=O)n(C(=O)OCOC(=O)N(C)CCN(C)C)c2c1 (protonated)
Cc1ccc2cc(C([NH-])=O)n(C(=O)OCOC(=O)N(C)CCN(C)C)c2c1 (3D coordinates assigned)
Cc1ccc2cc(C([NH-])=O)n(C(=O)OCOC(=O)N(C)CCN(C)C)c2c1 (optimized conformer: 78.75947855212453 kcal/mol)

>  <smiles>  (45) 
Cc1ccc2cc(C(N)=O)n(C(=O)OCOC(=O)N(C)CCN(C)C)c2c1

>  <score_type>  (45) 
oracle

>  <origin>  (45) 
adg

>  <m_score__min__energy>  (45) 
-6.8399999999999999

>  <m_primary>  (45) 
energy

$$$$
46:0
     RDKit          3D

 39 42  0  0  0  0  0  0  0  0999 V2000
  142.8330  160.1450  133.2110 N   0  0  0  0  0  0  0  0  0  0  0  0
  144.1600  160.3530  133.6940 C   0  0  0  0  0  0  0  0  0  0  0  0
  144.4490  161.4450  134.2540 O   0  0  0  0  0  0  0  0  0  0  0  0
  145.2170  159.3420  133.4900 C   0  0  0  0  0  0  0  0  0  0  0  0
  146.5340  159.6640  133.1760 C   0  0  0  0  0  0  0  0  0  0  0  0
  147.1730  158.4570  133.0090 C   0  0  0  0  0  0  0  0  0  0  0  0
  148.5030  158.1860  132.7010 C   0  0  0  0  0  0  0  0  0  0  0  0
  148.9000  156.8400  132.6300 C   0  0  0  0  0  0  0  0  0  0  0  0
  147.9710  155.8030  132.8760 C   0  0  0  0  0  0  0  0  0  0  0  0
  148.3920  154.4400  132.8150 N   0  0  0  0  0  0  0  0  0  0  0  0
  149.6320  153.6940  132.5110 C   0  0  0  0  0  0  0  0  0  0  0  0
  149.0450  152.3310  132.7170 C   0  0  0  0  0  0  0  0  0  0  0  0
  148.9910  151.4140  131.5300 C   0  0  0  0  0  0  0  0  0  0  0  0
  148.8850  150.0570  132.2020 C   0  0  0  0  0  0  0  0  0  0  0  0
  149.4090  150.1230  133.5140 O   0  0  0  0  0  0  0  0  0  0  0  0
  149.6140  151.4810  133.8410 C   0  0  0  0  0  0  0  0  0  0  0  0
  147.7920  153.1050  133.0250 C   0  0  0  0  0  0  0  0  0  0  0  0
  146.6310  156.1120  133.1880 C   0  0  0  0  0  0  0  0  0  0  0  0
  146.2550  157.4610  133.2300 C   0  0  0  0  0  0  0  0  0  0  0  0
  145.0460  157.9890  133.5310 N   0  0  0  0  0  0  0  0  0  0  0  0
  143.8680  157.2680  133.9300 C   0  0  0  0  0  0  0  0  0  0  0  0
  142.7810  157.4350  133.3160 O   0  0  0  0  0  0  0  0  0  0  0  0
  143.9130  156.3810  134.9980 O   0  0  0  0  0  0  0  0  0  0  0  0
  142.0900  160.8530  133.3970 H   0  0  0  0  0  0  0  0  0  0  0  0
  142.6050  159.3310  132.5970 H   0  0  0  0  0  0  0  0  0  0  0  0
  146.9709  160.6691  133.0815 H   0  0  0  0  0  0  0  0  0  0  0  0
  149.2205  158.9997  132.5190 H   0  0  0  0  0  0  0  0  0  0  0  0
  149.9421  156.5910  132.3810 H   0  0  0  0  0  0  0  0  0  0  0  0
  149.9836  153.8547  131.4812 H   0  0  0  0  0  0  0  0  0  0  0  0
  150.5286  153.9491  133.0949 H   0  0  0  0  0  0  0  0  0  0  0  0
  148.1123  151.6212  130.9016 H   0  0  0  0  0  0  0  0  0  0  0  0
  149.8485  151.5115  130.8480 H   0  0  0  0  0  0  0  0  0  0  0  0
  147.8283  149.7546  132.2469 H   0  0  0  0  0  0  0  0  0  0  0  0
  149.4601  149.3211  131.6208 H   0  0  0  0  0  0  0  0  0  0  0  0
  149.1003  151.7186  134.7842 H   0  0  0  0  0  0  0  0  0  0  0  0
  150.6880  151.6842  133.9648 H   0  0  0  0  0  0  0  0  0  0  0  0
  146.9738  152.8896  132.3220 H   0  0  0  0  0  0  0  0  0  0  0  0
  147.3060  152.9157  133.9935 H   0  0  0  0  0  0  0  0  0  0  0  0
  145.9006  155.3154  133.3929 H   0  0  0  0  0  0  0  0  0  0  0  0
  1  2  1  0
  2  3  2  0
  2  4  1  0
  4  5  2  0
  5  6  1  0
  6  7  2  0
  7  8  1  0
  8  9  2  0
  9 10  1  0
 10 11  1  0
 11 12  1  0
 12 13  1  0
 13 14  1  0
 14 15  1  0
 15 16  1  0
 12 17  1  0
  9 18  1  0
 18 19  2  0
 19 20  1  0
 20 21  1  0
 21 22  2  0
 21 23  1  0
 20  4  1  0
 19  6  1  0
 17 10  1  0
 16 12  1  0
  1 24  1  0
  1 25  1  0
  5 26  1  0
  7 27  1  0
  8 28  1  0
 11 29  1  0
 11 30  1  0
 13 31  1  0
 13 32  1  0
 14 33  1  0
 14 34  1  0
 16 35  1  0
 16 36  1  0
 17 37  1  0
 17 38  1  0
 18 39  1  0
M  CHG  1  23  -1
M  END
>  <UniqueID>  (46) 
46

>  <SMILES>  (46) 
NC(=O)c1cc2ccc(N3CC4(CCOC4)C3)cc2n1C(=O)[O-]

>  <Energy>  (46) 
132.4615755936935

>  <Genealogy>  (46) 
NC(=O)c1cc2ccc(N3CC4(CCOC4)C3)cc2n1C(=O)[O-] (protonated)
NC(=O)c1cc2ccc(N3CC4(CCOC4)C3)cc2n1C(=O)[O-] (3D coordinates assigned)
NC(=O)c1cc2ccc(N3CC4(CCOC4)C3)cc2n1C(=O)[O-] (nonaromatic ring conformer: 132.4615755936935 kcal/mol)

>  <smiles>  (46) 
NC(=O)c1cc2ccc(N3CC4(CCOC4)C3)cc2n1C(=O)O

>  <score_type>  (46) 
oracle

>  <origin>  (46) 
adg

>  <m_score__min__energy>  (46) 
-7.4500000000000002

>  <m_primary>  (46) 
energy

$$$$
47:0
     RDKit          3D

 39 40  0  0  0  0  0  0  0  0999 V2000
  140.2550  156.8550  133.4690 C   0  0  0  0  0  0  0  0  0  0  0  0
  141.0780  157.9180  132.8840 N   0  0  0  0  0  0  0  0  0  0  0  0
  140.4460  159.0130  132.1270 C   0  0  0  0  0  0  0  0  0  0  0  0
  139.0000  158.6580  131.7700 C   0  0  0  0  0  0  0  0  0  0  0  0
  138.3870  159.7310  130.9250 C   0  0  0  0  0  0  0  0  0  0  0  0
  137.1480  159.9470  130.9780 O   0  0  0  0  0  0  0  0  0  0  0  0
  139.1770  160.4580  130.0430 O   0  0  0  0  0  0  0  0  0  0  0  0
  142.5130  157.7870  132.9530 C   0  0  0  0  0  0  0  0  0  0  0  0
  143.1140  157.1280  132.0620 O   0  0  0  0  0  0  0  0  0  0  0  0
  143.3030  158.4130  134.0320 C   0  0  0  0  0  0  0  0  0  0  0  0
  142.8530  158.4670  135.2070 O   0  0  0  0  0  0  0  0  0  0  0  0
  144.5890  158.9810  133.7510 N   0  0  0  0  0  0  0  0  0  0  0  0
  144.9250  160.2960  133.6540 C   0  0  0  0  0  0  0  0  0  0  0  0
  143.9830  161.4320  133.7330 C   0  0  0  0  0  0  0  0  0  0  0  0
  142.5790  161.1890  133.7840 N   0  0  0  0  0  0  0  0  0  0  0  0
  144.4060  162.6170  133.7750 O   0  0  0  0  0  0  0  0  0  0  0  0
  146.2910  160.4310  133.4080 C   0  0  0  0  0  0  0  0  0  0  0  0
  146.7790  159.1430  133.3500 C   0  0  0  0  0  0  0  0  0  0  0  0
  148.0710  158.6810  133.1200 C   0  0  0  0  0  0  0  0  0  0  0  0
  148.2810  157.2910  133.1160 C   0  0  0  0  0  0  0  0  0  0  0  0
  147.2090  156.3920  133.3570 C   0  0  0  0  0  0  0  0  0  0  0  0
  147.4370  154.9020  133.3060 C   0  0  0  0  0  0  0  0  0  0  0  0
  148.6450  154.6140  132.6960 F   0  0  0  0  0  0  0  0  0  0  0  0
  147.4580  154.3680  134.5830 F   0  0  0  0  0  0  0  0  0  0  0  0
  146.4170  154.3110  132.5860 F   0  0  0  0  0  0  0  0  0  0  0  0
  145.9060  156.9020  133.5600 C   0  0  0  0  0  0  0  0  0  0  0  0
  145.7290  158.2890  133.5560 C   0  0  0  0  0  0  0  0  0  0  0  0
  140.3025  156.9164  134.5663 H   0  0  0  0  0  0  0  0  0  0  0  0
  139.2123  156.9754  133.1398 H   0  0  0  0  0  0  0  0  0  0  0  0
  140.6327  155.8757  133.1398 H   0  0  0  0  0  0  0  0  0  0  0  0
  140.4531  159.9268  132.7394 H   0  0  0  0  0  0  0  0  0  0  0  0
  141.0114  159.1732  131.1971 H   0  0  0  0  0  0  0  0  0  0  0  0
  138.9875  157.7088  131.2142 H   0  0  0  0  0  0  0  0  0  0  0  0
  138.4186  158.5628  132.6990 H   0  0  0  0  0  0  0  0  0  0  0  0
  142.1960  160.3590  134.2910 H   0  0  0  0  0  0  0  0  0  0  0  0
  146.8581  161.3657  133.2862 H   0  0  0  0  0  0  0  0  0  0  0  0
  148.9017  159.3810  132.9468 H   0  0  0  0  0  0  0  0  0  0  0  0
  149.2890  156.8948  132.9237 H   0  0  0  0  0  0  0  0  0  0  0  0
  145.0534  156.2250  133.7171 H   0  0  0  0  0  0  0  0  0  0  0  0
  1  2  1  0
  2  3  1  0
  3  4  1  0
  4  5  1  0
  5  6  2  0
  5  7  1  0
  2  8  1  0
  8  9  2  0
  8 10  1  0
 10 11  2  0
 10 12  1  0
 12 13  1  0
 13 14  1  0
 14 15  1  0
 14 16  2  0
 13 17  2  0
 17 18  1  0
 18 19  2  0
 19 20  1  0
 20 21  2  0
 21 22  1  0
 22 23  1  0
 22 24  1  0
 22 25  1  0
 21 26  1  0
 26 27  2  0
 27 12  1  0
 27 18  1  0
  1 28  1  0
  1 29  1  0
  1 30  1  0
  3 31  1  0
  3 32  1  0
  4 33  1  0
  4 34  1  0
 15 35  1  0
 17 36  1  0
 19 37  1  0
 20 38  1  0
 26 39  1  0
M  CHG  2   7  -1  15  -1
M  END
>  <UniqueID>  (47) 
47

>  <SMILES>  (47) 
CN(CCC(=O)[O-])C(=O)C(=O)n1c(C([NH-])=O)cc2ccc(C(F)(F)F)cc21

>  <Energy>  (47) 
77.50035084595831

>  <Genealogy>  (47) 
CN(CCC(=O)[O-])C(=O)C(=O)n1c(C([NH-])=O)cc2ccc(C(F)(F)F)cc21 (protonated)
CN(CCC(=O)[O-])C(=O)C(=O)n1c(C([NH-])=O)cc2ccc(C(F)(F)F)cc21 (3D coordinates assigned)
CN(CCC(=O)[O-])C(=O)C(=O)n1c(C([NH-])=O)cc2ccc(C(F)(F)F)cc21 (optimized conformer: 77.50035084595831 kcal/mol)

>  <smiles>  (47) 
CN(CCC(=O)O)C(=O)C(=O)n1c(C(N)=O)cc2ccc(C(F)(F)F)cc21

>  <score_type>  (47) 
oracle

>  <origin>  (47) 
adg

>  <m_score__min__energy>  (47) 
-6.5999999999999996

>  <m_primary>  (47) 
energy

$$$$
49:0
     RDKit          3D

 39 40  0  0  0  0  0  0  0  0999 V2000
  148.9270  161.7350  130.6810 C   0  0  0  0  0  0  0  0  0  0  0  0
  149.4190  160.8590  129.6900 O   0  0  0  0  0  0  0  0  0  0  0  0
  149.9350  159.6810  130.2840 C   0  0  0  0  0  0  0  0  0  0  0  0
  148.9830  159.1580  131.3560 C   0  0  0  0  0  0  0  0  0  0  0  0
  149.4490  159.5520  132.6310 O   0  0  0  0  0  0  0  0  0  0  0  0
  148.7960  158.8020  133.6360 C   0  0  0  0  0  0  0  0  0  0  0  0
  147.3800  158.8980  133.4920 O   0  0  0  0  0  0  0  0  0  0  0  0
  146.7010  160.1210  133.4590 C   0  0  0  0  0  0  0  0  0  0  0  0
  147.3390  161.1990  133.3150 O   0  0  0  0  0  0  0  0  0  0  0  0
  145.2730  160.1460  133.6120 N   0  0  0  0  0  0  0  0  0  0  0  0
  144.4830  161.2060  133.9440 C   0  0  0  0  0  0  0  0  0  0  0  0
  144.9270  162.6070  134.1060 C   0  0  0  0  0  0  0  0  0  0  0  0
  145.9920  162.9150  135.0030 N   0  0  0  0  0  0  0  0  0  0  0  0
  144.3560  163.5420  133.4860 O   0  0  0  0  0  0  0  0  0  0  0  0
  143.1500  160.8090  134.0390 C   0  0  0  0  0  0  0  0  0  0  0  0
  143.1460  159.4660  133.7420 C   0  0  0  0  0  0  0  0  0  0  0  0
  142.0910  158.5610  133.7060 C   0  0  0  0  0  0  0  0  0  0  0  0
  142.3800  157.2220  133.4000 C   0  0  0  0  0  0  0  0  0  0  0  0
  143.7120  156.8120  133.1250 C   0  0  0  0  0  0  0  0  0  0  0  0
  144.0190  155.3600  132.8590 C   0  0  0  0  0  0  0  0  0  0  0  0
  144.3380  155.1650  131.5270 F   0  0  0  0  0  0  0  0  0  0  0  0
  145.0900  154.9710  133.6410 F   0  0  0  0  0  0  0  0  0  0  0  0
  142.9260  154.5660  133.1630 F   0  0  0  0  0  0  0  0  0  0  0  0
  144.7600  157.7590  133.1970 C   0  0  0  0  0  0  0  0  0  0  0  0
  144.4390  159.0900  133.4860 C   0  0  0  0  0  0  0  0  0  0  0  0
  149.1558  161.3276  131.6768 H   0  0  0  0  0  0  0  0  0  0  0  0
  149.4039  162.7199  130.5693 H   0  0  0  0  0  0  0  0  0  0  0  0
  147.8378  161.8403  130.5693 H   0  0  0  0  0  0  0  0  0  0  0  0
  150.0637  158.9116  129.5084 H   0  0  0  0  0  0  0  0  0  0  0  0
  150.9023  159.9148  130.7526 H   0  0  0  0  0  0  0  0  0  0  0  0
  147.9781  159.5728  131.1883 H   0  0  0  0  0  0  0  0  0  0  0  0
  148.9391  158.0601  131.3042 H   0  0  0  0  0  0  0  0  0  0  0  0
  149.0973  157.7473  133.5537 H   0  0  0  0  0  0  0  0  0  0  0  0
  149.0810  159.2027  134.6200 H   0  0  0  0  0  0  0  0  0  0  0  0
  146.9880  162.8020  134.7130 H   0  0  0  0  0  0  0  0  0  0  0  0
  142.2845  161.4370  134.2969 H   0  0  0  0  0  0  0  0  0  0  0  0
  141.0600  158.8850  133.9113 H   0  0  0  0  0  0  0  0  0  0  0  0
  141.5664  156.4822  133.3728 H   0  0  0  0  0  0  0  0  0  0  0  0
  145.8041  157.4560  133.0296 H   0  0  0  0  0  0  0  0  0  0  0  0
  1  2  1  0
  2  3  1  0
  3  4  1  0
  4  5  1  0
  5  6  1  0
  6  7  1  0
  7  8  1  0
  8  9  2  0
  8 10  1  0
 10 11  1  0
 11 12  1  0
 12 13  1  0
 12 14  2  0
 11 15  2  0
 15 16  1  0
 16 17  2  0
 17 18  1  0
 18 19  2  0
 19 20  1  0
 20 21  1  0
 20 22  1  0
 20 23  1  0
 19 24  1  0
 24 25  2  0
 25 10  1  0
 25 16  1  0
  1 26  1  0
  1 27  1  0
  1 28  1  0
  3 29  1  0
  3 30  1  0
  4 31  1  0
  4 32  1  0
  6 33  1  0
  6 34  1  0
 13 35  1  0
 15 36  1  0
 17 37  1  0
 18 38  1  0
 24 39  1  0
M  CHG  1  13  -1
M  END
>  <UniqueID>  (48) 
48

>  <SMILES>  (48) 
COCCOCOC(=O)n1c(C([NH-])=O)cc2ccc(C(F)(F)F)cc21

>  <Energy>  (48) 
77.37735234926463

>  <Genealogy>  (48) 
COCCOCOC(=O)n1c(C([NH-])=O)cc2ccc(C(F)(F)F)cc21 (protonated)
COCCOCOC(=O)n1c(C([NH-])=O)cc2ccc(C(F)(F)F)cc21 (3D coordinates assigned)
COCCOCOC(=O)n1c(C([NH-])=O)cc2ccc(C(F)(F)F)cc21 (optimized conformer: 77.37735234926463 kcal/mol)

>  <smiles>  (48) 
COCCOCOC(=O)n1c(C(N)=O)cc2ccc(C(F)(F)F)cc21

>  <score_type>  (48) 
oracle

>  <origin>  (48) 
adg

>  <m_score__min__energy>  (48) 
-5.54

>  <m_primary>  (48) 
energy

$$$$
50:0
     RDKit          3D

 34 35  0  0  0  0  0  0  0  0999 V2000
  148.1030  156.3660  134.8290 C   0  0  0  0  0  0  0  0  0  0  0  0
  148.0710  155.8860  133.3660 C   0  0  0  0  0  0  0  0  0  0  0  0
  148.1230  154.3480  133.3460 C   0  0  0  0  0  0  0  0  0  0  0  0
  149.2610  156.4000  132.6740 N   0  0  0  0  0  0  0  0  0  0  0  0
  146.7830  156.3580  132.6990 C   0  0  0  0  0  0  0  0  0  0  0  0
  146.1930  155.6030  131.8810 O   0  0  0  0  0  0  0  0  0  0  0  0
  146.2400  157.6640  132.9520 N   0  0  0  0  0  0  0  0  0  0  0  0
  146.9180  158.8410  133.0410 C   0  0  0  0  0  0  0  0  0  0  0  0
  148.3720  159.0150  132.8480 C   0  0  0  0  0  0  0  0  0  0  0  0
  148.9550  158.7690  131.5710 N   0  0  0  0  0  0  0  0  0  0  0  0
  149.1120  159.3610  133.8070 O   0  0  0  0  0  0  0  0  0  0  0  0
  146.0400  159.8880  133.3150 C   0  0  0  0  0  0  0  0  0  0  0  0
  144.7900  159.3110  133.3710 C   0  0  0  0  0  0  0  0  0  0  0  0
  143.5420  159.8870  133.5890 C   0  0  0  0  0  0  0  0  0  0  0  0
  142.4150  159.0460  133.5650 C   0  0  0  0  0  0  0  0  0  0  0  0
  142.5570  157.6590  133.3180 C   0  0  0  0  0  0  0  0  0  0  0  0
  141.4030  156.8150  133.2890 N   0  0  0  0  0  0  0  0  0  0  0  0
  143.8380  157.1100  133.0970 C   0  0  0  0  0  0  0  0  0  0  0  0
  144.9400  157.9680  133.1390 C   0  0  0  0  0  0  0  0  0  0  0  0
  148.0451  155.4973  135.5013 H   0  0  0  0  0  0  0  0  0  0  0  0
  149.0395  156.9120  135.0153 H   0  0  0  0  0  0  0  0  0  0  0  0
  147.2472  157.0315  135.0153 H   0  0  0  0  0  0  0  0  0  0  0  0
  148.1358  153.9681  134.3782 H   0  0  0  0  0  0  0  0  0  0  0  0
  147.2375  153.9580  132.8227 H   0  0  0  0  0  0  0  0  0  0  0  0
  149.0328  154.0187  132.8227 H   0  0  0  0  0  0  0  0  0  0  0  0
  149.5740  157.2940  133.1180 H   0  0  0  0  0  0  0  0  0  0  0  0
  149.0310  156.6050  131.6740 H   0  0  0  0  0  0  0  0  0  0  0  0
  148.8760  157.8330  131.1150 H   0  0  0  0  0  0  0  0  0  0  0  0
  146.2914  160.9495  133.4565 H   0  0  0  0  0  0  0  0  0  0  0  0
  143.4402  160.9665  133.7743 H   0  0  0  0  0  0  0  0  0  0  0  0
  141.4148  159.4693  133.7396 H   0  0  0  0  0  0  0  0  0  0  0  0
  140.6270  156.9470  133.9750 H   0  0  0  0  0  0  0  0  0  0  0  0
  141.3160  156.0550  132.5790 H   0  0  0  0  0  0  0  0  0  0  0  0
  143.9655  156.0359  132.8971 H   0  0  0  0  0  0  0  0  0  0  0  0
  1  2  1  0
  2  3  1  0
  2  4  1  0
  2  5  1  0
  5  6  2  0
  5  7  1  0
  7  8  1  0
  8  9  1  0
  9 10  1  0
  9 11  2  0
  8 12  2  0
 12 13  1  0
 13 14  2  0
 14 15  1  0
 15 16  2  0
 16 17  1  0
 16 18  1  0
 18 19  2  0
 19  7  1  0
 19 13  1  0
  1 20  1  0
  1 21  1  0
  1 22  1  0
  3 23  1  0
  3 24  1  0
  3 25  1  0
  4 26  1  0
  4 27  1  0
 10 28  1  0
 12 29  1  0
 14 30  1  0
 15 31  1  0
 17 32  1  0
 17 33  1  0
 18 34  1  0
M  CHG  1  10  -1
M  END
>  <UniqueID>  (49) 
49

>  <SMILES>  (49) 
CC(C)(N)C(=O)n1c(C([NH-])=O)cc2ccc(N)cc21

>  <Energy>  (49) 
71.21012222818914

>  <Genealogy>  (49) 
CC(C)(N)C(=O)n1c(C([NH-])=O)cc2ccc(N)cc21 (protonated)
CC(C)(N)C(=O)n1c(C([NH-])=O)cc2ccc(N)cc21 (3D coordinates assigned)
CC(C)(N)C(=O)n1c(C([NH-])=O)cc2ccc(N)cc21 (optimized conformer: 71.21012222818914 kcal/mol)

>  <smiles>  (49) 
CC(C)(N)C(=O)n1c(C(N)=O)cc2ccc(N)cc21

>  <score_type>  (49) 
oracle

>  <origin>  (49) 
adg

>  <m_score__min__energy>  (49) 
-6.1799999999999997

>  <m_primary>  (49) 
energy

$$$$
51:0
     RDKit          3D

 40 41  0  0  0  0  0  0  0  0999 V2000
  148.9180  153.2670  137.7890 C   0  0  0  0  0  0  0  0  0  0  0  0
  148.0980  154.1010  136.8110 C   0  0  0  0  0  0  0  0  0  0  0  0
  146.9700  153.3630  136.3460 O   0  0  0  0  0  0  0  0  0  0  0  0
  145.6720  153.5540  136.8330 C   0  0  0  0  0  0  0  0  0  0  0  0
  145.3480  153.1500  137.9820 O   0  0  0  0  0  0  0  0  0  0  0  0
  144.6590  154.2390  135.9720 C   0  0  1  0  0  0  0  0  0  0  0  0
  143.7310  154.8670  136.7830 F   0  0  0  0  0  0  0  0  0  0  0  0
  145.2910  155.2180  135.1490 O   0  0  0  0  0  0  0  0  0  0  0  0
  145.7860  154.9420  133.8690 C   0  0  0  0  0  0  0  0  0  0  0  0
  145.2540  154.0440  133.1610 O   0  0  0  0  0  0  0  0  0  0  0  0
  146.8940  155.7000  133.3540 N   0  0  0  0  0  0  0  0  0  0  0  0
  148.1330  155.2360  133.0270 C   0  0  0  0  0  0  0  0  0  0  0  0
  148.5380  153.8130  132.9930 C   0  0  0  0  0  0  0  0  0  0  0  0
  147.7920  152.8240  133.7060 N   0  0  0  0  0  0  0  0  0  0  0  0
  149.5670  153.4650  132.3570 O   0  0  0  0  0  0  0  0  0  0  0  0
  148.9590  156.2870  132.6310 C   0  0  0  0  0  0  0  0  0  0  0  0
  148.1800  157.4180  132.7230 C   0  0  0  0  0  0  0  0  0  0  0  0
  148.4980  158.7450  132.4580 C   0  0  0  0  0  0  0  0  0  0  0  0
  147.5040  159.7140  132.6650 C   0  0  0  0  0  0  0  0  0  0  0  0
  146.2190  159.3490  133.1370 C   0  0  0  0  0  0  0  0  0  0  0  0
  145.2330  160.3760  133.3450 N   0  0  0  0  0  0  0  0  0  0  0  0
  143.9750  160.1550  134.0520 C   0  0  0  0  0  0  0  0  0  0  0  0
  145.9330  157.9850  133.3960 C   0  0  0  0  0  0  0  0  0  0  0  0
  146.9390  157.0380  133.1620 C   0  0  0  0  0  0  0  0  0  0  0  0
  148.6488  153.5408  138.8198 H   0  0  0  0  0  0  0  0  0  0  0  0
  148.7080  152.1995  137.6264 H   0  0  0  0  0  0  0  0  0  0  0  0
  149.9889  153.4589  137.6264 H   0  0  0  0  0  0  0  0  0  0  0  0
  147.7496  155.0133  137.3173 H   0  0  0  0  0  0  0  0  0  0  0  0
  148.7307  154.3622  135.9499 H   0  0  0  0  0  0  0  0  0  0  0  0
  144.1670  153.4922  135.3315 H   0  0  0  0  0  0  0  0  0  0  0  0
  148.1080  151.8300  133.7050 H   0  0  0  0  0  0  0  0  0  0  0  0
  146.9050  153.0660  134.2010 H   0  0  0  0  0  0  0  0  0  0  0  0
  150.0101  156.2254  132.3126 H   0  0  0  0  0  0  0  0  0  0  0  0
  149.4981  159.0270  132.0971 H   0  0  0  0  0  0  0  0  0  0  0  0
  147.7257  160.7713  132.4579 H   0  0  0  0  0  0  0  0  0  0  0  0
  145.4150  161.3360  132.9720 H   0  0  0  0  0  0  0  0  0  0  0  0
  144.1537  160.1864  135.1369 H   0  0  0  0  0  0  0  0  0  0  0  0
  143.2563  160.9406  133.7759 H   0  0  0  0  0  0  0  0  0  0  0  0
  143.5671  159.1714  133.7759 H   0  0  0  0  0  0  0  0  0  0  0  0
  144.9458  157.6775  133.7714 H   0  0  0  0  0  0  0  0  0  0  0  0
  1  2  1  0
  2  3  1  0
  3  4  1  0
  4  5  2  0
  4  6  1  0
  6  7  1  0
  6  8  1  0
  8  9  1  0
  9 10  2  0
  9 11  1  0
 11 12  1  0
 12 13  1  0
 13 14  1  0
 13 15  2  0
 12 16  2  0
 16 17  1  0
 17 18  2  0
 18 19  1  0
 19 20  2  0
 20 21  1  0
 21 22  1  0
 20 23  1  0
 23 24  2  0
 24 11  1  0
 24 17  1  0
  1 25  1  0
  1 26  1  0
  1 27  1  0
  2 28  1  0
  2 29  1  0
  6 30  1  6
 14 31  1  0
 14 32  1  0
 16 33  1  0
 18 34  1  0
 19 35  1  0
 21 36  1  0
 22 37  1  0
 22 38  1  0
 22 39  1  0
 23 40  1  0
M  END
>  <UniqueID>  (50) 
50

>  <SMILES>  (50) 
CCOC(=O)[C@@H](F)OC(=O)n1c(C(N)=O)cc2ccc(NC)cc21

>  <Energy>  (50) 
69.85053597895136

>  <Genealogy>  (50) 
CCOC(=O)[C@@H](F)OC(=O)n1c(C(N)=O)cc2ccc(NC)cc21 (chirality)
CCOC(=O)[C@@H](F)OC(=O)n1c(C(N)=O)cc2ccc(NC)cc21 (3D coordinates assigned)
CCOC(=O)[C@@H](F)OC(=O)n1c(C(N)=O)cc2ccc(NC)cc21 (optimized conformer: 69.85053597895136 kcal/mol)

>  <smiles>  (50) 
CCOC(=O)C(F)OC(=O)n1c(C(N)=O)cc2ccc(NC)cc21

>  <score_type>  (50) 
oracle

>  <origin>  (50) 
adg

>  <m_score__min__energy>  (50) 
-6.4100000000000001

>  <m_primary>  (50) 
energy

$$$$
52:0
     RDKit          3D

 44 45  0  0  0  0  0  0  0  0999 V2000
  142.6150  150.7850  133.1130 C   0  0  0  0  0  0  0  0  0  0  0  0
  141.3340  151.6270  133.2180 C   0  0  2  0  0  0  0  0  0  0  0  0
  140.1890  151.2080  132.2590 C   0  0  0  0  0  0  0  0  0  0  0  0
  139.8460  149.4040  132.1900 S   0  0  0  0  0  0  0  0  0  0  0  0
  139.1360  149.3650  130.5090 C   0  0  0  0  0  0  0  0  0  0  0  0
  139.1190  147.9660  129.9820 C   0  0  0  0  0  0  0  0  0  0  0  0
  139.4900  147.0090  130.7110 O   0  0  0  0  0  0  0  0  0  0  0  0
  138.6910  147.7170  128.6840 O   0  0  0  0  0  0  0  0  0  0  0  0
  141.6280  153.0750  133.1360 N   0  0  0  0  0  0  0  0  0  0  0  0
  142.8590  153.4830  132.4510 C   0  0  0  0  0  0  0  0  0  0  0  0
  140.6140  154.0780  133.3500 C   0  0  0  0  0  0  0  0  0  0  0  0
  139.4530  153.8950  132.8910 O   0  0  0  0  0  0  0  0  0  0  0  0
  140.8910  155.2810  134.0810 N   0  0  0  0  0  0  0  0  0  0  0  0
  141.6700  155.4360  135.1900 C   0  0  0  0  0  0  0  0  0  0  0  0
  142.4350  154.3740  135.8760 C   0  0  0  0  0  0  0  0  0  0  0  0
  143.8070  154.5540  136.2080 N   0  0  0  0  0  0  0  0  0  0  0  0
  141.8590  153.3020  136.2030 O   0  0  0  0  0  0  0  0  0  0  0  0
  141.7250  156.7800  135.5610 C   0  0  0  0  0  0  0  0  0  0  0  0
  140.9750  157.4500  134.6220 C   0  0  0  0  0  0  0  0  0  0  0  0
  140.6960  158.8060  134.5000 C   0  0  0  0  0  0  0  0  0  0  0  0
  139.8880  159.2180  133.4260 C   0  0  0  0  0  0  0  0  0  0  0  0
  139.3950  158.2770  132.4860 C   0  0  0  0  0  0  0  0  0  0  0  0
  138.4860  158.7230  131.3690 C   0  0  0  0  0  0  0  0  0  0  0  0
  137.2110  158.9680  131.8470 F   0  0  0  0  0  0  0  0  0  0  0  0
  138.4010  157.7480  130.3890 F   0  0  0  0  0  0  0  0  0  0  0  0
  138.9890  159.8820  130.8090 F   0  0  0  0  0  0  0  0  0  0  0  0
  139.6900  156.9040  132.6560 C   0  0  0  0  0  0  0  0  0  0  0  0
  140.4930  156.5240  133.7360 C   0  0  0  0  0  0  0  0  0  0  0  0
  142.9799  150.5452  134.1226 H   0  0  0  0  0  0  0  0  0  0  0  0
  142.3978  149.8530  132.5706 H   0  0  0  0  0  0  0  0  0  0  0  0
  143.3844  151.3541  132.5706 H   0  0  0  0  0  0  0  0  0  0  0  0
  140.9364  151.4103  134.2205 H   0  0  0  0  0  0  0  0  0  0  0  0
  139.2696  151.7169  132.5841 H   0  0  0  0  0  0  0  0  0  0  0  0
  140.5168  151.4950  131.2489 H   0  0  0  0  0  0  0  0  0  0  0  0
  138.1070  149.7526  130.5412 H   0  0  0  0  0  0  0  0  0  0  0  0
  139.7544  149.9881  129.8462 H   0  0  0  0  0  0  0  0  0  0  0  0
  143.6265  153.7374  133.1968 H   0  0  0  0  0  0  0  0  0  0  0  0
  143.2194  152.6563  131.8212 H   0  0  0  0  0  0  0  0  0  0  0  0
  142.6543  154.3613  131.8212 H   0  0  0  0  0  0  0  0  0  0  0  0
  144.0880  154.9640  137.1270 H   0  0  0  0  0  0  0  0  0  0  0  0
  142.2557  157.2124  136.4220 H   0  0  0  0  0  0  0  0  0  0  0  0
  141.0950  159.5342  135.2214 H   0  0  0  0  0  0  0  0  0  0  0  0
  139.6351  160.2826  133.3132 H   0  0  0  0  0  0  0  0  0  0  0  0
  139.2970  156.1528  131.9551 H   0  0  0  0  0  0  0  0  0  0  0  0
  1  2  1  0
  2  3  1  0
  3  4  1  0
  4  5  1  0
  5  6  1  0
  6  7  2  0
  6  8  1  0
  2  9  1  0
  9 10  1  0
  9 11  1  0
 11 12  2  0
 11 13  1  0
 13 14  1  0
 14 15  1  0
 15 16  1  0
 15 17  2  0
 14 18  2  0
 18 19  1  0
 19 20  2  0
 20 21  1  0
 21 22  2  0
 22 23  1  0
 23 24  1  0
 23 25  1  0
 23 26  1  0
 22 27  1  0
 27 28  2  0
 28 13  1  0
 28 19  1  0
  1 29  1  0
  1 30  1  0
  1 31  1  0
  2 32  1  1
  3 33  1  0
  3 34  1  0
  5 35  1  0
  5 36  1  0
 10 37  1  0
 10 38  1  0
 10 39  1  0
 16 40  1  0
 18 41  1  0
 20 42  1  0
 21 43  1  0
 27 44  1  0
M  CHG  2   8  -1  16  -1
M  END
>  <UniqueID>  (51) 
51

>  <SMILES>  (51) 
C[C@H](CSCC(=O)[O-])N(C)C(=O)n1c(C([NH-])=O)cc2ccc(C(F)(F)F)cc21

>  <Energy>  (51) 
84.87140342666389

>  <Genealogy>  (51) 
CC(CSCC(=O)[O-])N(C)C(=O)n1c(C([NH-])=O)cc2ccc(C(F)(F)F)cc21 (protonated)
C[C@H](CSCC(=O)[O-])N(C)C(=O)n1c(C([NH-])=O)cc2ccc(C(F)(F)F)cc21 (chirality)
C[C@H](CSCC(=O)[O-])N(C)C(=O)n1c(C([NH-])=O)cc2ccc(C(F)(F)F)cc21 (3D coordinates assigned)
C[C@H](CSCC(=O)[O-])N(C)C(=O)n1c(C([NH-])=O)cc2ccc(C(F)(F)F)cc21 (optimized conformer: 84.87140342666389 kcal/mol)

>  <smiles>  (51) 
CC(CSCC(=O)O)N(C)C(=O)n1c(C(N)=O)cc2ccc(C(F)(F)F)cc21

>  <score_type>  (51) 
oracle

>  <origin>  (51) 
adg

>  <m_score__min__energy>  (51) 
-7.1299999999999999

>  <m_primary>  (51) 
energy

$$$$
53:0
     RDKit          3D

 32 33  0  0  0  0  0  0  0  0999 V2000
  149.9097  158.1242  131.7193 H   0  0  0  0  0  0  0  0  0  0  0  0
  149.2830  158.9970  131.9550 C   0  0  0  0  0  0  0  0  0  0  0  0
  148.5530  158.9820  133.2400 C   0  0  0  0  0  0  0  0  0  0  0  0
  149.1910  159.2300  134.2990 O   0  0  0  0  0  0  0  0  0  0  0  0
  147.1580  158.6540  133.3240 N   0  0  0  0  0  0  0  0  0  0  0  0
  146.5710  157.4360  133.1440 C   0  0  0  0  0  0  0  0  0  0  0  0
  147.2910  156.1710  132.8790 C   0  0  0  0  0  0  0  0  0  0  0  0
  148.2870  155.8520  133.5810 O   0  0  0  0  0  0  0  0  0  0  0  0
  146.8630  155.2870  131.8410 N   0  0  0  0  0  0  0  0  0  0  0  0
  146.0850  155.5430  131.1940 H   0  0  0  0  0  0  0  0  0  0  0  0
  147.3590  154.3810  131.6880 H   0  0  0  0  0  0  0  0  0  0  0  0
  145.1880  157.5390  133.3000 C   0  0  0  0  0  0  0  0  0  0  0  0
  144.4450  156.7333  133.2057 H   0  0  0  0  0  0  0  0  0  0  0  0
  144.9500  158.8630  133.5970 C   0  0  0  0  0  0  0  0  0  0  0  0
  143.7520  159.5270  133.8410 C   0  0  0  0  0  0  0  0  0  0  0  0
  142.7925  158.9892  133.8300 H   0  0  0  0  0  0  0  0  0  0  0  0
  143.8070  160.9070  134.1020 C   0  0  0  0  0  0  0  0  0  0  0  0
  142.8769  161.4624  134.2927 H   0  0  0  0  0  0  0  0  0  0  0  0
  145.0480  161.5900  134.1220 C   0  0  0  0  0  0  0  0  0  0  0  0
  145.0890  163.0720  134.3560 C   0  0  0  0  0  0  0  0  0  0  0  0
  144.8673  163.2818  135.4128 H   0  0  0  0  0  0  0  0  0  0  0  0
  146.0903  163.4530  134.1064 H   0  0  0  0  0  0  0  0  0  0  0  0
  143.8780  163.8750  133.3260 Cl  0  0  0  0  0  0  0  0  0  0  0  0
  146.2420  160.8840  133.8590 C   0  0  0  0  0  0  0  0  0  0  0  0
  147.2131  161.4007  133.8488 H   0  0  0  0  0  0  0  0  0  0  0  0
  146.1570  159.5110  133.6120 C   0  0  0  0  0  0  0  0  0  0  0  0
  149.2430  159.9900  131.0520 C   0  0  0  0  0  0  0  0  0  0  0  0
  150.2130  159.8280  129.5950 Cl  0  0  0  0  0  0  0  0  0  0  0  0
  148.4920  161.2740  131.2590 C   0  0  0  0  0  0  0  0  0  0  0  0
  148.3808  161.4641  132.3367 H   0  0  0  0  0  0  0  0  0  0  0  0
  149.0478  162.1026  130.7959 H   0  0  0  0  0  0  0  0  0  0  0  0
  147.4973  161.1957  130.7959 H   0  0  0  0  0  0  0  0  0  0  0  0
  1  2  1  0
  2  3  1  0
  3  4  2  0
  3  5  1  0
  5  6  1  0
  6  7  1  0
  7  8  2  0
  7  9  1  0
  9 10  1  0
  9 11  1  0
  6 12  2  0
 12 13  1  0
 12 14  1  0
 14 15  2  0
 15 16  1  0
 15 17  1  0
 17 18  1  0
 17 19  2  0
 19 20  1  0
 20 21  1  0
 20 22  1  0
 20 23  1  0
 19 24  1  0
 24 25  1  0
 24 26  2  0
  2 27  2  0
 27 28  1  0
 27 29  1  0
 29 30  1  0
 29 31  1  0
 29 32  1  0
 26  5  1  0
 26 14  1  0
M  END
>  <UniqueID>  (52) 
52

>  <SMILES>  (52) 
C/C(Cl)=C\C(=O)n1c(C(N)=O)cc2ccc(CCl)cc21

>  <Energy>  (52) 
71.05522284327776

>  <Genealogy>  (52) 
C/C(Cl)=C\C(=O)n1c(C(N)=O)cc2ccc(CCl)cc21 (cis-trans isomerization)
C/C(Cl)=C\C(=O)n1c(C(N)=O)cc2ccc(CCl)cc21 (3D coordinates assigned)
C/C(Cl)=C\C(=O)n1c(C(N)=O)cc2ccc(CCl)cc21 (optimized conformer: 71.05522284327776 kcal/mol)

>  <smiles>  (52) 
CC(Cl)=CC(=O)n1c(C(N)=O)cc2ccc(CCl)cc21

>  <score_type>  (52) 
oracle

>  <origin>  (52) 
adg

>  <m_score__min__energy>  (52) 
-8.0199999999999996

>  <m_primary>  (52) 
energy

$$$$
54:0
     RDKit          3D

 40 41  0  0  0  0  0  0  0  0999 V2000
  149.6390  151.4610  131.3800 C   0  0  0  0  0  0  0  0  0  0  0  0
  149.3970  152.7500  131.8930 O   0  0  0  0  0  0  0  0  0  0  0  0
  149.0220  152.6520  133.2510 C   0  0  0  0  0  0  0  0  0  0  0  0
  148.0740  153.8000  133.5990 C   0  0  0  0  0  0  0  0  0  0  0  0
  147.9840  154.7680  132.5040 N   0  0  0  0  0  0  0  0  0  0  0  0
  147.7720  156.1760  132.7120 C   0  0  0  0  0  0  0  0  0  0  0  0
  148.8750  157.0600  132.6160 C   0  0  0  0  0  0  0  0  0  0  0  0
  148.7110  158.4420  132.8070 C   0  0  0  0  0  0  0  0  0  0  0  0
  147.4340  158.9130  133.0970 C   0  0  0  0  0  0  0  0  0  0  0  0
  146.9920  160.2000  133.3010 C   0  0  0  0  0  0  0  0  0  0  0  0
  145.6230  160.0880  133.5370 C   0  0  0  0  0  0  0  0  0  0  0  0
  144.7520  161.2280  133.8960 C   0  0  0  0  0  0  0  0  0  0  0  0
  143.3300  161.1150  133.8130 N   0  0  0  0  0  0  0  0  0  0  0  0
  145.2610  162.3240  134.2520 O   0  0  0  0  0  0  0  0  0  0  0  0
  145.2350  158.7840  133.4790 N   0  0  0  0  0  0  0  0  0  0  0  0
  143.8980  158.2690  133.5840 C   0  0  0  0  0  0  0  0  0  0  0  0
  143.3580  157.7080  132.5910 O   0  0  0  0  0  0  0  0  0  0  0  0
  143.1940  158.4060  134.7860 O   0  0  0  0  0  0  0  0  0  0  0  0
  141.7840  158.2270  134.8980 C   0  0  0  0  0  0  0  0  0  0  0  0
  141.1150  159.5340  135.1840 C   0  0  0  0  0  0  0  0  0  0  0  0
  140.7150  159.7970  136.3500 O   0  0  0  0  0  0  0  0  0  0  0  0
  140.9790  160.4830  134.1780 O   0  0  0  0  0  0  0  0  0  0  0  0
  146.3560  158.0760  133.2090 C   0  0  0  0  0  0  0  0  0  0  0  0
  146.4870  156.6970  133.0080 C   0  0  0  0  0  0  0  0  0  0  0  0
  149.7717  150.7541  132.2123 H   0  0  0  0  0  0  0  0  0  0  0  0
  148.7844  151.1453  130.7635 H   0  0  0  0  0  0  0  0  0  0  0  0
  150.5499  151.4768  130.7635 H   0  0  0  0  0  0  0  0  0  0  0  0
  148.5143  151.6915  133.4234 H   0  0  0  0  0  0  0  0  0  0  0  0
  149.9187  152.7102  133.8854 H   0  0  0  0  0  0  0  0  0  0  0  0
  147.0728  153.3899  133.7976 H   0  0  0  0  0  0  0  0  0  0  0  0
  148.4668  154.3168  134.4870 H   0  0  0  0  0  0  0  0  0  0  0  0
  148.1050  154.4280  131.5220 H   0  0  0  0  0  0  0  0  0  0  0  0
  149.8736  156.6586  132.3887 H   0  0  0  0  0  0  0  0  0  0  0  0
  149.5654  159.1305  132.7298 H   0  0  0  0  0  0  0  0  0  0  0  0
  147.5919  161.1218  133.2819 H   0  0  0  0  0  0  0  0  0  0  0  0
  142.7260  161.9390  134.0240 H   0  0  0  0  0  0  0  0  0  0  0  0
  142.8720  160.2060  133.5840 H   0  0  0  0  0  0  0  0  0  0  0  0
  141.3941  157.8189  133.9539 H   0  0  0  0  0  0  0  0  0  0  0  0
  141.5765  157.5309  135.7241 H   0  0  0  0  0  0  0  0  0  0  0  0
  145.6130  156.0327  133.0781 H   0  0  0  0  0  0  0  0  0  0  0  0
  1  2  1  0
  2  3  1  0
  3  4  1  0
  4  5  1  0
  5  6  1  0
  6  7  2  0
  7  8  1  0
  8  9  2  0
  9 10  1  0
 10 11  2  0
 11 12  1  0
 12 13  1  0
 12 14  2  0
 11 15  1  0
 15 16  1  0
 16 17  2  0
 16 18  1  0
 18 19  1  0
 19 20  1  0
 20 21  2  0
 20 22  1  0
 15 23  1  0
 23 24  2  0
 24  6  1  0
 23  9  1  0
  1 25  1  0
  1 26  1  0
  1 27  1  0
  3 28  1  0
  3 29  1  0
  4 30  1  0
  4 31  1  0
  5 32  1  0
  7 33  1  0
  8 34  1  0
 10 35  1  0
 13 36  1  0
 13 37  1  0
 19 38  1  0
 19 39  1  0
 24 40  1  0
M  CHG  1  22  -1
M  END
>  <UniqueID>  (53) 
53

>  <SMILES>  (53) 
COCCNc1ccc2cc(C(N)=O)n(C(=O)OCC(=O)[O-])c2c1

>  <Energy>  (53) 
74.21310693409649

>  <Genealogy>  (53) 
COCCNc1ccc2cc(C(N)=O)n(C(=O)OCC(=O)[O-])c2c1 (protonated)
COCCNc1ccc2cc(C(N)=O)n(C(=O)OCC(=O)[O-])c2c1 (3D coordinates assigned)
COCCNc1ccc2cc(C(N)=O)n(C(=O)OCC(=O)[O-])c2c1 (optimized conformer: 74.21310693409649 kcal/mol)

>  <smiles>  (53) 
COCCNc1ccc2cc(C(N)=O)n(C(=O)OCC(=O)O)c2c1

>  <score_type>  (53) 
oracle

>  <origin>  (53) 
adg

>  <m_score__min__energy>  (53) 
-6.5

>  <m_primary>  (53) 
energy

$$$$
55:0
     RDKit          3D

 45 46  0  0  0  0  0  0  0  0999 V2000
  147.7340  154.4150  132.0000 H   0  0  0  0  0  0  0  0  0  0  0  0
  147.9440  155.4120  132.2250 N   0  0  0  0  0  0  0  0  0  0  0  0
  147.5140  155.9920  133.4530 C   0  0  0  0  0  0  0  0  0  0  0  0
  147.9580  155.5360  134.5400 O   0  0  0  0  0  0  0  0  0  0  0  0
  146.5190  157.0840  133.4710 C   0  0  0  0  0  0  0  0  0  0  0  0
  146.8410  158.4200  133.2400 C   0  0  0  0  0  0  0  0  0  0  0  0
  147.8211  158.8300  132.9550 H   0  0  0  0  0  0  0  0  0  0  0  0
  145.6730  159.1170  133.4440 C   0  0  0  0  0  0  0  0  0  0  0  0
  145.4130  160.4810  133.3410 C   0  0  0  0  0  0  0  0  0  0  0  0
  146.2098  161.1919  133.0769 H   0  0  0  0  0  0  0  0  0  0  0  0
  144.1010  160.9210  133.5850 C   0  0  0  0  0  0  0  0  0  0  0  0
  143.8616  161.9910  133.4967 H   0  0  0  0  0  0  0  0  0  0  0  0
  143.0810  160.0020  133.9440 C   0  0  0  0  0  0  0  0  0  0  0  0
  141.6660  160.4800  134.1470 C   0  0  0  0  0  0  0  0  0  0  0  0
  141.3060  160.3880  135.4800 F   0  0  0  0  0  0  0  0  0  0  0  0
  141.5360  161.8020  133.7550 F   0  0  0  0  0  0  0  0  0  0  0  0
  140.8080  159.7000  133.3930 F   0  0  0  0  0  0  0  0  0  0  0  0
  143.3820  158.6220  134.0160 C   0  0  0  0  0  0  0  0  0  0  0  0
  142.5993  157.8867  134.2543 H   0  0  0  0  0  0  0  0  0  0  0  0
  144.6990  158.2140  133.7770 C   0  0  0  0  0  0  0  0  0  0  0  0
  145.1960  156.9590  133.7770 N   0  0  0  0  0  0  0  0  0  0  0  0
  144.4490  155.7550  134.0340 C   0  0  0  0  0  0  0  0  0  0  0  0
  143.6070  155.3640  133.1820 O   0  0  0  0  0  0  0  0  0  0  0  0
  144.6060  154.9700  135.2790 C   0  0  0  0  0  0  0  0  0  0  0  0
  143.9213  155.1968  136.1095 H   0  0  0  0  0  0  0  0  0  0  0  0
  145.5190  154.0010  135.4770 C   0  0  0  0  0  0  0  0  0  0  0  0
  145.6600  153.4070  136.8170 C   0  0  0  0  0  0  0  0  0  0  0  0
  144.8182  153.4478  137.5239 H   0  0  0  0  0  0  0  0  0  0  0  0
  146.7370  152.8530  137.1590 O   0  0  0  0  0  0  0  0  0  0  0  0
  146.3640  153.5230  134.4220 N   0  0  0  0  0  0  0  0  0  0  0  0
  147.3870  153.4250  134.6090 H   0  0  0  0  0  0  0  0  0  0  0  0
  145.8420  152.9440  133.2210 C   0  0  0  0  0  0  0  0  0  0  0  0
  144.5970  152.8080  133.0670 O   0  0  0  0  0  0  0  0  0  0  0  0
  146.7280  152.5340  132.2220 O   0  0  0  0  0  0  0  0  0  0  0  0
  147.7070  151.5200  132.4290 C   0  0  0  0  0  0  0  0  0  0  0  0
  147.8079  150.9223  131.5111 H   0  0  0  0  0  0  0  0  0  0  0  0
  147.3851  150.8822  133.2654 H   0  0  0  0  0  0  0  0  0  0  0  0
  149.0660  152.1430  132.7770 C   0  0  1  0  0  0  0  0  0  0  0  0
  149.5589  152.3988  131.8274 H   0  0  0  0  0  0  0  0  0  0  0  0
  148.9020  153.3230  133.5240 O   0  0  0  0  0  0  0  0  0  0  0  0
  148.2010  153.8680  133.0790 H   0  0  0  0  0  0  0  0  0  0  0  0
  149.9780  151.1540  133.5140 C   0  0  0  0  0  0  0  0  0  0  0  0
  149.8582  151.2839  134.5997 H   0  0  0  0  0  0  0  0  0  0  0  0
  149.7046  150.1256  133.2354 H   0  0  0  0  0  0  0  0  0  0  0  0
  151.0252  151.3433  133.2354 H   0  0  0  0  0  0  0  0  0  0  0  0
  1  2  1  0
  2  3  1  0
  3  4  2  0
  3  5  1  0
  5  6  2  0
  6  7  1  0
  6  8  1  0
  8  9  2  0
  9 10  1  0
  9 11  1  0
 11 12  1  0
 11 13  2  0
 13 14  1  0
 14 15  1  0
 14 16  1  0
 14 17  1  0
 13 18  1  0
 18 19  1  0
 18 20  2  0
 20 21  1  0
 21 22  1  0
 22 23  2  0
 22 24  1  0
 24 25  1  0
 24 26  2  0
 26 27  1  0
 27 28  1  0
 27 29  2  0
 26 30  1  0
 30 31  1  0
 30 32  1  0
 32 33  2  0
 32 34  1  0
 34 35  1  0
 35 36  1  0
 35 37  1  0
 35 38  1  0
 38 39  1  6
 38 40  1  0
 40 41  1  0
 38 42  1  0
 42 43  1  0
 42 44  1  0
 42 45  1  0
 21  5  1  0
 20  8  1  0
M  CHG  1   2  -1
M  END
>  <UniqueID>  (54) 
54

>  <SMILES>  (54) 
C[C@H](O)COC(=O)N/C(C=O)=C\C(=O)n1c(C([NH-])=O)cc2ccc(C(F)(F)F)cc21

>  <Energy>  (54) 
81.72691146775806

>  <Genealogy>  (54) 
CC(O)COC(=O)N/C(C=O)=C\C(=O)n1c(C([NH-])=O)cc2ccc(C(F)(F)F)cc21 (protonated)
C[C@H](O)COC(=O)N/C(C=O)=C\C(=O)n1c(C([NH-])=O)cc2ccc(C(F)(F)F)cc21 (chirality)
C[C@H](O)COC(=O)N/C(C=O)=C\C(=O)n1c(C([NH-])=O)cc2ccc(C(F)(F)F)cc21 (cis-trans isomerization)
C[C@H](O)COC(=O)N/C(C=O)=C\C(=O)n1c(C([NH-])=O)cc2ccc(C(F)(F)F)cc21 (3D coordinates assigned)
C[C@H](O)COC(=O)N/C(C=O)=C\C(=O)n1c(C([NH-])=O)cc2ccc(C(F)(F)F)cc21 (optimized conformer: 81.72691146775806 kcal/mol)

>  <smiles>  (54) 
CC(O)COC(=O)N/C(C=O)=C\C(=O)n1c(C(N)=O)cc2ccc(C(F)(F)F)cc21

>  <score_type>  (54) 
oracle

>  <origin>  (54) 
adg

>  <m_score__min__energy>  (54) 
-6.5300000000000002

>  <m_primary>  (54) 
energy

$$$$
56:0
     RDKit          3D

 45 48  0  0  0  0  0  0  0  0999 V2000
  149.1230  155.1630  132.6360 C   0  0  0  0  0  0  0  0  0  0  0  0
  148.4710  156.5030  132.7950 C   0  0  0  0  0  0  0  0  0  0  0  0
  149.2090  157.6840  132.5390 C   0  0  0  0  0  0  0  0  0  0  0  0
  148.6010  158.9450  132.6540 C   0  0  0  0  0  0  0  0  0  0  0  0
  147.2600  158.9910  133.0210 C   0  0  0  0  0  0  0  0  0  0  0  0
  146.4320  160.0750  133.1910 C   0  0  0  0  0  0  0  0  0  0  0  0
  145.1990  159.5430  133.5550 C   0  0  0  0  0  0  0  0  0  0  0  0
  144.0340  160.3690  133.9410 C   0  0  0  0  0  0  0  0  0  0  0  0
  142.8840  159.7700  134.5440 N   0  0  0  0  0  0  0  0  0  0  0  0
  144.0280  161.6070  133.7050 O   0  0  0  0  0  0  0  0  0  0  0  0
  145.2560  158.1800  133.6000 N   0  0  0  0  0  0  0  0  0  0  0  0
  144.1770  157.2700  133.8730 C   0  0  0  0  0  0  0  0  0  0  0  0
  144.2950  156.4160  134.7940 O   0  0  0  0  0  0  0  0  0  0  0  0
  142.9980  157.3300  133.1200 O   0  0  0  0  0  0  0  0  0  0  0  0
  141.7710  156.7370  133.5460 C   0  0  0  0  0  0  0  0  0  0  0  0
  141.0930  157.5890  134.5780 C   0  0  0  0  0  0  0  0  0  0  0  0
  141.3990  157.5580  135.8550 O   0  0  0  0  0  0  0  0  0  0  0  0
  140.6650  158.4810  136.4280 C   0  0  0  0  0  0  0  0  0  0  0  0
  140.7010  158.7360  137.6600 O   0  0  0  0  0  0  0  0  0  0  0  0
  139.8920  159.1120  135.5760 O   0  0  0  0  0  0  0  0  0  0  0  0
  140.1250  158.5710  134.4010 C   0  0  0  0  0  0  0  0  0  0  0  0
  139.4510  159.0040  133.1610 C   0  0  0  0  0  0  0  0  0  0  0  0
  139.8340  160.2130  132.5570 C   0  0  0  0  0  0  0  0  0  0  0  0
  139.1700  160.6750  131.4180 C   0  0  0  0  0  0  0  0  0  0  0  0
  138.1060  159.9450  130.8830 C   0  0  0  0  0  0  0  0  0  0  0  0
  137.4550  160.4010  129.7840 F   0  0  0  0  0  0  0  0  0  0  0  0
  137.7130  158.7450  131.4810 C   0  0  0  0  0  0  0  0  0  0  0  0
  138.3780  158.2770  132.6190 C   0  0  0  0  0  0  0  0  0  0  0  0
  146.5290  157.8570  133.2730 C   0  0  0  0  0  0  0  0  0  0  0  0
  147.1040  156.5860  133.1450 C   0  0  0  0  0  0  0  0  0  0  0  0
  149.3307  154.7362  133.6283 H   0  0  0  0  0  0  0  0  0  0  0  0
  148.4508  154.4917  132.0815 H   0  0  0  0  0  0  0  0  0  0  0  0
  150.0661  155.2776  132.0815 H   0  0  0  0  0  0  0  0  0  0  0  0
  150.2674  157.6134  132.2476 H   0  0  0  0  0  0  0  0  0  0  0  0
  149.1677  159.8676  132.4599 H   0  0  0  0  0  0  0  0  0  0  0  0
  146.6895  161.1371  133.0659 H   0  0  0  0  0  0  0  0  0  0  0  0
  142.0510  160.3540  134.7760 H   0  0  0  0  0  0  0  0  0  0  0  0
  142.8730  158.7580  134.7990 H   0  0  0  0  0  0  0  0  0  0  0  0
  141.1049  156.6249  132.6778 H   0  0  0  0  0  0  0  0  0  0  0  0
  141.9916  155.7556  133.9911 H   0  0  0  0  0  0  0  0  0  0  0  0
  140.6614  160.7993  132.9833 H   0  0  0  0  0  0  0  0  0  0  0  0
  139.4855  161.6150  130.9418 H   0  0  0  0  0  0  0  0  0  0  0  0
  136.8790  158.1672  131.0560 H   0  0  0  0  0  0  0  0  0  0  0  0
  138.0596  157.3360  133.0914 H   0  0  0  0  0  0  0  0  0  0  0  0
  146.5077  155.6769  133.3124 H   0  0  0  0  0  0  0  0  0  0  0  0
  1  2  1  0
  2  3  2  0
  3  4  1  0
  4  5  2  0
  5  6  1  0
  6  7  2  0
  7  8  1  0
  8  9  1  0
  8 10  2  0
  7 11  1  0
 11 12  1  0
 12 13  2  0
 12 14  1  0
 14 15  1  0
 15 16  1  0
 16 17  1  0
 17 18  1  0
 18 19  2  0
 18 20  1  0
 20 21  1  0
 21 22  1  0
 22 23  2  0
 23 24  1  0
 24 25  2  0
 25 26  1  0
 25 27  1  0
 27 28  2  0
 11 29  1  0
 29 30  2  0
 30  2  1  0
 29  5  1  0
 21 16  2  0
 28 22  1  0
  1 31  1  0
  1 32  1  0
  1 33  1  0
  3 34  1  0
  4 35  1  0
  6 36  1  0
  9 37  1  0
  9 38  1  0
 15 39  1  0
 15 40  1  0
 23 41  1  0
 24 42  1  0
 27 43  1  0
 28 44  1  0
 30 45  1  0
M  END
>  <UniqueID>  (55) 
55

>  <SMILES>  (55) 
Cc1ccc2cc(C(N)=O)n(C(=O)OCc3oc(=O)oc3-c3ccc(F)cc3)c2c1

>  <Energy>  (55) 
120.31714728636503

>  <Genealogy>  (55) 
Cc1ccc2cc(C(N)=O)n(C(=O)OCc3oc(=O)oc3-c3ccc(F)cc3)c2c1 (3D coordinates assigned)
Cc1ccc2cc(C(N)=O)n(C(=O)OCc3oc(=O)oc3-c3ccc(F)cc3)c2c1 (optimized conformer: 120.31714728636503 kcal/mol)

>  <smiles>  (55) 
Cc1ccc2cc(C(N)=O)n(C(=O)OCc3oc(=O)oc3-c3ccc(F)cc3)c2c1

>  <score_type>  (55) 
oracle

>  <origin>  (55) 
adg

>  <m_score__min__energy>  (55) 
-9.2599999999999998

>  <m_primary>  (55) 
energy

$$$$
57:0
     RDKit          3D

 45 46  0  0  0  0  0  0  0  0999 V2000
  143.0010  160.7690  133.7080 N   0  0  0  0  0  0  0  0  0  0  0  0
  144.3940  161.0360  133.8600 C   0  0  0  0  0  0  0  0  0  0  0  0
  144.7640  162.1760  134.2440 O   0  0  0  0  0  0  0  0  0  0  0  0
  145.3800  159.9630  133.6090 C   0  0  0  0  0  0  0  0  0  0  0  0
  146.7300  160.2030  133.3690 C   0  0  0  0  0  0  0  0  0  0  0  0
  147.2770  158.9700  133.0980 C   0  0  0  0  0  0  0  0  0  0  0  0
  148.5890  158.6200  132.7970 C   0  0  0  0  0  0  0  0  0  0  0  0
  148.8780  157.2610  132.5870 C   0  0  0  0  0  0  0  0  0  0  0  0
  147.8580  156.2750  132.6920 C   0  0  0  0  0  0  0  0  0  0  0  0
  148.1260  154.8730  132.4890 N   0  0  0  0  0  0  0  0  0  0  0  0
  148.4460  153.9190  133.5570 C   0  0  1  0  0  0  0  0  0  0  0  0
  147.3200  153.9340  134.6090 C   0  0  0  0  0  0  0  0  0  0  0  0
  147.8870  153.5110  136.2920 P   0  0  0  0  0  0  0  0  0  0  0  0
  148.9880  152.4770  136.2300 O   0  0  0  0  0  0  0  0  0  0  0  0
  148.4800  154.9080  137.0360 O   0  0  0  0  0  0  0  0  0  0  0  0
  146.5980  152.9120  137.2090 O   0  0  0  0  0  0  0  0  0  0  0  0
  148.6740  152.2550  132.8240 P   0  0  1  0  0  0  0  0  0  0  0  0
  147.3300  151.6620  132.4690 O   0  0  0  0  0  0  0  0  0  0  0  0
  149.6030  152.3730  131.4160 O   0  0  0  0  0  0  0  0  0  0  0  0
  149.4510  151.2390  133.9320 O   0  0  0  0  0  0  0  0  0  0  0  0
  146.5370  156.6780  132.9940 C   0  0  0  0  0  0  0  0  0  0  0  0
  146.2750  158.0400  133.1810 C   0  0  0  0  0  0  0  0  0  0  0  0
  145.1020  158.6330  133.4980 N   0  0  0  0  0  0  0  0  0  0  0  0
  143.8500  157.9740  133.7410 C   0  0  0  0  0  0  0  0  0  0  0  0
  143.7080  157.2620  134.7720 O   0  0  0  0  0  0  0  0  0  0  0  0
  142.7910  158.1490  132.8380 O   0  0  0  0  0  0  0  0  0  0  0  0
  141.4430  157.8970  133.1200 C   0  0  0  0  0  0  0  0  0  0  0  0
  140.8920  156.8190  132.7620 O   0  0  0  0  0  0  0  0  0  0  0  0
  140.7100  158.8670  133.8090 O   0  0  0  0  0  0  0  0  0  0  0  0
  140.0050  158.5850  135.0140 C   0  0  0  0  0  0  0  0  0  0  0  0
  140.9360  158.6960  136.1790 C   0  0  0  0  0  0  0  0  0  0  0  0
  141.9600  159.3520  136.0820 O   0  0  0  0  0  0  0  0  0  0  0  0
  142.5770  159.8950  134.0910 H   0  0  0  0  0  0  0  0  0  0  0  0
  147.2492  161.1725  133.3913 H   0  0  0  0  0  0  0  0  0  0  0  0
  149.3769  159.3842  132.7255 H   0  0  0  0  0  0  0  0  0  0  0  0
  149.9052  156.9559  132.3385 H   0  0  0  0  0  0  0  0  0  0  0  0
  148.1130  154.5140  131.5060 H   0  0  0  0  0  0  0  0  0  0  0  0
  149.3816  154.2007  134.0623 H   0  0  0  0  0  0  0  0  0  0  0  0
  146.8801  154.9419  134.6332 H   0  0  0  0  0  0  0  0  0  0  0  0
  146.5904  153.1663  134.3118 H   0  0  0  0  0  0  0  0  0  0  0  0
  148.7810  151.0820  134.6440 H   0  0  0  0  0  0  0  0  0  0  0  0
  145.7304  155.9351  133.0804 H   0  0  0  0  0  0  0  0  0  0  0  0
  139.1820  159.3050  135.1335 H   0  0  0  0  0  0  0  0  0  0  0  0
  139.5981  157.5641  134.9682 H   0  0  0  0  0  0  0  0  0  0  0  0
  140.6974  158.1859  137.1239 H   0  0  0  0  0  0  0  0  0  0  0  0
  1  2  1  0
  2  3  2  0
  2  4  1  0
  4  5  2  0
  5  6  1  0
  6  7  2  0
  7  8  1  0
  8  9  2  0
  9 10  1  0
 10 11  1  0
 11 12  1  0
 12 13  1  0
 13 14  2  0
 13 15  1  0
 13 16  1  0
 11 17  1  0
 17 18  2  0
 17 19  1  6
 17 20  1  0
  9 21  1  0
 21 22  2  0
 22 23  1  0
 23 24  1  0
 24 25  2  0
 24 26  1  0
 26 27  1  0
 27 28  2  0
 27 29  1  0
 29 30  1  0
 30 31  1  0
 31 32  2  0
 23  4  1  0
 22  6  1  0
  1 33  1  0
  5 34  1  0
  7 35  1  0
  8 36  1  0
 10 37  1  0
 11 38  1  1
 12 39  1  0
 12 40  1  0
 20 41  1  0
 21 42  1  0
 30 43  1  0
 30 44  1  0
 31 45  1  0
M  CHG  4   1  -1  15  -1  16  -1  19  -1
M  END
>  <UniqueID>  (56) 
56

>  <SMILES>  (56) 
[NH-]C(=O)c1cc2ccc(N[C@@H](CP(=O)([O-])[O-])[P@@](=O)([O-])O)cc2n1C(=O)OC(=O)OCC=O

>  <Energy>  (56) 
74.68203504896714

>  <Genealogy>  (56) 
[NH-]C(=O)c1cc2ccc(NC(CP(=O)([O-])[O-])P(=O)([O-])O)cc2n1C(=O)OC(=O)OCC=O (protonated)
[NH-]C(=O)c1cc2ccc(N[C@@H](CP(=O)([O-])[O-])[P@@](=O)([O-])O)cc2n1C(=O)OC(=O)OCC=O (chirality)
[NH-]C(=O)c1cc2ccc(N[C@@H](CP(=O)([O-])[O-])[P@@](=O)([O-])O)cc2n1C(=O)OC(=O)OCC=O (3D coordinates assigned)
[NH-]C(=O)c1cc2ccc(N[C@@H](CP(=O)([O-])[O-])[P@@](=O)([O-])O)cc2n1C(=O)OC(=O)OCC=O (optimized conformer: 74.68203504896714 kcal/mol)

>  <smiles>  (56) 
NC(=O)c1cc2ccc(NC(CP(=O)(O)O)P(=O)(O)O)cc2n1C(=O)OC(=O)OCC=O

>  <score_type>  (56) 
oracle

>  <origin>  (56) 
adg

>  <m_score__min__energy>  (56) 
-7.9699999999999998

>  <m_primary>  (56) 
energy

$$$$
58:0
     RDKit          3D

 40 43  0  0  0  0  0  0  0  0999 V2000
  139.1000  161.1950  131.8600 N   0  0  0  0  0  0  0  0  0  0  0  0
  139.2760  159.8910  131.3040 C   0  0  0  0  0  0  0  0  0  0  0  0
  139.0210  159.7010  130.0840 O   0  0  0  0  0  0  0  0  0  0  0  0
  139.8130  158.7800  132.1140 C   0  0  0  0  0  0  0  0  0  0  0  0
  139.2520  157.5070  132.1320 C   0  0  0  0  0  0  0  0  0  0  0  0
  140.0730  156.7600  132.9450 C   0  0  0  0  0  0  0  0  0  0  0  0
  139.9760  155.4260  133.3290 C   0  0  0  0  0  0  0  0  0  0  0  0
  140.9410  154.9250  134.2160 C   0  0  0  0  0  0  0  0  0  0  0  0
  141.9770  155.7590  134.7030 C   0  0  0  0  0  0  0  0  0  0  0  0
  142.9690  155.2160  135.6940 C   0  0  0  0  0  0  0  0  0  0  0  0
  142.2940  154.3340  136.6430 N   0  0  0  0  0  0  0  0  0  0  0  0
  142.0600  153.0470  136.4090 N   0  0  0  0  0  0  0  0  0  0  0  0
  141.3520  152.5470  137.4510 C   0  0  0  0  0  0  0  0  0  0  0  0
  140.9140  151.1460  137.5280 C   0  0  0  0  0  0  0  0  0  0  0  0
  140.8070  150.5620  138.6380 O   0  0  0  0  0  0  0  0  0  0  0  0
  140.6130  150.4530  136.3630 O   0  0  0  0  0  0  0  0  0  0  0  0
  141.1250  153.5660  138.3630 C   0  0  0  0  0  0  0  0  0  0  0  0
  140.4500  153.6220  139.5830 C   0  0  0  0  0  0  0  0  0  0  0  0
  140.4040  154.8600  140.2490 C   0  0  0  0  0  0  0  0  0  0  0  0
  141.0240  155.9990  139.6890 C   0  0  0  0  0  0  0  0  0  0  0  0
  141.6980  155.9130  138.4580 C   0  0  0  0  0  0  0  0  0  0  0  0
  141.7280  154.6700  137.8190 C   0  0  0  0  0  0  0  0  0  0  0  0
  142.0420  157.1100  134.2940 C   0  0  0  0  0  0  0  0  0  0  0  0
  141.0770  157.5800  133.3950 C   0  0  0  0  0  0  0  0  0  0  0  0
  140.9280  158.8290  132.8950 N   0  0  0  0  0  0  0  0  0  0  0  0
  141.7060  159.9910  133.2300 C   0  0  0  0  0  0  0  0  0  0  0  0
  142.9640  159.9310  133.2610 O   0  0  0  0  0  0  0  0  0  0  0  0
  141.0770  161.1930  133.5320 O   0  0  0  0  0  0  0  0  0  0  0  0
  139.4540  161.4260  132.8150 H   0  0  0  0  0  0  0  0  0  0  0  0
  138.6860  161.9590  131.2830 H   0  0  0  0  0  0  0  0  0  0  0  0
  138.3455  157.1697  131.6081 H   0  0  0  0  0  0  0  0  0  0  0  0
  139.1677  154.7840  132.9489 H   0  0  0  0  0  0  0  0  0  0  0  0
  140.8924  153.8738  134.5364 H   0  0  0  0  0  0  0  0  0  0  0  0
  143.7458  154.6498  135.1592 H   0  0  0  0  0  0  0  0  0  0  0  0
  143.4280  156.0525  136.2414 H   0  0  0  0  0  0  0  0  0  0  0  0
  139.9703  152.7286  140.0092 H   0  0  0  0  0  0  0  0  0  0  0  0
  139.8812  154.9419  141.2133 H   0  0  0  0  0  0  0  0  0  0  0  0
  140.9792  156.9611  140.2203 H   0  0  0  0  0  0  0  0  0  0  0  0
  142.1849  156.7934  138.0131 H   0  0  0  0  0  0  0  0  0  0  0  0
  142.8313  157.7761  134.6726 H   0  0  0  0  0  0  0  0  0  0  0  0
  1  2  1  0
  2  3  2  0
  2  4  1  0
  4  5  2  0
  5  6  1  0
  6  7  2  0
  7  8  1  0
  8  9  2  0
  9 10  1  0
 10 11  1  0
 11 12  1  0
 12 13  2  0
 13 14  1  0
 14 15  2  0
 14 16  1  0
 13 17  1  0
 17 18  2  0
 18 19  1  0
 19 20  2  0
 20 21  1  0
 21 22  2  0
  9 23  1  0
 23 24  2  0
 24 25  1  0
 25 26  1  0
 26 27  2  0
 26 28  1  0
 25  4  1  0
 24  6  1  0
 22 11  1  0
 22 17  1  0
  1 29  1  0
  1 30  1  0
  5 31  1  0
  7 32  1  0
  8 33  1  0
 10 34  1  0
 10 35  1  0
 18 36  1  0
 19 37  1  0
 20 38  1  0
 21 39  1  0
 23 40  1  0
M  CHG  2  16  -1  28  -1
M  END
>  <UniqueID>  (57) 
57

>  <SMILES>  (57) 
NC(=O)c1cc2ccc(Cn3nc(C(=O)[O-])c4ccccc43)cc2n1C(=O)[O-]

>  <Energy>  (57) 
122.21643914308736

>  <Genealogy>  (57) 
NC(=O)c1cc2ccc(Cn3nc(C(=O)[O-])c4ccccc43)cc2n1C(=O)[O-] (protonated)
NC(=O)c1cc2ccc(Cn3nc(C(=O)[O-])c4ccccc43)cc2n1C(=O)[O-] (3D coordinates assigned)
NC(=O)c1cc2ccc(Cn3nc(C(=O)[O-])c4ccccc43)cc2n1C(=O)[O-] (optimized conformer: 122.21643914308736 kcal/mol)

>  <smiles>  (57) 
NC(=O)c1cc2ccc(Cn3nc(C(=O)O)c4ccccc43)cc2n1C(=O)O

>  <score_type>  (57) 
oracle

>  <origin>  (57) 
adg

>  <m_score__min__energy>  (57) 
-8.9000000000000004

>  <m_primary>  (57) 
energy

$$$$
59:0
     RDKit          3D

 41 42  0  0  0  0  0  0  0  0999 V2000
  139.5190  158.9670  131.7560 C   0  0  0  0  0  0  0  0  0  0  0  0
  139.0740  158.8440  133.1370 N   0  0  0  0  0  0  0  0  0  0  0  0
  139.4930  157.7760  133.9900 C   0  0  0  0  0  0  0  0  0  0  0  0
  139.6210  157.9630  135.2310 O   0  0  0  0  0  0  0  0  0  0  0  0
  139.7220  156.4140  133.4090 C   0  0  0  0  0  0  0  0  0  0  0  0
  140.4330  155.5890  134.3090 O   0  0  0  0  0  0  0  0  0  0  0  0
  141.6150  155.0730  133.7230 C   0  0  0  0  0  0  0  0  0  0  0  0
  142.8440  155.4990  134.5320 C   0  0  0  0  0  0  0  0  0  0  0  0
  143.0400  156.9090  134.4530 O   0  0  0  0  0  0  0  0  0  0  0  0
  143.4540  157.5620  133.2860 C   0  0  0  0  0  0  0  0  0  0  0  0
  143.1420  157.1000  132.1540 O   0  0  0  0  0  0  0  0  0  0  0  0
  144.2450  158.7590  133.3770 N   0  0  0  0  0  0  0  0  0  0  0  0
  143.8180  160.0170  133.6810 C   0  0  0  0  0  0  0  0  0  0  0  0
  142.4130  160.4410  133.8500 C   0  0  0  0  0  0  0  0  0  0  0  0
  141.4310  159.5610  134.4000 N   0  0  0  0  0  0  0  0  0  0  0  0
  142.0600  161.5790  133.4420 O   0  0  0  0  0  0  0  0  0  0  0  0
  144.8930  160.8960  133.7630 C   0  0  0  0  0  0  0  0  0  0  0  0
  146.0050  160.1380  133.4820 C   0  0  0  0  0  0  0  0  0  0  0  0
  147.3470  160.5060  133.4290 C   0  0  0  0  0  0  0  0  0  0  0  0
  148.2900  159.5070  133.1430 C   0  0  0  0  0  0  0  0  0  0  0  0
  147.8810  158.1690  132.9280 C   0  0  0  0  0  0  0  0  0  0  0  0
  148.8540  157.1590  132.6530 N   0  0  0  0  0  0  0  0  0  0  0  0
  146.5130  157.8300  132.9910 C   0  0  0  0  0  0  0  0  0  0  0  0
  145.5890  158.8500  133.2540 C   0  0  0  0  0  0  0  0  0  0  0  0
  140.5791  159.2600  131.7371 H   0  0  0  0  0  0  0  0  0  0  0  0
  139.3963  158.0013  131.2438 H   0  0  0  0  0  0  0  0  0  0  0  0
  138.9177  159.7326  131.2438 H   0  0  0  0  0  0  0  0  0  0  0  0
  138.7496  155.9498  133.1880 H   0  0  0  0  0  0  0  0  0  0  0  0
  140.3171  156.5221  132.4902 H   0  0  0  0  0  0  0  0  0  0  0  0
  141.5587  153.9747  133.7012 H   0  0  0  0  0  0  0  0  0  0  0  0
  141.7073  155.4680  132.7005 H   0  0  0  0  0  0  0  0  0  0  0  0
  142.6992  155.2137  135.5844 H   0  0  0  0  0  0  0  0  0  0  0  0
  143.7301  154.9967  134.1167 H   0  0  0  0  0  0  0  0  0  0  0  0
  141.6530  158.5600  134.5920 H   0  0  0  0  0  0  0  0  0  0  0  0
  140.4510  159.8930  134.5460 H   0  0  0  0  0  0  0  0  0  0  0  0
  144.8603  161.9693  134.0019 H   0  0  0  0  0  0  0  0  0  0  0  0
  147.6578  161.5463  133.6056 H   0  0  0  0  0  0  0  0  0  0  0  0
  149.3575  159.7662  133.0853 H   0  0  0  0  0  0  0  0  0  0  0  0
  149.6220  156.9590  133.3310 H   0  0  0  0  0  0  0  0  0  0  0  0
  148.8150  156.6060  131.7670 H   0  0  0  0  0  0  0  0  0  0  0  0
  146.1806  156.7927  132.8378 H   0  0  0  0  0  0  0  0  0  0  0  0
  1  2  1  0
  2  3  1  0
  3  4  2  0
  3  5  1  0
  5  6  1  0
  6  7  1  0
  7  8  1  0
  8  9  1  0
  9 10  1  0
 10 11  2  0
 10 12  1  0
 12 13  1  0
 13 14  1  0
 14 15  1  0
 14 16  2  0
 13 17  2  0
 17 18  1  0
 18 19  2  0
 19 20  1  0
 20 21  2  0
 21 22  1  0
 21 23  1  0
 23 24  2  0
 24 12  1  0
 24 18  1  0
  1 25  1  0
  1 26  1  0
  1 27  1  0
  5 28  1  0
  5 29  1  0
  7 30  1  0
  7 31  1  0
  8 32  1  0
  8 33  1  0
 15 34  1  0
 15 35  1  0
 17 36  1  0
 19 37  1  0
 20 38  1  0
 22 39  1  0
 22 40  1  0
 23 41  1  0
M  CHG  1   2  -1
M  END
>  <UniqueID>  (58) 
58

>  <SMILES>  (58) 
C[N-]C(=O)COCCOC(=O)n1c(C(N)=O)cc2ccc(N)cc21

>  <Energy>  (58) 
75.12480402481035

>  <Genealogy>  (58) 
C[N-]C(=O)COCCOC(=O)n1c(C(N)=O)cc2ccc(N)cc21 (protonated)
C[N-]C(=O)COCCOC(=O)n1c(C(N)=O)cc2ccc(N)cc21 (3D coordinates assigned)
C[N-]C(=O)COCCOC(=O)n1c(C(N)=O)cc2ccc(N)cc21 (optimized conformer: 75.12480402481035 kcal/mol)

>  <smiles>  (58) 
CNC(=O)COCCOC(=O)n1c(C(N)=O)cc2ccc(N)cc21

>  <score_type>  (58) 
oracle

>  <origin>  (58) 
adg

>  <m_score__min__energy>  (58) 
-6.2000000000000002

>  <m_primary>  (58) 
energy

$$$$
60:0
     RDKit          3D

 39 40  0  0  0  0  0  0  0  0999 V2000
  138.7280  158.5990  132.0570 C   0  0  0  0  0  0  0  0  0  0  0  0
  139.8170  159.5690  131.6040 C   0  0  0  0  0  0  0  0  0  0  0  0
  140.9830  159.5290  132.5020 N   0  0  0  0  0  0  0  0  0  0  0  0
  140.7890  158.6260  133.6490 C   0  0  0  0  0  0  0  0  0  0  0  0
  141.6840  159.0290  134.7760 C   0  0  0  0  0  0  0  0  0  0  0  0
  141.2090  159.6860  135.7420 O   0  0  0  0  0  0  0  0  0  0  0  0
  143.0360  158.6670  134.7380 O   0  0  0  0  0  0  0  0  0  0  0  0
  143.7870  158.4740  133.5710 C   0  0  0  0  0  0  0  0  0  0  0  0
  143.3180  157.8140  132.6040 O   0  0  0  0  0  0  0  0  0  0  0  0
  145.1110  159.0270  133.4820 N   0  0  0  0  0  0  0  0  0  0  0  0
  145.4720  160.3400  133.5480 C   0  0  0  0  0  0  0  0  0  0  0  0
  144.5670  161.4660  133.8730 C   0  0  0  0  0  0  0  0  0  0  0  0
  143.1530  161.3310  133.7220 N   0  0  0  0  0  0  0  0  0  0  0  0
  145.0400  162.5680  134.2570 O   0  0  0  0  0  0  0  0  0  0  0  0
  146.8470  160.4790  133.3620 C   0  0  0  0  0  0  0  0  0  0  0  0
  147.3210  159.1990  133.1840 C   0  0  0  0  0  0  0  0  0  0  0  0
  148.6170  158.7520  132.9460 C   0  0  0  0  0  0  0  0  0  0  0  0
  148.8160  157.3710  132.7720 C   0  0  0  0  0  0  0  0  0  0  0  0
  147.7250  156.4710  132.8450 C   0  0  0  0  0  0  0  0  0  0  0  0
  147.9420  155.0070  132.6060 C   0  0  0  0  0  0  0  0  0  0  0  0
  146.4210  156.9630  133.0720 C   0  0  0  0  0  0  0  0  0  0  0  0
  146.2540  158.3410  133.2610 C   0  0  0  0  0  0  0  0  0  0  0  0
  138.6963  158.5707  133.1562 H   0  0  0  0  0  0  0  0  0  0  0  0
  137.7543  158.9345  131.6706 H   0  0  0  0  0  0  0  0  0  0  0  0
  138.9490  157.5931  131.6706 H   0  0  0  0  0  0  0  0  0  0  0  0
  140.1387  159.2961  130.5881 H   0  0  0  0  0  0  0  0  0  0  0  0
  139.4017  160.5874  131.6229 H   0  0  0  0  0  0  0  0  0  0  0  0
  141.7860  159.1600  131.9410 H   0  0  0  0  0  0  0  0  0  0  0  0
  139.7412  158.6778  133.9799 H   0  0  0  0  0  0  0  0  0  0  0  0
  141.0343  157.5980  133.3439 H   0  0  0  0  0  0  0  0  0  0  0  0
  142.5260  162.1430  133.9170 H   0  0  0  0  0  0  0  0  0  0  0  0
  142.7190  160.4190  133.4590 H   0  0  0  0  0  0  0  0  0  0  0  0
  147.4288  161.4125  133.3583 H   0  0  0  0  0  0  0  0  0  0  0  0
  149.4598  159.4571  132.8955 H   0  0  0  0  0  0  0  0  0  0  0  0
  149.8280  156.9863  132.5775 H   0  0  0  0  0  0  0  0  0  0  0  0
  148.0193  154.4854  133.5714 H   0  0  0  0  0  0  0  0  0  0  0  0
  147.0945  154.5990  132.0356 H   0  0  0  0  0  0  0  0  0  0  0  0
  148.8714  154.8624  132.0356 H   0  0  0  0  0  0  0  0  0  0  0  0
  145.5581  156.2814  133.0997 H   0  0  0  0  0  0  0  0  0  0  0  0
  1  2  1  0
  2  3  1  0
  3  4  1  0
  4  5  1  0
  5  6  2  0
  5  7  1  0
  7  8  1  0
  8  9  2  0
  8 10  1  0
 10 11  1  0
 11 12  1  0
 12 13  1  0
 12 14  2  0
 11 15  2  0
 15 16  1  0
 16 17  2  0
 17 18  1  0
 18 19  2  0
 19 20  1  0
 19 21  1  0
 21 22  2  0
 22 10  1  0
 22 16  1  0
  1 23  1  0
  1 24  1  0
  1 25  1  0
  2 26  1  0
  2 27  1  0
  3 28  1  0
  4 29  1  0
  4 30  1  0
 13 31  1  0
 13 32  1  0
 15 33  1  0
 17 34  1  0
 18 35  1  0
 20 36  1  0
 20 37  1  0
 20 38  1  0
 21 39  1  0
M  END
>  <UniqueID>  (59) 
59

>  <SMILES>  (59) 
CCNCC(=O)OC(=O)n1c(C(N)=O)cc2ccc(C)cc21

>  <Energy>  (59) 
74.80502715996886

>  <Genealogy>  (59) 
CCNCC(=O)OC(=O)n1c(C(N)=O)cc2ccc(C)cc21 (3D coordinates assigned)
CCNCC(=O)OC(=O)n1c(C(N)=O)cc2ccc(C)cc21 (optimized conformer: 74.80502715996886 kcal/mol)

>  <smiles>  (59) 
CCNCC(=O)OC(=O)n1c(C(N)=O)cc2ccc(C)cc21

>  <score_type>  (59) 
oracle

>  <origin>  (59) 
adg

>  <m_score__min__energy>  (59) 
-6.7199999999999998

>  <m_primary>  (59) 
energy

$$$$
61:0
     RDKit          3D

 40 41  0  0  0  0  0  0  0  0999 V2000
  140.1450  159.3440  131.3110 C   0  0  0  0  0  0  0  0  0  0  0  0
  139.5440  159.2110  132.7180 C   0  0  1  0  0  0  0  0  0  0  0  0
  138.3590  158.2260  132.7100 C   0  0  0  0  0  0  0  0  0  0  0  0
  138.5840  157.1580  133.5930 O   0  0  0  0  0  0  0  0  0  0  0  0
  140.5730  158.7770  133.6730 N   0  0  0  0  0  0  0  0  0  0  0  0
  141.9360  159.2480  133.6770 C   0  0  0  0  0  0  0  0  0  0  0  0
  142.2510  160.6330  133.7170 C   0  0  0  0  0  0  0  0  0  0  0  0
  143.5860  161.0630  133.7330 C   0  0  0  0  0  0  0  0  0  0  0  0
  144.5860  160.0960  133.6980 C   0  0  0  0  0  0  0  0  0  0  0  0
  145.9550  160.2400  133.7380 C   0  0  0  0  0  0  0  0  0  0  0  0
  146.4600  158.9430  133.6990 C   0  0  0  0  0  0  0  0  0  0  0  0
  147.9020  158.6330  133.6620 C   0  0  0  0  0  0  0  0  0  0  0  0
  148.4420  157.5360  134.4020 N   0  0  0  0  0  0  0  0  0  0  0  0
  148.6610  159.3130  132.9210 O   0  0  0  0  0  0  0  0  0  0  0  0
  145.4480  158.0320  133.6470 N   0  0  0  0  0  0  0  0  0  0  0  0
  145.5650  156.6010  133.7320 C   0  0  0  0  0  0  0  0  0  0  0  0
  145.4260  155.8920  132.6990 O   0  0  0  0  0  0  0  0  0  0  0  0
  145.8260  156.0010  134.9670 O   0  0  0  0  0  0  0  0  0  0  0  0
  145.8940  154.5920  135.1450 C   0  0  0  0  0  0  0  0  0  0  0  0
  147.0870  154.2610  135.9780 C   0  0  0  0  0  0  0  0  0  0  0  0
  148.0740  155.0410  136.0160 O   0  0  0  0  0  0  0  0  0  0  0  0
  147.0940  153.1010  136.7420 O   0  0  0  0  0  0  0  0  0  0  0  0
  144.3050  158.7560  133.6400 C   0  0  0  0  0  0  0  0  0  0  0  0
  142.9840  158.2990  133.6350 C   0  0  0  0  0  0  0  0  0  0  0  0
  141.2162  159.5810  131.3908 H   0  0  0  0  0  0  0  0  0  0  0  0
  140.0187  158.3962  130.7672 H   0  0  0  0  0  0  0  0  0  0  0  0
  139.6306  160.1500  130.7672 H   0  0  0  0  0  0  0  0  0  0  0  0
  139.1693  160.1960  133.0333 H   0  0  0  0  0  0  0  0  0  0  0  0
  137.4466  158.7590  133.0158 H   0  0  0  0  0  0  0  0  0  0  0  0
  138.2477  157.8214  131.6932 H   0  0  0  0  0  0  0  0  0  0  0  0
  137.9780  156.4240  133.3140 H   0  0  0  0  0  0  0  0  0  0  0  0
  140.2880  158.1230  134.4380 H   0  0  0  0  0  0  0  0  0  0  0  0
  141.4396  161.3755  133.7356 H   0  0  0  0  0  0  0  0  0  0  0  0
  143.8352  162.1337  133.7721 H   0  0  0  0  0  0  0  0  0  0  0  0
  146.5268  161.1783  133.7897 H   0  0  0  0  0  0  0  0  0  0  0  0
  147.8170  156.8420  134.8620 H   0  0  0  0  0  0  0  0  0  0  0  0
  149.4710  157.3600  134.4050 H   0  0  0  0  0  0  0  0  0  0  0  0
  144.9827  154.2404  135.6509 H   0  0  0  0  0  0  0  0  0  0  0  0
  145.9782  154.0988  134.1654 H   0  0  0  0  0  0  0  0  0  0  0  0
  142.7637  157.2219  133.5991 H   0  0  0  0  0  0  0  0  0  0  0  0
  1  2  1  0
  2  3  1  0
  3  4  1  0
  2  5  1  0
  5  6  1  0
  6  7  2  0
  7  8  1  0
  8  9  2  0
  9 10  1  0
 10 11  2  0
 11 12  1  0
 12 13  1  0
 12 14  2  0
 11 15  1  0
 15 16  1  0
 16 17  2  0
 16 18  1  0
 18 19  1  0
 19 20  1  0
 20 21  2  0
 20 22  1  0
 15 23  1  0
 23 24  2  0
 24  6  1  0
 23  9  1  0
  1 25  1  0
  1 26  1  0
  1 27  1  0
  2 28  1  1
  3 29  1  0
  3 30  1  0
  4 31  1  0
  5 32  1  0
  7 33  1  0
  8 34  1  0
 10 35  1  0
 13 36  1  0
 13 37  1  0
 19 38  1  0
 19 39  1  0
 24 40  1  0
M  CHG  1  22  -1
M  END
>  <UniqueID>  (60) 
60

>  <SMILES>  (60) 
C[C@@H](CO)Nc1ccc2cc(C(N)=O)n(C(=O)OCC(=O)[O-])c2c1

>  <Energy>  (60) 
73.3177322107917

>  <Genealogy>  (60) 
C[C@@H](CO)Nc1ccc2cc(C(N)=O)n(C(=O)OCC(=O)[O-])c2c1 (protonated)
C[C@@H](CO)Nc1ccc2cc(C(N)=O)n(C(=O)OCC(=O)[O-])c2c1 (3D coordinates assigned)
C[C@@H](CO)Nc1ccc2cc(C(N)=O)n(C(=O)OCC(=O)[O-])c2c1 (optimized conformer: 73.3177322107917 kcal/mol)

>  <smiles>  (60) 
C[C@@H](CO)Nc1ccc2cc(C(N)=O)n(C(=O)OCC(=O)O)c2c1

>  <score_type>  (60) 
oracle

>  <origin>  (60) 
adg

>  <m_score__min__energy>  (60) 
-6.9000000000000004

>  <m_primary>  (60) 
energy

$$$$
62:0
     RDKit          3D

 36 37  0  0  0  0  0  0  0  0999 V2000
  148.0650  156.7370  134.3570 C   0  0  0  0  0  0  0  0  0  0  0  0
  147.9670  158.2680  134.4510 C   0  0  1  0  0  0  0  0  0  0  0  0
  149.1780  158.8220  134.9020 O   0  0  0  0  0  0  0  0  0  0  0  0
  147.5030  158.9450  133.1330 C   0  0  2  0  0  0  0  0  0  0  0  0
  146.2780  158.3120  132.6200 N   0  0  0  0  0  0  0  0  0  0  0  0
  144.9400  158.6420  133.0480 C   0  0  0  0  0  0  0  0  0  0  0  0
  144.6570  159.9760  133.4350 C   0  0  0  0  0  0  0  0  0  0  0  0
  143.3770  160.3480  133.8740 C   0  0  0  0  0  0  0  0  0  0  0  0
  142.3900  159.3690  133.9080 C   0  0  0  0  0  0  0  0  0  0  0  0
  141.0810  159.4500  134.3220 C   0  0  0  0  0  0  0  0  0  0  0  0
  140.5640  158.1690  134.1550 C   0  0  0  0  0  0  0  0  0  0  0  0
  139.1550  157.8220  134.4270 C   0  0  0  0  0  0  0  0  0  0  0  0
  138.3900  157.0520  133.4980 N   0  0  0  0  0  0  0  0  0  0  0  0
  138.6000  158.2580  135.4700 O   0  0  0  0  0  0  0  0  0  0  0  0
  141.5170  157.3230  133.6720 N   0  0  0  0  0  0  0  0  0  0  0  0
  141.4050  155.9040  133.4710 C   0  0  0  0  0  0  0  0  0  0  0  0
  140.3770  155.4180  132.9320 O   0  0  0  0  0  0  0  0  0  0  0  0
  142.4280  155.0520  133.8690 O   0  0  0  0  0  0  0  0  0  0  0  0
  142.6320  158.0760  133.5230 C   0  0  0  0  0  0  0  0  0  0  0  0
  143.9070  157.6720  133.1060 C   0  0  0  0  0  0  0  0  0  0  0  0
  148.5850  158.9500  132.0800 C   0  0  0  0  0  0  0  0  0  0  0  0
  148.4830  158.2410  131.0430 O   0  0  0  0  0  0  0  0  0  0  0  0
  149.7290  159.7160  132.2700 O   0  0  0  0  0  0  0  0  0  0  0  0
  148.0924  156.3085  135.3697 H   0  0  0  0  0  0  0  0  0  0  0  0
  147.1900  156.3460  133.8170 H   0  0  0  0  0  0  0  0  0  0  0  0
  148.9827  156.4608  133.8170 H   0  0  0  0  0  0  0  0  0  0  0  0
  147.1804  158.4766  135.1911 H   0  0  0  0  0  0  0  0  0  0  0  0
  149.8500  158.7150  134.1790 H   0  0  0  0  0  0  0  0  0  0  0  0
  147.2805  159.9952  133.3730 H   0  0  0  0  0  0  0  0  0  0  0  0
  146.3770  157.5250  131.9390 H   0  0  0  0  0  0  0  0  0  0  0  0
  145.4543  160.7325  133.3904 H   0  0  0  0  0  0  0  0  0  0  0  0
  143.1612  161.3818  134.1816 H   0  0  0  0  0  0  0  0  0  0  0  0
  140.5552  160.3376  134.7036 H   0  0  0  0  0  0  0  0  0  0  0  0
  137.4070  156.7830  133.7250 H   0  0  0  0  0  0  0  0  0  0  0  0
  138.7650  156.8220  132.5510 H   0  0  0  0  0  0  0  0  0  0  0  0
  144.1026  156.6254  132.8296 H   0  0  0  0  0  0  0  0  0  0  0  0
  1  2  1  0
  2  3  1  0
  2  4  1  0
  4  5  1  0
  5  6  1  0
  6  7  2  0
  7  8  1  0
  8  9  2  0
  9 10  1  0
 10 11  2  0
 11 12  1  0
 12 13  1  0
 12 14  2  0
 11 15  1  0
 15 16  1  0
 16 17  2  0
 16 18  1  0
 15 19  1  0
 19 20  2  0
  4 21  1  0
 21 22  2  0
 21 23  1  0
 20  6  1  0
 19  9  1  0
  1 24  1  0
  1 25  1  0
  1 26  1  0
  2 27  1  1
  3 28  1  0
  4 29  1  1
  5 30  1  0
  7 31  1  0
  8 32  1  0
 10 33  1  0
 13 34  1  0
 13 35  1  0
 20 36  1  0
M  CHG  2  18  -1  23  -1
M  END
>  <UniqueID>  (61) 
61

>  <SMILES>  (61) 
C[C@@H](O)[C@H](Nc1ccc2cc(C(N)=O)n(C(=O)[O-])c2c1)C(=O)[O-]

>  <Energy>  (61) 
76.58849393923941

>  <Genealogy>  (61) 
C[C@@H](O)[C@H](Nc1ccc2cc(C(N)=O)n(C(=O)[O-])c2c1)C(=O)[O-] (protonated)
C[C@@H](O)[C@H](Nc1ccc2cc(C(N)=O)n(C(=O)[O-])c2c1)C(=O)[O-] (3D coordinates assigned)
C[C@@H](O)[C@H](Nc1ccc2cc(C(N)=O)n(C(=O)[O-])c2c1)C(=O)[O-] (optimized conformer: 76.58849393923941 kcal/mol)

>  <smiles>  (61) 
C[C@@H](O)[C@H](Nc1ccc2cc(C(N)=O)n(C(=O)O)c2c1)C(=O)O

>  <score_type>  (61) 
oracle

>  <origin>  (61) 
adg

>  <m_score__min__energy>  (61) 
-6.3600000000000003

>  <m_primary>  (61) 
energy

$$$$
63:0
     RDKit          3D

 40 42  0  0  0  0  0  0  0  0999 V2000
  144.8160  153.3670  137.4890 N   0  0  0  0  0  0  0  0  0  0  0  0
  144.0960  153.7660  136.3220 C   0  0  0  0  0  0  0  0  0  0  0  0
  143.0050  153.2000  136.0460 O   0  0  0  0  0  0  0  0  0  0  0  0
  144.5730  154.8750  135.4720 C   0  0  0  0  0  0  0  0  0  0  0  0
  143.7570  155.9240  135.0610 C   0  0  0  0  0  0  0  0  0  0  0  0
  144.5850  156.7760  134.3690 C   0  0  0  0  0  0  0  0  0  0  0  0
  144.2960  157.9820  133.7370 C   0  0  0  0  0  0  0  0  0  0  0  0
  145.3410  158.6450  133.0750 C   0  0  0  0  0  0  0  0  0  0  0  0
  146.6480  158.0950  133.0440 C   0  0  0  0  0  0  0  0  0  0  0  0
  147.7440  158.8000  132.3340 C   0  0  0  0  0  0  0  0  0  0  0  0
  148.9940  158.1800  132.1520 C   0  0  0  0  0  0  0  0  0  0  0  0
  150.0280  158.8510  131.4910 C   0  0  0  0  0  0  0  0  0  0  0  0
  149.8250  160.1440  131.0040 C   0  0  0  0  0  0  0  0  0  0  0  0
  148.5880  160.7690  131.1760 C   0  0  0  0  0  0  0  0  0  0  0  0
  147.5510  160.1030  131.8370 C   0  0  0  0  0  0  0  0  0  0  0  0
  146.8990  156.8640  133.6960 C   0  0  0  0  0  0  0  0  0  0  0  0
  145.8440  156.2330  134.3670 C   0  0  0  0  0  0  0  0  0  0  0  0
  145.8530  155.0570  135.0390 N   0  0  0  0  0  0  0  0  0  0  0  0
  146.9560  154.1400  135.1660 C   0  0  0  0  0  0  0  0  0  0  0  0
  147.7280  153.9440  134.1870 O   0  0  0  0  0  0  0  0  0  0  0  0
  147.1720  153.4670  136.3720 O   0  0  0  0  0  0  0  0  0  0  0  0
  148.2320  153.8020  137.2640 C   0  0  0  0  0  0  0  0  0  0  0  0
  147.6970  154.1940  138.5060 O   0  0  0  0  0  0  0  0  0  0  0  0
  146.9460  152.8490  139.2420 P   0  0  0  0  0  0  0  0  0  0  0  0
  146.6770  151.7970  138.1920 O   0  0  0  0  0  0  0  0  0  0  0  0
  145.4830  153.2920  139.9690 O   0  0  0  0  0  0  0  0  0  0  0  0
  147.9790  152.2080  140.4180 O   0  0  0  0  0  0  0  0  0  0  0  0
  145.6330  153.9200  137.8330 H   0  0  0  0  0  0  0  0  0  0  0  0
  144.4820  152.5590  138.0600 H   0  0  0  0  0  0  0  0  0  0  0  0
  142.6801  156.0457  135.2493 H   0  0  0  0  0  0  0  0  0  0  0  0
  143.2797  158.4026  133.7558 H   0  0  0  0  0  0  0  0  0  0  0  0
  145.1437  159.6040  132.5735 H   0  0  0  0  0  0  0  0  0  0  0  0
  149.1590  157.1610  132.5320 H   0  0  0  0  0  0  0  0  0  0  0  0
  151.0026  158.3595  131.3545 H   0  0  0  0  0  0  0  0  0  0  0  0
  150.6396  160.6703  130.4848 H   0  0  0  0  0  0  0  0  0  0  0  0
  148.4290  161.7870  130.7908 H   0  0  0  0  0  0  0  0  0  0  0  0
  146.5787  160.6002  131.9694 H   0  0  0  0  0  0  0  0  0  0  0  0
  147.9018  156.4123  133.6761 H   0  0  0  0  0  0  0  0  0  0  0  0
  148.8823  152.9261  137.4054 H   0  0  0  0  0  0  0  0  0  0  0  0
  148.8182  154.6308  136.8404 H   0  0  0  0  0  0  0  0  0  0  0  0
  1  2  1  0
  2  3  2  0
  2  4  1  0
  4  5  2  0
  5  6  1  0
  6  7  2  0
  7  8  1  0
  8  9  2  0
  9 10  1  0
 10 11  2  0
 11 12  1  0
 12 13  2  0
 13 14  1  0
 14 15  2  0
  9 16  1  0
 16 17  2  0
 17 18  1  0
 18 19  1  0
 19 20  2  0
 19 21  1  0
 21 22  1  0
 22 23  1  0
 23 24  1  0
 24 25  2  0
 24 26  1  0
 24 27  1  0
 18  4  1  0
 17  6  1  0
 15 10  1  0
  1 28  1  0
  1 29  1  0
  5 30  1  0
  7 31  1  0
  8 32  1  0
 11 33  1  0
 12 34  1  0
 13 35  1  0
 14 36  1  0
 15 37  1  0
 16 38  1  0
 22 39  1  0
 22 40  1  0
M  CHG  2  26  -1  27  -1
M  END
>  <UniqueID>  (62) 
62

>  <SMILES>  (62) 
NC(=O)c1cc2ccc(-c3ccccc3)cc2n1C(=O)OCOP(=O)([O-])[O-]

>  <Energy>  (62) 
84.75281608283855

>  <Genealogy>  (62) 
NC(=O)c1cc2ccc(-c3ccccc3)cc2n1C(=O)OCOP(=O)([O-])[O-] (protonated)
NC(=O)c1cc2ccc(-c3ccccc3)cc2n1C(=O)OCOP(=O)([O-])[O-] (3D coordinates assigned)
NC(=O)c1cc2ccc(-c3ccccc3)cc2n1C(=O)OCOP(=O)([O-])[O-] (optimized conformer: 84.75281608283855 kcal/mol)

>  <smiles>  (62) 
NC(=O)c1cc2ccc(-c3ccccc3)cc2n1C(=O)OCOP(=O)(O)O

>  <score_type>  (62) 
oracle

>  <origin>  (62) 
adg

>  <m_score__min__energy>  (62) 
-7.8899999999999997

>  <m_primary>  (62) 
energy

$$$$
64:0
     RDKit          3D

 44 46  0  0  0  0  0  0  0  0999 V2000
  145.7850  151.4850  132.1450 N   0  0  0  0  0  0  0  0  0  0  0  0
  144.9930  152.4600  132.8260 C   0  0  0  0  0  0  0  0  0  0  0  0
  143.8850  152.1170  133.3200 O   0  0  0  0  0  0  0  0  0  0  0  0
  145.4300  153.8700  132.9290 C   0  0  0  0  0  0  0  0  0  0  0  0
  144.5500  154.9460  133.0070 C   0  0  0  0  0  0  0  0  0  0  0  0
  145.3490  156.0620  133.1130 C   0  0  0  0  0  0  0  0  0  0  0  0
  144.9980  157.3970  133.2840 C   0  0  0  0  0  0  0  0  0  0  0  0
  146.0330  158.3290  133.4750 C   0  0  0  0  0  0  0  0  0  0  0  0
  147.3850  157.9070  133.5210 C   0  0  0  0  0  0  0  0  0  0  0  0
  148.4810  158.9060  133.7790 C   0  0  0  0  0  0  0  0  0  0  0  0
  148.9040  159.5240  132.5250 N   0  0  0  0  0  0  0  0  0  0  0  0
  148.3270  160.5840  131.9300 C   0  0  0  0  0  0  0  0  0  0  0  0
  149.0040  160.8410  130.7570 C   0  0  0  0  0  0  0  0  0  0  0  0
  149.9900  159.8740  130.7000 C   0  0  0  0  0  0  0  0  0  0  0  0
  149.9080  159.0790  131.7850 N   0  0  0  0  0  0  0  0  0  0  0  0
  147.7040  156.5470  133.3190 C   0  0  0  0  0  0  0  0  0  0  0  0
  146.6550  155.6440  133.1030 C   0  0  0  0  0  0  0  0  0  0  0  0
  146.7230  154.3020  132.9830 N   0  0  0  0  0  0  0  0  0  0  0  0
  147.9080  153.4940  133.0450 C   0  0  0  0  0  0  0  0  0  0  0  0
  148.4790  153.2980  134.1530 O   0  0  0  0  0  0  0  0  0  0  0  0
  148.4280  152.9360  131.8710 O   0  0  0  0  0  0  0  0  0  0  0  0
  149.6630  152.2270  131.8430 C   0  0  0  0  0  0  0  0  0  0  0  0
  149.4730  150.8450  132.4840 C   0  0  2  0  0  0  0  0  0  0  0  0
  148.1100  150.6290  132.7460 O   0  0  0  0  0  0  0  0  0  0  0  0
  150.2530  150.7400  133.8020 C   0  0  0  0  0  0  0  0  0  0  0  0
  149.4000  150.9260  134.9000 O   0  0  0  0  0  0  0  0  0  0  0  0
  146.6340  151.7600  131.6040 H   0  0  0  0  0  0  0  0  0  0  0  0
  145.4890  150.4850  132.1300 H   0  0  0  0  0  0  0  0  0  0  0  0
  143.4507  154.9117  132.9880 H   0  0  0  0  0  0  0  0  0  0  0  0
  143.9446  157.7133  133.2702 H   0  0  0  0  0  0  0  0  0  0  0  0
  145.7911  159.3959  133.5898 H   0  0  0  0  0  0  0  0  0  0  0  0
  148.1097  159.6850  134.4611 H   0  0  0  0  0  0  0  0  0  0  0  0
  149.3394  158.3888  134.2324 H   0  0  0  0  0  0  0  0  0  0  0  0
  147.4640  161.1481  132.3134 H   0  0  0  0  0  0  0  0  0  0  0  0
  148.8037  161.6395  130.0274 H   0  0  0  0  0  0  0  0  0  0  0  0
  150.7291  159.7693  129.8920 H   0  0  0  0  0  0  0  0  0  0  0  0
  148.7494  156.2049  133.3309 H   0  0  0  0  0  0  0  0  0  0  0  0
  149.9929  152.1057  130.8007 H   0  0  0  0  0  0  0  0  0  0  0  0
  150.4228  152.7907  132.4042 H   0  0  0  0  0  0  0  0  0  0  0  0
  149.8514  150.0870  131.7824 H   0  0  0  0  0  0  0  0  0  0  0  0
  147.8120  151.3550  133.3540 H   0  0  0  0  0  0  0  0  0  0  0  0
  150.7159  149.7444  133.8691 H   0  0  0  0  0  0  0  0  0  0  0  0
  151.0259  151.5226  133.8185 H   0  0  0  0  0  0  0  0  0  0  0  0
  148.5090  151.1630  134.5260 H   0  0  0  0  0  0  0  0  0  0  0  0
  1  2  1  0
  2  3  2  0
  2  4  1  0
  4  5  2  0
  5  6  1  0
  6  7  2  0
  7  8  1  0
  8  9  2  0
  9 10  1  0
 10 11  1  0
 11 12  1  0
 12 13  2  0
 13 14  1  0
 14 15  2  0
  9 16  1  0
 16 17  2  0
 17 18  1  0
 18 19  1  0
 19 20  2  0
 19 21  1  0
 21 22  1  0
 22 23  1  0
 23 24  1  0
 23 25  1  0
 25 26  1  0
 18  4  1  0
 17  6  1  0
 15 11  1  0
  1 27  1  0
  1 28  1  0
  5 29  1  0
  7 30  1  0
  8 31  1  0
 10 32  1  0
 10 33  1  0
 12 34  1  0
 13 35  1  0
 14 36  1  0
 16 37  1  0
 22 38  1  0
 22 39  1  0
 23 40  1  6
 24 41  1  0
 25 42  1  0
 25 43  1  0
 26 44  1  0
M  END
>  <UniqueID>  (63) 
63

>  <SMILES>  (63) 
NC(=O)c1cc2ccc(Cn3cccn3)cc2n1C(=O)OC[C@H](O)CO

>  <Energy>  (63) 
107.907457935921

>  <Genealogy>  (63) 
NC(=O)c1cc2ccc(Cn3cccn3)cc2n1C(=O)OC[C@H](O)CO (chirality)
NC(=O)c1cc2ccc(Cn3cccn3)cc2n1C(=O)OC[C@H](O)CO (3D coordinates assigned)
NC(=O)c1cc2ccc(Cn3cccn3)cc2n1C(=O)OC[C@H](O)CO (optimized conformer: 107.907457935921 kcal/mol)

>  <smiles>  (63) 
NC(=O)c1cc2ccc(Cn3cccn3)cc2n1C(=O)OCC(O)CO

>  <score_type>  (63) 
oracle

>  <origin>  (63) 
adg

>  <m_score__min__energy>  (63) 
-6.8200000000000003

>  <m_primary>  (63) 
energy

$$$$
65:0
     RDKit          3D

 42 43  0  0  0  0  0  0  0  0999 V2000
  143.0860  155.9120  135.3510 C   0  0  0  0  0  0  0  0  0  0  0  0
  142.4790  156.7210  134.2830 N   0  0  2  0  0  0  0  0  0  0  0  0
  141.3960  156.0120  133.6410 C   0  0  0  0  0  0  0  0  0  0  0  0
  141.3660  154.7490  133.6430 O   0  0  0  0  0  0  0  0  0  0  0  0
  140.3930  156.7390  132.9890 O   0  0  0  0  0  0  0  0  0  0  0  0
  139.0570  156.8550  133.4770 C   0  0  0  0  0  0  0  0  0  0  0  0
  138.4640  158.2250  133.1450 C   0  0  0  0  0  0  0  0  0  0  0  0
  139.4720  159.1050  132.7240 O   0  0  0  0  0  0  0  0  0  0  0  0
  143.4870  157.1010  133.3220 C   0  0  0  0  0  0  0  0  0  0  0  0
  143.9390  156.2560  132.4990 O   0  0  0  0  0  0  0  0  0  0  0  0
  144.1080  158.3930  133.4060 N   0  0  0  0  0  0  0  0  0  0  0  0
  143.5310  159.5860  133.7180 C   0  0  0  0  0  0  0  0  0  0  0  0
  142.0850  159.8210  133.9010 C   0  0  0  0  0  0  0  0  0  0  0  0
  141.3390  159.0050  134.8010 N   0  0  0  0  0  0  0  0  0  0  0  0
  141.5050  160.7580  133.2920 O   0  0  0  0  0  0  0  0  0  0  0  0
  144.4940  160.5930  133.7760 C   0  0  0  0  0  0  0  0  0  0  0  0
  145.6880  159.9710  133.4870 C   0  0  0  0  0  0  0  0  0  0  0  0
  146.9780  160.4890  133.4240 C   0  0  0  0  0  0  0  0  0  0  0  0
  148.0290  159.6040  133.1280 C   0  0  0  0  0  0  0  0  0  0  0  0
  147.7720  158.2300  132.8950 C   0  0  0  0  0  0  0  0  0  0  0  0
  148.9100  157.2880  132.6140 C   0  0  0  0  0  0  0  0  0  0  0  0
  148.4400  155.8660  132.6630 C   0  0  0  0  0  0  0  0  0  0  0  0
  149.2420  154.9470  132.6200 O   0  0  0  0  0  0  0  0  0  0  0  0
  146.4510  157.7390  132.9770 C   0  0  0  0  0  0  0  0  0  0  0  0
  145.4260  158.6440  133.2670 C   0  0  0  0  0  0  0  0  0  0  0  0
  142.7854  156.3127  136.3303 H   0  0  0  0  0  0  0  0  0  0  0  0
  142.7449  154.8701  135.2607 H   0  0  0  0  0  0  0  0  0  0  0  0
  144.1817  155.9482  135.2607 H   0  0  0  0  0  0  0  0  0  0  0  0
  142.0860  157.5840  134.7260 H   0  0  0  0  0  0  0  0  0  0  0  0
  138.4367  156.0737  133.0137 H   0  0  0  0  0  0  0  0  0  0  0  0
  139.0743  156.7387  134.5707 H   0  0  0  0  0  0  0  0  0  0  0  0
  137.7213  158.1134  132.3413 H   0  0  0  0  0  0  0  0  0  0  0  0
  137.9861  158.6351  134.0469 H   0  0  0  0  0  0  0  0  0  0  0  0
  140.2770  158.8950  133.2650 H   0  0  0  0  0  0  0  0  0  0  0  0
  140.6230  158.3330  134.4470 H   0  0  0  0  0  0  0  0  0  0  0  0
  144.3339  161.6571  134.0040 H   0  0  0  0  0  0  0  0  0  0  0  0
  147.1692  161.5578  133.6003 H   0  0  0  0  0  0  0  0  0  0  0  0
  149.0609  159.9815  133.0767 H   0  0  0  0  0  0  0  0  0  0  0  0
  149.3169  157.5003  131.6143 H   0  0  0  0  0  0  0  0  0  0  0  0
  149.6874  157.4318  133.3789 H   0  0  0  0  0  0  0  0  0  0  0  0
  147.3643  155.6488  132.7383 H   0  0  0  0  0  0  0  0  0  0  0  0
  146.2341  156.6725  132.8169 H   0  0  0  0  0  0  0  0  0  0  0  0
  1  2  1  0
  2  3  1  0
  3  4  2  0
  3  5  1  0
  5  6  1  0
  6  7  1  0
  7  8  1  0
  2  9  1  0
  9 10  2  0
  9 11  1  0
 11 12  1  0
 12 13  1  0
 13 14  1  0
 13 15  2  0
 12 16  2  0
 16 17  1  0
 17 18  2  0
 18 19  1  0
 19 20  2  0
 20 21  1  0
 21 22  1  0
 22 23  2  0
 20 24  1  0
 24 25  2  0
 25 11  1  0
 25 17  1  0
  1 26  1  0
  1 27  1  0
  1 28  1  0
  2 29  1  1
  6 30  1  0
  6 31  1  0
  7 32  1  0
  7 33  1  0
  8 34  1  0
 14 35  1  0
 16 36  1  0
 18 37  1  0
 19 38  1  0
 21 39  1  0
 21 40  1  0
 22 41  1  0
 24 42  1  0
M  CHG  2   2   1  14  -1
M  END
>  <UniqueID>  (64) 
64

>  <SMILES>  (64) 
C[NH+](C(=O)OCCO)C(=O)n1c(C([NH-])=O)cc2ccc(CC=O)cc21

>  <Energy>  (64) 
78.05212323258223

>  <Genealogy>  (64) 
C[NH+](C(=O)OCCO)C(=O)n1c(C([NH-])=O)cc2ccc(CC=O)cc21 (protonated)
C[NH+](C(=O)OCCO)C(=O)n1c(C([NH-])=O)cc2ccc(CC=O)cc21 (3D coordinates assigned)
C[NH+](C(=O)OCCO)C(=O)n1c(C([NH-])=O)cc2ccc(CC=O)cc21 (optimized conformer: 78.05212323258223 kcal/mol)

>  <smiles>  (64) 
CN(C(=O)OCCO)C(=O)n1c(C(N)=O)cc2ccc(CC=O)cc21

>  <score_type>  (64) 
oracle

>  <origin>  (64) 
adg

>  <m_score__min__energy>  (64) 
-5.6500000000000004

>  <m_primary>  (64) 
energy

$$$$
66:0
     RDKit          3D

 47 49  0  0  0  0  0  0  0  0999 V2000
  148.2930  150.7690  132.2560 C   0  0  0  0  0  0  0  0  0  0  0  0
  148.1240  152.2160  132.4390 N   0  0  0  0  0  0  0  0  0  0  0  0
  149.2240  153.0300  132.4360 C   0  0  0  0  0  0  0  0  0  0  0  0
  149.0900  154.4090  132.6090 C   0  0  0  0  0  0  0  0  0  0  0  0
  147.8180  154.9710  132.7860 C   0  0  0  0  0  0  0  0  0  0  0  0
  147.6570  156.4360  132.9700 C   0  0  0  0  0  0  0  0  0  0  0  0
  148.7830  157.2980  132.8900 C   0  0  0  0  0  0  0  0  0  0  0  0
  148.6390  158.6860  133.0510 C   0  0  0  0  0  0  0  0  0  0  0  0
  147.3650  159.1860  133.3000 C   0  0  0  0  0  0  0  0  0  0  0  0
  146.9420  160.4850  133.4630 C   0  0  0  0  0  0  0  0  0  0  0  0
  145.5670  160.4020  133.6660 C   0  0  0  0  0  0  0  0  0  0  0  0
  144.7170  161.5730  133.9660 C   0  0  0  0  0  0  0  0  0  0  0  0
  143.3110  161.5390  133.7290 N   0  0  0  0  0  0  0  0  0  0  0  0
  145.2300  162.6000  134.4840 O   0  0  0  0  0  0  0  0  0  0  0  0
  145.1540  159.1040  133.6230 N   0  0  0  0  0  0  0  0  0  0  0  0
  143.8070  158.6090  133.6870 C   0  0  0  0  0  0  0  0  0  0  0  0
  143.3250  157.9870  132.7020 O   0  0  0  0  0  0  0  0  0  0  0  0
  143.0400  158.8450  134.8380 O   0  0  0  0  0  0  0  0  0  0  0  0
  141.6200  158.6820  134.9620 C   0  0  0  0  0  0  0  0  0  0  0  0
  141.2010  159.3540  136.2780 C   0  0  0  0  0  0  0  0  0  0  0  0
  140.8920  159.3740  133.7940 C   0  0  0  0  0  0  0  0  0  0  0  0
  141.2460  157.1880  135.0260 C   0  0  0  0  0  0  0  0  0  0  0  0
  146.2690  158.3720  133.4000 C   0  0  0  0  0  0  0  0  0  0  0  0
  146.3780  156.9880  133.2240 C   0  0  0  0  0  0  0  0  0  0  0  0
  146.7020  154.1220  132.7860 C   0  0  0  0  0  0  0  0  0  0  0  0
  146.8720  152.7440  132.6120 C   0  0  0  0  0  0  0  0  0  0  0  0
  145.8550  151.9970  132.6180 O   0  0  0  0  0  0  0  0  0  0  0  0
  148.3502  150.2793  133.2393 H   0  0  0  0  0  0  0  0  0  0  0  0
  147.4356  150.3676  131.6958 H   0  0  0  0  0  0  0  0  0  0  0  0
  149.2198  150.5760  131.6958 H   0  0  0  0  0  0  0  0  0  0  0  0
  150.2239  152.5935  132.2959 H   0  0  0  0  0  0  0  0  0  0  0  0
  149.9814  155.0536  132.6064 H   0  0  0  0  0  0  0  0  0  0  0  0
  149.7798  156.8736  132.6997 H   0  0  0  0  0  0  0  0  0  0  0  0
  149.5076  159.3574  132.9822 H   0  0  0  0  0  0  0  0  0  0  0  0
  147.5588  161.3954  133.4382 H   0  0  0  0  0  0  0  0  0  0  0  0
  142.8040  160.6320  133.6390 H   0  0  0  0  0  0  0  0  0  0  0  0
  141.5711  158.7604  137.1269 H   0  0  0  0  0  0  0  0  0  0  0  0
  141.6280  160.3666  136.3248 H   0  0  0  0  0  0  0  0  0  0  0  0
  140.1038  159.4163  136.3248 H   0  0  0  0  0  0  0  0  0  0  0  0
  140.1488  160.0804  134.1922 H   0  0  0  0  0  0  0  0  0  0  0  0
  141.6225  159.9188  133.1779 H   0  0  0  0  0  0  0  0  0  0  0  0
  140.3849  158.6168  133.1779 H   0  0  0  0  0  0  0  0  0  0  0  0
  141.1675  156.8744  136.0774 H   0  0  0  0  0  0  0  0  0  0  0  0
  140.2805  157.0298  134.5231 H   0  0  0  0  0  0  0  0  0  0  0  0
  142.0231  156.5936  134.5231 H   0  0  0  0  0  0  0  0  0  0  0  0
  145.4891  156.3427  133.2817 H   0  0  0  0  0  0  0  0  0  0  0  0
  145.6933  154.5390  132.9227 H   0  0  0  0  0  0  0  0  0  0  0  0
  1  2  1  0
  2  3  1  0
  3  4  2  0
  4  5  1  0
  5  6  1  0
  6  7  2  0
  7  8  1  0
  8  9  2  0
  9 10  1  0
 10 11  2  0
 11 12  1  0
 12 13  1  0
 12 14  2  0
 11 15  1  0
 15 16  1  0
 16 17  2  0
 16 18  1  0
 18 19  1  0
 19 20  1  0
 19 21  1  0
 19 22  1  0
 15 23  1  0
 23 24  2  0
  5 25  2  0
 25 26  1  0
 26 27  2  0
 26  2  1  0
 24  6  1  0
 23  9  1  0
  1 28  1  0
  1 29  1  0
  1 30  1  0
  3 31  1  0
  4 32  1  0
  7 33  1  0
  8 34  1  0
 10 35  1  0
 13 36  1  0
 20 37  1  0
 20 38  1  0
 20 39  1  0
 21 40  1  0
 21 41  1  0
 21 42  1  0
 22 43  1  0
 22 44  1  0
 22 45  1  0
 24 46  1  0
 25 47  1  0
M  CHG  1  13  -1
M  END
>  <UniqueID>  (65) 
65

>  <SMILES>  (65) 
Cn1ccc(-c2ccc3cc(C([NH-])=O)n(C(=O)OC(C)(C)C)c3c2)cc1=O

>  <Energy>  (65) 
90.51600052552925

>  <Genealogy>  (65) 
Cn1ccc(-c2ccc3cc(C([NH-])=O)n(C(=O)OC(C)(C)C)c3c2)cc1=O (protonated)
Cn1ccc(-c2ccc3cc(C([NH-])=O)n(C(=O)OC(C)(C)C)c3c2)cc1=O (3D coordinates assigned)
Cn1ccc(-c2ccc3cc(C([NH-])=O)n(C(=O)OC(C)(C)C)c3c2)cc1=O (optimized conformer: 90.51600052552925 kcal/mol)

>  <smiles>  (65) 
Cn1ccc(-c2ccc3cc(C(N)=O)n(C(=O)OC(C)(C)C)c3c2)cc1=O

>  <score_type>  (65) 
oracle

>  <origin>  (65) 
adg

>  <m_score__min__energy>  (65) 
-8.3000000000000007

>  <m_primary>  (65) 
energy

$$$$
67:0
     RDKit          3D

 40 41  0  0  0  0  0  0  0  0999 V2000
  147.8890  155.2870  132.6020 C   0  0  0  0  0  0  0  0  0  0  0  0
  147.6810  156.7440  132.8910 C   0  0  0  0  0  0  0  0  0  0  0  0
  148.7880  157.6280  132.9140 C   0  0  0  0  0  0  0  0  0  0  0  0
  148.6030  158.9990  133.1590 C   0  0  0  0  0  0  0  0  0  0  0  0
  147.3040  159.4570  133.3570 C   0  0  0  0  0  0  0  0  0  0  0  0
  146.8420  160.7240  133.6350 C   0  0  0  0  0  0  0  0  0  0  0  0
  145.4590  160.5990  133.7380 C   0  0  0  0  0  0  0  0  0  0  0  0
  144.5480  161.7420  133.9450 C   0  0  0  0  0  0  0  0  0  0  0  0
  143.1460  161.6100  133.7260 N   0  0  0  0  0  0  0  0  0  0  0  0
  145.0190  162.8640  134.2770 O   0  0  0  0  0  0  0  0  0  0  0  0
  145.0800  159.3060  133.5390 N   0  0  0  0  0  0  0  0  0  0  0  0
  143.7630  158.7520  133.6710 C   0  0  0  0  0  0  0  0  0  0  0  0
  143.2250  158.1740  132.6880 O   0  0  0  0  0  0  0  0  0  0  0  0
  143.1120  158.8190  134.9100 O   0  0  0  0  0  0  0  0  0  0  0  0
  141.7410  159.0520  135.0870 C   0  0  0  0  0  0  0  0  0  0  0  0
  141.3420  160.1280  135.6120 O   0  0  0  0  0  0  0  0  0  0  0  0
  140.7800  158.0550  134.6770 N   0  0  0  0  0  0  0  0  0  0  0  0
  140.8970  156.7000  135.2300 C   0  0  0  0  0  0  0  0  0  0  0  0
  139.6900  158.3680  133.7300 C   0  0  2  0  0  0  0  0  0  0  0  0
  139.0890  157.0830  133.1500 C   0  0  0  0  0  0  0  0  0  0  0  0
  140.1640  159.3190  132.6610 C   0  0  0  0  0  0  0  0  0  0  0  0
  140.0910  158.9810  131.4500 O   0  0  0  0  0  0  0  0  0  0  0  0
  140.6600  160.5770  132.9860 O   0  0  0  0  0  0  0  0  0  0  0  0
  146.2200  158.6190  133.3050 C   0  0  0  0  0  0  0  0  0  0  0  0
  146.3750  157.2460  133.0800 C   0  0  0  0  0  0  0  0  0  0  0  0
  147.9681  154.7330  133.5490 H   0  0  0  0  0  0  0  0  0  0  0  0
  147.0366  154.9028  132.0225 H   0  0  0  0  0  0  0  0  0  0  0  0
  148.8149  155.1567  132.0225 H   0  0  0  0  0  0  0  0  0  0  0  0
  149.8012  157.2375  132.7385 H   0  0  0  0  0  0  0  0  0  0  0  0
  149.4588  159.6892  133.1933 H   0  0  0  0  0  0  0  0  0  0  0  0
  147.4389  161.6406  133.7511 H   0  0  0  0  0  0  0  0  0  0  0  0
  142.6440  160.7300  133.9810 H   0  0  0  0  0  0  0  0  0  0  0  0
  140.8926  156.7508  136.3288 H   0  0  0  0  0  0  0  0  0  0  0  0
  140.0482  156.0897  134.8877 H   0  0  0  0  0  0  0  0  0  0  0  0
  141.8378  156.2443  134.8877 H   0  0  0  0  0  0  0  0  0  0  0  0
  138.8838  158.8802  134.2756 H   0  0  0  0  0  0  0  0  0  0  0  0
  138.7789  156.4200  133.9712 H   0  0  0  0  0  0  0  0  0  0  0  0
  138.2148  157.3338  132.5313 H   0  0  0  0  0  0  0  0  0  0  0  0
  139.8419  156.5728  132.5313 H   0  0  0  0  0  0  0  0  0  0  0  0
  145.5028  156.5763  133.0512 H   0  0  0  0  0  0  0  0  0  0  0  0
  1  2  1  0
  2  3  2  0
  3  4  1  0
  4  5  2  0
  5  6  1  0
  6  7  2  0
  7  8  1  0
  8  9  1  0
  8 10  2  0
  7 11  1  0
 11 12  1  0
 12 13  2  0
 12 14  1  0
 14 15  1  0
 15 16  2  0
 15 17  1  0
 17 18  1  0
 17 19  1  0
 19 20  1  0
 19 21  1  0
 21 22  2  0
 21 23  1  0
 11 24  1  0
 24 25  2  0
 25  2  1  0
 24  5  1  0
  1 26  1  0
  1 27  1  0
  1 28  1  0
  3 29  1  0
  4 30  1  0
  6 31  1  0
  9 32  1  0
 18 33  1  0
 18 34  1  0
 18 35  1  0
 19 36  1  1
 20 37  1  0
 20 38  1  0
 20 39  1  0
 25 40  1  0
M  CHG  2   9  -1  23  -1
M  END
>  <UniqueID>  (66) 
66

>  <SMILES>  (66) 
Cc1ccc2cc(C([NH-])=O)n(C(=O)OC(=O)N(C)[C@H](C)C(=O)[O-])c2c1

>  <Energy>  (66) 
75.96926206639687

>  <Genealogy>  (66) 
Cc1ccc2cc(C([NH-])=O)n(C(=O)OC(=O)N(C)C(C)C(=O)[O-])c2c1 (protonated)
Cc1ccc2cc(C([NH-])=O)n(C(=O)OC(=O)N(C)[C@H](C)C(=O)[O-])c2c1 (chirality)
Cc1ccc2cc(C([NH-])=O)n(C(=O)OC(=O)N(C)[C@H](C)C(=O)[O-])c2c1 (3D coordinates assigned)
Cc1ccc2cc(C([NH-])=O)n(C(=O)OC(=O)N(C)[C@H](C)C(=O)[O-])c2c1 (optimized conformer: 75.96926206639687 kcal/mol)

>  <smiles>  (66) 
Cc1ccc2cc(C(N)=O)n(C(=O)OC(=O)N(C)C(C)C(=O)O)c2c1

>  <score_type>  (66) 
oracle

>  <origin>  (66) 
adg

>  <m_score__min__energy>  (66) 
-6.71

>  <m_primary>  (66) 
energy

$$$$
68:0
     RDKit          3D

 56 59  0  0  0  0  0  0  0  0999 V2000
  148.0350  154.5840  133.4210 C   0  0  0  0  0  0  0  0  0  0  0  0
  146.9980  154.7380  134.5460 C   0  0  0  0  0  0  0  0  0  0  0  0
  147.6800  154.4840  135.8970 C   0  0  0  0  0  0  0  0  0  0  0  0
  145.8520  153.7210  134.3730 C   0  0  0  0  0  0  0  0  0  0  0  0
  146.4960  156.0790  134.5740 O   0  0  0  0  0  0  0  0  0  0  0  0
  145.6790  156.6930  133.6000 C   0  0  0  0  0  0  0  0  0  0  0  0
  145.2110  156.0170  132.6410 O   0  0  0  0  0  0  0  0  0  0  0  0
  145.4050  158.1080  133.6900 N   0  0  0  0  0  0  0  0  0  0  0  0
  146.3050  159.1250  133.5640 C   0  0  0  0  0  0  0  0  0  0  0  0
  147.7730  158.9870  133.5400 C   0  0  0  0  0  0  0  0  0  0  0  0
  148.4280  157.9570  134.2860 N   0  0  0  0  0  0  0  0  0  0  0  0
  148.4630  159.8310  132.9060 O   0  0  0  0  0  0  0  0  0  0  0  0
  145.6660  160.3600  133.5360 C   0  0  0  0  0  0  0  0  0  0  0  0
  144.3320  160.0790  133.6810 C   0  0  0  0  0  0  0  0  0  0  0  0
  143.2460  160.9460  133.7410 C   0  0  0  0  0  0  0  0  0  0  0  0
  141.9690  160.3920  133.9130 C   0  0  0  0  0  0  0  0  0  0  0  0
  141.7980  158.9900  134.0230 C   0  0  0  0  0  0  0  0  0  0  0  0
  140.4900  158.4390  134.2810 N   0  0  0  0  0  0  0  0  0  0  0  0
  139.8150  157.6270  133.2580 C   0  0  0  0  0  0  0  0  0  0  0  0
  139.1730  158.5070  132.2180 C   0  0  0  0  0  0  0  0  0  0  0  0
  139.9680  159.2580  131.3400 C   0  0  0  0  0  0  0  0  0  0  0  0
  139.3680  160.0920  130.3960 C   0  0  0  0  0  0  0  0  0  0  0  0
  137.9740  160.1700  130.3390 C   0  0  0  0  0  0  0  0  0  0  0  0
  137.2160  159.4370  131.1940 N   0  0  0  0  0  0  0  0  0  0  0  0
  137.7760  158.6160  132.1250 C   0  0  0  0  0  0  0  0  0  0  0  0
  139.9270  158.4980  135.6370 C   0  0  0  0  0  0  0  0  0  0  0  0
  140.5440  157.4920  136.6020 C   0  0  0  0  0  0  0  0  0  0  0  0
  140.9120  158.9650  136.6990 C   0  0  0  0  0  0  0  0  0  0  0  0
  142.9250  158.1390  133.9380 C   0  0  0  0  0  0  0  0  0  0  0  0
  144.1940  158.7150  133.7760 C   0  0  0  0  0  0  0  0  0  0  0  0
  149.0328  154.4358  133.8598 H   0  0  0  0  0  0  0  0  0  0  0  0
  147.7751  153.7146  132.7992 H   0  0  0  0  0  0  0  0  0  0  0  0
  148.0390  155.4914  132.7992 H   0  0  0  0  0  0  0  0  0  0  0  0
  146.9873  154.7420  136.7117 H   0  0  0  0  0  0  0  0  0  0  0  0
  147.9573  153.4223  135.9739 H   0  0  0  0  0  0  0  0  0  0  0  0
  148.5842  155.1056  135.9739 H   0  0  0  0  0  0  0  0  0  0  0  0
  145.4925  153.4019  135.3624 H   0  0  0  0  0  0  0  0  0  0  0  0
  145.0269  154.1895  133.8166 H   0  0  0  0  0  0  0  0  0  0  0  0
  146.2192  152.8460  133.8166 H   0  0  0  0  0  0  0  0  0  0  0  0
  147.8860  157.3230  134.9220 H   0  0  0  0  0  0  0  0  0  0  0  0
  149.4680  157.8820  134.2750 H   0  0  0  0  0  0  0  0  0  0  0  0
  146.1313  161.3502  133.4219 H   0  0  0  0  0  0  0  0  0  0  0  0
  143.3846  162.0339  133.6561 H   0  0  0  0  0  0  0  0  0  0  0  0
  141.0912  161.0530  133.9630 H   0  0  0  0  0  0  0  0  0  0  0  0
  140.5532  156.9726  132.7714 H   0  0  0  0  0  0  0  0  0  0  0  0
  139.0328  157.0251  133.7436 H   0  0  0  0  0  0  0  0  0  0  0  0
  141.0645  159.1895  131.3956 H   0  0  0  0  0  0  0  0  0  0  0  0
  139.9862  160.6822  129.7035 H   0  0  0  0  0  0  0  0  0  0  0  0
  137.4903  160.8261  129.6004 H   0  0  0  0  0  0  0  0  0  0  0  0
  137.1334  158.0375  132.8050 H   0  0  0  0  0  0  0  0  0  0  0  0
  138.9039  158.7783  135.3461 H   0  0  0  0  0  0  0  0  0  0  0  0
  139.9241  157.0273  137.3829 H   0  0  0  0  0  0  0  0  0  0  0  0
  141.1089  156.5545  136.4926 H   0  0  0  0  0  0  0  0  0  0  0  0
  140.5586  159.5649  137.5506 H   0  0  0  0  0  0  0  0  0  0  0  0
  141.8540  159.5329  136.6892 H   0  0  0  0  0  0  0  0  0  0  0  0
  142.8086  157.0468  133.9978 H   0  0  0  0  0  0  0  0  0  0  0  0
  1  2  1  0
  2  3  1  0
  2  4  1  0
  2  5  1  0
  5  6  1  0
  6  7  2  0
  6  8  1  0
  8  9  1  0
  9 10  1  0
 10 11  1  0
 10 12  2  0
  9 13  2  0
 13 14  1  0
 14 15  2  0
 15 16  1  0
 16 17  2  0
 17 18  1  0
 18 19  1  0
 19 20  1  0
 20 21  2  0
 21 22  1  0
 22 23  2  0
 23 24  1  0
 24 25  2  0
 18 26  1  0
 26 27  1  0
 27 28  1  0
 17 29  1  0
 29 30  2  0
 30  8  1  0
 30 14  1  0
 25 20  1  0
 28 26  1  0
  1 31  1  0
  1 32  1  0
  1 33  1  0
  3 34  1  0
  3 35  1  0
  3 36  1  0
  4 37  1  0
  4 38  1  0
  4 39  1  0
 11 40  1  0
 11 41  1  0
 13 42  1  0
 15 43  1  0
 16 44  1  0
 19 45  1  0
 19 46  1  0
 21 47  1  0
 22 48  1  0
 23 49  1  0
 25 50  1  0
 26 51  1  0
 27 52  1  0
 27 53  1  0
 28 54  1  0
 28 55  1  0
 29 56  1  0
M  END
>  <UniqueID>  (67) 
67

>  <SMILES>  (67) 
CC(C)(C)OC(=O)n1c(C(N)=O)cc2ccc(N(Cc3cccnc3)C3CC3)cc21

>  <Energy>  (67) 
360.61283865632464

>  <Genealogy>  (67) 
CC(C)(C)OC(=O)n1c(C(N)=O)cc2ccc(N(Cc3cccnc3)C3CC3)cc21 (3D coordinates assigned)
CC(C)(C)OC(=O)n1c(C(N)=O)cc2ccc(N(Cc3cccnc3)C3CC3)cc21 (nonaromatic ring conformer: 360.61283865632464 kcal/mol)

>  <smiles>  (67) 
CC(C)(C)OC(=O)n1c(C(N)=O)cc2ccc(N(Cc3cccnc3)C3CC3)cc21

>  <score_type>  (67) 
oracle

>  <origin>  (67) 
adg

>  <m_score__min__energy>  (67) 
-9.5800000000000001

>  <m_primary>  (67) 
energy

$$$$
69:0
     RDKit          3D

 39 41  0  0  0  0  0  0  0  0999 V2000
  138.4840  157.5580  133.7810 C   0  0  0  0  0  0  0  0  0  0  0  0
  139.7810  158.0350  134.3410 C   0  0  0  0  0  0  0  0  0  0  0  0
  140.0240  158.1180  135.6650 N   0  0  0  0  0  0  0  0  0  0  0  0
  141.3010  158.5300  135.7360 C   0  0  0  0  0  0  0  0  0  0  0  0
  141.8020  158.6750  134.4570 C   0  0  0  0  0  0  0  0  0  0  0  0
  143.1690  159.1030  134.0700 C   0  0  0  0  0  0  0  0  0  0  0  0
  143.4680  160.4870  133.9670 C   0  0  0  0  0  0  0  0  0  0  0  0
  144.7490  160.9230  133.5900 C   0  0  0  0  0  0  0  0  0  0  0  0
  145.7160  159.9590  133.3300 C   0  0  0  0  0  0  0  0  0  0  0  0
  147.0180  160.1050  132.9150 C   0  0  0  0  0  0  0  0  0  0  0  0
  147.5140  158.8100  132.7960 C   0  0  0  0  0  0  0  0  0  0  0  0
  148.9090  158.5060  132.4230 C   0  0  0  0  0  0  0  0  0  0  0  0
  149.2720  157.2320  131.8890 N   0  0  0  0  0  0  0  0  0  0  0  0
  149.8070  159.3660  132.6290 O   0  0  0  0  0  0  0  0  0  0  0  0
  146.5540  157.8970  133.1140 N   0  0  0  0  0  0  0  0  0  0  0  0
  146.6430  156.4670  132.9950 C   0  0  0  0  0  0  0  0  0  0  0  0
  145.8330  155.8440  132.2560 O   0  0  0  0  0  0  0  0  0  0  0  0
  147.6280  155.7730  133.7070 O   0  0  0  0  0  0  0  0  0  0  0  0
  147.5220  154.3930  134.0540 C   0  0  0  0  0  0  0  0  0  0  0  0
  148.2030  153.5210  132.9970 C   0  0  0  0  0  0  0  0  0  0  0  0
  148.4920  154.2790  131.8550 O   0  0  0  0  0  0  0  0  0  0  0  0
  145.4570  158.6180  133.4410 C   0  0  0  0  0  0  0  0  0  0  0  0
  144.1830  158.1530  133.7940 C   0  0  0  0  0  0  0  0  0  0  0  0
  140.8410  158.3540  133.5700 N   0  0  0  0  0  0  0  0  0  0  0  0
  137.7995  157.3063  134.6045 H   0  0  0  0  0  0  0  0  0  0  0  0
  138.0378  158.3509  133.1627 H   0  0  0  0  0  0  0  0  0  0  0  0
  138.6578  156.6650  133.1627 H   0  0  0  0  0  0  0  0  0  0  0  0
  141.8586  158.7213  136.6647 H   0  0  0  0  0  0  0  0  0  0  0  0
  142.6854  161.2285  134.1855 H   0  0  0  0  0  0  0  0  0  0  0  0
  144.9799  161.9950  133.5031 H   0  0  0  0  0  0  0  0  0  0  0  0
  147.5541  161.0453  132.7186 H   0  0  0  0  0  0  0  0  0  0  0  0
  148.5880  156.4440  131.8620 H   0  0  0  0  0  0  0  0  0  0  0  0
  150.2560  157.0490  131.5910 H   0  0  0  0  0  0  0  0  0  0  0  0
  148.0062  154.2263  135.0276 H   0  0  0  0  0  0  0  0  0  0  0  0
  146.4577  154.1205  134.1083 H   0  0  0  0  0  0  0  0  0  0  0  0
  149.1384  153.1147  133.4093 H   0  0  0  0  0  0  0  0  0  0  0  0
  147.5257  152.6997  132.7198 H   0  0  0  0  0  0  0  0  0  0  0  0
  147.7020  154.8590  131.6910 H   0  0  0  0  0  0  0  0  0  0  0  0
  143.9750  157.0746  133.8554 H   0  0  0  0  0  0  0  0  0  0  0  0
  1  2  1  0
  2  3  2  0
  3  4  1  0
  4  5  2  0
  5  6  1  0
  6  7  2  0
  7  8  1  0
  8  9  2  0
  9 10  1  0
 10 11  2  0
 11 12  1  0
 12 13  1  0
 12 14  2  0
 11 15  1  0
 15 16  1  0
 16 17  2  0
 16 18  1  0
 18 19  1  0
 19 20  1  0
 20 21  1  0
 15 22  1  0
 22 23  2  0
  5 24  1  0
 24  2  1  0
 23  6  1  0
 22  9  1  0
  1 25  1  0
  1 26  1  0
  1 27  1  0
  4 28  1  0
  7 29  1  0
  8 30  1  0
 10 31  1  0
 13 32  1  0
 13 33  1  0
 19 34  1  0
 19 35  1  0
 20 36  1  0
 20 37  1  0
 21 38  1  0
 23 39  1  0
M  CHG  1  24  -1
M  END
>  <UniqueID>  (68) 
68

>  <SMILES>  (68) 
Cc1ncc(-c2ccc3cc(C(N)=O)n(C(=O)OCCO)c3c2)[n-]1

>  <Energy>  (68) 
104.22440297794736

>  <Genealogy>  (68) 
Cc1ncc(-c2ccc3cc(C(N)=O)n(C(=O)OCCO)c3c2)[n-]1 (protonated)
Cc1ncc(-c2ccc3cc(C(N)=O)n(C(=O)OCCO)c3c2)[n-]1 (3D coordinates assigned)
Cc1ncc(-c2ccc3cc(C(N)=O)n(C(=O)OCCO)c3c2)[n-]1 (optimized conformer: 104.22440297794736 kcal/mol)

>  <smiles>  (68) 
Cc1ncc(-c2ccc3cc(C(N)=O)n(C(=O)OCCO)c3c2)[nH]1

>  <score_type>  (68) 
oracle

>  <origin>  (68) 
adg

>  <m_score__min__energy>  (68) 
-6.7999999999999998

>  <m_primary>  (68) 
energy

$$$$
70:0
     RDKit          3D

 44 45  0  0  0  0  0  0  0  0999 V2000
  143.3940  154.5570  132.5170 C   0  0  0  0  0  0  0  0  0  0  0  0
  144.2710  155.2060  133.4950 N   0  0  0  0  0  0  0  0  0  0  0  0
  143.9270  156.6000  133.6230 C   0  0  0  0  0  0  0  0  0  0  0  0
  142.5750  156.9870  133.8140 C   0  0  0  0  0  0  0  0  0  0  0  0
  142.2290  158.3410  133.9530 C   0  0  0  0  0  0  0  0  0  0  0  0
  143.2520  159.2830  133.9150 C   0  0  0  0  0  0  0  0  0  0  0  0
  143.1980  160.6560  134.0130 C   0  0  0  0  0  0  0  0  0  0  0  0
  144.5220  161.0850  133.9260 C   0  0  0  0  0  0  0  0  0  0  0  0
  144.9360  162.4920  134.1040 C   0  0  0  0  0  0  0  0  0  0  0  0
  145.9960  162.8370  134.9930 N   0  0  0  0  0  0  0  0  0  0  0  0
  144.3130  163.4070  133.5020 O   0  0  0  0  0  0  0  0  0  0  0  0
  145.3570  160.0210  133.7620 N   0  0  0  0  0  0  0  0  0  0  0  0
  146.7790  160.0410  133.5760 C   0  0  0  0  0  0  0  0  0  0  0  0
  147.3710  161.1370  133.3700 O   0  0  0  0  0  0  0  0  0  0  0  0
  147.5020  158.8460  133.6240 O   0  0  0  0  0  0  0  0  0  0  0  0
  148.0450  158.2260  132.4610 C   0  0  0  0  0  0  0  0  0  0  0  0
  148.6280  156.9700  132.8010 O   0  0  0  0  0  0  0  0  0  0  0  0
  147.9460  155.7550  132.6620 C   0  0  0  0  0  0  0  0  0  0  0  0
  146.8620  155.7070  132.0150 O   0  0  0  0  0  0  0  0  0  0  0  0
  148.4770  154.5620  133.2670 N   0  0  0  0  0  0  0  0  0  0  0  0
  149.3780  153.6980  132.5000 C   0  0  0  0  0  0  0  0  0  0  0  0
  148.1000  154.2100  134.6410 C   0  0  0  0  0  0  0  0  0  0  0  0
  146.6160  154.2840  134.8050 C   0  0  0  0  0  0  0  0  0  0  0  0
  145.8830  153.3540  134.3730 O   0  0  0  0  0  0  0  0  0  0  0  0
  146.0410  155.3660  135.4580 O   0  0  0  0  0  0  0  0  0  0  0  0
  144.5660  158.9250  133.7630 C   0  0  0  0  0  0  0  0  0  0  0  0
  144.9390  157.5860  133.6030 C   0  0  0  0  0  0  0  0  0  0  0  0
  142.6181  153.9828  133.0445 H   0  0  0  0  0  0  0  0  0  0  0  0
  142.9185  155.3224  131.8861 H   0  0  0  0  0  0  0  0  0  0  0  0
  143.9870  153.8785  131.8861 H   0  0  0  0  0  0  0  0  0  0  0  0
  144.1700  154.7260  134.4200 H   0  0  0  0  0  0  0  0  0  0  0  0
  145.2660  155.1050  133.1850 H   0  0  0  0  0  0  0  0  0  0  0  0
  141.7895  156.2180  133.8536 H   0  0  0  0  0  0  0  0  0  0  0  0
  141.1811  158.6473  134.0878 H   0  0  0  0  0  0  0  0  0  0  0  0
  142.3010  161.2811  134.1342 H   0  0  0  0  0  0  0  0  0  0  0  0
  146.9920  162.8020  134.6830 H   0  0  0  0  0  0  0  0  0  0  0  0
  147.2427  158.0673  131.7254 H   0  0  0  0  0  0  0  0  0  0  0  0
  148.8208  158.8788  132.0345 H   0  0  0  0  0  0  0  0  0  0  0  0
  149.9954  153.1060  133.1917 H   0  0  0  0  0  0  0  0  0  0  0  0
  148.7859  153.0214  131.8662 H   0  0  0  0  0  0  0  0  0  0  0  0
  150.0292  154.3179  131.8662 H   0  0  0  0  0  0  0  0  0  0  0  0
  148.4390  153.1867  134.8598 H   0  0  0  0  0  0  0  0  0  0  0  0
  148.5734  154.9195  135.3357 H   0  0  0  0  0  0  0  0  0  0  0  0
  145.9942  157.3077  133.4650 H   0  0  0  0  0  0  0  0  0  0  0  0
  1  2  1  0
  2  3  1  0
  3  4  2  0
  4  5  1  0
  5  6  2  0
  6  7  1  0
  7  8  2  0
  8  9  1  0
  9 10  1  0
  9 11  2  0
  8 12  1  0
 12 13  1  0
 13 14  2  0
 13 15  1  0
 15 16  1  0
 16 17  1  0
 17 18  1  0
 18 19  2  0
 18 20  1  0
 20 21  1  0
 20 22  1  0
 22 23  1  0
 23 24  2  0
 23 25  1  0
 12 26  1  0
 26 27  2  0
 27  3  1  0
 26  6  1  0
  1 28  1  0
  1 29  1  0
  1 30  1  0
  2 31  1  0
  2 32  1  0
  4 33  1  0
  5 34  1  0
  7 35  1  0
 10 36  1  0
 16 37  1  0
 16 38  1  0
 21 39  1  0
 21 40  1  0
 21 41  1  0
 22 42  1  0
 22 43  1  0
 27 44  1  0
M  CHG  3   2   1  10  -1  25  -1
M  END
>  <UniqueID>  (69) 
69

>  <SMILES>  (69) 
C[NH2+]c1ccc2cc(C([NH-])=O)n(C(=O)OCOC(=O)N(C)CC(=O)[O-])c2c1

>  <Energy>  (69) 
75.19479916580181

>  <Genealogy>  (69) 
C[NH2+]c1ccc2cc(C([NH-])=O)n(C(=O)OCOC(=O)N(C)CC(=O)[O-])c2c1 (protonated)
C[NH2+]c1ccc2cc(C([NH-])=O)n(C(=O)OCOC(=O)N(C)CC(=O)[O-])c2c1 (3D coordinates assigned)
C[NH2+]c1ccc2cc(C([NH-])=O)n(C(=O)OCOC(=O)N(C)CC(=O)[O-])c2c1 (optimized conformer: 75.19479916580181 kcal/mol)

>  <smiles>  (69) 
CNc1ccc2cc(C(N)=O)n(C(=O)OCOC(=O)N(C)CC(=O)O)c2c1

>  <score_type>  (69) 
oracle

>  <origin>  (69) 
adg

>  <m_score__min__energy>  (69) 
-5.0499999999999998

>  <m_primary>  (69) 
energy

$$$$
71:0
     RDKit          3D

 41 42  0  0  0  0  0  0  0  0999 V2000
  138.7990  149.1150  129.3240 C   0  0  0  0  0  0  0  0  0  0  0  0
  138.8390  148.0680  130.3570 N   0  0  0  0  0  0  0  0  0  0  0  0
  139.1010  146.7450  129.7660 C   0  0  0  0  0  0  0  0  0  0  0  0
  139.7520  148.3940  131.4770 C   0  0  0  0  0  0  0  0  0  0  0  0
  139.8000  149.8950  131.8400 C   0  0  0  0  0  0  0  0  0  0  0  0
  141.2310  150.3870  132.1230 C   0  0  0  0  0  0  0  0  0  0  0  0
  141.3680  151.8380  131.9180 N   0  0  0  0  0  0  0  0  0  0  0  0
  141.8810  152.4610  133.1140 C   0  0  0  0  0  0  0  0  0  0  0  0
  142.8620  153.4810  133.0210 C   0  0  0  0  0  0  0  0  0  0  0  0
  143.4010  154.0670  134.1780 C   0  0  0  0  0  0  0  0  0  0  0  0
  142.9380  153.6200  135.4110 C   0  0  0  0  0  0  0  0  0  0  0  0
  143.3030  153.9980  136.6820 C   0  0  0  0  0  0  0  0  0  0  0  0
  142.5220  153.2240  137.5370 C   0  0  0  0  0  0  0  0  0  0  0  0
  142.5230  153.3880  139.0060 C   0  0  0  0  0  0  0  0  0  0  0  0
  142.5260  154.6830  139.6000 N   0  0  0  0  0  0  0  0  0  0  0  0
  142.5810  152.3700  139.7460 O   0  0  0  0  0  0  0  0  0  0  0  0
  141.7140  152.3880  136.8230 N   0  0  0  0  0  0  0  0  0  0  0  0
  140.8200  151.3820  137.3280 C   0  0  0  0  0  0  0  0  0  0  0  0
  140.2900  151.5130  138.4620 O   0  0  0  0  0  0  0  0  0  0  0  0
  140.5560  150.2390  136.5810 O   0  0  0  0  0  0  0  0  0  0  0  0
  141.9790  152.6450  135.5230 C   0  0  0  0  0  0  0  0  0  0  0  0
  141.4450  152.0260  134.3880 C   0  0  0  0  0  0  0  0  0  0  0  0
  138.7612  150.1035  129.8051 H   0  0  0  0  0  0  0  0  0  0  0  0
  139.7004  149.0464  128.6973 H   0  0  0  0  0  0  0  0  0  0  0  0
  137.9054  148.9778  128.6973 H   0  0  0  0  0  0  0  0  0  0  0  0
  139.2471  146.0072  130.5687 H   0  0  0  0  0  0  0  0  0  0  0  0
  138.2448  146.4452  129.1439 H   0  0  0  0  0  0  0  0  0  0  0  0
  140.0068  146.7942  129.1439 H   0  0  0  0  0  0  0  0  0  0  0  0
  139.4217  147.8350  132.3649 H   0  0  0  0  0  0  0  0  0  0  0  0
  140.7647  148.1158  131.1499 H   0  0  0  0  0  0  0  0  0  0  0  0
  139.3871  150.4743  131.0010 H   0  0  0  0  0  0  0  0  0  0  0  0
  139.2101  150.0363  132.7576 H   0  0  0  0  0  0  0  0  0  0  0  0
  141.4877  150.1503  133.1661 H   0  0  0  0  0  0  0  0  0  0  0  0
  141.9088  149.8800  131.4204 H   0  0  0  0  0  0  0  0  0  0  0  0
  142.0310  152.0250  131.1300 H   0  0  0  0  0  0  0  0  0  0  0  0
  140.4410  152.2570  131.6690 H   0  0  0  0  0  0  0  0  0  0  0  0
  143.2047  153.8171  132.0312 H   0  0  0  0  0  0  0  0  0  0  0  0
  144.1656  154.8550  134.1111 H   0  0  0  0  0  0  0  0  0  0  0  0
  144.0529  154.7519  136.9637 H   0  0  0  0  0  0  0  0  0  0  0  0
  143.2560  155.3870  139.3500 H   0  0  0  0  0  0  0  0  0  0  0  0
  140.7031  151.2195  134.4836 H   0  0  0  0  0  0  0  0  0  0  0  0
  1  2  1  0
  2  3  1  0
  2  4  1  0
  4  5  1  0
  5  6  1  0
  6  7  1  0
  7  8  1  0
  8  9  2  0
  9 10  1  0
 10 11  2  0
 11 12  1  0
 12 13  2  0
 13 14  1  0
 14 15  1  0
 14 16  2  0
 13 17  1  0
 17 18  1  0
 18 19  2  0
 18 20  1  0
 17 21  1  0
 21 22  2  0
 22  8  1  0
 21 11  1  0
  1 23  1  0
  1 24  1  0
  1 25  1  0
  3 26  1  0
  3 27  1  0
  3 28  1  0
  4 29  1  0
  4 30  1  0
  5 31  1  0
  5 32  1  0
  6 33  1  0
  6 34  1  0
  7 35  1  0
  7 36  1  0
  9 37  1  0
 10 38  1  0
 12 39  1  0
 15 40  1  0
 22 41  1  0
M  CHG  3   7   1  15  -1  20  -1
M  END
>  <UniqueID>  (70) 
70

>  <SMILES>  (70) 
CN(C)CCC[NH2+]c1ccc2cc(C([NH-])=O)n(C(=O)[O-])c2c1

>  <Energy>  (70) 
81.81133112924618

>  <Genealogy>  (70) 
CN(C)CCC[NH2+]c1ccc2cc(C([NH-])=O)n(C(=O)[O-])c2c1 (protonated)
CN(C)CCC[NH2+]c1ccc2cc(C([NH-])=O)n(C(=O)[O-])c2c1 (3D coordinates assigned)
CN(C)CCC[NH2+]c1ccc2cc(C([NH-])=O)n(C(=O)[O-])c2c1 (optimized conformer: 81.81133112924618 kcal/mol)

>  <smiles>  (70) 
CN(C)CCCNc1ccc2cc(C(N)=O)n(C(=O)O)c2c1

>  <score_type>  (70) 
oracle

>  <origin>  (70) 
adg

>  <m_score__min__energy>  (70) 
-6.8399999999999999

>  <m_primary>  (70) 
energy

$$$$
72:0
     RDKit          3D

 34 35  0  0  0  0  0  0  0  0999 V2000
  140.7450  157.6800  135.9440 C   0  0  0  0  0  0  0  0  0  0  0  0
  141.6450  157.3110  134.8440 N   0  0  0  0  0  0  0  0  0  0  0  0
  141.4260  156.0380  134.1460 C   0  0  0  0  0  0  0  0  0  0  0  0
  142.7330  158.1890  134.4540 C   0  0  0  0  0  0  0  0  0  0  0  0
  142.5470  159.6010  134.4060 C   0  0  0  0  0  0  0  0  0  0  0  0
  143.5970  160.4590  134.0390 C   0  0  0  0  0  0  0  0  0  0  0  0
  144.8240  159.8910  133.7190 C   0  0  0  0  0  0  0  0  0  0  0  0
  146.0070  160.4890  133.3470 C   0  0  0  0  0  0  0  0  0  0  0  0
  146.9060  159.4400  133.1530 C   0  0  0  0  0  0  0  0  0  0  0  0
  148.2870  159.6130  132.6520 C   0  0  0  0  0  0  0  0  0  0  0  0
  149.3890  158.9880  133.3120 N   0  0  0  0  0  0  0  0  0  0  0  0
  148.5080  160.3370  131.6440 O   0  0  0  0  0  0  0  0  0  0  0  0
  146.2990  158.2450  133.4010 N   0  0  0  0  0  0  0  0  0  0  0  0
  146.8880  156.9340  133.3670 C   0  0  0  0  0  0  0  0  0  0  0  0
  148.0360  156.7640  133.8590 O   0  0  0  0  0  0  0  0  0  0  0  0
  146.1680  155.8250  132.7040 C   0  0  0  0  0  0  0  0  0  0  0  0
  145.6090  154.7750  133.3200 C   0  0  0  0  0  0  0  0  0  0  0  0
  145.5870  154.5100  135.2200 Br  0  0  0  0  0  0  0  0  0  0  0  0
  144.7260  153.4540  132.2600 Br  0  0  0  0  0  0  0  0  0  0  0  0
  145.0260  158.5390  133.7420 C   0  0  0  0  0  0  0  0  0  0  0  0
  144.0060  157.6590  134.1170 C   0  0  0  0  0  0  0  0  0  0  0  0
  141.2391  157.4774  136.9057 H   0  0  0  0  0  0  0  0  0  0  0  0
  140.5015  158.7505  135.8752 H   0  0  0  0  0  0  0  0  0  0  0  0
  139.8201  157.0885  135.8752 H   0  0  0  0  0  0  0  0  0  0  0  0
  141.2877  155.2342  134.8841 H   0  0  0  0  0  0  0  0  0  0  0  0
  140.5280  156.1153  133.5155 H   0  0  0  0  0  0  0  0  0  0  0  0
  142.2982  155.8107  133.5155 H   0  0  0  0  0  0  0  0  0  0  0  0
  141.5649  160.0261  134.6606 H   0  0  0  0  0  0  0  0  0  0  0  0
  143.4520  161.5489  134.0059 H   0  0  0  0  0  0  0  0  0  0  0  0
  146.2019  161.5650  133.2281 H   0  0  0  0  0  0  0  0  0  0  0  0
  149.2430  158.3330  134.1120 H   0  0  0  0  0  0  0  0  0  0  0  0
  150.3620  159.1470  132.9700 H   0  0  0  0  0  0  0  0  0  0  0  0
  146.0842  155.8661  131.6080 H   0  0  0  0  0  0  0  0  0  0  0  0
  144.1870  156.5745  134.1503 H   0  0  0  0  0  0  0  0  0  0  0  0
  1  2  1  0
  2  3  1  0
  2  4  1  0
  4  5  2  0
  5  6  1  0
  6  7  2  0
  7  8  1  0
  8  9  2  0
  9 10  1  0
 10 11  1  0
 10 12  2  0
  9 13  1  0
 13 14  1  0
 14 15  2  0
 14 16  1  0
 16 17  2  3
 17 18  1  0
 17 19  1  0
 13 20  1  0
 20 21  2  0
 21  4  1  0
 20  7  1  0
  1 22  1  0
  1 23  1  0
  1 24  1  0
  3 25  1  0
  3 26  1  0
  3 27  1  0
  5 28  1  0
  6 29  1  0
  8 30  1  0
 11 31  1  0
 11 32  1  0
 16 33  1  0
 21 34  1  0
M  END
>  <UniqueID>  (71) 
71

>  <SMILES>  (71) 
CN(C)c1ccc2cc(C(N)=O)n(C(=O)C=C(Br)Br)c2c1

>  <Energy>  (71) 
76.99563603783116

>  <Genealogy>  (71) 
CN(C)c1ccc2cc(C(N)=O)n(C(=O)C=C(Br)Br)c2c1 (3D coordinates assigned)
CN(C)c1ccc2cc(C(N)=O)n(C(=O)C=C(Br)Br)c2c1 (optimized conformer: 76.99563603783116 kcal/mol)

>  <smiles>  (71) 
CN(C)c1ccc2cc(C(N)=O)n(C(=O)C=C(Br)Br)c2c1

>  <score_type>  (71) 
oracle

>  <origin>  (71) 
adg

>  <m_score__min__energy>  (71) 
-7.9699999999999998

>  <m_primary>  (71) 
energy

$$$$
73:0
     RDKit          3D

 42 43  0  0  0  0  0  0  0  0999 V2000
  142.3500  160.3110  133.0740 N   0  0  0  0  0  0  0  0  0  0  0  0
  143.6890  160.5420  133.5060 C   0  0  0  0  0  0  0  0  0  0  0  0
  143.9700  161.6180  134.0980 O   0  0  0  0  0  0  0  0  0  0  0  0
  144.7340  159.5140  133.3230 C   0  0  0  0  0  0  0  0  0  0  0  0
  146.0780  159.8180  133.1130 C   0  0  0  0  0  0  0  0  0  0  0  0
  146.7300  158.6070  133.1120 C   0  0  0  0  0  0  0  0  0  0  0  0
  148.0830  158.3200  132.9620 C   0  0  0  0  0  0  0  0  0  0  0  0
  148.4800  156.9730  133.0000 C   0  0  0  0  0  0  0  0  0  0  0  0
  147.5210  155.9390  133.1590 C   0  0  0  0  0  0  0  0  0  0  0  0
  147.9610  154.4990  133.2420 C   0  0  0  0  0  0  0  0  0  0  0  0
  149.1790  154.3250  132.6060 F   0  0  0  0  0  0  0  0  0  0  0  0
  148.1010  154.1030  134.5610 F   0  0  0  0  0  0  0  0  0  0  0  0
  147.0140  153.7000  132.6290 F   0  0  0  0  0  0  0  0  0  0  0  0
  146.1580  156.2730  133.3290 C   0  0  0  0  0  0  0  0  0  0  0  0
  145.7940  157.6260  133.3060 C   0  0  0  0  0  0  0  0  0  0  0  0
  144.5620  158.1660  133.4320 N   0  0  0  0  0  0  0  0  0  0  0  0
  143.3290  157.4460  133.5910 C   0  0  0  0  0  0  0  0  0  0  0  0
  142.4600  157.4730  132.6750 O   0  0  0  0  0  0  0  0  0  0  0  0
  143.1070  156.7020  134.7530 O   0  0  0  0  0  0  0  0  0  0  0  0
  141.8270  156.5570  135.3660 C   0  0  0  0  0  0  0  0  0  0  0  0
  141.4500  157.8070  136.1750 C   0  0  0  0  0  0  0  0  0  0  0  0
  139.9620  158.1920  136.0770 C   0  0  0  0  0  0  0  0  0  0  0  0
  139.4250  158.2080  134.6410 C   0  0  0  0  0  0  0  0  0  0  0  0
  140.1690  159.1230  133.8710 O   0  0  0  0  0  0  0  0  0  0  0  0
  139.4460  159.2510  132.3320 P   0  0  1  0  0  0  0  0  0  0  0  0
  138.3570  158.2120  132.1860 O   0  0  0  0  0  0  0  0  0  0  0  0
  138.7640  160.7910  132.1770 O   0  0  0  0  0  0  0  0  0  0  0  0
  140.6060  159.0360  131.1180 O   0  0  0  0  0  0  0  0  0  0  0  0
  142.0640  159.3850  132.6860 H   0  0  0  0  0  0  0  0  0  0  0  0
  146.5228  160.8148  132.9770 H   0  0  0  0  0  0  0  0  0  0  0  0
  148.8199  159.1239  132.8180 H   0  0  0  0  0  0  0  0  0  0  0  0
  149.5456  156.7170  132.9055 H   0  0  0  0  0  0  0  0  0  0  0  0
  145.4006  155.4889  133.4759 H   0  0  0  0  0  0  0  0  0  0  0  0
  141.0712  156.3956  134.5832 H   0  0  0  0  0  0  0  0  0  0  0  0
  141.8664  155.6984  136.0525 H   0  0  0  0  0  0  0  0  0  0  0  0
  141.6899  157.6201  137.2321 H   0  0  0  0  0  0  0  0  0  0  0  0
  142.0238  158.6447  135.7518 H   0  0  0  0  0  0  0  0  0  0  0  0
  139.3759  157.4658  136.6593 H   0  0  0  0  0  0  0  0  0  0  0  0
  139.8675  159.2158  136.4680 H   0  0  0  0  0  0  0  0  0  0  0  0
  139.5160  157.2024  134.2044 H   0  0  0  0  0  0  0  0  0  0  0  0
  138.3674  158.5105  134.6487 H   0  0  0  0  0  0  0  0  0  0  0  0
  141.4770  159.0870  131.5870 H   0  0  0  0  0  0  0  0  0  0  0  0
  1  2  1  0
  2  3  2  0
  2  4  1  0
  4  5  2  0
  5  6  1  0
  6  7  2  0
  7  8  1  0
  8  9  2  0
  9 10  1  0
 10 11  1  0
 10 12  1  0
 10 13  1  0
  9 14  1  0
 14 15  2  0
 15 16  1  0
 16 17  1  0
 17 18  2  0
 17 19  1  0
 19 20  1  0
 20 21  1  0
 21 22  1  0
 22 23  1  0
 23 24  1  0
 24 25  1  0
 25 26  2  0
 25 27  1  6
 25 28  1  0
 16  4  1  0
 15  6  1  0
  1 29  1  0
  5 30  1  0
  7 31  1  0
  8 32  1  0
 14 33  1  0
 20 34  1  0
 20 35  1  0
 21 36  1  0
 21 37  1  0
 22 38  1  0
 22 39  1  0
 23 40  1  0
 23 41  1  0
 28 42  1  0
M  CHG  2   1  -1  27  -1
M  END
>  <UniqueID>  (72) 
72

>  <SMILES>  (72) 
[NH-]C(=O)c1cc2ccc(C(F)(F)F)cc2n1C(=O)OCCCCO[P@@](=O)([O-])O

>  <Energy>  (72) 
73.02118502961223

>  <Genealogy>  (72) 
[NH-]C(=O)c1cc2ccc(C(F)(F)F)cc2n1C(=O)OCCCCOP(=O)([O-])O (protonated)
[NH-]C(=O)c1cc2ccc(C(F)(F)F)cc2n1C(=O)OCCCCO[P@@](=O)([O-])O (chirality)
[NH-]C(=O)c1cc2ccc(C(F)(F)F)cc2n1C(=O)OCCCCO[P@@](=O)([O-])O (3D coordinates assigned)
[NH-]C(=O)c1cc2ccc(C(F)(F)F)cc2n1C(=O)OCCCCO[P@@](=O)([O-])O (optimized conformer: 73.02118502961223 kcal/mol)

>  <smiles>  (72) 
NC(=O)c1cc2ccc(C(F)(F)F)cc2n1C(=O)OCCCCOP(=O)(O)O

>  <score_type>  (72) 
oracle

>  <origin>  (72) 
adg

>  <m_score__min__energy>  (72) 
-6.0199999999999996

>  <m_primary>  (72) 
energy

$$$$
74:0
     RDKit          3D

 39 40  0  0  0  0  0  0  0  0999 V2000
  142.1010  154.9510  133.0010 N   0  0  0  0  0  0  0  0  0  0  0  0
  143.4420  154.6760  133.4120 C   0  0  0  0  0  0  0  0  0  0  0  0
  143.7430  153.5090  133.7790 O   0  0  0  0  0  0  0  0  0  0  0  0
  144.4620  155.7470  133.4380 C   0  0  0  0  0  0  0  0  0  0  0  0
  145.8360  155.5210  133.5170 C   0  0  0  0  0  0  0  0  0  0  0  0
  146.4170  156.7690  133.4530 C   0  0  0  0  0  0  0  0  0  0  0  0
  147.7560  157.1380  133.5230 C   0  0  0  0  0  0  0  0  0  0  0  0
  148.0640  158.5100  133.4850 C   0  0  0  0  0  0  0  0  0  0  0  0
  147.0340  159.4750  133.3910 C   0  0  0  0  0  0  0  0  0  0  0  0
  147.3570  160.8670  133.3790 N   0  0  0  0  0  0  0  0  0  0  0  0
  145.6870  159.0640  133.3210 C   0  0  0  0  0  0  0  0  0  0  0  0
  145.4110  157.6920  133.3370 C   0  0  0  0  0  0  0  0  0  0  0  0
  144.2070  157.0810  133.3200 N   0  0  0  0  0  0  0  0  0  0  0  0
  142.9280  157.7310  133.3180 C   0  0  0  0  0  0  0  0  0  0  0  0
  142.3010  157.8760  132.2350 O   0  0  0  0  0  0  0  0  0  0  0  0
  142.3970  158.2160  134.5170 O   0  0  0  0  0  0  0  0  0  0  0  0
  141.1130  157.8490  135.0170 C   0  0  0  0  0  0  0  0  0  0  0  0
  140.6960  156.6240  134.4180 O   0  0  0  0  0  0  0  0  0  0  0  0
  139.7190  156.5390  133.4200 C   0  0  0  0  0  0  0  0  0  0  0  0
  139.6730  155.5480  132.6420 O   0  0  0  0  0  0  0  0  0  0  0  0
  138.7370  157.6570  133.2540 C   0  0  0  0  0  0  0  0  0  0  0  0
  138.8790  158.3260  131.8810 C   0  0  0  0  0  0  0  0  0  0  0  0
  139.3900  159.7300  132.0010 C   0  0  0  0  0  0  0  0  0  0  0  0
  140.1570  160.0460  132.9480 O   0  0  0  0  0  0  0  0  0  0  0  0
  139.0430  160.6820  131.0520 O   0  0  0  0  0  0  0  0  0  0  0  0
  141.8250  155.8890  132.6390 H   0  0  0  0  0  0  0  0  0  0  0  0
  141.3840  154.1920  133.0180 H   0  0  0  0  0  0  0  0  0  0  0  0
  146.3476  154.5517  133.6106 H   0  0  0  0  0  0  0  0  0  0  0  0
  148.5495  156.3806  133.6055 H   0  0  0  0  0  0  0  0  0  0  0  0
  149.1140  158.8350  133.5287 H   0  0  0  0  0  0  0  0  0  0  0  0
  147.3300  161.4160  132.4910 H   0  0  0  0  0  0  0  0  0  0  0  0
  147.6270  161.3610  134.2590 H   0  0  0  0  0  0  0  0  0  0  0  0
  144.8743  159.8024  133.2555 H   0  0  0  0  0  0  0  0  0  0  0  0
  141.1682  157.7222  136.1083 H   0  0  0  0  0  0  0  0  0  0  0  0
  140.3877  158.6392  134.7730 H   0  0  0  0  0  0  0  0  0  0  0  0
  137.7176  157.2558  133.3531 H   0  0  0  0  0  0  0  0  0  0  0  0
  138.9362  158.4113  134.0294 H   0  0  0  0  0  0  0  0  0  0  0  0
  139.5824  157.7412  131.2701 H   0  0  0  0  0  0  0  0  0  0  0  0
  137.8851  158.3608  131.4110 H   0  0  0  0  0  0  0  0  0  0  0  0
  1  2  1  0
  2  3  2  0
  2  4  1  0
  4  5  2  0
  5  6  1  0
  6  7  2  0
  7  8  1  0
  8  9  2  0
  9 10  1  0
  9 11  1  0
 11 12  2  0
 12 13  1  0
 13 14  1  0
 14 15  2  0
 14 16  1  0
 16 17  1  0
 17 18  1  0
 18 19  1  0
 19 20  2  0
 19 21  1  0
 21 22  1  0
 22 23  1  0
 23 24  2  0
 23 25  1  0
 13  4  1  0
 12  6  1  0
  1 26  1  0
  1 27  1  0
  5 28  1  0
  7 29  1  0
  8 30  1  0
 10 31  1  0
 10 32  1  0
 11 33  1  0
 17 34  1  0
 17 35  1  0
 21 36  1  0
 21 37  1  0
 22 38  1  0
 22 39  1  0
M  CHG  1  25  -1
M  END
>  <UniqueID>  (73) 
73

>  <SMILES>  (73) 
NC(=O)c1cc2ccc(N)cc2n1C(=O)OCOC(=O)CCC(=O)[O-]

>  <Energy>  (73) 
70.2380346825686

>  <Genealogy>  (73) 
NC(=O)c1cc2ccc(N)cc2n1C(=O)OCOC(=O)CCC(=O)[O-] (protonated)
NC(=O)c1cc2ccc(N)cc2n1C(=O)OCOC(=O)CCC(=O)[O-] (3D coordinates assigned)
NC(=O)c1cc2ccc(N)cc2n1C(=O)OCOC(=O)CCC(=O)[O-] (optimized conformer: 70.2380346825686 kcal/mol)

>  <smiles>  (73) 
NC(=O)c1cc2ccc(N)cc2n1C(=O)OCOC(=O)CCC(=O)O

>  <score_type>  (73) 
oracle

>  <origin>  (73) 
adg

>  <m_score__min__energy>  (73) 
-6.6600000000000001

>  <m_primary>  (73) 
energy

$$$$
75:0
     RDKit          3D

 39 40  0  0  0  0  0  0  0  0999 V2000
  141.0510  157.0940  136.8850 C   0  0  0  0  0  0  0  0  0  0  0  0
  142.1210  156.6000  136.0290 N   0  0  0  0  0  0  0  0  0  0  0  0
  142.6500  155.2750  136.1700 C   0  0  0  0  0  0  0  0  0  0  0  0
  142.2230  154.5140  137.0800 O   0  0  0  0  0  0  0  0  0  0  0  0
  143.7280  154.7930  135.2460 C   0  0  0  0  0  0  0  0  0  0  0  0
  145.0400  155.2530  135.7000 N   0  0  0  0  0  0  0  0  0  0  0  0
  146.0710  155.7650  134.8340 C   0  0  0  0  0  0  0  0  0  0  0  0
  147.0840  154.8850  134.3770 C   0  0  0  0  0  0  0  0  0  0  0  0
  148.1040  155.3390  133.5250 C   0  0  0  0  0  0  0  0  0  0  0  0
  148.0920  156.6790  133.1490 C   0  0  0  0  0  0  0  0  0  0  0  0
  148.9420  157.3710  132.3180 C   0  0  0  0  0  0  0  0  0  0  0  0
  148.4500  158.6750  132.2920 C   0  0  0  0  0  0  0  0  0  0  0  0
  149.1170  159.7840  131.5780 C   0  0  0  0  0  0  0  0  0  0  0  0
  148.3570  160.9160  131.1570 N   0  0  0  0  0  0  0  0  0  0  0  0
  150.3440  159.7280  131.3020 O   0  0  0  0  0  0  0  0  0  0  0  0
  147.3370  158.7820  133.0720 N   0  0  0  0  0  0  0  0  0  0  0  0
  146.4990  159.9340  133.2550 C   0  0  0  0  0  0  0  0  0  0  0  0
  146.9860  160.9950  133.7330 O   0  0  0  0  0  0  0  0  0  0  0  0
  145.1410  159.8660  132.9230 O   0  0  0  0  0  0  0  0  0  0  0  0
  144.1040  160.3630  133.7650 C   0  0  0  0  0  0  0  0  0  0  0  0
  143.2450  159.2380  134.2480 C   0  0  0  0  0  0  0  0  0  0  0  0
  142.5370  159.3780  135.2810 O   0  0  0  0  0  0  0  0  0  0  0  0
  143.2480  158.0240  133.5750 O   0  0  0  0  0  0  0  0  0  0  0  0
  147.1310  157.5500  133.5910 C   0  0  0  0  0  0  0  0  0  0  0  0
  146.0910  157.1210  134.4220 C   0  0  0  0  0  0  0  0  0  0  0  0
  141.3350  156.9629  137.9396 H   0  0  0  0  0  0  0  0  0  0  0  0
  140.8814  158.1615  136.6809 H   0  0  0  0  0  0  0  0  0  0  0  0
  140.1285  156.5306  136.6809 H   0  0  0  0  0  0  0  0  0  0  0  0
  142.5050  157.2280  135.2880 H   0  0  0  0  0  0  0  0  0  0  0  0
  143.7189  153.6933  135.2226 H   0  0  0  0  0  0  0  0  0  0  0  0
  143.5394  155.1970  134.2404 H   0  0  0  0  0  0  0  0  0  0  0  0
  145.2250  155.2200  136.7290 H   0  0  0  0  0  0  0  0  0  0  0  0
  147.0710  153.8318  134.6941 H   0  0  0  0  0  0  0  0  0  0  0  0
  148.8883  154.6565  133.1659 H   0  0  0  0  0  0  0  0  0  0  0  0
  149.8221  156.9791  131.7872 H   0  0  0  0  0  0  0  0  0  0  0  0
  147.7410  161.4260  131.8270 H   0  0  0  0  0  0  0  0  0  0  0  0
  144.5522  160.8746  134.6295 H   0  0  0  0  0  0  0  0  0  0  0  0
  143.4832  161.0670  133.1913 H   0  0  0  0  0  0  0  0  0  0  0  0
  145.3067  157.8199  134.7483 H   0  0  0  0  0  0  0  0  0  0  0  0
  1  2  1  0
  2  3  1  0
  3  4  2  0
  3  5  1  0
  5  6  1  0
  6  7  1  0
  7  8  2  0
  8  9  1  0
  9 10  2  0
 10 11  1  0
 11 12  2  0
 12 13  1  0
 13 14  1  0
 13 15  2  0
 12 16  1  0
 16 17  1  0
 17 18  2  0
 17 19  1  0
 19 20  1  0
 20 21  1  0
 21 22  2  0
 21 23  1  0
 16 24  1  0
 24 25  2  0
 25  7  1  0
 24 10  1  0
  1 26  1  0
  1 27  1  0
  1 28  1  0
  2 29  1  0
  5 30  1  0
  5 31  1  0
  6 32  1  0
  8 33  1  0
  9 34  1  0
 11 35  1  0
 14 36  1  0
 20 37  1  0
 20 38  1  0
 25 39  1  0
M  CHG  2  14  -1  23  -1
M  END
>  <UniqueID>  (74) 
74

>  <SMILES>  (74) 
CNC(=O)CNc1ccc2cc(C([NH-])=O)n(C(=O)OCC(=O)[O-])c2c1

>  <Energy>  (74) 
70.61156720644148

>  <Genealogy>  (74) 
CNC(=O)CNc1ccc2cc(C([NH-])=O)n(C(=O)OCC(=O)[O-])c2c1 (protonated)
CNC(=O)CNc1ccc2cc(C([NH-])=O)n(C(=O)OCC(=O)[O-])c2c1 (3D coordinates assigned)
CNC(=O)CNc1ccc2cc(C([NH-])=O)n(C(=O)OCC(=O)[O-])c2c1 (optimized conformer: 70.61156720644148 kcal/mol)

>  <smiles>  (74) 
CNC(=O)CNc1ccc2cc(C(N)=O)n(C(=O)OCC(=O)O)c2c1

>  <score_type>  (74) 
oracle

>  <origin>  (74) 
adg

>  <m_score__min__energy>  (74) 
-7.0599999999999996

>  <m_primary>  (74) 
energy

$$$$
76:0
     RDKit          3D

 46 47  0  0  0  0  0  0  0  0999 V2000
  136.7420  160.1060  130.7380 C   0  0  0  0  0  0  0  0  0  0  0  0
  138.0640  160.0810  130.9330 C   0  0  0  0  0  0  0  0  0  0  0  0
  138.8110  158.7940  131.1520 C   0  0  0  0  0  0  0  0  0  0  0  0
  140.1980  159.0610  131.3400 O   0  0  0  0  0  0  0  0  0  0  0  0
  140.7830  159.2330  132.5990 C   0  0  0  0  0  0  0  0  0  0  0  0
  140.6480  160.3150  133.2360 O   0  0  0  0  0  0  0  0  0  0  0  0
  141.5800  158.1160  133.1840 C   0  0  0  0  0  0  0  0  0  0  0  0
  142.9500  158.3220  132.8660 O   0  0  0  0  0  0  0  0  0  0  0  0
  143.9790  158.2330  133.8060 C   0  0  0  0  0  0  0  0  0  0  0  0
  143.8220  157.5500  134.8550 O   0  0  0  0  0  0  0  0  0  0  0  0
  145.2330  158.8870  133.5530 N   0  0  0  0  0  0  0  0  0  0  0  0
  145.5370  160.2080  133.7040 C   0  0  0  0  0  0  0  0  0  0  0  0
  144.5800  161.2920  134.0040 C   0  0  0  0  0  0  0  0  0  0  0  0
  143.1890  161.1350  133.7400 N   0  0  0  0  0  0  0  0  0  0  0  0
  145.0030  162.3930  134.4480 O   0  0  0  0  0  0  0  0  0  0  0  0
  146.8880  160.4320  133.4460 C   0  0  0  0  0  0  0  0  0  0  0  0
  147.4050  159.2000  133.1170 C   0  0  0  0  0  0  0  0  0  0  0  0
  148.7020  158.8380  132.7670 C   0  0  0  0  0  0  0  0  0  0  0  0
  148.9610  157.4840  132.4980 C   0  0  0  0  0  0  0  0  0  0  0  0
  147.9300  156.5130  132.5980 C   0  0  0  0  0  0  0  0  0  0  0  0
  148.1590  155.1140  132.3240 N   0  0  0  0  0  0  0  0  0  0  0  0
  148.4800  154.0670  133.3070 C   0  0  0  0  0  0  0  0  0  0  0  0
  147.2790  153.7460  134.2020 C   0  0  0  0  0  0  0  0  0  0  0  0
  149.0800  152.8140  132.6550 C   0  0  0  0  0  0  0  0  0  0  0  0
  146.6240  156.9260  132.9420 C   0  0  0  0  0  0  0  0  0  0  0  0
  146.3890  158.2850  133.1870 C   0  0  0  0  0  0  0  0  0  0  0  0
  136.2273  161.0654  130.5809 H   0  0  0  0  0  0  0  0  0  0  0  0
  136.1687  159.1672  130.7346 H   0  0  0  0  0  0  0  0  0  0  0  0
  138.6218  161.0290  130.9333 H   0  0  0  0  0  0  0  0  0  0  0  0
  138.4130  158.2893  132.0447 H   0  0  0  0  0  0  0  0  0  0  0  0
  138.6840  158.1485  130.2704 H   0  0  0  0  0  0  0  0  0  0  0  0
  141.4512  158.1012  134.2763 H   0  0  0  0  0  0  0  0  0  0  0  0
  141.2388  157.1547  132.7722 H   0  0  0  0  0  0  0  0  0  0  0  0
  142.7160  160.2140  133.8750 H   0  0  0  0  0  0  0  0  0  0  0  0
  147.4265  161.3899  133.4949 H   0  0  0  0  0  0  0  0  0  0  0  0
  149.5016  159.5906  132.7028 H   0  0  0  0  0  0  0  0  0  0  0  0
  149.9748  157.1721  132.2064 H   0  0  0  0  0  0  0  0  0  0  0  0
  147.8680  154.7700  131.3790 H   0  0  0  0  0  0  0  0  0  0  0  0
  149.2663  154.4717  133.9613 H   0  0  0  0  0  0  0  0  0  0  0  0
  147.5769  153.8256  135.2579 H   0  0  0  0  0  0  0  0  0  0  0  0
  146.4669  154.4586  133.9954 H   0  0  0  0  0  0  0  0  0  0  0  0
  146.9307  152.7232  133.9954 H   0  0  0  0  0  0  0  0  0  0  0  0
  149.4137  152.1172  133.4381 H   0  0  0  0  0  0  0  0  0  0  0  0
  148.3181  152.3254  132.0298 H   0  0  0  0  0  0  0  0  0  0  0  0
  149.9383  153.1012  132.0298 H   0  0  0  0  0  0  0  0  0  0  0  0
  145.8063  156.1939  133.0162 H   0  0  0  0  0  0  0  0  0  0  0  0
  1  2  2  0
  2  3  1  0
  3  4  1  0
  4  5  1  0
  5  6  2  0
  5  7  1  0
  7  8  1  0
  8  9  1  0
  9 10  2  0
  9 11  1  0
 11 12  1  0
 12 13  1  0
 13 14  1  0
 13 15  2  0
 12 16  2  0
 16 17  1  0
 17 18  2  0
 18 19  1  0
 19 20  2  0
 20 21  1  0
 21 22  1  0
 22 23  1  0
 22 24  1  0
 20 25  1  0
 25 26  2  0
 26 11  1  0
 26 17  1  0
  1 27  1  0
  1 28  1  0
  2 29  1  0
  3 30  1  0
  3 31  1  0
  7 32  1  0
  7 33  1  0
 14 34  1  0
 16 35  1  0
 18 36  1  0
 19 37  1  0
 21 38  1  0
 22 39  1  0
 23 40  1  0
 23 41  1  0
 23 42  1  0
 24 43  1  0
 24 44  1  0
 24 45  1  0
 25 46  1  0
M  CHG  1  14  -1
M  END
>  <UniqueID>  (75) 
75

>  <SMILES>  (75) 
C=CCOC(=O)COC(=O)n1c(C([NH-])=O)cc2ccc(NC(C)C)cc21

>  <Energy>  (75) 
78.32799430454723

>  <Genealogy>  (75) 
C=CCOC(=O)COC(=O)n1c(C([NH-])=O)cc2ccc(NC(C)C)cc21 (protonated)
C=CCOC(=O)COC(=O)n1c(C([NH-])=O)cc2ccc(NC(C)C)cc21 (3D coordinates assigned)
C=CCOC(=O)COC(=O)n1c(C([NH-])=O)cc2ccc(NC(C)C)cc21 (optimized conformer: 78.32799430454723 kcal/mol)

>  <smiles>  (75) 
C=CCOC(=O)COC(=O)n1c(C(N)=O)cc2ccc(NC(C)C)cc21

>  <score_type>  (75) 
oracle

>  <origin>  (75) 
adg

>  <m_score__min__energy>  (75) 
-7.1200000000000001

>  <m_primary>  (75) 
energy

$$$$
77:0
     RDKit          3D

 50 51  0  0  0  0  0  0  0  0999 V2000
  140.2090  158.2670  133.0990 C   0  0  0  0  0  0  0  0  0  0  0  0
  141.0730  158.6370  134.2280 N   0  0  0  0  0  0  0  0  0  0  0  0
  140.5580  158.4900  135.5940 C   0  0  0  0  0  0  0  0  0  0  0  0
  142.4150  159.1390  133.9940 C   0  0  0  0  0  0  0  0  0  0  0  0
  142.6910  160.5350  134.0570 C   0  0  0  0  0  0  0  0  0  0  0  0
  143.9900  161.0290  133.8480 C   0  0  0  0  0  0  0  0  0  0  0  0
  145.0000  160.1150  133.5730 C   0  0  0  0  0  0  0  0  0  0  0  0
  146.3460  160.3140  133.3560 C   0  0  0  0  0  0  0  0  0  0  0  0
  146.8770  159.0410  133.1490 C   0  0  0  0  0  0  0  0  0  0  0  0
  148.2980  158.7830  132.8330 C   0  0  0  0  0  0  0  0  0  0  0  0
  148.6890  158.3240  131.5410 N   0  0  0  0  0  0  0  0  0  0  0  0
  149.1810  158.9990  133.7040 O   0  0  0  0  0  0  0  0  0  0  0  0
  145.8970  158.1000  133.2350 N   0  0  0  0  0  0  0  0  0  0  0  0
  146.0330  156.6760  133.1660 C   0  0  0  0  0  0  0  0  0  0  0  0
  145.0770  155.9770  132.7360 O   0  0  0  0  0  0  0  0  0  0  0  0
  147.2520  156.0070  133.7250 C   0  0  0  0  0  0  0  0  0  0  0  0
  147.9990  155.2580  132.6200 C   0  0  0  0  0  0  0  0  0  0  0  0
  148.1700  153.8890  132.9770 O   0  0  0  0  0  0  0  0  0  0  0  0
  149.2690  153.1180  132.5730 C   0  0  0  0  0  0  0  0  0  0  0  0
  150.3520  153.6820  132.2480 O   0  0  0  0  0  0  0  0  0  0  0  0
  149.1260  151.6130  132.4490 C   0  0  0  0  0  0  0  0  0  0  0  0
  147.6530  151.2280  132.2010 C   0  0  0  0  0  0  0  0  0  0  0  0
  149.9790  151.0970  131.2740 C   0  0  0  0  0  0  0  0  0  0  0  0
  149.6130  150.9650  133.7570 C   0  0  0  0  0  0  0  0  0  0  0  0
  144.7580  158.7710  133.4950 C   0  0  0  0  0  0  0  0  0  0  0  0
  143.4800  158.2460  133.7070 C   0  0  0  0  0  0  0  0  0  0  0  0
  139.2607  157.8609  133.4807 H   0  0  0  0  0  0  0  0  0  0  0  0
  140.0061  159.1572  132.4854 H   0  0  0  0  0  0  0  0  0  0  0  0
  140.7133  157.5059  132.4854 H   0  0  0  0  0  0  0  0  0  0  0  0
  141.3578  158.7183  136.3139 H   0  0  0  0  0  0  0  0  0  0  0  0
  139.7186  159.1844  135.7461 H   0  0  0  0  0  0  0  0  0  0  0  0
  140.2116  157.4571  135.7461 H   0  0  0  0  0  0  0  0  0  0  0  0
  141.8734  161.2385  134.2729 H   0  0  0  0  0  0  0  0  0  0  0  0
  144.2010  162.1073  133.9006 H   0  0  0  0  0  0  0  0  0  0  0  0
  146.8863  161.2721  133.3478 H   0  0  0  0  0  0  0  0  0  0  0  0
  148.2480  157.4780  131.1160 H   0  0  0  0  0  0  0  0  0  0  0  0
  147.9161  156.7679  134.1608 H   0  0  0  0  0  0  0  0  0  0  0  0
  146.9434  155.2890  134.4991 H   0  0  0  0  0  0  0  0  0  0  0  0
  147.4215  155.3197  131.6858 H   0  0  0  0  0  0  0  0  0  0  0  0
  148.9889  155.7178  132.4830 H   0  0  0  0  0  0  0  0  0  0  0  0
  147.1416  151.0943  133.1657 H   0  0  0  0  0  0  0  0  0  0  0  0
  147.1564  152.0265  131.6303 H   0  0  0  0  0  0  0  0  0  0  0  0
  147.6106  150.2886  131.6303 H   0  0  0  0  0  0  0  0  0  0  0  0
  150.8586  150.5649  131.6654 H   0  0  0  0  0  0  0  0  0  0  0  0
  149.3788  150.4104  130.6589 H   0  0  0  0  0  0  0  0  0  0  0  0
  150.3085  151.9474  130.6589 H   0  0  0  0  0  0  0  0  0  0  0  0
  149.1994  151.5153  134.6150 H   0  0  0  0  0  0  0  0  0  0  0  0
  149.2759  149.9186  133.7955 H   0  0  0  0  0  0  0  0  0  0  0  0
  150.7118  150.9978  133.7955 H   0  0  0  0  0  0  0  0  0  0  0  0
  143.3032  157.1617  133.6524 H   0  0  0  0  0  0  0  0  0  0  0  0
  1  2  1  0
  2  3  1  0
  2  4  1  0
  4  5  2  0
  5  6  1  0
  6  7  2  0
  7  8  1  0
  8  9  2  0
  9 10  1  0
 10 11  1  0
 10 12  2  0
  9 13  1  0
 13 14  1  0
 14 15  2  0
 14 16  1  0
 16 17  1  0
 17 18  1  0
 18 19  1  0
 19 20  2  0
 19 21  1  0
 21 22  1  0
 21 23  1  0
 21 24  1  0
 13 25  1  0
 25 26  2  0
 26  4  1  0
 25  7  1  0
  1 27  1  0
  1 28  1  0
  1 29  1  0
  3 30  1  0
  3 31  1  0
  3 32  1  0
  5 33  1  0
  6 34  1  0
  8 35  1  0
 11 36  1  0
 16 37  1  0
 16 38  1  0
 17 39  1  0
 17 40  1  0
 22 41  1  0
 22 42  1  0
 22 43  1  0
 23 44  1  0
 23 45  1  0
 23 46  1  0
 24 47  1  0
 24 48  1  0
 24 49  1  0
 26 50  1  0
M  CHG  1  11  -1
M  END
>  <UniqueID>  (76) 
76

>  <SMILES>  (76) 
CN(C)c1ccc2cc(C([NH-])=O)n(C(=O)CCOC(=O)C(C)(C)C)c2c1

>  <Energy>  (76) 
81.54779226454873

>  <Genealogy>  (76) 
CN(C)c1ccc2cc(C([NH-])=O)n(C(=O)CCOC(=O)C(C)(C)C)c2c1 (protonated)
CN(C)c1ccc2cc(C([NH-])=O)n(C(=O)CCOC(=O)C(C)(C)C)c2c1 (3D coordinates assigned)
CN(C)c1ccc2cc(C([NH-])=O)n(C(=O)CCOC(=O)C(C)(C)C)c2c1 (optimized conformer: 81.54779226454873 kcal/mol)

>  <smiles>  (76) 
CN(C)c1ccc2cc(C(N)=O)n(C(=O)CCOC(=O)C(C)(C)C)c2c1

>  <score_type>  (76) 
oracle

>  <origin>  (76) 
adg

>  <m_score__min__energy>  (76) 
-7.4800000000000004

>  <m_primary>  (76) 
energy

$$$$
78:0
     RDKit          3D

 40 42  0  0  0  0  0  0  0  0999 V2000
  148.3870  155.5400  132.9800 C   0  0  0  0  0  0  0  0  0  0  0  0
  148.8590  156.8780  132.6200 N   0  0  0  0  0  0  0  0  0  0  0  0
  147.8200  157.8510  132.8490 C   0  0  0  0  0  0  0  0  0  0  0  0
  148.1010  159.2370  132.7280 C   0  0  0  0  0  0  0  0  0  0  0  0
  147.1020  160.1940  132.9650 C   0  0  0  0  0  0  0  0  0  0  0  0
  145.8400  159.7420  133.3380 C   0  0  0  0  0  0  0  0  0  0  0  0
  144.6900  160.4500  133.6030 C   0  0  0  0  0  0  0  0  0  0  0  0
  143.7300  159.4890  133.9180 C   0  0  0  0  0  0  0  0  0  0  0  0
  142.3610  159.8250  134.3570 C   0  0  0  0  0  0  0  0  0  0  0  0
  141.3550  160.1760  133.4110 N   0  0  0  0  0  0  0  0  0  0  0  0
  142.0610  159.7510  135.5790 O   0  0  0  0  0  0  0  0  0  0  0  0
  144.2630  158.2370  133.8430 N   0  0  0  0  0  0  0  0  0  0  0  0
  143.5810  156.9820  133.9940 C   0  0  0  0  0  0  0  0  0  0  0  0
  143.6120  156.1340  133.0620 O   0  0  0  0  0  0  0  0  0  0  0  0
  142.8570  156.7200  135.1650 O   0  0  0  0  0  0  0  0  0  0  0  0
  141.7110  155.8730  135.2030 C   0  0  0  0  0  0  0  0  0  0  0  0
  140.7110  156.2990  134.1710 C   0  0  0  0  0  0  0  0  0  0  0  0
  140.2740  157.5270  134.0250 O   0  0  0  0  0  0  0  0  0  0  0  0
  139.4180  157.4890  133.0290 C   0  0  0  0  0  0  0  0  0  0  0  0
  138.7940  158.4960  132.6060 O   0  0  0  0  0  0  0  0  0  0  0  0
  139.2860  156.2850  132.5210 O   0  0  0  0  0  0  0  0  0  0  0  0
  140.0880  155.5130  133.2180 C   0  0  0  0  0  0  0  0  0  0  0  0
  140.2670  154.0490  132.9860 C   0  0  0  0  0  0  0  0  0  0  0  0
  145.5570  158.4100  133.4880 C   0  0  0  0  0  0  0  0  0  0  0  0
  146.5270  157.4310  133.2390 C   0  0  0  0  0  0  0  0  0  0  0  0
  148.3536  155.4454  134.0754 H   0  0  0  0  0  0  0  0  0  0  0  0
  147.3793  155.3833  132.5676 H   0  0  0  0  0  0  0  0  0  0  0  0
  149.0733  154.7858  132.5676 H   0  0  0  0  0  0  0  0  0  0  0  0
  149.1410  156.8830  131.6110 H   0  0  0  0  0  0  0  0  0  0  0  0
  149.7040  157.1110  133.1920 H   0  0  0  0  0  0  0  0  0  0  0  0
  149.1124  159.5646  132.4455 H   0  0  0  0  0  0  0  0  0  0  0  0
  147.3105  161.2689  132.8591 H   0  0  0  0  0  0  0  0  0  0  0  0
  144.5566  161.5415  133.5728 H   0  0  0  0  0  0  0  0  0  0  0  0
  140.6230  159.4880  133.1250 H   0  0  0  0  0  0  0  0  0  0  0  0
  142.0197  154.8365  135.0022 H   0  0  0  0  0  0  0  0  0  0  0  0
  141.2482  155.9438  136.1984 H   0  0  0  0  0  0  0  0  0  0  0  0
  140.3305  153.5295  133.9535 H   0  0  0  0  0  0  0  0  0  0  0  0
  139.4097  153.6604  132.4168 H   0  0  0  0  0  0  0  0  0  0  0  0
  141.1927  153.8784  132.4168 H   0  0  0  0  0  0  0  0  0  0  0  0
  146.2892  156.3622  133.3441 H   0  0  0  0  0  0  0  0  0  0  0  0
  1  2  1  0
  2  3  1  0
  3  4  2  0
  4  5  1  0
  5  6  2  0
  6  7  1  0
  7  8  2  0
  8  9  1  0
  9 10  1  0
  9 11  2  0
  8 12  1  0
 12 13  1  0
 13 14  2  0
 13 15  1  0
 15 16  1  0
 16 17  1  0
 17 18  1  0
 18 19  1  0
 19 20  2  0
 19 21  1  0
 21 22  1  0
 22 23  1  0
 12 24  1  0
 24 25  2  0
 25  3  1  0
 24  6  1  0
 22 17  2  0
  1 26  1  0
  1 27  1  0
  1 28  1  0
  2 29  1  0
  2 30  1  0
  4 31  1  0
  5 32  1  0
  7 33  1  0
 10 34  1  0
 16 35  1  0
 16 36  1  0
 23 37  1  0
 23 38  1  0
 23 39  1  0
 25 40  1  0
M  CHG  2   2   1  10  -1
M  END
>  <UniqueID>  (77) 
77

>  <SMILES>  (77) 
C[NH2+]c1ccc2cc(C([NH-])=O)n(C(=O)OCc3oc(=O)oc3C)c2c1

>  <Energy>  (77) 
110.5003067896934

>  <Genealogy>  (77) 
C[NH2+]c1ccc2cc(C([NH-])=O)n(C(=O)OCc3oc(=O)oc3C)c2c1 (protonated)
C[NH2+]c1ccc2cc(C([NH-])=O)n(C(=O)OCc3oc(=O)oc3C)c2c1 (3D coordinates assigned)
C[NH2+]c1ccc2cc(C([NH-])=O)n(C(=O)OCc3oc(=O)oc3C)c2c1 (optimized conformer: 110.5003067896934 kcal/mol)

>  <smiles>  (77) 
CNc1ccc2cc(C(N)=O)n(C(=O)OCc3oc(=O)oc3C)c2c1

>  <score_type>  (77) 
oracle

>  <origin>  (77) 
adg

>  <m_score__min__energy>  (77) 
-6.4800000000000004

>  <m_primary>  (77) 
energy

$$$$
79:0
     RDKit          3D

 56 57  0  0  0  0  0  0  0  0999 V2000
  149.5250  159.1300  132.0950 C   0  0  0  0  0  0  0  0  0  0  0  0
  148.7790  158.6190  133.2410 N   0  0  0  0  0  0  0  0  0  0  0  0
  147.3480  158.7140  133.3590 C   0  0  0  0  0  0  0  0  0  0  0  0
  146.7300  159.9870  133.2670 C   0  0  0  0  0  0  0  0  0  0  0  0
  145.3340  160.1170  133.3460 C   0  0  0  0  0  0  0  0  0  0  0  0
  144.5810  158.9620  133.5210 C   0  0  0  0  0  0  0  0  0  0  0  0
  143.2150  158.7940  133.5770 C   0  0  0  0  0  0  0  0  0  0  0  0
  143.0180  157.4250  133.7470 C   0  0  0  0  0  0  0  0  0  0  0  0
  141.6880  156.8090  133.9260 C   0  0  0  0  0  0  0  0  0  0  0  0
  141.3870  155.5350  133.3640 N   0  0  0  0  0  0  0  0  0  0  0  0
  140.8170  157.3980  134.6210 O   0  0  0  0  0  0  0  0  0  0  0  0
  144.2130  156.7730  133.7940 N   0  0  0  0  0  0  0  0  0  0  0  0
  144.4410  155.3600  133.8890 C   0  0  0  0  0  0  0  0  0  0  0  0
  144.0650  154.6000  132.9550 O   0  0  0  0  0  0  0  0  0  0  0  0
  145.0510  154.8320  135.0320 O   0  0  0  0  0  0  0  0  0  0  0  0
  144.3290  154.1920  136.0820 C   0  0  0  0  0  0  0  0  0  0  0  0
  142.8210  154.4010  135.9300 C   0  0  0  0  0  0  0  0  0  0  0  0
  142.1190  153.1870  136.1880 O   0  0  0  0  0  0  0  0  0  0  0  0
  141.7490  152.2790  135.1890 C   0  0  0  0  0  0  0  0  0  0  0  0
  141.2450  151.1620  135.4920 O   0  0  0  0  0  0  0  0  0  0  0  0
  141.9350  152.6340  133.8140 N   0  0  0  0  0  0  0  0  0  0  0  0
  141.6600  151.7040  132.7210 C   0  0  0  0  0  0  0  0  0  0  0  0
  140.1530  151.5030  132.5550 C   0  0  0  0  0  0  0  0  0  0  0  0
  139.8570  150.0670  132.3630 N   0  0  0  0  0  0  0  0  0  0  0  0
  140.6930  149.2470  133.2580 C   0  0  0  0  0  0  0  0  0  0  0  0
  140.0570  149.6520  130.9600 C   0  0  0  0  0  0  0  0  0  0  0  0
  138.8770  148.8110  130.4750 C   0  0  0  0  0  0  0  0  0  0  0  0
  137.7010  149.2340  131.1050 O   0  0  0  0  0  0  0  0  0  0  0  0
  145.1590  157.7270  133.6470 C   0  0  0  0  0  0  0  0  0  0  0  0
  146.5460  157.5640  133.5560 C   0  0  0  0  0  0  0  0  0  0  0  0
  150.3841  159.7185  132.4496 H   0  0  0  0  0  0  0  0  0  0  0  0
  149.8841  158.2873  131.4859 H   0  0  0  0  0  0  0  0  0  0  0  0
  148.8690  159.7693  131.4859 H   0  0  0  0  0  0  0  0  0  0  0  0
  149.3270  158.1830  134.0180 H   0  0  0  0  0  0  0  0  0  0  0  0
  147.3521  160.8841  133.1320 H   0  0  0  0  0  0  0  0  0  0  0  0
  144.8513  161.1026  133.2717 H   0  0  0  0  0  0  0  0  0  0  0  0
  142.4435  159.5746  133.5032 H   0  0  0  0  0  0  0  0  0  0  0  0
  141.9870  155.1210  132.6180 H   0  0  0  0  0  0  0  0  0  0  0  0
  144.5450  153.1137  136.0594 H   0  0  0  0  0  0  0  0  0  0  0  0
  144.6451  154.6332  137.0387 H   0  0  0  0  0  0  0  0  0  0  0  0
  142.4886  155.1697  136.6431 H   0  0  0  0  0  0  0  0  0  0  0  0
  142.6089  154.7219  134.8994 H   0  0  0  0  0  0  0  0  0  0  0  0
  142.2580  153.6010  133.5850 H   0  0  0  0  0  0  0  0  0  0  0  0
  142.0761  152.1098  131.7871 H   0  0  0  0  0  0  0  0  0  0  0  0
  142.1247  150.7345  132.9535 H   0  0  0  0  0  0  0  0  0  0  0  0
  139.6350  151.8654  133.4552 H   0  0  0  0  0  0  0  0  0  0  0  0
  139.8063  152.0659  131.6758 H   0  0  0  0  0  0  0  0  0  0  0  0
  140.4514  149.4840  134.3046 H   0  0  0  0  0  0  0  0  0  0  0  0
  140.4968  148.1813  133.0687 H   0  0  0  0  0  0  0  0  0  0  0  0
  141.7547  149.4637  133.0687 H   0  0  0  0  0  0  0  0  0  0  0  0
  140.1471  150.5474  130.3274 H   0  0  0  0  0  0  0  0  0  0  0  0
  140.9737  149.0474  130.8961 H   0  0  0  0  0  0  0  0  0  0  0  0
  138.7696  148.9264  129.3864 H   0  0  0  0  0  0  0  0  0  0  0  0
  139.0598  147.7544  130.7201 H   0  0  0  0  0  0  0  0  0  0  0  0
  137.8930  149.2340  132.0770 H   0  0  0  0  0  0  0  0  0  0  0  0
  147.0022  156.5662  133.6356 H   0  0  0  0  0  0  0  0  0  0  0  0
  1  2  1  0
  2  3  1  0
  3  4  2  0
  4  5  1  0
  5  6  2  0
  6  7  1  0
  7  8  2  0
  8  9  1  0
  9 10  1  0
  9 11  2  0
  8 12  1  0
 12 13  1  0
 13 14  2  0
 13 15  1  0
 15 16  1  0
 16 17  1  0
 17 18  1  0
 18 19  1  0
 19 20  2  0
 19 21  1  0
 21 22  1  0
 22 23  1  0
 23 24  1  0
 24 25  1  0
 24 26  1  0
 26 27  1  0
 27 28  1  0
 12 29  1  0
 29 30  2  0
 30  3  1  0
 29  6  1  0
  1 31  1  0
  1 32  1  0
  1 33  1  0
  2 34  1  0
  4 35  1  0
  5 36  1  0
  7 37  1  0
 10 38  1  0
 16 39  1  0
 16 40  1  0
 17 41  1  0
 17 42  1  0
 21 43  1  0
 22 44  1  0
 22 45  1  0
 23 46  1  0
 23 47  1  0
 25 48  1  0
 25 49  1  0
 25 50  1  0
 26 51  1  0
 26 52  1  0
 27 53  1  0
 27 54  1  0
 28 55  1  0
 30 56  1  0
M  CHG  1  10  -1
M  END
>  <UniqueID>  (78) 
78

>  <SMILES>  (78) 
CNc1ccc2cc(C([NH-])=O)n(C(=O)OCCOC(=O)NCCN(C)CCO)c2c1

>  <Energy>  (78) 
79.9754567557499

>  <Genealogy>  (78) 
CNc1ccc2cc(C([NH-])=O)n(C(=O)OCCOC(=O)NCCN(C)CCO)c2c1 (protonated)
CNc1ccc2cc(C([NH-])=O)n(C(=O)OCCOC(=O)NCCN(C)CCO)c2c1 (3D coordinates assigned)
CNc1ccc2cc(C([NH-])=O)n(C(=O)OCCOC(=O)NCCN(C)CCO)c2c1 (optimized conformer: 79.9754567557499 kcal/mol)

>  <smiles>  (78) 
CNc1ccc2cc(C(N)=O)n(C(=O)OCCOC(=O)NCCN(C)CCO)c2c1

>  <score_type>  (78) 
oracle

>  <origin>  (78) 
adg

>  <m_score__min__energy>  (78) 
-6.0599999999999996

>  <m_primary>  (78) 
energy

$$$$
80:0
     RDKit          3D

 40 42  0  0  0  0  0  0  0  0999 V2000
  140.9820  149.0760  131.6150 C   0  0  0  0  0  0  0  0  0  0  0  0
  141.0690  150.0980  132.6040 O   0  0  0  0  0  0  0  0  0  0  0  0
  142.1140  151.0340  132.6940 C   0  0  0  0  0  0  0  0  0  0  0  0
  143.4640  150.6490  132.5910 C   0  0  0  0  0  0  0  0  0  0  0  0
  144.4810  151.6030  132.6700 C   0  0  0  0  0  0  0  0  0  0  0  0
  144.1750  152.9610  132.8450 C   0  0  0  0  0  0  0  0  0  0  0  0
  145.2570  153.9750  132.9150 C   0  0  0  0  0  0  0  0  0  0  0  0
  146.6180  153.5700  132.9010 C   0  0  0  0  0  0  0  0  0  0  0  0
  147.6510  154.5180  132.9800 C   0  0  0  0  0  0  0  0  0  0  0  0
  147.3000  155.8610  133.0610 C   0  0  0  0  0  0  0  0  0  0  0  0
  148.0970  156.9760  133.1790 C   0  0  0  0  0  0  0  0  0  0  0  0
  147.2170  158.0520  133.2310 C   0  0  0  0  0  0  0  0  0  0  0  0
  147.6590  159.4600  133.2940 C   0  0  0  0  0  0  0  0  0  0  0  0
  146.7980  160.5240  132.8890 N   0  0  0  0  0  0  0  0  0  0  0  0
  148.8370  159.7220  133.6560 O   0  0  0  0  0  0  0  0  0  0  0  0
  145.9250  157.6250  133.1630 N   0  0  0  0  0  0  0  0  0  0  0  0
  144.7360  158.4200  133.3110 C   0  0  0  0  0  0  0  0  0  0  0  0
  144.7370  159.4410  134.0470 O   0  0  0  0  0  0  0  0  0  0  0  0
  143.5720  158.0700  132.6370 O   0  0  0  0  0  0  0  0  0  0  0  0
  145.9930  156.2770  133.0560 C   0  0  0  0  0  0  0  0  0  0  0  0
  144.9430  155.3520  133.0000 C   0  0  0  0  0  0  0  0  0  0  0  0
  142.8270  153.3470  132.9500 C   0  0  0  0  0  0  0  0  0  0  0  0
  141.7980  152.3920  132.8890 C   0  0  0  0  0  0  0  0  0  0  0  0
  140.3620  152.8400  132.9790 C   0  0  0  0  0  0  0  0  0  0  0  0
  139.5270  151.9160  132.3360 O   0  0  0  0  0  0  0  0  0  0  0  0
  140.8985  148.0957  132.1071 H   0  0  0  0  0  0  0  0  0  0  0  0
  140.0952  149.2478  130.9872 H   0  0  0  0  0  0  0  0  0  0  0  0
  141.8850  149.0954  130.9872 H   0  0  0  0  0  0  0  0  0  0  0  0
  143.7199  149.5889  132.4472 H   0  0  0  0  0  0  0  0  0  0  0  0
  145.5318  151.2867  132.5943 H   0  0  0  0  0  0  0  0  0  0  0  0
  146.8661  152.5009  132.8274 H   0  0  0  0  0  0  0  0  0  0  0  0
  148.7062  154.2074  132.9779 H   0  0  0  0  0  0  0  0  0  0  0  0
  149.1956  157.0095  133.2229 H   0  0  0  0  0  0  0  0  0  0  0  0
  147.1150  161.5160  132.9750 H   0  0  0  0  0  0  0  0  0  0  0  0
  145.8810  160.3310  132.4300 H   0  0  0  0  0  0  0  0  0  0  0  0
  143.8961  155.6889  133.0216 H   0  0  0  0  0  0  0  0  0  0  0  0
  142.5749  154.4096  133.0815 H   0  0  0  0  0  0  0  0  0  0  0  0
  140.0711  152.9182  134.0370 H   0  0  0  0  0  0  0  0  0  0  0  0
  140.2594  153.8193  132.4887 H   0  0  0  0  0  0  0  0  0  0  0  0
  139.3730  151.1770  132.9820 H   0  0  0  0  0  0  0  0  0  0  0  0
  1  2  1  0
  2  3  1  0
  3  4  2  0
  4  5  1  0
  5  6  2  0
  6  7  1  0
  7  8  2  0
  8  9  1  0
  9 10  2  0
 10 11  1  0
 11 12  2  0
 12 13  1  0
 13 14  1  0
 13 15  2  0
 12 16  1  0
 16 17  1  0
 17 18  2  0
 17 19  1  0
 16 20  1  0
 20 21  2  0
  6 22  1  0
 22 23  2  0
 23 24  1  0
 24 25  1  0
 23  3  1  0
 21  7  1  0
 20 10  1  0
  1 26  1  0
  1 27  1  0
  1 28  1  0
  4 29  1  0
  5 30  1  0
  8 31  1  0
  9 32  1  0
 11 33  1  0
 14 34  1  0
 14 35  1  0
 21 36  1  0
 22 37  1  0
 24 38  1  0
 24 39  1  0
 25 40  1  0
M  CHG  1  19  -1
M  END
>  <UniqueID>  (79) 
79

>  <SMILES>  (79) 
COc1ccc(-c2ccc3cc(C(N)=O)n(C(=O)[O-])c3c2)cc1CO

>  <Energy>  (79) 
87.24013298404894

>  <Genealogy>  (79) 
COc1ccc(-c2ccc3cc(C(N)=O)n(C(=O)[O-])c3c2)cc1CO (protonated)
COc1ccc(-c2ccc3cc(C(N)=O)n(C(=O)[O-])c3c2)cc1CO (3D coordinates assigned)
COc1ccc(-c2ccc3cc(C(N)=O)n(C(=O)[O-])c3c2)cc1CO (optimized conformer: 87.24013298404894 kcal/mol)

>  <smiles>  (79) 
COc1ccc(-c2ccc3cc(C(N)=O)n(C(=O)O)c3c2)cc1CO

>  <score_type>  (79) 
oracle

>  <origin>  (79) 
adg

>  <m_score__min__energy>  (79) 
-7.2300000000000004

>  <m_primary>  (79) 
energy

$$$$
81:0
     RDKit          3D

 35 37  0  0  0  0  0  0  0  0999 V2000
  144.2970  153.9050  136.9650 N   0  0  0  0  0  0  0  0  0  0  0  0
  144.2420  154.0930  135.5540 C   0  0  0  0  0  0  0  0  0  0  0  0
  143.4850  153.3590  134.8630 O   0  0  0  0  0  0  0  0  0  0  0  0
  145.0280  155.1580  134.8970 C   0  0  0  0  0  0  0  0  0  0  0  0
  144.4650  156.3230  134.3770 C   0  0  0  0  0  0  0  0  0  0  0  0
  145.5310  157.0790  133.9400 C   0  0  0  0  0  0  0  0  0  0  0  0
  145.5530  158.3310  133.3360 C   0  0  0  0  0  0  0  0  0  0  0  0
  146.8020  158.8660  132.9760 C   0  0  0  0  0  0  0  0  0  0  0  0
  148.0010  158.1470  133.2180 C   0  0  0  0  0  0  0  0  0  0  0  0
  149.2590  158.7310  132.8250 N   0  0  0  0  0  0  0  0  0  0  0  0
  149.6430  158.9100  131.4160 C   0  0  0  0  0  0  0  0  0  0  0  0
  148.9400  160.0540  130.6460 C   0  0  0  0  0  0  0  0  0  0  0  0
  149.6310  160.6530  129.4310 C   0  0  0  0  0  0  0  0  0  0  0  0
  149.5240  161.4560  130.7250 C   0  0  0  0  0  0  0  0  0  0  0  0
  147.9330  156.8730  133.8350 C   0  0  0  0  0  0  0  0  0  0  0  0
  146.6760  156.3740  134.1920 C   0  0  0  0  0  0  0  0  0  0  0  0
  146.3840  155.1890  134.7720 N   0  0  0  0  0  0  0  0  0  0  0  0
  147.3320  154.1690  135.1230 C   0  0  0  0  0  0  0  0  0  0  0  0
  147.8910  153.4990  134.2140 O   0  0  0  0  0  0  0  0  0  0  0  0
  147.6210  153.8610  136.5300 C   0  0  0  0  0  0  0  0  0  0  0  0
  146.9760  152.9620  137.1310 O   0  0  0  0  0  0  0  0  0  0  0  0
  148.6210  154.5520  137.2040 O   0  0  0  0  0  0  0  0  0  0  0  0
  145.1670  154.1170  137.5020 H   0  0  0  0  0  0  0  0  0  0  0  0
  143.3974  156.5831  134.3264 H   0  0  0  0  0  0  0  0  0  0  0  0
  144.6222  158.8855  133.1458 H   0  0  0  0  0  0  0  0  0  0  0  0
  146.8506  159.8564  132.4998 H   0  0  0  0  0  0  0  0  0  0  0  0
  149.8930  159.0240  133.5970 H   0  0  0  0  0  0  0  0  0  0  0  0
  150.7253  159.1042  131.3872 H   0  0  0  0  0  0  0  0  0  0  0  0
  149.3298  157.9847  130.9103 H   0  0  0  0  0  0  0  0  0  0  0  0
  147.9507  159.6126  130.8370 H   0  0  0  0  0  0  0  0  0  0  0  0
  150.6063  160.2628  129.1045 H   0  0  0  0  0  0  0  0  0  0  0  0
  149.3495  160.8261  128.3818 H   0  0  0  0  0  0  0  0  0  0  0  0
  150.4221  161.6447  131.3315 H   0  0  0  0  0  0  0  0  0  0  0  0
  149.1334  162.4480  130.9957 H   0  0  0  0  0  0  0  0  0  0  0  0
  148.8461  156.2910  134.0284 H   0  0  0  0  0  0  0  0  0  0  0  0
  1  2  1  0
  2  3  2  0
  2  4  1  0
  4  5  2  0
  5  6  1  0
  6  7  2  0
  7  8  1  0
  8  9  2  0
  9 10  1  0
 10 11  1  0
 11 12  1  0
 12 13  1  0
 13 14  1  0
  9 15  1  0
 15 16  2  0
 16 17  1  0
 17 18  1  0
 18 19  2  0
 18 20  1  0
 20 21  2  0
 20 22  1  0
 17  4  1  0
 16  6  1  0
 14 12  1  0
  1 23  1  0
  5 24  1  0
  7 25  1  0
  8 26  1  0
 10 27  1  0
 11 28  1  0
 11 29  1  0
 12 30  1  0
 13 31  1  0
 13 32  1  0
 14 33  1  0
 14 34  1  0
 15 35  1  0
M  CHG  2   1  -1  22  -1
M  END
>  <UniqueID>  (80) 
80

>  <SMILES>  (80) 
[NH-]C(=O)c1cc2ccc(NCC3CC3)cc2n1C(=O)C(=O)[O-]

>  <Energy>  (80) 
344.6779805702242

>  <Genealogy>  (80) 
[NH-]C(=O)c1cc2ccc(NCC3CC3)cc2n1C(=O)C(=O)[O-] (protonated)
[NH-]C(=O)c1cc2ccc(NCC3CC3)cc2n1C(=O)C(=O)[O-] (3D coordinates assigned)
[NH-]C(=O)c1cc2ccc(NCC3CC3)cc2n1C(=O)C(=O)[O-] (nonaromatic ring conformer: 344.6779805702242 kcal/mol)

>  <smiles>  (80) 
NC(=O)c1cc2ccc(NCC3CC3)cc2n1C(=O)C(=O)O

>  <score_type>  (80) 
oracle

>  <origin>  (80) 
adg

>  <m_score__min__energy>  (80) 
-7.3200000000000003

>  <m_primary>  (80) 
energy

$$$$
82:0
     RDKit          3D

 38 39  0  0  0  0  0  0  0  0999 V2000
  140.6150  159.3530  131.8450 C   0  0  0  0  0  0  0  0  0  0  0  0
  139.1540  159.4380  131.4920 C   0  0  0  0  0  0  0  0  0  0  0  0
  138.6400  160.5760  130.6540 C   0  0  0  0  0  0  0  0  0  0  0  0
  138.3000  158.4990  131.9160 C   0  0  0  0  0  0  0  0  0  0  0  0
  138.7510  157.4300  132.6960 O   0  0  0  0  0  0  0  0  0  0  0  0
  139.2200  157.5800  134.0050 C   0  0  0  0  0  0  0  0  0  0  0  0
  138.4890  158.1010  134.8920 O   0  0  0  0  0  0  0  0  0  0  0  0
  140.5510  157.1540  134.3340 N   0  0  0  0  0  0  0  0  0  0  0  0
  141.5050  157.8540  135.0120 C   0  0  0  0  0  0  0  0  0  0  0  0
  141.4280  159.2780  135.3950 C   0  0  0  0  0  0  0  0  0  0  0  0
  140.4770  159.7290  136.3560 N   0  0  0  0  0  0  0  0  0  0  0  0
  142.1790  160.1170  134.8310 O   0  0  0  0  0  0  0  0  0  0  0  0
  142.6270  157.0590  135.2400 C   0  0  0  0  0  0  0  0  0  0  0  0
  142.3330  155.8410  134.6700 C   0  0  0  0  0  0  0  0  0  0  0  0
  143.0860  154.6720  134.6210 C   0  0  0  0  0  0  0  0  0  0  0  0
  142.5160  153.5470  134.0010 C   0  0  0  0  0  0  0  0  0  0  0  0
  141.2130  153.6110  133.4460 C   0  0  0  0  0  0  0  0  0  0  0  0
  140.5950  152.3880  132.8310 C   0  0  0  0  0  0  0  0  0  0  0  0
  141.2060  150.8910  133.6620 P   0  0  0  0  0  0  0  0  0  0  0  0
  140.4410  149.6900  133.1560 O   0  0  0  0  0  0  0  0  0  0  0  0
  140.9830  151.0350  135.3320 O   0  0  0  0  0  0  0  0  0  0  0  0
  142.8520  150.6870  133.3300 O   0  0  0  0  0  0  0  0  0  0  0  0
  140.4750  154.8130  133.5240 C   0  0  0  0  0  0  0  0  0  0  0  0
  141.0740  155.9230  134.1310 C   0  0  0  0  0  0  0  0  0  0  0  0
  140.7281  159.3464  132.9392 H   0  0  0  0  0  0  0  0  0  0  0  0
  141.0401  158.4286  131.4269 H   0  0  0  0  0  0  0  0  0  0  0  0
  141.1444  160.2219  131.4269 H   0  0  0  0  0  0  0  0  0  0  0  0
  138.2768  161.3802  131.3108 H   0  0  0  0  0  0  0  0  0  0  0  0
  139.4521  160.9598  130.0191 H   0  0  0  0  0  0  0  0  0  0  0  0
  137.8151  160.2204  130.0191 H   0  0  0  0  0  0  0  0  0  0  0  0
  137.2352  158.5688  131.6488 H   0  0  0  0  0  0  0  0  0  0  0  0
  139.4860  159.4010  136.3270 H   0  0  0  0  0  0  0  0  0  0  0  0
  143.5511  157.3443  135.7641 H   0  0  0  0  0  0  0  0  0  0  0  0
  144.0962  154.6297  135.0542 H   0  0  0  0  0  0  0  0  0  0  0  0
  143.0862  152.6079  133.9458 H   0  0  0  0  0  0  0  0  0  0  0  0
  139.5013  152.4414  132.9362 H   0  0  0  0  0  0  0  0  0  0  0  0
  140.8679  152.3445  131.7663 H   0  0  0  0  0  0  0  0  0  0  0  0
  139.4547  154.8752  133.1177 H   0  0  0  0  0  0  0  0  0  0  0  0
  1  2  1  0
  2  3  1  0
  2  4  2  3
  4  5  1  0
  5  6  1  0
  6  7  2  0
  6  8  1  0
  8  9  1  0
  9 10  1  0
 10 11  1  0
 10 12  2  0
  9 13  2  0
 13 14  1  0
 14 15  2  0
 15 16  1  0
 16 17  2  0
 17 18  1  0
 18 19  1  0
 19 20  2  0
 19 21  1  0
 19 22  1  0
 17 23  1  0
 23 24  2  0
 24  8  1  0
 24 14  1  0
  1 25  1  0
  1 26  1  0
  1 27  1  0
  3 28  1  0
  3 29  1  0
  3 30  1  0
  4 31  1  0
 11 32  1  0
 13 33  1  0
 15 34  1  0
 16 35  1  0
 18 36  1  0
 18 37  1  0
 23 38  1  0
M  CHG  3  11  -1  21  -1  22  -1
M  END
>  <UniqueID>  (81) 
81

>  <SMILES>  (81) 
CC(C)=COC(=O)n1c(C([NH-])=O)cc2ccc(CP(=O)([O-])[O-])cc21

>  <Energy>  (81) 
66.49598542306316

>  <Genealogy>  (81) 
CC(C)=COC(=O)n1c(C([NH-])=O)cc2ccc(CP(=O)([O-])[O-])cc21 (protonated)
CC(C)=COC(=O)n1c(C([NH-])=O)cc2ccc(CP(=O)([O-])[O-])cc21 (3D coordinates assigned)
CC(C)=COC(=O)n1c(C([NH-])=O)cc2ccc(CP(=O)([O-])[O-])cc21 (optimized conformer: 66.49598542306316 kcal/mol)

>  <smiles>  (81) 
CC(C)=COC(=O)n1c(C(N)=O)cc2ccc(CP(=O)(O)O)cc21

>  <score_type>  (81) 
oracle

>  <origin>  (81) 
adg

>  <m_score__min__energy>  (81) 
-7.1399999999999997

>  <m_primary>  (81) 
energy

$$$$
83:0
     RDKit          3D

 42 43  0  0  0  0  0  0  0  0999 V2000
  149.3120  157.0260  131.4300 H   0  0  0  0  0  0  0  0  0  0  0  0
  149.7740  157.8210  131.9160 N   0  0  0  0  0  0  0  0  0  0  0  0
  149.0320  158.9880  132.2520 C   0  0  0  0  0  0  0  0  0  0  0  0
  149.5990  160.1140  132.2190 O   0  0  0  0  0  0  0  0  0  0  0  0
  147.6200  158.8970  132.6690 C   0  0  0  0  0  0  0  0  0  0  0  0
  146.7560  159.9930  132.6930 C   0  0  0  0  0  0  0  0  0  0  0  0
  146.9791  161.0240  132.3810 H   0  0  0  0  0  0  0  0  0  0  0  0
  145.5670  159.5120  133.1890 C   0  0  0  0  0  0  0  0  0  0  0  0
  144.3570  160.1660  133.4190 C   0  0  0  0  0  0  0  0  0  0  0  0
  144.2485  161.2424  133.2201 H   0  0  0  0  0  0  0  0  0  0  0  0
  143.2810  159.4100  133.9120 C   0  0  0  0  0  0  0  0  0  0  0  0
  142.3157  159.9011  134.1042 H   0  0  0  0  0  0  0  0  0  0  0  0
  143.4230  158.0180  134.1660 C   0  0  0  0  0  0  0  0  0  0  0  0
  142.3070  157.2380  134.6580 N   0  0  0  0  0  0  0  0  0  0  0  0
  141.0770  157.9210  135.0770 C   0  0  0  0  0  0  0  0  0  0  0  0
  141.0286  157.9479  136.1756 H   0  0  0  0  0  0  0  0  0  0  0  0
  141.0764  158.9487  134.6847 H   0  0  0  0  0  0  0  0  0  0  0  0
  140.2044  157.3782  134.6847 H   0  0  0  0  0  0  0  0  0  0  0  0
  142.3740  155.7660  134.7260 C   0  0  0  0  0  0  0  0  0  0  0  0
  141.3728  155.3533  134.5332 H   0  0  0  0  0  0  0  0  0  0  0  0
  143.0931  155.4178  133.9700 H   0  0  0  0  0  0  0  0  0  0  0  0
  142.8550  155.2870  136.1070 C   0  0  0  0  0  0  0  0  0  0  0  0
  143.3160  156.1341  136.6361 H   0  0  0  0  0  0  0  0  0  0  0  0
  141.9830  154.9023  136.6561 H   0  0  0  0  0  0  0  0  0  0  0  0
  143.8800  154.1570  135.9960 C   0  0  0  0  0  0  0  0  0  0  0  0
  143.4467  153.3236  135.4235 H   0  0  0  0  0  0  0  0  0  0  0  0
  144.7793  154.5263  135.4814 H   0  0  0  0  0  0  0  0  0  0  0  0
  144.2240  153.7140  137.2760 O   0  0  0  0  0  0  0  0  0  0  0  0
  145.1110  154.1110  137.4720 H   0  0  0  0  0  0  0  0  0  0  0  0
  144.6750  157.3950  133.9190 C   0  0  0  0  0  0  0  0  0  0  0  0
  144.8107  156.3183  134.0986 H   0  0  0  0  0  0  0  0  0  0  0  0
  145.7320  158.1770  133.4430 C   0  0  0  0  0  0  0  0  0  0  0  0
  146.9860  157.7830  133.1300 N   0  0  0  0  0  0  0  0  0  0  0  0
  147.5000  156.4480  133.2530 C   0  0  0  0  0  0  0  0  0  0  0  0
  147.7450  155.7750  132.2160 O   0  0  0  0  0  0  0  0  0  0  0  0
  147.7510  155.8840  134.5900 C   0  0  0  0  0  0  0  0  0  0  0  0
  148.3431  156.4731  135.3057 H   0  0  0  0  0  0  0  0  0  0  0  0
  147.2920  154.6890  134.9730 C   0  0  0  0  0  0  0  0  0  0  0  0
  146.7074  154.0858  134.2628 H   0  0  0  0  0  0  0  0  0  0  0  0
  147.5490  154.1620  136.3180 C   0  0  0  0  0  0  0  0  0  0  0  0
  148.4210  154.6910  137.0550 O   0  0  0  0  0  0  0  0  0  0  0  0
  146.8430  153.0510  136.7790 O   0  0  0  0  0  0  0  0  0  0  0  0
  1  2  1  0
  2  3  1  0
  3  4  2  0
  3  5  1  0
  5  6  2  0
  6  7  1  0
  6  8  1  0
  8  9  2  0
  9 10  1  0
  9 11  1  0
 11 12  1  0
 11 13  2  0
 13 14  1  0
 14 15  1  0
 15 16  1  0
 15 17  1  0
 15 18  1  0
 14 19  1  0
 19 20  1  0
 19 21  1  0
 19 22  1  0
 22 23  1  0
 22 24  1  0
 22 25  1  0
 25 26  1  0
 25 27  1  0
 25 28  1  0
 28 29  1  0
 13 30  1  0
 30 31  1  0
 30 32  2  0
 32 33  1  0
 33 34  1  0
 34 35  2  0
 34 36  1  0
 36 37  1  0
 36 38  2  0
 38 39  1  0
 38 40  1  0
 40 41  2  0
 40 42  1  0
 33  5  1  0
 32  8  1  0
M  CHG  2   2  -1  42  -1
M  END
>  <UniqueID>  (82) 
82

>  <SMILES>  (82) 
CN(CCCO)c1ccc2cc(C([NH-])=O)n(C(=O)/C=C/C(=O)[O-])c2c1

>  <Energy>  (82) 
78.94320665306265

>  <Genealogy>  (82) 
CN(CCCO)c1ccc2cc(C([NH-])=O)n(C(=O)C=CC(=O)[O-])c2c1 (protonated)
CN(CCCO)c1ccc2cc(C([NH-])=O)n(C(=O)/C=C/C(=O)[O-])c2c1 (cis-trans isomerization)
CN(CCCO)c1ccc2cc(C([NH-])=O)n(C(=O)/C=C/C(=O)[O-])c2c1 (3D coordinates assigned)
CN(CCCO)c1ccc2cc(C([NH-])=O)n(C(=O)/C=C/C(=O)[O-])c2c1 (optimized conformer: 78.94320665306265 kcal/mol)

>  <smiles>  (82) 
CN(CCCO)c1ccc2cc(C(N)=O)n(C(=O)C=CC(=O)O)c2c1

>  <score_type>  (82) 
oracle

>  <origin>  (82) 
adg

>  <m_score__min__energy>  (82) 
-7.1299999999999999

>  <m_primary>  (82) 
energy

$$$$
84:0
     RDKit          3D

 39 40  0  0  0  0  0  0  0  0999 V2000
  148.2080  155.0260  132.6110 C   0  0  0  0  0  0  0  0  0  0  0  0
  147.9420  156.4840  132.8420 C   0  0  0  0  0  0  0  0  0  0  0  0
  148.9870  157.4280  132.6930 C   0  0  0  0  0  0  0  0  0  0  0  0
  148.7390  158.8020  132.8560 C   0  0  0  0  0  0  0  0  0  0  0  0
  147.4410  159.1980  133.1620 C   0  0  0  0  0  0  0  0  0  0  0  0
  146.9180  160.4590  133.3410 C   0  0  0  0  0  0  0  0  0  0  0  0
  145.5640  160.2650  133.6050 C   0  0  0  0  0  0  0  0  0  0  0  0
  144.6350  161.3640  133.9430 C   0  0  0  0  0  0  0  0  0  0  0  0
  143.2360  161.2410  133.7080 N   0  0  0  0  0  0  0  0  0  0  0  0
  145.0800  162.4090  134.4890 O   0  0  0  0  0  0  0  0  0  0  0  0
  145.2590  158.9360  133.5810 N   0  0  0  0  0  0  0  0  0  0  0  0
  143.9690  158.3210  133.7220 C   0  0  0  0  0  0  0  0  0  0  0  0
  143.5450  157.5360  132.8290 O   0  0  0  0  0  0  0  0  0  0  0  0
  143.2000  158.5780  134.8610 O   0  0  0  0  0  0  0  0  0  0  0  0
  141.8030  158.8450  134.8070 C   0  0  0  0  0  0  0  0  0  0  0  0
  141.3340  158.6650  133.4750 O   0  0  0  0  0  0  0  0  0  0  0  0
  140.6200  159.6500  132.7880 C   0  0  0  0  0  0  0  0  0  0  0  0
  140.7090  160.8620  133.1250 O   0  0  0  0  0  0  0  0  0  0  0  0
  139.7150  159.2520  131.6620 C   0  0  0  0  0  0  0  0  0  0  0  0
  138.9790  160.4640  131.0790 C   0  0  0  0  0  0  0  0  0  0  0  0
  137.5820  160.1160  130.6680 C   0  0  0  0  0  0  0  0  0  0  0  0
  136.8450  159.4410  131.4330 O   0  0  0  0  0  0  0  0  0  0  0  0
  137.1070  160.5000  129.4190 O   0  0  0  0  0  0  0  0  0  0  0  0
  146.4190  158.2960  133.3130 C   0  0  0  0  0  0  0  0  0  0  0  0
  146.6330  156.9240  133.1370 C   0  0  0  0  0  0  0  0  0  0  0  0
  148.3017  154.5125  133.5792 H   0  0  0  0  0  0  0  0  0  0  0  0
  147.3751  154.5870  132.0422 H   0  0  0  0  0  0  0  0  0  0  0  0
  149.1422  154.9093  132.0422 H   0  0  0  0  0  0  0  0  0  0  0  0
  150.0022  157.0829  132.4474 H   0  0  0  0  0  0  0  0  0  0  0  0
  149.5461  159.5411  132.7451 H   0  0  0  0  0  0  0  0  0  0  0  0
  147.4557  161.4171  133.2870 H   0  0  0  0  0  0  0  0  0  0  0  0
  142.7940  160.3050  133.5720 H   0  0  0  0  0  0  0  0  0  0  0  0
  141.2720  158.1544  135.4787 H   0  0  0  0  0  0  0  0  0  0  0  0
  141.6166  159.8820  135.1232 H   0  0  0  0  0  0  0  0  0  0  0  0
  140.3158  158.7830  130.8689 H   0  0  0  0  0  0  0  0  0  0  0  0
  138.9658  158.5479  132.0531 H   0  0  0  0  0  0  0  0  0  0  0  0
  138.9400  161.2576  131.8397 H   0  0  0  0  0  0  0  0  0  0  0  0
  139.5260  160.8016  130.1863 H   0  0  0  0  0  0  0  0  0  0  0  0
  145.8033  156.2073  133.2261 H   0  0  0  0  0  0  0  0  0  0  0  0
  1  2  1  0
  2  3  2  0
  3  4  1  0
  4  5  2  0
  5  6  1  0
  6  7  2  0
  7  8  1  0
  8  9  1  0
  8 10  2  0
  7 11  1  0
 11 12  1  0
 12 13  2  0
 12 14  1  0
 14 15  1  0
 15 16  1  0
 16 17  1  0
 17 18  2  0
 17 19  1  0
 19 20  1  0
 20 21  1  0
 21 22  2  0
 21 23  1  0
 11 24  1  0
 24 25  2  0
 25  2  1  0
 24  5  1  0
  1 26  1  0
  1 27  1  0
  1 28  1  0
  3 29  1  0
  4 30  1  0
  6 31  1  0
  9 32  1  0
 15 33  1  0
 15 34  1  0
 19 35  1  0
 19 36  1  0
 20 37  1  0
 20 38  1  0
 25 39  1  0
M  CHG  2   9  -1  23  -1
M  END
>  <UniqueID>  (83) 
83

>  <SMILES>  (83) 
Cc1ccc2cc(C([NH-])=O)n(C(=O)OCOC(=O)CCC(=O)[O-])c2c1

>  <Energy>  (83) 
70.1171092407646

>  <Genealogy>  (83) 
Cc1ccc2cc(C([NH-])=O)n(C(=O)OCOC(=O)CCC(=O)[O-])c2c1 (protonated)
Cc1ccc2cc(C([NH-])=O)n(C(=O)OCOC(=O)CCC(=O)[O-])c2c1 (3D coordinates assigned)
Cc1ccc2cc(C([NH-])=O)n(C(=O)OCOC(=O)CCC(=O)[O-])c2c1 (optimized conformer: 70.1171092407646 kcal/mol)

>  <smiles>  (83) 
Cc1ccc2cc(C(N)=O)n(C(=O)OCOC(=O)CCC(=O)O)c2c1

>  <score_type>  (83) 
oracle

>  <origin>  (83) 
adg

>  <m_score__min__energy>  (83) 
-6.5300000000000002

>  <m_primary>  (83) 
energy

$$$$
85:0
     RDKit          3D

 35 36  0  0  0  0  0  0  0  0999 V2000
  148.5830  157.9310  133.5280 N   0  0  0  0  0  0  0  0  0  0  0  0
  147.8750  159.1420  133.2620 C   0  0  0  0  0  0  0  0  0  0  0  0
  148.5160  160.1700  132.9180 O   0  0  0  0  0  0  0  0  0  0  0  0
  146.4110  159.2280  133.4450 C   0  0  0  0  0  0  0  0  0  0  0  0
  145.7000  160.4230  133.3830 C   0  0  0  0  0  0  0  0  0  0  0  0
  144.3970  160.0860  133.6680 C   0  0  0  0  0  0  0  0  0  0  0  0
  143.2580  160.8840  133.7250 C   0  0  0  0  0  0  0  0  0  0  0  0
  142.0310  160.2620  134.0020 C   0  0  0  0  0  0  0  0  0  0  0  0
  141.9630  158.8630  134.2170 C   0  0  0  0  0  0  0  0  0  0  0  0
  140.6350  158.2020  134.4650 C   0  0  0  0  0  0  0  0  0  0  0  0
  140.1960  158.4440  135.8730 C   0  0  0  0  0  0  0  0  0  0  0  0
  139.1620  157.8820  136.3200 O   0  0  0  0  0  0  0  0  0  0  0  0
  140.9570  159.2520  136.7090 O   0  0  0  0  0  0  0  0  0  0  0  0
  143.1370  158.0820  134.1380 C   0  0  0  0  0  0  0  0  0  0  0  0
  144.3510  158.7310  133.8810 C   0  0  0  0  0  0  0  0  0  0  0  0
  145.5810  158.1890  133.7430 N   0  0  0  0  0  0  0  0  0  0  0  0
  145.9120  156.7920  133.7870 C   0  0  0  0  0  0  0  0  0  0  0  0
  145.5940  156.1030  134.7950 O   0  0  0  0  0  0  0  0  0  0  0  0
  146.5890  156.2020  132.7140 O   0  0  0  0  0  0  0  0  0  0  0  0
  146.8960  154.8110  132.6460 C   0  0  0  0  0  0  0  0  0  0  0  0
  148.4100  154.5880  132.6460 C   0  0  0  0  0  0  0  0  0  0  0  0
  149.0880  155.8110  132.5480 O   0  0  0  0  0  0  0  0  0  0  0  0
  148.1110  157.1170  133.9790 H   0  0  0  0  0  0  0  0  0  0  0  0
  149.6110  157.8770  133.3540 H   0  0  0  0  0  0  0  0  0  0  0  0
  146.0957  161.4237  133.1547 H   0  0  0  0  0  0  0  0  0  0  0  0
  143.3179  161.9696  133.5579 H   0  0  0  0  0  0  0  0  0  0  0  0
  141.1132  160.8662  134.0527 H   0  0  0  0  0  0  0  0  0  0  0  0
  139.8869  158.6179  133.7740 H   0  0  0  0  0  0  0  0  0  0  0  0
  140.7354  157.1191  134.3002 H   0  0  0  0  0  0  0  0  0  0  0  0
  143.0988  156.9912  134.2749 H   0  0  0  0  0  0  0  0  0  0  0  0
  146.4565  154.3017  133.5163 H   0  0  0  0  0  0  0  0  0  0  0  0
  146.4795  154.4032  131.7131 H   0  0  0  0  0  0  0  0  0  0  0  0
  148.7017  154.0866  133.5806 H   0  0  0  0  0  0  0  0  0  0  0  0
  148.6769  153.9638  131.7805 H   0  0  0  0  0  0  0  0  0  0  0  0
  148.5950  156.3570  131.8820 H   0  0  0  0  0  0  0  0  0  0  0  0
  1  2  1  0
  2  3  2  0
  2  4  1  0
  4  5  2  0
  5  6  1  0
  6  7  2  0
  7  8  1  0
  8  9  2  0
  9 10  1  0
 10 11  1  0
 11 12  2  0
 11 13  1  0
  9 14  1  0
 14 15  2  0
 15 16  1  0
 16 17  1  0
 17 18  2  0
 17 19  1  0
 19 20  1  0
 20 21  1  0
 21 22  1  0
 16  4  1  0
 15  6  1  0
  1 23  1  0
  1 24  1  0
  5 25  1  0
  7 26  1  0
  8 27  1  0
 10 28  1  0
 10 29  1  0
 14 30  1  0
 20 31  1  0
 20 32  1  0
 21 33  1  0
 21 34  1  0
 22 35  1  0
M  CHG  1  13  -1
M  END
>  <UniqueID>  (84) 
84

>  <SMILES>  (84) 
NC(=O)c1cc2ccc(CC(=O)[O-])cc2n1C(=O)OCCO

>  <Energy>  (84) 
69.14308314118995

>  <Genealogy>  (84) 
NC(=O)c1cc2ccc(CC(=O)[O-])cc2n1C(=O)OCCO (protonated)
NC(=O)c1cc2ccc(CC(=O)[O-])cc2n1C(=O)OCCO (3D coordinates assigned)
NC(=O)c1cc2ccc(CC(=O)[O-])cc2n1C(=O)OCCO (optimized conformer: 69.14308314118995 kcal/mol)

>  <smiles>  (84) 
NC(=O)c1cc2ccc(CC(=O)O)cc2n1C(=O)OCCO

>  <score_type>  (84) 
oracle

>  <origin>  (84) 
adg

>  <m_score__min__energy>  (84) 
-6.6299999999999999

>  <m_primary>  (84) 
energy

$$$$
86:0
     RDKit          3D

 57 60  0  0  0  0  0  0  0  0999 V2000
  145.1130  150.0500  139.7540 C   0  0  0  0  0  0  0  0  0  0  0  0
  143.7110  150.2060  139.7430 O   0  0  0  0  0  0  0  0  0  0  0  0
  143.3470  151.3730  140.4580 C   0  0  0  0  0  0  0  0  0  0  0  0
  142.1650  151.1660  141.2090 O   0  0  0  0  0  0  0  0  0  0  0  0
  141.0520  151.8130  140.6080 C   0  0  0  0  0  0  0  0  0  0  0  0
  141.5100  153.1160  139.9000 C   0  0  0  0  0  0  0  0  0  0  0  0
  140.8710  153.2920  138.5200 C   0  0  0  0  0  0  0  0  0  0  0  0
  141.2000  152.1230  137.6910 N   0  0  0  0  0  0  0  0  0  0  0  0
  141.5610  152.2620  136.3040 C   0  0  0  0  0  0  0  0  0  0  0  0
  141.3120  151.3190  135.5010 O   0  0  0  0  0  0  0  0  0  0  0  0
  142.2310  153.4700  135.7810 C   0  0  0  0  0  0  0  0  0  0  0  0
  141.5660  154.3290  134.8910 C   0  0  0  0  0  0  0  0  0  0  0  0
  142.2090  155.4650  134.3910 C   0  0  0  0  0  0  0  0  0  0  0  0
  143.5260  155.7700  134.7830 C   0  0  0  0  0  0  0  0  0  0  0  0
  144.2260  156.9570  134.2300 C   0  0  0  0  0  0  0  0  0  0  0  0
  143.5860  158.2230  134.2190 C   0  0  0  0  0  0  0  0  0  0  0  0
  144.2370  159.3500  133.6900 C   0  0  0  0  0  0  0  0  0  0  0  0
  145.5150  159.1860  133.1690 C   0  0  0  0  0  0  0  0  0  0  0  0
  146.3720  160.1130  132.6190 C   0  0  0  0  0  0  0  0  0  0  0  0
  147.5120  159.3980  132.2730 C   0  0  0  0  0  0  0  0  0  0  0  0
  148.6740  160.0000  131.5900 C   0  0  0  0  0  0  0  0  0  0  0  0
  149.9830  159.9350  132.1570 N   0  0  0  0  0  0  0  0  0  0  0  0
  148.5160  160.5410  130.4620 O   0  0  0  0  0  0  0  0  0  0  0  0
  147.3770  158.0830  132.6090 N   0  0  0  0  0  0  0  0  0  0  0  0
  148.3700  157.0500  132.5090 C   0  0  0  0  0  0  0  0  0  0  0  0
  148.0520  155.8420  132.6770 O   0  0  0  0  0  0  0  0  0  0  0  0
  149.6930  157.3720  132.2350 O   0  0  0  0  0  0  0  0  0  0  0  0
  146.1450  157.9710  133.1540 C   0  0  0  0  0  0  0  0  0  0  0  0
  145.5340  156.8340  133.6990 C   0  0  0  0  0  0  0  0  0  0  0  0
  144.1770  154.9210  135.6960 C   0  0  0  0  0  0  0  0  0  0  0  0
  143.5320  153.7870  136.1970 C   0  0  0  0  0  0  0  0  0  0  0  0
  141.0500  150.7730  138.2670 C   0  0  0  0  0  0  0  0  0  0  0  0
  140.3720  150.8150  139.6450 C   0  0  0  0  0  0  0  0  0  0  0  0
  145.4694  150.0104  140.7939 H   0  0  0  0  0  0  0  0  0  0  0  0
  145.3821  149.1164  139.2383 H   0  0  0  0  0  0  0  0  0  0  0  0
  145.5808  150.9016  139.2383 H   0  0  0  0  0  0  0  0  0  0  0  0
  144.1642  151.6437  141.1427 H   0  0  0  0  0  0  0  0  0  0  0  0
  143.1629  152.1811  139.7348 H   0  0  0  0  0  0  0  0  0  0  0  0
  140.3149  152.1156  141.3664 H   0  0  0  0  0  0  0  0  0  0  0  0
  141.2326  153.9748  140.5288 H   0  0  0  0  0  0  0  0  0  0  0  0
  142.5989  153.0526  139.7573 H   0  0  0  0  0  0  0  0  0  0  0  0
  139.7792  153.3740  138.6262 H   0  0  0  0  0  0  0  0  0  0  0  0
  141.2556  154.2064  138.0448 H   0  0  0  0  0  0  0  0  0  0  0  0
  140.5329  154.1065  134.5855 H   0  0  0  0  0  0  0  0  0  0  0  0
  141.6821  156.1252  133.6863 H   0  0  0  0  0  0  0  0  0  0  0  0
  142.5701  158.3232  134.6287 H   0  0  0  0  0  0  0  0  0  0  0  0
  143.7484  160.3356  133.6882 H   0  0  0  0  0  0  0  0  0  0  0  0
  146.1924  161.1897  132.4827 H   0  0  0  0  0  0  0  0  0  0  0  0
  150.1770  159.3370  132.9910 H   0  0  0  0  0  0  0  0  0  0  0  0
  150.7770  160.4380  131.7010 H   0  0  0  0  0  0  0  0  0  0  0  0
  146.0582  155.8671  133.7143 H   0  0  0  0  0  0  0  0  0  0  0  0
  145.2030  155.1517  136.0186 H   0  0  0  0  0  0  0  0  0  0  0  0
  144.0477  153.1396  136.9216 H   0  0  0  0  0  0  0  0  0  0  0  0
  140.4384  150.1614  137.5873 H   0  0  0  0  0  0  0  0  0  0  0  0
  142.0535  150.3401  138.3918 H   0  0  0  0  0  0  0  0  0  0  0  0
  139.3214  151.1127  139.5124 H   0  0  0  0  0  0  0  0  0  0  0  0
  140.4549  149.8121  140.0893 H   0  0  0  0  0  0  0  0  0  0  0  0
  1  2  1  0
  2  3  1  0
  3  4  1  0
  4  5  1  0
  5  6  1  0
  6  7  1  0
  7  8  1  0
  8  9  1  0
  9 10  2  0
  9 11  1  0
 11 12  2  0
 12 13  1  0
 13 14  2  0
 14 15  1  0
 15 16  2  0
 16 17  1  0
 17 18  2  0
 18 19  1  0
 19 20  2  0
 20 21  1  0
 21 22  1  0
 21 23  2  0
 20 24  1  0
 24 25  1  0
 25 26  2  0
 25 27  1  0
 24 28  1  0
 28 29  2  0
 14 30  1  0
 30 31  2  0
  8 32  1  0
 32 33  1  0
 33  5  1  0
 31 11  1  0
 29 15  1  0
 28 18  1  0
  1 34  1  0
  1 35  1  0
  1 36  1  0
  3 37  1  0
  3 38  1  0
  5 39  1  0
  6 40  1  0
  6 41  1  0
  7 42  1  0
  7 43  1  0
 12 44  1  0
 13 45  1  0
 16 46  1  0
 17 47  1  0
 19 48  1  0
 22 49  1  0
 22 50  1  0
 29 51  1  0
 30 52  1  0
 31 53  1  0
 32 54  1  0
 32 55  1  0
 33 56  1  0
 33 57  1  0
M  CHG  1  27  -1
M  END
>  <UniqueID>  (85) 
85

>  <SMILES>  (85) 
COCOC1CCN(C(=O)c2ccc(-c3ccc4cc(C(N)=O)n(C(=O)[O-])c4c3)cc2)CC1

>  <Energy>  (85) 
118.21268162690383

>  <Genealogy>  (85) 
COCOC1CCN(C(=O)c2ccc(-c3ccc4cc(C(N)=O)n(C(=O)[O-])c4c3)cc2)CC1 (protonated)
COCOC1CCN(C(=O)c2ccc(-c3ccc4cc(C(N)=O)n(C(=O)[O-])c4c3)cc2)CC1 (3D coordinates assigned)
COCOC1CCN(C(=O)c2ccc(-c3ccc4cc(C(N)=O)n(C(=O)[O-])c4c3)cc2)CC1 (nonaromatic ring conformer: 118.21268162690383 kcal/mol)

>  <smiles>  (85) 
COCOC1CCN(C(=O)c2ccc(-c3ccc4cc(C(N)=O)n(C(=O)O)c4c3)cc2)CC1

>  <score_type>  (85) 
oracle

>  <origin>  (85) 
adg

>  <m_score__min__energy>  (85) 
-8.4100000000000001

>  <m_primary>  (85) 
energy

$$$$
87:0
     RDKit          3D

 35 36  0  0  0  0  0  0  0  0999 V2000
  150.3640  159.9340  130.4260 C   0  0  0  0  0  0  0  0  0  0  0  0
  149.6990  159.3480  131.2420 C   0  0  0  0  0  0  0  0  0  0  0  0
  148.9040  158.6470  132.2170 C   0  0  0  0  0  0  0  0  0  0  0  0
  148.1210  159.3760  133.1420 C   0  0  0  0  0  0  0  0  0  0  0  0
  147.3510  158.7050  134.1070 C   0  0  0  0  0  0  0  0  0  0  0  0
  147.3820  157.3120  134.1130 C   0  0  0  0  0  0  0  0  0  0  0  0
  146.7570  156.4170  134.9500 C   0  0  0  0  0  0  0  0  0  0  0  0
  147.1520  155.1570  134.5060 C   0  0  0  0  0  0  0  0  0  0  0  0
  146.6420  153.8950  135.0800 C   0  0  0  0  0  0  0  0  0  0  0  0
  145.8870  153.0010  134.2660 N   0  0  0  0  0  0  0  0  0  0  0  0
  146.8960  153.5790  136.2710 O   0  0  0  0  0  0  0  0  0  0  0  0
  147.9960  155.2680  133.4390 N   0  0  0  0  0  0  0  0  0  0  0  0
  148.6820  154.2100  132.7530 C   0  0  0  0  0  0  0  0  0  0  0  0
  149.9320  154.2740  132.5940 O   0  0  0  0  0  0  0  0  0  0  0  0
  147.9560  153.1070  132.2830 O   0  0  0  0  0  0  0  0  0  0  0  0
  148.2280  151.7670  132.5920 C   0  0  0  0  0  0  0  0  0  0  0  0
  147.3770  150.8670  132.3520 O   0  0  0  0  0  0  0  0  0  0  0  0
  149.5250  151.4020  133.2070 C   0  0  0  0  0  0  0  0  0  0  0  0
  149.6300  151.2680  134.5350 C   0  0  0  0  0  0  0  0  0  0  0  0
  150.7220  151.1140  132.3360 C   0  0  0  0  0  0  0  0  0  0  0  0
  150.2860  150.5070  131.0400 C   0  0  0  0  0  0  0  0  0  0  0  0
  149.9470  151.2440  130.0780 O   0  0  0  0  0  0  0  0  0  0  0  0
  150.2970  149.1270  130.8810 O   0  0  0  0  0  0  0  0  0  0  0  0
  148.1240  156.5940  133.2090 C   0  0  0  0  0  0  0  0  0  0  0  0
  148.9150  157.2380  132.2500 C   0  0  0  0  0  0  0  0  0  0  0  0
  150.9712  160.4690  129.6810 H   0  0  0  0  0  0  0  0  0  0  0  0
  148.1148  160.4754  133.1058 H   0  0  0  0  0  0  0  0  0  0  0  0
  146.7428  159.2620  134.8349 H   0  0  0  0  0  0  0  0  0  0  0  0
  146.0872  156.6474  135.7916 H   0  0  0  0  0  0  0  0  0  0  0  0
  146.3620  152.3340  133.6190 H   0  0  0  0  0  0  0  0  0  0  0  0
  150.5961  150.9967  134.9857 H   0  0  0  0  0  0  0  0  0  0  0  0
  148.7502  151.4292  135.1753 H   0  0  0  0  0  0  0  0  0  0  0  0
  151.2588  152.0528  132.1348 H   0  0  0  0  0  0  0  0  0  0  0  0
  151.3832  150.4068  132.8583 H   0  0  0  0  0  0  0  0  0  0  0  0
  149.5278  156.6606  131.5422 H   0  0  0  0  0  0  0  0  0  0  0  0
  1  2  3  0
  2  3  1  0
  3  4  2  0
  4  5  1  0
  5  6  2  0
  6  7  1  0
  7  8  2  0
  8  9  1  0
  9 10  1  0
  9 11  2  0
  8 12  1  0
 12 13  1  0
 13 14  2  0
 13 15  1  0
 15 16  1  0
 16 17  2  0
 16 18  1  0
 18 19  2  0
 18 20  1  0
 20 21  1  0
 21 22  2  0
 21 23  1  0
 12 24  1  0
 24 25  2  0
 25  3  1  0
 24  6  1  0
  1 26  1  0
  4 27  1  0
  5 28  1  0
  7 29  1  0
 10 30  1  0
 19 31  1  0
 19 32  1  0
 20 33  1  0
 20 34  1  0
 25 35  1  0
M  CHG  2  10  -1  23  -1
M  END
>  <UniqueID>  (86) 
86

>  <SMILES>  (86) 
C#Cc1ccc2cc(C([NH-])=O)n(C(=O)OC(=O)C(=C)CC(=O)[O-])c2c1

>  <Energy>  (86) 
70.60187086444319

>  <Genealogy>  (86) 
C#Cc1ccc2cc(C([NH-])=O)n(C(=O)OC(=O)C(=C)CC(=O)[O-])c2c1 (protonated)
C#Cc1ccc2cc(C([NH-])=O)n(C(=O)OC(=O)C(=C)CC(=O)[O-])c2c1 (3D coordinates assigned)
C#Cc1ccc2cc(C([NH-])=O)n(C(=O)OC(=O)C(=C)CC(=O)[O-])c2c1 (optimized conformer: 70.60187086444319 kcal/mol)

>  <smiles>  (86) 
C#Cc1ccc2cc(C(N)=O)n(C(=O)OC(=O)C(=C)CC(=O)O)c2c1

>  <score_type>  (86) 
oracle

>  <origin>  (86) 
adg

>  <m_score__min__energy>  (86) 
-7.75

>  <m_primary>  (86) 
energy

$$$$
88:0
     RDKit          3D

 43 45  0  0  0  0  0  0  0  0999 V2000
  142.4270  151.8760  132.9170 C   0  0  0  0  0  0  0  0  0  0  0  0
  143.8850  151.9850  132.6140 C   0  0  0  0  0  0  0  0  0  0  0  0
  144.6990  150.9640  132.4830 O   0  0  0  0  0  0  0  0  0  0  0  0
  145.8840  151.4800  132.2440 C   0  0  0  0  0  0  0  0  0  0  0  0
  146.9210  150.7900  132.0590 O   0  0  0  0  0  0  0  0  0  0  0  0
  145.8680  152.7930  132.2170 O   0  0  0  0  0  0  0  0  0  0  0  0
  144.6260  153.1420  132.4560 C   0  0  0  0  0  0  0  0  0  0  0  0
  144.1280  154.5490  132.4880 C   0  0  0  0  0  0  0  0  0  0  0  0
  144.5180  155.1470  133.7170 O   0  0  0  0  0  0  0  0  0  0  0  0
  145.8250  155.0960  134.2070 C   0  0  0  0  0  0  0  0  0  0  0  0
  146.1000  154.3780  135.2080 O   0  0  0  0  0  0  0  0  0  0  0  0
  146.8580  155.8690  133.5720 N   0  0  0  0  0  0  0  0  0  0  0  0
  148.0620  155.4270  133.1120 C   0  0  0  0  0  0  0  0  0  0  0  0
  148.4940  154.0160  133.0360 C   0  0  0  0  0  0  0  0  0  0  0  0
  147.7560  152.9810  133.6850 N   0  0  0  0  0  0  0  0  0  0  0  0
  149.4990  153.7140  132.3380 O   0  0  0  0  0  0  0  0  0  0  0  0
  148.8360  156.4880  132.6550 C   0  0  0  0  0  0  0  0  0  0  0  0
  148.0560  157.6070  132.8340 C   0  0  0  0  0  0  0  0  0  0  0  0
  148.3320  158.9390  132.5510 C   0  0  0  0  0  0  0  0  0  0  0  0
  147.3530  159.8970  132.8610 C   0  0  0  0  0  0  0  0  0  0  0  0
  146.1170  159.5200  133.4600 C   0  0  0  0  0  0  0  0  0  0  0  0
  145.1140  160.5190  133.7850 N   0  0  0  0  0  0  0  0  0  0  0  0
  145.5090  161.8860  134.1470 C   0  0  0  0  0  0  0  0  0  0  0  0
  143.6850  160.1820  133.7490 C   0  0  0  0  0  0  0  0  0  0  0  0
  145.8860  158.1460  133.7350 C   0  0  0  0  0  0  0  0  0  0  0  0
  146.8690  157.2100  133.3910 C   0  0  0  0  0  0  0  0  0  0  0  0
  142.2788  151.8649  134.0069 H   0  0  0  0  0  0  0  0  0  0  0  0
  141.8971  152.7370  132.4837 H   0  0  0  0  0  0  0  0  0  0  0  0
  142.0310  150.9458  132.4837 H   0  0  0  0  0  0  0  0  0  0  0  0
  144.5610  155.1132  131.6489 H   0  0  0  0  0  0  0  0  0  0  0  0
  143.0316  154.5586  132.4000 H   0  0  0  0  0  0  0  0  0  0  0  0
  148.0970  151.9940  133.6510 H   0  0  0  0  0  0  0  0  0  0  0  0
  146.8310  153.1740  134.1280 H   0  0  0  0  0  0  0  0  0  0  0  0
  149.8535  156.4424  132.2396 H   0  0  0  0  0  0  0  0  0  0  0  0
  149.2895  159.2346  132.0973 H   0  0  0  0  0  0  0  0  0  0  0  0
  147.5441  160.9569  132.6373 H   0  0  0  0  0  0  0  0  0  0  0  0
  145.5367  161.9817  135.2425 H   0  0  0  0  0  0  0  0  0  0  0  0
  146.5060  162.1009  133.7349 H   0  0  0  0  0  0  0  0  0  0  0  0
  144.7803  162.5995  133.7349 H   0  0  0  0  0  0  0  0  0  0  0  0
  143.3035  160.0920  134.7768 H   0  0  0  0  0  0  0  0  0  0  0  0
  143.1345  160.9750  133.2216 H   0  0  0  0  0  0  0  0  0  0  0  0
  143.5467  159.2266  133.2216 H   0  0  0  0  0  0  0  0  0  0  0  0
  144.9488  157.8219  134.2111 H   0  0  0  0  0  0  0  0  0  0  0  0
  1  2  1  0
  2  3  1  0
  3  4  1  0
  4  5  2  0
  4  6  1  0
  6  7  1  0
  7  8  1  0
  8  9  1  0
  9 10  1  0
 10 11  2  0
 10 12  1  0
 12 13  1  0
 13 14  1  0
 14 15  1  0
 14 16  2  0
 13 17  2  0
 17 18  1  0
 18 19  2  0
 19 20  1  0
 20 21  2  0
 21 22  1  0
 22 23  1  0
 22 24  1  0
 21 25  1  0
 25 26  2  0
  7  2  2  0
 26 12  1  0
 26 18  1  0
  1 27  1  0
  1 28  1  0
  1 29  1  0
  8 30  1  0
  8 31  1  0
 15 32  1  0
 15 33  1  0
 17 34  1  0
 19 35  1  0
 20 36  1  0
 23 37  1  0
 23 38  1  0
 23 39  1  0
 24 40  1  0
 24 41  1  0
 24 42  1  0
 25 43  1  0
M  END
>  <UniqueID>  (87) 
87

>  <SMILES>  (87) 
Cc1oc(=O)oc1COC(=O)n1c(C(N)=O)cc2ccc(N(C)C)cc21

>  <Energy>  (87) 
113.22208177429297

>  <Genealogy>  (87) 
Cc1oc(=O)oc1COC(=O)n1c(C(N)=O)cc2ccc(N(C)C)cc21 (3D coordinates assigned)
Cc1oc(=O)oc1COC(=O)n1c(C(N)=O)cc2ccc(N(C)C)cc21 (optimized conformer: 113.22208177429297 kcal/mol)

>  <smiles>  (87) 
Cc1oc(=O)oc1COC(=O)n1c(C(N)=O)cc2ccc(N(C)C)cc21

>  <score_type>  (87) 
oracle

>  <origin>  (87) 
adg

>  <m_score__min__energy>  (87) 
-6.8799999999999999

>  <m_primary>  (87) 
energy

$$$$
89:0
     RDKit          3D

 39 40  0  0  0  0  0  0  0  0999 V2000
  139.5490  158.4450  133.4160 C   0  0  0  0  0  0  0  0  0  0  0  0
  140.6020  158.1100  134.3890 N   0  0  2  0  0  0  0  0  0  0  0  0
  140.8090  156.6450  134.4430 C   0  0  0  0  0  0  0  0  0  0  0  0
  142.2120  156.2550  134.9370 C   0  0  0  0  0  0  0  0  0  0  0  0
  143.1190  157.3490  134.8000 O   0  0  0  0  0  0  0  0  0  0  0  0
  143.4840  157.9170  133.5720 C   0  0  0  0  0  0  0  0  0  0  0  0
  142.7700  157.7390  132.5480 O   0  0  0  0  0  0  0  0  0  0  0  0
  144.6620  158.7340  133.4900 N   0  0  0  0  0  0  0  0  0  0  0  0
  144.7540  160.0880  133.6270 C   0  0  0  0  0  0  0  0  0  0  0  0
  143.6220  161.0320  133.7370 C   0  0  0  0  0  0  0  0  0  0  0  0
  142.2960  160.5630  133.9730 N   0  0  0  0  0  0  0  0  0  0  0  0
  143.8190  162.2640  133.5700 O   0  0  0  0  0  0  0  0  0  0  0  0
  146.0850  160.4950  133.5710 C   0  0  0  0  0  0  0  0  0  0  0  0
  146.8120  159.3420  133.3840 C   0  0  0  0  0  0  0  0  0  0  0  0
  148.1870  159.1600  133.2800 C   0  0  0  0  0  0  0  0  0  0  0  0
  148.6680  157.8490  133.1280 C   0  0  0  0  0  0  0  0  0  0  0  0
  147.7720  156.7480  133.0720 C   0  0  0  0  0  0  0  0  0  0  0  0
  148.3050  155.3420  132.9730 C   0  0  0  0  0  0  0  0  0  0  0  0
  149.5420  155.3660  132.3570 F   0  0  0  0  0  0  0  0  0  0  0  0
  148.4390  154.7810  134.2320 F   0  0  0  0  0  0  0  0  0  0  0  0
  147.4480  154.5440  132.2350 F   0  0  0  0  0  0  0  0  0  0  0  0
  146.3820  156.9740  133.2080 C   0  0  0  0  0  0  0  0  0  0  0  0
  145.9310  158.2930  133.3380 C   0  0  0  0  0  0  0  0  0  0  0  0
  140.2430  158.6470  135.6810 C   0  0  0  0  0  0  0  0  0  0  0  0
  140.9760  159.5010  136.2520 O   0  0  0  0  0  0  0  0  0  0  0  0
  139.1020  158.1900  136.3300 O   0  0  0  0  0  0  0  0  0  0  0  0
  138.6337  158.7362  133.9520 H   0  0  0  0  0  0  0  0  0  0  0  0
  139.8856  159.2804  132.7845 H   0  0  0  0  0  0  0  0  0  0  0  0
  139.3410  157.5687  132.7845 H   0  0  0  0  0  0  0  0  0  0  0  0
  141.4830  158.5690  134.0630 H   0  0  0  0  0  0  0  0  0  0  0  0
  140.0636  156.2104  135.1253 H   0  0  0  0  0  0  0  0  0  0  0  0
  140.7015  156.2592  133.4185 H   0  0  0  0  0  0  0  0  0  0  0  0
  142.1538  155.9651  135.9965 H   0  0  0  0  0  0  0  0  0  0  0  0
  142.5789  155.4142  134.3300 H   0  0  0  0  0  0  0  0  0  0  0  0
  142.1260  159.6320  134.4130 H   0  0  0  0  0  0  0  0  0  0  0  0
  146.4726  161.5208  133.6579 H   0  0  0  0  0  0  0  0  0  0  0  0
  148.8765  160.0163  133.3157 H   0  0  0  0  0  0  0  0  0  0  0  0
  149.7511  157.6728  133.0515 H   0  0  0  0  0  0  0  0  0  0  0  0
  145.6725  156.1334  133.2115 H   0  0  0  0  0  0  0  0  0  0  0  0
  1  2  1  0
  2  3  1  0
  3  4  1  0
  4  5  1  0
  5  6  1  0
  6  7  2  0
  6  8  1  0
  8  9  1  0
  9 10  1  0
 10 11  1  0
 10 12  2  0
  9 13  2  0
 13 14  1  0
 14 15  2  0
 15 16  1  0
 16 17  2  0
 17 18  1  0
 18 19  1  0
 18 20  1  0
 18 21  1  0
 17 22  1  0
 22 23  2  0
  2 24  1  0
 24 25  2  0
 24 26  1  0
 23  8  1  0
 23 14  1  0
  1 27  1  0
  1 28  1  0
  1 29  1  0
  2 30  1  6
  3 31  1  0
  3 32  1  0
  4 33  1  0
  4 34  1  0
 11 35  1  0
 13 36  1  0
 15 37  1  0
 16 38  1  0
 22 39  1  0
M  CHG  3   2   1  11  -1  26  -1
M  END
>  <UniqueID>  (88) 
88

>  <SMILES>  (88) 
C[N@H+](CCOC(=O)n1c(C([NH-])=O)cc2ccc(C(F)(F)F)cc21)C(=O)[O-]

>  <Energy>  (88) 
79.21556432018834

>  <Genealogy>  (88) 
C[NH+](CCOC(=O)n1c(C([NH-])=O)cc2ccc(C(F)(F)F)cc21)C(=O)[O-] (protonated)
C[N@H+](CCOC(=O)n1c(C([NH-])=O)cc2ccc(C(F)(F)F)cc21)C(=O)[O-] (chirality)
C[N@H+](CCOC(=O)n1c(C([NH-])=O)cc2ccc(C(F)(F)F)cc21)C(=O)[O-] (3D coordinates assigned)
C[N@H+](CCOC(=O)n1c(C([NH-])=O)cc2ccc(C(F)(F)F)cc21)C(=O)[O-] (optimized conformer: 79.21556432018834 kcal/mol)

>  <smiles>  (88) 
CN(CCOC(=O)n1c(C(N)=O)cc2ccc(C(F)(F)F)cc21)C(=O)O

>  <score_type>  (88) 
oracle

>  <origin>  (88) 
adg

>  <m_score__min__energy>  (88) 
-4.6900000000000004

>  <m_primary>  (88) 
energy

$$$$
90:0
     RDKit          3D

 36 37  0  0  0  0  0  0  0  0999 V2000
  141.7900  159.1010  133.3560 C   0  0  0  0  0  0  0  0  0  0  0  0
  141.1870  158.4060  132.2860 O   0  0  0  0  0  0  0  0  0  0  0  0
  139.7790  158.4150  132.4250 C   0  0  0  0  0  0  0  0  0  0  0  0
  139.2740  157.0150  132.7860 C   0  0  0  0  0  0  0  0  0  0  0  0
  140.3980  156.1010  132.9750 N   0  0  0  0  0  0  0  0  0  0  0  0
  140.2380  154.6760  132.9990 C   0  0  0  0  0  0  0  0  0  0  0  0
  139.0850  154.1650  132.9850 O   0  0  0  0  0  0  0  0  0  0  0  0
  141.3930  153.8240  133.0260 N   0  0  0  0  0  0  0  0  0  0  0  0
  142.6800  154.1680  133.3150 C   0  0  0  0  0  0  0  0  0  0  0  0
  143.1830  155.5400  133.5350 C   0  0  0  0  0  0  0  0  0  0  0  0
  143.3410  156.4490  132.4480 N   0  0  0  0  0  0  0  0  0  0  0  0
  143.5150  155.9050  134.6950 O   0  0  0  0  0  0  0  0  0  0  0  0
  143.4970  153.0390  133.3120 C   0  0  0  0  0  0  0  0  0  0  0  0
  142.6640  151.9850  133.0080 C   0  0  0  0  0  0  0  0  0  0  0  0
  142.9450  150.6270  132.8810 C   0  0  0  0  0  0  0  0  0  0  0  0
  141.8790  149.7600  132.5860 C   0  0  0  0  0  0  0  0  0  0  0  0
  140.5600  150.2600  132.4460 C   0  0  0  0  0  0  0  0  0  0  0  0
  139.4330  149.3290  132.1080 C   0  0  0  0  0  0  0  0  0  0  0  0
  139.4490  148.9020  130.0170 I   0  0  0  0  0  0  0  0  0  0  0  0
  140.3150  151.6440  132.5720 C   0  0  0  0  0  0  0  0  0  0  0  0
  141.3990  152.4870  132.8430 C   0  0  0  0  0  0  0  0  0  0  0  0
  141.4313  158.6876  134.3102 H   0  0  0  0  0  0  0  0  0  0  0  0
  142.8827  158.9899  133.2959 H   0  0  0  0  0  0  0  0  0  0  0  0
  141.5259  160.1671  133.2959 H   0  0  0  0  0  0  0  0  0  0  0  0
  139.4971  159.1195  133.2214 H   0  0  0  0  0  0  0  0  0  0  0  0
  139.3263  158.7250  131.4716 H   0  0  0  0  0  0  0  0  0  0  0  0
  138.6904  157.0691  133.7168 H   0  0  0  0  0  0  0  0  0  0  0  0
  138.6438  156.6406  131.9658 H   0  0  0  0  0  0  0  0  0  0  0  0
  141.3470  156.5030  133.1410 H   0  0  0  0  0  0  0  0  0  0  0  0
  142.5250  156.7370  131.8660 H   0  0  0  0  0  0  0  0  0  0  0  0
  144.5782  152.9982  133.5104 H   0  0  0  0  0  0  0  0  0  0  0  0
  143.9688  150.2451  133.0076 H   0  0  0  0  0  0  0  0  0  0  0  0
  142.0699  148.6837  132.4626 H   0  0  0  0  0  0  0  0  0  0  0  0
  139.5513  148.3925  132.6727 H   0  0  0  0  0  0  0  0  0  0  0  0
  138.4774  149.8044  132.3740 H   0  0  0  0  0  0  0  0  0  0  0  0
  139.2987  152.0497  132.4602 H   0  0  0  0  0  0  0  0  0  0  0  0
  1  2  1  0
  2  3  1  0
  3  4  1  0
  4  5  1  0
  5  6  1  0
  6  7  2  0
  6  8  1  0
  8  9  1  0
  9 10  1  0
 10 11  1  0
 10 12  2  0
  9 13  2  0
 13 14  1  0
 14 15  2  0
 15 16  1  0
 16 17  2  0
 17 18  1  0
 18 19  1  0
 17 20  1  0
 20 21  2  0
 21  8  1  0
 21 14  1  0
  1 22  1  0
  1 23  1  0
  1 24  1  0
  3 25  1  0
  3 26  1  0
  4 27  1  0
  4 28  1  0
  5 29  1  0
 11 30  1  0
 13 31  1  0
 15 32  1  0
 16 33  1  0
 18 34  1  0
 18 35  1  0
 20 36  1  0
M  CHG  1  11  -1
M  END
>  <UniqueID>  (89) 
89

>  <SMILES>  (89) 
COCCNC(=O)n1c(C([NH-])=O)cc2ccc(CI)cc21

>  <Energy>  (89) 
71.5180325112729

>  <Genealogy>  (89) 
COCCNC(=O)n1c(C([NH-])=O)cc2ccc(CI)cc21 (protonated)
COCCNC(=O)n1c(C([NH-])=O)cc2ccc(CI)cc21 (3D coordinates assigned)
COCCNC(=O)n1c(C([NH-])=O)cc2ccc(CI)cc21 (optimized conformer: 71.5180325112729 kcal/mol)

>  <smiles>  (89) 
COCCNC(=O)n1c(C(N)=O)cc2ccc(CI)cc21

>  <score_type>  (89) 
oracle

>  <origin>  (89) 
adg

>  <m_score__min__energy>  (89) 
-6.8700000000000001

>  <m_primary>  (89) 
energy

$$$$
91:0
     RDKit          3D

 51 53  0  0  0  0  0  0  0  0999 V2000
  146.5800  157.0990  134.7340 C   0  0  0  0  0  0  0  0  0  0  0  0
  146.8760  157.8460  133.5080 N   0  0  0  0  0  0  0  0  0  0  0  0
  148.1650  157.6620  132.8240 C   0  0  0  0  0  0  0  0  0  0  0  0
  148.9510  158.9820  132.7390 C   0  0  2  0  0  0  0  0  0  0  0  0
  148.4330  159.8730  133.6930 O   0  0  0  0  0  0  0  0  0  0  0  0
  148.8450  159.6060  131.3400 C   0  0  0  0  0  0  0  0  0  0  0  0
  148.2150  160.8540  131.4230 O   0  0  0  0  0  0  0  0  0  0  0  0
  145.8770  158.7290  132.9570 C   0  0  0  0  0  0  0  0  0  0  0  0
  146.0770  159.3100  131.8550 O   0  0  0  0  0  0  0  0  0  0  0  0
  144.6430  158.9530  133.6470 N   0  0  0  0  0  0  0  0  0  0  0  0
  144.1470  160.1370  134.0990 C   0  0  0  0  0  0  0  0  0  0  0  0
  144.8060  161.4510  133.9550 C   0  0  0  0  0  0  0  0  0  0  0  0
  146.2220  161.5240  133.8040 N   0  0  0  0  0  0  0  0  0  0  0  0
  144.1300  162.5120  133.9640 O   0  0  0  0  0  0  0  0  0  0  0  0
  142.9210  159.9360  134.7340 C   0  0  0  0  0  0  0  0  0  0  0  0
  142.6860  158.5810  134.6510 C   0  0  0  0  0  0  0  0  0  0  0  0
  141.6210  157.8210  135.1250 C   0  0  0  0  0  0  0  0  0  0  0  0
  141.6520  156.4330  134.9040 C   0  0  0  0  0  0  0  0  0  0  0  0
  142.7370  155.8300  134.2130 C   0  0  0  0  0  0  0  0  0  0  0  0
  142.7670  154.4050  134.0060 N   0  0  0  0  0  0  0  0  0  0  0  0
  141.5890  153.5730  134.2750 C   0  0  0  0  0  0  0  0  0  0  0  0
  141.2680  152.6830  133.0590 C   0  0  0  0  0  0  0  0  0  0  0  0
  142.4480  152.3530  132.2310 N   0  0  0  0  0  0  0  0  0  0  0  0
  143.6960  152.3470  133.0050 C   0  0  0  0  0  0  0  0  0  0  0  0
  143.9990  153.7510  133.5470 C   0  0  0  0  0  0  0  0  0  0  0  0
  143.8030  156.6380  133.7540 C   0  0  0  0  0  0  0  0  0  0  0  0
  143.7420  158.0130  133.9900 C   0  0  0  0  0  0  0  0  0  0  0  0
  146.8255  157.7185  135.6091 H   0  0  0  0  0  0  0  0  0  0  0  0
  145.5112  156.8398  134.7564 H   0  0  0  0  0  0  0  0  0  0  0  0
  147.1812  156.1781  134.7564 H   0  0  0  0  0  0  0  0  0  0  0  0
  148.7629  156.9250  133.3802 H   0  0  0  0  0  0  0  0  0  0  0  0
  147.9659  157.3120  131.8003 H   0  0  0  0  0  0  0  0  0  0  0  0
  150.0135  158.7771  132.9367 H   0  0  0  0  0  0  0  0  0  0  0  0
  147.5410  160.1650  133.3650 H   0  0  0  0  0  0  0  0  0  0  0  0
  149.8535  159.7334  130.9197 H   0  0  0  0  0  0  0  0  0  0  0  0
  148.2536  158.9434  130.6910 H   0  0  0  0  0  0  0  0  0  0  0  0
  147.4590  160.7400  132.0580 H   0  0  0  0  0  0  0  0  0  0  0  0
  146.7020  161.0520  133.0060 H   0  0  0  0  0  0  0  0  0  0  0  0
  142.2789  160.6972  135.2013 H   0  0  0  0  0  0  0  0  0  0  0  0
  140.7807  158.2918  135.6563 H   0  0  0  0  0  0  0  0  0  0  0  0
  140.8259  155.8060  135.2707 H   0  0  0  0  0  0  0  0  0  0  0  0
  141.7885  152.9346  135.1483 H   0  0  0  0  0  0  0  0  0  0  0  0
  140.7282  154.2285  134.4732 H   0  0  0  0  0  0  0  0  0  0  0  0
  140.8271  151.7436  133.4239 H   0  0  0  0  0  0  0  0  0  0  0  0
  140.5777  153.2525  132.4193 H   0  0  0  0  0  0  0  0  0  0  0  0
  142.5350  153.0660  131.4680 H   0  0  0  0  0  0  0  0  0  0  0  0
  143.5959  151.6474  133.8479 H   0  0  0  0  0  0  0  0  0  0  0  0
  144.5207  152.0335  132.3480 H   0  0  0  0  0  0  0  0  0  0  0  0
  144.7006  153.6693  134.3902 H   0  0  0  0  0  0  0  0  0  0  0  0
  144.4415  154.3544  132.7407 H   0  0  0  0  0  0  0  0  0  0  0  0
  144.6589  156.1944  133.2242 H   0  0  0  0  0  0  0  0  0  0  0  0
  1  2  1  0
  2  3  1  0
  3  4  1  0
  4  5  1  0
  4  6  1  0
  6  7  1  0
  2  8  1  0
  8  9  2  0
  8 10  1  0
 10 11  1  0
 11 12  1  0
 12 13  1  0
 12 14  2  0
 11 15  2  0
 15 16  1  0
 16 17  2  0
 17 18  1  0
 18 19  2  0
 19 20  1  0
 20 21  1  0
 21 22  1  0
 22 23  1  0
 23 24  1  0
 24 25  1  0
 19 26  1  0
 26 27  2  0
 27 10  1  0
 27 16  1  0
 25 20  1  0
  1 28  1  0
  1 29  1  0
  1 30  1  0
  3 31  1  0
  3 32  1  0
  4 33  1  1
  5 34  1  0
  6 35  1  0
  6 36  1  0
  7 37  1  0
 13 38  1  0
 15 39  1  0
 17 40  1  0
 18 41  1  0
 21 42  1  0
 21 43  1  0
 22 44  1  0
 22 45  1  0
 23 46  1  0
 24 47  1  0
 24 48  1  0
 25 49  1  0
 25 50  1  0
 26 51  1  0
M  CHG  1  13  -1
M  END
>  <UniqueID>  (90) 
90

>  <SMILES>  (90) 
CN(C[C@H](O)CO)C(=O)n1c(C([NH-])=O)cc2ccc(N3CCNCC3)cc21

>  <Energy>  (90) 
93.00428064373438

>  <Genealogy>  (90) 
CN(CC(O)CO)C(=O)n1c(C([NH-])=O)cc2ccc(N3CCNCC3)cc21 (protonated)
CN(C[C@H](O)CO)C(=O)n1c(C([NH-])=O)cc2ccc(N3CCNCC3)cc21 (chirality)
CN(C[C@H](O)CO)C(=O)n1c(C([NH-])=O)cc2ccc(N3CCNCC3)cc21 (3D coordinates assigned)
CN(C[C@H](O)CO)C(=O)n1c(C([NH-])=O)cc2ccc(N3CCNCC3)cc21 (nonaromatic ring conformer: 93.00428064373438 kcal/mol)

>  <smiles>  (90) 
CN(CC(O)CO)C(=O)n1c(C(N)=O)cc2ccc(N3CCNCC3)cc21

>  <score_type>  (90) 
oracle

>  <origin>  (90) 
adg

>  <m_score__min__energy>  (90) 
-6.3700000000000001

>  <m_primary>  (90) 
energy

$$$$
92:0
     RDKit          3D

 53 54  0  0  0  0  0  0  0  0999 V2000
  139.2950  157.8630  135.7570 C   0  0  0  0  0  0  0  0  0  0  0  0
  140.7950  158.1980  135.8350 C   0  0  0  0  0  0  0  0  0  0  0  0
  140.9880  159.4960  136.6370 C   0  0  0  0  0  0  0  0  0  0  0  0
  141.5270  157.0420  136.5440 C   0  0  0  0  0  0  0  0  0  0  0  0
  141.4900  158.4460  134.0690 Si  0  0  0  0  0  4  0  0  0  0  0  0
  140.8500  160.0380  133.3020 C   0  0  0  0  0  0  0  0  0  0  0  0
  143.3560  158.6060  134.1500 C   0  0  0  0  0  0  0  0  0  0  0  0
  141.1680  157.0500  133.0830 O   0  0  0  0  0  0  0  0  0  0  0  0
  139.8350  157.0420  132.6380 C   0  0  0  0  0  0  0  0  0  0  0  0
  139.2130  155.6890  132.9650 C   0  0  0  0  0  0  0  0  0  0  0  0
  140.1340  154.6330  132.6990 O   0  0  0  0  0  0  0  0  0  0  0  0
  141.0360  154.1340  133.6440 C   0  0  0  0  0  0  0  0  0  0  0  0
  141.0170  154.5590  134.8310 O   0  0  0  0  0  0  0  0  0  0  0  0
  142.0000  153.1440  133.2520 N   0  0  0  0  0  0  0  0  0  0  0  0
  143.3580  153.2220  133.3550 C   0  0  0  0  0  0  0  0  0  0  0  0
  144.1300  154.4250  133.7310 C   0  0  0  0  0  0  0  0  0  0  0  0
  143.5170  155.4470  134.5170 N   0  0  0  0  0  0  0  0  0  0  0  0
  145.3370  154.5460  133.3910 O   0  0  0  0  0  0  0  0  0  0  0  0
  143.9450  152.0140  132.9830 C   0  0  0  0  0  0  0  0  0  0  0  0
  142.8970  151.1870  132.6430 C   0  0  0  0  0  0  0  0  0  0  0  0
  142.9040  149.8560  132.2310 C   0  0  0  0  0  0  0  0  0  0  0  0
  141.6670  149.2340  131.9920 C   0  0  0  0  0  0  0  0  0  0  0  0
  140.4550  149.9480  132.1650 C   0  0  0  0  0  0  0  0  0  0  0  0
  139.1370  149.2590  131.9550 C   0  0  0  0  0  0  0  0  0  0  0  0
  138.8320  149.0690  130.2110 Cl  0  0  0  0  0  0  0  0  0  0  0  0
  140.4870  151.2940  132.5970 C   0  0  0  0  0  0  0  0  0  0  0  0
  141.7340  151.8930  132.8120 C   0  0  0  0  0  0  0  0  0  0  0  0
  138.8863  157.7717  136.7742 H   0  0  0  0  0  0  0  0  0  0  0  0
  138.7675  158.6655  135.2205 H   0  0  0  0  0  0  0  0  0  0  0  0
  139.1590  156.9124  135.2205 H   0  0  0  0  0  0  0  0  0  0  0  0
  140.9545  159.2705  137.7131 H   0  0  0  0  0  0  0  0  0  0  0  0
  141.9622  159.9408  136.3857 H   0  0  0  0  0  0  0  0  0  0  0  0
  140.1854  160.2050  136.3857 H   0  0  0  0  0  0  0  0  0  0  0  0
  141.4459  157.1701  137.6335 H   0  0  0  0  0  0  0  0  0  0  0  0
  141.0700  156.0849  136.2523 H   0  0  0  0  0  0  0  0  0  0  0  0
  142.5876  157.0459  136.2523 H   0  0  0  0  0  0  0  0  0  0  0  0
  140.5673  160.7413  134.0992 H   0  0  0  0  0  0  0  0  0  0  0  0
  141.6374  160.4872  132.6790 H   0  0  0  0  0  0  0  0  0  0  0  0
  139.9708  159.8172  132.6790 H   0  0  0  0  0  0  0  0  0  0  0  0
  143.6763  158.6335  135.2020 H   0  0  0  0  0  0  0  0  0  0  0  0
  143.8200  157.7444  133.6478 H   0  0  0  0  0  0  0  0  0  0  0  0
  143.6666  159.5341  133.6478 H   0  0  0  0  0  0  0  0  0  0  0  0
  139.2718  157.8394  133.1448 H   0  0  0  0  0  0  0  0  0  0  0  0
  139.8038  157.2137  131.5519 H   0  0  0  0  0  0  0  0  0  0  0  0
  138.9358  155.6668  134.0293 H   0  0  0  0  0  0  0  0  0  0  0  0
  138.3221  155.5480  132.3354 H   0  0  0  0  0  0  0  0  0  0  0  0
  142.6090  155.8740  134.2280 H   0  0  0  0  0  0  0  0  0  0  0  0
  145.0179  151.7721  132.9647 H   0  0  0  0  0  0  0  0  0  0  0  0
  143.8489  149.3090  132.0970 H   0  0  0  0  0  0  0  0  0  0  0  0
  141.6390  148.1833  131.6677 H   0  0  0  0  0  0  0  0  0  0  0  0
  139.1620  148.2682  132.4321 H   0  0  0  0  0  0  0  0  0  0  0  0
  138.3340  149.8635  132.4021 H   0  0  0  0  0  0  0  0  0  0  0  0
  139.5557  151.8562  132.7600 H   0  0  0  0  0  0  0  0  0  0  0  0
  1  2  1  0
  2  3  1  0
  2  4  1  0
  2  5  1  0
  5  6  1  0
  5  7  1  0
  5  8  1  0
  8  9  1  0
  9 10  1  0
 10 11  1  0
 11 12  1  0
 12 13  2  0
 12 14  1  0
 14 15  1  0
 15 16  1  0
 16 17  1  0
 16 18  2  0
 15 19  2  0
 19 20  1  0
 20 21  2  0
 21 22  1  0
 22 23  2  0
 23 24  1  0
 24 25  1  0
 23 26  1  0
 26 27  2  0
 27 14  1  0
 27 20  1  0
  1 28  1  0
  1 29  1  0
  1 30  1  0
  3 31  1  0
  3 32  1  0
  3 33  1  0
  4 34  1  0
  4 35  1  0
  4 36  1  0
  6 37  1  0
  6 38  1  0
  6 39  1  0
  7 40  1  0
  7 41  1  0
  7 42  1  0
  9 43  1  0
  9 44  1  0
 10 45  1  0
 10 46  1  0
 17 47  1  0
 19 48  1  0
 21 49  1  0
 22 50  1  0
 24 51  1  0
 24 52  1  0
 26 53  1  0
M  CHG  1  17  -1
M  END
>  <UniqueID>  (91) 
91

>  <SMILES>  (91) 
CC(C)(C)[Si](C)(C)OCCOC(=O)n1c(C([NH-])=O)cc2ccc(CCl)cc21

>  <Energy>  (91) 
71.04316720130798

>  <Genealogy>  (91) 
CC(C)(C)[Si](C)(C)OCCOC(=O)n1c(C([NH-])=O)cc2ccc(CCl)cc21 (protonated)
CC(C)(C)[Si](C)(C)OCCOC(=O)n1c(C([NH-])=O)cc2ccc(CCl)cc21 (3D coordinates assigned)
CC(C)(C)[Si](C)(C)OCCOC(=O)n1c(C([NH-])=O)cc2ccc(CCl)cc21 (optimized conformer: 71.04316720130798 kcal/mol)

>  <smiles>  (91) 
CC(C)(C)[Si](C)(C)OCCOC(=O)n1c(C(N)=O)cc2ccc(CCl)cc21

>  <score_type>  (91) 
oracle

>  <origin>  (91) 
adg

>  <m_score__min__energy>  (91) 
-7.8899999999999997

>  <m_primary>  (91) 
energy

$$$$
93:0
     RDKit          3D

 35 37  0  0  0  0  0  0  0  0999 V2000
  146.9490  160.4900  132.9960 N   0  0  0  0  0  0  0  0  0  0  0  0
  146.1410  159.3850  133.4050 C   0  0  0  0  0  0  0  0  0  0  0  0
  144.9460  159.5890  133.7500 O   0  0  0  0  0  0  0  0  0  0  0  0
  146.6590  158.0030  133.3670 C   0  0  0  0  0  0  0  0  0  0  0  0
  145.9520  156.9080  133.8540 C   0  0  0  0  0  0  0  0  0  0  0  0
  146.7410  155.8150  133.5770 C   0  0  0  0  0  0  0  0  0  0  0  0
  146.5300  154.4700  133.8560 C   0  0  0  0  0  0  0  0  0  0  0  0
  147.5320  153.5550  133.4940 C   0  0  0  0  0  0  0  0  0  0  0  0
  148.7290  153.9990  132.8690 C   0  0  0  0  0  0  0  0  0  0  0  0
  149.7740  153.0790  132.5000 N   0  0  0  0  0  0  0  0  0  0  0  0
  149.5930  151.6230  132.4910 C   0  0  0  0  0  0  0  0  0  0  0  0
  150.8680  150.8570  132.2820 C   0  0  0  0  0  0  0  0  0  0  0  0
  150.5190  150.3420  130.9470 N   0  0  0  0  0  0  0  0  0  0  0  0
  151.1160  149.5110  129.9560 C   0  0  0  0  0  0  0  0  0  0  0  0
  150.5040  149.2680  128.8840 O   0  0  0  0  0  0  0  0  0  0  0  0
  149.2620  151.0890  131.1310 C   0  0  0  0  0  0  0  0  0  0  0  0
  148.9040  155.3760  132.6060 C   0  0  0  0  0  0  0  0  0  0  0  0
  147.8790  156.2630  132.9570 C   0  0  0  0  0  0  0  0  0  0  0  0
  147.8460  157.6090  132.8230 N   0  0  0  0  0  0  0  0  0  0  0  0
  148.9000  158.4490  132.3240 C   0  0  0  0  0  0  0  0  0  0  0  0
  149.5900  159.1440  133.1160 O   0  0  0  0  0  0  0  0  0  0  0  0
  149.1710  158.5050  130.9620 O   0  0  0  0  0  0  0  0  0  0  0  0
  147.8780  160.3410  132.5470 H   0  0  0  0  0  0  0  0  0  0  0  0
  146.5780  161.4640  133.0670 H   0  0  0  0  0  0  0  0  0  0  0  0
  144.9720  156.9146  134.3536 H   0  0  0  0  0  0  0  0  0  0  0  0
  145.6051  154.1319  134.3461 H   0  0  0  0  0  0  0  0  0  0  0  0
  147.3890  152.4832  133.6963 H   0  0  0  0  0  0  0  0  0  0  0  0
  150.7140  153.4730  132.2720 H   0  0  0  0  0  0  0  0  0  0  0  0
  148.9523  151.5156  133.3787 H   0  0  0  0  0  0  0  0  0  0  0  0
  151.7564  151.5055  132.2687 H   0  0  0  0  0  0  0  0  0  0  0  0
  151.1420  150.1183  133.0497 H   0  0  0  0  0  0  0  0  0  0  0  0
  152.1137  149.0811  130.1283 H   0  0  0  0  0  0  0  0  0  0  0  0
  149.1275  151.8847  130.3835 H   0  0  0  0  0  0  0  0  0  0  0  0
  148.3237  150.5241  131.0290 H   0  0  0  0  0  0  0  0  0  0  0  0
  149.8273  155.7441  132.1348 H   0  0  0  0  0  0  0  0  0  0  0  0
  1  2  1  0
  2  3  2  0
  2  4  1  0
  4  5  2  0
  5  6  1  0
  6  7  2  0
  7  8  1  0
  8  9  2  0
  9 10  1  0
 10 11  1  0
 11 12  1  0
 12 13  1  0
 13 14  1  0
 14 15  2  0
 13 16  1  0
  9 17  1  0
 17 18  2  0
 18 19  1  0
 19 20  1  0
 20 21  2  0
 20 22  1  0
 19  4  1  0
 18  6  1  0
 16 11  1  0
  1 23  1  0
  1 24  1  0
  5 25  1  0
  7 26  1  0
  8 27  1  0
 10 28  1  0
 11 29  1  0
 12 30  1  0
 12 31  1  0
 14 32  1  0
 16 33  1  0
 16 34  1  0
 17 35  1  0
M  CHG  1  22  -1
M  END
>  <UniqueID>  (92) 
92

>  <SMILES>  (92) 
NC(=O)c1cc2ccc(NC3CN(C=O)C3)cc2n1C(=O)[O-]

>  <Energy>  (92) 
121.1198419799206

>  <Genealogy>  (92) 
NC(=O)c1cc2ccc(NC3CN(C=O)C3)cc2n1C(=O)[O-] (protonated)
NC(=O)c1cc2ccc(NC3CN(C=O)C3)cc2n1C(=O)[O-] (3D coordinates assigned)
NC(=O)c1cc2ccc(NC3CN(C=O)C3)cc2n1C(=O)[O-] (nonaromatic ring conformer: 121.1198419799206 kcal/mol)

>  <smiles>  (92) 
NC(=O)c1cc2ccc(NC3CN(C=O)C3)cc2n1C(=O)O

>  <score_type>  (92) 
oracle

>  <origin>  (92) 
adg

>  <m_score__min__energy>  (92) 
-7.2699999999999996

>  <m_primary>  (92) 
energy

$$$$
94:0
     RDKit          3D

 37 38  0  0  0  0  0  0  0  0999 V2000
  149.2330  158.0860  131.8570 N   0  0  0  0  0  0  0  0  0  0  0  0
  148.4070  158.8410  132.7390 C   0  0  0  0  0  0  0  0  0  0  0  0
  148.8970  159.8300  133.3480 O   0  0  0  0  0  0  0  0  0  0  0  0
  147.0040  158.4540  132.9820 C   0  0  0  0  0  0  0  0  0  0  0  0
  145.9360  159.3500  132.9360 C   0  0  0  0  0  0  0  0  0  0  0  0
  144.8280  158.6160  133.2940 C   0  0  0  0  0  0  0  0  0  0  0  0
  143.4940  158.9990  133.4020 C   0  0  0  0  0  0  0  0  0  0  0  0
  142.5550  158.0190  133.7670 C   0  0  0  0  0  0  0  0  0  0  0  0
  142.9640  156.6830  134.0140 C   0  0  0  0  0  0  0  0  0  0  0  0
  141.9460  155.6310  134.3690 C   0  0  0  0  0  0  0  0  0  0  0  0
  141.9590  154.4560  133.3780 C   0  0  0  0  0  0  0  0  0  0  0  0
  142.7860  153.2630  133.8670 C   0  0  0  0  0  0  0  0  0  0  0  0
  143.1960  153.4680  135.1910 O   0  0  0  0  0  0  0  0  0  0  0  0
  144.3260  156.3320  133.8900 C   0  0  0  0  0  0  0  0  0  0  0  0
  145.2380  157.3310  133.5370 C   0  0  0  0  0  0  0  0  0  0  0  0
  146.5690  157.2150  133.3460 N   0  0  0  0  0  0  0  0  0  0  0  0
  147.3210  155.9950  133.4240 C   0  0  0  0  0  0  0  0  0  0  0  0
  147.7920  155.4930  132.3680 O   0  0  0  0  0  0  0  0  0  0  0  0
  147.6980  155.4310  134.7660 C   0  0  0  0  0  0  0  0  0  0  0  0
  146.5490  154.1270  135.3200 P   0  0  0  0  0  0  0  0  0  0  0  0
  146.0130  153.3640  134.1310 O   0  0  0  0  0  0  0  0  0  0  0  0
  145.2610  154.8400  136.1520 O   0  0  0  0  0  0  0  0  0  0  0  0
  147.3550  153.0590  136.3550 O   0  0  0  0  0  0  0  0  0  0  0  0
  148.9240  157.1570  131.4950 H   0  0  0  0  0  0  0  0  0  0  0  0
  145.9717  160.4168  132.6701 H   0  0  0  0  0  0  0  0  0  0  0  0
  143.1844  160.0365  133.2077 H   0  0  0  0  0  0  0  0  0  0  0  0
  141.4932  158.2902  133.8620 H   0  0  0  0  0  0  0  0  0  0  0  0
  142.1680  155.2481  135.3760 H   0  0  0  0  0  0  0  0  0  0  0  0
  140.9501  156.0964  134.3295 H   0  0  0  0  0  0  0  0  0  0  0  0
  140.9232  154.1215  133.2188 H   0  0  0  0  0  0  0  0  0  0  0  0
  142.4242  154.8172  132.4490 H   0  0  0  0  0  0  0  0  0  0  0  0
  142.1741  152.3505  133.8134 H   0  0  0  0  0  0  0  0  0  0  0  0
  143.6754  153.1572  133.2284 H   0  0  0  0  0  0  0  0  0  0  0  0
  144.1440  153.7570  135.1420 H   0  0  0  0  0  0  0  0  0  0  0  0
  144.6608  155.2992  134.0666 H   0  0  0  0  0  0  0  0  0  0  0  0
  148.7099  155.0049  134.6985 H   0  0  0  0  0  0  0  0  0  0  0  0
  147.6537  156.2504  135.4986 H   0  0  0  0  0  0  0  0  0  0  0  0
  1  2  1  0
  2  3  2  0
  2  4  1  0
  4  5  2  0
  5  6  1  0
  6  7  2  0
  7  8  1  0
  8  9  2  0
  9 10  1  0
 10 11  1  0
 11 12  1  0
 12 13  1  0
  9 14  1  0
 14 15  2  0
 15 16  1  0
 16 17  1  0
 17 18  2  0
 17 19  1  0
 19 20  1  0
 20 21  2  0
 20 22  1  0
 20 23  1  0
 16  4  1  0
 15  6  1  0
  1 24  1  0
  5 25  1  0
  7 26  1  0
  8 27  1  0
 10 28  1  0
 10 29  1  0
 11 30  1  0
 11 31  1  0
 12 32  1  0
 12 33  1  0
 13 34  1  0
 14 35  1  0
 19 36  1  0
 19 37  1  0
M  CHG  3   1  -1  22  -1  23  -1
M  END
>  <UniqueID>  (93) 
93

>  <SMILES>  (93) 
[NH-]C(=O)c1cc2ccc(CCCO)cc2n1C(=O)CP(=O)([O-])[O-]

>  <Energy>  (93) 
69.10338669004054

>  <Genealogy>  (93) 
[NH-]C(=O)c1cc2ccc(CCCO)cc2n1C(=O)CP(=O)([O-])[O-] (protonated)
[NH-]C(=O)c1cc2ccc(CCCO)cc2n1C(=O)CP(=O)([O-])[O-] (3D coordinates assigned)
[NH-]C(=O)c1cc2ccc(CCCO)cc2n1C(=O)CP(=O)([O-])[O-] (optimized conformer: 69.10338669004054 kcal/mol)

>  <smiles>  (93) 
NC(=O)c1cc2ccc(CCCO)cc2n1C(=O)CP(=O)(O)O

>  <score_type>  (93) 
oracle

>  <origin>  (93) 
adg

>  <m_score__min__energy>  (93) 
-5.6600000000000001

>  <m_primary>  (93) 
energy

$$$$
95:0
     RDKit          3D

 37 38  0  0  0  0  0  0  0  0999 V2000
  140.2950  150.7390  138.7230 C   0  0  0  0  0  0  0  0  0  0  0  0
  140.9030  151.2300  137.4530 C   0  0  0  0  0  0  0  0  0  0  0  0
  140.6070  150.6700  136.3620 O   0  0  0  0  0  0  0  0  0  0  0  0
  141.7620  152.3300  137.4810 O   0  0  0  0  0  0  0  0  0  0  0  0
  141.3330  153.6360  137.8550 C   0  0  0  0  0  0  0  0  0  0  0  0
  142.1670  154.6910  137.1260 C   0  0  0  0  0  0  0  0  0  0  0  0
  142.4300  154.2990  135.6970 C   0  0  0  0  0  0  0  0  0  0  0  0
  143.4510  153.6170  135.4160 O   0  0  0  0  0  0  0  0  0  0  0  0
  141.5580  154.7330  134.6430 N   0  0  0  0  0  0  0  0  0  0  0  0
  140.9720  153.9760  133.6740 C   0  0  0  0  0  0  0  0  0  0  0  0
  141.2880  152.5650  133.3750 C   0  0  0  0  0  0  0  0  0  0  0  0
  141.7360  151.6730  134.3970 N   0  0  0  0  0  0  0  0  0  0  0  0
  141.2060  152.1510  132.1880 O   0  0  0  0  0  0  0  0  0  0  0  0
  140.0220  154.7200  132.9790 C   0  0  0  0  0  0  0  0  0  0  0  0
  140.0470  155.9710  133.5560 C   0  0  0  0  0  0  0  0  0  0  0  0
  139.2790  157.1000  133.2860 C   0  0  0  0  0  0  0  0  0  0  0  0
  139.4790  158.2380  134.0870 C   0  0  0  0  0  0  0  0  0  0  0  0
  140.4210  158.2210  135.1450 C   0  0  0  0  0  0  0  0  0  0  0  0
  140.6260  159.4470  135.9820 C   0  0  0  0  0  0  0  0  0  0  0  0
  141.1930  157.0620  135.3780 C   0  0  0  0  0  0  0  0  0  0  0  0
  140.9830  155.9500  134.5560 C   0  0  0  0  0  0  0  0  0  0  0  0
  140.8327  151.1732  139.5788 H   0  0  0  0  0  0  0  0  0  0  0  0
  139.2376  151.0396  138.7635 H   0  0  0  0  0  0  0  0  0  0  0  0
  140.3662  149.6421  138.7635 H   0  0  0  0  0  0  0  0  0  0  0  0
  140.2733  153.7614  137.5880 H   0  0  0  0  0  0  0  0  0  0  0  0
  141.4623  153.7609  138.9402 H   0  0  0  0  0  0  0  0  0  0  0  0
  141.6238  155.6474  137.1396 H   0  0  0  0  0  0  0  0  0  0  0  0
  143.1345  154.7813  137.6416 H   0  0  0  0  0  0  0  0  0  0  0  0
  141.9740  152.0190  135.3520 H   0  0  0  0  0  0  0  0  0  0  0  0
  141.9110  150.6680  134.1740 H   0  0  0  0  0  0  0  0  0  0  0  0
  139.3871  154.3813  132.1470 H   0  0  0  0  0  0  0  0  0  0  0  0
  138.5392  157.1018  132.4719 H   0  0  0  0  0  0  0  0  0  0  0  0
  138.8980  159.1511  133.8902 H   0  0  0  0  0  0  0  0  0  0  0  0
  140.5806  159.1757  137.0470 H   0  0  0  0  0  0  0  0  0  0  0  0
  141.6098  159.8845  135.7567 H   0  0  0  0  0  0  0  0  0  0  0  0
  139.8381  160.1808  135.7567 H   0  0  0  0  0  0  0  0  0  0  0  0
  141.9401  157.0343  136.1849 H   0  0  0  0  0  0  0  0  0  0  0  0
  1  2  1  0
  2  3  2  0
  2  4  1  0
  4  5  1  0
  5  6  1  0
  6  7  1  0
  7  8  2  0
  7  9  1  0
  9 10  1  0
 10 11  1  0
 11 12  1  0
 11 13  2  0
 10 14  2  0
 14 15  1  0
 15 16  2  0
 16 17  1  0
 17 18  2  0
 18 19  1  0
 18 20  1  0
 20 21  2  0
 21  9  1  0
 21 15  1  0
  1 22  1  0
  1 23  1  0
  1 24  1  0
  5 25  1  0
  5 26  1  0
  6 27  1  0
  6 28  1  0
 12 29  1  0
 12 30  1  0
 14 31  1  0
 16 32  1  0
 17 33  1  0
 19 34  1  0
 19 35  1  0
 19 36  1  0
 20 37  1  0
M  END
>  <UniqueID>  (94) 
94

>  <SMILES>  (94) 
CC(=O)OCCC(=O)n1c(C(N)=O)cc2ccc(C)cc21

>  <Energy>  (94) 
68.51060126516775

>  <Genealogy>  (94) 
CC(=O)OCCC(=O)n1c(C(N)=O)cc2ccc(C)cc21 (3D coordinates assigned)
CC(=O)OCCC(=O)n1c(C(N)=O)cc2ccc(C)cc21 (optimized conformer: 68.51060126516775 kcal/mol)

>  <smiles>  (94) 
CC(=O)OCCC(=O)n1c(C(N)=O)cc2ccc(C)cc21

>  <score_type>  (94) 
oracle

>  <origin>  (94) 
adg

>  <m_score__min__energy>  (94) 
-5.8499999999999996

>  <m_primary>  (94) 
energy

$$$$
96:0
     RDKit          3D

 44 45  0  0  0  0  0  0  0  0999 V2000
  141.8210  155.7450  134.8840 N   0  0  0  0  0  0  0  0  0  0  0  0
  143.0980  155.5040  135.4780 C   0  0  0  0  0  0  0  0  0  0  0  0
  143.1560  155.0410  136.6470 O   0  0  0  0  0  0  0  0  0  0  0  0
  144.3450  155.8500  134.7730 C   0  0  0  0  0  0  0  0  0  0  0  0
  145.4780  155.0430  134.7970 C   0  0  0  0  0  0  0  0  0  0  0  0
  146.4270  155.7280  134.0770 C   0  0  0  0  0  0  0  0  0  0  0  0
  147.7360  155.3770  133.7690 C   0  0  0  0  0  0  0  0  0  0  0  0
  148.4820  156.2540  132.9650 C   0  0  0  0  0  0  0  0  0  0  0  0
  147.9120  157.4550  132.4730 C   0  0  0  0  0  0  0  0  0  0  0  0
  148.7060  158.3080  131.6240 N   0  0  0  0  0  0  0  0  0  0  0  0
  148.9440  159.7320  131.8670 C   0  0  0  0  0  0  0  0  0  0  0  0
  149.4640  160.3900  130.6280 C   0  0  0  0  0  0  0  0  0  0  0  0
  149.7910  159.6960  129.6290 O   0  0  0  0  0  0  0  0  0  0  0  0
  149.6200  161.7710  130.5880 O   0  0  0  0  0  0  0  0  0  0  0  0
  146.5780  157.7820  132.8200 C   0  0  0  0  0  0  0  0  0  0  0  0
  145.8600  156.8970  133.6370 C   0  0  0  0  0  0  0  0  0  0  0  0
  144.5750  156.9890  134.0570 N   0  0  0  0  0  0  0  0  0  0  0  0
  143.6170  158.0010  133.6940 C   0  0  0  0  0  0  0  0  0  0  0  0
  143.7840  159.1920  134.0720 O   0  0  0  0  0  0  0  0  0  0  0  0
  142.5070  157.6650  132.9070 O   0  0  0  0  0  0  0  0  0  0  0  0
  141.4520  158.5840  132.6310 C   0  0  0  0  0  0  0  0  0  0  0  0
  140.1980  157.9030  132.5810 O   0  0  0  0  0  0  0  0  0  0  0  0
  139.6430  157.2470  133.6860 C   0  0  0  0  0  0  0  0  0  0  0  0
  139.5990  155.9870  133.7360 O   0  0  0  0  0  0  0  0  0  0  0  0
  139.1050  158.0570  134.8260 C   0  0  0  0  0  0  0  0  0  0  0  0
  140.2300  158.7400  135.6130 C   0  0  0  0  0  0  0  0  0  0  0  0
  140.6400  157.9310  136.8090 C   0  0  0  0  0  0  0  0  0  0  0  0
  140.2140  156.7540  136.9580 O   0  0  0  0  0  0  0  0  0  0  0  0
  141.4930  158.4770  137.7620 O   0  0  0  0  0  0  0  0  0  0  0  0
  140.9500  155.4670  135.3860 H   0  0  0  0  0  0  0  0  0  0  0  0
  141.7390  156.2550  133.9770 H   0  0  0  0  0  0  0  0  0  0  0  0
  145.5902  154.0650  135.2878 H   0  0  0  0  0  0  0  0  0  0  0  0
  148.1745  154.4404  134.1437 H   0  0  0  0  0  0  0  0  0  0  0  0
  149.5236  156.0054  132.7134 H   0  0  0  0  0  0  0  0  0  0  0  0
  149.1170  157.9000  130.7540 H   0  0  0  0  0  0  0  0  0  0  0  0
  148.0000  160.2122  132.1641 H   0  0  0  0  0  0  0  0  0  0  0  0
  149.6895  159.8386  132.6688 H   0  0  0  0  0  0  0  0  0  0  0  0
  146.1150  158.7110  132.4560 H   0  0  0  0  0  0  0  0  0  0  0  0
  141.4190  159.3463  133.4234 H   0  0  0  0  0  0  0  0  0  0  0  0
  141.6388  159.0590  131.6566 H   0  0  0  0  0  0  0  0  0  0  0  0
  138.4285  158.8279  134.4283 H   0  0  0  0  0  0  0  0  0  0  0  0
  138.5703  157.3792  135.5077 H   0  0  0  0  0  0  0  0  0  0  0  0
  141.1007  158.8672  134.9529 H   0  0  0  0  0  0  0  0  0  0  0  0
  139.8592  159.7131  135.9675 H   0  0  0  0  0  0  0  0  0  0  0  0
  1  2  1  0
  2  3  2  0
  2  4  1  0
  4  5  2  0
  5  6  1  0
  6  7  2  0
  7  8  1  0
  8  9  2  0
  9 10  1  0
 10 11  1  0
 11 12  1  0
 12 13  2  0
 12 14  1  0
  9 15  1  0
 15 16  2  0
 16 17  1  0
 17 18  1  0
 18 19  2  0
 18 20  1  0
 20 21  1  0
 21 22  1  0
 22 23  1  0
 23 24  2  0
 23 25  1  0
 25 26  1  0
 26 27  1  0
 27 28  2  0
 27 29  1  0
 17  4  1  0
 16  6  1  0
  1 30  1  0
  1 31  1  0
  5 32  1  0
  7 33  1  0
  8 34  1  0
 10 35  1  0
 11 36  1  0
 11 37  1  0
 15 38  1  0
 21 39  1  0
 21 40  1  0
 25 41  1  0
 25 42  1  0
 26 43  1  0
 26 44  1  0
M  CHG  2  14  -1  29  -1
M  END
>  <UniqueID>  (95) 
95

>  <SMILES>  (95) 
NC(=O)c1cc2ccc(NCC(=O)[O-])cc2n1C(=O)OCOC(=O)CCC(=O)[O-]

>  <Energy>  (95) 
73.79029997620152

>  <Genealogy>  (95) 
NC(=O)c1cc2ccc(NCC(=O)[O-])cc2n1C(=O)OCOC(=O)CCC(=O)[O-] (protonated)
NC(=O)c1cc2ccc(NCC(=O)[O-])cc2n1C(=O)OCOC(=O)CCC(=O)[O-] (3D coordinates assigned)
NC(=O)c1cc2ccc(NCC(=O)[O-])cc2n1C(=O)OCOC(=O)CCC(=O)[O-] (optimized conformer: 73.79029997620152 kcal/mol)

>  <smiles>  (95) 
NC(=O)c1cc2ccc(NCC(=O)O)cc2n1C(=O)OCOC(=O)CCC(=O)O

>  <score_type>  (95) 
oracle

>  <origin>  (95) 
adg

>  <m_score__min__energy>  (95) 
-6.7999999999999998

>  <m_primary>  (95) 
energy

$$$$
97:0
     RDKit          3D

 40 41  0  0  0  0  0  0  0  0999 V2000
  142.0320  155.7550  133.3810 C   0  0  0  0  0  0  0  0  0  0  0  0
  141.9790  157.2730  133.5180 C   0  0  2  0  0  0  0  0  0  0  0  0
  141.0720  157.8220  132.5610 O   0  0  0  0  0  0  0  0  0  0  0  0
  140.4060  159.0380  132.7380 C   0  0  0  0  0  0  0  0  0  0  0  0
  141.0530  160.0990  132.9640 O   0  0  0  0  0  0  0  0  0  0  0  0
  139.0120  159.0630  132.6530 O   0  0  0  0  0  0  0  0  0  0  0  0
  138.3090  158.7270  131.4630 C   0  0  0  0  0  0  0  0  0  0  0  0
  137.7970  159.9740  130.8240 C   0  0  0  0  0  0  0  0  0  0  0  0
  138.6000  160.8670  130.4480 O   0  0  0  0  0  0  0  0  0  0  0  0
  136.4360  160.1280  130.5920 O   0  0  0  0  0  0  0  0  0  0  0  0
  143.2820  157.7990  133.2850 O   0  0  0  0  0  0  0  0  0  0  0  0
  143.8520  158.8040  134.0750 C   0  0  0  0  0  0  0  0  0  0  0  0
  143.1940  159.3190  135.0210 O   0  0  0  0  0  0  0  0  0  0  0  0
  145.1960  159.2350  133.8180 N   0  0  0  0  0  0  0  0  0  0  0  0
  145.6550  160.5160  133.7250 C   0  0  0  0  0  0  0  0  0  0  0  0
  144.8890  161.7370  134.0490 C   0  0  0  0  0  0  0  0  0  0  0  0
  143.5010  161.8360  133.7430 N   0  0  0  0  0  0  0  0  0  0  0  0
  145.4580  162.6880  134.6500 O   0  0  0  0  0  0  0  0  0  0  0  0
  146.9990  160.5290  133.3570 C   0  0  0  0  0  0  0  0  0  0  0  0
  147.3550  159.2060  133.2320 C   0  0  0  0  0  0  0  0  0  0  0  0
  148.5770  158.6380  132.8850 C   0  0  0  0  0  0  0  0  0  0  0  0
  148.6550  157.2370  132.8110 C   0  0  0  0  0  0  0  0  0  0  0  0
  147.5120  156.4330  133.0580 C   0  0  0  0  0  0  0  0  0  0  0  0
  147.6180  154.9290  133.0120 C   0  0  0  0  0  0  0  0  0  0  0  0
  146.4570  154.4070  132.4740 F   0  0  0  0  0  0  0  0  0  0  0  0
  147.7980  154.4120  134.2830 F   0  0  0  0  0  0  0  0  0  0  0  0
  148.6920  154.5390  132.2310 F   0  0  0  0  0  0  0  0  0  0  0  0
  146.2940  157.0480  133.4300 C   0  0  0  0  0  0  0  0  0  0  0  0
  146.2510  158.4450  133.5140 C   0  0  0  0  0  0  0  0  0  0  0  0
  142.0480  155.2969  134.3810 H   0  0  0  0  0  0  0  0  0  0  0  0
  141.1455  155.4053  132.8316 H   0  0  0  0  0  0  0  0  0  0  0  0
  142.9407  155.4679  132.8316 H   0  0  0  0  0  0  0  0  0  0  0  0
  141.6348  157.5375  134.5287 H   0  0  0  0  0  0  0  0  0  0  0  0
  138.9879  158.2104  130.7686 H   0  0  0  0  0  0  0  0  0  0  0  0
  137.4652  158.0652  131.7079 H   0  0  0  0  0  0  0  0  0  0  0  0
  142.9020  160.9830  133.6790 H   0  0  0  0  0  0  0  0  0  0  0  0
  147.6391  161.4097  133.1999 H   0  0  0  0  0  0  0  0  0  0  0  0
  149.4550  159.2665  132.6750 H   0  0  0  0  0  0  0  0  0  0  0  0
  149.6126  156.7581  132.5588 H   0  0  0  0  0  0  0  0  0  0  0  0
  145.4015  156.4431  133.6482 H   0  0  0  0  0  0  0  0  0  0  0  0
  1  2  1  0
  2  3  1  0
  3  4  1  0
  4  5  2  0
  4  6  1  0
  6  7  1  0
  7  8  1  0
  8  9  2  0
  8 10  1  0
  2 11  1  0
 11 12  1  0
 12 13  2  0
 12 14  1  0
 14 15  1  0
 15 16  1  0
 16 17  1  0
 16 18  2  0
 15 19  2  0
 19 20  1  0
 20 21  2  0
 21 22  1  0
 22 23  2  0
 23 24  1  0
 24 25  1  0
 24 26  1  0
 24 27  1  0
 23 28  1  0
 28 29  2  0
 29 14  1  0
 29 20  1  0
  1 30  1  0
  1 31  1  0
  1 32  1  0
  2 33  1  1
  7 34  1  0
  7 35  1  0
 17 36  1  0
 19 37  1  0
 21 38  1  0
 22 39  1  0
 28 40  1  0
M  CHG  2  10  -1  17  -1
M  END
>  <UniqueID>  (96) 
96

>  <SMILES>  (96) 
C[C@H](OC(=O)OCC(=O)[O-])OC(=O)n1c(C([NH-])=O)cc2ccc(C(F)(F)F)cc21

>  <Energy>  (96) 
71.47679770225038

>  <Genealogy>  (96) 
CC(OC(=O)OCC(=O)[O-])OC(=O)n1c(C([NH-])=O)cc2ccc(C(F)(F)F)cc21 (protonated)
C[C@H](OC(=O)OCC(=O)[O-])OC(=O)n1c(C([NH-])=O)cc2ccc(C(F)(F)F)cc21 (chirality)
C[C@H](OC(=O)OCC(=O)[O-])OC(=O)n1c(C([NH-])=O)cc2ccc(C(F)(F)F)cc21 (3D coordinates assigned)
C[C@H](OC(=O)OCC(=O)[O-])OC(=O)n1c(C([NH-])=O)cc2ccc(C(F)(F)F)cc21 (optimized conformer: 71.47679770225038 kcal/mol)

>  <smiles>  (96) 
CC(OC(=O)OCC(=O)O)OC(=O)n1c(C(N)=O)cc2ccc(C(F)(F)F)cc21

>  <score_type>  (96) 
oracle

>  <origin>  (96) 
adg

>  <m_score__min__energy>  (96) 
-6.3600000000000003

>  <m_primary>  (96) 
energy

$$$$
98:0
     RDKit          3D

 53 54  0  0  0  0  0  0  0  0999 V2000
  138.4770  149.2870  131.0970 C   0  0  0  0  0  0  0  0  0  0  0  0
  139.8170  148.8310  130.6940 N   0  0  0  0  0  0  0  0  0  0  0  0
  139.7680  147.3950  130.3680 C   0  0  0  0  0  0  0  0  0  0  0  0
  140.7950  149.1010  131.7730 C   0  0  0  0  0  0  0  0  0  0  0  0
  140.4340  150.3690  132.5600 C   0  0  0  0  0  0  0  0  0  0  0  0
  141.4070  151.5200  132.2700 C   0  0  0  0  0  0  0  0  0  0  0  0
  140.8000  152.8060  132.6170 N   0  0  0  0  0  0  0  0  0  0  0  0
  141.1960  153.6230  133.7370 C   0  0  0  0  0  0  0  0  0  0  0  0
  142.1750  153.1270  134.6340 C   0  0  0  0  0  0  0  0  0  0  0  0
  142.5820  153.8800  135.7480 C   0  0  0  0  0  0  0  0  0  0  0  0
  142.0020  155.1300  135.9370 C   0  0  0  0  0  0  0  0  0  0  0  0
  142.1830  156.0470  136.9460 C   0  0  0  0  0  0  0  0  0  0  0  0
  141.3340  157.1080  136.6380 C   0  0  0  0  0  0  0  0  0  0  0  0
  141.2640  158.3530  137.4330 C   0  0  0  0  0  0  0  0  0  0  0  0
  140.7580  159.5570  136.8640 N   0  0  0  0  0  0  0  0  0  0  0  0
  141.7010  158.3640  138.6140 O   0  0  0  0  0  0  0  0  0  0  0  0
  140.6520  156.8540  135.4860 N   0  0  0  0  0  0  0  0  0  0  0  0
  139.6110  157.6430  134.8920 C   0  0  0  0  0  0  0  0  0  0  0  0
  138.7130  158.1420  135.6220 O   0  0  0  0  0  0  0  0  0  0  0  0
  139.6230  157.8700  133.5060 O   0  0  0  0  0  0  0  0  0  0  0  0
  140.5590  158.6840  132.7870 C   0  0  0  0  0  0  0  0  0  0  0  0
  141.8370  157.8510  132.6040 C   0  0  0  0  0  0  0  0  0  0  0  0
  140.9030  159.9530  133.5900 C   0  0  0  0  0  0  0  0  0  0  0  0
  140.0050  159.0540  131.3980 C   0  0  0  0  0  0  0  0  0  0  0  0
  141.0720  155.6400  135.0690 C   0  0  0  0  0  0  0  0  0  0  0  0
  140.6360  154.9050  133.9610 C   0  0  0  0  0  0  0  0  0  0  0  0
  138.4120  149.3091  132.1949 H   0  0  0  0  0  0  0  0  0  0  0  0
  138.2981  150.2966  130.6987 H   0  0  0  0  0  0  0  0  0  0  0  0
  137.7194  148.5961  130.6987 H   0  0  0  0  0  0  0  0  0  0  0  0
  139.7480  146.8083  131.2983 H   0  0  0  0  0  0  0  0  0  0  0  0
  138.8621  147.1829  129.7812 H   0  0  0  0  0  0  0  0  0  0  0  0
  140.6573  147.1217  129.7812 H   0  0  0  0  0  0  0  0  0  0  0  0
  140.8101  148.2447  132.4634 H   0  0  0  0  0  0  0  0  0  0  0  0
  141.7823  149.2520  131.3121 H   0  0  0  0  0  0  0  0  0  0  0  0
  139.4177  150.6837  132.2804 H   0  0  0  0  0  0  0  0  0  0  0  0
  140.4955  150.1331  133.6326 H   0  0  0  0  0  0  0  0  0  0  0  0
  142.3214  151.3793  132.8651 H   0  0  0  0  0  0  0  0  0  0  0  0
  141.6483  151.5192  131.1968 H   0  0  0  0  0  0  0  0  0  0  0  0
  140.0090  153.1360  132.0160 H   0  0  0  0  0  0  0  0  0  0  0  0
  142.6226  152.1382  134.4553 H   0  0  0  0  0  0  0  0  0  0  0  0
  143.3361  153.4930  136.4491 H   0  0  0  0  0  0  0  0  0  0  0  0
  142.8554  155.9610  137.8123 H   0  0  0  0  0  0  0  0  0  0  0  0
  139.7340  159.6980  136.7250 H   0  0  0  0  0  0  0  0  0  0  0  0
  142.2455  157.5848  133.5900 H   0  0  0  0  0  0  0  0  0  0  0  0
  141.5998  156.9335  132.0455 H   0  0  0  0  0  0  0  0  0  0  0  0
  142.5807  158.4384  132.0455 H   0  0  0  0  0  0  0  0  0  0  0  0
  140.8434  159.7333  134.6662 H   0  0  0  0  0  0  0  0  0  0  0  0
  141.9224  160.2809  133.3386 H   0  0  0  0  0  0  0  0  0  0  0  0
  140.1887  160.7509  133.3386 H   0  0  0  0  0  0  0  0  0  0  0  0
  139.0955  159.6614  131.5159 H   0  0  0  0  0  0  0  0  0  0  0  0
  140.7608  159.6293  130.8431 H   0  0  0  0  0  0  0  0  0  0  0  0
  139.7631  158.1355  130.8431 H   0  0  0  0  0  0  0  0  0  0  0  0
  139.8755  155.3134  133.2792 H   0  0  0  0  0  0  0  0  0  0  0  0
  1  2  1  0
  2  3  1  0
  2  4  1  0
  4  5  1  0
  5  6  1  0
  6  7  1  0
  7  8  1  0
  8  9  2  0
  9 10  1  0
 10 11  2  0
 11 12  1  0
 12 13  2  0
 13 14  1  0
 14 15  1  0
 14 16  2  0
 13 17  1  0
 17 18  1  0
 18 19  2  0
 18 20  1  0
 20 21  1  0
 21 22  1  0
 21 23  1  0
 21 24  1  0
 17 25  1  0
 25 26  2  0
 26  8  1  0
 25 11  1  0
  1 27  1  0
  1 28  1  0
  1 29  1  0
  3 30  1  0
  3 31  1  0
  3 32  1  0
  4 33  1  0
  4 34  1  0
  5 35  1  0
  5 36  1  0
  6 37  1  0
  6 38  1  0
  7 39  1  0
  9 40  1  0
 10 41  1  0
 12 42  1  0
 15 43  1  0
 22 44  1  0
 22 45  1  0
 22 46  1  0
 23 47  1  0
 23 48  1  0
 23 49  1  0
 24 50  1  0
 24 51  1  0
 24 52  1  0
 26 53  1  0
M  CHG  1  15  -1
M  END
>  <UniqueID>  (97) 
97

>  <SMILES>  (97) 
CN(C)CCCNc1ccc2cc(C([NH-])=O)n(C(=O)OC(C)(C)C)c2c1

>  <Energy>  (97) 
82.77514716403394

>  <Genealogy>  (97) 
CN(C)CCCNc1ccc2cc(C([NH-])=O)n(C(=O)OC(C)(C)C)c2c1 (protonated)
CN(C)CCCNc1ccc2cc(C([NH-])=O)n(C(=O)OC(C)(C)C)c2c1 (3D coordinates assigned)
CN(C)CCCNc1ccc2cc(C([NH-])=O)n(C(=O)OC(C)(C)C)c2c1 (optimized conformer: 82.77514716403394 kcal/mol)

>  <smiles>  (97) 
CN(C)CCCNc1ccc2cc(C(N)=O)n(C(=O)OC(C)(C)C)c2c1

>  <score_type>  (97) 
oracle

>  <origin>  (97) 
adg

>  <m_score__min__energy>  (97) 
-7.7400000000000002

>  <m_primary>  (97) 
energy

$$$$
