0:0
     RDKit          3D

 41 42  0  0  0  0  0  0  0  0999 V2000
  138.7890  159.5450  130.9850 C   0  0  0  0  0  0  0  0  0  0  0  0
  139.7360  158.7250  131.6590 O   0  0  0  0  0  0  0  0  0  0  0  0
  140.5410  159.2010  132.7000 C   0  0  0  0  0  0  0  0  0  0  0  0
  140.6120  160.4410  132.9300 O   0  0  0  0  0  0  0  0  0  0  0  0
  141.3400  158.2270  133.5340 C   0  0  0  0  0  0  0  0  0  0  0  0
  141.2730  158.6700  135.0070 C   0  0  0  0  0  0  0  0  0  0  0  0
  140.7350  156.8240  133.3520 C   0  0  0  0  0  0  0  0  0  0  0  0
  142.6990  158.2510  133.0680 O   0  0  0  0  0  0  0  0  0  0  0  0
  143.8430  157.9250  133.8110 C   0  0  0  0  0  0  0  0  0  0  0  0
  143.7940  157.0720  134.7380 O   0  0  0  0  0  0  0  0  0  0  0  0
  145.0890  158.5740  133.5090 N   0  0  0  0  0  0  0  0  0  0  0  0
  145.3700  159.9070  133.5740 C   0  0  0  0  0  0  0  0  0  0  0  0
  144.3910  160.9850  133.8200 C   0  0  0  0  0  0  0  0  0  0  0  0
  143.0430  160.8810  133.3600 N   0  0  0  0  0  0  0  0  0  0  0  0
  144.7660  162.0390  134.4000 O   0  0  0  0  0  0  0  0  0  0  0  0
  146.7190  160.1380  133.3220 C   0  0  0  0  0  0  0  0  0  0  0  0
  147.2620  158.8960  133.0830 C   0  0  0  0  0  0  0  0  0  0  0  0
  148.5750  158.5340  132.7980 C   0  0  0  0  0  0  0  0  0  0  0  0
  148.8620  157.1690  132.6380 C   0  0  0  0  0  0  0  0  0  0  0  0
  147.8390  156.1970  132.7630 C   0  0  0  0  0  0  0  0  0  0  0  0
  148.1700  154.7390  132.6440 C   0  0  0  0  0  0  0  0  0  0  0  0
  146.5210  156.5990  133.0720 C   0  0  0  0  0  0  0  0  0  0  0  0
  146.2580  157.9690  133.2030 C   0  0  0  0  0  0  0  0  0  0  0  0
  138.1734  160.0780  131.7246 H   0  0  0  0  0  0  0  0  0  0  0  0
  139.3186  160.2745  130.3546 H   0  0  0  0  0  0  0  0  0  0  0  0
  138.1427  158.9166  130.3546 H   0  0  0  0  0  0  0  0  0  0  0  0
  141.4054  157.7944  135.6596 H   0  0  0  0  0  0  0  0  0  0  0  0
  142.0709  159.4003  135.2069 H   0  0  0  0  0  0  0  0  0  0  0  0
  140.2948  159.1317  135.2069 H   0  0  0  0  0  0  0  0  0  0  0  0
  140.5423  156.3770  134.3384 H   0  0  0  0  0  0  0  0  0  0  0  0
  139.7904  156.9016  132.7937 H   0  0  0  0  0  0  0  0  0  0  0  0
  141.4398  156.1904  132.7937 H   0  0  0  0  0  0  0  0  0  0  0  0
  142.3550  161.6350  133.5810 H   0  0  0  0  0  0  0  0  0  0  0  0
  142.7460  160.1050  132.7290 H   0  0  0  0  0  0  0  0  0  0  0  0
  147.2402  161.1067  133.3153 H   0  0  0  0  0  0  0  0  0  0  0  0
  149.3641  159.2942  132.7010 H   0  0  0  0  0  0  0  0  0  0  0  0
  149.8909  156.8513  132.4135 H   0  0  0  0  0  0  0  0  0  0  0  0
  148.2691  154.3023  133.6487 H   0  0  0  0  0  0  0  0  0  0  0  0
  147.3659  154.2238  132.0980 H   0  0  0  0  0  0  0  0  0  0  0  0
  149.1177  154.6215  132.0980 H   0  0  0  0  0  0  0  0  0  0  0  0
  145.7214  155.8557  133.2064 H   0  0  0  0  0  0  0  0  0  0  0  0
  1  2  1  0
  2  3  1  0
  3  4  2  0
  3  5  1  0
  5  6  1  0
  5  7  1  0
  5  8  1  0
  8  9  1  0
  9 10  2  0
  9 11  1  0
 11 12  1  0
 12 13  1  0
 13 14  1  0
 13 15  2  0
 12 16  2  0
 16 17  1  0
 17 18  2  0
 18 19  1  0
 19 20  2  0
 20 21  1  0
 20 22  1  0
 22 23  2  0
 23 11  1  0
 23 17  1  0
  1 24  1  0
  1 25  1  0
  1 26  1  0
  6 27  1  0
  6 28  1  0
  6 29  1  0
  7 30  1  0
  7 31  1  0
  7 32  1  0
 14 33  1  0
 14 34  1  0
 16 35  1  0
 18 36  1  0
 19 37  1  0
 21 38  1  0
 21 39  1  0
 21 40  1  0
 22 41  1  0
M  END
>  <UniqueID>  (1) 
1

>  <SMILES>  (1) 
COC(=O)C(C)(C)OC(=O)n1c(C(N)=O)cc2ccc(C)cc21

>  <Energy>  (1) 
74.5196822939122

>  <Genealogy>  (1) 
COC(=O)C(C)(C)OC(=O)n1c(C(N)=O)cc2ccc(C)cc21 (3D coordinates assigned)
COC(=O)C(C)(C)OC(=O)n1c(C(N)=O)cc2ccc(C)cc21 (optimized conformer: 74.5196822939122 kcal/mol)

>  <smiles>  (1) 
COC(=O)C(C)(C)OC(=O)n1c(C(N)=O)cc2ccc(C)cc21

>  <score_type>  (1) 
oracle

>  <origin>  (1) 
adg

>  <m_score__min__energy>  (1) 
-6.3799999999999999

>  <m_primary>  (1) 
energy

$$$$
1:0
     RDKit          3D

 36 38  0  0  0  0  0  0  0  0999 V2000
  149.9810  151.9850  132.2920 C   0  0  0  0  0  0  0  0  0  0  0  0
  148.9090  152.9480  132.5080 N   0  0  0  0  0  0  0  0  0  0  0  0
  147.6250  152.6500  132.7730 C   0  0  0  0  0  0  0  0  0  0  0  0
  146.9420  153.8270  132.9870 C   0  0  0  0  0  0  0  0  0  0  0  0
  147.9010  154.8220  132.8450 C   0  0  0  0  0  0  0  0  0  0  0  0
  147.7000  156.2850  132.9890 C   0  0  0  0  0  0  0  0  0  0  0  0
  148.8170  157.1590  132.9340 C   0  0  0  0  0  0  0  0  0  0  0  0
  148.6530  158.5480  133.0600 C   0  0  0  0  0  0  0  0  0  0  0  0
  147.3660  159.0390  133.2460 C   0  0  0  0  0  0  0  0  0  0  0  0
  146.9220  160.3350  133.3730 C   0  0  0  0  0  0  0  0  0  0  0  0
  145.5400  160.2390  133.5280 C   0  0  0  0  0  0  0  0  0  0  0  0
  144.6690  161.4040  133.7870 C   0  0  0  0  0  0  0  0  0  0  0  0
  145.2180  162.6520  134.2050 N   0  0  0  0  0  0  0  0  0  0  0  0
  143.4280  161.3120  133.5880 O   0  0  0  0  0  0  0  0  0  0  0  0
  145.1450  158.9350  133.4890 N   0  0  0  0  0  0  0  0  0  0  0  0
  143.8080  158.4130  133.5330 C   0  0  0  0  0  0  0  0  0  0  0  0
  143.3680  157.7310  132.5690 O   0  0  0  0  0  0  0  0  0  0  0  0
  143.0150  158.6440  134.6660 O   0  0  0  0  0  0  0  0  0  0  0  0
  141.5880  158.7050  134.6710 C   0  0  0  0  0  0  0  0  0  0  0  0
  140.9950  159.5770  136.1110 S   0  0  0  0  0  0  0  0  0  0  0  0
  140.8860  157.0660  134.6290 S   0  0  0  0  0  0  0  0  0  0  0  0
  141.0420  159.5990  133.1880 S   0  0  0  0  0  0  0  0  0  0  0  0
  146.2750  158.2130  133.3190 C   0  0  0  0  0  0  0  0  0  0  0  0
  146.4060  156.8260  133.1770 C   0  0  0  0  0  0  0  0  0  0  0  0
  149.0930  154.2560  132.5630 N   0  0  0  0  0  0  0  0  0  0  0  0
  150.3651  151.6399  133.2633 H   0  0  0  0  0  0  0  0  0  0  0  0
  149.5934  151.1259  131.7248 H   0  0  0  0  0  0  0  0  0  0  0  0
  150.7938  152.4622  131.7248 H   0  0  0  0  0  0  0  0  0  0  0  0
  147.1935  151.6389  132.8122 H   0  0  0  0  0  0  0  0  0  0  0  0
  145.8740  153.9514  133.2189 H   0  0  0  0  0  0  0  0  0  0  0  0
  149.8250  156.7426  132.7907 H   0  0  0  0  0  0  0  0  0  0  0  0
  149.5171  159.2271  133.0129 H   0  0  0  0  0  0  0  0  0  0  0  0
  147.5288  161.2523  133.3559 H   0  0  0  0  0  0  0  0  0  0  0  0
  146.0390  163.0690  133.7140 H   0  0  0  0  0  0  0  0  0  0  0  0
  142.3370  159.6450  132.6350 H   0  0  0  0  0  0  0  0  0  0  0  0
  145.5225  156.1715  133.2109 H   0  0  0  0  0  0  0  0  0  0  0  0
  1  2  1  0
  2  3  1  0
  3  4  2  0
  4  5  1  0
  5  6  1  0
  6  7  2  0
  7  8  1  0
  8  9  2  0
  9 10  1  0
 10 11  2  0
 11 12  1  0
 12 13  1  0
 12 14  2  0
 11 15  1  0
 15 16  1  0
 16 17  2  0
 16 18  1  0
 18 19  1  0
 19 20  1  0
 19 21  1  0
 19 22  1  0
 15 23  1  0
 23 24  2  0
  5 25  2  0
 25  2  1  0
 24  6  1  0
 23  9  1  0
  1 26  1  0
  1 27  1  0
  1 28  1  0
  3 29  1  0
  4 30  1  0
  7 31  1  0
  8 32  1  0
 10 33  1  0
 13 34  1  0
 22 35  1  0
 24 36  1  0
M  CHG  3  13  -1  20  -1  21  -1
M  END
>  <UniqueID>  (2) 
2

>  <SMILES>  (2) 
Cn1ccc(-c2ccc3cc(C([NH-])=O)n(C(=O)OC([S-])([S-])S)c3c2)n1

>  <Energy>  (2) 
105.40052429456237

>  <Genealogy>  (2) 
Cn1ccc(-c2ccc3cc(C([NH-])=O)n(C(=O)OC([S-])([S-])S)c3c2)n1 (protonated)
Cn1ccc(-c2ccc3cc(C([NH-])=O)n(C(=O)OC([S-])([S-])S)c3c2)n1 (3D coordinates assigned)
Cn1ccc(-c2ccc3cc(C([NH-])=O)n(C(=O)OC([S-])([S-])S)c3c2)n1 (optimized conformer: 105.40052429456237 kcal/mol)

>  <smiles>  (2) 
Cn1ccc(-c2ccc3cc(C(N)=O)n(C(=O)OC(S)(S)S)c3c2)n1

>  <score_type>  (2) 
oracle

>  <origin>  (2) 
adg

>  <m_score__min__energy>  (2) 
-7.5300000000000002

>  <m_primary>  (2) 
energy

$$$$
2:0
     RDKit          3D

 30 31  0  0  0  0  0  0  0  0999 V2000
  150.2220  160.1130  130.1130 N   0  0  0  0  0  0  0  0  0  0  0  0
  149.1990  159.8960  131.0820 C   0  0  0  0  0  0  0  0  0  0  0  0
  148.1860  160.6440  131.0900 O   0  0  0  0  0  0  0  0  0  0  0  0
  149.3440  158.8060  132.0670 C   0  0  0  0  0  0  0  0  0  0  0  0
  150.2100  157.9150  131.8590 O   0  0  0  0  0  0  0  0  0  0  0  0
  148.5020  158.7180  133.2800 C   0  0  0  0  0  0  0  0  0  0  0  0
  148.8090  159.3670  134.3160 O   0  0  0  0  0  0  0  0  0  0  0  0
  147.2990  157.9320  133.2770 N   0  0  0  0  0  0  0  0  0  0  0  0
  146.0150  158.3630  133.4300 C   0  0  0  0  0  0  0  0  0  0  0  0
  145.5940  159.7810  133.5110 C   0  0  0  0  0  0  0  0  0  0  0  0
  146.5460  160.8370  133.3650 N   0  0  0  0  0  0  0  0  0  0  0  0
  144.3880  160.0700  133.7310 O   0  0  0  0  0  0  0  0  0  0  0  0
  145.1350  157.2810  133.4090 C   0  0  0  0  0  0  0  0  0  0  0  0
  145.9260  156.1690  133.2300 C   0  0  0  0  0  0  0  0  0  0  0  0
  145.5790  154.8250  133.1450 C   0  0  0  0  0  0  0  0  0  0  0  0
  146.6120  153.8870  132.9770 C   0  0  0  0  0  0  0  0  0  0  0  0
  147.9650  154.3050  132.8810 C   0  0  0  0  0  0  0  0  0  0  0  0
  149.0680  153.2840  132.7580 C   0  0  0  0  0  0  0  0  0  0  0  0
  150.2690  153.8980  132.4500 F   0  0  0  0  0  0  0  0  0  0  0  0
  148.7790  152.3720  131.7580 F   0  0  0  0  0  0  0  0  0  0  0  0
  149.1990  152.6110  133.9580 F   0  0  0  0  0  0  0  0  0  0  0  0
  148.2770  155.6800  132.9920 C   0  0  0  0  0  0  0  0  0  0  0  0
  147.2270  156.5900  133.1490 C   0  0  0  0  0  0  0  0  0  0  0  0
  151.0730  160.6720  130.3470 H   0  0  0  0  0  0  0  0  0  0  0  0
  146.2410  161.8310  133.4600 H   0  0  0  0  0  0  0  0  0  0  0  0
  147.5410  160.6430  133.1180 H   0  0  0  0  0  0  0  0  0  0  0  0
  144.0404  157.3103  133.5134 H   0  0  0  0  0  0  0  0  0  0  0  0
  144.5282  154.5058  133.2074 H   0  0  0  0  0  0  0  0  0  0  0  0
  146.3690  152.8157  132.9192 H   0  0  0  0  0  0  0  0  0  0  0  0
  149.3208  156.0253  132.9557 H   0  0  0  0  0  0  0  0  0  0  0  0
  1  2  1  0
  2  3  2  0
  2  4  1  0
  4  5  2  0
  4  6  1  0
  6  7  2  0
  6  8  1  0
  8  9  1  0
  9 10  1  0
 10 11  1  0
 10 12  2  0
  9 13  2  0
 13 14  1  0
 14 15  2  0
 15 16  1  0
 16 17  2  0
 17 18  1  0
 18 19  1  0
 18 20  1  0
 18 21  1  0
 17 22  1  0
 22 23  2  0
 23  8  1  0
 23 14  1  0
  1 24  1  0
 11 25  1  0
 11 26  1  0
 13 27  1  0
 15 28  1  0
 16 29  1  0
 22 30  1  0
M  CHG  1   1  -1
M  END
>  <UniqueID>  (3) 
3

>  <SMILES>  (3) 
[NH-]C(=O)C(=O)C(=O)n1c(C(N)=O)cc2ccc(C(F)(F)F)cc21

>  <Energy>  (3) 
70.06651367038017

>  <Genealogy>  (3) 
[NH-]C(=O)C(=O)C(=O)n1c(C(N)=O)cc2ccc(C(F)(F)F)cc21 (protonated)
[NH-]C(=O)C(=O)C(=O)n1c(C(N)=O)cc2ccc(C(F)(F)F)cc21 (3D coordinates assigned)
[NH-]C(=O)C(=O)C(=O)n1c(C(N)=O)cc2ccc(C(F)(F)F)cc21 (optimized conformer: 70.06651367038017 kcal/mol)

>  <smiles>  (3) 
NC(=O)C(=O)C(=O)n1c(C(N)=O)cc2ccc(C(F)(F)F)cc21

>  <score_type>  (3) 
oracle

>  <origin>  (3) 
adg

>  <m_score__min__energy>  (3) 
-6.2999999999999998

>  <m_primary>  (3) 
energy

$$$$
3:0
     RDKit          3D

 38 40  0  0  0  0  0  0  0  0999 V2000
  145.8930  162.0070  134.1330 N   0  0  0  0  0  0  0  0  0  0  0  0
  144.8730  161.0480  133.8650 C   0  0  0  0  0  0  0  0  0  0  0  0
  143.6920  161.4430  133.6730 O   0  0  0  0  0  0  0  0  0  0  0  0
  145.1920  159.6100  133.7530 C   0  0  0  0  0  0  0  0  0  0  0  0
  144.2370  158.6010  133.8740 C   0  0  0  0  0  0  0  0  0  0  0  0
  144.9110  157.4290  133.6210 C   0  0  0  0  0  0  0  0  0  0  0  0
  144.4530  156.1160  133.6210 C   0  0  0  0  0  0  0  0  0  0  0  0
  145.3790  155.0940  133.3570 C   0  0  0  0  0  0  0  0  0  0  0  0
  146.7450  155.3960  133.1070 C   0  0  0  0  0  0  0  0  0  0  0  0
  147.7190  154.3080  132.8430 C   0  0  0  0  0  0  0  0  0  0  0  0
  149.0720  154.6030  132.5940 C   0  0  0  0  0  0  0  0  0  0  0  0
  149.9880  153.5770  132.3460 C   0  0  0  0  0  0  0  0  0  0  0  0
  149.5670  152.2410  132.3440 C   0  0  0  0  0  0  0  0  0  0  0  0
  150.4710  151.2100  132.0980 O   0  0  0  0  0  0  0  0  0  0  0  0
  148.2250  151.9380  132.5910 C   0  0  0  0  0  0  0  0  0  0  0  0
  147.3050  152.9620  132.8390 C   0  0  0  0  0  0  0  0  0  0  0  0
  147.1690  156.7470  133.1170 C   0  0  0  0  0  0  0  0  0  0  0  0
  146.2200  157.7450  133.3640 C   0  0  0  0  0  0  0  0  0  0  0  0
  146.4090  159.0810  133.4440 N   0  0  0  0  0  0  0  0  0  0  0  0
  147.6620  159.7730  133.3300 C   0  0  0  0  0  0  0  0  0  0  0  0
  148.6000  159.5080  134.1300 O   0  0  0  0  0  0  0  0  0  0  0  0
  147.8270  160.7530  132.3450 O   0  0  0  0  0  0  0  0  0  0  0  0
  148.9230  160.7730  131.4350 C   0  0  0  0  0  0  0  0  0  0  0  0
  149.2540  159.3840  130.9870 C   0  0  0  0  0  0  0  0  0  0  0  0
  148.9130  158.9930  129.8400 O   0  0  0  0  0  0  0  0  0  0  0  0
  149.9630  158.5320  131.8230 O   0  0  0  0  0  0  0  0  0  0  0  0
  146.6540  162.1900  133.4420 H   0  0  0  0  0  0  0  0  0  0  0  0
  143.1711  158.7176  134.1196 H   0  0  0  0  0  0  0  0  0  0  0  0
  143.3965  155.8848  133.8219 H   0  0  0  0  0  0  0  0  0  0  0  0
  145.0429  154.0467  133.3435 H   0  0  0  0  0  0  0  0  0  0  0  0
  149.4115  155.6493  132.5945 H   0  0  0  0  0  0  0  0  0  0  0  0
  151.0432  153.8194  132.1517 H   0  0  0  0  0  0  0  0  0  0  0  0
  151.3820  151.3910  131.6950 H   0  0  0  0  0  0  0  0  0  0  0  0
  147.8910  150.8899  132.5904 H   0  0  0  0  0  0  0  0  0  0  0  0
  146.2508  152.7142  133.0322 H   0  0  0  0  0  0  0  0  0  0  0  0
  148.2223  157.0064  132.9344 H   0  0  0  0  0  0  0  0  0  0  0  0
  148.6559  161.3824  130.5591 H   0  0  0  0  0  0  0  0  0  0  0  0
  149.7996  161.2032  131.9414 H   0  0  0  0  0  0  0  0  0  0  0  0
  1  2  1  0
  2  3  2  0
  2  4  1  0
  4  5  2  0
  5  6  1  0
  6  7  2  0
  7  8  1  0
  8  9  2  0
  9 10  1  0
 10 11  2  0
 11 12  1  0
 12 13  2  0
 13 14  1  0
 13 15  1  0
 15 16  2  0
  9 17  1  0
 17 18  2  0
 18 19  1  0
 19 20  1  0
 20 21  2  0
 20 22  1  0
 22 23  1  0
 23 24  1  0
 24 25  2  0
 24 26  1  0
 19  4  1  0
 18  6  1  0
 16 10  1  0
  1 27  1  0
  5 28  1  0
  7 29  1  0
  8 30  1  0
 11 31  1  0
 12 32  1  0
 14 33  1  0
 15 34  1  0
 16 35  1  0
 17 36  1  0
 23 37  1  0
 23 38  1  0
M  CHG  2   1  -1  26  -1
M  END
>  <UniqueID>  (4) 
4

>  <SMILES>  (4) 
[NH-]C(=O)c1cc2ccc(-c3ccc(O)cc3)cc2n1C(=O)OCC(=O)[O-]

>  <Energy>  (4) 
82.57877234562415

>  <Genealogy>  (4) 
[NH-]C(=O)c1cc2ccc(-c3ccc(O)cc3)cc2n1C(=O)OCC(=O)[O-] (protonated)
[NH-]C(=O)c1cc2ccc(-c3ccc(O)cc3)cc2n1C(=O)OCC(=O)[O-] (3D coordinates assigned)
[NH-]C(=O)c1cc2ccc(-c3ccc(O)cc3)cc2n1C(=O)OCC(=O)[O-] (optimized conformer: 82.57877234562415 kcal/mol)

>  <smiles>  (4) 
NC(=O)c1cc2ccc(-c3ccc(O)cc3)cc2n1C(=O)OCC(=O)O

>  <score_type>  (4) 
oracle

>  <origin>  (4) 
adg

>  <m_score__min__energy>  (4) 
-7.4500000000000002

>  <m_primary>  (4) 
energy

$$$$
4:0
     RDKit          3D

 35 36  0  0  0  0  0  0  0  0999 V2000
  142.1373  150.4733  132.9616 H   0  0  0  0  0  0  0  0  0  0  0  0
  141.6120  151.3800  132.6270 C   0  0  0  0  0  0  0  0  0  0  0  0
  141.3089  151.4833  131.5746 H   0  0  0  0  0  0  0  0  0  0  0  0
  141.3420  152.3560  133.4990 C   0  0  0  0  0  0  0  0  0  0  0  0
  141.7050  152.1850  134.9280 C   0  0  0  0  0  0  0  0  0  0  0  0
  142.6270  152.8720  135.4420 O   0  0  0  0  0  0  0  0  0  0  0  0
  141.0070  151.2890  135.7290 O   0  0  0  0  0  0  0  0  0  0  0  0
  140.6320  153.5640  133.0110 C   0  0  0  0  0  0  0  0  0  0  0  0
  140.0745  153.5009  132.0648 H   0  0  0  0  0  0  0  0  0  0  0  0
  140.6410  154.7270  133.6730 C   0  0  0  0  0  0  0  0  0  0  0  0
  141.1915  154.7908  134.6232 H   0  0  0  0  0  0  0  0  0  0  0  0
  139.9410  155.9260  133.1770 C   0  0  0  0  0  0  0  0  0  0  0  0
  139.1070  155.8350  132.2340 O   0  0  0  0  0  0  0  0  0  0  0  0
  140.2240  157.2150  133.7450 N   0  0  0  0  0  0  0  0  0  0  0  0
  140.0210  158.4330  133.1700 C   0  0  0  0  0  0  0  0  0  0  0  0
  139.5940  158.6690  131.7740 C   0  0  0  0  0  0  0  0  0  0  0  0
  140.3670  159.2780  130.9870 O   0  0  0  0  0  0  0  0  0  0  0  0
  138.3450  158.1780  131.2850 N   0  0  0  0  0  0  0  0  0  0  0  0
  137.7700  157.5110  131.8450 H   0  0  0  0  0  0  0  0  0  0  0  0
  138.0400  158.4030  130.3130 H   0  0  0  0  0  0  0  0  0  0  0  0
  140.2940  159.4550  134.0740 C   0  0  0  0  0  0  0  0  0  0  0  0
  140.2182  160.5384  133.8994 H   0  0  0  0  0  0  0  0  0  0  0  0
  140.6790  158.8210  135.2330 C   0  0  0  0  0  0  0  0  0  0  0  0
  141.0520  159.3540  136.4630 C   0  0  0  0  0  0  0  0  0  0  0  0
  141.1042  160.4420  136.6165 H   0  0  0  0  0  0  0  0  0  0  0  0
  141.3600  158.4610  137.5030 C   0  0  0  0  0  0  0  0  0  0  0  0
  141.6829  158.8528  138.4788 H   0  0  0  0  0  0  0  0  0  0  0  0
  141.2590  157.0590  137.3080 C   0  0  0  0  0  0  0  0  0  0  0  0
  141.6250  156.1090  138.4200 C   0  0  0  0  0  0  0  0  0  0  0  0
  142.4830  155.1420  137.9280 F   0  0  0  0  0  0  0  0  0  0  0  0
  140.4940  155.4930  138.9280 F   0  0  0  0  0  0  0  0  0  0  0  0
  142.2520  156.7820  139.4540 F   0  0  0  0  0  0  0  0  0  0  0  0
  140.8950  156.5570  136.0380 C   0  0  0  0  0  0  0  0  0  0  0  0
  140.8277  155.4737  135.8596 H   0  0  0  0  0  0  0  0  0  0  0  0
  140.6220  157.4700  135.0120 C   0  0  0  0  0  0  0  0  0  0  0  0
  1  2  1  0
  2  3  1  0
  2  4  2  0
  4  5  1  0
  5  6  2  0
  5  7  1  0
  4  8  1  0
  8  9  1  0
  8 10  2  0
 10 11  1  0
 10 12  1  0
 12 13  2  0
 12 14  1  0
 14 15  1  0
 15 16  1  0
 16 17  2  0
 16 18  1  0
 18 19  1  0
 18 20  1  0
 15 21  2  0
 21 22  1  0
 21 23  1  0
 23 24  2  0
 24 25  1  0
 24 26  1  0
 26 27  1  0
 26 28  2  0
 28 29  1  0
 29 30  1  0
 29 31  1  0
 29 32  1  0
 28 33  1  0
 33 34  1  0
 33 35  2  0
 35 14  1  0
 35 23  1  0
M  CHG  1   7  -1
M  END
>  <UniqueID>  (5) 
5

>  <SMILES>  (5) 
C=C(/C=C/C(=O)n1c(C(N)=O)cc2ccc(C(F)(F)F)cc21)C(=O)[O-]

>  <Energy>  (5) 
77.65753212302964

>  <Genealogy>  (5) 
C=C(/C=C/C(=O)n1c(C(N)=O)cc2ccc(C(F)(F)F)cc21)C(=O)[O-] (protonated)
C=C(/C=C/C(=O)n1c(C(N)=O)cc2ccc(C(F)(F)F)cc21)C(=O)[O-] (cis-trans isomerization)
C=C(/C=C/C(=O)n1c(C(N)=O)cc2ccc(C(F)(F)F)cc21)C(=O)[O-] (3D coordinates assigned)
C=C(/C=C/C(=O)n1c(C(N)=O)cc2ccc(C(F)(F)F)cc21)C(=O)[O-] (optimized conformer: 77.65753212302964 kcal/mol)

>  <smiles>  (5) 
C=C(/C=C/C(=O)n1c(C(N)=O)cc2ccc(C(F)(F)F)cc21)C(=O)O

>  <score_type>  (5) 
oracle

>  <origin>  (5) 
adg

>  <m_score__min__energy>  (5) 
-7.6100000000000003

>  <m_primary>  (5) 
energy

$$$$
5:0
     RDKit          3D

102110  0  0  0  0  0  0  0  0999 V2000
  136.8980  159.0620  131.2790 C   0  0  0  0  0  0  0  0  0  0  0  0
  137.9650  158.2830  131.1050 C   0  0  0  0  0  0  0  0  0  0  0  0
  138.8500  157.8870  132.2150 C   0  0  0  0  0  0  0  0  0  0  0  0
  138.7940  156.7060  132.6480 O   0  0  0  0  0  0  0  0  0  0  0  0
  139.7450  158.8230  132.8350 N   0  0  0  0  0  0  0  0  0  0  0  0
  140.0370  160.0930  132.4420 C   0  0  0  0  0  0  0  0  0  0  0  0
  139.5290  160.7500  131.2200 C   0  0  0  0  0  0  0  0  0  0  0  0
  139.5580  160.0620  129.9720 N   0  0  0  0  0  0  0  0  0  0  0  0
  139.0560  161.9200  131.2700 O   0  0  0  0  0  0  0  0  0  0  0  0
  140.9210  160.6900  133.3390 C   0  0  0  0  0  0  0  0  0  0  0  0
  141.1740  159.7310  134.2950 C   0  0  0  0  0  0  0  0  0  0  0  0
  141.9780  159.7840  135.4270 C   0  0  0  0  0  0  0  0  0  0  0  0
  142.0290  158.6480  136.2500 C   0  0  0  0  0  0  0  0  0  0  0  0
  141.2860  157.4820  135.9260 C   0  0  0  0  0  0  0  0  0  0  0  0
  141.3940  156.2730  136.7770 C   0  0  0  0  0  0  0  0  0  0  0  0
  141.8010  155.0490  136.2200 C   0  0  0  0  0  0  0  0  0  0  0  0
  142.0360  153.9430  137.0370 C   0  0  0  0  0  0  0  0  0  0  0  0
  141.8140  154.0240  138.4160 C   0  0  0  0  0  0  0  0  0  0  0  0
  142.1690  152.8870  139.2760 C   0  0  0  0  0  0  0  0  0  0  0  0
  141.2610  152.1370  139.7260 O   0  0  0  0  0  0  0  0  0  0  0  0
  143.5420  152.6220  139.5940 N   0  0  0  0  0  0  0  0  0  0  0  0
  144.0290  151.2420  139.6620 C   0  0  0  0  0  0  0  0  0  0  0  0
  145.4280  151.1130  139.0220 C   0  0  0  0  0  0  0  0  0  0  0  0
  146.2840  152.4170  139.0260 C   0  0  0  0  0  0  0  0  0  0  0  0
  147.7520  152.1270  139.0440 N   0  0  0  0  0  0  0  0  0  0  0  0
  148.0880  150.7360  138.6260 C   0  0  0  0  0  0  0  0  0  0  0  0
  148.1900  150.5930  137.1000 C   0  0  0  0  0  0  0  0  0  0  0  0
  149.2300  151.5600  136.4470 C   0  0  0  0  0  0  0  0  0  0  0  0
  148.6260  152.2250  135.2520 N   0  0  0  0  0  0  0  0  0  0  0  0
  147.9500  153.5190  135.5610 C   0  0  0  0  0  0  0  0  0  0  0  0
  147.6320  154.3280  134.2860 C   0  0  0  0  0  0  0  0  0  0  0  0
  147.5820  153.3980  133.1530 N   0  0  0  0  0  0  0  0  0  0  0  0
  146.3540  152.6590  132.9120 C   0  0  0  0  0  0  0  0  0  0  0  0
  145.0860  153.2490  133.0130 C   0  0  0  0  0  0  0  0  0  0  0  0
  143.9360  152.4540  132.8970 C   0  0  0  0  0  0  0  0  0  0  0  0
  142.5780  153.0310  132.9980 C   0  0  0  0  0  0  0  0  0  0  0  0
  142.4340  154.4250  133.1050 C   0  0  0  0  0  0  0  0  0  0  0  0
  141.1650  155.0020  133.2010 C   0  0  0  0  0  0  0  0  0  0  0  0
  140.0240  154.1980  133.1690 C   0  0  0  0  0  0  0  0  0  0  0  0
  140.1500  152.8100  133.0390 C   0  0  0  0  0  0  0  0  0  0  0  0
  141.4190  152.2240  132.9490 C   0  0  0  0  0  0  0  0  0  0  0  0
  141.5150  150.8470  132.7800 O   0  0  0  0  0  0  0  0  0  0  0  0
  144.0810  151.1250  132.6470 N   0  0  0  0  0  0  0  0  0  0  0  0
  145.2820  150.5660  132.5020 N   0  0  0  0  0  0  0  0  0  0  0  0
  146.4200  151.2950  132.6100 C   0  0  0  0  0  0  0  0  0  0  0  0
  147.6860  150.6970  132.3560 N   0  0  0  0  0  0  0  0  0  0  0  0
  148.7720  151.5590  131.9110 C   0  0  0  0  0  0  0  0  0  0  0  0
  148.8990  152.7860  132.8450 C   0  0  2  0  0  0  0  0  0  0  0  0
  149.6260  152.4320  134.1710 C   0  0  0  0  0  0  0  0  0  0  0  0
  149.7300  152.5720  137.5170 C   0  0  0  0  0  0  0  0  0  0  0  0
  148.5340  153.1510  138.2860 C   0  0  0  0  0  0  0  0  0  0  0  0
  145.8450  153.2790  140.2380 C   0  0  0  0  0  0  0  0  0  0  0  0
  144.3940  153.7310  140.0420 C   0  0  0  0  0  0  0  0  0  0  0  0
  141.3260  155.2150  138.9690 C   0  0  0  0  0  0  0  0  0  0  0  0
  141.1390  156.3390  138.1590 C   0  0  0  0  0  0  0  0  0  0  0  0
  140.4760  157.4710  134.7660 C   0  0  0  0  0  0  0  0  0  0  0  0
  140.4510  158.6160  133.9670 C   0  0  0  0  0  0  0  0  0  0  0  0
  136.2670  159.3307  130.4190 H   0  0  0  0  0  0  0  0  0  0  0  0
  136.6482  159.4364  132.2827 H   0  0  0  0  0  0  0  0  0  0  0  0
  138.1945  157.9209  130.0920 H   0  0  0  0  0  0  0  0  0  0  0  0
  140.0610  159.1510  129.8750 H   0  0  0  0  0  0  0  0  0  0  0  0
  141.3298  161.7102  133.2933 H   0  0  0  0  0  0  0  0  0  0  0  0
  142.5562  160.6875  135.6705 H   0  0  0  0  0  0  0  0  0  0  0  0
  142.6519  158.6611  137.1566 H   0  0  0  0  0  0  0  0  0  0  0  0
  141.9353  154.9622  135.1317 H   0  0  0  0  0  0  0  0  0  0  0  0
  142.3975  153.0028  136.5950 H   0  0  0  0  0  0  0  0  0  0  0  0
  144.0865  150.9331  140.7162 H   0  0  0  0  0  0  0  0  0  0  0  0
  143.3308  150.5979  139.1074 H   0  0  0  0  0  0  0  0  0  0  0  0
  145.9838  150.3396  139.5724 H   0  0  0  0  0  0  0  0  0  0  0  0
  145.2575  150.8635  137.9643 H   0  0  0  0  0  0  0  0  0  0  0  0
  146.1084  152.9751  138.0945 H   0  0  0  0  0  0  0  0  0  0  0  0
  149.0535  150.4562  139.0726 H   0  0  0  0  0  0  0  0  0  0  0  0
  147.2784  150.0765  138.9719 H   0  0  0  0  0  0  0  0  0  0  0  0
  148.4832  149.5587  136.8668 H   0  0  0  0  0  0  0  0  0  0  0  0
  147.2047  150.8531  136.6859 H   0  0  0  0  0  0  0  0  0  0  0  0
  150.1067  151.0011  136.0878 H   0  0  0  0  0  0  0  0  0  0  0  0
  147.0095  153.3097  136.0918 H   0  0  0  0  0  0  0  0  0  0  0  0
  148.6336  154.1184  136.1802 H   0  0  0  0  0  0  0  0  0  0  0  0
  146.6604  154.8316  134.3973 H   0  0  0  0  0  0  0  0  0  0  0  0
  148.4065  155.0907  134.1173 H   0  0  0  0  0  0  0  0  0  0  0  0
  144.9933  154.3319  133.1827 H   0  0  0  0  0  0  0  0  0  0  0  0
  143.3273  155.0668  133.1132 H   0  0  0  0  0  0  0  0  0  0  0  0
  141.0647  156.0927  133.3021 H   0  0  0  0  0  0  0  0  0  0  0  0
  139.0264  154.6551  133.2459 H   0  0  0  0  0  0  0  0  0  0  0  0
  139.2503  152.1779  133.0074 H   0  0  0  0  0  0  0  0  0  0  0  0
  147.7940  149.6560  132.3450 H   0  0  0  0  0  0  0  0  0  0  0  0
  149.7147  150.9923  131.9257 H   0  0  0  0  0  0  0  0  0  0  0  0
  148.5580  151.9067  130.8896 H   0  0  0  0  0  0  0  0  0  0  0  0
  149.5037  153.5205  132.2928 H   0  0  0  0  0  0  0  0  0  0  0  0
  150.2106  151.5106  134.0326 H   0  0  0  0  0  0  0  0  0  0  0  0
  150.2974  153.2576  134.4496 H   0  0  0  0  0  0  0  0  0  0  0  0
  150.4016  152.0577  138.2201 H   0  0  0  0  0  0  0  0  0  0  0  0
  150.2706  153.3898  137.0181 H   0  0  0  0  0  0  0  0  0  0  0  0
  148.9097  153.8989  138.9998 H   0  0  0  0  0  0  0  0  0  0  0  0
  147.8533  153.5865  137.5396 H   0  0  0  0  0  0  0  0  0  0  0  0
  145.9225  152.6832  141.1594 H   0  0  0  0  0  0  0  0  0  0  0  0
  146.4972  154.1612  140.3170 H   0  0  0  0  0  0  0  0  0  0  0  0
  144.0072  154.1160  140.9971 H   0  0  0  0  0  0  0  0  0  0  0  0
  144.3771  154.5138  139.2694 H   0  0  0  0  0  0  0  0  0  0  0  0
  141.0896  155.2659  140.0421 H   0  0  0  0  0  0  0  0  0  0  0  0
  140.7900  157.2818  138.6054 H   0  0  0  0  0  0  0  0  0  0  0  0
  139.8818  156.5842  134.5006 H   0  0  0  0  0  0  0  0  0  0  0  0
  1  2  2  0
  2  3  1  0
  3  4  2  0
  3  5  1  0
  5  6  1  0
  6  7  1  0
  7  8  1  0
  7  9  2  0
  6 10  2  0
 10 11  1  0
 11 12  2  0
 12 13  1  0
 13 14  2  0
 14 15  1  0
 15 16  2  0
 16 17  1  0
 17 18  2  0
 18 19  1  0
 19 20  2  0
 19 21  1  0
 21 22  1  0
 22 23  1  0
 23 24  1  0
 24 25  1  0
 25 26  1  0
 26 27  1  0
 27 28  1  0
 28 29  1  0
 29 30  1  0
 30 31  1  0
 31 32  1  0
 32 33  1  0
 33 34  2  0
 34 35  1  0
 35 36  1  0
 36 37  2  0
 37 38  1  0
 38 39  2  0
 39 40  1  0
 40 41  2  0
 41 42  1  0
 35 43  2  0
 43 44  1  0
 44 45  2  0
 45 46  1  0
 46 47  1  0
 47 48  1  0
 48 49  1  0
 28 50  1  0
 50 51  1  0
 24 52  1  0
 52 53  1  0
 18 54  1  0
 54 55  2  0
 14 56  1  0
 56 57  2  0
 57  5  1  0
 57 11  1  0
 55 15  1  0
 53 21  1  0
 51 25  1  0
 49 29  1  0
 48 32  1  0
 45 33  1  0
 41 36  1  0
  1 58  1  0
  1 59  1  0
  2 60  1  0
  8 61  1  0
 10 62  1  0
 12 63  1  0
 13 64  1  0
 16 65  1  0
 17 66  1  0
 22 67  1  0
 22 68  1  0
 23 69  1  0
 23 70  1  0
 24 71  1  0
 26 72  1  0
 26 73  1  0
 27 74  1  0
 27 75  1  0
 28 76  1  0
 30 77  1  0
 30 78  1  0
 31 79  1  0
 31 80  1  0
 34 81  1  0
 37 82  1  0
 38 83  1  0
 39 84  1  0
 40 85  1  0
 46 86  1  0
 47 87  1  0
 47 88  1  0
 48 89  1  6
 49 90  1  0
 49 91  1  0
 50 92  1  0
 50 93  1  0
 51 94  1  0
 51 95  1  0
 52 96  1  0
 52 97  1  0
 53 98  1  0
 53 99  1  0
 54100  1  0
 55101  1  0
 56102  1  0
M  CHG  2   8  -1  42  -1
M  END
>  <UniqueID>  (6) 
6

>  <SMILES>  (6) 
C=CC(=O)n1c(C([NH-])=O)cc2ccc(-c3ccc(C(=O)N4CCC(N5CCC(N6CCN7c8cc(-c9ccccc9[O-])nnc8NC[C@@H]7C6)CC5)CC4)cc3)cc21

>  <Energy>  (6) 
206.31257283141153

>  <Genealogy>  (6) 
C=CC(=O)n1c(C([NH-])=O)cc2ccc(-c3ccc(C(=O)N4CCC(N5CCC(N6CCN7c8cc(-c9ccccc9[O-])nnc8NC[C@@H]7C6)CC5)CC4)cc3)cc21 (protonated)
C=CC(=O)n1c(C([NH-])=O)cc2ccc(-c3ccc(C(=O)N4CCC(N5CCC(N6CCN7c8cc(-c9ccccc9[O-])nnc8NC[C@@H]7C6)CC5)CC4)cc3)cc21 (3D coordinates assigned)
C=CC(=O)n1c(C([NH-])=O)cc2ccc(-c3ccc(C(=O)N4CCC(N5CCC(N6CCN7c8cc(-c9ccccc9[O-])nnc8NC[C@@H]7C6)CC5)CC4)cc3)cc21 (nonaromatic ring conformer: 206.31257283141153 kcal/mol)

>  <smiles>  (6) 
C=CC(=O)n1c(C(N)=O)cc2ccc(-c3ccc(C(=O)N4CCC(N5CCC(N6CCN7c8cc(-c9ccccc9O)nnc8NC[C@@H]7C6)CC5)CC4)cc3)cc21

>  <score_type>  (6) 
oracle

>  <origin>  (6) 
adg

>  <m_score__min__energy>  (6) 
-10.58

>  <m_primary>  (6) 
energy

$$$$
6:0
     RDKit          3D

 44 45  0  0  0  0  0  0  0  0999 V2000
  140.9150  159.0380  135.9090 C   0  0  0  0  0  0  0  0  0  0  0  0
  141.3110  159.1720  134.5000 N   0  0  0  0  0  0  0  0  0  0  0  0
  140.3000  158.9730  133.4560 C   0  0  0  0  0  0  0  0  0  0  0  0
  142.6800  159.4980  134.1490 C   0  0  0  0  0  0  0  0  0  0  0  0
  143.1040  160.8540  134.0650 C   0  0  0  0  0  0  0  0  0  0  0  0
  144.4300  161.1800  133.7450 C   0  0  0  0  0  0  0  0  0  0  0  0
  145.3180  160.1400  133.4990 C   0  0  0  0  0  0  0  0  0  0  0  0
  146.6630  160.1770  133.2090 C   0  0  0  0  0  0  0  0  0  0  0  0
  147.0470  158.8460  133.0810 C   0  0  0  0  0  0  0  0  0  0  0  0
  148.4130  158.4250  132.7150 C   0  0  0  0  0  0  0  0  0  0  0  0
  148.6400  157.2560  131.9260 N   0  0  0  0  0  0  0  0  0  0  0  0
  149.3930  159.1380  133.0570 O   0  0  0  0  0  0  0  0  0  0  0  0
  145.9870  158.0160  133.2940 N   0  0  0  0  0  0  0  0  0  0  0  0
  146.0130  156.5820  133.3710 C   0  0  0  0  0  0  0  0  0  0  0  0
  146.2560  155.8960  132.3410 O   0  0  0  0  0  0  0  0  0  0  0  0
  145.7780  155.9510  134.5960 O   0  0  0  0  0  0  0  0  0  0  0  0
  146.2040  154.6220  134.8750 C   0  0  0  0  0  0  0  0  0  0  0  0
  147.7150  154.5290  134.6690 C   0  0  0  0  0  0  0  0  0  0  0  0
  148.1430  153.2620  133.9080 C   0  0  0  0  0  0  0  0  0  0  0  0
  148.9480  153.5580  132.6390 C   0  0  0  0  0  0  0  0  0  0  0  0
  148.7230  154.8720  132.2120 O   0  0  0  0  0  0  0  0  0  0  0  0
  144.9340  158.8260  133.5490 C   0  0  0  0  0  0  0  0  0  0  0  0
  143.6220  158.4700  133.8860 C   0  0  0  0  0  0  0  0  0  0  0  0
  141.7580  159.3232  136.5555 H   0  0  0  0  0  0  0  0  0  0  0  0
  140.0574  159.6960  136.1130 H   0  0  0  0  0  0  0  0  0  0  0  0
  140.6332  157.9945  136.1130 H   0  0  0  0  0  0  0  0  0  0  0  0
  139.3231  158.7807  133.9235 H   0  0  0  0  0  0  0  0  0  0  0  0
  140.2360  159.8758  132.8308 H   0  0  0  0  0  0  0  0  0  0  0  0
  140.5829  158.1133  132.8308 H   0  0  0  0  0  0  0  0  0  0  0  0
  142.3796  161.6599  134.2542 H   0  0  0  0  0  0  0  0  0  0  0  0
  144.7575  162.2287  133.6903 H   0  0  0  0  0  0  0  0  0  0  0  0
  147.2984  161.0684  133.1014 H   0  0  0  0  0  0  0  0  0  0  0  0
  149.6140  156.9550  131.7050 H   0  0  0  0  0  0  0  0  0  0  0  0
  147.8460  156.7400  131.4870 H   0  0  0  0  0  0  0  0  0  0  0  0
  145.9576  154.3669  135.9163 H   0  0  0  0  0  0  0  0  0  0  0  0
  145.6935  153.9193  134.2000 H   0  0  0  0  0  0  0  0  0  0  0  0
  148.0454  155.4090  134.0977 H   0  0  0  0  0  0  0  0  0  0  0  0
  148.1801  154.4866  135.6650 H   0  0  0  0  0  0  0  0  0  0  0  0
  148.7610  152.6453  134.5771 H   0  0  0  0  0  0  0  0  0  0  0  0
  147.2240  152.7441  133.5964 H   0  0  0  0  0  0  0  0  0  0  0  0
  150.0192  153.4243  132.8502 H   0  0  0  0  0  0  0  0  0  0  0  0
  148.6291  152.8661  131.8455 H   0  0  0  0  0  0  0  0  0  0  0  0
  147.9790  154.8240  131.5570 H   0  0  0  0  0  0  0  0  0  0  0  0
  143.3270  157.4120  133.9457 H   0  0  0  0  0  0  0  0  0  0  0  0
  1  2  1  0
  2  3  1  0
  2  4  1  0
  4  5  2  0
  5  6  1  0
  6  7  2  0
  7  8  1  0
  8  9  2  0
  9 10  1  0
 10 11  1  0
 10 12  2  0
  9 13  1  0
 13 14  1  0
 14 15  2  0
 14 16  1  0
 16 17  1  0
 17 18  1  0
 18 19  1  0
 19 20  1  0
 20 21  1  0
 13 22  1  0
 22 23  2  0
 23  4  1  0
 22  7  1  0
  1 24  1  0
  1 25  1  0
  1 26  1  0
  3 27  1  0
  3 28  1  0
  3 29  1  0
  5 30  1  0
  6 31  1  0
  8 32  1  0
 11 33  1  0
 11 34  1  0
 17 35  1  0
 17 36  1  0
 18 37  1  0
 18 38  1  0
 19 39  1  0
 19 40  1  0
 20 41  1  0
 20 42  1  0
 21 43  1  0
 23 44  1  0
M  END
>  <UniqueID>  (7) 
7

>  <SMILES>  (7) 
CN(C)c1ccc2cc(C(N)=O)n(C(=O)OCCCCO)c2c1

>  <Energy>  (7) 
77.01285278482338

>  <Genealogy>  (7) 
CN(C)c1ccc2cc(C(N)=O)n(C(=O)OCCCCO)c2c1 (3D coordinates assigned)
CN(C)c1ccc2cc(C(N)=O)n(C(=O)OCCCCO)c2c1 (optimized conformer: 77.01285278482338 kcal/mol)

>  <smiles>  (7) 
CN(C)c1ccc2cc(C(N)=O)n(C(=O)OCCCCO)c2c1

>  <score_type>  (7) 
oracle

>  <origin>  (7) 
adg

>  <m_score__min__energy>  (7) 
-6.3399999999999999

>  <m_primary>  (7) 
energy

$$$$
7:0
     RDKit          3D

 50 51  0  0  0  0  0  0  0  0999 V2000
  138.3560  148.9980  130.1750 C   0  0  0  0  0  0  0  0  0  0  0  0
  139.5910  148.1090  130.0840 C   0  0  0  0  0  0  0  0  0  0  0  0
  140.2160  147.9810  131.3600 O   0  0  0  0  0  0  0  0  0  0  0  0
  141.1650  148.8850  131.8510 C   0  0  0  0  0  0  0  0  0  0  0  0
  142.1430  149.2390  131.1380 O   0  0  0  0  0  0  0  0  0  0  0  0
  141.0080  149.4030  133.2500 C   0  0  0  0  0  0  0  0  0  0  0  0
  140.7600  150.8550  133.2790 N   0  0  0  0  0  0  0  0  0  0  0  0
  139.9230  151.4580  132.2340 C   0  0  0  0  0  0  0  0  0  0  0  0
  141.3750  151.7280  134.2600 C   0  0  0  0  0  0  0  0  0  0  0  0
  141.3090  151.4300  135.4870 O   0  0  0  0  0  0  0  0  0  0  0  0
  142.0020  152.9650  133.8840 N   0  0  0  0  0  0  0  0  0  0  0  0
  142.7010  153.0260  132.5970 C   0  0  0  0  0  0  0  0  0  0  0  0
  141.6110  154.1890  134.5240 C   0  0  0  0  0  0  0  0  0  0  0  0
  141.8660  154.3660  135.7450 O   0  0  0  0  0  0  0  0  0  0  0  0
  140.9870  155.2740  133.7450 C   0  0  0  0  0  0  0  0  0  0  0  0
  140.0920  155.0070  132.8980 O   0  0  0  0  0  0  0  0  0  0  0  0
  141.4620  156.6210  133.8630 N   0  0  0  0  0  0  0  0  0  0  0  0
  140.7490  157.7470  134.1400 C   0  0  0  0  0  0  0  0  0  0  0  0
  139.2890  157.8080  134.3720 C   0  0  0  0  0  0  0  0  0  0  0  0
  138.3870  157.3890  133.3490 N   0  0  0  0  0  0  0  0  0  0  0  0
  138.8290  158.2170  135.4700 O   0  0  0  0  0  0  0  0  0  0  0  0
  141.5850  158.8630  134.1340 C   0  0  0  0  0  0  0  0  0  0  0  0
  142.8410  158.3770  133.8400 C   0  0  0  0  0  0  0  0  0  0  0  0
  144.0580  159.0410  133.7040 C   0  0  0  0  0  0  0  0  0  0  0  0
  145.2000  158.2720  133.4010 C   0  0  0  0  0  0  0  0  0  0  0  0
  145.1060  156.8650  133.2580 C   0  0  0  0  0  0  0  0  0  0  0  0
  146.3260  156.0600  132.9080 C   0  0  0  0  0  0  0  0  0  0  0  0
  143.8520  156.2290  133.3870 C   0  0  0  0  0  0  0  0  0  0  0  0
  142.7360  157.0210  133.6790 C   0  0  0  0  0  0  0  0  0  0  0  0
  138.1092  149.1757  131.2321 H   0  0  0  0  0  0  0  0  0  0  0  0
  138.5585  149.9588  129.6793 H   0  0  0  0  0  0  0  0  0  0  0  0
  137.5091  148.5010  129.6793 H   0  0  0  0  0  0  0  0  0  0  0  0
  139.2928  147.1124  129.7265 H   0  0  0  0  0  0  0  0  0  0  0  0
  140.3058  148.5675  129.3848 H   0  0  0  0  0  0  0  0  0  0  0  0
  140.1598  148.8888  133.7255 H   0  0  0  0  0  0  0  0  0  0  0  0
  141.9463  149.2089  133.7903 H   0  0  0  0  0  0  0  0  0  0  0  0
  139.1152  152.0400  132.7016 H   0  0  0  0  0  0  0  0  0  0  0  0
  140.5384  152.1216  131.6088 H   0  0  0  0  0  0  0  0  0  0  0  0
  139.4884  150.6641  131.6088 H   0  0  0  0  0  0  0  0  0  0  0  0
  143.7830  153.1204  132.7715 H   0  0  0  0  0  0  0  0  0  0  0  0
  142.5004  152.1069  132.0269 H   0  0  0  0  0  0  0  0  0  0  0  0
  142.3442  153.8964  132.0269 H   0  0  0  0  0  0  0  0  0  0  0  0
  138.4160  156.4140  132.9720 H   0  0  0  0  0  0  0  0  0  0  0  0
  141.3023  159.9090  134.3236 H   0  0  0  0  0  0  0  0  0  0  0  0
  144.1258  160.1317  133.8292 H   0  0  0  0  0  0  0  0  0  0  0  0
  146.1733  158.7686  133.2744 H   0  0  0  0  0  0  0  0  0  0  0  0
  146.8252  155.7306  133.8312 H   0  0  0  0  0  0  0  0  0  0  0  0
  146.0282  155.1805  132.3183 H   0  0  0  0  0  0  0  0  0  0  0  0
  147.0175  156.6798  132.3183 H   0  0  0  0  0  0  0  0  0  0  0  0
  143.7550  155.1405  133.2614 H   0  0  0  0  0  0  0  0  0  0  0  0
  1  2  1  0
  2  3  1  0
  3  4  1  0
  4  5  2  0
  4  6  1  0
  6  7  1  0
  7  8  1  0
  7  9  1  0
  9 10  2  0
  9 11  1  0
 11 12  1  0
 11 13  1  0
 13 14  2  0
 13 15  1  0
 15 16  2  0
 15 17  1  0
 17 18  1  0
 18 19  1  0
 19 20  1  0
 19 21  2  0
 18 22  2  0
 22 23  1  0
 23 24  2  0
 24 25  1  0
 25 26  2  0
 26 27  1  0
 26 28  1  0
 28 29  2  0
 29 17  1  0
 29 23  1  0
  1 30  1  0
  1 31  1  0
  1 32  1  0
  2 33  1  0
  2 34  1  0
  6 35  1  0
  6 36  1  0
  8 37  1  0
  8 38  1  0
  8 39  1  0
 12 40  1  0
 12 41  1  0
 12 42  1  0
 20 43  1  0
 22 44  1  0
 24 45  1  0
 25 46  1  0
 27 47  1  0
 27 48  1  0
 27 49  1  0
 28 50  1  0
M  CHG  1  20  -1
M  END
>  <UniqueID>  (8) 
8

>  <SMILES>  (8) 
CCOC(=O)CN(C)C(=O)N(C)C(=O)C(=O)n1c(C([NH-])=O)cc2ccc(C)cc21

>  <Energy>  (8) 
88.5062739004805

>  <Genealogy>  (8) 
CCOC(=O)CN(C)C(=O)N(C)C(=O)C(=O)n1c(C([NH-])=O)cc2ccc(C)cc21 (protonated)
CCOC(=O)CN(C)C(=O)N(C)C(=O)C(=O)n1c(C([NH-])=O)cc2ccc(C)cc21 (3D coordinates assigned)
CCOC(=O)CN(C)C(=O)N(C)C(=O)C(=O)n1c(C([NH-])=O)cc2ccc(C)cc21 (optimized conformer: 88.5062739004805 kcal/mol)

>  <smiles>  (8) 
CCOC(=O)CN(C)C(=O)N(C)C(=O)C(=O)n1c(C(N)=O)cc2ccc(C)cc21

>  <score_type>  (8) 
oracle

>  <origin>  (8) 
adg

>  <m_score__min__energy>  (8) 
-6.9800000000000004

>  <m_primary>  (8) 
energy

$$$$
8:0
     RDKit          3D

 37 38  0  0  0  0  0  0  0  0999 V2000
  140.1960  150.7040  132.2040 C   0  0  0  0  0  0  0  0  0  0  0  0
  141.3410  151.2540  132.8450 O   0  0  0  0  0  0  0  0  0  0  0  0
  141.6470  152.6200  132.8480 C   0  0  0  0  0  0  0  0  0  0  0  0
  143.2160  153.0520  132.6440 S   0  0  0  0  0  0  0  0  0  0  0  0
  140.6120  153.6150  132.9700 N   0  0  0  0  0  0  0  0  0  0  0  0
  140.8190  154.9350  133.5020 C   0  0  0  0  0  0  0  0  0  0  0  0
  141.8510  155.1940  134.1780 O   0  0  0  0  0  0  0  0  0  0  0  0
  139.8050  155.9890  133.3050 C   0  0  0  0  0  0  0  0  0  0  0  0
  138.7340  155.7240  132.6970 O   0  0  0  0  0  0  0  0  0  0  0  0
  140.0220  157.3170  133.8050 N   0  0  0  0  0  0  0  0  0  0  0  0
  139.9790  158.4840  133.1020 C   0  0  0  0  0  0  0  0  0  0  0  0
  139.5720  158.6100  131.6840 C   0  0  0  0  0  0  0  0  0  0  0  0
  138.3830  157.9810  131.2020 N   0  0  0  0  0  0  0  0  0  0  0  0
  140.2850  159.2660  130.8790 O   0  0  0  0  0  0  0  0  0  0  0  0
  140.3170  159.5580  133.9250 C   0  0  0  0  0  0  0  0  0  0  0  0
  140.5780  159.0070  135.1590 C   0  0  0  0  0  0  0  0  0  0  0  0
  140.9840  159.6120  136.3450 C   0  0  0  0  0  0  0  0  0  0  0  0
  141.2180  158.7880  137.4600 C   0  0  0  0  0  0  0  0  0  0  0  0
  141.0440  157.3830  137.3690 C   0  0  0  0  0  0  0  0  0  0  0  0
  141.3400  156.5090  138.5530 C   0  0  0  0  0  0  0  0  0  0  0  0
  140.7240  155.1590  138.3610 C   0  0  0  0  0  0  0  0  0  0  0  0
  141.3020  154.2940  137.6530 O   0  0  0  0  0  0  0  0  0  0  0  0
  139.5360  154.8400  139.0050 O   0  0  0  0  0  0  0  0  0  0  0  0
  140.6430  156.8050  136.1450 C   0  0  0  0  0  0  0  0  0  0  0  0
  140.3970  157.6520  135.0590 C   0  0  0  0  0  0  0  0  0  0  0  0
  139.4798  150.3600  132.9647 H   0  0  0  0  0  0  0  0  0  0  0  0
  139.7226  151.4730  131.5759 H   0  0  0  0  0  0  0  0  0  0  0  0
  140.5004  149.8538  131.5759 H   0  0  0  0  0  0  0  0  0  0  0  0
  139.6470  153.3580  132.6670 H   0  0  0  0  0  0  0  0  0  0  0  0
  138.1290  158.0490  130.1910 H   0  0  0  0  0  0  0  0  0  0  0  0
  137.7280  157.4850  131.8440 H   0  0  0  0  0  0  0  0  0  0  0  0
  140.3649  160.6211  133.6467 H   0  0  0  0  0  0  0  0  0  0  0  0
  141.1177  160.7020  136.4081 H   0  0  0  0  0  0  0  0  0  0  0  0
  141.5389  159.2369  138.4116 H   0  0  0  0  0  0  0  0  0  0  0  0
  142.4292  156.4000  138.6618 H   0  0  0  0  0  0  0  0  0  0  0  0
  140.9186  156.9722  139.4573 H   0  0  0  0  0  0  0  0  0  0  0  0
  140.5268  155.7155  136.0476 H   0  0  0  0  0  0  0  0  0  0  0  0
  1  2  1  0
  2  3  1  0
  3  4  2  0
  3  5  1  0
  5  6  1  0
  6  7  2  0
  6  8  1  0
  8  9  2  0
  8 10  1  0
 10 11  1  0
 11 12  1  0
 12 13  1  0
 12 14  2  0
 11 15  2  0
 15 16  1  0
 16 17  2  0
 17 18  1  0
 18 19  2  0
 19 20  1  0
 20 21  1  0
 21 22  2  0
 21 23  1  0
 19 24  1  0
 24 25  2  0
 25 10  1  0
 25 16  1  0
  1 26  1  0
  1 27  1  0
  1 28  1  0
  5 29  1  0
 13 30  1  0
 13 31  1  0
 15 32  1  0
 17 33  1  0
 18 34  1  0
 20 35  1  0
 20 36  1  0
 24 37  1  0
M  CHG  1  23  -1
M  END
>  <UniqueID>  (9) 
9

>  <SMILES>  (9) 
COC(=S)NC(=O)C(=O)n1c(C(N)=O)cc2ccc(CC(=O)[O-])cc21

>  <Energy>  (9) 
75.43146674228122

>  <Genealogy>  (9) 
COC(=S)NC(=O)C(=O)n1c(C(N)=O)cc2ccc(CC(=O)[O-])cc21 (protonated)
COC(=S)NC(=O)C(=O)n1c(C(N)=O)cc2ccc(CC(=O)[O-])cc21 (3D coordinates assigned)
COC(=S)NC(=O)C(=O)n1c(C(N)=O)cc2ccc(CC(=O)[O-])cc21 (optimized conformer: 75.43146674228122 kcal/mol)

>  <smiles>  (9) 
COC(=S)NC(=O)C(=O)n1c(C(N)=O)cc2ccc(CC(=O)O)cc21

>  <score_type>  (9) 
oracle

>  <origin>  (9) 
adg

>  <m_score__min__energy>  (9) 
-7.9199999999999999

>  <m_primary>  (9) 
energy

$$$$
9:0
     RDKit          3D

 52 54  0  0  0  0  0  0  0  0999 V2000
  144.1530  153.3490  132.8360 C   0  0  0  0  0  0  0  0  0  0  0  0
  143.8050  154.3140  133.8890 N   0  0  0  0  0  0  0  0  0  0  0  0
  142.5730  155.0590  133.7970 C   0  0  0  0  0  0  0  0  0  0  0  0
  142.4040  156.1020  134.4860 O   0  0  0  0  0  0  0  0  0  0  0  0
  141.5350  154.6150  132.9860 O   0  0  0  0  0  0  0  0  0  0  0  0
  144.7460  154.5760  134.9510 C   0  0  0  0  0  0  0  0  0  0  0  0
  144.5710  154.0640  136.0920 O   0  0  0  0  0  0  0  0  0  0  0  0
  145.9200  155.3710  134.7140 N   0  0  0  0  0  0  0  0  0  0  0  0
  147.2150  155.0560  134.9950 C   0  0  0  0  0  0  0  0  0  0  0  0
  147.7010  153.7510  135.4890 C   0  0  0  0  0  0  0  0  0  0  0  0
  147.2350  153.2160  136.7260 N   0  0  0  0  0  0  0  0  0  0  0  0
  148.5150  153.0860  134.7950 O   0  0  0  0  0  0  0  0  0  0  0  0
  148.0530  156.1300  134.6940 C   0  0  0  0  0  0  0  0  0  0  0  0
  147.2210  157.1130  134.2050 C   0  0  0  0  0  0  0  0  0  0  0  0
  147.5180  158.4010  133.7690 C   0  0  0  0  0  0  0  0  0  0  0  0
  146.4520  159.2130  133.3460 C   0  0  0  0  0  0  0  0  0  0  0  0
  145.1170  158.7290  133.3670 C   0  0  0  0  0  0  0  0  0  0  0  0
  144.0280  159.5920  132.9840 N   0  0  0  0  0  0  0  0  0  0  0  0
  143.4270  160.1970  134.1790 C   0  0  0  0  0  0  0  0  0  0  0  0
  141.9300  160.1970  134.0840 C   0  0  0  0  0  0  0  0  0  0  0  0
  141.3300  161.2150  133.6430 O   0  0  0  0  0  0  0  0  0  0  0  0
  141.1760  159.0680  134.5360 N   0  0  0  0  0  0  0  0  0  0  0  0
  141.3080  158.5480  135.8850 C   0  0  0  0  0  0  0  0  0  0  0  0
  140.1910  157.5240  136.0360 C   0  0  0  0  0  0  0  0  0  0  0  0
  139.1810  157.8570  134.9390 C   0  0  0  0  0  0  0  0  0  0  0  0
  139.9660  158.6190  133.8640 C   0  0  2  0  0  0  0  0  0  0  0  0
  140.3300  157.7330  132.6610 C   0  0  0  0  0  0  0  0  0  0  0  0
  141.7230  157.6490  132.5120 O   0  0  0  0  0  0  0  0  0  0  0  0
  144.8580  157.4170  133.8260 C   0  0  0  0  0  0  0  0  0  0  0  0
  145.9410  156.6280  134.2250 C   0  0  0  0  0  0  0  0  0  0  0  0
  144.4918  152.4095  133.2970 H   0  0  0  0  0  0  0  0  0  0  0  0
  143.2689  153.1530  132.2115 H   0  0  0  0  0  0  0  0  0  0  0  0
  144.9587  153.7624  132.2115 H   0  0  0  0  0  0  0  0  0  0  0  0
  146.2390  152.9300  136.8450 H   0  0  0  0  0  0  0  0  0  0  0  0
  149.1445  156.1810  134.8202 H   0  0  0  0  0  0  0  0  0  0  0  0
  148.5537  158.7713  133.7560 H   0  0  0  0  0  0  0  0  0  0  0  0
  146.6539  160.2356  132.9944 H   0  0  0  0  0  0  0  0  0  0  0  0
  144.3890  160.3440  132.3480 H   0  0  0  0  0  0  0  0  0  0  0  0
  143.3030  159.0440  132.4590 H   0  0  0  0  0  0  0  0  0  0  0  0
  143.7316  159.6218  135.0658 H   0  0  0  0  0  0  0  0  0  0  0  0
  143.7740  161.2378  134.2582 H   0  0  0  0  0  0  0  0  0  0  0  0
  142.2893  158.0693  136.0184 H   0  0  0  0  0  0  0  0  0  0  0  0
  141.2360  159.3455  136.6392 H   0  0  0  0  0  0  0  0  0  0  0  0
  140.5828  156.5050  135.9014 H   0  0  0  0  0  0  0  0  0  0  0  0
  139.7347  157.5623  137.0362 H   0  0  0  0  0  0  0  0  0  0  0  0
  138.7536  156.9344  134.5192 H   0  0  0  0  0  0  0  0  0  0  0  0
  138.3436  158.4547  135.3282 H   0  0  0  0  0  0  0  0  0  0  0  0
  139.3654  159.4441  133.4534 H   0  0  0  0  0  0  0  0  0  0  0  0
  139.9220  156.7238  132.8189 H   0  0  0  0  0  0  0  0  0  0  0  0
  139.9025  158.1786  131.7506 H   0  0  0  0  0  0  0  0  0  0  0  0
  141.9450  156.6900  132.3820 H   0  0  0  0  0  0  0  0  0  0  0  0
  143.8304  157.0269  133.8681 H   0  0  0  0  0  0  0  0  0  0  0  0
  1  2  1  0
  2  3  1  0
  3  4  2  0
  3  5  1  0
  2  6  1  0
  6  7  2  0
  6  8  1  0
  8  9  1  0
  9 10  1  0
 10 11  1  0
 10 12  2  0
  9 13  2  0
 13 14  1  0
 14 15  2  0
 15 16  1  0
 16 17  2  0
 17 18  1  0
 18 19  1  0
 19 20  1  0
 20 21  2  0
 20 22  1  0
 22 23  1  0
 23 24  1  0
 24 25  1  0
 25 26  1  0
 26 27  1  0
 27 28  1  0
 17 29  1  0
 29 30  2  0
 30  8  1  0
 30 14  1  0
 26 22  1  0
  1 31  1  0
  1 32  1  0
  1 33  1  0
 11 34  1  0
 13 35  1  0
 15 36  1  0
 16 37  1  0
 18 38  1  0
 18 39  1  0
 19 40  1  0
 19 41  1  0
 23 42  1  0
 23 43  1  0
 24 44  1  0
 24 45  1  0
 25 46  1  0
 25 47  1  0
 26 48  1  6
 27 49  1  0
 27 50  1  0
 28 51  1  0
 29 52  1  0
M  CHG  3   5  -1  11  -1  18   1
M  END
>  <UniqueID>  (10) 
10

>  <SMILES>  (10) 
CN(C(=O)[O-])C(=O)n1c(C([NH-])=O)cc2ccc([NH2+]CC(=O)N3CCC[C@@H]3CO)cc21

>  <Energy>  (10) 
98.46959385662765

>  <Genealogy>  (10) 
CN(C(=O)[O-])C(=O)n1c(C([NH-])=O)cc2ccc([NH2+]CC(=O)N3CCC[C@@H]3CO)cc21 (protonated)
CN(C(=O)[O-])C(=O)n1c(C([NH-])=O)cc2ccc([NH2+]CC(=O)N3CCC[C@@H]3CO)cc21 (3D coordinates assigned)
CN(C(=O)[O-])C(=O)n1c(C([NH-])=O)cc2ccc([NH2+]CC(=O)N3CCC[C@@H]3CO)cc21 (nonaromatic ring conformer: 98.46959385662765 kcal/mol)

>  <smiles>  (10) 
CN(C(=O)O)C(=O)n1c(C(N)=O)cc2ccc(NCC(=O)N3CCC[C@@H]3CO)cc21

>  <score_type>  (10) 
oracle

>  <origin>  (10) 
adg

>  <m_score__min__energy>  (10) 
-7.3200000000000003

>  <m_primary>  (10) 
energy

$$$$
10:0
     RDKit          3D

 37 38  0  0  0  0  0  0  0  0999 V2000
  137.2720  160.1370  130.7350 C   0  0  0  0  0  0  0  0  0  0  0  0
  137.8560  158.8810  131.1810 N   0  0  0  0  0  0  0  0  0  0  0  0
  139.2490  158.7390  131.4770 C   0  0  0  0  0  0  0  0  0  0  0  0
  140.1050  159.3730  130.8050 O   0  0  0  0  0  0  0  0  0  0  0  0
  139.6730  157.8280  132.5560 C   0  0  0  0  0  0  0  0  0  0  0  0
  139.4570  156.5920  132.4270 O   0  0  0  0  0  0  0  0  0  0  0  0
  140.3540  158.3110  133.7330 N   0  0  0  0  0  0  0  0  0  0  0  0
  141.6240  159.0250  133.5620 C   0  0  0  0  0  0  0  0  0  0  0  0
  139.9870  157.8280  135.0430 C   0  0  0  0  0  0  0  0  0  0  0  0
  138.8370  158.0650  135.5040 O   0  0  0  0  0  0  0  0  0  0  0  0
  140.8830  157.0050  135.8060 N   0  0  0  0  0  0  0  0  0  0  0  0
  141.4820  157.2840  136.9990 C   0  0  0  0  0  0  0  0  0  0  0  0
  141.3000  158.5160  137.7970 C   0  0  0  0  0  0  0  0  0  0  0  0
  140.6440  159.6560  137.2530 N   0  0  0  0  0  0  0  0  0  0  0  0
  141.7180  158.5560  138.9850 O   0  0  0  0  0  0  0  0  0  0  0  0
  142.2820  156.2150  137.4010 C   0  0  0  0  0  0  0  0  0  0  0  0
  142.1440  155.2640  136.4140 C   0  0  0  0  0  0  0  0  0  0  0  0
  142.7080  153.9970  136.3040 C   0  0  0  0  0  0  0  0  0  0  0  0
  142.3880  153.2310  135.1710 C   0  0  0  0  0  0  0  0  0  0  0  0
  141.5320  153.7470  134.1620 C   0  0  0  0  0  0  0  0  0  0  0  0
  141.1620  152.8980  132.9730 C   0  0  0  0  0  0  0  0  0  0  0  0
  139.8340  153.1130  132.6570 F   0  0  0  0  0  0  0  0  0  0  0  0
  141.3470  151.5550  133.2540 F   0  0  0  0  0  0  0  0  0  0  0  0
  141.9450  153.2210  131.8780 F   0  0  0  0  0  0  0  0  0  0  0  0
  140.9610  155.0310  134.3240 C   0  0  0  0  0  0  0  0  0  0  0  0
  141.2930  155.7650  135.4670 C   0  0  0  0  0  0  0  0  0  0  0  0
  136.9908  160.7417  131.6098 H   0  0  0  0  0  0  0  0  0  0  0  0
  138.0063  160.6880  130.1290 H   0  0  0  0  0  0  0  0  0  0  0  0
  136.3774  159.9307  130.1290 H   0  0  0  0  0  0  0  0  0  0  0  0
  142.0468  159.2627  134.5493 H   0  0  0  0  0  0  0  0  0  0  0  0
  142.3289  158.3909  133.0042 H   0  0  0  0  0  0  0  0  0  0  0  0
  141.4486  159.9567  133.0042 H   0  0  0  0  0  0  0  0  0  0  0  0
  139.7180  159.5700  136.7790 H   0  0  0  0  0  0  0  0  0  0  0  0
  142.8935  156.1458  138.3127 H   0  0  0  0  0  0  0  0  0  0  0  0
  143.3833  153.6073  137.0800 H   0  0  0  0  0  0  0  0  0  0  0  0
  142.8055  152.2190  135.0639 H   0  0  0  0  0  0  0  0  0  0  0  0
  140.2733  155.4417  133.5700 H   0  0  0  0  0  0  0  0  0  0  0  0
  1  2  1  0
  2  3  1  0
  3  4  2  0
  3  5  1  0
  5  6  2  0
  5  7  1  0
  7  8  1  0
  7  9  1  0
  9 10  2  0
  9 11  1  0
 11 12  1  0
 12 13  1  0
 13 14  1  0
 13 15  2  0
 12 16  2  0
 16 17  1  0
 17 18  2  0
 18 19  1  0
 19 20  2  0
 20 21  1  0
 21 22  1  0
 21 23  1  0
 21 24  1  0
 20 25  1  0
 25 26  2  0
 26 11  1  0
 26 17  1  0
  1 27  1  0
  1 28  1  0
  1 29  1  0
  8 30  1  0
  8 31  1  0
  8 32  1  0
 14 33  1  0
 16 34  1  0
 18 35  1  0
 19 36  1  0
 25 37  1  0
M  CHG  2   2  -1  14  -1
M  END
>  <UniqueID>  (11) 
11

>  <SMILES>  (11) 
C[N-]C(=O)C(=O)N(C)C(=O)n1c(C([NH-])=O)cc2ccc(C(F)(F)F)cc21

>  <Energy>  (11) 
78.46181281550462

>  <Genealogy>  (11) 
C[N-]C(=O)C(=O)N(C)C(=O)n1c(C([NH-])=O)cc2ccc(C(F)(F)F)cc21 (protonated)
C[N-]C(=O)C(=O)N(C)C(=O)n1c(C([NH-])=O)cc2ccc(C(F)(F)F)cc21 (3D coordinates assigned)
C[N-]C(=O)C(=O)N(C)C(=O)n1c(C([NH-])=O)cc2ccc(C(F)(F)F)cc21 (optimized conformer: 78.46181281550462 kcal/mol)

>  <smiles>  (11) 
CNC(=O)C(=O)N(C)C(=O)n1c(C(N)=O)cc2ccc(C(F)(F)F)cc21

>  <score_type>  (11) 
oracle

>  <origin>  (11) 
adg

>  <m_score__min__energy>  (11) 
-6.1799999999999997

>  <m_primary>  (11) 
energy

$$$$
11:0
     RDKit          3D

 59 60  0  0  0  0  0  0  0  0999 V2000
  136.7810  160.0790  130.7300 C   0  0  0  0  0  0  0  0  0  0  0  0
  137.8720  160.5670  129.9800 O   0  0  0  0  0  0  0  0  0  0  0  0
  139.0780  160.2140  130.6250 C   0  0  0  0  0  0  0  0  0  0  0  0
  138.7700  159.3760  131.8650 C   0  0  0  0  0  0  0  0  0  0  0  0
  139.0960  158.0150  131.6490 O   0  0  0  0  0  0  0  0  0  0  0  0
  139.8150  157.4720  132.7410 C   0  0  0  0  0  0  0  0  0  0  0  0
  138.9460  157.4300  134.0080 C   0  0  0  0  0  0  0  0  0  0  0  0
  139.6720  157.9650  135.2110 C   0  0  0  0  0  0  0  0  0  0  0  0
  139.0300  158.2140  136.2700 O   0  0  0  0  0  0  0  0  0  0  0  0
  141.0870  158.2210  135.1390 N   0  0  0  0  0  0  0  0  0  0  0  0
  141.6700  159.5610  135.1850 C   0  0  0  0  0  0  0  0  0  0  0  0
  141.8580  160.1310  133.8110 C   0  0  0  0  0  0  0  0  0  0  0  0
  140.9690  160.8640  133.2970 O   0  0  0  0  0  0  0  0  0  0  0  0
  143.0500  159.8770  133.1250 O   0  0  0  0  0  0  0  0  0  0  0  0
  144.3160  159.8650  133.7770 C   0  0  0  0  0  0  0  0  0  0  0  0
  145.3490  160.0460  132.8120 O   0  0  0  0  0  0  0  0  0  0  0  0
  146.7060  160.0400  133.1390 C   0  0  0  0  0  0  0  0  0  0  0  0
  147.2300  161.0350  133.7150 O   0  0  0  0  0  0  0  0  0  0  0  0
  147.5230  158.9300  132.7490 N   0  0  0  0  0  0  0  0  0  0  0  0
  148.6930  158.9680  132.0540 C   0  0  0  0  0  0  0  0  0  0  0  0
  149.2550  160.1560  131.3810 C   0  0  0  0  0  0  0  0  0  0  0  0
  148.4810  161.3400  131.2210 N   0  0  0  0  0  0  0  0  0  0  0  0
  150.4220  160.1120  130.9070 O   0  0  0  0  0  0  0  0  0  0  0  0
  149.2780  157.7060  132.0140 C   0  0  0  0  0  0  0  0  0  0  0  0
  148.4220  156.8890  132.7200 C   0  0  0  0  0  0  0  0  0  0  0  0
  148.5320  155.5400  133.0360 C   0  0  0  0  0  0  0  0  0  0  0  0
  147.5420  154.9690  133.8500 C   0  0  0  0  0  0  0  0  0  0  0  0
  146.4630  155.7520  134.3530 C   0  0  0  0  0  0  0  0  0  0  0  0
  145.4730  155.1660  135.2340 N   0  0  0  0  0  0  0  0  0  0  0  0
  144.0670  155.5780  135.1460 C   0  0  0  0  0  0  0  0  0  0  0  0
  145.8580  154.1620  136.2340 C   0  0  0  0  0  0  0  0  0  0  0  0
  146.3870  157.1210  133.9910 C   0  0  0  0  0  0  0  0  0  0  0  0
  147.3770  157.6530  133.1590 C   0  0  0  0  0  0  0  0  0  0  0  0
  137.0007  160.1773  131.8033 H   0  0  0  0  0  0  0  0  0  0  0  0
  135.8792  160.6595  130.4857 H   0  0  0  0  0  0  0  0  0  0  0  0
  136.6126  159.0198  130.4857 H   0  0  0  0  0  0  0  0  0  0  0  0
  139.7048  159.6301  129.9350 H   0  0  0  0  0  0  0  0  0  0  0  0
  139.6127  161.1273  130.9250 H   0  0  0  0  0  0  0  0  0  0  0  0
  139.3586  159.7572  132.7125 H   0  0  0  0  0  0  0  0  0  0  0  0
  137.6938  159.4497  132.0805 H   0  0  0  0  0  0  0  0  0  0  0  0
  140.1331  156.4495  132.4892 H   0  0  0  0  0  0  0  0  0  0  0  0
  140.6888  158.1108  132.9370 H   0  0  0  0  0  0  0  0  0  0  0  0
  138.0440  158.0366  133.8395 H   0  0  0  0  0  0  0  0  0  0  0  0
  138.6893  156.3791  134.2075 H   0  0  0  0  0  0  0  0  0  0  0  0
  141.0012  160.2214  135.7565 H   0  0  0  0  0  0  0  0  0  0  0  0
  142.6573  159.4893  135.6647 H   0  0  0  0  0  0  0  0  0  0  0  0
  144.3563  160.6801  134.5146 H   0  0  0  0  0  0  0  0  0  0  0  0
  144.4562  158.9010  134.2879 H   0  0  0  0  0  0  0  0  0  0  0  0
  147.7190  161.5820  131.8950 H   0  0  0  0  0  0  0  0  0  0  0  0
  150.2210  157.4218  131.5241 H   0  0  0  0  0  0  0  0  0  0  0  0
  149.3712  154.9372  132.6587 H   0  0  0  0  0  0  0  0  0  0  0  0
  147.5998  153.9002  134.1038 H   0  0  0  0  0  0  0  0  0  0  0  0
  143.6561  155.6984  136.1592 H   0  0  0  0  0  0  0  0  0  0  0  0
  143.9982  156.5341  134.6064 H   0  0  0  0  0  0  0  0  0  0  0  0
  143.4930  154.8103  134.6064 H   0  0  0  0  0  0  0  0  0  0  0  0
  145.7013  154.5708  137.2431 H   0  0  0  0  0  0  0  0  0  0  0  0
  145.2420  153.2600  136.1040 H   0  0  0  0  0  0  0  0  0  0  0  0
  146.9192  153.9031  136.1040 H   0  0  0  0  0  0  0  0  0  0  0  0
  145.5646  157.7527  134.3579 H   0  0  0  0  0  0  0  0  0  0  0  0
  1  2  1  0
  2  3  1  0
  3  4  1  0
  4  5  1  0
  5  6  1  0
  6  7  1  0
  7  8  1  0
  8  9  2  0
  8 10  1  0
 10 11  1  0
 11 12  1  0
 12 13  2  0
 12 14  1  0
 14 15  1  0
 15 16  1  0
 16 17  1  0
 17 18  2  0
 17 19  1  0
 19 20  1  0
 20 21  1  0
 21 22  1  0
 21 23  2  0
 20 24  2  0
 24 25  1  0
 25 26  2  0
 26 27  1  0
 27 28  2  0
 28 29  1  0
 29 30  1  0
 29 31  1  0
 28 32  1  0
 32 33  2  0
 33 19  1  0
 33 25  1  0
  1 34  1  0
  1 35  1  0
  1 36  1  0
  3 37  1  0
  3 38  1  0
  4 39  1  0
  4 40  1  0
  6 41  1  0
  6 42  1  0
  7 43  1  0
  7 44  1  0
 11 45  1  0
 11 46  1  0
 15 47  1  0
 15 48  1  0
 22 49  1  0
 24 50  1  0
 26 51  1  0
 27 52  1  0
 30 53  1  0
 30 54  1  0
 30 55  1  0
 31 56  1  0
 31 57  1  0
 31 58  1  0
 32 59  1  0
M  CHG  2  10  -1  22  -1
M  END
>  <UniqueID>  (12) 
12

>  <SMILES>  (12) 
COCCOCCC(=O)[N-]CC(=O)OCOC(=O)n1c(C([NH-])=O)cc2ccc(N(C)C)cc21

>  <Energy>  (12) 
92.36055972485212

>  <Genealogy>  (12) 
COCCOCCC(=O)[N-]CC(=O)OCOC(=O)n1c(C([NH-])=O)cc2ccc(N(C)C)cc21 (protonated)
COCCOCCC(=O)[N-]CC(=O)OCOC(=O)n1c(C([NH-])=O)cc2ccc(N(C)C)cc21 (3D coordinates assigned)
COCCOCCC(=O)[N-]CC(=O)OCOC(=O)n1c(C([NH-])=O)cc2ccc(N(C)C)cc21 (optimized conformer: 92.36055972485212 kcal/mol)

>  <smiles>  (12) 
COCCOCCC(=O)NCC(=O)OCOC(=O)n1c(C(N)=O)cc2ccc(N(C)C)cc21

>  <score_type>  (12) 
oracle

>  <origin>  (12) 
adg

>  <m_score__min__energy>  (12) 
-6.8600000000000003

>  <m_primary>  (12) 
energy

$$$$
12:0
     RDKit          3D

 65 67  0  0  0  0  0  0  0  0999 V2000
  139.7170  159.2100  132.0060 C   0  0  0  0  0  0  0  0  0  0  0  0
  139.4970  157.8080  132.5840 C   0  0  0  0  0  0  0  0  0  0  0  0
  138.6530  157.8810  133.8550 C   0  0  0  0  0  0  0  0  0  0  0  0
  140.7490  157.1970  132.8960 O   0  0  0  0  0  0  0  0  0  0  0  0
  141.6720  157.7400  133.7980 C   0  0  0  0  0  0  0  0  0  0  0  0
  142.6630  158.3970  133.3780 O   0  0  0  0  0  0  0  0  0  0  0  0
  141.5090  157.5120  135.2070 N   0  0  0  0  0  0  0  0  0  0  0  0
  141.1310  158.4150  136.1570 C   0  0  0  0  0  0  0  0  0  0  0  0
  140.9820  159.8710  135.9620 C   0  0  0  0  0  0  0  0  0  0  0  0
  141.3590  160.4880  134.7340 N   0  0  0  0  0  0  0  0  0  0  0  0
  140.5640  160.5880  136.9090 O   0  0  0  0  0  0  0  0  0  0  0  0
  140.9710  157.7870  137.3900 C   0  0  0  0  0  0  0  0  0  0  0  0
  141.2740  156.4630  137.1690 C   0  0  0  0  0  0  0  0  0  0  0  0
  141.2620  155.3840  138.0470 C   0  0  0  0  0  0  0  0  0  0  0  0
  141.5850  154.1160  137.5360 C   0  0  0  0  0  0  0  0  0  0  0  0
  141.9110  153.9510  136.1670 C   0  0  0  0  0  0  0  0  0  0  0  0
  142.2140  152.5790  135.6250 C   0  0  0  0  0  0  0  0  0  0  0  0
  142.5790  152.6170  134.1610 C   0  0  0  0  0  0  0  0  0  0  0  0
  141.6800  152.4240  133.2950 O   0  0  0  0  0  0  0  0  0  0  0  0
  143.9220  152.9350  133.7350 N   0  0  0  0  0  0  0  0  0  0  0  0
  144.3120  152.7160  132.3350 C   0  0  0  0  0  0  0  0  0  0  0  0
  145.7880  152.3110  132.2400 C   0  0  0  0  0  0  0  0  0  0  0  0
  146.6490  153.2000  133.0330 N   0  0  0  0  0  0  0  0  0  0  0  0
  148.0740  153.1340  132.8490 C   0  0  0  0  0  0  0  0  0  0  0  0
  148.8180  154.0060  133.3740 O   0  0  0  0  0  0  0  0  0  0  0  0
  148.6220  152.0960  132.0770 O   0  0  0  0  0  0  0  0  0  0  0  0
  149.2240  150.8910  132.5740 C   0  0  0  0  0  0  0  0  0  0  0  0
  149.7130  151.0840  134.0220 C   0  0  0  0  0  0  0  0  0  0  0  0
  150.3830  150.4510  131.6610 C   0  0  0  0  0  0  0  0  0  0  0  0
  148.1400  149.8030  132.5590 C   0  0  0  0  0  0  0  0  0  0  0  0
  146.0520  154.2090  133.9200 C   0  0  0  0  0  0  0  0  0  0  0  0
  144.8440  153.6200  134.6560 C   0  0  0  0  0  0  0  0  0  0  0  0
  141.9000  155.0690  135.3030 C   0  0  0  0  0  0  0  0  0  0  0  0
  141.5940  156.3230  135.8430 C   0  0  0  0  0  0  0  0  0  0  0  0
  139.8303  159.9319  132.8282 H   0  0  0  0  0  0  0  0  0  0  0  0
  140.6266  159.2130  131.3874 H   0  0  0  0  0  0  0  0  0  0  0  0
  138.8520  159.4915  131.3874 H   0  0  0  0  0  0  0  0  0  0  0  0
  138.9712  157.2072  131.8273 H   0  0  0  0  0  0  0  0  0  0  0  0
  139.3102  157.8242  134.7353 H   0  0  0  0  0  0  0  0  0  0  0  0
  138.0979  158.8305  133.8725 H   0  0  0  0  0  0  0  0  0  0  0  0
  137.9431  157.0409  133.8725 H   0  0  0  0  0  0  0  0  0  0  0  0
  141.2670  159.9820  133.8260 H   0  0  0  0  0  0  0  0  0  0  0  0
  140.6667  158.2513  138.3397 H   0  0  0  0  0  0  0  0  0  0  0  0
  141.0074  155.5195  139.1085 H   0  0  0  0  0  0  0  0  0  0  0  0
  141.5849  153.2428  138.2050 H   0  0  0  0  0  0  0  0  0  0  0  0
  143.0558  152.1520  136.1898 H   0  0  0  0  0  0  0  0  0  0  0  0
  141.3088  151.9634  135.7335 H   0  0  0  0  0  0  0  0  0  0  0  0
  143.6898  151.9157  131.9079 H   0  0  0  0  0  0  0  0  0  0  0  0
  144.1658  153.6525  131.7767 H   0  0  0  0  0  0  0  0  0  0  0  0
  145.8997  151.2819  132.6121 H   0  0  0  0  0  0  0  0  0  0  0  0
  146.0964  152.3857  131.1868 H   0  0  0  0  0  0  0  0  0  0  0  0
  148.9226  150.7721  134.7206 H   0  0  0  0  0  0  0  0  0  0  0  0
  150.6125  150.4734  134.1897 H   0  0  0  0  0  0  0  0  0  0  0  0
  149.9531  152.1443  134.1897 H   0  0  0  0  0  0  0  0  0  0  0  0
  151.2340  150.1279  132.2786 H   0  0  0  0  0  0  0  0  0  0  0  0
  150.0528  149.6157  131.0260 H   0  0  0  0  0  0  0  0  0  0  0  0
  150.6903  151.2950  131.0260 H   0  0  0  0  0  0  0  0  0  0  0  0
  147.8741  149.5361  133.5925 H   0  0  0  0  0  0  0  0  0  0  0  0
  147.2485  150.1808  132.0369 H   0  0  0  0  0  0  0  0  0  0  0  0
  148.5210  148.9129  132.0369 H   0  0  0  0  0  0  0  0  0  0  0  0
  146.8019  154.5350  134.6557 H   0  0  0  0  0  0  0  0  0  0  0  0
  145.7205  155.0663  133.3157 H   0  0  0  0  0  0  0  0  0  0  0  0
  145.2010  152.8976  135.4047 H   0  0  0  0  0  0  0  0  0  0  0  0
  144.2981  154.4473  135.1330 H   0  0  0  0  0  0  0  0  0  0  0  0
  142.1264  154.9563  134.2325 H   0  0  0  0  0  0  0  0  0  0  0  0
  1  2  1  0
  2  3  1  0
  2  4  1  0
  4  5  1  0
  5  6  2  0
  5  7  1  0
  7  8  1  0
  8  9  1  0
  9 10  1  0
  9 11  2  0
  8 12  2  0
 12 13  1  0
 13 14  2  0
 14 15  1  0
 15 16  2  0
 16 17  1  0
 17 18  1  0
 18 19  2  0
 18 20  1  0
 20 21  1  0
 21 22  1  0
 22 23  1  0
 23 24  1  0
 24 25  2  0
 24 26  1  0
 26 27  1  0
 27 28  1  0
 27 29  1  0
 27 30  1  0
 23 31  1  0
 31 32  1  0
 16 33  1  0
 33 34  2  0
 34  7  1  0
 34 13  1  0
 32 20  1  0
  1 35  1  0
  1 36  1  0
  1 37  1  0
  2 38  1  0
  3 39  1  0
  3 40  1  0
  3 41  1  0
 10 42  1  0
 12 43  1  0
 14 44  1  0
 15 45  1  0
 17 46  1  0
 17 47  1  0
 21 48  1  0
 21 49  1  0
 22 50  1  0
 22 51  1  0
 28 52  1  0
 28 53  1  0
 28 54  1  0
 29 55  1  0
 29 56  1  0
 29 57  1  0
 30 58  1  0
 30 59  1  0
 30 60  1  0
 31 61  1  0
 31 62  1  0
 32 63  1  0
 32 64  1  0
 33 65  1  0
M  CHG  1  10  -1
M  END
>  <UniqueID>  (13) 
13

>  <SMILES>  (13) 
CC(C)OC(=O)n1c(C([NH-])=O)cc2ccc(CC(=O)N3CCN(C(=O)OC(C)(C)C)CC3)cc21

>  <Energy>  (13) 
93.25254995391418

>  <Genealogy>  (13) 
CC(C)OC(=O)n1c(C([NH-])=O)cc2ccc(CC(=O)N3CCN(C(=O)OC(C)(C)C)CC3)cc21 (protonated)
CC(C)OC(=O)n1c(C([NH-])=O)cc2ccc(CC(=O)N3CCN(C(=O)OC(C)(C)C)CC3)cc21 (3D coordinates assigned)
CC(C)OC(=O)n1c(C([NH-])=O)cc2ccc(CC(=O)N3CCN(C(=O)OC(C)(C)C)CC3)cc21 (nonaromatic ring conformer: 93.25254995391418 kcal/mol)

>  <smiles>  (13) 
CC(C)OC(=O)n1c(C(N)=O)cc2ccc(CC(=O)N3CCN(C(=O)OC(C)(C)C)CC3)cc21

>  <score_type>  (13) 
oracle

>  <origin>  (13) 
adg

>  <m_score__min__energy>  (13) 
-8.6999999999999993

>  <m_primary>  (13) 
energy

$$$$
13:0
     RDKit          3D

 40 41  0  0  0  0  0  0  0  0999 V2000
  148.2430  156.1320  132.6610 C   0  0  0  0  0  0  0  0  0  0  0  0
  147.7860  156.8950  133.8280 N   0  0  0  0  0  0  0  0  0  0  0  0
  147.5330  156.1690  135.0840 C   0  0  0  0  0  0  0  0  0  0  0  0
  147.3950  154.6590  134.8490 C   0  0  0  0  0  0  0  0  0  0  0  0
  146.4700  154.0180  135.8370 C   0  0  0  0  0  0  0  0  0  0  0  0
  145.2530  154.3420  135.8690 O   0  0  0  0  0  0  0  0  0  0  0  0
  146.9540  153.0710  136.7290 O   0  0  0  0  0  0  0  0  0  0  0  0
  147.6850  158.3410  133.7940 C   0  0  0  0  0  0  0  0  0  0  0  0
  148.5000  159.0350  134.4610 O   0  0  0  0  0  0  0  0  0  0  0  0
  146.6600  159.0610  133.0010 C   0  0  0  0  0  0  0  0  0  0  0  0
  146.9870  159.7810  132.0200 O   0  0  0  0  0  0  0  0  0  0  0  0
  145.2700  158.9190  133.3330 N   0  0  0  0  0  0  0  0  0  0  0  0
  144.4070  159.8840  133.7600 C   0  0  0  0  0  0  0  0  0  0  0  0
  144.7040  161.3300  133.8610 C   0  0  0  0  0  0  0  0  0  0  0  0
  146.0380  161.7950  134.0470 N   0  0  0  0  0  0  0  0  0  0  0  0
  143.7700  162.1680  133.7500 O   0  0  0  0  0  0  0  0  0  0  0  0
  143.1580  159.3320  134.0370 C   0  0  0  0  0  0  0  0  0  0  0  0
  143.2830  157.9880  133.7630 C   0  0  0  0  0  0  0  0  0  0  0  0
  142.3520  156.9590  133.8640 C   0  0  0  0  0  0  0  0  0  0  0  0
  142.7680  155.6580  133.5310 C   0  0  0  0  0  0  0  0  0  0  0  0
  144.1040  155.4100  133.1260 C   0  0  0  0  0  0  0  0  0  0  0  0
  144.5370  154.0200  132.7520 C   0  0  0  0  0  0  0  0  0  0  0  0
  143.4980  153.0550  133.1250 C   0  0  0  0  0  0  0  0  0  0  0  0
  142.6760  152.2940  133.4190 N   0  0  0  0  0  0  0  0  0  0  0  0
  145.0190  156.4800  133.0310 C   0  0  0  0  0  0  0  0  0  0  0  0
  144.5700  157.7660  133.3460 C   0  0  0  0  0  0  0  0  0  0  0  0
  148.7810  155.2337  132.9980 H   0  0  0  0  0  0  0  0  0  0  0  0
  147.3748  155.8337  132.0550 H   0  0  0  0  0  0  0  0  0  0  0  0
  148.9158  156.7566  132.0550 H   0  0  0  0  0  0  0  0  0  0  0  0
  148.3711  156.3473  135.7738 H   0  0  0  0  0  0  0  0  0  0  0  0
  146.5876  156.5377  135.5086 H   0  0  0  0  0  0  0  0  0  0  0  0
  147.0022  154.4921  133.8352 H   0  0  0  0  0  0  0  0  0  0  0  0
  148.3893  154.2046  134.9712 H   0  0  0  0  0  0  0  0  0  0  0  0
  146.7830  161.5890  133.3430 H   0  0  0  0  0  0  0  0  0  0  0  0
  142.2620  159.8581  134.3980 H   0  0  0  0  0  0  0  0  0  0  0  0
  141.3217  157.1574  134.1944 H   0  0  0  0  0  0  0  0  0  0  0  0
  142.0510  154.8255  133.5851 H   0  0  0  0  0  0  0  0  0  0  0  0
  144.7072  153.9710  131.6664 H   0  0  0  0  0  0  0  0  0  0  0  0
  145.4668  153.7749  133.2862 H   0  0  0  0  0  0  0  0  0  0  0  0
  146.0589  156.3067  132.7171 H   0  0  0  0  0  0  0  0  0  0  0  0
  1  2  1  0
  2  3  1  0
  3  4  1  0
  4  5  1  0
  5  6  2  0
  5  7  1  0
  2  8  1  0
  8  9  2  0
  8 10  1  0
 10 11  2  0
 10 12  1  0
 12 13  1  0
 13 14  1  0
 14 15  1  0
 14 16  2  0
 13 17  2  0
 17 18  1  0
 18 19  2  0
 19 20  1  0
 20 21  2  0
 21 22  1  0
 22 23  1  0
 23 24  3  0
 21 25  1  0
 25 26  2  0
 26 12  1  0
 26 18  1  0
  1 27  1  0
  1 28  1  0
  1 29  1  0
  3 30  1  0
  3 31  1  0
  4 32  1  0
  4 33  1  0
 15 34  1  0
 17 35  1  0
 19 36  1  0
 20 37  1  0
 22 38  1  0
 22 39  1  0
 25 40  1  0
M  CHG  2   7  -1  15  -1
M  END
>  <UniqueID>  (14) 
14

>  <SMILES>  (14) 
CN(CCC(=O)[O-])C(=O)C(=O)n1c(C([NH-])=O)cc2ccc(CC#N)cc21

>  <Energy>  (14) 
74.95371028665004

>  <Genealogy>  (14) 
CN(CCC(=O)[O-])C(=O)C(=O)n1c(C([NH-])=O)cc2ccc(CC#N)cc21 (protonated)
CN(CCC(=O)[O-])C(=O)C(=O)n1c(C([NH-])=O)cc2ccc(CC#N)cc21 (3D coordinates assigned)
CN(CCC(=O)[O-])C(=O)C(=O)n1c(C([NH-])=O)cc2ccc(CC#N)cc21 (optimized conformer: 74.95371028665004 kcal/mol)

>  <smiles>  (14) 
CN(CCC(=O)O)C(=O)C(=O)n1c(C(N)=O)cc2ccc(CC#N)cc21

>  <score_type>  (14) 
oracle

>  <origin>  (14) 
adg

>  <m_score__min__energy>  (14) 
-7.5300000000000002

>  <m_primary>  (14) 
energy

$$$$
14:0
     RDKit          3D

 44 46  0  0  0  0  0  0  0  0999 V2000
  150.0520  151.4750  132.1650 C   0  0  0  0  0  0  0  0  0  0  0  0
  149.1930  152.3750  132.9890 C   0  0  0  0  0  0  0  0  0  0  0  0
  148.3890  153.3890  132.5040 C   0  0  0  0  0  0  0  0  0  0  0  0
  147.8500  153.9660  133.6380 C   0  0  0  0  0  0  0  0  0  0  0  0
  146.9100  155.1090  133.6460 C   0  0  0  0  0  0  0  0  0  0  0  0
  145.5120  154.8700  133.6370 C   0  0  0  0  0  0  0  0  0  0  0  0
  144.6010  155.9380  133.6460 C   0  0  0  0  0  0  0  0  0  0  0  0
  145.1130  157.2320  133.6830 C   0  0  0  0  0  0  0  0  0  0  0  0
  144.4600  158.4420  133.6780 C   0  0  0  0  0  0  0  0  0  0  0  0
  145.4660  159.4060  133.7260 C   0  0  0  0  0  0  0  0  0  0  0  0
  145.1990  160.8560  133.8240 C   0  0  0  0  0  0  0  0  0  0  0  0
  146.2490  161.7790  134.1010 N   0  0  0  0  0  0  0  0  0  0  0  0
  144.0180  161.2820  133.7090 O   0  0  0  0  0  0  0  0  0  0  0  0
  146.6940  158.8130  133.7510 N   0  0  0  0  0  0  0  0  0  0  0  0
  147.9810  159.4460  133.7150 C   0  0  0  0  0  0  0  0  0  0  0  0
  148.8570  159.1430  134.5710 O   0  0  0  0  0  0  0  0  0  0  0  0
  148.2500  160.4130  132.7390 O   0  0  0  0  0  0  0  0  0  0  0  0
  148.4530  160.1100  131.3600 C   0  0  0  0  0  0  0  0  0  0  0  0
  149.2070  158.7860  131.2160 C   0  0  0  0  0  0  0  0  0  0  0  0
  149.2430  161.2480  130.7160 C   0  0  0  0  0  0  0  0  0  0  0  0
  146.4590  157.4820  133.7260 C   0  0  0  0  0  0  0  0  0  0  0  0
  147.3900  156.4370  133.7000 C   0  0  0  0  0  0  0  0  0  0  0  0
  148.3520  153.3330  134.7250 N   0  0  0  0  0  0  0  0  0  0  0  0
  148.1030  153.6350  136.1310 C   0  0  0  0  0  0  0  0  0  0  0  0
  149.1670  152.3640  134.3350 N   0  0  0  0  0  0  0  0  0  0  0  0
  150.6585  150.8396  132.8272 H   0  0  0  0  0  0  0  0  0  0  0  0
  149.4157  150.8409  131.5302 H   0  0  0  0  0  0  0  0  0  0  0  0
  150.7151  152.0811  131.5302 H   0  0  0  0  0  0  0  0  0  0  0  0
  148.2174  153.6721  131.4550 H   0  0  0  0  0  0  0  0  0  0  0  0
  145.1373  153.8359  133.6228 H   0  0  0  0  0  0  0  0  0  0  0  0
  143.5160  155.7580  133.6245 H   0  0  0  0  0  0  0  0  0  0  0  0
  143.3740  158.6132  133.6434 H   0  0  0  0  0  0  0  0  0  0  0  0
  146.9560  162.0220  133.3720 H   0  0  0  0  0  0  0  0  0  0  0  0
  147.4814  160.0067  130.8547 H   0  0  0  0  0  0  0  0  0  0  0  0
  149.4359  158.3840  132.2140 H   0  0  0  0  0  0  0  0  0  0  0  0
  148.5830  158.0667  130.6653 H   0  0  0  0  0  0  0  0  0  0  0  0
  150.1440  158.9556  130.6653 H   0  0  0  0  0  0  0  0  0  0  0  0
  149.6819  161.8803  131.5019 H   0  0  0  0  0  0  0  0  0  0  0  0
  150.0457  160.8294  130.0912 H   0  0  0  0  0  0  0  0  0  0  0  0
  148.5702  161.8537  130.0912 H   0  0  0  0  0  0  0  0  0  0  0  0
  148.4700  156.6447  133.7211 H   0  0  0  0  0  0  0  0  0  0  0  0
  148.6760  152.9400  136.7624 H   0  0  0  0  0  0  0  0  0  0  0  0
  148.4156  154.6677  136.3452 H   0  0  0  0  0  0  0  0  0  0  0  0
  147.0297  153.5249  136.3452 H   0  0  0  0  0  0  0  0  0  0  0  0
  1  2  1  0
  2  3  1  0
  3  4  2  0
  4  5  1  0
  5  6  2  0
  6  7  1  0
  7  8  2  0
  8  9  1  0
  9 10  2  0
 10 11  1  0
 11 12  1  0
 11 13  2  0
 10 14  1  0
 14 15  1  0
 15 16  2  0
 15 17  1  0
 17 18  1  0
 18 19  1  0
 18 20  1  0
 14 21  1  0
 21 22  2  0
  4 23  1  0
 23 24  1  0
 23 25  1  0
 25  2  2  0
 22  5  1  0
 21  8  1  0
  1 26  1  0
  1 27  1  0
  1 28  1  0
  3 29  1  0
  6 30  1  0
  7 31  1  0
  9 32  1  0
 12 33  1  0
 18 34  1  0
 19 35  1  0
 19 36  1  0
 19 37  1  0
 20 38  1  0
 20 39  1  0
 20 40  1  0
 22 41  1  0
 24 42  1  0
 24 43  1  0
 24 44  1  0
M  CHG  1  12  -1
M  END
>  <UniqueID>  (15) 
15

>  <SMILES>  (15) 
Cc1cc(-c2ccc3cc(C([NH-])=O)n(C(=O)OC(C)C)c3c2)n(C)n1

>  <Energy>  (15) 
111.05659446037917

>  <Genealogy>  (15) 
Cc1cc(-c2ccc3cc(C([NH-])=O)n(C(=O)OC(C)C)c3c2)n(C)n1 (protonated)
Cc1cc(-c2ccc3cc(C([NH-])=O)n(C(=O)OC(C)C)c3c2)n(C)n1 (3D coordinates assigned)
Cc1cc(-c2ccc3cc(C([NH-])=O)n(C(=O)OC(C)C)c3c2)n(C)n1 (optimized conformer: 111.05659446037917 kcal/mol)

>  <smiles>  (15) 
Cc1cc(-c2ccc3cc(C(N)=O)n(C(=O)OC(C)C)c3c2)n(C)n1

>  <score_type>  (15) 
oracle

>  <origin>  (15) 
adg

>  <m_score__min__energy>  (15) 
-7.8899999999999997

>  <m_primary>  (15) 
energy

$$$$
15:0
     RDKit          3D

 40 41  0  0  0  0  0  0  0  0999 V2000
  141.0040  150.8210  133.1520 C   0  0  0  0  0  0  0  0  0  0  0  0
  142.3710  150.5900  132.6710 N   0  0  0  0  0  0  0  0  0  0  0  0
  142.7650  149.2510  132.2260 C   0  0  0  0  0  0  0  0  0  0  0  0
  143.3820  151.6190  132.7510 C   0  0  0  0  0  0  0  0  0  0  0  0
  144.5820  151.2750  132.9270 O   0  0  0  0  0  0  0  0  0  0  0  0
  143.0570  153.0680  132.6340 C   0  0  0  0  0  0  0  0  0  0  0  0
  141.8640  153.4550  132.7500 O   0  0  0  0  0  0  0  0  0  0  0  0
  144.1100  154.0850  132.4020 C   0  0  0  0  0  0  0  0  0  0  0  0
  144.3630  154.4700  131.1770 C   0  0  0  0  0  0  0  0  0  0  0  0
  144.6050  154.8340  130.0190 O   0  0  0  0  0  0  0  0  0  0  0  0
  144.9830  154.5670  133.4940 C   0  0  0  0  0  0  0  0  0  0  0  0
  144.7940  154.1590  134.6730 O   0  0  0  0  0  0  0  0  0  0  0  0
  146.0770  155.4620  133.2250 N   0  0  0  0  0  0  0  0  0  0  0  0
  147.3830  155.1330  133.0250 C   0  0  0  0  0  0  0  0  0  0  0  0
  147.9190  153.7630  132.8950 C   0  0  0  0  0  0  0  0  0  0  0  0
  147.1770  152.6290  133.3470 N   0  0  0  0  0  0  0  0  0  0  0  0
  149.0340  153.5870  132.3360 O   0  0  0  0  0  0  0  0  0  0  0  0
  148.1680  156.2800  132.9410 C   0  0  0  0  0  0  0  0  0  0  0  0
  147.2940  157.3320  133.0950 C   0  0  0  0  0  0  0  0  0  0  0  0
  147.5340  158.7020  133.1110 C   0  0  0  0  0  0  0  0  0  0  0  0
  146.4450  159.5590  133.3320 C   0  0  0  0  0  0  0  0  0  0  0  0
  145.1460  159.0370  133.5700 C   0  0  0  0  0  0  0  0  0  0  0  0
  143.9750  159.9630  133.7830 C   0  0  0  0  0  0  0  0  0  0  0  0
  142.9100  159.5340  133.0150 F   0  0  0  0  0  0  0  0  0  0  0  0
  143.5980  159.9690  135.1150 F   0  0  0  0  0  0  0  0  0  0  0  0
  144.3000  161.2590  133.4190 F   0  0  0  0  0  0  0  0  0  0  0  0
  144.9410  157.6390  133.5280 C   0  0  0  0  0  0  0  0  0  0  0  0
  146.0390  156.8110  133.2740 C   0  0  0  0  0  0  0  0  0  0  0  0
  140.9976  150.8221  134.2520 H   0  0  0  0  0  0  0  0  0  0  0  0
  140.6445  151.7926  132.7823 H   0  0  0  0  0  0  0  0  0  0  0  0
  140.3452  150.0214  132.7823 H   0  0  0  0  0  0  0  0  0  0  0  0
  142.9525  148.6137  133.1027 H   0  0  0  0  0  0  0  0  0  0  0  0
  141.9575  148.8135  131.6206 H   0  0  0  0  0  0  0  0  0  0  0  0
  143.6808  149.3205  131.6206 H   0  0  0  0  0  0  0  0  0  0  0  0
  147.6010  151.6750  133.3020 H   0  0  0  0  0  0  0  0  0  0  0  0
  146.1770  152.7130  133.6300 H   0  0  0  0  0  0  0  0  0  0  0  0
  149.2555  156.3339  132.7848 H   0  0  0  0  0  0  0  0  0  0  0  0
  148.5469  159.1016  132.9551 H   0  0  0  0  0  0  0  0  0  0  0  0
  146.5994  160.6481  133.3207 H   0  0  0  0  0  0  0  0  0  0  0  0
  143.9405  157.2121  133.6914 H   0  0  0  0  0  0  0  0  0  0  0  0
  1  2  1  0
  2  3  1  0
  2  4  1  0
  4  5  2  0
  4  6  1  0
  6  7  2  0
  6  8  1  0
  8  9  2  0
  9 10  2  0
  8 11  1  0
 11 12  2  0
 11 13  1  0
 13 14  1  0
 14 15  1  0
 15 16  1  0
 15 17  2  0
 14 18  2  0
 18 19  1  0
 19 20  2  0
 20 21  1  0
 21 22  2  0
 22 23  1  0
 23 24  1  0
 23 25  1  0
 23 26  1  0
 22 27  1  0
 27 28  2  0
 28 13  1  0
 28 19  1  0
  1 29  1  0
  1 30  1  0
  1 31  1  0
  3 32  1  0
  3 33  1  0
  3 34  1  0
 16 35  1  0
 16 36  1  0
 18 37  1  0
 20 38  1  0
 21 39  1  0
 27 40  1  0
M  END
>  <UniqueID>  (16) 
16

>  <SMILES>  (16) 
CN(C)C(=O)C(=O)C(=C=O)C(=O)n1c(C(N)=O)cc2ccc(C(F)(F)F)cc21

>  <Energy>  (16) 
85.357504772066

>  <Genealogy>  (16) 
CN(C)C(=O)C(=O)C(=C=O)C(=O)n1c(C(N)=O)cc2ccc(C(F)(F)F)cc21 (3D coordinates assigned)
CN(C)C(=O)C(=O)C(=C=O)C(=O)n1c(C(N)=O)cc2ccc(C(F)(F)F)cc21 (optimized conformer: 85.357504772066 kcal/mol)

>  <smiles>  (16) 
CN(C)C(=O)C(=O)C(=C=O)C(=O)n1c(C(N)=O)cc2ccc(C(F)(F)F)cc21

>  <score_type>  (16) 
oracle

>  <origin>  (16) 
adg

>  <m_score__min__energy>  (16) 
-7.21

>  <m_primary>  (16) 
energy

$$$$
16:0
     RDKit          3D

 32 33  0  0  0  0  0  0  0  0999 V2000
  140.8870  159.1820  134.5260 N   0  0  0  0  0  0  0  0  0  0  0  0
  140.4730  158.2050  135.4750 C   0  0  0  0  0  0  0  0  0  0  0  0
  139.2970  158.2310  135.9290 O   0  0  0  0  0  0  0  0  0  0  0  0
  141.3790  157.2260  135.8900 O   0  0  0  0  0  0  0  0  0  0  0  0
  142.4470  156.7630  135.0700 C   0  0  0  0  0  0  0  0  0  0  0  0
  143.3970  157.8080  134.8860 O   0  0  0  0  0  0  0  0  0  0  0  0
  143.7840  158.2650  133.6240 C   0  0  0  0  0  0  0  0  0  0  0  0
  143.0130  158.1280  132.6350 O   0  0  0  0  0  0  0  0  0  0  0  0
  145.0550  158.9150  133.4590 N   0  0  0  0  0  0  0  0  0  0  0  0
  145.3390  160.2430  133.5750 C   0  0  0  0  0  0  0  0  0  0  0  0
  144.3550  161.3300  133.7650 C   0  0  0  0  0  0  0  0  0  0  0  0
  142.9610  161.0380  133.7230 N   0  0  0  0  0  0  0  0  0  0  0  0
  144.7320  162.5080  134.0020 O   0  0  0  0  0  0  0  0  0  0  0  0
  146.7040  160.4670  133.4030 C   0  0  0  0  0  0  0  0  0  0  0  0
  147.2500  159.2270  133.1670 C   0  0  0  0  0  0  0  0  0  0  0  0
  148.5730  158.8620  132.9350 C   0  0  0  0  0  0  0  0  0  0  0  0
  148.8580  157.4990  132.7470 C   0  0  0  0  0  0  0  0  0  0  0  0
  147.8220  156.5320  132.7990 C   0  0  0  0  0  0  0  0  0  0  0  0
  148.1320  155.0740  132.6150 C   0  0  0  0  0  0  0  0  0  0  0  0
  149.4950  154.9040  132.4580 F   0  0  0  0  0  0  0  0  0  0  0  0
  147.7070  154.3630  133.7230 F   0  0  0  0  0  0  0  0  0  0  0  0
  146.4910  156.9410  133.0400 C   0  0  0  0  0  0  0  0  0  0  0  0
  146.2350  158.3060  133.2050 C   0  0  0  0  0  0  0  0  0  0  0  0
  141.8570  159.1760  134.1390 H   0  0  0  0  0  0  0  0  0  0  0  0
  142.9358  155.9055  135.5555 H   0  0  0  0  0  0  0  0  0  0  0  0
  142.0490  156.4553  134.0918 H   0  0  0  0  0  0  0  0  0  0  0  0
  142.6210  160.0710  133.5260 H   0  0  0  0  0  0  0  0  0  0  0  0
  147.2323  161.4308  133.4467 H   0  0  0  0  0  0  0  0  0  0  0  0
  149.3714  159.6178  132.8999 H   0  0  0  0  0  0  0  0  0  0  0  0
  149.8934  157.1793  132.5579 H   0  0  0  0  0  0  0  0  0  0  0  0
  147.6100  154.7050  131.7198 H   0  0  0  0  0  0  0  0  0  0  0  0
  145.6764  156.2040  133.0964 H   0  0  0  0  0  0  0  0  0  0  0  0
  1  2  1  0
  2  3  2  0
  2  4  1  0
  4  5  1  0
  5  6  1  0
  6  7  1  0
  7  8  2  0
  7  9  1  0
  9 10  1  0
 10 11  1  0
 11 12  1  0
 11 13  2  0
 10 14  2  0
 14 15  1  0
 15 16  2  0
 16 17  1  0
 17 18  2  0
 18 19  1  0
 19 20  1  0
 19 21  1  0
 18 22  1  0
 22 23  2  0
 23  9  1  0
 23 15  1  0
  1 24  1  0
  5 25  1  0
  5 26  1  0
 12 27  1  0
 14 28  1  0
 16 29  1  0
 17 30  1  0
 19 31  1  0
 22 32  1  0
M  CHG  2   1  -1  12  -1
M  END
>  <UniqueID>  (17) 
17

>  <SMILES>  (17) 
[NH-]C(=O)OCOC(=O)n1c(C([NH-])=O)cc2ccc(C(F)F)cc21

>  <Energy>  (17) 
66.46943645260654

>  <Genealogy>  (17) 
[NH-]C(=O)OCOC(=O)n1c(C([NH-])=O)cc2ccc(C(F)F)cc21 (protonated)
[NH-]C(=O)OCOC(=O)n1c(C([NH-])=O)cc2ccc(C(F)F)cc21 (3D coordinates assigned)
[NH-]C(=O)OCOC(=O)n1c(C([NH-])=O)cc2ccc(C(F)F)cc21 (optimized conformer: 66.46943645260654 kcal/mol)

>  <smiles>  (17) 
NC(=O)OCOC(=O)n1c(C(N)=O)cc2ccc(C(F)F)cc21

>  <score_type>  (17) 
oracle

>  <origin>  (17) 
adg

>  <m_score__min__energy>  (17) 
-4.9400000000000004

>  <m_primary>  (17) 
energy

$$$$
17:0
     RDKit          3D

 35 36  0  0  0  0  0  0  0  0999 V2000
  144.7390  152.8860  132.6090 C   0  0  0  0  0  0  0  0  0  0  0  0
  145.1210  154.1780  132.0160 N   0  0  0  0  0  0  0  0  0  0  0  0
  144.3680  154.4500  130.7820 C   0  0  0  0  0  0  0  0  0  0  0  0
  144.9860  155.2620  132.9700 C   0  0  0  0  0  0  0  0  0  0  0  0
  143.8840  155.8700  133.0490 O   0  0  0  0  0  0  0  0  0  0  0  0
  146.0850  155.6840  133.8740 C   0  0  0  0  0  0  0  0  0  0  0  0
  146.0810  155.3570  135.0910 O   0  0  0  0  0  0  0  0  0  0  0  0
  147.1680  156.4780  133.3690 N   0  0  0  0  0  0  0  0  0  0  0  0
  148.3190  156.0430  132.7850 C   0  0  0  0  0  0  0  0  0  0  0  0
  148.7460  154.6330  132.6600 C   0  0  0  0  0  0  0  0  0  0  0  0
  147.7970  153.5710  132.6910 N   0  0  0  0  0  0  0  0  0  0  0  0
  149.9720  154.3600  132.5520 O   0  0  0  0  0  0  0  0  0  0  0  0
  149.0860  157.1260  132.3550 C   0  0  0  0  0  0  0  0  0  0  0  0
  148.3580  158.2470  132.6940 C   0  0  0  0  0  0  0  0  0  0  0  0
  148.6390  159.5940  132.4930 C   0  0  0  0  0  0  0  0  0  0  0  0
  147.6900  160.5360  132.9250 C   0  0  0  0  0  0  0  0  0  0  0  0
  146.4780  160.1150  133.5260 C   0  0  0  0  0  0  0  0  0  0  0  0
  145.4850  161.1310  134.0080 C   0  0  0  0  0  0  0  0  0  0  0  0
  144.2040  160.6860  133.7410 F   0  0  0  0  0  0  0  0  0  0  0  0
  146.2320  158.7390  133.7260 C   0  0  0  0  0  0  0  0  0  0  0  0
  147.2040  157.8270  133.3010 C   0  0  0  0  0  0  0  0  0  0  0  0
  144.7623  152.9648  133.7059 H   0  0  0  0  0  0  0  0  0  0  0  0
  143.7233  152.6185  132.2821 H   0  0  0  0  0  0  0  0  0  0  0  0
  145.4459  152.1092  132.2821 H   0  0  0  0  0  0  0  0  0  0  0  0
  146.1320  154.1030  131.7490 H   0  0  0  0  0  0  0  0  0  0  0  0
  143.3620  154.8134  131.0389 H   0  0  0  0  0  0  0  0  0  0  0  0
  144.8946  155.2147  130.1922 H   0  0  0  0  0  0  0  0  0  0  0  0
  144.2843  153.5253  130.1922 H   0  0  0  0  0  0  0  0  0  0  0  0
  147.2250  153.3370  131.8500 H   0  0  0  0  0  0  0  0  0  0  0  0
  150.0638  157.0928  131.8523 H   0  0  0  0  0  0  0  0  0  0  0  0
  149.5751  159.9122  132.0108 H   0  0  0  0  0  0  0  0  0  0  0  0
  147.8899  161.6099  132.7954 H   0  0  0  0  0  0  0  0  0  0  0  0
  145.6046  161.2751  135.0919 H   0  0  0  0  0  0  0  0  0  0  0  0
  145.6568  162.0860  133.4900 H   0  0  0  0  0  0  0  0  0  0  0  0
  145.3025  158.3940  134.2024 H   0  0  0  0  0  0  0  0  0  0  0  0
  1  2  1  0
  2  3  1  0
  2  4  1  0
  4  5  2  0
  4  6  1  0
  6  7  2  0
  6  8  1  0
  8  9  1  0
  9 10  1  0
 10 11  1  0
 10 12  2  0
  9 13  2  0
 13 14  1  0
 14 15  2  0
 15 16  1  0
 16 17  2  0
 17 18  1  0
 18 19  1  0
 17 20  1  0
 20 21  2  0
 21  8  1  0
 21 14  1  0
  1 22  1  0
  1 23  1  0
  1 24  1  0
  2 25  1  0
  3 26  1  0
  3 27  1  0
  3 28  1  0
 11 29  1  0
 13 30  1  0
 15 31  1  0
 16 32  1  0
 18 33  1  0
 18 34  1  0
 20 35  1  0
M  CHG  2   2   1  11  -1
M  END
>  <UniqueID>  (18) 
18

>  <SMILES>  (18) 
C[NH+](C)C(=O)C(=O)n1c(C([NH-])=O)cc2ccc(CF)cc21

>  <Energy>  (18) 
76.41954967175319

>  <Genealogy>  (18) 
C[NH+](C)C(=O)C(=O)n1c(C([NH-])=O)cc2ccc(CF)cc21 (protonated)
C[NH+](C)C(=O)C(=O)n1c(C([NH-])=O)cc2ccc(CF)cc21 (3D coordinates assigned)
C[NH+](C)C(=O)C(=O)n1c(C([NH-])=O)cc2ccc(CF)cc21 (optimized conformer: 76.41954967175319 kcal/mol)

>  <smiles>  (18) 
CN(C)C(=O)C(=O)n1c(C(N)=O)cc2ccc(CF)cc21

>  <score_type>  (18) 
oracle

>  <origin>  (18) 
adg

>  <m_score__min__energy>  (18) 
-5.3300000000000001

>  <m_primary>  (18) 
energy

$$$$
18:0
     RDKit          3D

 46 47  0  0  0  0  0  0  0  0999 V2000
  143.7940  160.1900  133.9760 C   0  0  0  0  0  0  0  0  0  0  0  0
  143.0340  158.9660  133.7100 N   0  0  0  0  0  0  0  0  0  0  0  0
  141.7340  158.7980  134.3070 C   0  0  0  0  0  0  0  0  0  0  0  0
  141.2790  159.6940  135.0720 O   0  0  0  0  0  0  0  0  0  0  0  0
  140.9940  157.6290  134.0660 O   0  0  0  0  0  0  0  0  0  0  0  0
  139.7470  157.5480  133.3540 C   0  0  0  0  0  0  0  0  0  0  0  0
  139.7440  158.4760  132.1200 C   0  0  0  0  0  0  0  0  0  0  0  0
  138.5880  157.9130  134.3000 C   0  0  0  0  0  0  0  0  0  0  0  0
  139.5660  156.0830  132.8950 C   0  0  0  0  0  0  0  0  0  0  0  0
  140.7760  155.3770  132.9350 O   0  0  0  0  0  0  0  0  0  0  0  0
  143.7050  157.8490  133.0980 C   0  0  0  0  0  0  0  0  0  0  0  0
  143.1960  157.2880  132.0880 O   0  0  0  0  0  0  0  0  0  0  0  0
  144.9500  157.3590  133.6170 N   0  0  0  0  0  0  0  0  0  0  0  0
  145.1490  156.2900  134.4370 C   0  0  0  0  0  0  0  0  0  0  0  0
  144.0860  155.3900  134.9400 C   0  0  0  0  0  0  0  0  0  0  0  0
  142.7490  155.4860  134.4440 N   0  0  0  0  0  0  0  0  0  0  0  0
  144.3510  154.5310  135.8220 O   0  0  0  0  0  0  0  0  0  0  0  0
  146.5100  156.1350  134.7070 C   0  0  0  0  0  0  0  0  0  0  0  0
  147.1340  157.1610  134.0320 C   0  0  0  0  0  0  0  0  0  0  0  0
  148.4810  157.5090  133.9740 C   0  0  0  0  0  0  0  0  0  0  0  0
  148.8350  158.6460  133.2270 C   0  0  0  0  0  0  0  0  0  0  0  0
  147.8440  159.4140  132.5670 C   0  0  0  0  0  0  0  0  0  0  0  0
  148.2370  160.6110  131.7520 C   0  0  0  0  0  0  0  0  0  0  0  0
  148.9880  160.0780  130.2280 Cl  0  0  0  0  0  0  0  0  0  0  0  0
  146.4890  159.0210  132.6360 C   0  0  0  0  0  0  0  0  0  0  0  0
  146.1700  157.8810  133.3790 C   0  0  0  0  0  0  0  0  0  0  0  0
  143.8849  160.3364  135.0624 H   0  0  0  0  0  0  0  0  0  0  0  0
  144.7969  160.1025  133.5326 H   0  0  0  0  0  0  0  0  0  0  0  0
  143.2709  161.0501  133.5326 H   0  0  0  0  0  0  0  0  0  0  0  0
  139.7406  159.5252  132.4503 H   0  0  0  0  0  0  0  0  0  0  0  0
  140.6428  158.2848  131.5153 H   0  0  0  0  0  0  0  0  0  0  0  0
  138.8465  158.2790  131.5153 H   0  0  0  0  0  0  0  0  0  0  0  0
  138.9197  157.8085  135.3436 H   0  0  0  0  0  0  0  0  0  0  0  0
  138.2780  158.9523  134.1161 H   0  0  0  0  0  0  0  0  0  0  0  0
  137.7384  157.2389  134.1161 H   0  0  0  0  0  0  0  0  0  0  0  0
  138.8416  155.5879  133.5584 H   0  0  0  0  0  0  0  0  0  0  0  0
  139.2057  156.0899  131.8557 H   0  0  0  0  0  0  0  0  0  0  0  0
  141.4810  155.9970  132.6190 H   0  0  0  0  0  0  0  0  0  0  0  0
  141.9990  154.8750  134.8400 H   0  0  0  0  0  0  0  0  0  0  0  0
  142.4980  156.1380  133.6700 H   0  0  0  0  0  0  0  0  0  0  0  0
  146.9832  155.3590  135.3266 H   0  0  0  0  0  0  0  0  0  0  0  0
  149.2440  156.9130  134.4962 H   0  0  0  0  0  0  0  0  0  0  0  0
  149.8918  158.9424  133.1542 H   0  0  0  0  0  0  0  0  0  0  0  0
  147.3426  161.2112  131.5287 H   0  0  0  0  0  0  0  0  0  0  0  0
  148.9567  161.2186  132.3202 H   0  0  0  0  0  0  0  0  0  0  0  0
  145.7066  159.5962  132.1193 H   0  0  0  0  0  0  0  0  0  0  0  0
  1  2  1  0
  2  3  1  0
  3  4  2  0
  3  5  1  0
  5  6  1  0
  6  7  1  0
  6  8  1  0
  6  9  1  0
  9 10  1  0
  2 11  1  0
 11 12  2  0
 11 13  1  0
 13 14  1  0
 14 15  1  0
 15 16  1  0
 15 17  2  0
 14 18  2  0
 18 19  1  0
 19 20  2  0
 20 21  1  0
 21 22  2  0
 22 23  1  0
 23 24  1  0
 22 25  1  0
 25 26  2  0
 26 13  1  0
 26 19  1  0
  1 27  1  0
  1 28  1  0
  1 29  1  0
  7 30  1  0
  7 31  1  0
  7 32  1  0
  8 33  1  0
  8 34  1  0
  8 35  1  0
  9 36  1  0
  9 37  1  0
 10 38  1  0
 16 39  1  0
 16 40  1  0
 18 41  1  0
 20 42  1  0
 21 43  1  0
 23 44  1  0
 23 45  1  0
 25 46  1  0
M  END
>  <UniqueID>  (19) 
19

>  <SMILES>  (19) 
CN(C(=O)OC(C)(C)CO)C(=O)n1c(C(N)=O)cc2ccc(CCl)cc21

>  <Energy>  (19) 
79.87296663358944

>  <Genealogy>  (19) 
CN(C(=O)OC(C)(C)CO)C(=O)n1c(C(N)=O)cc2ccc(CCl)cc21 (3D coordinates assigned)
CN(C(=O)OC(C)(C)CO)C(=O)n1c(C(N)=O)cc2ccc(CCl)cc21 (optimized conformer: 79.87296663358944 kcal/mol)

>  <smiles>  (19) 
CN(C(=O)OC(C)(C)CO)C(=O)n1c(C(N)=O)cc2ccc(CCl)cc21

>  <score_type>  (19) 
oracle

>  <origin>  (19) 
adg

>  <m_score__min__energy>  (19) 
-7.4199999999999999

>  <m_primary>  (19) 
energy

$$$$
19:0
     RDKit          3D

 65 67  0  0  0  0  0  0  0  0999 V2000
  146.7020  158.5610  133.5120 C   0  0  0  0  0  0  0  0  0  0  0  0
  146.5830  157.0740  133.8960 C   0  0  0  0  0  0  0  0  0  0  0  0
  146.6520  156.2240  132.6180 C   0  0  0  0  0  0  0  0  0  0  0  0
  147.7340  156.6600  134.8320 C   0  0  0  0  0  0  0  0  0  0  0  0
  145.3130  156.8110  134.5110 O   0  0  0  0  0  0  0  0  0  0  0  0
  144.0480  157.0460  133.9470 C   0  0  0  0  0  0  0  0  0  0  0  0
  143.6230  156.3370  132.9930 O   0  0  0  0  0  0  0  0  0  0  0  0
  143.2200  158.0950  134.4910 N   0  0  0  0  0  0  0  0  0  0  0  0
  143.0040  159.1850  133.5020 C   0  0  0  0  0  0  0  0  0  0  0  0
  141.6030  159.1350  132.8740 C   0  0  0  0  0  0  0  0  0  0  0  0
  140.5420  159.2590  133.9060 N   0  0  0  0  0  0  0  0  0  0  0  0
  139.2360  158.7950  133.3930 C   0  0  0  0  0  0  0  0  0  0  0  0
  139.2260  157.3350  133.2490 C   0  0  0  0  0  0  0  0  0  0  0  0
  139.2330  156.1340  133.1350 C   0  0  0  0  0  0  0  0  0  0  0  0
  139.2620  154.6810  132.9810 C   0  0  0  0  0  0  0  0  0  0  0  0
  140.5520  154.2930  132.5250 O   0  0  0  0  0  0  0  0  0  0  0  0
  141.5570  153.8390  133.3830 C   0  0  0  0  0  0  0  0  0  0  0  0
  141.8360  154.4830  134.4310 O   0  0  0  0  0  0  0  0  0  0  0  0
  142.2820  152.6410  133.0580 N   0  0  0  0  0  0  0  0  0  0  0  0
  143.6090  152.3940  133.2520 C   0  0  0  0  0  0  0  0  0  0  0  0
  144.6230  153.3790  133.6850 C   0  0  0  0  0  0  0  0  0  0  0  0
  144.4070  154.2000  134.8300 N   0  0  0  0  0  0  0  0  0  0  0  0
  145.6700  153.5360  133.0010 O   0  0  0  0  0  0  0  0  0  0  0  0
  143.9170  151.0780  132.9150 C   0  0  0  0  0  0  0  0  0  0  0  0
  142.7320  150.5220  132.4970 C   0  0  0  0  0  0  0  0  0  0  0  0
  142.4560  149.2260  132.0720 C   0  0  0  0  0  0  0  0  0  0  0  0
  141.1280  148.9100  131.7440 C   0  0  0  0  0  0  0  0  0  0  0  0
  140.1070  149.8880  131.8430 C   0  0  0  0  0  0  0  0  0  0  0  0
  138.6800  149.5240  131.5370 C   0  0  0  0  0  0  0  0  0  0  0  0
  138.6210  148.6060  130.3570 C   0  0  0  0  0  0  0  0  0  0  0  0
  138.4540  149.0730  129.1980 O   0  0  0  0  0  0  0  0  0  0  0  0
  138.7730  147.2350  130.5320 O   0  0  0  0  0  0  0  0  0  0  0  0
  140.4230  151.1910  132.2880 C   0  0  0  0  0  0  0  0  0  0  0  0
  141.7580  151.4830  132.5930 C   0  0  0  0  0  0  0  0  0  0  0  0
  140.8890  158.5980  135.1920 C   0  0  0  0  0  0  0  0  0  0  0  0
  141.9650  157.5160  135.0230 C   0  0  0  0  0  0  0  0  0  0  0  0
  146.7509  159.1727  134.4249 H   0  0  0  0  0  0  0  0  0  0  0  0
  147.6153  158.7145  132.9184 H   0  0  0  0  0  0  0  0  0  0  0  0
  145.8247  158.8578  132.9184 H   0  0  0  0  0  0  0  0  0  0  0  0
  146.7383  155.1613  132.8887 H   0  0  0  0  0  0  0  0  0  0  0  0
  145.7384  156.3784  132.0252 H   0  0  0  0  0  0  0  0  0  0  0  0
  147.5288  156.5237  132.0252 H   0  0  0  0  0  0  0  0  0  0  0  0
  147.4149  156.7748  135.8784 H   0  0  0  0  0  0  0  0  0  0  0  0
  148.0005  155.6097  134.6430 H   0  0  0  0  0  0  0  0  0  0  0  0
  148.6085  157.2999  134.6430 H   0  0  0  0  0  0  0  0  0  0  0  0
  143.7400  158.5110  135.3010 H   0  0  0  0  0  0  0  0  0  0  0  0
  143.1295  160.1528  134.0095 H   0  0  0  0  0  0  0  0  0  0  0  0
  143.7391  159.0560  132.6940 H   0  0  0  0  0  0  0  0  0  0  0  0
  141.5027  159.9626  132.1563 H   0  0  0  0  0  0  0  0  0  0  0  0
  141.4839  158.1646  132.3698 H   0  0  0  0  0  0  0  0  0  0  0  0
  138.4446  159.0942  134.0960 H   0  0  0  0  0  0  0  0  0  0  0  0
  139.0611  159.2495  132.4067 H   0  0  0  0  0  0  0  0  0  0  0  0
  139.0530  154.2026  133.9492 H   0  0  0  0  0  0  0  0  0  0  0  0
  138.4990  154.3675  132.2533 H   0  0  0  0  0  0  0  0  0  0  0  0
  143.9170  155.1190  134.7460 H   0  0  0  0  0  0  0  0  0  0  0  0
  144.9002  150.5879  132.9715 H   0  0  0  0  0  0  0  0  0  0  0  0
  143.2537  148.4724  131.9954 H   0  0  0  0  0  0  0  0  0  0  0  0
  140.8775  147.8934  131.4069 H   0  0  0  0  0  0  0  0  0  0  0  0
  138.2382  149.0217  132.4102 H   0  0  0  0  0  0  0  0  0  0  0  0
  138.1180  150.4409  131.3060 H   0  0  0  0  0  0  0  0  0  0  0  0
  139.6402  151.9567  132.3922 H   0  0  0  0  0  0  0  0  0  0  0  0
  141.2618  159.3605  135.8917 H   0  0  0  0  0  0  0  0  0  0  0  0
  139.9801  158.1100  135.5739 H   0  0  0  0  0  0  0  0  0  0  0  0
  142.1678  157.0544  136.0006 H   0  0  0  0  0  0  0  0  0  0  0  0
  141.5965  156.7631  134.3107 H   0  0  0  0  0  0  0  0  0  0  0  0
  1  2  1  0
  2  3  1  0
  2  4  1  0
  2  5  1  0
  5  6  1  0
  6  7  2  0
  6  8  1  0
  8  9  1  0
  9 10  1  0
 10 11  1  0
 11 12  1  0
 12 13  1  0
 13 14  3  0
 14 15  1  0
 15 16  1  0
 16 17  1  0
 17 18  2  0
 17 19  1  0
 19 20  1  0
 20 21  1  0
 21 22  1  0
 21 23  2  0
 20 24  2  0
 24 25  1  0
 25 26  2  0
 26 27  1  0
 27 28  2  0
 28 29  1  0
 29 30  1  0
 30 31  2  0
 30 32  1  0
 28 33  1  0
 33 34  2  0
 11 35  1  0
 35 36  1  0
 36  8  1  0
 34 19  1  0
 34 25  1  0
  1 37  1  0
  1 38  1  0
  1 39  1  0
  3 40  1  0
  3 41  1  0
  3 42  1  0
  4 43  1  0
  4 44  1  0
  4 45  1  0
  8 46  1  0
  9 47  1  0
  9 48  1  0
 10 49  1  0
 10 50  1  0
 12 51  1  0
 12 52  1  0
 15 53  1  0
 15 54  1  0
 22 55  1  0
 24 56  1  0
 26 57  1  0
 27 58  1  0
 29 59  1  0
 29 60  1  0
 33 61  1  0
 35 62  1  0
 35 63  1  0
 36 64  1  0
 36 65  1  0
M  CHG  3   8   1  22  -1  32  -1
M  END
>  <UniqueID>  (20) 
20

>  <SMILES>  (20) 
CC(C)(C)OC(=O)[NH+]1CCN(CC#CCOC(=O)n2c(C([NH-])=O)cc3ccc(CC(=O)[O-])cc32)CC1

>  <Energy>  (20) 
105.74009646190277

>  <Genealogy>  (20) 
CC(C)(C)OC(=O)[NH+]1CCN(CC#CCOC(=O)n2c(C([NH-])=O)cc3ccc(CC(=O)[O-])cc32)CC1 (protonated)
CC(C)(C)OC(=O)[NH+]1CCN(CC#CCOC(=O)n2c(C([NH-])=O)cc3ccc(CC(=O)[O-])cc32)CC1 (3D coordinates assigned)
CC(C)(C)OC(=O)[NH+]1CCN(CC#CCOC(=O)n2c(C([NH-])=O)cc3ccc(CC(=O)[O-])cc32)CC1 (nonaromatic ring conformer: 105.74009646190277 kcal/mol)

>  <smiles>  (20) 
CC(C)(C)OC(=O)N1CCN(CC#CCOC(=O)n2c(C(N)=O)cc3ccc(CC(=O)O)cc32)CC1

>  <score_type>  (20) 
oracle

>  <origin>  (20) 
adg

>  <m_score__min__energy>  (20) 
-8.75

>  <m_primary>  (20) 
energy

$$$$
20:0
     RDKit          3D

 38 40  0  0  0  0  0  0  0  0999 V2000
  146.1470  162.9490  134.8300 N   0  0  0  0  0  0  0  0  0  0  0  0
  145.0020  162.5090  134.1040 C   0  0  0  0  0  0  0  0  0  0  0  0
  144.2230  163.3610  133.6020 O   0  0  0  0  0  0  0  0  0  0  0  0
  144.7210  161.0630  133.9810 C   0  0  0  0  0  0  0  0  0  0  0  0
  143.4800  160.4930  134.2560 C   0  0  0  0  0  0  0  0  0  0  0  0
  143.6080  159.1620  133.9300 C   0  0  0  0  0  0  0  0  0  0  0  0
  142.6810  158.1280  133.9990 C   0  0  0  0  0  0  0  0  0  0  0  0
  143.0990  156.8430  133.6120 C   0  0  0  0  0  0  0  0  0  0  0  0
  144.4290  156.6120  133.1830 C   0  0  0  0  0  0  0  0  0  0  0  0
  144.8300  155.2450  132.7860 C   0  0  0  0  0  0  0  0  0  0  0  0
  143.9710  154.2730  132.5730 O   0  0  0  0  0  0  0  0  0  0  0  0
  144.6560  153.2010  132.2410 C   0  0  0  0  0  0  0  0  0  0  0  0
  145.9800  153.4390  132.2350 N   0  0  0  0  0  0  0  0  0  0  0  0
  146.1050  154.7300  132.5910 C   0  0  0  0  0  0  0  0  0  0  0  0
  147.4250  155.4140  132.7730 C   0  0  0  0  0  0  0  0  0  0  0  0
  148.4390  154.6220  132.2260 O   0  0  0  0  0  0  0  0  0  0  0  0
  145.3340  157.6940  133.1030 C   0  0  0  0  0  0  0  0  0  0  0  0
  144.8870  158.9630  133.4830 C   0  0  0  0  0  0  0  0  0  0  0  0
  145.5880  160.1170  133.5190 N   0  0  0  0  0  0  0  0  0  0  0  0
  146.9710  160.2760  133.1570 C   0  0  0  0  0  0  0  0  0  0  0  0
  147.8170  160.5300  134.0570 O   0  0  0  0  0  0  0  0  0  0  0  0
  147.4510  160.0970  131.7710 C   0  0  0  0  0  0  0  0  0  0  0  0
  148.5210  159.3800  131.3980 C   0  0  0  0  0  0  0  0  0  0  0  0
  149.3100  158.5190  132.2900 C   0  0  0  0  0  0  0  0  0  0  0  0
  149.6200  157.3560  131.9210 O   0  0  0  0  0  0  0  0  0  0  0  0
  147.0400  162.4100  134.8020 H   0  0  0  0  0  0  0  0  0  0  0  0
  142.5867  160.9995  134.6503 H   0  0  0  0  0  0  0  0  0  0  0  0
  141.6530  158.3099  134.3455 H   0  0  0  0  0  0  0  0  0  0  0  0
  142.3848  156.0069  133.6427 H   0  0  0  0  0  0  0  0  0  0  0  0
  144.2022  152.2289  131.9980 H   0  0  0  0  0  0  0  0  0  0  0  0
  146.7430  152.7590  132.0220 H   0  0  0  0  0  0  0  0  0  0  0  0
  147.4062  156.3889  132.2639 H   0  0  0  0  0  0  0  0  0  0  0  0
  147.6154  155.5645  133.8459 H   0  0  0  0  0  0  0  0  0  0  0  0
  149.1020  155.2520  131.8410 H   0  0  0  0  0  0  0  0  0  0  0  0
  146.3648  157.5417  132.7504 H   0  0  0  0  0  0  0  0  0  0  0  0
  146.8799  160.5963  130.9744 H   0  0  0  0  0  0  0  0  0  0  0  0
  148.8317  159.4409  130.3445 H   0  0  0  0  0  0  0  0  0  0  0  0
  149.6283  158.8891  133.2758 H   0  0  0  0  0  0  0  0  0  0  0  0
  1  2  1  0
  2  3  2  0
  2  4  1  0
  4  5  2  0
  5  6  1  0
  6  7  2  0
  7  8  1  0
  8  9  2  0
  9 10  1  0
 10 11  1  0
 11 12  1  0
 12 13  2  0
 13 14  1  0
 14 15  1  0
 15 16  1  0
  9 17  1  0
 17 18  2  0
 18 19  1  0
 19 20  1  0
 20 21  2  0
 20 22  1  0
 22 23  2  3
 23 24  1  0
 24 25  2  0
 19  4  1  0
 18  6  1  0
 14 10  2  0
  1 26  1  0
  5 27  1  0
  7 28  1  0
  8 29  1  0
 12 30  1  0
 13 31  1  0
 15 32  1  0
 15 33  1  0
 16 34  1  0
 17 35  1  0
 22 36  1  0
 23 37  1  0
 24 38  1  0
M  CHG  2   1  -1  13   1
M  END
>  <UniqueID>  (21) 
21

>  <SMILES>  (21) 
[NH-]C(=O)c1cc2ccc(-c3oc[nH+]c3CO)cc2n1C(=O)C=CC=O

>  <Energy>  (21) 
115.8423430770732

>  <Genealogy>  (21) 
[NH-]C(=O)c1cc2ccc(-c3oc[nH+]c3CO)cc2n1C(=O)C=CC=O (protonated)
[NH-]C(=O)c1cc2ccc(-c3oc[nH+]c3CO)cc2n1C(=O)C=CC=O (3D coordinates assigned)
[NH-]C(=O)c1cc2ccc(-c3oc[nH+]c3CO)cc2n1C(=O)C=CC=O (optimized conformer: 115.8423430770732 kcal/mol)

>  <smiles>  (21) 
NC(=O)c1cc2ccc(-c3ocnc3CO)cc2n1C(=O)C=CC=O

>  <score_type>  (21) 
oracle

>  <origin>  (21) 
adg

>  <m_score__min__energy>  (21) 
-7.0199999999999996

>  <m_primary>  (21) 
energy

$$$$
21:0
     RDKit          3D

 40 41  0  0  0  0  0  0  0  0999 V2000
  144.0960  154.4800  133.8510 C   0  0  0  0  0  0  0  0  0  0  0  0
  145.4140  155.0820  134.0720 N   0  0  0  0  0  0  0  0  0  0  0  0
  146.2370  154.6530  135.2130 C   0  0  0  0  0  0  0  0  0  0  0  0
  147.7260  154.6870  134.8560 C   0  0  0  0  0  0  0  0  0  0  0  0
  148.0610  153.5780  133.9620 N   0  0  0  0  0  0  0  0  0  0  0  0
  148.9450  153.7130  132.8430 C   0  0  0  0  0  0  0  0  0  0  0  0
  149.5030  154.8120  132.5890 O   0  0  0  0  0  0  0  0  0  0  0  0
  149.1910  152.6180  132.0280 O   0  0  0  0  0  0  0  0  0  0  0  0
  145.9070  156.0490  133.1230 C   0  0  0  0  0  0  0  0  0  0  0  0
  146.5180  155.6620  132.0900 O   0  0  0  0  0  0  0  0  0  0  0  0
  145.7360  157.4570  133.3410 N   0  0  0  0  0  0  0  0  0  0  0  0
  146.7000  158.3950  133.5620 C   0  0  0  0  0  0  0  0  0  0  0  0
  148.1540  158.1140  133.6750 C   0  0  0  0  0  0  0  0  0  0  0  0
  148.7940  157.1540  132.8300 N   0  0  0  0  0  0  0  0  0  0  0  0
  148.8520  158.7380  134.5170 O   0  0  0  0  0  0  0  0  0  0  0  0
  146.1140  159.6520  133.7350 C   0  0  0  0  0  0  0  0  0  0  0  0
  144.7570  159.4430  133.6260 C   0  0  0  0  0  0  0  0  0  0  0  0
  143.6990  160.3440  133.7100 C   0  0  0  0  0  0  0  0  0  0  0  0
  142.3960  159.8430  133.5640 C   0  0  0  0  0  0  0  0  0  0  0  0
  142.1690  158.4580  133.3510 C   0  0  0  0  0  0  0  0  0  0  0  0
  140.7700  157.9350  133.1430 C   0  0  0  0  0  0  0  0  0  0  0  0
  140.2660  158.4460  131.9640 F   0  0  0  0  0  0  0  0  0  0  0  0
  140.7720  156.5540  133.0710 F   0  0  0  0  0  0  0  0  0  0  0  0
  139.9440  158.3100  134.1880 F   0  0  0  0  0  0  0  0  0  0  0  0
  143.2730  157.5800  133.2530 C   0  0  0  0  0  0  0  0  0  0  0  0
  144.5580  158.1090  133.4020 C   0  0  0  0  0  0  0  0  0  0  0  0
  143.6240  154.2644  134.8209 H   0  0  0  0  0  0  0  0  0  0  0  0
  143.4643  155.1788  133.2831 H   0  0  0  0  0  0  0  0  0  0  0  0
  144.2106  153.5449  133.2831 H   0  0  0  0  0  0  0  0  0  0  0  0
  146.0548  155.3277  136.0624 H   0  0  0  0  0  0  0  0  0  0  0  0
  145.9621  153.6210  135.4764 H   0  0  0  0  0  0  0  0  0  0  0  0
  147.9572  155.6388  134.3554 H   0  0  0  0  0  0  0  0  0  0  0  0
  148.3168  154.5925  135.7791 H   0  0  0  0  0  0  0  0  0  0  0  0
  147.5790  152.6640  134.1080 H   0  0  0  0  0  0  0  0  0  0  0  0
  148.2630  156.5920  132.1300 H   0  0  0  0  0  0  0  0  0  0  0  0
  149.8190  156.9810  132.9230 H   0  0  0  0  0  0  0  0  0  0  0  0
  146.6281  160.6068  133.9193 H   0  0  0  0  0  0  0  0  0  0  0  0
  143.8786  161.4150  133.8853 H   0  0  0  0  0  0  0  0  0  0  0  0
  141.5401  160.5321  133.6153 H   0  0  0  0  0  0  0  0  0  0  0  0
  143.1241  156.5066  133.0641 H   0  0  0  0  0  0  0  0  0  0  0  0
  1  2  1  0
  2  3  1  0
  3  4  1  0
  4  5  1  0
  5  6  1  0
  6  7  2  0
  6  8  1  0
  2  9  1  0
  9 10  2  0
  9 11  1  0
 11 12  1  0
 12 13  1  0
 13 14  1  0
 13 15  2  0
 12 16  2  0
 16 17  1  0
 17 18  2  0
 18 19  1  0
 19 20  2  0
 20 21  1  0
 21 22  1  0
 21 23  1  0
 21 24  1  0
 20 25  1  0
 25 26  2  0
 26 11  1  0
 26 17  1  0
  1 27  1  0
  1 28  1  0
  1 29  1  0
  3 30  1  0
  3 31  1  0
  4 32  1  0
  4 33  1  0
  5 34  1  0
 14 35  1  0
 14 36  1  0
 16 37  1  0
 18 38  1  0
 19 39  1  0
 25 40  1  0
M  CHG  1   8  -1
M  END
>  <UniqueID>  (22) 
22

>  <SMILES>  (22) 
CN(CCNC(=O)[O-])C(=O)n1c(C(N)=O)cc2ccc(C(F)(F)F)cc21

>  <Energy>  (22) 
72.9115959723458

>  <Genealogy>  (22) 
CN(CCNC(=O)[O-])C(=O)n1c(C(N)=O)cc2ccc(C(F)(F)F)cc21 (protonated)
CN(CCNC(=O)[O-])C(=O)n1c(C(N)=O)cc2ccc(C(F)(F)F)cc21 (3D coordinates assigned)
CN(CCNC(=O)[O-])C(=O)n1c(C(N)=O)cc2ccc(C(F)(F)F)cc21 (optimized conformer: 72.9115959723458 kcal/mol)

>  <smiles>  (22) 
CN(CCNC(=O)O)C(=O)n1c(C(N)=O)cc2ccc(C(F)(F)F)cc21

>  <score_type>  (22) 
oracle

>  <origin>  (22) 
adg

>  <m_score__min__energy>  (22) 
-6.8899999999999997

>  <m_primary>  (22) 
energy

$$$$
22:0
     RDKit          3D

 61 62  0  0  0  0  0  0  0  0999 V2000
  144.8730  153.7430  134.2950 C   0  0  0  0  0  0  0  0  0  0  0  0
  144.6410  154.8510  133.2510 C   0  0  0  0  0  0  0  0  0  0  0  0
  145.8230  154.8460  132.2600 C   0  0  0  0  0  0  0  0  0  0  0  0
  143.4020  154.5340  132.5320 N   0  0  0  0  0  0  0  0  0  0  0  0
  142.3660  153.6940  133.0520 C   0  0  0  0  0  0  0  0  0  0  0  0
  142.5600  152.4550  133.1610 O   0  0  0  0  0  0  0  0  0  0  0  0
  141.0950  154.2850  133.4970 C   0  0  0  0  0  0  0  0  0  0  0  0
  140.0060  153.8410  133.0350 O   0  0  0  0  0  0  0  0  0  0  0  0
  141.0830  155.4320  134.3590 N   0  0  0  0  0  0  0  0  0  0  0  0
  141.6360  155.5610  135.6000 C   0  0  0  0  0  0  0  0  0  0  0  0
  142.2620  154.4730  136.3850 C   0  0  0  0  0  0  0  0  0  0  0  0
  143.4350  154.7040  137.1690 N   0  0  0  0  0  0  0  0  0  0  0  0
  141.7790  153.3080  136.3280 O   0  0  0  0  0  0  0  0  0  0  0  0
  141.5470  156.8820  136.0380 C   0  0  0  0  0  0  0  0  0  0  0  0
  140.9130  157.5610  135.0190 C   0  0  0  0  0  0  0  0  0  0  0  0
  140.6170  158.9150  134.8900 C   0  0  0  0  0  0  0  0  0  0  0  0
  140.0350  159.3520  133.6860 C   0  0  0  0  0  0  0  0  0  0  0  0
  139.7480  158.4360  132.6410 C   0  0  0  0  0  0  0  0  0  0  0  0
  139.1980  158.9340  131.3280 C   0  0  0  0  0  0  0  0  0  0  0  0
  138.3540  160.0140  131.5250 F   0  0  0  0  0  0  0  0  0  0  0  0
  138.4890  157.9170  130.7180 F   0  0  0  0  0  0  0  0  0  0  0  0
  140.2240  159.3370  130.4930 F   0  0  0  0  0  0  0  0  0  0  0  0
  140.0800  157.0700  132.8040 C   0  0  0  0  0  0  0  0  0  0  0  0
  140.6460  156.6630  134.0180 C   0  0  0  0  0  0  0  0  0  0  0  0
  144.5290  156.2120  133.9260 C   0  0  0  0  0  0  0  0  0  0  0  0
  144.6460  156.3190  135.1830 O   0  0  0  0  0  0  0  0  0  0  0  0
  144.2530  157.3800  133.1340 N   0  0  0  0  0  0  0  0  0  0  0  0
  143.8660  158.6730  133.6900 C   0  0  0  0  0  0  0  0  0  0  0  0
  144.8150  159.7830  133.2390 C   0  0  0  0  0  0  0  0  0  0  0  0
  146.0050  159.7310  134.0040 O   0  0  0  0  0  0  0  0  0  0  0  0
  147.0520  160.4270  133.3470 C   0  0  0  0  0  0  0  0  0  0  0  0
  147.6700  159.5650  132.2400 C   0  0  0  0  0  0  0  0  0  0  0  0
  147.2420  158.2210  132.3820 O   0  0  0  0  0  0  0  0  0  0  0  0
  148.3160  157.3970  132.7960 C   0  0  0  0  0  0  0  0  0  0  0  0
  147.9400  156.7070  134.1070 C   0  0  0  0  0  0  0  0  0  0  0  0
  146.9810  157.4590  134.8030 O   0  0  0  0  0  0  0  0  0  0  0  0
  144.7842  154.1673  135.3060 H   0  0  0  0  0  0  0  0  0  0  0  0
  144.1212  152.9510  134.1624 H   0  0  0  0  0  0  0  0  0  0  0  0
  145.8794  153.3192  134.1624 H   0  0  0  0  0  0  0  0  0  0  0  0
  146.7703  154.8420  132.8191 H   0  0  0  0  0  0  0  0  0  0  0  0
  145.7670  153.9481  131.6271 H   0  0  0  0  0  0  0  0  0  0  0  0
  145.7746  155.7444  131.6271 H   0  0  0  0  0  0  0  0  0  0  0  0
  143.8370  153.9320  137.7470 H   0  0  0  0  0  0  0  0  0  0  0  0
  143.9620  155.6040  137.1010 H   0  0  0  0  0  0  0  0  0  0  0  0
  141.9059  157.2943  136.9926 H   0  0  0  0  0  0  0  0  0  0  0  0
  140.8317  159.6220  135.7049 H   0  0  0  0  0  0  0  0  0  0  0  0
  139.7993  160.4182  133.5529 H   0  0  0  0  0  0  0  0  0  0  0  0
  139.8978  156.3457  131.9964 H   0  0  0  0  0  0  0  0  0  0  0  0
  142.8469  158.9158  133.3546 H   0  0  0  0  0  0  0  0  0  0  0  0
  143.9112  158.6046  134.7869 H   0  0  0  0  0  0  0  0  0  0  0  0
  145.0578  159.6470  132.1748 H   0  0  0  0  0  0  0  0  0  0  0  0
  144.3299  160.7595  133.3844 H   0  0  0  0  0  0  0  0  0  0  0  0
  146.6487  161.3490  132.9029 H   0  0  0  0  0  0  0  0  0  0  0  0
  147.8327  160.6659  134.0842 H   0  0  0  0  0  0  0  0  0  0  0  0
  147.3521  159.9477  131.2589 H   0  0  0  0  0  0  0  0  0  0  0  0
  148.7665  159.6068  132.3169 H   0  0  0  0  0  0  0  0  0  0  0  0
  148.5169  156.6386  132.0250 H   0  0  0  0  0  0  0  0  0  0  0  0
  149.2174  158.0097  132.9448 H   0  0  0  0  0  0  0  0  0  0  0  0
  147.5282  155.7112  133.8863 H   0  0  0  0  0  0  0  0  0  0  0  0
  148.8411  156.6160  134.7313 H   0  0  0  0  0  0  0  0  0  0  0  0
  146.2080  157.5760  134.1870 H   0  0  0  0  0  0  0  0  0  0  0  0
  1  2  1  0
  2  3  1  0
  2  4  1  0
  4  5  1  0
  5  6  2  0
  5  7  1  0
  7  8  2  0
  7  9  1  0
  9 10  1  0
 10 11  1  0
 11 12  1  0
 11 13  2  0
 10 14  2  0
 14 15  1  0
 15 16  2  0
 16 17  1  0
 17 18  2  0
 18 19  1  0
 19 20  1  0
 19 21  1  0
 19 22  1  0
 18 23  1  0
 23 24  2  0
  2 25  1  0
 25 26  2  0
 25 27  1  0
 27 28  1  0
 28 29  1  0
 29 30  1  0
 30 31  1  0
 31 32  1  0
 32 33  1  0
 33 34  1  0
 34 35  1  0
 35 36  1  0
 24  9  1  0
 24 15  1  0
  1 37  1  0
  1 38  1  0
  1 39  1  0
  3 40  1  0
  3 41  1  0
  3 42  1  0
 12 43  1  0
 12 44  1  0
 14 45  1  0
 16 46  1  0
 17 47  1  0
 23 48  1  0
 28 49  1  0
 28 50  1  0
 29 51  1  0
 29 52  1  0
 31 53  1  0
 31 54  1  0
 32 55  1  0
 32 56  1  0
 34 57  1  0
 34 58  1  0
 35 59  1  0
 35 60  1  0
 36 61  1  0
M  CHG  2   4  -1  27  -1
M  END
>  <UniqueID>  (23) 
23

>  <SMILES>  (23) 
CC(C)([N-]C(=O)C(=O)n1c(C(N)=O)cc2ccc(C(F)(F)F)cc21)C(=O)[N-]CCOCCOCCO

>  <Energy>  (23) 
99.39525328083485

>  <Genealogy>  (23) 
CC(C)([N-]C(=O)C(=O)n1c(C(N)=O)cc2ccc(C(F)(F)F)cc21)C(=O)[N-]CCOCCOCCO (protonated)
CC(C)([N-]C(=O)C(=O)n1c(C(N)=O)cc2ccc(C(F)(F)F)cc21)C(=O)[N-]CCOCCOCCO (3D coordinates assigned)
CC(C)([N-]C(=O)C(=O)n1c(C(N)=O)cc2ccc(C(F)(F)F)cc21)C(=O)[N-]CCOCCOCCO (optimized conformer: 99.39525328083485 kcal/mol)

>  <smiles>  (23) 
CC(C)(NC(=O)C(=O)n1c(C(N)=O)cc2ccc(C(F)(F)F)cc21)C(=O)NCCOCCOCCO

>  <score_type>  (23) 
oracle

>  <origin>  (23) 
adg

>  <m_score__min__energy>  (23) 
-7

>  <m_primary>  (23) 
energy

$$$$
23:0
     RDKit          3D

 35 36  0  0  0  0  0  0  0  0999 V2000
  148.6020  158.9800  134.1030 C   0  0  0  0  0  0  0  0  0  0  0  0
  148.2210  159.2260  132.8500 C   0  0  0  0  0  0  0  0  0  0  0  0
  149.5730  159.4200  131.5060 Br  0  0  0  0  0  0  0  0  0  0  0  0
  146.7920  159.3210  132.4780 C   0  0  0  0  0  0  0  0  0  0  0  0
  146.4230  160.1100  131.5640 O   0  0  0  0  0  0  0  0  0  0  0  0
  145.8100  158.5240  133.1520 N   0  0  0  0  0  0  0  0  0  0  0  0
  144.6180  158.9310  133.6690 C   0  0  0  0  0  0  0  0  0  0  0  0
  144.1380  160.3280  133.7420 C   0  0  0  0  0  0  0  0  0  0  0  0
  145.0540  161.4180  133.8080 N   0  0  0  0  0  0  0  0  0  0  0  0
  142.9000  160.5630  133.7680 O   0  0  0  0  0  0  0  0  0  0  0  0
  143.9080  157.8400  134.1700 C   0  0  0  0  0  0  0  0  0  0  0  0
  144.7080  156.7440  133.9340 C   0  0  0  0  0  0  0  0  0  0  0  0
  144.4930  155.3990  134.2140 C   0  0  0  0  0  0  0  0  0  0  0  0
  145.4860  154.4790  133.8330 C   0  0  0  0  0  0  0  0  0  0  0  0
  146.6700  154.9180  133.1770 C   0  0  0  0  0  0  0  0  0  0  0  0
  147.6970  153.9920  132.7740 N   0  0  0  0  0  0  0  0  0  0  0  0
  148.2370  152.9570  133.6600 C   0  0  0  0  0  0  0  0  0  0  0  0
  149.4020  152.2000  133.0050 C   0  0  0  0  0  0  0  0  0  0  0  0
  149.9400  152.9150  131.8470 N   0  0  0  0  0  0  0  0  0  0  0  0
  146.8460  156.2940  132.9120 C   0  0  0  0  0  0  0  0  0  0  0  0
  145.8470  157.1850  133.3150 C   0  0  0  0  0  0  0  0  0  0  0  0
  147.8472  158.8641  134.8947 H   0  0  0  0  0  0  0  0  0  0  0  0
  149.6714  158.8928  134.3456 H   0  0  0  0  0  0  0  0  0  0  0  0
  145.8550  161.4880  133.1420 H   0  0  0  0  0  0  0  0  0  0  0  0
  142.9190  157.8523  134.6514 H   0  0  0  0  0  0  0  0  0  0  0  0
  143.5742  155.0649  134.7182 H   0  0  0  0  0  0  0  0  0  0  0  0
  145.3460  153.4086  134.0443 H   0  0  0  0  0  0  0  0  0  0  0  0
  148.0810  154.0810  131.8050 H   0  0  0  0  0  0  0  0  0  0  0  0
  148.5955  153.4314  134.5854 H   0  0  0  0  0  0  0  0  0  0  0  0
  147.4350  152.2348  133.8725 H   0  0  0  0  0  0  0  0  0  0  0  0
  150.2039  152.0720  133.7470 H   0  0  0  0  0  0  0  0  0  0  0  0
  149.0220  151.2281  132.6571 H   0  0  0  0  0  0  0  0  0  0  0  0
  150.3210  152.2260  131.1600 H   0  0  0  0  0  0  0  0  0  0  0  0
  150.7310  153.5230  132.1620 H   0  0  0  0  0  0  0  0  0  0  0  0
  147.7493  156.6567  132.3997 H   0  0  0  0  0  0  0  0  0  0  0  0
  1  2  2  0
  2  3  1  0
  2  4  1  0
  4  5  2  0
  4  6  1  0
  6  7  1  0
  7  8  1  0
  8  9  1  0
  8 10  2  0
  7 11  2  0
 11 12  1  0
 12 13  2  0
 13 14  1  0
 14 15  2  0
 15 16  1  0
 16 17  1  0
 17 18  1  0
 18 19  1  0
 15 20  1  0
 20 21  2  0
 21  6  1  0
 21 12  1  0
  1 22  1  0
  1 23  1  0
  9 24  1  0
 11 25  1  0
 13 26  1  0
 14 27  1  0
 16 28  1  0
 17 29  1  0
 17 30  1  0
 18 31  1  0
 18 32  1  0
 19 33  1  0
 19 34  1  0
 20 35  1  0
M  CHG  1   9  -1
M  END
>  <UniqueID>  (24) 
24

>  <SMILES>  (24) 
C=C(Br)C(=O)n1c(C([NH-])=O)cc2ccc(NCCN)cc21

>  <Energy>  (24) 
71.40344789664466

>  <Genealogy>  (24) 
C=C(Br)C(=O)n1c(C([NH-])=O)cc2ccc(NCCN)cc21 (protonated)
C=C(Br)C(=O)n1c(C([NH-])=O)cc2ccc(NCCN)cc21 (3D coordinates assigned)
C=C(Br)C(=O)n1c(C([NH-])=O)cc2ccc(NCCN)cc21 (optimized conformer: 71.40344789664466 kcal/mol)

>  <smiles>  (24) 
C=C(Br)C(=O)n1c(C(N)=O)cc2ccc(NCCN)cc21

>  <score_type>  (24) 
oracle

>  <origin>  (24) 
adg

>  <m_score__min__energy>  (24) 
-7.4199999999999999

>  <m_primary>  (24) 
energy

$$$$
24:0
     RDKit          3D

 41 42  0  0  0  0  0  0  0  0999 V2000
  145.8580  154.9850  135.5410 C   0  0  0  0  0  0  0  0  0  0  0  0
  146.7600  155.6440  134.5410 C   0  0  0  0  0  0  0  0  0  0  0  0
  147.7630  154.8900  133.8840 C   0  0  0  0  0  0  0  0  0  0  0  0
  148.6260  155.5030  132.9580 C   0  0  0  0  0  0  0  0  0  0  0  0
  148.4790  156.8680  132.7340 C   0  0  0  0  0  0  0  0  0  0  0  0
  149.1490  157.7000  131.8660 C   0  0  0  0  0  0  0  0  0  0  0  0
  148.5780  158.9570  132.0470 C   0  0  0  0  0  0  0  0  0  0  0  0
  149.0230  160.1670  131.3260 C   0  0  0  0  0  0  0  0  0  0  0  0
  148.1040  161.2070  130.9840 N   0  0  0  0  0  0  0  0  0  0  0  0
  150.2440  160.3090  131.0500 O   0  0  0  0  0  0  0  0  0  0  0  0
  147.5910  158.9060  132.9840 N   0  0  0  0  0  0  0  0  0  0  0  0
  146.6920  159.9590  133.3650 C   0  0  0  0  0  0  0  0  0  0  0  0
  147.1370  161.1290  133.5220 O   0  0  0  0  0  0  0  0  0  0  0  0
  145.3040  159.6700  133.5970 N   0  0  0  0  0  0  0  0  0  0  0  0
  144.2930  160.6770  133.7730 C   0  0  0  0  0  0  0  0  0  0  0  0
  144.5930  161.8960  133.6680 O   0  0  0  0  0  0  0  0  0  0  0  0
  142.9030  160.2790  134.0930 C   0  0  0  0  0  0  0  0  0  0  0  0
  141.9590  161.0250  133.7190 O   0  0  0  0  0  0  0  0  0  0  0  0
  142.5710  159.0740  134.8020 N   0  0  0  0  0  0  0  0  0  0  0  0
  141.2860  158.7150  135.4000 C   0  0  0  0  0  0  0  0  0  0  0  0
  141.3460  158.9900  136.9020 C   0  0  0  0  0  0  0  0  0  0  0  0
  140.9750  157.2360  135.1450 C   0  0  0  0  0  0  0  0  0  0  0  0
  147.5390  157.6180  133.3930 C   0  0  0  0  0  0  0  0  0  0  0  0
  146.6480  157.0300  134.2980 C   0  0  0  0  0  0  0  0  0  0  0  0
  146.1959  155.2319  136.5583 H   0  0  0  0  0  0  0  0  0  0  0  0
  144.8283  155.3450  135.3992 H   0  0  0  0  0  0  0  0  0  0  0  0
  145.8880  153.8946  135.3992 H   0  0  0  0  0  0  0  0  0  0  0  0
  147.8678  153.8165  134.0997 H   0  0  0  0  0  0  0  0  0  0  0  0
  149.3937  154.9209  132.4271 H   0  0  0  0  0  0  0  0  0  0  0  0
  149.9622  157.4295  131.1764 H   0  0  0  0  0  0  0  0  0  0  0  0
  148.4310  162.0310  130.4310 H   0  0  0  0  0  0  0  0  0  0  0  0
  147.1300  161.2130  131.3570 H   0  0  0  0  0  0  0  0  0  0  0  0
  145.0210  158.6650  133.6330 H   0  0  0  0  0  0  0  0  0  0  0  0
  140.4866  159.3179  134.9445 H   0  0  0  0  0  0  0  0  0  0  0  0
  141.1431  158.0601  137.4534 H   0  0  0  0  0  0  0  0  0  0  0  0
  142.3465  159.3625  137.1669 H   0  0  0  0  0  0  0  0  0  0  0  0
  140.5915  159.7454  137.1669 H   0  0  0  0  0  0  0  0  0  0  0  0
  140.8651  156.7133  136.1066 H   0  0  0  0  0  0  0  0  0  0  0  0
  140.0394  157.1514  134.5727 H   0  0  0  0  0  0  0  0  0  0  0  0
  141.7973  156.7818  134.5727 H   0  0  0  0  0  0  0  0  0  0  0  0
  145.8806  157.6321  134.8066 H   0  0  0  0  0  0  0  0  0  0  0  0
  1  2  1  0
  2  3  2  0
  3  4  1  0
  4  5  2  0
  5  6  1  0
  6  7  2  0
  7  8  1  0
  8  9  1  0
  8 10  2  0
  7 11  1  0
 11 12  1  0
 12 13  2  0
 12 14  1  0
 14 15  1  0
 15 16  2  0
 15 17  1  0
 17 18  2  0
 17 19  1  0
 19 20  1  0
 20 21  1  0
 20 22  1  0
 11 23  1  0
 23 24  2  0
 24  2  1  0
 23  5  1  0
  1 25  1  0
  1 26  1  0
  1 27  1  0
  3 28  1  0
  4 29  1  0
  6 30  1  0
  9 31  1  0
  9 32  1  0
 14 33  1  0
 20 34  1  0
 21 35  1  0
 21 36  1  0
 21 37  1  0
 22 38  1  0
 22 39  1  0
 22 40  1  0
 24 41  1  0
M  CHG  1  19  -1
M  END
>  <UniqueID>  (25) 
25

>  <SMILES>  (25) 
Cc1ccc2cc(C(N)=O)n(C(=O)NC(=O)C(=O)[N-]C(C)C)c2c1

>  <Energy>  (25) 
76.65193642254428

>  <Genealogy>  (25) 
Cc1ccc2cc(C(N)=O)n(C(=O)NC(=O)C(=O)[N-]C(C)C)c2c1 (protonated)
Cc1ccc2cc(C(N)=O)n(C(=O)NC(=O)C(=O)[N-]C(C)C)c2c1 (3D coordinates assigned)
Cc1ccc2cc(C(N)=O)n(C(=O)NC(=O)C(=O)[N-]C(C)C)c2c1 (optimized conformer: 76.65193642254428 kcal/mol)

>  <smiles>  (25) 
Cc1ccc2cc(C(N)=O)n(C(=O)NC(=O)C(=O)NC(C)C)c2c1

>  <score_type>  (25) 
oracle

>  <origin>  (25) 
adg

>  <m_score__min__energy>  (25) 
-8.0500000000000007

>  <m_primary>  (25) 
energy

$$$$
25:0
     RDKit          3D

 51 52  0  0  0  0  0  0  0  0999 V2000
  137.6130  160.0480  130.7560 C   0  0  0  0  0  0  0  0  0  0  0  0
  138.7530  159.7040  131.3600 C   0  0  0  0  0  0  0  0  0  0  0  0
  139.0380  158.2870  131.7690 C   0  0  0  0  0  0  0  0  0  0  0  0
  140.6600  158.1960  132.6030 S   0  0  0  0  0  0  0  0  0  0  0  0
  140.0350  157.3770  134.0760 C   0  0  0  0  0  0  0  0  0  0  0  0
  138.8070  157.4920  134.3290 O   0  0  0  0  0  0  0  0  0  0  0  0
  140.8660  156.5150  134.8900 N   0  0  0  0  0  0  0  0  0  0  0  0
  141.2970  156.7820  136.1580 C   0  0  0  0  0  0  0  0  0  0  0  0
  141.1170  158.0530  136.8790 C   0  0  0  0  0  0  0  0  0  0  0  0
  139.8830  158.7640  136.8030 N   0  0  0  0  0  0  0  0  0  0  0  0
  142.0850  158.5490  137.5130 O   0  0  0  0  0  0  0  0  0  0  0  0
  141.9030  155.6730  136.7310 C   0  0  0  0  0  0  0  0  0  0  0  0
  141.8640  154.7030  135.7630 C   0  0  0  0  0  0  0  0  0  0  0  0
  142.3440  153.3970  135.8010 C   0  0  0  0  0  0  0  0  0  0  0  0
  142.1890  152.6040  134.6540 C   0  0  0  0  0  0  0  0  0  0  0  0
  141.5800  153.1350  133.4920 C   0  0  0  0  0  0  0  0  0  0  0  0
  141.4020  152.2710  132.2690 C   0  0  0  0  0  0  0  0  0  0  0  0
  140.5230  151.0490  132.5600 C   0  0  0  0  0  0  0  0  0  0  0  0
  141.0260  149.6350  131.5840 S   0  0  0  0  0  0  0  0  0  0  0  0
  141.8920  148.5430  132.5240 O   0  0  0  0  0  0  0  0  0  0  0  0
  139.6980  148.8230  130.6830 C   0  0  0  0  0  0  0  0  0  0  0  0
  139.6320  149.3670  129.2460 C   0  0  0  0  0  0  0  0  0  0  0  0
  139.9480  147.3080  130.6570 C   0  0  0  0  0  0  0  0  0  0  0  0
  138.3730  149.1120  131.4050 C   0  0  0  0  0  0  0  0  0  0  0  0
  141.1030  154.4630  133.4910 C   0  0  0  0  0  0  0  0  0  0  0  0
  141.2400  155.2290  134.6570 C   0  0  0  0  0  0  0  0  0  0  0  0
  137.4365  161.0954  130.4698 H   0  0  0  0  0  0  0  0  0  0  0  0
  136.8503  159.2841  130.5446 H   0  0  0  0  0  0  0  0  0  0  0  0
  139.5050  160.4805  131.5639 H   0  0  0  0  0  0  0  0  0  0  0  0
  138.2534  157.9414  132.4582 H   0  0  0  0  0  0  0  0  0  0  0  0
  139.0542  157.6477  130.8740 H   0  0  0  0  0  0  0  0  0  0  0  0
  139.1060  158.4220  136.1940 H   0  0  0  0  0  0  0  0  0  0  0  0
  139.7550  159.6560  137.3320 H   0  0  0  0  0  0  0  0  0  0  0  0
  142.3240  155.5900  137.7438 H   0  0  0  0  0  0  0  0  0  0  0  0
  142.8304  152.9985  136.7035 H   0  0  0  0  0  0  0  0  0  0  0  0
  142.5432  151.5626  134.6579 H   0  0  0  0  0  0  0  0  0  0  0  0
  140.9295  152.8691  131.4759 H   0  0  0  0  0  0  0  0  0  0  0  0
  142.3936  151.9128  131.9554 H   0  0  0  0  0  0  0  0  0  0  0  0
  140.6054  150.7949  133.6271 H   0  0  0  0  0  0  0  0  0  0  0  0
  139.4845  151.2991  132.2973 H   0  0  0  0  0  0  0  0  0  0  0  0
  142.4330  148.0210  131.8790 H   0  0  0  0  0  0  0  0  0  0  0  0
  139.4996  150.4587  129.2729 H   0  0  0  0  0  0  0  0  0  0  0  0
  140.5662  149.1239  128.7186 H   0  0  0  0  0  0  0  0  0  0  0  0
  138.7830  148.9076  128.7186 H   0  0  0  0  0  0  0  0  0  0  0  0
  140.0105  146.9290  131.6877 H   0  0  0  0  0  0  0  0  0  0  0  0
  139.1201  146.8087  130.1323 H   0  0  0  0  0  0  0  0  0  0  0  0
  140.8924  147.1012  130.1323 H   0  0  0  0  0  0  0  0  0  0  0  0
  138.5330  149.0771  132.4927 H   0  0  0  0  0  0  0  0  0  0  0  0
  138.0101  150.1104  131.1196 H   0  0  0  0  0  0  0  0  0  0  0  0
  137.6273  148.3554  131.1196 H   0  0  0  0  0  0  0  0  0  0  0  0
  140.6327  154.8890  132.5925 H   0  0  0  0  0  0  0  0  0  0  0  0
  1  2  2  0
  2  3  1  0
  3  4  1  0
  4  5  1  0
  5  6  2  0
  5  7  1  0
  7  8  1  0
  8  9  1  0
  9 10  1  0
  9 11  2  0
  8 12  2  0
 12 13  1  0
 13 14  2  0
 14 15  1  0
 15 16  2  0
 16 17  1  0
 17 18  1  0
 18 19  1  0
 19 20  1  1
 19 21  1  0
 21 22  1  0
 21 23  1  0
 21 24  1  0
 16 25  1  0
 25 26  2  0
 26  7  1  0
 26 13  1  0
  1 27  1  0
  1 28  1  0
  2 29  1  0
  3 30  1  0
  3 31  1  0
 10 32  1  0
 10 33  1  0
 12 34  1  0
 14 35  1  0
 15 36  1  0
 17 37  1  0
 17 38  1  0
 18 39  1  0
 18 40  1  0
 20 41  1  0
 22 42  1  0
 22 43  1  0
 22 44  1  0
 23 45  1  0
 23 46  1  0
 23 47  1  0
 24 48  1  0
 24 49  1  0
 24 50  1  0
 25 51  1  0
M  CHG  1  19   1
M  END
>  <UniqueID>  (26) 
26

>  <SMILES>  (26) 
C=CCSC(=O)n1c(C(N)=O)cc2ccc(CC[S@@+](O)C(C)(C)C)cc21

>  <Energy>  (26) 
76.11592182078451

>  <Genealogy>  (26) 
C=CCSC(=O)n1c(C(N)=O)cc2ccc(CC[S+](O)C(C)(C)C)cc21 (protonated)
C=CCSC(=O)n1c(C(N)=O)cc2ccc(CC[S@@+](O)C(C)(C)C)cc21 (chirality)
C=CCSC(=O)n1c(C(N)=O)cc2ccc(CC[S@@+](O)C(C)(C)C)cc21 (3D coordinates assigned)
C=CCSC(=O)n1c(C(N)=O)cc2ccc(CC[S@@+](O)C(C)(C)C)cc21 (optimized conformer: 76.11592182078451 kcal/mol)

>  <smiles>  (26) 
C=CCSC(=O)n1c(C(N)=O)cc2ccc(CC[S+]([O-])C(C)(C)C)cc21

>  <score_type>  (26) 
oracle

>  <origin>  (26) 
adg

>  <m_score__min__energy>  (26) 
-8.7599999999999998

>  <m_primary>  (26) 
energy

$$$$
26:0
     RDKit          3D

 43 44  0  0  0  0  0  0  0  0999 V2000
  138.9800  158.9870  130.3620 C   0  0  0  0  0  0  0  0  0  0  0  0
  138.3620  158.6410  131.7130 C   0  0  0  0  0  0  0  0  0  0  0  0
  139.3740  158.7060  132.7720 N   0  0  0  0  0  0  0  0  0  0  0  0
  139.6180  157.5630  133.6200 C   0  0  0  0  0  0  0  0  0  0  0  0
  139.8410  156.1970  133.0420 C   0  0  0  0  0  0  0  0  0  0  0  0
  139.6320  157.6980  134.8730 O   0  0  0  0  0  0  0  0  0  0  0  0
  140.1930  159.8820  132.8680 C   0  0  0  0  0  0  0  0  0  0  0  0
  139.8570  160.9260  132.2470 O   0  0  0  0  0  0  0  0  0  0  0  0
  141.4380  159.8750  133.6480 C   0  0  0  0  0  0  0  0  0  0  0  0
  141.4520  160.3740  134.8070 O   0  0  0  0  0  0  0  0  0  0  0  0
  142.5890  159.3000  133.0950 O   0  0  0  0  0  0  0  0  0  0  0  0
  143.9010  159.5850  133.4970 C   0  0  0  0  0  0  0  0  0  0  0  0
  144.2400  160.7610  133.7990 O   0  0  0  0  0  0  0  0  0  0  0  0
  144.8630  158.5190  133.5780 N   0  0  0  0  0  0  0  0  0  0  0  0
  144.6570  157.2590  134.0570 C   0  0  0  0  0  0  0  0  0  0  0  0
  143.4430  156.7850  134.7510 C   0  0  0  0  0  0  0  0  0  0  0  0
  142.4590  157.7030  135.2300 N   0  0  0  0  0  0  0  0  0  0  0  0
  143.2980  155.5540  134.9710 O   0  0  0  0  0  0  0  0  0  0  0  0
  145.7770  156.4610  133.8410 C   0  0  0  0  0  0  0  0  0  0  0  0
  146.6910  157.2790  133.2210 C   0  0  0  0  0  0  0  0  0  0  0  0
  147.9790  157.0000  132.7740 C   0  0  0  0  0  0  0  0  0  0  0  0
  148.6930  158.0280  132.1360 C   0  0  0  0  0  0  0  0  0  0  0  0
  148.1030  159.3020  131.9310 C   0  0  0  0  0  0  0  0  0  0  0  0
  148.8910  160.4110  131.2810 C   0  0  0  0  0  0  0  0  0  0  0  0
  148.6830  160.4170  129.9130 F   0  0  0  0  0  0  0  0  0  0  0  0
  148.4860  161.6240  131.8050 F   0  0  0  0  0  0  0  0  0  0  0  0
  150.2470  160.2510  131.5120 F   0  0  0  0  0  0  0  0  0  0  0  0
  146.7980  159.5510  132.4160 C   0  0  0  0  0  0  0  0  0  0  0  0
  146.1170  158.5140  133.0690 C   0  0  0  0  0  0  0  0  0  0  0  0
  139.9300  159.5189  130.5188 H   0  0  0  0  0  0  0  0  0  0  0  0
  139.1666  158.0621  129.7965 H   0  0  0  0  0  0  0  0  0  0  0  0
  138.2891  159.6295  129.7965 H   0  0  0  0  0  0  0  0  0  0  0  0
  137.5572  159.3566  131.9369 H   0  0  0  0  0  0  0  0  0  0  0  0
  137.9586  157.6186  131.6685 H   0  0  0  0  0  0  0  0  0  0  0  0
  139.9599  155.4687  133.8577 H   0  0  0  0  0  0  0  0  0  0  0  0
  138.9769  155.9156  132.4222 H   0  0  0  0  0  0  0  0  0  0  0  0
  140.7497  156.2050  132.4222 H   0  0  0  0  0  0  0  0  0  0  0  0
  141.5820  157.3470  135.6710 H   0  0  0  0  0  0  0  0  0  0  0  0
  142.6270  158.7330  135.2110 H   0  0  0  0  0  0  0  0  0  0  0  0
  145.9035  155.4017  134.1093 H   0  0  0  0  0  0  0  0  0  0  0  0
  148.4247  156.0044  132.9160 H   0  0  0  0  0  0  0  0  0  0  0  0
  149.7212  157.8431  131.7915 H   0  0  0  0  0  0  0  0  0  0  0  0
  146.3277  160.5366  132.2838 H   0  0  0  0  0  0  0  0  0  0  0  0
  1  2  1  0
  2  3  1  0
  3  4  1  0
  4  5  1  0
  4  6  2  0
  3  7  1  0
  7  8  2  0
  7  9  1  0
  9 10  2  0
  9 11  1  0
 11 12  1  0
 12 13  2  0
 12 14  1  0
 14 15  1  0
 15 16  1  0
 16 17  1  0
 16 18  2  0
 15 19  2  0
 19 20  1  0
 20 21  2  0
 21 22  1  0
 22 23  2  0
 23 24  1  0
 24 25  1  0
 24 26  1  0
 24 27  1  0
 23 28  1  0
 28 29  2  0
 29 14  1  0
 29 20  1  0
  1 30  1  0
  1 31  1  0
  1 32  1  0
  2 33  1  0
  2 34  1  0
  5 35  1  0
  5 36  1  0
  5 37  1  0
 17 38  1  0
 17 39  1  0
 19 40  1  0
 21 41  1  0
 22 42  1  0
 28 43  1  0
M  END
>  <UniqueID>  (27) 
27

>  <SMILES>  (27) 
CCN(C(C)=O)C(=O)C(=O)OC(=O)n1c(C(N)=O)cc2ccc(C(F)(F)F)cc21

>  <Energy>  (27) 
84.57906477184254

>  <Genealogy>  (27) 
CCN(C(C)=O)C(=O)C(=O)OC(=O)n1c(C(N)=O)cc2ccc(C(F)(F)F)cc21 (3D coordinates assigned)
CCN(C(C)=O)C(=O)C(=O)OC(=O)n1c(C(N)=O)cc2ccc(C(F)(F)F)cc21 (optimized conformer: 84.57906477184254 kcal/mol)

>  <smiles>  (27) 
CCN(C(C)=O)C(=O)C(=O)OC(=O)n1c(C(N)=O)cc2ccc(C(F)(F)F)cc21

>  <score_type>  (27) 
oracle

>  <origin>  (27) 
adg

>  <m_score__min__energy>  (27) 
-6.7199999999999998

>  <m_primary>  (27) 
energy

$$$$
27:0
     RDKit          3D

 40 42  0  0  0  0  0  0  0  0999 V2000
  139.7990  157.8800  135.6710 C   0  0  0  0  0  0  0  0  0  0  0  0
  140.2460  158.8890  134.6080 C   0  0  2  0  0  0  0  0  0  0  0  0
  140.2560  158.2330  133.2170 C   0  0  0  0  0  0  0  0  0  0  0  0
  139.1080  159.3560  131.8010 I   0  0  0  0  0  0  0  0  0  0  0  0
  138.1300  160.3110  130.5960 O   0  0  0  0  0  0  0  0  0  0  0  0
  141.5990  159.4510  134.9890 C   0  0  0  0  0  0  0  0  0  0  0  0
  142.0060  159.3570  136.1790 O   0  0  0  0  0  0  0  0  0  0  0  0
  142.4080  160.2090  134.0120 C   0  0  0  0  0  0  0  0  0  0  0  0
  141.8950  161.1680  133.3740 O   0  0  0  0  0  0  0  0  0  0  0  0
  143.8000  159.9140  133.8370 N   0  0  0  0  0  0  0  0  0  0  0  0
  144.8500  160.7820  133.8160 C   0  0  0  0  0  0  0  0  0  0  0  0
  144.7800  162.2280  134.1100 C   0  0  0  0  0  0  0  0  0  0  0  0
  143.9260  163.0860  133.3590 N   0  0  0  0  0  0  0  0  0  0  0  0
  145.4590  162.7070  135.0570 O   0  0  0  0  0  0  0  0  0  0  0  0
  146.0350  160.1030  133.5370 C   0  0  0  0  0  0  0  0  0  0  0  0
  145.6730  158.7810  133.3950 C   0  0  0  0  0  0  0  0  0  0  0  0
  146.4480  157.6650  133.1040 C   0  0  0  0  0  0  0  0  0  0  0  0
  145.8000  156.4210  132.9970 C   0  0  0  0  0  0  0  0  0  0  0  0
  144.3940  156.3130  133.1770 C   0  0  0  0  0  0  0  0  0  0  0  0
  143.7170  154.9960  133.0540 C   0  0  0  0  0  0  0  0  0  0  0  0
  144.2700  153.8140  132.5900 C   0  0  0  0  0  0  0  0  0  0  0  0
  143.2650  152.8730  132.6590 C   0  0  0  0  0  0  0  0  0  0  0  0
  142.1720  153.4250  133.1310 O   0  0  0  0  0  0  0  0  0  0  0  0
  142.4040  154.6940  133.3780 C   0  0  0  0  0  0  0  0  0  0  0  0
  143.6450  157.4780  133.4720 C   0  0  0  0  0  0  0  0  0  0  0  0
  144.3210  158.6960  133.5820 C   0  0  0  0  0  0  0  0  0  0  0  0
  139.9835  158.2964  136.6723 H   0  0  0  0  0  0  0  0  0  0  0  0
  138.7251  157.6734  135.5519 H   0  0  0  0  0  0  0  0  0  0  0  0
  140.3675  156.9459  135.5519 H   0  0  0  0  0  0  0  0  0  0  0  0
  139.5330  159.7253  134.5600 H   0  0  0  0  0  0  0  0  0  0  0  0
  141.2949  158.1677  132.8615 H   0  0  0  0  0  0  0  0  0  0  0  0
  139.8056  157.2335  133.3068 H   0  0  0  0  0  0  0  0  0  0  0  0
  142.9730  162.7730  133.0680 H   0  0  0  0  0  0  0  0  0  0  0  0
  147.0443  160.5313  133.4489 H   0  0  0  0  0  0  0  0  0  0  0  0
  147.5353  157.7516  132.9616 H   0  0  0  0  0  0  0  0  0  0  0  0
  146.3890  155.5199  132.7710 H   0  0  0  0  0  0  0  0  0  0  0  0
  145.3005  153.6580  132.2383 H   0  0  0  0  0  0  0  0  0  0  0  0
  143.3643  151.8182  132.3630 H   0  0  0  0  0  0  0  0  0  0  0  0
  141.6693  155.4071  133.7801 H   0  0  0  0  0  0  0  0  0  0  0  0
  142.5552  157.4253  133.6115 H   0  0  0  0  0  0  0  0  0  0  0  0
  1  2  1  0
  2  3  1  0
  3  4  1  0
  4  5  2  0
  2  6  1  0
  6  7  2  0
  6  8  1  0
  8  9  2  0
  8 10  1  0
 10 11  1  0
 11 12  1  0
 12 13  1  0
 12 14  2  0
 11 15  2  0
 15 16  1  0
 16 17  2  0
 17 18  1  0
 18 19  2  0
 19 20  1  0
 20 21  1  0
 21 22  2  0
 22 23  1  0
 23 24  1  0
 19 25  1  0
 25 26  2  0
 26 10  1  0
 26 16  1  0
 24 20  2  0
  1 27  1  0
  1 28  1  0
  1 29  1  0
  2 30  1  6
  3 31  1  0
  3 32  1  0
 13 33  1  0
 15 34  1  0
 17 35  1  0
 18 36  1  0
 21 37  1  0
 22 38  1  0
 24 39  1  0
 25 40  1  0
M  CHG  1  13  -1
M  END
>  <UniqueID>  (28) 
28

>  <SMILES>  (28) 
C[C@H](CI=O)C(=O)C(=O)n1c(C([NH-])=O)cc2ccc(-c3ccoc3)cc21

>  <Energy>  (28) 
105.07454415988353

>  <Genealogy>  (28) 
CC(CI=O)C(=O)C(=O)n1c(C([NH-])=O)cc2ccc(-c3ccoc3)cc21 (protonated)
C[C@H](CI=O)C(=O)C(=O)n1c(C([NH-])=O)cc2ccc(-c3ccoc3)cc21 (chirality)
C[C@H](CI=O)C(=O)C(=O)n1c(C([NH-])=O)cc2ccc(-c3ccoc3)cc21 (3D coordinates assigned)
C[C@H](CI=O)C(=O)C(=O)n1c(C([NH-])=O)cc2ccc(-c3ccoc3)cc21 (optimized conformer: 105.07454415988353 kcal/mol)

>  <smiles>  (28) 
CC(CI=O)C(=O)C(=O)n1c(C(N)=O)cc2ccc(-c3ccoc3)cc21

>  <score_type>  (28) 
oracle

>  <origin>  (28) 
adg

>  <m_score__min__energy>  (28) 
-8

>  <m_primary>  (28) 
energy

$$$$
28:0
     RDKit          3D

 41 42  0  0  0  0  0  0  0  0999 V2000
  151.0400  160.6060  130.6310 H   0  0  0  0  0  0  0  0  0  0  0  0
  150.0690  160.3230  130.3720 N   0  0  0  0  0  0  0  0  0  0  0  0
  149.0150  160.3560  131.3310 C   0  0  0  0  0  0  0  0  0  0  0  0
  148.4720  161.4580  131.6120 O   0  0  0  0  0  0  0  0  0  0  0  0
  148.5730  159.1250  132.0190 C   0  0  0  0  0  0  0  0  0  0  0  0
  149.2390  157.9030  131.9260 C   0  0  0  0  0  0  0  0  0  0  0  0
  150.1666  157.6897  131.3746 H   0  0  0  0  0  0  0  0  0  0  0  0
  148.4890  157.0200  132.6710 C   0  0  0  0  0  0  0  0  0  0  0  0
  148.6860  155.6660  132.9240 C   0  0  0  0  0  0  0  0  0  0  0  0
  149.5445  155.1281  132.4955 H   0  0  0  0  0  0  0  0  0  0  0  0
  147.7540  155.0070  133.7440 C   0  0  0  0  0  0  0  0  0  0  0  0
  147.8721  153.9321  133.9458 H   0  0  0  0  0  0  0  0  0  0  0  0
  146.6620  155.7120  134.3150 C   0  0  0  0  0  0  0  0  0  0  0  0
  145.6440  154.9850  135.1560 C   0  0  0  0  0  0  0  0  0  0  0  0
  144.5770  155.8150  135.4560 F   0  0  0  0  0  0  0  0  0  0  0  0
  145.1790  153.8870  134.4580 F   0  0  0  0  0  0  0  0  0  0  0  0
  146.2080  154.5580  136.3460 F   0  0  0  0  0  0  0  0  0  0  0  0
  146.4870  157.0840  134.0170 C   0  0  0  0  0  0  0  0  0  0  0  0
  145.6366  157.6463  134.4301 H   0  0  0  0  0  0  0  0  0  0  0  0
  147.4220  157.7080  133.1840 C   0  0  0  0  0  0  0  0  0  0  0  0
  147.4550  158.9980  132.7880 N   0  0  0  0  0  0  0  0  0  0  0  0
  146.5420  160.0320  133.1870 C   0  0  0  0  0  0  0  0  0  0  0  0
  146.9910  161.0750  133.7330 O   0  0  0  0  0  0  0  0  0  0  0  0
  145.0870  159.8990  132.9870 C   0  0  0  0  0  0  0  0  0  0  0  0
  144.6941  159.8762  131.9598 H   0  0  0  0  0  0  0  0  0  0  0  0
  144.2260  159.8050  134.0080 C   0  0  0  0  0  0  0  0  0  0  0  0
  144.6140  159.8280  135.0370 H   0  0  0  0  0  0  0  0  0  0  0  0
  142.7780  159.6720  133.7950 C   0  0  0  0  0  0  0  0  0  0  0  0
  142.0020  160.4970  134.3500 O   0  0  0  0  0  0  0  0  0  0  0  0
  142.2770  158.6440  132.9830 O   0  0  0  0  0  0  0  0  0  0  0  0
  142.6390  157.2920  133.0730 C   0  0  0  0  0  0  0  0  0  0  0  0
  143.7780  156.9060  132.6910 O   0  0  0  0  0  0  0  0  0  0  0  0
  141.7010  156.3420  133.6050 N   0  0  0  0  0  0  0  0  0  0  0  0
  140.3830  156.8060  134.0460 C   0  0  0  0  0  0  0  0  0  0  0  0
  140.3476  156.8185  135.1454 H   0  0  0  0  0  0  0  0  0  0  0  0
  140.2042  157.8211  133.6619 H   0  0  0  0  0  0  0  0  0  0  0  0
  139.6077  156.1268  133.6619 H   0  0  0  0  0  0  0  0  0  0  0  0
  142.0700  154.9280  133.7040 C   0  0  0  0  0  0  0  0  0  0  0  0
  142.1447  154.6418  134.7635 H   0  0  0  0  0  0  0  0  0  0  0  0
  141.3022  154.3133  133.2114 H   0  0  0  0  0  0  0  0  0  0  0  0
  143.0403  154.7669  133.2114 H   0  0  0  0  0  0  0  0  0  0  0  0
  1  2  1  0
  2  3  1  0
  3  4  2  0
  3  5  1  0
  5  6  2  0
  6  7  1  0
  6  8  1  0
  8  9  2  0
  9 10  1  0
  9 11  1  0
 11 12  1  0
 11 13  2  0
 13 14  1  0
 14 15  1  0
 14 16  1  0
 14 17  1  0
 13 18  1  0
 18 19  1  0
 18 20  2  0
 20 21  1  0
 21 22  1  0
 22 23  2  0
 22 24  1  0
 24 25  1  0
 24 26  2  0
 26 27  1  0
 26 28  1  0
 28 29  2  0
 28 30  1  0
 30 31  1  0
 31 32  2  0
 31 33  1  0
 33 34  1  0
 34 35  1  0
 34 36  1  0
 34 37  1  0
 33 38  1  0
 38 39  1  0
 38 40  1  0
 38 41  1  0
 21  5  1  0
 20  8  1  0
M  CHG  1   2  -1
M  END
>  <UniqueID>  (29) 
29

>  <SMILES>  (29) 
CN(C)C(=O)OC(=O)/C=C/C(=O)n1c(C([NH-])=O)cc2ccc(C(F)(F)F)cc21

>  <Energy>  (29) 
76.55536643538558

>  <Genealogy>  (29) 
CN(C)C(=O)OC(=O)C=CC(=O)n1c(C([NH-])=O)cc2ccc(C(F)(F)F)cc21 (protonated)
CN(C)C(=O)OC(=O)/C=C/C(=O)n1c(C([NH-])=O)cc2ccc(C(F)(F)F)cc21 (cis-trans isomerization)
CN(C)C(=O)OC(=O)/C=C/C(=O)n1c(C([NH-])=O)cc2ccc(C(F)(F)F)cc21 (3D coordinates assigned)
CN(C)C(=O)OC(=O)/C=C/C(=O)n1c(C([NH-])=O)cc2ccc(C(F)(F)F)cc21 (optimized conformer: 76.55536643538558 kcal/mol)

>  <smiles>  (29) 
CN(C)C(=O)OC(=O)C=CC(=O)n1c(C(N)=O)cc2ccc(C(F)(F)F)cc21

>  <score_type>  (29) 
oracle

>  <origin>  (29) 
adg

>  <m_score__min__energy>  (29) 
-7.3600000000000003

>  <m_primary>  (29) 
energy

$$$$
29:0
     RDKit          3D

 35 36  0  0  0  0  0  0  0  0999 V2000
  146.1190  153.1580  133.3990 N   0  0  0  0  0  0  0  0  0  0  0  0
  146.3210  154.2490  134.3000 C   0  0  0  0  0  0  0  0  0  0  0  0
  146.1550  154.0630  135.5350 O   0  0  0  0  0  0  0  0  0  0  0  0
  146.7550  155.5720  133.8000 C   0  0  0  0  0  0  0  0  0  0  0  0
  146.0890  156.7640  134.0780 C   0  0  0  0  0  0  0  0  0  0  0  0
  146.7520  157.7290  133.3560 C   0  0  0  0  0  0  0  0  0  0  0  0
  146.5270  159.1000  133.2810 C   0  0  0  0  0  0  0  0  0  0  0  0
  147.3930  159.8670  132.4840 C   0  0  0  0  0  0  0  0  0  0  0  0
  148.4560  159.2550  131.7700 C   0  0  0  0  0  0  0  0  0  0  0  0
  149.4150  160.0990  130.9700 C   0  0  0  0  0  0  0  0  0  0  0  0
  149.3570  161.4050  131.4220 F   0  0  0  0  0  0  0  0  0  0  0  0
  149.0850  160.0720  129.6260 F   0  0  0  0  0  0  0  0  0  0  0  0
  150.7100  159.6320  131.1070 F   0  0  0  0  0  0  0  0  0  0  0  0
  148.6650  157.8620  131.8920 C   0  0  0  0  0  0  0  0  0  0  0  0
  147.7750  157.1190  132.6780 C   0  0  0  0  0  0  0  0  0  0  0  0
  147.7910  155.7920  132.9400 N   0  0  0  0  0  0  0  0  0  0  0  0
  148.7560  154.8350  132.4750 C   0  0  0  0  0  0  0  0  0  0  0  0
  149.9620  155.1790  132.3380 O   0  0  0  0  0  0  0  0  0  0  0  0
  148.3470  153.5250  132.1910 O   0  0  0  0  0  0  0  0  0  0  0  0
  149.0080  152.3650  132.6150 C   0  0  0  0  0  0  0  0  0  0  0  0
  149.6090  152.3210  133.7230 O   0  0  0  0  0  0  0  0  0  0  0  0
  148.9550  151.1420  131.7550 C   0  0  0  0  0  0  0  0  0  0  0  0
  147.6300  150.3970  131.9320 C   0  0  0  0  0  0  0  0  0  0  0  0
  146.5480  151.2860  131.8720 O   0  0  0  0  0  0  0  0  0  0  0  0
  146.1950  153.2870  132.3670 H   0  0  0  0  0  0  0  0  0  0  0  0
  145.8490  152.2190  133.7660 H   0  0  0  0  0  0  0  0  0  0  0  0
  145.2181  156.9036  134.7352 H   0  0  0  0  0  0  0  0  0  0  0  0
  145.6965  159.5690  133.8290 H   0  0  0  0  0  0  0  0  0  0  0  0
  147.2455  160.9547  132.4125 H   0  0  0  0  0  0  0  0  0  0  0  0
  149.5075  157.3728  131.3812 H   0  0  0  0  0  0  0  0  0  0  0  0
  149.0612  151.4396  130.7014 H   0  0  0  0  0  0  0  0  0  0  0  0
  149.7740  150.4710  132.0534 H   0  0  0  0  0  0  0  0  0  0  0  0
  147.5271  149.6489  131.1321 H   0  0  0  0  0  0  0  0  0  0  0  0
  147.6297  149.9067  132.9167 H   0  0  0  0  0  0  0  0  0  0  0  0
  146.8850  152.1240  131.4610 H   0  0  0  0  0  0  0  0  0  0  0  0
  1  2  1  0
  2  3  2  0
  2  4  1  0
  4  5  2  0
  5  6  1  0
  6  7  2  0
  7  8  1  0
  8  9  2  0
  9 10  1  0
 10 11  1  0
 10 12  1  0
 10 13  1  0
  9 14  1  0
 14 15  2  0
 15 16  1  0
 16 17  1  0
 17 18  2  0
 17 19  1  0
 19 20  1  0
 20 21  2  0
 20 22  1  0
 22 23  1  0
 23 24  1  0
 16  4  1  0
 15  6  1  0
  1 25  1  0
  1 26  1  0
  5 27  1  0
  7 28  1  0
  8 29  1  0
 14 30  1  0
 22 31  1  0
 22 32  1  0
 23 33  1  0
 23 34  1  0
 24 35  1  0
M  END
>  <UniqueID>  (30) 
30

>  <SMILES>  (30) 
NC(=O)c1cc2ccc(C(F)(F)F)cc2n1C(=O)OC(=O)CCO

>  <Energy>  (30) 
71.85943993674479

>  <Genealogy>  (30) 
NC(=O)c1cc2ccc(C(F)(F)F)cc2n1C(=O)OC(=O)CCO (3D coordinates assigned)
NC(=O)c1cc2ccc(C(F)(F)F)cc2n1C(=O)OC(=O)CCO (optimized conformer: 71.85943993674479 kcal/mol)

>  <smiles>  (30) 
NC(=O)c1cc2ccc(C(F)(F)F)cc2n1C(=O)OC(=O)CCO

>  <score_type>  (30) 
oracle

>  <origin>  (30) 
adg

>  <m_score__min__energy>  (30) 
-6.0099999999999998

>  <m_primary>  (30) 
energy

$$$$
30:0
     RDKit          3D

 34 35  0  0  0  0  0  0  0  0999 V2000
  149.3950  157.4790  132.2260 C   0  0  0  0  0  0  0  0  0  0  0  0
  148.2500  158.3480  132.6550 C   0  0  0  0  0  0  0  0  0  0  0  0
  148.4530  159.7330  132.8790 C   0  0  0  0  0  0  0  0  0  0  0  0
  147.3810  160.5630  133.2520 C   0  0  0  0  0  0  0  0  0  0  0  0
  146.1230  159.9840  133.3800 C   0  0  0  0  0  0  0  0  0  0  0  0
  144.9140  160.5450  133.7320 C   0  0  0  0  0  0  0  0  0  0  0  0
  143.9950  159.4970  133.6960 C   0  0  0  0  0  0  0  0  0  0  0  0
  142.5510  159.6540  133.9750 C   0  0  0  0  0  0  0  0  0  0  0  0
  141.5750  159.3810  132.9740 N   0  0  0  0  0  0  0  0  0  0  0  0
  142.1740  160.0420  135.1130 O   0  0  0  0  0  0  0  0  0  0  0  0
  144.6150  158.3370  133.3440 N   0  0  0  0  0  0  0  0  0  0  0  0
  144.0350  157.0340  133.1940 C   0  0  0  0  0  0  0  0  0  0  0  0
  142.8920  156.9320  132.6730 O   0  0  0  0  0  0  0  0  0  0  0  0
  144.7540  155.8520  133.6050 N   0  0  0  0  0  0  0  0  0  0  0  0
  145.3080  154.9630  132.5780 C   0  0  0  0  0  0  0  0  0  0  0  0
  144.9670  155.5590  135.0290 C   0  0  0  0  0  0  0  0  0  0  0  0
  146.3320  154.9870  135.2470 C   0  0  0  0  0  0  0  0  0  0  0  0
  147.3510  155.6070  134.8440 O   0  0  0  0  0  0  0  0  0  0  0  0
  146.4800  153.7610  135.8830 O   0  0  0  0  0  0  0  0  0  0  0  0
  145.9100  158.6510  133.1470 C   0  0  0  0  0  0  0  0  0  0  0  0
  146.9550  157.7990  132.7780 C   0  0  0  0  0  0  0  0  0  0  0  0
  149.9111  157.0873  133.1149 H   0  0  0  0  0  0  0  0  0  0  0  0
  149.0138  156.6408  131.6242 H   0  0  0  0  0  0  0  0  0  0  0  0
  150.0997  158.0717  131.6242 H   0  0  0  0  0  0  0  0  0  0  0  0
  149.4587  160.1625  132.7599 H   0  0  0  0  0  0  0  0  0  0  0  0
  147.5326  161.6367  133.4368 H   0  0  0  0  0  0  0  0  0  0  0  0
  144.7162  161.5965  133.9872 H   0  0  0  0  0  0  0  0  0  0  0  0
  141.7970  158.7660  132.1600 H   0  0  0  0  0  0  0  0  0  0  0  0
  145.8305  154.1246  133.0619 H   0  0  0  0  0  0  0  0  0  0  0  0
  144.4922  154.5739  131.9510 H   0  0  0  0  0  0  0  0  0  0  0  0
  146.0167  155.5239  131.9510 H   0  0  0  0  0  0  0  0  0  0  0  0
  144.8670  156.4884  135.6089 H   0  0  0  0  0  0  0  0  0  0  0  0
  144.2166  154.8249  135.3576 H   0  0  0  0  0  0  0  0  0  0  0  0
  146.7735  156.7307  132.5888 H   0  0  0  0  0  0  0  0  0  0  0  0
  1  2  1  0
  2  3  2  0
  3  4  1  0
  4  5  2  0
  5  6  1  0
  6  7  2  0
  7  8  1  0
  8  9  1  0
  8 10  2  0
  7 11  1  0
 11 12  1  0
 12 13  2  0
 12 14  1  0
 14 15  1  0
 14 16  1  0
 16 17  1  0
 17 18  2  0
 17 19  1  0
 11 20  1  0
 20 21  2  0
 21  2  1  0
 20  5  1  0
  1 22  1  0
  1 23  1  0
  1 24  1  0
  3 25  1  0
  4 26  1  0
  6 27  1  0
  9 28  1  0
 15 29  1  0
 15 30  1  0
 15 31  1  0
 16 32  1  0
 16 33  1  0
 21 34  1  0
M  CHG  2   9  -1  19  -1
M  END
>  <UniqueID>  (31) 
31

>  <SMILES>  (31) 
Cc1ccc2cc(C([NH-])=O)n(C(=O)N(C)CC(=O)[O-])c2c1

>  <Energy>  (31) 
69.49371681669814

>  <Genealogy>  (31) 
Cc1ccc2cc(C([NH-])=O)n(C(=O)N(C)CC(=O)[O-])c2c1 (protonated)
Cc1ccc2cc(C([NH-])=O)n(C(=O)N(C)CC(=O)[O-])c2c1 (3D coordinates assigned)
Cc1ccc2cc(C([NH-])=O)n(C(=O)N(C)CC(=O)[O-])c2c1 (optimized conformer: 69.49371681669814 kcal/mol)

>  <smiles>  (31) 
Cc1ccc2cc(C(N)=O)n(C(=O)N(C)CC(=O)O)c2c1

>  <score_type>  (31) 
oracle

>  <origin>  (31) 
adg

>  <m_score__min__energy>  (31) 
-6.2599999999999998

>  <m_primary>  (31) 
energy

$$$$
31:0
     RDKit          3D

 42 44  0  0  0  0  0  0  0  0999 V2000
  149.7980  159.1350  131.2120 C   0  0  0  0  0  0  0  0  0  0  0  0
  148.8760  158.4710  132.1880 C   0  0  0  0  0  0  0  0  0  0  0  0
  147.8740  159.2210  132.8520 C   0  0  0  0  0  0  0  0  0  0  0  0
  146.9770  158.5920  133.7300 C   0  0  0  0  0  0  0  0  0  0  0  0
  147.0990  157.2190  133.9180 C   0  0  0  0  0  0  0  0  0  0  0  0
  146.3280  156.3560  134.6630 C   0  0  0  0  0  0  0  0  0  0  0  0
  146.8750  155.0930  134.4460 C   0  0  0  0  0  0  0  0  0  0  0  0
  146.3600  153.8600  135.0760 C   0  0  0  0  0  0  0  0  0  0  0  0
  145.4770  152.9890  134.3720 N   0  0  0  0  0  0  0  0  0  0  0  0
  146.7380  153.5540  136.2420 O   0  0  0  0  0  0  0  0  0  0  0  0
  147.9470  155.1740  133.6080 N   0  0  0  0  0  0  0  0  0  0  0  0
  148.7080  154.0820  133.0640 C   0  0  0  0  0  0  0  0  0  0  0  0
  149.7100  154.3310  132.3370 O   0  0  0  0  0  0  0  0  0  0  0  0
  148.3140  152.7110  133.3170 N   0  0  1  0  0  0  0  0  0  0  0  0
  147.5720  152.1980  132.1420 C   0  0  0  0  0  0  0  0  0  0  0  0
  147.3180  150.6880  132.2370 C   0  0  0  0  0  0  0  0  0  0  0  0
  148.6000  149.8710  132.4920 C   0  0  0  0  0  0  0  0  0  0  0  0
  149.8390  150.7390  132.7570 C   0  0  1  0  0  0  0  0  0  0  0  0
  150.3870  151.2540  131.4990 N   0  0  0  0  0  0  0  0  0  0  0  0
  149.4890  151.8840  133.7290 C   0  0  0  0  0  0  0  0  0  0  0  0
  148.0660  156.4800  133.2870 C   0  0  0  0  0  0  0  0  0  0  0  0
  148.9630  157.0780  132.3960 C   0  0  0  0  0  0  0  0  0  0  0  0
  150.5721  159.6925  131.7598 H   0  0  0  0  0  0  0  0  0  0  0  0
  150.2744  158.3713  130.5797 H   0  0  0  0  0  0  0  0  0  0  0  0
  149.2246  159.8289  130.5797 H   0  0  0  0  0  0  0  0  0  0  0  0
  147.7983  160.3045  132.6783 H   0  0  0  0  0  0  0  0  0  0  0  0
  146.2002  159.1681  134.2541 H   0  0  0  0  0  0  0  0  0  0  0  0
  145.4641  156.6093  135.2950 H   0  0  0  0  0  0  0  0  0  0  0  0
  145.8500  152.2370  133.7530 H   0  0  0  0  0  0  0  0  0  0  0  0
  147.6380  152.7190  134.1190 H   0  0  0  0  0  0  0  0  0  0  0  0
  146.6045  152.7175  132.0784 H   0  0  0  0  0  0  0  0  0  0  0  0
  148.1832  152.3840  131.2465 H   0  0  0  0  0  0  0  0  0  0  0  0
  146.6155  150.5030  133.0630 H   0  0  0  0  0  0  0  0  0  0  0  0
  146.9112  150.3635  131.2679 H   0  0  0  0  0  0  0  0  0  0  0  0
  148.4332  149.2262  133.3675 H   0  0  0  0  0  0  0  0  0  0  0  0
  148.8009  149.2920  131.5786 H   0  0  0  0  0  0  0  0  0  0  0  0
  150.6148  150.1174  133.2280 H   0  0  0  0  0  0  0  0  0  0  0  0
  151.4170  151.0860  131.4940 H   0  0  0  0  0  0  0  0  0  0  0  0
  150.2890  152.2940  131.4850 H   0  0  0  0  0  0  0  0  0  0  0  0
  149.2710  151.4442  134.7134 H   0  0  0  0  0  0  0  0  0  0  0  0
  150.3572  152.5593  133.7416 H   0  0  0  0  0  0  0  0  0  0  0  0
  149.7187  156.4765  131.8696 H   0  0  0  0  0  0  0  0  0  0  0  0
  1  2  1  0
  2  3  2  0
  3  4  1  0
  4  5  2  0
  5  6  1  0
  6  7  2  0
  7  8  1  0
  8  9  1  0
  8 10  2  0
  7 11  1  0
 11 12  1  0
 12 13  2  0
 12 14  1  0
 14 15  1  0
 15 16  1  0
 16 17  1  0
 17 18  1  0
 18 19  1  0
 18 20  1  0
 11 21  1  0
 21 22  2  0
 22  2  1  0
 21  5  1  0
 20 14  1  0
  1 23  1  0
  1 24  1  0
  1 25  1  0
  3 26  1  0
  4 27  1  0
  6 28  1  0
  9 29  1  0
 14 30  1  1
 15 31  1  0
 15 32  1  0
 16 33  1  0
 16 34  1  0
 17 35  1  0
 17 36  1  0
 18 37  1  1
 19 38  1  0
 19 39  1  0
 20 40  1  0
 20 41  1  0
 22 42  1  0
M  CHG  2   9  -1  14   1
M  END
>  <UniqueID>  (32) 
32

>  <SMILES>  (32) 
Cc1ccc2cc(C([NH-])=O)n(C(=O)[N@H+]3CCC[C@@H](N)C3)c2c1

>  <Energy>  (32) 
92.61597751679828

>  <Genealogy>  (32) 
Cc1ccc2cc(C([NH-])=O)n(C(=O)[NH+]3CCC[C@@H](N)C3)c2c1 (protonated)
Cc1ccc2cc(C([NH-])=O)n(C(=O)[N@H+]3CCC[C@@H](N)C3)c2c1 (chirality)
Cc1ccc2cc(C([NH-])=O)n(C(=O)[N@H+]3CCC[C@@H](N)C3)c2c1 (3D coordinates assigned)
Cc1ccc2cc(C([NH-])=O)n(C(=O)[N@H+]3CCC[C@@H](N)C3)c2c1 (nonaromatic ring conformer: 92.61597751679828 kcal/mol)

>  <smiles>  (32) 
Cc1ccc2cc(C(N)=O)n(C(=O)N3CCC[C@@H](N)C3)c2c1

>  <score_type>  (32) 
oracle

>  <origin>  (32) 
adg

>  <m_score__min__energy>  (32) 
-7.7000000000000002

>  <m_primary>  (32) 
energy

$$$$
32:0
     RDKit          3D

 41 42  0  0  0  0  0  0  0  0999 V2000
  138.7580  160.7750  130.4420 C   0  0  0  0  0  0  0  0  0  0  0  0
  137.5410  160.1950  130.8590 O   0  0  0  0  0  0  0  0  0  0  0  0
  137.7960  158.9750  131.5240 C   0  0  0  0  0  0  0  0  0  0  0  0
  139.1270  158.9660  132.0340 O   0  0  0  0  0  0  0  0  0  0  0  0
  139.5930  157.9870  132.9150 C   0  0  0  0  0  0  0  0  0  0  0  0
  139.5610  156.7660  132.5980 O   0  0  0  0  0  0  0  0  0  0  0  0
  140.1780  158.4020  134.2270 C   0  0  0  0  0  0  0  0  0  0  0  0
  141.5790  158.9060  134.0230 C   0  0  0  0  0  0  0  0  0  0  0  0
  141.8270  160.2960  133.8990 C   0  0  0  0  0  0  0  0  0  0  0  0
  143.1380  160.7760  133.7430 C   0  0  0  0  0  0  0  0  0  0  0  0
  144.1770  159.8490  133.7390 C   0  0  0  0  0  0  0  0  0  0  0  0
  145.5310  160.0400  133.5940 C   0  0  0  0  0  0  0  0  0  0  0  0
  146.0930  158.7680  133.6790 C   0  0  0  0  0  0  0  0  0  0  0  0
  147.5480  158.5210  133.6530 C   0  0  0  0  0  0  0  0  0  0  0  0
  148.1320  157.4570  134.4070 N   0  0  0  0  0  0  0  0  0  0  0  0
  148.2970  159.2970  133.0010 O   0  0  0  0  0  0  0  0  0  0  0  0
  145.1250  157.8250  133.8520 N   0  0  0  0  0  0  0  0  0  0  0  0
  145.2890  156.3970  133.8850 C   0  0  0  0  0  0  0  0  0  0  0  0
  145.0390  155.7110  132.8560 O   0  0  0  0  0  0  0  0  0  0  0  0
  145.7190  155.7720  135.0620 O   0  0  0  0  0  0  0  0  0  0  0  0
  146.0760  154.3940  135.1340 C   0  0  0  0  0  0  0  0  0  0  0  0
  147.1820  154.1970  136.1200 C   0  0  0  0  0  0  0  0  0  0  0  0
  147.2810  153.1140  136.7550 O   0  0  0  0  0  0  0  0  0  0  0  0
  148.1260  155.1970  136.3130 O   0  0  0  0  0  0  0  0  0  0  0  0
  143.9570  158.5030  133.8890 C   0  0  0  0  0  0  0  0  0  0  0  0
  142.6570  157.9960  134.0140 C   0  0  0  0  0  0  0  0  0  0  0  0
  139.3509  161.0575  131.3244 H   0  0  0  0  0  0  0  0  0  0  0  0
  139.3223  160.0490  129.8383 H   0  0  0  0  0  0  0  0  0  0  0  0
  138.5495  161.6706  129.8383 H   0  0  0  0  0  0  0  0  0  0  0  0
  137.0863  158.8587  132.3564 H   0  0  0  0  0  0  0  0  0  0  0  0
  137.6766  158.1445  130.8127 H   0  0  0  0  0  0  0  0  0  0  0  0
  139.5624  159.2016  134.6648 H   0  0  0  0  0  0  0  0  0  0  0  0
  140.1986  157.5365  134.9056 H   0  0  0  0  0  0  0  0  0  0  0  0
  140.9861  161.0047  133.9251 H   0  0  0  0  0  0  0  0  0  0  0  0
  143.3377  161.8515  133.6275 H   0  0  0  0  0  0  0  0  0  0  0  0
  146.0580  160.9937  133.4431 H   0  0  0  0  0  0  0  0  0  0  0  0
  147.5640  156.9010  135.0840 H   0  0  0  0  0  0  0  0  0  0  0  0
  149.1610  157.2840  134.3600 H   0  0  0  0  0  0  0  0  0  0  0  0
  145.2001  153.8079  135.4490 H   0  0  0  0  0  0  0  0  0  0  0  0
  146.4157  154.0595  134.1427 H   0  0  0  0  0  0  0  0  0  0  0  0
  142.4809  156.9138  134.1031 H   0  0  0  0  0  0  0  0  0  0  0  0
  1  2  1  0
  2  3  1  0
  3  4  1  0
  4  5  1  0
  5  6  2  0
  5  7  1  0
  7  8  1  0
  8  9  2  0
  9 10  1  0
 10 11  2  0
 11 12  1  0
 12 13  2  0
 13 14  1  0
 14 15  1  0
 14 16  2  0
 13 17  1  0
 17 18  1  0
 18 19  2  0
 18 20  1  0
 20 21  1  0
 21 22  1  0
 22 23  2  0
 22 24  1  0
 17 25  1  0
 25 26  2  0
 26  8  1  0
 25 11  1  0
  1 27  1  0
  1 28  1  0
  1 29  1  0
  3 30  1  0
  3 31  1  0
  7 32  1  0
  7 33  1  0
  9 34  1  0
 10 35  1  0
 12 36  1  0
 15 37  1  0
 15 38  1  0
 21 39  1  0
 21 40  1  0
 26 41  1  0
M  CHG  1  24  -1
M  END
>  <UniqueID>  (33) 
33

>  <SMILES>  (33) 
COCOC(=O)Cc1ccc2cc(C(N)=O)n(C(=O)OCC(=O)[O-])c2c1

>  <Energy>  (33) 
75.09374133235973

>  <Genealogy>  (33) 
COCOC(=O)Cc1ccc2cc(C(N)=O)n(C(=O)OCC(=O)[O-])c2c1 (protonated)
COCOC(=O)Cc1ccc2cc(C(N)=O)n(C(=O)OCC(=O)[O-])c2c1 (3D coordinates assigned)
COCOC(=O)Cc1ccc2cc(C(N)=O)n(C(=O)OCC(=O)[O-])c2c1 (optimized conformer: 75.09374133235973 kcal/mol)

>  <smiles>  (33) 
COCOC(=O)Cc1ccc2cc(C(N)=O)n(C(=O)OCC(=O)O)c2c1

>  <score_type>  (33) 
oracle

>  <origin>  (33) 
adg

>  <m_score__min__energy>  (33) 
-6.4800000000000004

>  <m_primary>  (33) 
energy

$$$$
33:0
     RDKit          3D

 37 38  0  0  0  0  0  0  0  0999 V2000
  146.3110  152.2560  133.7940 H   0  0  0  0  0  0  0  0  0  0  0  0
  145.9400  153.2180  133.9560 N   0  0  0  0  0  0  0  0  0  0  0  0
  146.6780  154.1710  134.7150 C   0  0  0  0  0  0  0  0  0  0  0  0
  147.0990  153.8560  135.8590 O   0  0  0  0  0  0  0  0  0  0  0  0
  146.9650  155.5050  134.1430 C   0  0  0  0  0  0  0  0  0  0  0  0
  146.2580  156.6580  134.4770 C   0  0  0  0  0  0  0  0  0  0  0  0
  145.4454  156.7525  135.2123 H   0  0  0  0  0  0  0  0  0  0  0  0
  146.7920  157.6530  133.6920 C   0  0  0  0  0  0  0  0  0  0  0  0
  146.4750  159.0050  133.6230 C   0  0  0  0  0  0  0  0  0  0  0  0
  145.6717  159.4307  134.2422 H   0  0  0  0  0  0  0  0  0  0  0  0
  147.2120  159.8120  132.7380 C   0  0  0  0  0  0  0  0  0  0  0  0
  146.9764  160.8836  132.6595 H   0  0  0  0  0  0  0  0  0  0  0  0
  148.2580  159.2650  131.9420 C   0  0  0  0  0  0  0  0  0  0  0  0
  149.0190  160.1080  131.0380 N   0  0  0  0  0  0  0  0  0  0  0  0
  149.9710  159.5180  130.0900 C   0  0  0  0  0  0  0  0  0  0  0  0
  150.7784  159.0176  130.6447 H   0  0  0  0  0  0  0  0  0  0  0  0
  149.4510  158.7836  129.4573 H   0  0  0  0  0  0  0  0  0  0  0  0
  150.3973  160.3105  129.4573 H   0  0  0  0  0  0  0  0  0  0  0  0
  148.8490  161.5660  131.0580 C   0  0  0  0  0  0  0  0  0  0  0  0
  148.8082  161.9161  132.1000 H   0  0  0  0  0  0  0  0  0  0  0  0
  149.6978  162.0412  130.5445 H   0  0  0  0  0  0  0  0  0  0  0  0
  147.9136  161.8332  130.5445 H   0  0  0  0  0  0  0  0  0  0  0  0
  148.5450  157.8790  132.0520 C   0  0  0  0  0  0  0  0  0  0  0  0
  149.3549  157.4265  131.4609 H   0  0  0  0  0  0  0  0  0  0  0  0
  147.7800  157.0990  132.9250 C   0  0  0  0  0  0  0  0  0  0  0  0
  147.8980  155.7790  133.1890 N   0  0  0  0  0  0  0  0  0  0  0  0
  148.8550  154.8750  132.6120 C   0  0  0  0  0  0  0  0  0  0  0  0
  149.9810  155.3100  132.2490 O   0  0  0  0  0  0  0  0  0  0  0  0
  148.5170  153.4480  132.4530 C   0  0  0  0  0  0  0  0  0  0  0  0
  147.5940  153.1792  131.9184 H   0  0  0  0  0  0  0  0  0  0  0  0
  149.2900  152.4690  132.9340 C   0  0  0  0  0  0  0  0  0  0  0  0
  150.2135  152.7219  133.4755 H   0  0  0  0  0  0  0  0  0  0  0  0
  148.9130  151.0310  132.7440 C   0  0  0  0  0  0  0  0  0  0  0  0
  149.4135  150.6409  131.8455 H   0  0  0  0  0  0  0  0  0  0  0  0
  149.2272  150.4601  133.6302 H   0  0  0  0  0  0  0  0  0  0  0  0
  147.5260  150.9050  132.5910 O   0  0  0  0  0  0  0  0  0  0  0  0
  147.1110  151.4770  133.2890 H   0  0  0  0  0  0  0  0  0  0  0  0
  1  2  1  0
  2  3  1  0
  3  4  2  0
  3  5  1  0
  5  6  2  0
  6  7  1  0
  6  8  1  0
  8  9  2  0
  9 10  1  0
  9 11  1  0
 11 12  1  0
 11 13  2  0
 13 14  1  0
 14 15  1  0
 15 16  1  0
 15 17  1  0
 15 18  1  0
 14 19  1  0
 19 20  1  0
 19 21  1  0
 19 22  1  0
 13 23  1  0
 23 24  1  0
 23 25  2  0
 25 26  1  0
 26 27  1  0
 27 28  2  0
 27 29  1  0
 29 30  1  0
 29 31  2  0
 31 32  1  0
 31 33  1  0
 33 34  1  0
 33 35  1  0
 33 36  1  0
 36 37  1  0
 26  5  1  0
 25  8  1  0
M  CHG  1   2  -1
M  END
>  <UniqueID>  (34) 
34

>  <SMILES>  (34) 
CN(C)c1ccc2cc(C([NH-])=O)n(C(=O)/C=C/CO)c2c1

>  <Energy>  (34) 
74.17624885812717

>  <Genealogy>  (34) 
CN(C)c1ccc2cc(C([NH-])=O)n(C(=O)/C=C/CO)c2c1 (protonated)
CN(C)c1ccc2cc(C([NH-])=O)n(C(=O)/C=C/CO)c2c1 (cis-trans isomerization)
CN(C)c1ccc2cc(C([NH-])=O)n(C(=O)/C=C/CO)c2c1 (3D coordinates assigned)
CN(C)c1ccc2cc(C([NH-])=O)n(C(=O)/C=C/CO)c2c1 (optimized conformer: 74.17624885812717 kcal/mol)

>  <smiles>  (34) 
CN(C)c1ccc2cc(C(N)=O)n(C(=O)/C=C/CO)c2c1

>  <score_type>  (34) 
oracle

>  <origin>  (34) 
adg

>  <m_score__min__energy>  (34) 
-6.4400000000000004

>  <m_primary>  (34) 
energy

$$$$
34:0
     RDKit          3D

 54 56  0  0  0  0  0  0  0  0999 V2000
  140.7140  158.6020  131.8690 C   0  0  0  0  0  0  0  0  0  0  0  0
  139.6270  159.1320  132.8170 C   0  0  0  0  0  0  0  0  0  0  0  0
  138.7790  160.1750  132.0650 C   0  0  0  0  0  0  0  0  0  0  0  0
  138.7520  157.9510  133.2790 C   0  0  0  0  0  0  0  0  0  0  0  0
  140.2960  159.7330  133.9360 O   0  0  0  0  0  0  0  0  0  0  0  0
  140.9580  159.0550  134.9710 C   0  0  0  0  0  0  0  0  0  0  0  0
  140.3100  158.4730  135.8820 O   0  0  0  0  0  0  0  0  0  0  0  0
  142.3580  159.0390  134.9640 O   0  0  0  0  0  0  0  0  0  0  0  0
  143.1520  158.3120  134.0660 C   0  0  0  0  0  0  0  0  0  0  0  0
  142.7160  157.2610  133.5230 O   0  0  0  0  0  0  0  0  0  0  0  0
  144.4860  158.7590  133.7830 N   0  0  0  0  0  0  0  0  0  0  0  0
  144.9370  160.0430  133.7140 C   0  0  0  0  0  0  0  0  0  0  0  0
  144.1000  161.2600  133.7480 C   0  0  0  0  0  0  0  0  0  0  0  0
  142.7030  161.1980  133.4690 N   0  0  0  0  0  0  0  0  0  0  0  0
  144.6330  162.3790  133.9800 O   0  0  0  0  0  0  0  0  0  0  0  0
  146.3170  160.0690  133.5210 C   0  0  0  0  0  0  0  0  0  0  0  0
  146.7000  158.7480  133.4640 C   0  0  0  0  0  0  0  0  0  0  0  0
  147.9630  158.1910  133.2950 C   0  0  0  0  0  0  0  0  0  0  0  0
  148.0720  156.7900  133.3060 C   0  0  0  0  0  0  0  0  0  0  0  0
  146.9270  155.9740  133.4980 C   0  0  0  0  0  0  0  0  0  0  0  0
  147.0520  154.5390  133.5060 N   0  0  0  0  0  0  0  0  0  0  0  0
  148.1230  153.8780  134.2630 C   0  0  0  0  0  0  0  0  0  0  0  0
  148.8580  152.8400  133.3880 C   0  0  0  0  0  0  0  0  0  0  0  0
  148.0480  152.3730  132.2340 N   0  0  0  0  0  0  0  0  0  0  0  0
  148.5300  151.0940  131.7710 C   0  0  0  0  0  0  0  0  0  0  0  0
  148.0180  150.0210  132.1950 O   0  0  0  0  0  0  0  0  0  0  0  0
  149.5850  151.0330  130.8680 O   0  0  0  0  0  0  0  0  0  0  0  0
  146.6100  152.2990  132.5570 C   0  0  0  0  0  0  0  0  0  0  0  0
  146.0560  153.7080  132.8180 C   0  0  0  0  0  0  0  0  0  0  0  0
  145.6590  156.5800  133.6580 C   0  0  0  0  0  0  0  0  0  0  0  0
  145.5780  157.9780  133.6250 C   0  0  0  0  0  0  0  0  0  0  0  0
  141.5485  158.1951  132.4590 H   0  0  0  0  0  0  0  0  0  0  0  0
  140.2922  157.8084  131.2347 H   0  0  0  0  0  0  0  0  0  0  0  0
  141.0795  159.4230  131.2347 H   0  0  0  0  0  0  0  0  0  0  0  0
  138.2577  160.8162  132.7911 H   0  0  0  0  0  0  0  0  0  0  0  0
  139.4337  160.7934  131.4334 H   0  0  0  0  0  0  0  0  0  0  0  0
  138.0400  159.6603  131.4334 H   0  0  0  0  0  0  0  0  0  0  0  0
  138.7289  157.9198  134.3783 H   0  0  0  0  0  0  0  0  0  0  0  0
  137.7295  158.0797  132.8943 H   0  0  0  0  0  0  0  0  0  0  0  0
  139.1729  157.0103  132.8943 H   0  0  0  0  0  0  0  0  0  0  0  0
  142.2470  160.2960  133.2090 H   0  0  0  0  0  0  0  0  0  0  0  0
  146.9622  160.9555  133.4330 H   0  0  0  0  0  0  0  0  0  0  0  0
  148.8494  158.8275  133.1569 H   0  0  0  0  0  0  0  0  0  0  0  0
  149.0565  156.3203  133.1641 H   0  0  0  0  0  0  0  0  0  0  0  0
  148.8435  154.6361  134.6039 H   0  0  0  0  0  0  0  0  0  0  0  0
  147.6755  153.3582  135.1230 H   0  0  0  0  0  0  0  0  0  0  0  0
  149.7824  153.2968  133.0049 H   0  0  0  0  0  0  0  0  0  0  0  0
  149.0632  151.9639  134.0208 H   0  0  0  0  0  0  0  0  0  0  0  0
  148.1710  153.0580  131.4470 H   0  0  0  0  0  0  0  0  0  0  0  0
  146.0700  151.8461  131.7125 H   0  0  0  0  0  0  0  0  0  0  0  0
  146.4742  151.6851  133.4596 H   0  0  0  0  0  0  0  0  0  0  0  0
  145.7959  154.1771  131.8577 H   0  0  0  0  0  0  0  0  0  0  0  0
  145.1641  153.6243  133.4564 H   0  0  0  0  0  0  0  0  0  0  0  0
  144.7572  155.9675  133.8050 H   0  0  0  0  0  0  0  0  0  0  0  0
  1  2  1  0
  2  3  1  0
  2  4  1  0
  2  5  1  0
  5  6  1  0
  6  7  2  0
  6  8  1  0
  8  9  1  0
  9 10  2  0
  9 11  1  0
 11 12  1  0
 12 13  1  0
 13 14  1  0
 13 15  2  0
 12 16  2  0
 16 17  1  0
 17 18  2  0
 18 19  1  0
 19 20  2  0
 20 21  1  0
 21 22  1  0
 22 23  1  0
 23 24  1  0
 24 25  1  0
 25 26  2  0
 25 27  1  0
 24 28  1  0
 28 29  1  0
 20 30  1  0
 30 31  2  0
 31 11  1  0
 31 17  1  0
 29 21  1  0
  1 32  1  0
  1 33  1  0
  1 34  1  0
  3 35  1  0
  3 36  1  0
  3 37  1  0
  4 38  1  0
  4 39  1  0
  4 40  1  0
 14 41  1  0
 16 42  1  0
 18 43  1  0
 19 44  1  0
 22 45  1  0
 22 46  1  0
 23 47  1  0
 23 48  1  0
 24 49  1  0
 28 50  1  0
 28 51  1  0
 29 52  1  0
 29 53  1  0
 30 54  1  0
M  CHG  3  14  -1  24   1  27  -1
M  END
>  <UniqueID>  (35) 
35

>  <SMILES>  (35) 
CC(C)(C)OC(=O)OC(=O)n1c(C([NH-])=O)cc2ccc(N3CC[NH+](C(=O)[O-])CC3)cc21

>  <Energy>  (35) 
102.50380085982238

>  <Genealogy>  (35) 
CC(C)(C)OC(=O)OC(=O)n1c(C([NH-])=O)cc2ccc(N3CC[NH+](C(=O)[O-])CC3)cc21 (protonated)
CC(C)(C)OC(=O)OC(=O)n1c(C([NH-])=O)cc2ccc(N3CC[NH+](C(=O)[O-])CC3)cc21 (3D coordinates assigned)
CC(C)(C)OC(=O)OC(=O)n1c(C([NH-])=O)cc2ccc(N3CC[NH+](C(=O)[O-])CC3)cc21 (nonaromatic ring conformer: 102.50380085982238 kcal/mol)

>  <smiles>  (35) 
CC(C)(C)OC(=O)OC(=O)n1c(C(N)=O)cc2ccc(N3CCN(C(=O)O)CC3)cc21

>  <score_type>  (35) 
oracle

>  <origin>  (35) 
adg

>  <m_score__min__energy>  (35) 
-7.6799999999999997

>  <m_primary>  (35) 
energy

$$$$
35:0
     RDKit          3D

 63 67  0  0  0  0  0  0  0  0999 V2000
  143.0070  160.4700  133.7710 C   0  0  0  0  0  0  0  0  0  0  0  0
  144.1260  159.5970  133.8640 O   0  0  0  0  0  0  0  0  0  0  0  0
  144.0710  158.2590  133.4680 C   0  0  0  0  0  0  0  0  0  0  0  0
  143.2210  157.8780  132.6160 O   0  0  0  0  0  0  0  0  0  0  0  0
  144.9700  157.3490  134.0340 O   0  0  0  0  0  0  0  0  0  0  0  0
  146.2400  157.0340  133.4630 C   0  0  1  0  0  0  0  0  0  0  0  0
  147.2220  158.1810  133.7150 C   0  0  0  0  0  0  0  0  0  0  0  0
  146.7240  155.8400  134.0750 O   0  0  0  0  0  0  0  0  0  0  0  0
  147.3790  154.8190  133.3750 C   0  0  0  0  0  0  0  0  0  0  0  0
  148.5970  154.9390  133.0680 O   0  0  0  0  0  0  0  0  0  0  0  0
  146.6530  153.6400  132.9900 N   0  0  0  0  0  0  0  0  0  0  0  0
  147.1700  152.4550  132.5630 C   0  0  0  0  0  0  0  0  0  0  0  0
  148.5940  152.2020  132.2510 C   0  0  0  0  0  0  0  0  0  0  0  0
  149.3600  153.1570  131.5160 N   0  0  0  0  0  0  0  0  0  0  0  0
  149.1550  151.1520  132.6630 O   0  0  0  0  0  0  0  0  0  0  0  0
  146.1550  151.5230  132.3580 C   0  0  0  0  0  0  0  0  0  0  0  0
  144.9880  152.1810  132.6740 C   0  0  0  0  0  0  0  0  0  0  0  0
  143.6740  151.7270  132.6550 C   0  0  0  0  0  0  0  0  0  0  0  0
  142.6630  152.6160  133.0560 C   0  0  0  0  0  0  0  0  0  0  0  0
  142.9790  153.9350  133.4770 C   0  0  0  0  0  0  0  0  0  0  0  0
  141.9030  154.8600  133.9140 C   0  0  0  0  0  0  0  0  0  0  0  0
  140.6640  155.0600  133.3230 C   0  0  0  0  0  0  0  0  0  0  0  0
  139.9830  155.9940  134.0150 N   0  0  0  0  0  0  0  0  0  0  0  0
  140.7460  156.3780  135.0260 N   0  0  0  0  0  0  0  0  0  0  0  0
  140.3670  157.4140  135.9840 C   0  0  0  0  0  0  0  0  0  0  0  0
  140.2620  158.7630  135.3200 C   0  0  0  0  0  0  0  0  0  0  0  0
  140.8630  159.7570  135.8110 O   0  0  0  0  0  0  0  0  0  0  0  0
  139.4470  158.9590  134.1570 N   0  0  0  0  0  0  0  0  0  0  0  0
  139.9530  159.0520  132.7870 C   0  0  2  0  0  0  0  0  0  0  0  0
  139.8110  160.4820  132.2630 C   0  0  0  0  0  0  0  0  0  0  0  0
  138.5110  160.5330  131.4710 C   0  0  1  0  0  0  0  0  0  0  0  0
  138.5470  159.9590  130.0620 C   0  0  0  0  0  0  0  0  0  0  0  0
  138.0680  159.1030  131.2250 C   0  0  1  0  0  0  0  0  0  0  0  0
  139.0990  158.1840  131.8660 C   0  0  0  0  0  0  0  0  0  0  0  0
  141.9210  155.7230  134.9950 C   0  0  0  0  0  0  0  0  0  0  0  0
  144.3310  154.3560  133.4810 C   0  0  0  0  0  0  0  0  0  0  0  0
  145.3140  153.4560  133.0560 C   0  0  0  0  0  0  0  0  0  0  0  0
  142.6651  160.7368  134.7819 H   0  0  0  0  0  0  0  0  0  0  0  0
  143.2977  161.3823  133.2296 H   0  0  0  0  0  0  0  0  0  0  0  0
  142.1928  159.9661  133.2296 H   0  0  0  0  0  0  0  0  0  0  0  0
  146.1403  156.8889  132.3772 H   0  0  0  0  0  0  0  0  0  0  0  0
  147.3462  158.3260  134.7983 H   0  0  0  0  0  0  0  0  0  0  0  0
  148.1950  157.9365  133.2639 H   0  0  0  0  0  0  0  0  0  0  0  0
  146.8305  159.1047  133.2639 H   0  0  0  0  0  0  0  0  0  0  0  0
  148.9170  154.0080  131.1070 H   0  0  0  0  0  0  0  0  0  0  0  0
  150.3770  152.9920  131.3450 H   0  0  0  0  0  0  0  0  0  0  0  0
  146.2631  150.4830  132.0164 H   0  0  0  0  0  0  0  0  0  0  0  0
  143.4333  150.7023  132.3355 H   0  0  0  0  0  0  0  0  0  0  0  0
  141.6136  152.2864  133.0438 H   0  0  0  0  0  0  0  0  0  0  0  0
  140.2949  154.5372  132.4283 H   0  0  0  0  0  0  0  0  0  0  0  0
  139.3931  157.1551  136.4250 H   0  0  0  0  0  0  0  0  0  0  0  0
  141.1440  157.4692  136.7607 H   0  0  0  0  0  0  0  0  0  0  0  0
  141.0056  158.7326  132.7972 H   0  0  0  0  0  0  0  0  0  0  0  0
  140.6613  160.7329  131.6118 H   0  0  0  0  0  0  0  0  0  0  0  0
  139.7977  161.2063  133.0907 H   0  0  0  0  0  0  0  0  0  0  0  0
  138.1036  161.4752  131.8664 H   0  0  0  0  0  0  0  0  0  0  0  0
  139.5119  159.7428  129.5801 H   0  0  0  0  0  0  0  0  0  0  0  0
  138.1284  160.2558  129.0890 H   0  0  0  0  0  0  0  0  0  0  0  0
  137.1737  158.4750  131.3513 H   0  0  0  0  0  0  0  0  0  0  0  0
  139.7280  157.7219  131.0909 H   0  0  0  0  0  0  0  0  0  0  0  0
  138.6103  157.3747  132.4283 H   0  0  0  0  0  0  0  0  0  0  0  0
  142.7511  155.8514  135.7053 H   0  0  0  0  0  0  0  0  0  0  0  0
  144.6026  155.3695  133.8114 H   0  0  0  0  0  0  0  0  0  0  0  0
  1  2  1  0
  2  3  1  0
  3  4  2  0
  3  5  1  0
  5  6  1  0
  6  7  1  0
  6  8  1  0
  8  9  1  0
  9 10  2  0
  9 11  1  0
 11 12  1  0
 12 13  1  0
 13 14  1  0
 13 15  2  0
 12 16  2  0
 16 17  1  0
 17 18  2  0
 18 19  1  0
 19 20  2  0
 20 21  1  0
 21 22  1  0
 22 23  2  0
 23 24  1  0
 24 25  1  0
 25 26  1  0
 26 27  2  0
 26 28  1  0
 28 29  1  0
 29 30  1  0
 30 31  1  0
 31 32  1  0
 32 33  1  0
 33 34  1  0
 24 35  1  0
 20 36  1  0
 36 37  2  0
 37 11  1  0
 37 17  1  0
 35 21  2  0
 34 29  1  0
 33 31  1  0
  1 38  1  0
  1 39  1  0
  1 40  1  0
  6 41  1  6
  7 42  1  0
  7 43  1  0
  7 44  1  0
 14 45  1  0
 14 46  1  0
 16 47  1  0
 18 48  1  0
 19 49  1  0
 22 50  1  0
 25 51  1  0
 25 52  1  0
 29 53  1  1
 30 54  1  0
 30 55  1  0
 31 56  1  6
 32 57  1  0
 32 58  1  0
 33 59  1  6
 34 60  1  0
 34 61  1  0
 35 62  1  0
 36 63  1  0
M  CHG  1  28  -1
M  END
>  <UniqueID>  (36) 
36

>  <SMILES>  (36) 
COC(=O)O[C@@H](C)OC(=O)n1c(C(N)=O)cc2ccc(-c3cnn(CC(=O)[N-]C4CC5C[C@@H]5C4)c3)cc21

>  <Energy>  (36) 
395.64507498702704

>  <Genealogy>  (36) 
COC(=O)OC(C)OC(=O)n1c(C(N)=O)cc2ccc(-c3cnn(CC(=O)[N-]C4CC5CC5C4)c3)cc21 (protonated)
COC(=O)O[C@@H](C)OC(=O)n1c(C(N)=O)cc2ccc(-c3cnn(CC(=O)[N-]C4CC5C[C@@H]5C4)c3)cc21 (chirality)
COC(=O)O[C@@H](C)OC(=O)n1c(C(N)=O)cc2ccc(-c3cnn(CC(=O)[N-]C4CC5C[C@@H]5C4)c3)cc21 (3D coordinates assigned)
COC(=O)O[C@@H](C)OC(=O)n1c(C(N)=O)cc2ccc(-c3cnn(CC(=O)[N-]C4CC5C[C@@H]5C4)c3)cc21 (nonaromatic ring conformer: 395.64507498702704 kcal/mol)

>  <smiles>  (36) 
COC(=O)OC(C)OC(=O)n1c(C(N)=O)cc2ccc(-c3cnn(CC(=O)NC4CC5CC5C4)c3)cc21

>  <score_type>  (36) 
oracle

>  <origin>  (36) 
adg

>  <m_score__min__energy>  (36) 
-10

>  <m_primary>  (36) 
energy

$$$$
36:0
     RDKit          3D

 40 42  0  0  0  0  0  0  0  0999 V2000
  138.8070  158.6270  131.1940 C   0  0  0  0  0  0  0  0  0  0  0  0
  139.8870  158.0670  131.9300 O   0  0  0  0  0  0  0  0  0  0  0  0
  139.7030  157.3740  133.1300 C   0  0  0  0  0  0  0  0  0  0  0  0
  139.2080  157.9590  134.1310 O   0  0  0  0  0  0  0  0  0  0  0  0
  140.0960  155.9570  133.1990 C   0  0  0  0  0  0  0  0  0  0  0  0
  139.3240  154.9820  132.7750 O   0  0  0  0  0  0  0  0  0  0  0  0
  139.9880  153.8700  132.9850 C   0  0  0  0  0  0  0  0  0  0  0  0
  139.5460  152.7280  132.6960 O   0  0  0  0  0  0  0  0  0  0  0  0
  141.1630  154.0800  133.5270 O   0  0  0  0  0  0  0  0  0  0  0  0
  141.2700  155.3800  133.6800 C   0  0  0  0  0  0  0  0  0  0  0  0
  142.4930  156.0370  134.2480 C   0  0  0  0  0  0  0  0  0  0  0  0
  143.1060  156.8610  133.2610 O   0  0  0  0  0  0  0  0  0  0  0  0
  144.4860  157.0780  133.1860 C   0  0  0  0  0  0  0  0  0  0  0  0
  145.2730  156.1140  132.9830 O   0  0  0  0  0  0  0  0  0  0  0  0
  145.0080  158.4070  133.3470 N   0  0  0  0  0  0  0  0  0  0  0  0
  144.3190  159.5410  133.6550 C   0  0  0  0  0  0  0  0  0  0  0  0
  142.8970  159.6070  134.0510 C   0  0  0  0  0  0  0  0  0  0  0  0
  141.8650  159.1330  133.1860 N   0  0  0  0  0  0  0  0  0  0  0  0
  142.5940  160.0400  135.1940 O   0  0  0  0  0  0  0  0  0  0  0  0
  145.1510  160.6550  133.5910 C   0  0  0  0  0  0  0  0  0  0  0  0
  146.3870  160.1650  133.2400 C   0  0  0  0  0  0  0  0  0  0  0  0
  147.5850  160.8380  133.0140 C   0  0  0  0  0  0  0  0  0  0  0  0
  148.7010  160.0820  132.6170 C   0  0  0  0  0  0  0  0  0  0  0  0
  148.5960  158.6800  132.4420 C   0  0  0  0  0  0  0  0  0  0  0  0
  149.7340  157.9250  132.0200 N   0  0  0  0  0  0  0  0  0  0  0  0
  147.3650  158.0310  132.6770 C   0  0  0  0  0  0  0  0  0  0  0  0
  146.2750  158.8050  133.0960 C   0  0  0  0  0  0  0  0  0  0  0  0
  138.0519  159.0185  131.8915 H   0  0  0  0  0  0  0  0  0  0  0  0
  139.1802  159.4452  130.5605 H   0  0  0  0  0  0  0  0  0  0  0  0
  138.3534  157.8505  130.5605 H   0  0  0  0  0  0  0  0  0  0  0  0
  142.2067  156.6549  135.1118 H   0  0  0  0  0  0  0  0  0  0  0  0
  143.2058  155.2612  134.5643 H   0  0  0  0  0  0  0  0  0  0  0  0
  142.0910  158.6110  132.3110 H   0  0  0  0  0  0  0  0  0  0  0  0
  140.8630  159.2280  133.4660 H   0  0  0  0  0  0  0  0  0  0  0  0
  144.8781  161.7036  133.7807 H   0  0  0  0  0  0  0  0  0  0  0  0
  147.6556  161.9282  133.1424 H   0  0  0  0  0  0  0  0  0  0  0  0
  149.6643  160.5830  132.4406 H   0  0  0  0  0  0  0  0  0  0  0  0
  149.6190  157.0710  131.4300 H   0  0  0  0  0  0  0  0  0  0  0  0
  150.6990  158.2130  132.2950 H   0  0  0  0  0  0  0  0  0  0  0  0
  147.2639  156.9449  132.5348 H   0  0  0  0  0  0  0  0  0  0  0  0
  1  2  1  0
  2  3  1  0
  3  4  2  0
  3  5  1  0
  5  6  1  0
  6  7  1  0
  7  8  2  0
  7  9  1  0
  9 10  1  0
 10 11  1  0
 11 12  1  0
 12 13  1  0
 13 14  2  0
 13 15  1  0
 15 16  1  0
 16 17  1  0
 17 18  1  0
 17 19  2  0
 16 20  2  0
 20 21  1  0
 21 22  2  0
 22 23  1  0
 23 24  2  0
 24 25  1  0
 24 26  1  0
 26 27  2  0
 10  5  2  0
 27 15  1  0
 27 21  1  0
  1 28  1  0
  1 29  1  0
  1 30  1  0
 11 31  1  0
 11 32  1  0
 18 33  1  0
 18 34  1  0
 20 35  1  0
 22 36  1  0
 23 37  1  0
 25 38  1  0
 25 39  1  0
 26 40  1  0
M  END
>  <UniqueID>  (37) 
37

>  <SMILES>  (37) 
COC(=O)c1oc(=O)oc1COC(=O)n1c(C(N)=O)cc2ccc(N)cc21

>  <Energy>  (37) 
110.30262663588044

>  <Genealogy>  (37) 
COC(=O)c1oc(=O)oc1COC(=O)n1c(C(N)=O)cc2ccc(N)cc21 (3D coordinates assigned)
COC(=O)c1oc(=O)oc1COC(=O)n1c(C(N)=O)cc2ccc(N)cc21 (optimized conformer: 110.30262663588044 kcal/mol)

>  <smiles>  (37) 
COC(=O)c1oc(=O)oc1COC(=O)n1c(C(N)=O)cc2ccc(N)cc21

>  <score_type>  (37) 
oracle

>  <origin>  (37) 
adg

>  <m_score__min__energy>  (37) 
-6.9199999999999999

>  <m_primary>  (37) 
energy

$$$$
37:0
     RDKit          3D

 35 37  0  0  0  0  0  0  0  0999 V2000
  148.2610  156.9570  132.6680 C   0  0  0  0  0  0  0  0  0  0  0  0
  147.2890  158.0640  132.9460 C   0  0  0  0  0  0  0  0  0  0  0  0
  147.7480  159.4000  133.0590 C   0  0  0  0  0  0  0  0  0  0  0  0
  146.8540  160.4410  133.3630 C   0  0  0  0  0  0  0  0  0  0  0  0
  145.5150  160.1150  133.5550 C   0  0  0  0  0  0  0  0  0  0  0  0
  144.4420  160.9160  133.8770 C   0  0  0  0  0  0  0  0  0  0  0  0
  143.3480  160.0560  133.9550 C   0  0  0  0  0  0  0  0  0  0  0  0
  141.9630  160.5110  134.2030 C   0  0  0  0  0  0  0  0  0  0  0  0
  141.2410  160.0750  135.3510 N   0  0  0  0  0  0  0  0  0  0  0  0
  141.3980  161.2710  133.3710 O   0  0  0  0  0  0  0  0  0  0  0  0
  143.7340  158.7730  133.7040 N   0  0  0  0  0  0  0  0  0  0  0  0
  142.9340  157.5810  133.7450 C   0  0  0  0  0  0  0  0  0  0  0  0
  143.3560  156.5730  134.3710 O   0  0  0  0  0  0  0  0  0  0  0  0
  141.6040  157.5480  133.1070 C   0  0  0  0  0  0  0  0  0  0  0  0
  140.8520  156.5540  133.2930 O   0  0  0  0  0  0  0  0  0  0  0  0
  141.1690  158.6290  132.2710 N   0  0  0  0  0  0  0  0  0  0  0  0
  139.8430  158.6320  131.6630 C   0  0  1  0  0  0  0  0  0  0  0  0
  138.7020  158.6690  132.6710 C   0  0  0  0  0  0  0  0  0  0  0  0
  139.0800  159.9240  131.9010 C   0  0  2  0  0  0  0  0  0  0  0  0
  138.1910  160.2330  130.8890 F   0  0  0  0  0  0  0  0  0  0  0  0
  145.0580  158.8260  133.4540 C   0  0  0  0  0  0  0  0  0  0  0  0
  145.9260  157.7690  133.1640 C   0  0  0  0  0  0  0  0  0  0  0  0
  148.6256  156.5417  133.6191 H   0  0  0  0  0  0  0  0  0  0  0  0
  147.7604  156.1659  132.0905 H   0  0  0  0  0  0  0  0  0  0  0  0
  149.1102  157.3511  132.0905 H   0  0  0  0  0  0  0  0  0  0  0  0
  148.8141  159.6244  132.9073 H   0  0  0  0  0  0  0  0  0  0  0  0
  147.2021  161.4811  133.4466 H   0  0  0  0  0  0  0  0  0  0  0  0
  144.4473  162.0041  134.0384 H   0  0  0  0  0  0  0  0  0  0  0  0
  141.5250  159.2150  135.8700 H   0  0  0  0  0  0  0  0  0  0  0  0
  141.7660  159.4820  132.1750 H   0  0  0  0  0  0  0  0  0  0  0  0
  140.0859  158.0130  130.7867 H   0  0  0  0  0  0  0  0  0  0  0  0
  137.7562  158.1522  132.4508 H   0  0  0  0  0  0  0  0  0  0  0  0
  138.5946  158.4113  133.7350 H   0  0  0  0  0  0  0  0  0  0  0  0
  139.3563  160.9536  132.1721 H   0  0  0  0  0  0  0  0  0  0  0  0
  145.5564  156.7345  133.1072 H   0  0  0  0  0  0  0  0  0  0  0  0
  1  2  1  0
  2  3  2  0
  3  4  1  0
  4  5  2  0
  5  6  1  0
  6  7  2  0
  7  8  1  0
  8  9  1  0
  8 10  2  0
  7 11  1  0
 11 12  1  0
 12 13  2  0
 12 14  1  0
 14 15  2  0
 14 16  1  0
 16 17  1  0
 17 18  1  0
 18 19  1  0
 19 20  1  0
 11 21  1  0
 21 22  2  0
 22  2  1  0
 21  5  1  0
 19 17  1  0
  1 23  1  0
  1 24  1  0
  1 25  1  0
  3 26  1  0
  4 27  1  0
  6 28  1  0
  9 29  1  0
 16 30  1  0
 17 31  1  6
 18 32  1  0
 18 33  1  0
 19 34  1  1
 22 35  1  0
M  CHG  1   9  -1
M  END
>  <UniqueID>  (38) 
38

>  <SMILES>  (38) 
Cc1ccc2cc(C([NH-])=O)n(C(=O)C(=O)N[C@H]3C[C@@H]3F)c2c1

>  <Energy>  (38) 
339.56486351648175

>  <Genealogy>  (38) 
Cc1ccc2cc(C([NH-])=O)n(C(=O)C(=O)NC3CC3F)c2c1 (protonated)
Cc1ccc2cc(C([NH-])=O)n(C(=O)C(=O)N[C@H]3C[C@@H]3F)c2c1 (chirality)
Cc1ccc2cc(C([NH-])=O)n(C(=O)C(=O)N[C@H]3C[C@@H]3F)c2c1 (3D coordinates assigned)
Cc1ccc2cc(C([NH-])=O)n(C(=O)C(=O)N[C@H]3C[C@@H]3F)c2c1 (nonaromatic ring conformer: 339.56486351648175 kcal/mol)

>  <smiles>  (38) 
Cc1ccc2cc(C(N)=O)n(C(=O)C(=O)NC3CC3F)c2c1

>  <score_type>  (38) 
oracle

>  <origin>  (38) 
adg

>  <m_score__min__energy>  (38) 
-7

>  <m_primary>  (38) 
energy

$$$$
38:0
     RDKit          3D

 57 60  0  0  0  0  0  0  0  0999 V2000
  140.1390  158.6090  135.1880 C   0  0  0  0  0  0  0  0  0  0  0  0
  140.6420  158.1460  133.8900 N   0  0  0  0  0  0  0  0  0  0  0  0
  139.6990  157.5250  132.9440 C   0  0  0  0  0  0  0  0  0  0  0  0
  139.5160  156.0330  133.2430 C   0  0  0  0  0  0  0  0  0  0  0  0
  140.7010  155.3260  132.9900 O   0  0  0  0  0  0  0  0  0  0  0  0
  142.0190  158.3540  133.4910 C   0  0  0  0  0  0  0  0  0  0  0  0
  142.4500  157.7840  132.4510 O   0  0  0  0  0  0  0  0  0  0  0  0
  142.9550  159.2280  134.2380 C   0  0  0  0  0  0  0  0  0  0  0  0
  142.5660  159.9120  135.2200 O   0  0  0  0  0  0  0  0  0  0  0  0
  144.3350  159.2890  133.8550 N   0  0  0  0  0  0  0  0  0  0  0  0
  145.1360  160.3880  133.8070 C   0  0  0  0  0  0  0  0  0  0  0  0
  144.7090  161.7800  134.0690 C   0  0  0  0  0  0  0  0  0  0  0  0
  143.4030  162.2290  133.7150 N   0  0  0  0  0  0  0  0  0  0  0  0
  145.5160  162.5920  134.5950 O   0  0  0  0  0  0  0  0  0  0  0  0
  146.4270  160.0300  133.4230 C   0  0  0  0  0  0  0  0  0  0  0  0
  146.3880  158.6650  133.2400 C   0  0  0  0  0  0  0  0  0  0  0  0
  147.3920  157.7820  132.8580 C   0  0  0  0  0  0  0  0  0  0  0  0
  147.0650  156.4200  132.7500 C   0  0  0  0  0  0  0  0  0  0  0  0
  145.7510  155.9620  133.0340 C   0  0  0  0  0  0  0  0  0  0  0  0
  145.4170  154.5190  132.9060 C   0  0  0  0  0  0  0  0  0  0  0  0
  146.4210  153.5780  132.6100 C   0  0  0  0  0  0  0  0  0  0  0  0
  146.1110  152.2240  132.5110 C   0  0  0  0  0  0  0  0  0  0  0  0
  144.8010  151.7880  132.7160 C   0  0  0  0  0  0  0  0  0  0  0  0
  143.7770  152.7030  133.0160 C   0  0  0  0  0  0  0  0  0  0  0  0
  142.3930  152.2140  133.2450 C   0  0  0  0  0  0  0  0  0  0  0  0
  141.8510  152.4110  134.3690 O   0  0  0  0  0  0  0  0  0  0  0  0
  141.6480  151.5520  132.2100 N   0  0  0  0  0  0  0  0  0  0  0  0
  140.2920  151.0550  132.4550 C   0  0  0  0  0  0  0  0  0  0  0  0
  140.2740  149.6560  133.0270 C   0  0  0  0  0  0  0  0  0  0  0  0
  139.6780  149.1160  131.8710 O   0  0  0  0  0  0  0  0  0  0  0  0
  139.6680  150.3820  131.2530 C   0  0  0  0  0  0  0  0  0  0  0  0
  144.0950  154.0740  133.0870 C   0  0  0  0  0  0  0  0  0  0  0  0
  144.7610  156.8950  133.4260 C   0  0  0  0  0  0  0  0  0  0  0  0
  145.1140  158.2440  133.5090 C   0  0  0  0  0  0  0  0  0  0  0  0
  140.6884  158.1033  135.9957 H   0  0  0  0  0  0  0  0  0  0  0  0
  140.2840  159.6962  135.2708 H   0  0  0  0  0  0  0  0  0  0  0  0
  139.0675  158.3746  135.2708 H   0  0  0  0  0  0  0  0  0  0  0  0
  138.7248  158.0294  133.0253 H   0  0  0  0  0  0  0  0  0  0  0  0
  140.1061  157.6292  131.9274 H   0  0  0  0  0  0  0  0  0  0  0  0
  139.2402  155.9082  134.3005 H   0  0  0  0  0  0  0  0  0  0  0  0
  138.7229  155.6372  132.5916 H   0  0  0  0  0  0  0  0  0  0  0  0
  141.3450  155.9740  132.6080 H   0  0  0  0  0  0  0  0  0  0  0  0
  142.5590  161.6650  133.9540 H   0  0  0  0  0  0  0  0  0  0  0  0
  147.2930  160.6957  133.2935 H   0  0  0  0  0  0  0  0  0  0  0  0
  148.4108  158.1389  132.6469 H   0  0  0  0  0  0  0  0  0  0  0  0
  147.8365  155.6991  132.4416 H   0  0  0  0  0  0  0  0  0  0  0  0
  147.4570  153.9142  132.4559 H   0  0  0  0  0  0  0  0  0  0  0  0
  146.9003  151.4965  132.2707 H   0  0  0  0  0  0  0  0  0  0  0  0
  144.5672  150.7157  132.6419 H   0  0  0  0  0  0  0  0  0  0  0  0
  142.0110  151.5510  131.2300 H   0  0  0  0  0  0  0  0  0  0  0  0
  139.8635  151.9367  132.9540 H   0  0  0  0  0  0  0  0  0  0  0  0
  141.2771  149.2535  133.2312 H   0  0  0  0  0  0  0  0  0  0  0  0
  139.7927  149.4866  134.0015 H   0  0  0  0  0  0  0  0  0  0  0  0
  140.2926  150.4331  130.3490 H   0  0  0  0  0  0  0  0  0  0  0  0
  138.7191  150.7732  130.8575 H   0  0  0  0  0  0  0  0  0  0  0  0
  143.2986  154.8061  133.2867 H   0  0  0  0  0  0  0  0  0  0  0  0
  143.7379  156.5654  133.6597 H   0  0  0  0  0  0  0  0  0  0  0  0
  1  2  1  0
  2  3  1  0
  3  4  1  0
  4  5  1  0
  2  6  1  0
  6  7  2  0
  6  8  1  0
  8  9  2  0
  8 10  1  0
 10 11  1  0
 11 12  1  0
 12 13  1  0
 12 14  2  0
 11 15  2  0
 15 16  1  0
 16 17  2  0
 17 18  1  0
 18 19  2  0
 19 20  1  0
 20 21  2  0
 21 22  1  0
 22 23  2  0
 23 24  1  0
 24 25  1  0
 25 26  2  0
 25 27  1  0
 27 28  1  0
 28 29  1  0
 29 30  1  0
 30 31  1  0
 24 32  2  0
 19 33  1  0
 33 34  2  0
 34 10  1  0
 34 16  1  0
 32 20  1  0
 31 28  1  0
  1 35  1  0
  1 36  1  0
  1 37  1  0
  3 38  1  0
  3 39  1  0
  4 40  1  0
  4 41  1  0
  5 42  1  0
 13 43  1  0
 15 44  1  0
 17 45  1  0
 18 46  1  0
 21 47  1  0
 22 48  1  0
 23 49  1  0
 27 50  1  0
 28 51  1  0
 29 52  1  0
 29 53  1  0
 31 54  1  0
 31 55  1  0
 32 56  1  0
 33 57  1  0
M  CHG  1  13  -1
M  END
>  <UniqueID>  (39) 
39

>  <SMILES>  (39) 
CN(CCO)C(=O)C(=O)n1c(C([NH-])=O)cc2ccc(-c3cccc(C(=O)NC4COC4)c3)cc21

>  <Energy>  (39) 
168.6050093528218

>  <Genealogy>  (39) 
CN(CCO)C(=O)C(=O)n1c(C([NH-])=O)cc2ccc(-c3cccc(C(=O)NC4COC4)c3)cc21 (protonated)
CN(CCO)C(=O)C(=O)n1c(C([NH-])=O)cc2ccc(-c3cccc(C(=O)NC4COC4)c3)cc21 (3D coordinates assigned)
CN(CCO)C(=O)C(=O)n1c(C([NH-])=O)cc2ccc(-c3cccc(C(=O)NC4COC4)c3)cc21 (nonaromatic ring conformer: 168.6050093528218 kcal/mol)

>  <smiles>  (39) 
CN(CCO)C(=O)C(=O)n1c(C(N)=O)cc2ccc(-c3cccc(C(=O)NC4COC4)c3)cc21

>  <score_type>  (39) 
oracle

>  <origin>  (39) 
adg

>  <m_score__min__energy>  (39) 
-8.9700000000000006

>  <m_primary>  (39) 
energy

$$$$
39:0
     RDKit          3D

 40 42  0  0  0  0  0  0  0  0999 V2000
  143.2100  156.8220  134.4280 C   0  0  0  0  0  0  0  0  0  0  0  0
  143.7000  157.6340  133.2720 C   0  0  0  0  0  0  0  0  0  0  0  0
  142.9440  157.8170  132.2800 O   0  0  0  0  0  0  0  0  0  0  0  0
  145.0230  158.1920  133.2730 N   0  0  0  0  0  0  0  0  0  0  0  0
  145.3790  159.4930  133.4710 C   0  0  0  0  0  0  0  0  0  0  0  0
  144.4640  160.6000  133.8250 C   0  0  0  0  0  0  0  0  0  0  0  0
  143.1150  160.6160  133.3640 N   0  0  0  0  0  0  0  0  0  0  0  0
  144.8690  161.5290  134.5730 O   0  0  0  0  0  0  0  0  0  0  0  0
  146.7610  159.6420  133.3580 C   0  0  0  0  0  0  0  0  0  0  0  0
  147.2430  158.3830  133.0860 C   0  0  0  0  0  0  0  0  0  0  0  0
  148.5500  157.9480  132.8850 C   0  0  0  0  0  0  0  0  0  0  0  0
  148.7550  156.5840  132.6160 C   0  0  0  0  0  0  0  0  0  0  0  0
  147.6580  155.6880  132.5320 C   0  0  0  0  0  0  0  0  0  0  0  0
  147.8830  154.2820  132.2980 N   0  0  0  0  0  0  0  0  0  0  0  0
  148.5470  153.6510  133.4500 C   0  0  0  0  0  0  0  0  0  0  0  0
  149.2470  152.3720  133.0580 C   0  0  0  0  0  0  0  0  0  0  0  0
  149.4750  151.9490  131.7650 C   0  0  0  0  0  0  0  0  0  0  0  0
  150.0690  150.7100  131.9050 C   0  0  0  0  0  0  0  0  0  0  0  0
  150.1840  150.4060  133.2130 N   0  0  0  0  0  0  0  0  0  0  0  0
  149.6810  151.4150  133.9060 N   0  0  0  0  0  0  0  0  0  0  0  0
  149.6240  151.4370  135.3640 C   0  0  0  0  0  0  0  0  0  0  0  0
  146.3450  156.1730  132.7360 C   0  0  0  0  0  0  0  0  0  0  0  0
  146.1740  157.5270  133.0340 C   0  0  0  0  0  0  0  0  0  0  0  0
  143.5041  157.3094  135.3693 H   0  0  0  0  0  0  0  0  0  0  0  0
  142.1137  156.7437  134.3826 H   0  0  0  0  0  0  0  0  0  0  0  0
  143.6517  155.8156  134.3826 H   0  0  0  0  0  0  0  0  0  0  0  0
  142.7990  159.9710  132.6080 H   0  0  0  0  0  0  0  0  0  0  0  0
  147.3423  160.5698  133.4640 H   0  0  0  0  0  0  0  0  0  0  0  0
  149.3956  158.6498  132.9351 H   0  0  0  0  0  0  0  0  0  0  0  0
  149.7777  156.2066  132.4689 H   0  0  0  0  0  0  0  0  0  0  0  0
  146.9780  153.7970  132.0920 H   0  0  0  0  0  0  0  0  0  0  0  0
  148.4930  154.1660  131.4540 H   0  0  0  0  0  0  0  0  0  0  0  0
  149.2883  154.3515  133.8621 H   0  0  0  0  0  0  0  0  0  0  0  0
  147.7783  153.4064  134.1978 H   0  0  0  0  0  0  0  0  0  0  0  0
  149.2370  152.4797  130.8313 H   0  0  0  0  0  0  0  0  0  0  0  0
  150.3984  150.0683  131.0745 H   0  0  0  0  0  0  0  0  0  0  0  0
  150.5763  151.0694  135.7738 H   0  0  0  0  0  0  0  0  0  0  0  0
  149.4497  152.4670  135.7086 H   0  0  0  0  0  0  0  0  0  0  0  0
  148.8029  150.7912  135.7086 H   0  0  0  0  0  0  0  0  0  0  0  0
  145.4785  155.4994  132.6617 H   0  0  0  0  0  0  0  0  0  0  0  0
  1  2  1  0
  2  3  2  0
  2  4  1  0
  4  5  1  0
  5  6  1  0
  6  7  1  0
  6  8  2  0
  5  9  2  0
  9 10  1  0
 10 11  2  0
 11 12  1  0
 12 13  2  0
 13 14  1  0
 14 15  1  0
 15 16  1  0
 16 17  2  0
 17 18  1  0
 18 19  2  0
 19 20  1  0
 20 21  1  0
 13 22  1  0
 22 23  2  0
 23  4  1  0
 23 10  1  0
 20 16  1  0
  1 24  1  0
  1 25  1  0
  1 26  1  0
  7 27  1  0
  9 28  1  0
 11 29  1  0
 12 30  1  0
 14 31  1  0
 14 32  1  0
 15 33  1  0
 15 34  1  0
 17 35  1  0
 18 36  1  0
 21 37  1  0
 21 38  1  0
 21 39  1  0
 22 40  1  0
M  CHG  2   7  -1  14   1
M  END
>  <UniqueID>  (40) 
40

>  <SMILES>  (40) 
CC(=O)n1c(C([NH-])=O)cc2ccc([NH2+]Cc3ccnn3C)cc21

>  <Energy>  (40) 
107.45517179243832

>  <Genealogy>  (40) 
CC(=O)n1c(C([NH-])=O)cc2ccc([NH2+]Cc3ccnn3C)cc21 (protonated)
CC(=O)n1c(C([NH-])=O)cc2ccc([NH2+]Cc3ccnn3C)cc21 (3D coordinates assigned)
CC(=O)n1c(C([NH-])=O)cc2ccc([NH2+]Cc3ccnn3C)cc21 (optimized conformer: 107.45517179243832 kcal/mol)

>  <smiles>  (40) 
CC(=O)n1c(C(N)=O)cc2ccc(NCc3ccnn3C)cc21

>  <score_type>  (40) 
oracle

>  <origin>  (40) 
adg

>  <m_score__min__energy>  (40) 
-7.5199999999999996

>  <m_primary>  (40) 
energy

$$$$
40:0
     RDKit          3D

 36 37  0  0  0  0  0  0  0  0999 V2000
  139.4250  159.7500  131.6520 C   0  0  0  0  0  0  0  0  0  0  0  0
  138.8780  158.4030  132.1130 C   0  0  0  0  0  0  0  0  0  0  0  0
  139.5970  157.9300  133.2510 O   0  0  0  0  0  0  0  0  0  0  0  0
  140.0240  156.6050  133.3960 C   0  0  0  0  0  0  0  0  0  0  0  0
  139.5060  155.6830  132.7100 O   0  0  0  0  0  0  0  0  0  0  0  0
  141.0900  156.2880  134.3500 C   0  0  0  0  0  0  0  0  0  0  0  0
  140.9940  155.2580  135.0690 O   0  0  0  0  0  0  0  0  0  0  0  0
  142.1980  157.1410  134.4470 O   0  0  0  0  0  0  0  0  0  0  0  0
  142.9360  157.6310  133.3600 C   0  0  0  0  0  0  0  0  0  0  0  0
  142.8710  157.0710  132.2310 O   0  0  0  0  0  0  0  0  0  0  0  0
  143.7570  158.7960  133.5320 N   0  0  0  0  0  0  0  0  0  0  0  0
  143.3480  160.0710  133.7840 C   0  0  0  0  0  0  0  0  0  0  0  0
  141.9700  160.4930  134.1110 C   0  0  0  0  0  0  0  0  0  0  0  0
  141.1740  159.7480  135.0280 N   0  0  0  0  0  0  0  0  0  0  0  0
  141.5080  161.5540  133.6130 O   0  0  0  0  0  0  0  0  0  0  0  0
  144.4340  160.9440  133.7750 C   0  0  0  0  0  0  0  0  0  0  0  0
  145.5320  160.1570  133.5150 C   0  0  0  0  0  0  0  0  0  0  0  0
  146.8720  160.5080  133.3800 C   0  0  0  0  0  0  0  0  0  0  0  0
  147.7930  159.4920  133.0780 C   0  0  0  0  0  0  0  0  0  0  0  0
  147.3590  158.1520  132.9100 C   0  0  0  0  0  0  0  0  0  0  0  0
  148.3440  157.0700  132.5690 C   0  0  0  0  0  0  0  0  0  0  0  0
  149.5690  157.6350  132.2610 F   0  0  0  0  0  0  0  0  0  0  0  0
  148.4930  156.2190  133.6490 F   0  0  0  0  0  0  0  0  0  0  0  0
  145.9900  157.8340  133.0520 C   0  0  0  0  0  0  0  0  0  0  0  0
  145.0990  158.8650  133.3720 C   0  0  0  0  0  0  0  0  0  0  0  0
  139.6745  160.3643  132.5297 H   0  0  0  0  0  0  0  0  0  0  0  0
  140.3297  159.5907  131.0469 H   0  0  0  0  0  0  0  0  0  0  0  0
  138.6654  160.2665  131.0469 H   0  0  0  0  0  0  0  0  0  0  0  0
  137.8163  158.5158  132.3778 H   0  0  0  0  0  0  0  0  0  0  0  0
  138.9920  157.6762  131.2952 H   0  0  0  0  0  0  0  0  0  0  0  0
  140.8450  158.7850  134.7940 H   0  0  0  0  0  0  0  0  0  0  0  0
  144.4170  162.0313  133.9406 H   0  0  0  0  0  0  0  0  0  0  0  0
  147.1999  161.5504  133.5062 H   0  0  0  0  0  0  0  0  0  0  0  0
  148.8599  159.7373  132.9708 H   0  0  0  0  0  0  0  0  0  0  0  0
  147.9717  156.5038  131.7025 H   0  0  0  0  0  0  0  0  0  0  0  0
  145.6333  156.8026  132.9146 H   0  0  0  0  0  0  0  0  0  0  0  0
  1  2  1  0
  2  3  1  0
  3  4  1  0
  4  5  2  0
  4  6  1  0
  6  7  2  0
  6  8  1  0
  8  9  1  0
  9 10  2  0
  9 11  1  0
 11 12  1  0
 12 13  1  0
 13 14  1  0
 13 15  2  0
 12 16  2  0
 16 17  1  0
 17 18  2  0
 18 19  1  0
 19 20  2  0
 20 21  1  0
 21 22  1  0
 21 23  1  0
 20 24  1  0
 24 25  2  0
 25 11  1  0
 25 17  1  0
  1 26  1  0
  1 27  1  0
  1 28  1  0
  2 29  1  0
  2 30  1  0
 14 31  1  0
 16 32  1  0
 18 33  1  0
 19 34  1  0
 21 35  1  0
 24 36  1  0
M  CHG  1  14  -1
M  END
>  <UniqueID>  (41) 
41

>  <SMILES>  (41) 
CCOC(=O)C(=O)OC(=O)n1c(C([NH-])=O)cc2ccc(C(F)F)cc21

>  <Energy>  (41) 
70.57394755962869

>  <Genealogy>  (41) 
CCOC(=O)C(=O)OC(=O)n1c(C([NH-])=O)cc2ccc(C(F)F)cc21 (protonated)
CCOC(=O)C(=O)OC(=O)n1c(C([NH-])=O)cc2ccc(C(F)F)cc21 (3D coordinates assigned)
CCOC(=O)C(=O)OC(=O)n1c(C([NH-])=O)cc2ccc(C(F)F)cc21 (optimized conformer: 70.57394755962869 kcal/mol)

>  <smiles>  (41) 
CCOC(=O)C(=O)OC(=O)n1c(C(N)=O)cc2ccc(C(F)F)cc21

>  <score_type>  (41) 
oracle

>  <origin>  (41) 
adg

>  <m_score__min__energy>  (41) 
-5.8300000000000001

>  <m_primary>  (41) 
energy

$$$$
41:0
     RDKit          3D

 43 44  0  0  0  0  0  0  0  0999 V2000
  138.0320  159.8400  131.0480 C   0  0  0  0  0  0  0  0  0  0  0  0
  138.6460  158.7570  131.7370 O   0  0  0  0  0  0  0  0  0  0  0  0
  139.7100  158.9350  132.6310 C   0  0  0  0  0  0  0  0  0  0  0  0
  140.3730  160.0100  132.6190 O   0  0  0  0  0  0  0  0  0  0  0  0
  139.9980  157.8610  133.6570 C   0  0  0  0  0  0  0  0  0  0  0  0
  139.0650  158.0110  134.8760 C   0  0  0  0  0  0  0  0  0  0  0  0
  139.7860  156.4910  132.9870 C   0  0  0  0  0  0  0  0  0  0  0  0
  141.3940  158.0140  134.0790 N   0  0  0  0  0  0  0  0  0  0  0  0
  142.5660  157.6640  133.3290 C   0  0  0  0  0  0  0  0  0  0  0  0
  142.5050  157.4880  132.0820 O   0  0  0  0  0  0  0  0  0  0  0  0
  143.8540  157.5200  134.0210 C   0  0  0  0  0  0  0  0  0  0  0  0
  143.9400  156.7650  135.0280 O   0  0  0  0  0  0  0  0  0  0  0  0
  145.0120  158.2450  133.5790 N   0  0  0  0  0  0  0  0  0  0  0  0
  145.1660  159.5960  133.5040 C   0  0  0  0  0  0  0  0  0  0  0  0
  144.1090  160.6020  133.7480 C   0  0  0  0  0  0  0  0  0  0  0  0
  142.7630  160.3880  133.3200 N   0  0  0  0  0  0  0  0  0  0  0  0
  144.4110  161.6870  134.3090 O   0  0  0  0  0  0  0  0  0  0  0  0
  146.4750  159.9210  133.1560 C   0  0  0  0  0  0  0  0  0  0  0  0
  147.1230  158.7150  133.0130 C   0  0  0  0  0  0  0  0  0  0  0  0
  148.4490  158.4430  132.6900 C   0  0  0  0  0  0  0  0  0  0  0  0
  148.8590  157.0990  132.6620 C   0  0  0  0  0  0  0  0  0  0  0  0
  147.9510  156.0560  132.9880 C   0  0  0  0  0  0  0  0  0  0  0  0
  148.3960  154.6160  132.9410 C   0  0  0  0  0  0  0  0  0  0  0  0
  149.6290  154.5020  132.3240 F   0  0  0  0  0  0  0  0  0  0  0  0
  148.5040  154.0990  134.2210 F   0  0  0  0  0  0  0  0  0  0  0  0
  147.4680  153.8760  132.2340 F   0  0  0  0  0  0  0  0  0  0  0  0
  146.6060  156.3740  133.2890 C   0  0  0  0  0  0  0  0  0  0  0  0
  146.2210  157.7200  133.2810 C   0  0  0  0  0  0  0  0  0  0  0  0
  137.6261  160.5559  131.7779 H   0  0  0  0  0  0  0  0  0  0  0  0
  138.7789  160.3436  130.4168 H   0  0  0  0  0  0  0  0  0  0  0  0
  137.2163  159.4577  130.4168 H   0  0  0  0  0  0  0  0  0  0  0  0
  139.6525  157.9165  135.8012 H   0  0  0  0  0  0  0  0  0  0  0  0
  138.5811  158.9985  134.8481 H   0  0  0  0  0  0  0  0  0  0  0  0
  138.2960  157.2250  134.8481 H   0  0  0  0  0  0  0  0  0  0  0  0
  139.6665  155.7188  133.7612 H   0  0  0  0  0  0  0  0  0  0  0  0
  138.8824  156.5251  132.3606 H   0  0  0  0  0  0  0  0  0  0  0  0
  140.6576  156.2504  132.3606 H   0  0  0  0  0  0  0  0  0  0  0  0
  142.5150  159.6040  132.6780 H   0  0  0  0  0  0  0  0  0  0  0  0
  142.0220  161.0830  133.5630 H   0  0  0  0  0  0  0  0  0  0  0  0
  146.9002  160.9268  133.0237 H   0  0  0  0  0  0  0  0  0  0  0  0
  149.1550  159.2555  132.4634 H   0  0  0  0  0  0  0  0  0  0  0  0
  149.8944  156.8519  132.3846 H   0  0  0  0  0  0  0  0  0  0  0  0
  145.8795  155.5822  133.5239 H   0  0  0  0  0  0  0  0  0  0  0  0
  1  2  1  0
  2  3  1  0
  3  4  2  0
  3  5  1  0
  5  6  1  0
  5  7  1  0
  5  8  1  0
  8  9  1  0
  9 10  2  0
  9 11  1  0
 11 12  2  0
 11 13  1  0
 13 14  1  0
 14 15  1  0
 15 16  1  0
 15 17  2  0
 14 18  2  0
 18 19  1  0
 19 20  2  0
 20 21  1  0
 21 22  2  0
 22 23  1  0
 23 24  1  0
 23 25  1  0
 23 26  1  0
 22 27  1  0
 27 28  2  0
 28 13  1  0
 28 19  1  0
  1 29  1  0
  1 30  1  0
  1 31  1  0
  6 32  1  0
  6 33  1  0
  6 34  1  0
  7 35  1  0
  7 36  1  0
  7 37  1  0
 16 38  1  0
 16 39  1  0
 18 40  1  0
 20 41  1  0
 21 42  1  0
 27 43  1  0
M  CHG  1   8  -1
M  END
>  <UniqueID>  (42) 
42

>  <SMILES>  (42) 
COC(=O)C(C)(C)[N-]C(=O)C(=O)n1c(C(N)=O)cc2ccc(C(F)(F)F)cc21

>  <Energy>  (42) 
78.39682895244384

>  <Genealogy>  (42) 
COC(=O)C(C)(C)[N-]C(=O)C(=O)n1c(C(N)=O)cc2ccc(C(F)(F)F)cc21 (protonated)
COC(=O)C(C)(C)[N-]C(=O)C(=O)n1c(C(N)=O)cc2ccc(C(F)(F)F)cc21 (3D coordinates assigned)
COC(=O)C(C)(C)[N-]C(=O)C(=O)n1c(C(N)=O)cc2ccc(C(F)(F)F)cc21 (optimized conformer: 78.39682895244384 kcal/mol)

>  <smiles>  (42) 
COC(=O)C(C)(C)NC(=O)C(=O)n1c(C(N)=O)cc2ccc(C(F)(F)F)cc21

>  <score_type>  (42) 
oracle

>  <origin>  (42) 
adg

>  <m_score__min__energy>  (42) 
-6.7199999999999998

>  <m_primary>  (42) 
energy

$$$$
42:0
     RDKit          3D

 51 55  0  0  0  0  0  0  0  0999 V2000
  148.4840  152.2730  133.8600 N   0  0  0  0  0  0  0  0  0  0  0  0
  148.9370  153.3100  132.9870 C   0  0  0  0  0  0  0  0  0  0  0  0
  149.8900  153.0750  132.1980 O   0  0  0  0  0  0  0  0  0  0  0  0
  148.2740  154.6340  132.9790 C   0  0  0  0  0  0  0  0  0  0  0  0
  148.9110  155.8210  132.6260 C   0  0  0  0  0  0  0  0  0  0  0  0
  147.9830  156.8130  132.8440 C   0  0  0  0  0  0  0  0  0  0  0  0
  148.0800  158.1850  132.6520 C   0  0  0  0  0  0  0  0  0  0  0  0
  146.9530  158.9730  132.9340 C   0  0  0  0  0  0  0  0  0  0  0  0
  145.7460  158.3810  133.3940 C   0  0  0  0  0  0  0  0  0  0  0  0
  144.5550  159.2220  133.6760 C   0  0  0  0  0  0  0  0  0  0  0  0
  144.3650  160.5580  133.3560 C   0  0  0  0  0  0  0  0  0  0  0  0
  143.1540  160.9550  133.7900 N   0  0  0  0  0  0  0  0  0  0  0  0
  142.5630  159.9130  134.3550 N   0  0  0  0  0  0  0  0  0  0  0  0
  141.2460  159.9590  135.0050 C   0  0  0  0  0  0  0  0  0  0  0  0
  140.1980  159.1710  134.3110 N   0  0  0  0  0  0  0  0  0  0  0  0
  140.6800  158.4770  133.0910 C   0  0  0  0  0  0  0  0  0  0  0  0
  140.3970  157.1540  133.7320 C   0  0  0  0  0  0  0  0  0  0  0  0
  140.7450  155.7210  133.4090 C   0  0  0  0  0  0  0  0  0  0  0  0
  139.3830  156.2790  133.0040 C   0  0  0  0  0  0  0  0  0  0  0  0
  139.8770  157.8650  134.9430 C   0  0  0  0  0  0  0  0  0  0  0  0
  143.3900  158.8500  134.3240 C   0  0  0  0  0  0  0  0  0  0  0  0
  145.6910  156.9780  133.5770 C   0  0  0  0  0  0  0  0  0  0  0  0
  146.8370  156.2200  133.3050 C   0  0  0  0  0  0  0  0  0  0  0  0
  147.0000  154.8810  133.3960 N   0  0  0  0  0  0  0  0  0  0  0  0
  146.0050  153.9170  133.7770 C   0  0  0  0  0  0  0  0  0  0  0  0
  145.2310  153.4320  132.9080 O   0  0  0  0  0  0  0  0  0  0  0  0
  145.9030  153.5170  135.1130 O   0  0  0  0  0  0  0  0  0  0  0  0
  146.2270  154.3750  136.2000 C   0  0  0  0  0  0  0  0  0  0  0  0
  147.1600  153.6690  137.1270 C   0  0  0  0  0  0  0  0  0  0  0  0
  147.7860  152.6470  136.7420 O   0  0  0  0  0  0  0  0  0  0  0  0
  147.3200  154.1250  138.4290 O   0  0  0  0  0  0  0  0  0  0  0  0
  147.7420  152.4490  134.5730 H   0  0  0  0  0  0  0  0  0  0  0  0
  148.9300  151.3300  133.8270 H   0  0  0  0  0  0  0  0  0  0  0  0
  149.9386  155.9402  132.2521 H   0  0  0  0  0  0  0  0  0  0  0  0
  149.0130  158.6411  132.2894 H   0  0  0  0  0  0  0  0  0  0  0  0
  147.0050  160.0632  132.7971 H   0  0  0  0  0  0  0  0  0  0  0  0
  145.0912  161.1946  132.8293 H   0  0  0  0  0  0  0  0  0  0  0  0
  141.3519  159.5673  136.0274 H   0  0  0  0  0  0  0  0  0  0  0  0
  140.9189  161.0090  134.9829 H   0  0  0  0  0  0  0  0  0  0  0  0
  140.0784  158.6785  132.1924 H   0  0  0  0  0  0  0  0  0  0  0  0
  141.6779  158.6961  132.6833 H   0  0  0  0  0  0  0  0  0  0  0  0
  141.4986  155.4989  132.6391 H   0  0  0  0  0  0  0  0  0  0  0  0
  141.0859  154.8542  133.9942 H   0  0  0  0  0  0  0  0  0  0  0  0
  139.1553  156.4635  131.9438 H   0  0  0  0  0  0  0  0  0  0  0  0
  138.3363  155.9874  133.1753 H   0  0  0  0  0  0  0  0  0  0  0  0
  138.8045  157.7079  135.1305 H   0  0  0  0  0  0  0  0  0  0  0  0
  140.2641  157.6193  135.9429 H   0  0  0  0  0  0  0  0  0  0  0  0
  143.1758  157.8555  134.7425 H   0  0  0  0  0  0  0  0  0  0  0  0
  144.7672  156.4933  133.9256 H   0  0  0  0  0  0  0  0  0  0  0  0
  146.7096  155.2863  135.8171 H   0  0  0  0  0  0  0  0  0  0  0  0
  145.3082  154.6473  136.7400 H   0  0  0  0  0  0  0  0  0  0  0  0
  1  2  1  0
  2  3  2  0
  2  4  1  0
  4  5  2  0
  5  6  1  0
  6  7  2  0
  7  8  1  0
  8  9  2  0
  9 10  1  0
 10 11  1  0
 11 12  2  0
 12 13  1  0
 13 14  1  0
 14 15  1  0
 15 16  1  0
 16 17  1  0
 17 18  1  0
 18 19  1  0
 17 20  1  0
 13 21  1  0
  9 22  1  0
 22 23  2  0
 23 24  1  0
 24 25  1  0
 25 26  2  0
 25 27  1  0
 27 28  1  0
 28 29  1  0
 29 30  2  0
 29 31  1  0
 24  4  1  0
 23  6  1  0
 21 10  2  0
 20 15  1  0
 19 17  1  0
  1 32  1  0
  1 33  1  0
  5 34  1  0
  7 35  1  0
  8 36  1  0
 11 37  1  0
 14 38  1  0
 14 39  1  0
 16 40  1  0
 16 41  1  0
 18 42  1  0
 18 43  1  0
 19 44  1  0
 19 45  1  0
 20 46  1  0
 20 47  1  0
 21 48  1  0
 22 49  1  0
 28 50  1  0
 28 51  1  0
M  CHG  1  31  -1
M  END
>  <UniqueID>  (43) 
43

>  <SMILES>  (43) 
NC(=O)c1cc2ccc(-c3cnn(CN4CC5(CC5)C4)c3)cc2n1C(=O)OCC(=O)[O-]

>  <Energy>  (43) 
489.9986972011011

>  <Genealogy>  (43) 
NC(=O)c1cc2ccc(-c3cnn(CN4CC5(CC5)C4)c3)cc2n1C(=O)OCC(=O)[O-] (protonated)
NC(=O)c1cc2ccc(-c3cnn(CN4CC5(CC5)C4)c3)cc2n1C(=O)OCC(=O)[O-] (3D coordinates assigned)
NC(=O)c1cc2ccc(-c3cnn(CN4CC5(CC5)C4)c3)cc2n1C(=O)OCC(=O)[O-] (nonaromatic ring conformer: 489.9986972011011 kcal/mol)

>  <smiles>  (43) 
NC(=O)c1cc2ccc(-c3cnn(CN4CC5(CC5)C4)c3)cc2n1C(=O)OCC(=O)O

>  <score_type>  (43) 
oracle

>  <origin>  (43) 
adg

>  <m_score__min__energy>  (43) 
-9.6500000000000004

>  <m_primary>  (43) 
energy

$$$$
43:0
     RDKit          3D

 66 69  0  0  0  0  0  0  0  0999 V2000
  144.6570  150.0810  139.7700 C   0  0  0  0  0  0  0  0  0  0  0  0
  145.9950  150.8150  139.7550 C   0  0  0  0  0  0  0  0  0  0  0  0
  145.9190  151.9800  138.9380 O   0  0  0  0  0  0  0  0  0  0  0  0
  146.9220  152.9550  138.8790 C   0  0  0  0  0  0  0  0  0  0  0  0
  146.9680  153.8770  139.7390 O   0  0  0  0  0  0  0  0  0  0  0  0
  147.8890  152.9460  137.7270 C   0  0  1  0  0  0  0  0  0  0  0  0
  148.4600  151.5460  137.4970 C   0  0  0  0  0  0  0  0  0  0  0  0
  147.2040  153.3610  136.5560 O   0  0  0  0  0  0  0  0  0  0  0  0
  147.9910  154.2280  135.7520 C   0  0  0  0  0  0  0  0  0  0  0  0
  148.4560  153.4560  134.4980 C   0  0  0  0  0  0  0  0  0  0  0  0
  147.4290  153.5050  133.3480 C   0  0  0  0  0  0  0  0  0  0  0  0
  146.0680  153.7000  133.8950 N   0  0  0  0  0  0  0  0  0  0  0  0
  144.9180  153.4210  132.9930 C   0  0  2  0  0  0  0  0  0  0  0  0
  143.7360  154.3900  133.0970 C   0  0  0  0  0  0  0  0  0  0  0  0
  142.8050  153.2000  133.3440 C   0  0  2  0  0  0  0  0  0  0  0  0
  142.0190  153.2600  134.6300 C   0  0  0  0  0  0  0  0  0  0  0  0
  141.3530  152.2680  135.0270 O   0  0  0  0  0  0  0  0  0  0  0  0
  142.0040  154.4700  135.3990 N   0  0  0  0  0  0  0  0  0  0  0  0
  142.5860  154.6980  136.6120 C   0  0  0  0  0  0  0  0  0  0  0  0
  143.4390  153.7300  137.3510 C   0  0  0  0  0  0  0  0  0  0  0  0
  144.7360  153.3680  136.8700 N   0  0  0  0  0  0  0  0  0  0  0  0
  143.0130  153.1940  138.4080 O   0  0  0  0  0  0  0  0  0  0  0  0
  142.2820  155.9900  137.0560 C   0  0  0  0  0  0  0  0  0  0  0  0
  141.4900  156.5380  136.0710 C   0  0  0  0  0  0  0  0  0  0  0  0
  140.8840  157.7890  136.0020 C   0  0  0  0  0  0  0  0  0  0  0  0
  140.0910  158.0730  134.8770 C   0  0  0  0  0  0  0  0  0  0  0  0
  139.9070  157.1040  133.8590 C   0  0  0  0  0  0  0  0  0  0  0  0
  139.0890  157.4350  132.6470 C   0  0  0  0  0  0  0  0  0  0  0  0
  140.5450  155.8490  133.9600 C   0  0  0  0  0  0  0  0  0  0  0  0
  141.3390  155.6000  135.0840 C   0  0  0  0  0  0  0  0  0  0  0  0
  144.0050  152.2460  133.3600 C   0  0  0  0  0  0  0  0  0  0  0  0
  145.9310  155.0520  134.4860 C   0  0  0  0  0  0  0  0  0  0  0  0
  147.1620  155.4580  135.3260 C   0  0  0  0  0  0  0  0  0  0  0  0
  144.3445  149.9096  140.8106 H   0  0  0  0  0  0  0  0  0  0  0  0
  143.8991  150.6896  139.2551 H   0  0  0  0  0  0  0  0  0  0  0  0
  144.7631  149.1148  139.2551 H   0  0  0  0  0  0  0  0  0  0  0  0
  146.2570  151.1100  140.7818 H   0  0  0  0  0  0  0  0  0  0  0  0
  146.7632  150.1434  139.3442 H   0  0  0  0  0  0  0  0  0  0  0  0
  148.7205  153.6278  137.9590 H   0  0  0  0  0  0  0  0  0  0  0  0
  148.6558  151.0659  138.4671 H   0  0  0  0  0  0  0  0  0  0  0  0
  147.7358  150.9434  136.9292 H   0  0  0  0  0  0  0  0  0  0  0  0
  149.3991  151.6218  136.9292 H   0  0  0  0  0  0  0  0  0  0  0  0
  148.8623  154.5735  136.3277 H   0  0  0  0  0  0  0  0  0  0  0  0
  149.4000  153.8965  134.1446 H   0  0  0  0  0  0  0  0  0  0  0  0
  148.5790  152.4016  134.7861 H   0  0  0  0  0  0  0  0  0  0  0  0
  147.6746  154.3399  132.6752 H   0  0  0  0  0  0  0  0  0  0  0  0
  147.4630  152.5565  132.7920 H   0  0  0  0  0  0  0  0  0  0  0  0
  145.5172  153.3672  132.0721 H   0  0  0  0  0  0  0  0  0  0  0  0
  143.5240  154.9448  132.1711 H   0  0  0  0  0  0  0  0  0  0  0  0
  143.7634  155.2377  133.7975 H   0  0  0  0  0  0  0  0  0  0  0  0
  141.9616  153.0111  132.6636 H   0  0  0  0  0  0  0  0  0  0  0  0
  145.3040  152.6680  137.3940 H   0  0  0  0  0  0  0  0  0  0  0  0
  145.1010  153.7050  135.9510 H   0  0  0  0  0  0  0  0  0  0  0  0
  142.6066  156.4667  137.9927 H   0  0  0  0  0  0  0  0  0  0  0  0
  141.0213  158.5314  136.8020 H   0  0  0  0  0  0  0  0  0  0  0  0
  139.6083  159.0572  134.7856 H   0  0  0  0  0  0  0  0  0  0  0  0
  138.1117  157.8304  132.9610 H   0  0  0  0  0  0  0  0  0  0  0  0
  139.6144  158.1913  132.0454 H   0  0  0  0  0  0  0  0  0  0  0  0
  138.9406  156.5261  132.0454 H   0  0  0  0  0  0  0  0  0  0  0  0
  140.4210  155.0875  133.1760 H   0  0  0  0  0  0  0  0  0  0  0  0
  143.9618  151.4524  132.5995 H   0  0  0  0  0  0  0  0  0  0  0  0
  144.2167  151.6216  134.2405 H   0  0  0  0  0  0  0  0  0  0  0  0
  145.8030  155.7813  133.6725 H   0  0  0  0  0  0  0  0  0  0  0  0
  145.0591  155.0368  135.1565 H   0  0  0  0  0  0  0  0  0  0  0  0
  147.7978  156.1268  134.7272 H   0  0  0  0  0  0  0  0  0  0  0  0
  146.8057  155.9640  136.2354 H   0  0  0  0  0  0  0  0  0  0  0  0
  1  2  1  0
  2  3  1  0
  3  4  1  0
  4  5  2  0
  4  6  1  0
  6  7  1  0
  6  8  1  0
  8  9  1  0
  9 10  1  0
 10 11  1  0
 11 12  1  0
 12 13  1  0
 13 14  1  0
 14 15  1  0
 15 16  1  0
 16 17  2  0
 16 18  1  0
 18 19  1  0
 19 20  1  0
 20 21  1  0
 20 22  2  0
 19 23  2  0
 23 24  1  0
 24 25  2  0
 25 26  1  0
 26 27  2  0
 27 28  1  0
 27 29  1  0
 29 30  2  0
 15 31  1  0
 12 32  1  0
 32 33  1  0
 33  9  1  0
 31 13  1  0
 30 18  1  0
 30 24  1  0
  1 34  1  0
  1 35  1  0
  1 36  1  0
  2 37  1  0
  2 38  1  0
  6 39  1  1
  7 40  1  0
  7 41  1  0
  7 42  1  0
  9 43  1  0
 10 44  1  0
 10 45  1  0
 11 46  1  0
 11 47  1  0
 13 48  1  6
 14 49  1  0
 14 50  1  0
 15 51  1  6
 21 52  1  0
 21 53  1  0
 23 54  1  0
 25 55  1  0
 26 56  1  0
 28 57  1  0
 28 58  1  0
 28 59  1  0
 29 60  1  0
 31 61  1  0
 31 62  1  0
 32 63  1  0
 32 64  1  0
 33 65  1  0
 33 66  1  0
M  END
>  <UniqueID>  (44) 
44

>  <SMILES>  (44) 
CCOC(=O)[C@@H](C)OC1CCN(C2CC(C(=O)n3c(C(N)=O)cc4ccc(C)cc43)C2)CC1

>  <Energy>  (44) 
178.23387599209988

>  <Genealogy>  (44) 
CCOC(=O)[C@@H](C)OC1CCN(C2CC(C(=O)n3c(C(N)=O)cc4ccc(C)cc43)C2)CC1 (3D coordinates assigned)
CCOC(=O)[C@@H](C)OC1CCN(C2CC(C(=O)n3c(C(N)=O)cc4ccc(C)cc43)C2)CC1 (nonaromatic ring conformer: 178.23387599209988 kcal/mol)

>  <smiles>  (44) 
CCOC(=O)[C@@H](C)OC1CCN(C2CC(C(=O)n3c(C(N)=O)cc4ccc(C)cc43)C2)CC1

>  <score_type>  (44) 
oracle

>  <origin>  (44) 
adg

>  <m_score__min__energy>  (44) 
-9.1300000000000008

>  <m_primary>  (44) 
energy

$$$$
44:0
     RDKit          3D

 40 41  0  0  0  0  0  0  0  0999 V2000
  138.7410  159.2670  131.2010 C   0  0  0  0  0  0  0  0  0  0  0  0
  139.4530  158.1440  131.7080 O   0  0  0  0  0  0  0  0  0  0  0  0
  139.1960  157.5970  132.9690 C   0  0  0  0  0  0  0  0  0  0  0  0
  138.8510  158.3370  133.9310 O   0  0  0  0  0  0  0  0  0  0  0  0
  139.3240  156.1190  133.1770 C   0  0  0  0  0  0  0  0  0  0  0  0
  140.7570  155.7040  133.5450 C   0  0  0  0  0  0  0  0  0  0  0  0
  141.3640  156.5670  134.6550 C   0  0  0  0  0  0  0  0  0  0  0  0
  142.7540  156.7510  134.4170 O   0  0  0  0  0  0  0  0  0  0  0  0
  143.2550  157.5180  133.3640 C   0  0  0  0  0  0  0  0  0  0  0  0
  143.2140  157.0820  132.1810 O   0  0  0  0  0  0  0  0  0  0  0  0
  143.8380  158.8010  133.6390 N   0  0  0  0  0  0  0  0  0  0  0  0
  143.2060  159.9400  134.0460 C   0  0  0  0  0  0  0  0  0  0  0  0
  141.7860  160.0560  134.4340 C   0  0  0  0  0  0  0  0  0  0  0  0
  140.7950  160.4460  133.4860 N   0  0  0  0  0  0  0  0  0  0  0  0
  141.4330  159.7560  135.6060 O   0  0  0  0  0  0  0  0  0  0  0  0
  144.1140  160.9920  134.1440 C   0  0  0  0  0  0  0  0  0  0  0  0
  145.3330  160.4570  133.7940 C   0  0  0  0  0  0  0  0  0  0  0  0
  146.5870  161.0560  133.7290 C   0  0  0  0  0  0  0  0  0  0  0  0
  147.6740  160.2640  133.3230 C   0  0  0  0  0  0  0  0  0  0  0  0
  147.4900  158.9030  132.9710 C   0  0  0  0  0  0  0  0  0  0  0  0
  148.6820  158.0750  132.5650 C   0  0  0  0  0  0  0  0  0  0  0  0
  149.8410  158.7520  132.8930 F   0  0  0  0  0  0  0  0  0  0  0  0
  148.6840  156.8460  133.2030 F   0  0  0  0  0  0  0  0  0  0  0  0
  148.6600  157.8540  131.1990 F   0  0  0  0  0  0  0  0  0  0  0  0
  146.2010  158.3270  133.0670 C   0  0  0  0  0  0  0  0  0  0  0  0
  145.1400  159.1340  133.4930 C   0  0  0  0  0  0  0  0  0  0  0  0
  138.3597  159.8684  132.0394 H   0  0  0  0  0  0  0  0  0  0  0  0
  139.4150  159.8813  130.5859 H   0  0  0  0  0  0  0  0  0  0  0  0
  137.8979  158.9194  130.5859 H   0  0  0  0  0  0  0  0  0  0  0  0
  138.6481  155.8164  133.9904 H   0  0  0  0  0  0  0  0  0  0  0  0
  139.0620  155.6221  132.2313 H   0  0  0  0  0  0  0  0  0  0  0  0
  140.7429  154.6573  133.8830 H   0  0  0  0  0  0  0  0  0  0  0  0
  141.3788  155.8375  132.6475 H   0  0  0  0  0  0  0  0  0  0  0  0
  140.8635  157.5464  134.6709 H   0  0  0  0  0  0  0  0  0  0  0  0
  141.2250  156.0637  135.6232 H   0  0  0  0  0  0  0  0  0  0  0  0
  140.2430  159.7310  132.9610 H   0  0  0  0  0  0  0  0  0  0  0  0
  143.9017  162.0303  134.4387 H   0  0  0  0  0  0  0  0  0  0  0  0
  146.7231  162.1165  133.9874 H   0  0  0  0  0  0  0  0  0  0  0  0
  148.6805  160.7054  133.2776 H   0  0  0  0  0  0  0  0  0  0  0  0
  146.0368  157.2695  132.8127 H   0  0  0  0  0  0  0  0  0  0  0  0
  1  2  1  0
  2  3  1  0
  3  4  2  0
  3  5  1  0
  5  6  1  0
  6  7  1  0
  7  8  1  0
  8  9  1  0
  9 10  2  0
  9 11  1  0
 11 12  1  0
 12 13  1  0
 13 14  1  0
 13 15  2  0
 12 16  2  0
 16 17  1  0
 17 18  2  0
 18 19  1  0
 19 20  2  0
 20 21  1  0
 21 22  1  0
 21 23  1  0
 21 24  1  0
 20 25  1  0
 25 26  2  0
 26 11  1  0
 26 17  1  0
  1 27  1  0
  1 28  1  0
  1 29  1  0
  5 30  1  0
  5 31  1  0
  6 32  1  0
  6 33  1  0
  7 34  1  0
  7 35  1  0
 14 36  1  0
 16 37  1  0
 18 38  1  0
 19 39  1  0
 25 40  1  0
M  CHG  1  14  -1
M  END
>  <UniqueID>  (45) 
45

>  <SMILES>  (45) 
COC(=O)CCCOC(=O)n1c(C([NH-])=O)cc2ccc(C(F)(F)F)cc21

>  <Energy>  (45) 
68.66516538987807

>  <Genealogy>  (45) 
COC(=O)CCCOC(=O)n1c(C([NH-])=O)cc2ccc(C(F)(F)F)cc21 (protonated)
COC(=O)CCCOC(=O)n1c(C([NH-])=O)cc2ccc(C(F)(F)F)cc21 (3D coordinates assigned)
COC(=O)CCCOC(=O)n1c(C([NH-])=O)cc2ccc(C(F)(F)F)cc21 (optimized conformer: 68.66516538987807 kcal/mol)

>  <smiles>  (45) 
COC(=O)CCCOC(=O)n1c(C(N)=O)cc2ccc(C(F)(F)F)cc21

>  <score_type>  (45) 
oracle

>  <origin>  (45) 
adg

>  <m_score__min__energy>  (45) 
-6.2800000000000002

>  <m_primary>  (45) 
energy

$$$$
45:0
     RDKit          3D

 44 45  0  0  0  0  0  0  0  0999 V2000
  140.9960  159.1070  137.1660 C   0  0  0  0  0  0  0  0  0  0  0  0
  140.5470  158.0140  136.5560 C   0  0  0  0  0  0  0  0  0  0  0  0
  139.6620  158.0920  135.3430 C   0  0  0  0  0  0  0  0  0  0  0  0
  140.4490  157.9540  134.1060 N   0  0  0  0  0  0  0  0  0  0  0  0
  139.8880  157.1440  133.0220 C   0  0  0  0  0  0  0  0  0  0  0  0
  141.7450  158.5980  133.9480 C   0  0  0  0  0  0  0  0  0  0  0  0
  141.8600  160.0180  133.8700 C   0  0  0  0  0  0  0  0  0  0  0  0
  143.1120  160.6440  133.7330 C   0  0  0  0  0  0  0  0  0  0  0  0
  144.2400  159.8390  133.6720 C   0  0  0  0  0  0  0  0  0  0  0  0
  145.5740  160.1790  133.5980 C   0  0  0  0  0  0  0  0  0  0  0  0
  146.2670  158.9670  133.6340 C   0  0  0  0  0  0  0  0  0  0  0  0
  147.7390  158.8270  133.5460 C   0  0  0  0  0  0  0  0  0  0  0  0
  148.3710  157.5630  133.7500 N   0  0  0  0  0  0  0  0  0  0  0  0
  148.4530  159.8370  133.3060 O   0  0  0  0  0  0  0  0  0  0  0  0
  145.3910  157.9280  133.7170 N   0  0  0  0  0  0  0  0  0  0  0  0
  145.6910  156.5370  133.8930 C   0  0  0  0  0  0  0  0  0  0  0  0
  146.0320  156.1110  135.0290 O   0  0  0  0  0  0  0  0  0  0  0  0
  145.7440  155.6180  132.7100 C   0  0  0  0  0  0  0  0  0  0  0  0
  147.0530  155.6400  132.1460 O   0  0  0  0  0  0  0  0  0  0  0  0
  148.1140  154.8650  132.6340 C   0  0  0  0  0  0  0  0  0  0  0  0
  149.2270  155.3980  132.8910 O   0  0  0  0  0  0  0  0  0  0  0  0
  147.9470  153.4200  132.8510 C   0  0  0  0  0  0  0  0  0  0  0  0
  148.9600  152.5660  132.7330 C   0  0  0  0  0  0  0  0  0  0  0  0
  144.1590  158.4760  133.7400 C   0  0  0  0  0  0  0  0  0  0  0  0
  142.9330  157.8220  133.8840 C   0  0  0  0  0  0  0  0  0  0  0  0
  141.6421  159.0165  138.0517 H   0  0  0  0  0  0  0  0  0  0  0  0
  140.7214  160.1017  136.7849 H   0  0  0  0  0  0  0  0  0  0  0  0
  140.8306  157.0266  136.9493 H   0  0  0  0  0  0  0  0  0  0  0  0
  138.9178  157.2832  135.3880 H   0  0  0  0  0  0  0  0  0  0  0  0
  139.1647  159.0731  135.3344 H   0  0  0  0  0  0  0  0  0  0  0  0
  139.3106  156.3104  133.4482 H   0  0  0  0  0  0  0  0  0  0  0  0
  139.2277  157.7681  132.4019 H   0  0  0  0  0  0  0  0  0  0  0  0
  140.7044  156.7453  132.4019 H   0  0  0  0  0  0  0  0  0  0  0  0
  140.9511  160.6357  133.9180 H   0  0  0  0  0  0  0  0  0  0  0  0
  143.1942  161.7394  133.6759 H   0  0  0  0  0  0  0  0  0  0  0  0
  146.0016  161.1899  133.5259 H   0  0  0  0  0  0  0  0  0  0  0  0
  149.4130  157.4900  133.7160 H   0  0  0  0  0  0  0  0  0  0  0  0
  147.8220  156.6920  133.9180 H   0  0  0  0  0  0  0  0  0  0  0  0
  145.5006  154.5943  133.0305 H   0  0  0  0  0  0  0  0  0  0  0  0
  145.0155  155.9507  131.9559 H   0  0  0  0  0  0  0  0  0  0  0  0
  146.9529  153.0332  133.1194 H   0  0  0  0  0  0  0  0  0  0  0  0
  148.7963  151.4916  132.9031 H   0  0  0  0  0  0  0  0  0  0  0  0
  149.9614  152.9341  132.4653 H   0  0  0  0  0  0  0  0  0  0  0  0
  142.8884  156.7247  133.9468 H   0  0  0  0  0  0  0  0  0  0  0  0
  1  2  2  0
  2  3  1  0
  3  4  1  0
  4  5  1  0
  4  6  1  0
  6  7  2  0
  7  8  1  0
  8  9  2  0
  9 10  1  0
 10 11  2  0
 11 12  1  0
 12 13  1  0
 12 14  2  0
 11 15  1  0
 15 16  1  0
 16 17  2  0
 16 18  1  0
 18 19  1  0
 19 20  1  0
 20 21  2  0
 20 22  1  0
 22 23  2  0
 15 24  1  0
 24 25  2  0
 25  6  1  0
 24  9  1  0
  1 26  1  0
  1 27  1  0
  2 28  1  0
  3 29  1  0
  3 30  1  0
  5 31  1  0
  5 32  1  0
  5 33  1  0
  7 34  1  0
  8 35  1  0
 10 36  1  0
 13 37  1  0
 13 38  1  0
 18 39  1  0
 18 40  1  0
 22 41  1  0
 23 42  1  0
 23 43  1  0
 25 44  1  0
M  END
>  <UniqueID>  (46) 
46

>  <SMILES>  (46) 
C=CCN(C)c1ccc2cc(C(N)=O)n(C(=O)COC(=O)C=C)c2c1

>  <Energy>  (46) 
77.11446850672161

>  <Genealogy>  (46) 
C=CCN(C)c1ccc2cc(C(N)=O)n(C(=O)COC(=O)C=C)c2c1 (3D coordinates assigned)
C=CCN(C)c1ccc2cc(C(N)=O)n(C(=O)COC(=O)C=C)c2c1 (optimized conformer: 77.11446850672161 kcal/mol)

>  <smiles>  (46) 
C=CCN(C)c1ccc2cc(C(N)=O)n(C(=O)COC(=O)C=C)c2c1

>  <score_type>  (46) 
oracle

>  <origin>  (46) 
adg

>  <m_score__min__energy>  (46) 
-6.8200000000000003

>  <m_primary>  (46) 
energy

$$$$
46:0
     RDKit          3D

 34 36  0  0  0  0  0  0  0  0999 V2000
  145.0250  155.6670  134.1650 C   0  0  0  0  0  0  0  0  0  0  0  0
  144.3710  154.9020  135.2300 N   0  0  0  0  0  0  0  0  0  0  0  0
  144.9690  154.2040  136.2220 C   0  0  0  0  0  0  0  0  0  0  0  0
  146.4160  153.9660  136.3860 C   0  0  0  0  0  0  0  0  0  0  0  0
  147.2640  154.7220  135.8440 O   0  0  0  0  0  0  0  0  0  0  0  0
  146.8570  152.8800  137.1310 O   0  0  0  0  0  0  0  0  0  0  0  0
  143.9910  153.7220  137.0650 C   0  0  0  0  0  0  0  0  0  0  0  0
  142.7810  154.0920  136.6060 N   0  0  0  0  0  0  0  0  0  0  0  0
  143.0430  154.7960  135.4830 C   0  0  0  0  0  0  0  0  0  0  0  0
  141.9630  155.3520  134.6400 C   0  0  0  0  0  0  0  0  0  0  0  0
  141.1680  154.4780  133.8580 C   0  0  0  0  0  0  0  0  0  0  0  0
  140.1630  154.9820  133.0170 C   0  0  0  0  0  0  0  0  0  0  0  0
  139.9780  156.3620  132.9770 C   0  0  0  0  0  0  0  0  0  0  0  0
  139.1070  157.1140  132.2230 C   0  0  0  0  0  0  0  0  0  0  0  0
  139.3740  158.4350  132.5640 C   0  0  0  0  0  0  0  0  0  0  0  0
  138.6150  159.5810  132.0230 C   0  0  0  0  0  0  0  0  0  0  0  0
  139.1410  160.9080  132.0780 N   0  0  0  0  0  0  0  0  0  0  0  0
  137.4600  159.3940  131.5560 O   0  0  0  0  0  0  0  0  0  0  0  0
  140.3790  158.5050  133.4820 N   0  0  0  0  0  0  0  0  0  0  0  0
  141.0130  159.6870  133.9990 C   0  0  0  0  0  0  0  0  0  0  0  0
  140.9560  159.9550  135.2280 O   0  0  0  0  0  0  0  0  0  0  0  0
  141.6950  160.5500  133.1480 O   0  0  0  0  0  0  0  0  0  0  0  0
  140.7360  157.2240  133.7270 C   0  0  0  0  0  0  0  0  0  0  0  0
  141.7610  156.7480  134.5540 C   0  0  0  0  0  0  0  0  0  0  0  0
  145.6784  156.4314  134.6108 H   0  0  0  0  0  0  0  0  0  0  0  0
  145.6264  154.9884  133.5423 H   0  0  0  0  0  0  0  0  0  0  0  0
  144.2611  156.1556  133.5423 H   0  0  0  0  0  0  0  0  0  0  0  0
  144.1714  153.1270  137.9725 H   0  0  0  0  0  0  0  0  0  0  0  0
  141.3400  153.3928  133.9103 H   0  0  0  0  0  0  0  0  0  0  0  0
  139.5414  154.3083  132.4089 H   0  0  0  0  0  0  0  0  0  0  0  0
  138.3592  156.7482  131.5040 H   0  0  0  0  0  0  0  0  0  0  0  0
  138.6080  161.7010  131.6560 H   0  0  0  0  0  0  0  0  0  0  0  0
  140.0140  161.1210  132.6080 H   0  0  0  0  0  0  0  0  0  0  0  0
  142.3941  157.4445  135.1233 H   0  0  0  0  0  0  0  0  0  0  0  0
  1  2  1  0
  2  3  1  0
  3  4  1  0
  4  5  2  0
  4  6  1  0
  3  7  2  0
  7  8  1  0
  8  9  2  0
  9 10  1  0
 10 11  2  0
 11 12  1  0
 12 13  2  0
 13 14  1  0
 14 15  2  0
 15 16  1  0
 16 17  1  0
 16 18  2  0
 15 19  1  0
 19 20  1  0
 20 21  2  0
 20 22  1  0
 19 23  1  0
 23 24  2  0
  9  2  1  0
 24 10  1  0
 23 13  1  0
  1 25  1  0
  1 26  1  0
  1 27  1  0
  7 28  1  0
 11 29  1  0
 12 30  1  0
 14 31  1  0
 17 32  1  0
 17 33  1  0
 24 34  1  0
M  CHG  2   6  -1  22  -1
M  END
>  <UniqueID>  (47) 
47

>  <SMILES>  (47) 
Cn1c(C(=O)[O-])cnc1-c1ccc2cc(C(N)=O)n(C(=O)[O-])c2c1

>  <Energy>  (47) 
112.24099103575847

>  <Genealogy>  (47) 
Cn1c(C(=O)[O-])cnc1-c1ccc2cc(C(N)=O)n(C(=O)[O-])c2c1 (protonated)
Cn1c(C(=O)[O-])cnc1-c1ccc2cc(C(N)=O)n(C(=O)[O-])c2c1 (3D coordinates assigned)
Cn1c(C(=O)[O-])cnc1-c1ccc2cc(C(N)=O)n(C(=O)[O-])c2c1 (optimized conformer: 112.24099103575847 kcal/mol)

>  <smiles>  (47) 
Cn1c(C(=O)O)cnc1-c1ccc2cc(C(N)=O)n(C(=O)O)c2c1

>  <score_type>  (47) 
oracle

>  <origin>  (47) 
adg

>  <m_score__min__energy>  (47) 
-6.9400000000000004

>  <m_primary>  (47) 
energy

$$$$
47:0
     RDKit          3D

 39 40  0  0  0  0  0  0  0  0999 V2000
  143.2850  153.4200  137.6640 C   0  0  0  0  0  0  0  0  0  0  0  0
  142.1270  153.9550  137.0340 O   0  0  0  0  0  0  0  0  0  0  0  0
  141.2880  154.8800  137.6620 C   0  0  0  0  0  0  0  0  0  0  0  0
  140.6550  154.5690  138.7080 O   0  0  0  0  0  0  0  0  0  0  0  0
  141.1690  156.2630  137.1090 C   0  0  0  0  0  0  0  0  0  0  0  0
  141.7860  156.3390  135.8260 O   0  0  0  0  0  0  0  0  0  0  0  0
  141.2920  155.6790  134.6950 C   0  0  0  0  0  0  0  0  0  0  0  0
  140.3890  156.2090  133.9920 O   0  0  0  0  0  0  0  0  0  0  0  0
  141.8360  154.4000  134.3440 N   0  0  0  0  0  0  0  0  0  0  0  0
  141.3700  153.5990  133.2460 C   0  0  0  0  0  0  0  0  0  0  0  0
  140.3370  153.9310  132.6050 O   0  0  0  0  0  0  0  0  0  0  0  0
  142.0600  152.3870  132.8990 N   0  0  0  0  0  0  0  0  0  0  0  0
  143.3960  152.1320  132.9960 C   0  0  0  0  0  0  0  0  0  0  0  0
  144.4340  153.1250  133.3500 C   0  0  0  0  0  0  0  0  0  0  0  0
  145.4220  153.5220  132.3980 N   0  0  0  0  0  0  0  0  0  0  0  0
  144.4400  153.6520  134.4940 O   0  0  0  0  0  0  0  0  0  0  0  0
  143.6680  150.8180  132.6160 C   0  0  0  0  0  0  0  0  0  0  0  0
  142.4490  150.2760  132.2780 C   0  0  0  0  0  0  0  0  0  0  0  0
  142.1310  148.9970  131.8260 C   0  0  0  0  0  0  0  0  0  0  0  0
  140.7800  148.7080  131.5650 C   0  0  0  0  0  0  0  0  0  0  0  0
  139.7800  149.6900  131.7740 C   0  0  0  0  0  0  0  0  0  0  0  0
  138.3460  149.3780  131.4650 C   0  0  0  0  0  0  0  0  0  0  0  0
  140.1420  150.9800  132.2170 C   0  0  0  0  0  0  0  0  0  0  0  0
  141.4960  151.2430  132.4550 C   0  0  0  0  0  0  0  0  0  0  0  0
  143.1665  153.4747  138.7562 H   0  0  0  0  0  0  0  0  0  0  0  0
  143.4152  152.3705  137.3614 H   0  0  0  0  0  0  0  0  0  0  0  0
  144.1686  154.0011  137.3614 H   0  0  0  0  0  0  0  0  0  0  0  0
  140.1050  156.5260  137.0158 H   0  0  0  0  0  0  0  0  0  0  0  0
  141.6731  156.9646  137.7899 H   0  0  0  0  0  0  0  0  0  0  0  0
  142.6090  154.0250  134.9370 H   0  0  0  0  0  0  0  0  0  0  0  0
  145.4870  153.0700  131.4600 H   0  0  0  0  0  0  0  0  0  0  0  0
  146.1280  154.2510  132.6490 H   0  0  0  0  0  0  0  0  0  0  0  0
  144.6487  150.3204  132.5916 H   0  0  0  0  0  0  0  0  0  0  0  0
  142.9124  148.2371  131.6780 H   0  0  0  0  0  0  0  0  0  0  0  0
  140.4969  147.7113  131.1955 H   0  0  0  0  0  0  0  0  0  0  0  0
  137.7866  149.2563  132.4043 H   0  0  0  0  0  0  0  0  0  0  0  0
  137.9089  150.2021  130.8820 H   0  0  0  0  0  0  0  0  0  0  0  0
  138.2907  148.4468  130.8820 H   0  0  0  0  0  0  0  0  0  0  0  0
  139.3802  151.7583  132.3712 H   0  0  0  0  0  0  0  0  0  0  0  0
  1  2  1  0
  2  3  1  0
  3  4  2  0
  3  5  1  0
  5  6  1  0
  6  7  1  0
  7  8  2  0
  7  9  1  0
  9 10  1  0
 10 11  2  0
 10 12  1  0
 12 13  1  0
 13 14  1  0
 14 15  1  0
 14 16  2  0
 13 17  2  0
 17 18  1  0
 18 19  2  0
 19 20  1  0
 20 21  2  0
 21 22  1  0
 21 23  1  0
 23 24  2  0
 24 12  1  0
 24 18  1  0
  1 25  1  0
  1 26  1  0
  1 27  1  0
  5 28  1  0
  5 29  1  0
  9 30  1  0
 15 31  1  0
 15 32  1  0
 17 33  1  0
 19 34  1  0
 20 35  1  0
 22 36  1  0
 22 37  1  0
 22 38  1  0
 23 39  1  0
M  END
>  <UniqueID>  (48) 
48

>  <SMILES>  (48) 
COC(=O)COC(=O)NC(=O)n1c(C(N)=O)cc2ccc(C)cc21

>  <Energy>  (48) 
72.34528093672117

>  <Genealogy>  (48) 
COC(=O)COC(=O)NC(=O)n1c(C(N)=O)cc2ccc(C)cc21 (3D coordinates assigned)
COC(=O)COC(=O)NC(=O)n1c(C(N)=O)cc2ccc(C)cc21 (optimized conformer: 72.34528093672117 kcal/mol)

>  <smiles>  (48) 
COC(=O)COC(=O)NC(=O)n1c(C(N)=O)cc2ccc(C)cc21

>  <score_type>  (48) 
oracle

>  <origin>  (48) 
adg

>  <m_score__min__energy>  (48) 
-6.8300000000000001

>  <m_primary>  (48) 
energy

$$$$
48:0
     RDKit          3D

 38 40  0  0  0  0  0  0  0  0999 V2000
  139.5080  156.3270  133.0650 C   0  0  0  0  0  0  0  0  0  0  0  0
  139.8340  157.7840  133.0300 C   0  0  0  0  0  0  0  0  0  0  0  0
  139.2510  158.6620  132.2480 O   0  0  0  0  0  0  0  0  0  0  0  0
  139.7980  159.8200  132.5380 C   0  0  0  0  0  0  0  0  0  0  0  0
  139.4830  160.9010  131.9760 O   0  0  0  0  0  0  0  0  0  0  0  0
  140.7090  159.7280  133.4800 O   0  0  0  0  0  0  0  0  0  0  0  0
  140.7520  158.4580  133.8130 C   0  0  0  0  0  0  0  0  0  0  0  0
  141.6510  157.8850  134.8660 C   0  0  0  0  0  0  0  0  0  0  0  0
  142.9660  158.4220  134.7450 O   0  0  0  0  0  0  0  0  0  0  0  0
  143.7440  158.2910  133.5900 C   0  0  0  0  0  0  0  0  0  0  0  0
  143.3110  157.6360  132.6010 O   0  0  0  0  0  0  0  0  0  0  0  0
  145.0350  158.9150  133.5240 N   0  0  0  0  0  0  0  0  0  0  0  0
  145.3120  160.2490  133.5500 C   0  0  0  0  0  0  0  0  0  0  0  0
  144.3400  161.3290  133.8100 C   0  0  0  0  0  0  0  0  0  0  0  0
  142.9350  161.1080  133.6760 N   0  0  0  0  0  0  0  0  0  0  0  0
  144.7530  162.4510  134.2080 O   0  0  0  0  0  0  0  0  0  0  0  0
  146.6730  160.4720  133.3540 C   0  0  0  0  0  0  0  0  0  0  0  0
  147.2310  159.2200  133.2230 C   0  0  0  0  0  0  0  0  0  0  0  0
  148.5530  158.8490  133.0010 C   0  0  0  0  0  0  0  0  0  0  0  0
  148.8400  157.4800  132.8730 C   0  0  0  0  0  0  0  0  0  0  0  0
  147.8080  156.5130  132.9640 C   0  0  0  0  0  0  0  0  0  0  0  0
  148.1170  155.0520  132.8080 C   0  0  0  0  0  0  0  0  0  0  0  0
  149.4640  154.8850  132.5450 F   0  0  0  0  0  0  0  0  0  0  0  0
  147.7930  154.3820  133.9750 F   0  0  0  0  0  0  0  0  0  0  0  0
  146.4760  156.9290  133.1860 C   0  0  0  0  0  0  0  0  0  0  0  0
  146.2210  158.2970  133.3290 C   0  0  0  0  0  0  0  0  0  0  0  0
  139.4333  155.9930  134.1104 H   0  0  0  0  0  0  0  0  0  0  0  0
  138.5488  156.1535  132.5552 H   0  0  0  0  0  0  0  0  0  0  0  0
  140.3018  155.7613  132.5552 H   0  0  0  0  0  0  0  0  0  0  0  0
  141.2488  158.1325  135.8594 H   0  0  0  0  0  0  0  0  0  0  0  0
  141.6989  156.7935  134.7379 H   0  0  0  0  0  0  0  0  0  0  0  0
  142.5500  160.1500  133.5220 H   0  0  0  0  0  0  0  0  0  0  0  0
  142.2640  161.8950  133.8220 H   0  0  0  0  0  0  0  0  0  0  0  0
  147.1913  161.4413  133.3127 H   0  0  0  0  0  0  0  0  0  0  0  0
  149.3492  159.6044  132.9279 H   0  0  0  0  0  0  0  0  0  0  0  0
  149.8766  157.1551  132.7003 H   0  0  0  0  0  0  0  0  0  0  0  0
  147.5274  154.6457  131.9730 H   0  0  0  0  0  0  0  0  0  0  0  0
  145.6591  156.1947  133.2450 H   0  0  0  0  0  0  0  0  0  0  0  0
  1  2  1  0
  2  3  1  0
  3  4  1  0
  4  5  2  0
  4  6  1  0
  6  7  1  0
  7  8  1  0
  8  9  1  0
  9 10  1  0
 10 11  2  0
 10 12  1  0
 12 13  1  0
 13 14  1  0
 14 15  1  0
 14 16  2  0
 13 17  2  0
 17 18  1  0
 18 19  2  0
 19 20  1  0
 20 21  2  0
 21 22  1  0
 22 23  1  0
 22 24  1  0
 21 25  1  0
 25 26  2  0
  7  2  2  0
 26 12  1  0
 26 18  1  0
  1 27  1  0
  1 28  1  0
  1 29  1  0
  8 30  1  0
  8 31  1  0
 15 32  1  0
 15 33  1  0
 17 34  1  0
 19 35  1  0
 20 36  1  0
 22 37  1  0
 25 38  1  0
M  END
>  <UniqueID>  (49) 
49

>  <SMILES>  (49) 
Cc1oc(=O)oc1COC(=O)n1c(C(N)=O)cc2ccc(C(F)F)cc21

>  <Energy>  (49) 
107.85719196891932

>  <Genealogy>  (49) 
Cc1oc(=O)oc1COC(=O)n1c(C(N)=O)cc2ccc(C(F)F)cc21 (3D coordinates assigned)
Cc1oc(=O)oc1COC(=O)n1c(C(N)=O)cc2ccc(C(F)F)cc21 (optimized conformer: 107.85719196891932 kcal/mol)

>  <smiles>  (49) 
Cc1oc(=O)oc1COC(=O)n1c(C(N)=O)cc2ccc(C(F)F)cc21

>  <score_type>  (49) 
oracle

>  <origin>  (49) 
adg

>  <m_score__min__energy>  (49) 
-6.4000000000000004

>  <m_primary>  (49) 
energy

$$$$
49:0
     RDKit          3D

 38 39  0  0  0  0  0  0  0  0999 V2000
  149.3920  161.7360  130.3550 C   0  0  0  0  0  0  0  0  0  0  0  0
  148.9000  160.6940  131.0340 C   0  0  0  0  0  0  0  0  0  0  0  0
  149.2300  159.3040  130.5880 C   0  0  0  0  0  0  0  0  0  0  0  0
  148.0210  160.8530  132.1160 O   0  0  0  0  0  0  0  0  0  0  0  0
  147.8740  159.9570  133.1850 C   0  0  0  0  0  0  0  0  0  0  0  0
  148.8400  159.7180  133.9590 O   0  0  0  0  0  0  0  0  0  0  0  0
  146.6350  159.2480  133.3490 N   0  0  0  0  0  0  0  0  0  0  0  0
  145.4030  159.7760  133.6020 C   0  0  0  0  0  0  0  0  0  0  0  0
  145.1140  161.1920  133.9050 C   0  0  0  0  0  0  0  0  0  0  0  0
  146.1880  162.1040  134.1270 N   0  0  0  0  0  0  0  0  0  0  0  0
  143.9280  161.6170  133.9370 O   0  0  0  0  0  0  0  0  0  0  0  0
  144.4370  158.7730  133.6220 C   0  0  0  0  0  0  0  0  0  0  0  0
  145.1210  157.6030  133.3770 C   0  0  0  0  0  0  0  0  0  0  0  0
  144.6510  156.2990  133.2730 C   0  0  0  0  0  0  0  0  0  0  0  0
  145.5800  155.2860  132.9850 C   0  0  0  0  0  0  0  0  0  0  0  0
  146.9540  155.5860  132.8040 C   0  0  0  0  0  0  0  0  0  0  0  0
  147.8640  154.5110  132.4950 N   0  0  0  0  0  0  0  0  0  0  0  0
  148.4560  153.5980  133.4760 C   0  0  0  0  0  0  0  0  0  0  0  0
  149.1890  152.4460  132.7830 C   0  0  0  0  0  0  0  0  0  0  0  0
  149.6270  152.8180  131.5050 O   0  0  0  0  0  0  0  0  0  0  0  0
  147.3890  156.9300  132.9060 C   0  0  0  0  0  0  0  0  0  0  0  0
  146.4450  157.9160  133.2160 C   0  0  0  0  0  0  0  0  0  0  0  0
  149.1556  162.7617  130.6744 H   0  0  0  0  0  0  0  0  0  0  0  0
  150.0331  161.5672  129.4772 H   0  0  0  0  0  0  0  0  0  0  0  0
  149.3822  158.6628  131.4687 H   0  0  0  0  0  0  0  0  0  0  0  0
  148.4013  158.9063  129.9837 H   0  0  0  0  0  0  0  0  0  0  0  0
  150.1490  159.3213  129.9837 H   0  0  0  0  0  0  0  0  0  0  0  0
  146.9460  162.2220  133.4190 H   0  0  0  0  0  0  0  0  0  0  0  0
  143.3573  158.8903  133.7964 H   0  0  0  0  0  0  0  0  0  0  0  0
  143.5846  156.0677  133.4119 H   0  0  0  0  0  0  0  0  0  0  0  0
  145.2367  154.2445  132.8986 H   0  0  0  0  0  0  0  0  0  0  0  0
  148.1030  154.3420  131.4910 H   0  0  0  0  0  0  0  0  0  0  0  0
  149.1704  154.1549  134.1001 H   0  0  0  0  0  0  0  0  0  0  0  0
  147.6491  153.1777  134.0943 H   0  0  0  0  0  0  0  0  0  0  0  0
  150.0595  152.1579  133.3906 H   0  0  0  0  0  0  0  0  0  0  0  0
  148.4910  151.6022  132.6793 H   0  0  0  0  0  0  0  0  0  0  0  0
  150.5470  153.1750  131.6120 H   0  0  0  0  0  0  0  0  0  0  0  0
  148.4449  157.1931  132.7452 H   0  0  0  0  0  0  0  0  0  0  0  0
  1  2  2  0
  2  3  1  0
  2  4  1  0
  4  5  1  0
  5  6  2  0
  5  7  1  0
  7  8  1  0
  8  9  1  0
  9 10  1  0
  9 11  2  0
  8 12  2  0
 12 13  1  0
 13 14  2  0
 14 15  1  0
 15 16  2  0
 16 17  1  0
 17 18  1  0
 18 19  1  0
 19 20  1  0
 16 21  1  0
 21 22  2  0
 22  7  1  0
 22 13  1  0
  1 23  1  0
  1 24  1  0
  3 25  1  0
  3 26  1  0
  3 27  1  0
 10 28  1  0
 12 29  1  0
 14 30  1  0
 15 31  1  0
 17 32  1  0
 18 33  1  0
 18 34  1  0
 19 35  1  0
 19 36  1  0
 20 37  1  0
 21 38  1  0
M  CHG  1  10  -1
M  END
>  <UniqueID>  (50) 
50

>  <SMILES>  (50) 
C=C(C)OC(=O)n1c(C([NH-])=O)cc2ccc(NCCO)cc21

>  <Energy>  (50) 
77.34247303579984

>  <Genealogy>  (50) 
C=C(C)OC(=O)n1c(C([NH-])=O)cc2ccc(NCCO)cc21 (protonated)
C=C(C)OC(=O)n1c(C([NH-])=O)cc2ccc(NCCO)cc21 (3D coordinates assigned)
C=C(C)OC(=O)n1c(C([NH-])=O)cc2ccc(NCCO)cc21 (optimized conformer: 77.34247303579984 kcal/mol)

>  <smiles>  (50) 
C=C(C)OC(=O)n1c(C(N)=O)cc2ccc(NCCO)cc21

>  <score_type>  (50) 
oracle

>  <origin>  (50) 
adg

>  <m_score__min__energy>  (50) 
-6.7999999999999998

>  <m_primary>  (50) 
energy

$$$$
50:0
     RDKit          3D

 49 50  0  0  0  0  0  0  0  0999 V2000
  143.9930  153.6230  133.6160 C   0  0  0  0  0  0  0  0  0  0  0  0
  142.9300  154.1560  134.4740 N   0  0  0  0  0  0  0  0  0  0  0  0
  141.5510  153.9120  134.1380 C   0  0  0  0  0  0  0  0  0  0  0  0
  141.2060  152.7910  133.6730 O   0  0  0  0  0  0  0  0  0  0  0  0
  140.6030  154.9320  134.3040 O   0  0  0  0  0  0  0  0  0  0  0  0
  140.0330  155.6850  133.2690 C   0  0  0  0  0  0  0  0  0  0  0  0
  139.0350  155.2620  132.6250 O   0  0  0  0  0  0  0  0  0  0  0  0
  140.6420  157.0150  132.9130 C   0  0  0  0  0  0  0  0  0  0  0  0
  139.7800  158.1850  133.2610 N   0  0  0  0  0  0  0  0  0  0  0  0
  138.7660  158.3490  132.1930 C   0  0  0  0  0  0  0  0  0  0  0  0
  139.0780  157.9660  134.5480 C   0  0  0  0  0  0  0  0  0  0  0  0
  140.5860  159.4260  133.3420 C   0  0  0  0  0  0  0  0  0  0  0  0
  143.2710  155.0110  135.5840 C   0  0  0  0  0  0  0  0  0  0  0  0
  144.4480  155.4460  135.7090 O   0  0  0  0  0  0  0  0  0  0  0  0
  142.2720  155.4130  136.5340 N   0  0  0  0  0  0  0  0  0  0  0  0
  141.7680  156.6620  136.7410 C   0  0  0  0  0  0  0  0  0  0  0  0
  142.0800  157.8610  135.9360 C   0  0  0  0  0  0  0  0  0  0  0  0
  142.9010  157.7440  134.7760 N   0  0  0  0  0  0  0  0  0  0  0  0
  141.6530  158.9950  136.2780 O   0  0  0  0  0  0  0  0  0  0  0  0
  140.8490  156.6460  137.7890 C   0  0  0  0  0  0  0  0  0  0  0  0
  140.7990  155.3370  138.2110 C   0  0  0  0  0  0  0  0  0  0  0  0
  140.0640  154.7520  139.2370 C   0  0  0  0  0  0  0  0  0  0  0  0
  140.2310  153.3760  139.4660 C   0  0  0  0  0  0  0  0  0  0  0  0
  141.1130  152.6070  138.6620 C   0  0  0  0  0  0  0  0  0  0  0  0
  141.3290  151.1430  138.9520 C   0  0  0  0  0  0  0  0  0  0  0  0
  140.8170  150.3600  137.9330 F   0  0  0  0  0  0  0  0  0  0  0  0
  142.6790  150.8660  139.0730 F   0  0  0  0  0  0  0  0  0  0  0  0
  140.6940  150.8140  140.1350 F   0  0  0  0  0  0  0  0  0  0  0  0
  141.8590  153.2450  137.6440 C   0  0  0  0  0  0  0  0  0  0  0  0
  141.6640  154.6130  137.4340 C   0  0  0  0  0  0  0  0  0  0  0  0
  144.8012  153.2177  134.2425 H   0  0  0  0  0  0  0  0  0  0  0  0
  143.5850  152.8228  132.9809 H   0  0  0  0  0  0  0  0  0  0  0  0
  144.3901  154.4286  132.9809 H   0  0  0  0  0  0  0  0  0  0  0  0
  141.5961  157.1148  133.4512 H   0  0  0  0  0  0  0  0  0  0  0  0
  140.7718  157.0261  131.8207 H   0  0  0  0  0  0  0  0  0  0  0  0
  137.7772  158.5089  132.6476 H   0  0  0  0  0  0  0  0  0  0  0  0
  139.0274  159.2165  131.5693 H   0  0  0  0  0  0  0  0  0  0  0  0
  138.7406  157.4433  131.5693 H   0  0  0  0  0  0  0  0  0  0  0  0
  139.7640  158.1800  135.3809 H   0  0  0  0  0  0  0  0  0  0  0  0
  138.2071  158.6351  134.6091 H   0  0  0  0  0  0  0  0  0  0  0  0
  138.7420  156.9204  134.6091 H   0  0  0  0  0  0  0  0  0  0  0  0
  140.7545  159.6855  134.3976 H   0  0  0  0  0  0  0  0  0  0  0  0
  141.5541  159.2676  132.8443 H   0  0  0  0  0  0  0  0  0  0  0  0
  140.0476  160.2460  132.8443 H   0  0  0  0  0  0  0  0  0  0  0  0
  143.8450  157.3040  134.8290 H   0  0  0  0  0  0  0  0  0  0  0  0
  140.2837  157.4987  138.1930 H   0  0  0  0  0  0  0  0  0  0  0  0
  139.3729  155.3487  139.8504 H   0  0  0  0  0  0  0  0  0  0  0  0
  139.6716  152.8885  140.2781 H   0  0  0  0  0  0  0  0  0  0  0  0
  142.5758  152.6780  137.0319 H   0  0  0  0  0  0  0  0  0  0  0  0
  1  2  1  0
  2  3  1  0
  3  4  2  0
  3  5  1  0
  5  6  1  0
  6  7  2  0
  6  8  1  0
  8  9  1  0
  9 10  1  0
  9 11  1  0
  9 12  1  0
  2 13  1  0
 13 14  2  0
 13 15  1  0
 15 16  1  0
 16 17  1  0
 17 18  1  0
 17 19  2  0
 16 20  2  0
 20 21  1  0
 21 22  2  0
 22 23  1  0
 23 24  2  0
 24 25  1  0
 25 26  1  0
 25 27  1  0
 25 28  1  0
 24 29  1  0
 29 30  2  0
 30 15  1  0
 30 21  1  0
  1 31  1  0
  1 32  1  0
  1 33  1  0
  8 34  1  0
  8 35  1  0
 10 36  1  0
 10 37  1  0
 10 38  1  0
 11 39  1  0
 11 40  1  0
 11 41  1  0
 12 42  1  0
 12 43  1  0
 12 44  1  0
 18 45  1  0
 20 46  1  0
 22 47  1  0
 23 48  1  0
 29 49  1  0
M  CHG  2   9   1  18  -1
M  END
>  <UniqueID>  (51) 
51

>  <SMILES>  (51) 
CN(C(=O)OC(=O)C[N+](C)(C)C)C(=O)n1c(C([NH-])=O)cc2ccc(C(F)(F)F)cc21

>  <Energy>  (51) 
94.36741345223605

>  <Genealogy>  (51) 
CN(C(=O)OC(=O)C[N+](C)(C)C)C(=O)n1c(C([NH-])=O)cc2ccc(C(F)(F)F)cc21 (protonated)
CN(C(=O)OC(=O)C[N+](C)(C)C)C(=O)n1c(C([NH-])=O)cc2ccc(C(F)(F)F)cc21 (3D coordinates assigned)
CN(C(=O)OC(=O)C[N+](C)(C)C)C(=O)n1c(C([NH-])=O)cc2ccc(C(F)(F)F)cc21 (optimized conformer: 94.36741345223605 kcal/mol)

>  <smiles>  (51) 
CN(C(=O)OC(=O)C[N+](C)(C)C)C(=O)n1c(C(N)=O)cc2ccc(C(F)(F)F)cc21

>  <score_type>  (51) 
oracle

>  <origin>  (51) 
adg

>  <m_score__min__energy>  (51) 
-6.46

>  <m_primary>  (51) 
energy

$$$$
51:0
     RDKit          3D

 39 40  0  0  0  0  0  0  0  0999 V2000
  139.5200  155.9750  132.8890 C   0  0  0  0  0  0  0  0  0  0  0  0
  140.2630  157.2570  133.1110 C   0  0  0  0  0  0  0  0  0  0  0  0
  139.5660  158.4910  133.1180 C   0  0  0  0  0  0  0  0  0  0  0  0
  140.2540  159.7010  133.3040 C   0  0  0  0  0  0  0  0  0  0  0  0
  141.6370  159.6470  133.4580 C   0  0  0  0  0  0  0  0  0  0  0  0
  142.5450  160.6590  133.6770 C   0  0  0  0  0  0  0  0  0  0  0  0
  143.7870  160.0300  133.7600 C   0  0  0  0  0  0  0  0  0  0  0  0
  145.0620  160.7580  133.9290 C   0  0  0  0  0  0  0  0  0  0  0  0
  146.2280  160.3760  133.2040 N   0  0  0  0  0  0  0  0  0  0  0  0
  145.1130  161.7560  134.6970 O   0  0  0  0  0  0  0  0  0  0  0  0
  143.6490  158.6830  133.6000 N   0  0  0  0  0  0  0  0  0  0  0  0
  144.6700  157.6770  133.6890 C   0  0  0  0  0  0  0  0  0  0  0  0
  144.4540  156.6320  134.3600 O   0  0  0  0  0  0  0  0  0  0  0  0
  145.9230  157.8680  133.0140 N   0  0  0  0  0  0  0  0  0  0  0  0
  146.9580  156.8730  132.9390 C   0  0  0  0  0  0  0  0  0  0  0  0
  146.7880  155.7390  133.4680 O   0  0  0  0  0  0  0  0  0  0  0  0
  148.2010  157.1710  132.2610 N   0  0  2  0  0  0  0  0  0  0  0  0
  149.2090  156.1520  132.6060 C   0  0  0  0  0  0  0  0  0  0  0  0
  148.6510  158.5330  132.6230 C   0  0  0  0  0  0  0  0  0  0  0  0
  148.7360  159.4290  131.4200 C   0  0  0  0  0  0  0  0  0  0  0  0
  148.8600  158.9350  130.2690 O   0  0  0  0  0  0  0  0  0  0  0  0
  148.6620  160.8080  131.5740 O   0  0  0  0  0  0  0  0  0  0  0  0
  142.3290  158.4650  133.4180 C   0  0  0  0  0  0  0  0  0  0  0  0
  141.6670  157.2430  133.2550 C   0  0  0  0  0  0  0  0  0  0  0  0
  139.2611  155.5283  133.8603 H   0  0  0  0  0  0  0  0  0  0  0  0
  138.5996  156.1781  132.3219 H   0  0  0  0  0  0  0  0  0  0  0  0
  140.1538  155.2774  132.3219 H   0  0  0  0  0  0  0  0  0  0  0  0
  138.4752  158.5011  132.9763 H   0  0  0  0  0  0  0  0  0  0  0  0
  139.7175  160.6610  133.3273 H   0  0  0  0  0  0  0  0  0  0  0  0
  142.3352  161.7350  133.7673 H   0  0  0  0  0  0  0  0  0  0  0  0
  146.7390  161.0640  132.6070 H   0  0  0  0  0  0  0  0  0  0  0  0
  146.0890  158.7940  132.5590 H   0  0  0  0  0  0  0  0  0  0  0  0
  148.0420  157.1310  131.2260 H   0  0  0  0  0  0  0  0  0  0  0  0
  149.2890  156.0711  133.7001 H   0  0  0  0  0  0  0  0  0  0  0  0
  148.9065  155.1807  132.1877 H   0  0  0  0  0  0  0  0  0  0  0  0
  150.1836  156.4439  132.1877 H   0  0  0  0  0  0  0  0  0  0  0  0
  147.9373  158.9654  133.3397 H   0  0  0  0  0  0  0  0  0  0  0  0
  149.6556  158.4559  133.0644 H   0  0  0  0  0  0  0  0  0  0  0  0
  142.2264  156.2960  133.2395 H   0  0  0  0  0  0  0  0  0  0  0  0
  1  2  1  0
  2  3  2  0
  3  4  1  0
  4  5  2  0
  5  6  1  0
  6  7  2  0
  7  8  1  0
  8  9  1  0
  8 10  2  0
  7 11  1  0
 11 12  1  0
 12 13  2  0
 12 14  1  0
 14 15  1  0
 15 16  2  0
 15 17  1  0
 17 18  1  0
 17 19  1  0
 19 20  1  0
 20 21  2  0
 20 22  1  0
 11 23  1  0
 23 24  2  0
 24  2  1  0
 23  5  1  0
  1 25  1  0
  1 26  1  0
  1 27  1  0
  3 28  1  0
  4 29  1  0
  6 30  1  0
  9 31  1  0
 14 32  1  0
 17 33  1  6
 18 34  1  0
 18 35  1  0
 18 36  1  0
 19 37  1  0
 19 38  1  0
 24 39  1  0
M  CHG  3   9  -1  17   1  22  -1
M  END
>  <UniqueID>  (52) 
52

>  <SMILES>  (52) 
Cc1ccc2cc(C([NH-])=O)n(C(=O)NC(=O)[NH+](C)CC(=O)[O-])c2c1

>  <Energy>  (52) 
79.44052396088588

>  <Genealogy>  (52) 
Cc1ccc2cc(C([NH-])=O)n(C(=O)NC(=O)[NH+](C)CC(=O)[O-])c2c1 (protonated)
Cc1ccc2cc(C([NH-])=O)n(C(=O)NC(=O)[NH+](C)CC(=O)[O-])c2c1 (3D coordinates assigned)
Cc1ccc2cc(C([NH-])=O)n(C(=O)NC(=O)[NH+](C)CC(=O)[O-])c2c1 (optimized conformer: 79.44052396088588 kcal/mol)

>  <smiles>  (52) 
Cc1ccc2cc(C(N)=O)n(C(=O)NC(=O)N(C)CC(=O)O)c2c1

>  <score_type>  (52) 
oracle

>  <origin>  (52) 
adg

>  <m_score__min__energy>  (52) 
-6.7800000000000002

>  <m_primary>  (52) 
energy

$$$$
52:0
     RDKit          3D

 36 37  0  0  0  0  0  0  0  0999 V2000
  147.7030  154.7260  132.9530 C   0  0  0  0  0  0  0  0  0  0  0  0
  147.4120  156.1820  133.1650 C   0  0  0  0  0  0  0  0  0  0  0  0
  148.4760  157.1100  133.2770 C   0  0  0  0  0  0  0  0  0  0  0  0
  148.2150  158.4800  133.4490 C   0  0  0  0  0  0  0  0  0  0  0  0
  146.8860  158.8920  133.4830 C   0  0  0  0  0  0  0  0  0  0  0  0
  146.3490  160.1480  133.6600 C   0  0  0  0  0  0  0  0  0  0  0  0
  144.9670  159.9680  133.6190 C   0  0  0  0  0  0  0  0  0  0  0  0
  143.9890  161.0710  133.7270 C   0  0  0  0  0  0  0  0  0  0  0  0
  142.6140  160.8330  133.4320 N   0  0  0  0  0  0  0  0  0  0  0  0
  144.3520  162.2200  134.0940 O   0  0  0  0  0  0  0  0  0  0  0  0
  144.6650  158.6550  133.4200 N   0  0  0  0  0  0  0  0  0  0  0  0
  143.3630  158.0530  133.3720 C   0  0  0  0  0  0  0  0  0  0  0  0
  142.9610  157.5430  132.2920 O   0  0  0  0  0  0  0  0  0  0  0  0
  142.5060  158.0270  134.5830 C   0  0  0  0  0  0  0  0  0  0  0  0
  142.7410  157.1500  135.4600 O   0  0  0  0  0  0  0  0  0  0  0  0
  141.4080  158.9490  134.7870 N   0  0  2  0  0  0  0  0  0  0  0  0
  141.3040  159.3580  136.1970 C   0  0  0  0  0  0  0  0  0  0  0  0
  140.1860  158.4490  134.1780 C   0  0  0  0  0  0  0  0  0  0  0  0
  139.4580  157.6730  134.8580 O   0  0  0  0  0  0  0  0  0  0  0  0
  139.7040  158.8150  132.8200 C   0  0  0  0  0  0  0  0  0  0  0  0
  140.2220  159.8000  132.2300 O   0  0  0  0  0  0  0  0  0  0  0  0
  138.7010  158.1070  132.1730 O   0  0  0  0  0  0  0  0  0  0  0  0
  145.8470  158.0090  133.3450 C   0  0  0  0  0  0  0  0  0  0  0  0
  146.0760  156.6370  133.1910 C   0  0  0  0  0  0  0  0  0  0  0  0
  147.8029  154.2263  133.9279 H   0  0  0  0  0  0  0  0  0  0  0  0
  146.8791  154.2659  132.3878 H   0  0  0  0  0  0  0  0  0  0  0  0
  148.6405  154.6179  132.3878 H   0  0  0  0  0  0  0  0  0  0  0  0
  149.5161  156.7551  133.2289 H   0  0  0  0  0  0  0  0  0  0  0  0
  149.0359  159.2047  133.5536 H   0  0  0  0  0  0  0  0  0  0  0  0
  146.8945  161.0924  133.8033 H   0  0  0  0  0  0  0  0  0  0  0  0
  142.3290  160.0610  132.7900 H   0  0  0  0  0  0  0  0  0  0  0  0
  141.6410  159.8280  134.2640 H   0  0  0  0  0  0  0  0  0  0  0  0
  141.5229  158.4970  136.8456 H   0  0  0  0  0  0  0  0  0  0  0  0
  142.0261  160.1627  136.3996 H   0  0  0  0  0  0  0  0  0  0  0  0
  140.2852  159.7200  136.3996 H   0  0  0  0  0  0  0  0  0  0  0  0
  145.2373  155.9320  133.0928 H   0  0  0  0  0  0  0  0  0  0  0  0
  1  2  1  0
  2  3  2  0
  3  4  1  0
  4  5  2  0
  5  6  1  0
  6  7  2  0
  7  8  1  0
  8  9  1  0
  8 10  2  0
  7 11  1  0
 11 12  1  0
 12 13  2  0
 12 14  1  0
 14 15  2  0
 14 16  1  0
 16 17  1  0
 16 18  1  0
 18 19  2  0
 18 20  1  0
 20 21  2  0
 20 22  1  0
 11 23  1  0
 23 24  2  0
 24  2  1  0
 23  5  1  0
  1 25  1  0
  1 26  1  0
  1 27  1  0
  3 28  1  0
  4 29  1  0
  6 30  1  0
  9 31  1  0
 16 32  1  6
 17 33  1  0
 17 34  1  0
 17 35  1  0
 24 36  1  0
M  CHG  3   9  -1  16   1  22  -1
M  END
>  <UniqueID>  (53) 
53

>  <SMILES>  (53) 
Cc1ccc2cc(C([NH-])=O)n(C(=O)C(=O)[NH+](C)C(=O)C(=O)[O-])c2c1

>  <Energy>  (53) 
84.03249266364205

>  <Genealogy>  (53) 
Cc1ccc2cc(C([NH-])=O)n(C(=O)C(=O)[NH+](C)C(=O)C(=O)[O-])c2c1 (protonated)
Cc1ccc2cc(C([NH-])=O)n(C(=O)C(=O)[NH+](C)C(=O)C(=O)[O-])c2c1 (3D coordinates assigned)
Cc1ccc2cc(C([NH-])=O)n(C(=O)C(=O)[NH+](C)C(=O)C(=O)[O-])c2c1 (optimized conformer: 84.03249266364205 kcal/mol)

>  <smiles>  (53) 
Cc1ccc2cc(C(N)=O)n(C(=O)C(=O)N(C)C(=O)C(=O)O)c2c1

>  <score_type>  (53) 
oracle

>  <origin>  (53) 
adg

>  <m_score__min__energy>  (53) 
-5.5499999999999998

>  <m_primary>  (53) 
energy

$$$$
53:0
     RDKit          3D

 49 50  0  0  0  0  0  0  0  0999 V2000
  139.0620  159.3580  131.5090 C   0  0  0  0  0  0  0  0  0  0  0  0
  140.5180  159.3570  131.9610 C   0  0  0  0  0  0  0  0  0  0  0  0
  140.8610  157.9870  133.0570 S   0  0  0  0  0  0  0  0  0  0  0  0
  140.6790  158.4490  134.4760 O   0  0  0  0  0  0  0  0  0  0  0  0
  139.9000  156.8640  132.7800 O   0  0  0  0  0  0  0  0  0  0  0  0
  142.5470  157.4270  132.8360 C   0  0  0  0  0  0  0  0  0  0  0  0
  143.4570  157.9310  133.9210 C   0  0  0  0  0  0  0  0  0  0  0  0
  143.0680  157.9270  135.1200 O   0  0  0  0  0  0  0  0  0  0  0  0
  144.6940  158.5770  133.5830 N   0  0  0  0  0  0  0  0  0  0  0  0
  144.9730  159.9110  133.5670 C   0  0  0  0  0  0  0  0  0  0  0  0
  143.9940  161.0010  133.7450 C   0  0  0  0  0  0  0  0  0  0  0  0
  142.6100  160.6950  133.9060 N   0  0  0  0  0  0  0  0  0  0  0  0
  144.3690  162.2010  133.7890 O   0  0  0  0  0  0  0  0  0  0  0  0
  146.3200  160.1240  133.2720 C   0  0  0  0  0  0  0  0  0  0  0  0
  146.8580  158.8690  133.1020 C   0  0  0  0  0  0  0  0  0  0  0  0
  148.1610  158.4840  132.8060 C   0  0  0  0  0  0  0  0  0  0  0  0
  148.4370  157.1090  132.7100 C   0  0  0  0  0  0  0  0  0  0  0  0
  147.4170  156.1450  132.9140 C   0  0  0  0  0  0  0  0  0  0  0  0
  147.7500  154.7460  132.8070 N   0  0  0  0  0  0  0  0  0  0  0  0
  148.0520  153.8740  133.9430 C   0  0  0  0  0  0  0  0  0  0  0  0
  148.8710  152.6570  133.4920 C   0  0  0  0  0  0  0  0  0  0  0  0
  148.5140  152.2750  132.1080 N   0  0  0  0  0  0  0  0  0  0  0  0
  147.2740  151.4810  132.1000 C   0  0  0  0  0  0  0  0  0  0  0  0
  149.5960  151.5010  131.4730 C   0  0  0  0  0  0  0  0  0  0  0  0
  146.1010  156.5800  133.2120 C   0  0  0  0  0  0  0  0  0  0  0  0
  145.8560  157.9540  133.2920 C   0  0  0  0  0  0  0  0  0  0  0  0
  138.4043  159.3585  132.3908 H   0  0  0  0  0  0  0  0  0  0  0  0
  138.8662  160.2563  130.9051 H   0  0  0  0  0  0  0  0  0  0  0  0
  138.8649  158.4600  130.9051 H   0  0  0  0  0  0  0  0  0  0  0  0
  141.1671  159.2786  131.0764 H   0  0  0  0  0  0  0  0  0  0  0  0
  140.7115  160.2927  132.5061 H   0  0  0  0  0  0  0  0  0  0  0  0
  142.5595  156.3271  132.8451 H   0  0  0  0  0  0  0  0  0  0  0  0
  142.9123  157.8224  131.8767 H   0  0  0  0  0  0  0  0  0  0  0  0
  142.3070  159.8490  134.4390 H   0  0  0  0  0  0  0  0  0  0  0  0
  146.8409  161.0895  133.1923 H   0  0  0  0  0  0  0  0  0  0  0  0
  148.9519  159.2328  132.6516 H   0  0  0  0  0  0  0  0  0  0  0  0
  149.4584  156.7761  132.4734 H   0  0  0  0  0  0  0  0  0  0  0  0
  147.7240  154.3010  131.8620 H   0  0  0  0  0  0  0  0  0  0  0  0
  148.6284  154.4403  134.6893 H   0  0  0  0  0  0  0  0  0  0  0  0
  147.1055  153.5209  134.3783 H   0  0  0  0  0  0  0  0  0  0  0  0
  149.9417  152.9057  133.5339 H   0  0  0  0  0  0  0  0  0  0  0  0
  148.6508  151.8126  134.1617 H   0  0  0  0  0  0  0  0  0  0  0  0
  146.9605  151.2802  133.1351 H   0  0  0  0  0  0  0  0  0  0  0  0
  146.4833  152.0412  131.5795 H   0  0  0  0  0  0  0  0  0  0  0  0
  147.4519  150.5284  131.5795 H   0  0  0  0  0  0  0  0  0  0  0  0
  150.2285  151.0486  132.2510 H   0  0  0  0  0  0  0  0  0  0  0  0
  149.1609  150.7080  130.8471 H   0  0  0  0  0  0  0  0  0  0  0  0
  150.2060  152.1689  130.8471 H   0  0  0  0  0  0  0  0  0  0  0  0
  145.2917  155.8534  133.3764 H   0  0  0  0  0  0  0  0  0  0  0  0
  1  2  1  0
  2  3  1  0
  3  4  2  0
  3  5  2  0
  3  6  1  0
  6  7  1  0
  7  8  2  0
  7  9  1  0
  9 10  1  0
 10 11  1  0
 11 12  1  0
 11 13  2  0
 10 14  2  0
 14 15  1  0
 15 16  2  0
 16 17  1  0
 17 18  2  0
 18 19  1  0
 19 20  1  0
 20 21  1  0
 21 22  1  0
 22 23  1  0
 22 24  1  0
 18 25  1  0
 25 26  2  0
 26  9  1  0
 26 15  1  0
  1 27  1  0
  1 28  1  0
  1 29  1  0
  2 30  1  0
  2 31  1  0
  6 32  1  0
  6 33  1  0
 12 34  1  0
 14 35  1  0
 16 36  1  0
 17 37  1  0
 19 38  1  0
 20 39  1  0
 20 40  1  0
 21 41  1  0
 21 42  1  0
 23 43  1  0
 23 44  1  0
 23 45  1  0
 24 46  1  0
 24 47  1  0
 24 48  1  0
 25 49  1  0
M  CHG  1  12  -1
M  END
>  <UniqueID>  (54) 
54

>  <SMILES>  (54) 
CCS(=O)(=O)CC(=O)n1c(C([NH-])=O)cc2ccc(NCCN(C)C)cc21

>  <Energy>  (54) 
77.02262546489804

>  <Genealogy>  (54) 
CCS(=O)(=O)CC(=O)n1c(C([NH-])=O)cc2ccc(NCCN(C)C)cc21 (protonated)
CCS(=O)(=O)CC(=O)n1c(C([NH-])=O)cc2ccc(NCCN(C)C)cc21 (3D coordinates assigned)
CCS(=O)(=O)CC(=O)n1c(C([NH-])=O)cc2ccc(NCCN(C)C)cc21 (optimized conformer: 77.02262546489804 kcal/mol)

>  <smiles>  (54) 
CCS(=O)(=O)CC(=O)n1c(C(N)=O)cc2ccc(NCCN(C)C)cc21

>  <score_type>  (54) 
oracle

>  <origin>  (54) 
adg

>  <m_score__min__energy>  (54) 
-7.6200000000000001

>  <m_primary>  (54) 
energy

$$$$
54:0
     RDKit          3D

 45 46  0  0  0  0  0  0  0  0999 V2000
  141.6330  159.1740  134.2440 H   0  0  0  0  0  0  0  0  0  0  0  0
  142.0250  160.0840  134.5730 N   0  0  0  0  0  0  0  0  0  0  0  0
  143.0760  160.7270  133.8510 C   0  0  0  0  0  0  0  0  0  0  0  0
  142.8830  161.8750  133.3700 O   0  0  0  0  0  0  0  0  0  0  0  0
  144.3870  160.0590  133.7050 C   0  0  0  0  0  0  0  0  0  0  0  0
  145.6040  160.7400  133.7140 C   0  0  0  0  0  0  0  0  0  0  0  0
  145.7655  161.8140  133.8886 H   0  0  0  0  0  0  0  0  0  0  0  0
  146.5610  159.7830  133.4580 C   0  0  0  0  0  0  0  0  0  0  0  0
  147.9430  159.9000  133.3500 C   0  0  0  0  0  0  0  0  0  0  0  0
  148.4405  160.8736  133.4705 H   0  0  0  0  0  0  0  0  0  0  0  0
  148.6850  158.7350  133.0820 C   0  0  0  0  0  0  0  0  0  0  0  0
  149.7790  158.7962  132.9848 H   0  0  0  0  0  0  0  0  0  0  0  0
  148.0360  157.4830  132.9360 C   0  0  0  0  0  0  0  0  0  0  0  0
  148.8370  156.2510  132.6130 C   0  0  0  0  0  0  0  0  0  0  0  0
  149.7174  156.2123  133.2713 H   0  0  0  0  0  0  0  0  0  0  0  0
  149.1444  156.3013  131.5580 H   0  0  0  0  0  0  0  0  0  0  0  0
  148.0230  155.0100  132.8120 C   0  0  0  0  0  0  0  0  0  0  0  0
  146.9190  154.8720  132.2100 O   0  0  0  0  0  0  0  0  0  0  0  0
  148.4700  154.0380  133.7140 O   0  0  0  0  0  0  0  0  0  0  0  0
  148.8270  152.7220  133.3060 C   0  0  0  0  0  0  0  0  0  0  0  0
  148.9968  152.0961  134.1945 H   0  0  0  0  0  0  0  0  0  0  0  0
  148.0132  152.2913  132.7041 H   0  0  0  0  0  0  0  0  0  0  0  0
  149.7469  152.7616  132.7041 H   0  0  0  0  0  0  0  0  0  0  0  0
  146.6290  157.4060  133.0450 C   0  0  0  0  0  0  0  0  0  0  0  0
  146.1061  156.4452  132.9297 H   0  0  0  0  0  0  0  0  0  0  0  0
  145.9190  158.5820  133.3030 C   0  0  0  0  0  0  0  0  0  0  0  0
  144.5870  158.7340  133.4610 N   0  0  0  0  0  0  0  0  0  0  0  0
  143.6140  157.6760  133.4240 C   0  0  0  0  0  0  0  0  0  0  0  0
  142.5330  157.8530  132.8020 O   0  0  0  0  0  0  0  0  0  0  0  0
  143.9120  156.3730  134.0510 C   0  0  0  0  0  0  0  0  0  0  0  0
  144.1998  156.3494  135.1124 H   0  0  0  0  0  0  0  0  0  0  0  0
  143.8450  155.2220  133.3770 C   0  0  0  0  0  0  0  0  0  0  0  0
  143.5633  155.2350  132.3138 H   0  0  0  0  0  0  0  0  0  0  0  0
  144.1470  153.9100  134.0430 C   0  0  0  0  0  0  0  0  0  0  0  0
  143.4520  153.7619  134.8827 H   0  0  0  0  0  0  0  0  0  0  0  0
  144.0294  153.1017  133.3062 H   0  0  0  0  0  0  0  0  0  0  0  0
  145.5190  153.8950  134.5460 N   0  0  0  0  0  0  0  0  0  0  0  0
  146.3050  153.9560  133.8610 H   0  0  0  0  0  0  0  0  0  0  0  0
  145.8360  153.7960  135.9420 C   0  0  0  0  0  0  0  0  0  0  0  0
  144.9140  153.7560  136.8050 O   0  0  0  0  0  0  0  0  0  0  0  0
  147.1770  153.7360  136.3370 O   0  0  0  0  0  0  0  0  0  0  0  0
  147.5730  153.4390  137.6700 C   0  0  0  0  0  0  0  0  0  0  0  0
  146.8973  153.9457  138.3748 H   0  0  0  0  0  0  0  0  0  0  0  0
  147.5251  152.3522  137.8332 H   0  0  0  0  0  0  0  0  0  0  0  0
  148.6029  153.7893  137.8332 H   0  0  0  0  0  0  0  0  0  0  0  0
  1  2  1  0
  2  3  1  0
  3  4  2  0
  3  5  1  0
  5  6  2  0
  6  7  1  0
  6  8  1  0
  8  9  2  0
  9 10  1  0
  9 11  1  0
 11 12  1  0
 11 13  2  0
 13 14  1  0
 14 15  1  0
 14 16  1  0
 14 17  1  0
 17 18  2  0
 17 19  1  0
 19 20  1  0
 20 21  1  0
 20 22  1  0
 20 23  1  0
 13 24  1  0
 24 25  1  0
 24 26  2  0
 26 27  1  0
 27 28  1  0
 28 29  2  0
 28 30  1  0
 30 31  1  0
 30 32  2  0
 32 33  1  0
 32 34  1  0
 34 35  1  0
 34 36  1  0
 34 37  1  0
 37 38  1  0
 37 39  1  0
 39 40  2  0
 39 41  1  0
 41 42  1  0
 42 43  1  0
 42 44  1  0
 42 45  1  0
 27  5  1  0
 26  8  1  0
M  CHG  1   2  -1
M  END
>  <UniqueID>  (55) 
55

>  <SMILES>  (55) 
COC(=O)Cc1ccc2cc(C([NH-])=O)n(C(=O)/C=C/CNC(=O)OC)c2c1

>  <Energy>  (55) 
74.80497583288495

>  <Genealogy>  (55) 
COC(=O)Cc1ccc2cc(C([NH-])=O)n(C(=O)/C=C/CNC(=O)OC)c2c1 (protonated)
COC(=O)Cc1ccc2cc(C([NH-])=O)n(C(=O)/C=C/CNC(=O)OC)c2c1 (cis-trans isomerization)
COC(=O)Cc1ccc2cc(C([NH-])=O)n(C(=O)/C=C/CNC(=O)OC)c2c1 (3D coordinates assigned)
COC(=O)Cc1ccc2cc(C([NH-])=O)n(C(=O)/C=C/CNC(=O)OC)c2c1 (optimized conformer: 74.80497583288495 kcal/mol)

>  <smiles>  (55) 
COC(=O)Cc1ccc2cc(C(N)=O)n(C(=O)/C=C/CNC(=O)OC)c2c1

>  <score_type>  (55) 
oracle

>  <origin>  (55) 
adg

>  <m_score__min__energy>  (55) 
-6.8799999999999999

>  <m_primary>  (55) 
energy

$$$$
55:0
     RDKit          3D

 36 37  0  0  0  0  0  0  0  0999 V2000
  144.0720  155.2360  135.5920 C   0  0  0  0  0  0  0  0  0  0  0  0
  145.1610  154.5150  135.2930 C   0  0  0  0  0  0  0  0  0  0  0  0
  145.8460  153.7340  136.3530 C   0  0  0  0  0  0  0  0  0  0  0  0
  147.0440  153.3690  136.2100 O   0  0  0  0  0  0  0  0  0  0  0  0
  145.1700  153.3740  137.5120 O   0  0  0  0  0  0  0  0  0  0  0  0
  145.6850  154.5180  133.9030 C   0  0  0  0  0  0  0  0  0  0  0  0
  145.1920  153.7360  133.0450 O   0  0  0  0  0  0  0  0  0  0  0  0
  146.7410  155.4100  133.5070 N   0  0  0  0  0  0  0  0  0  0  0  0
  148.0240  155.0920  133.1740 C   0  0  0  0  0  0  0  0  0  0  0  0
  148.5610  153.7180  133.0560 C   0  0  0  0  0  0  0  0  0  0  0  0
  147.8770  152.6110  133.6480 N   0  0  0  0  0  0  0  0  0  0  0  0
  149.6440  153.5130  132.4470 O   0  0  0  0  0  0  0  0  0  0  0  0
  148.7490  156.2480  132.8830 C   0  0  0  0  0  0  0  0  0  0  0  0
  147.8580  157.2850  133.0410 C   0  0  0  0  0  0  0  0  0  0  0  0
  148.0400  158.6540  132.8820 C   0  0  0  0  0  0  0  0  0  0  0  0
  146.9440  159.4990  133.1260 C   0  0  0  0  0  0  0  0  0  0  0  0
  145.6830  158.9720  133.5300 C   0  0  0  0  0  0  0  0  0  0  0  0
  144.5590  159.8550  133.7880 N   0  0  0  0  0  0  0  0  0  0  0  0
  144.7800  161.2720  134.1010 C   0  0  0  0  0  0  0  0  0  0  0  0
  143.1840  159.3450  133.7380 C   0  0  0  0  0  0  0  0  0  0  0  0
  145.5480  157.5670  133.6780 C   0  0  0  0  0  0  0  0  0  0  0  0
  146.6550  156.7530  133.4150 C   0  0  0  0  0  0  0  0  0  0  0  0
  143.5634  155.8153  134.8073 H   0  0  0  0  0  0  0  0  0  0  0  0
  143.6866  155.2487  136.6222 H   0  0  0  0  0  0  0  0  0  0  0  0
  148.2860  151.6520  133.5890 H   0  0  0  0  0  0  0  0  0  0  0  0
  146.9470  152.7280  134.1060 H   0  0  0  0  0  0  0  0  0  0  0  0
  149.8070  156.3161  132.5898 H   0  0  0  0  0  0  0  0  0  0  0  0
  149.0133  159.0638  132.5742 H   0  0  0  0  0  0  0  0  0  0  0  0
  147.0614  160.5858  133.0031 H   0  0  0  0  0  0  0  0  0  0  0  0
  144.8011  161.4075  135.1924 H   0  0  0  0  0  0  0  0  0  0  0  0
  145.7397  161.5968  133.6726 H   0  0  0  0  0  0  0  0  0  0  0  0
  143.9648  161.8736  133.6726 H   0  0  0  0  0  0  0  0  0  0  0  0
  142.8073  159.2053  134.7620 H   0  0  0  0  0  0  0  0  0  0  0  0
  142.5446  160.0658  133.2073 H   0  0  0  0  0  0  0  0  0  0  0  0
  143.1693  158.3816  133.2073 H   0  0  0  0  0  0  0  0  0  0  0  0
  144.5908  157.1263  133.9936 H   0  0  0  0  0  0  0  0  0  0  0  0
  1  2  2  0
  2  3  1  0
  3  4  2  0
  3  5  1  0
  2  6  1  0
  6  7  2  0
  6  8  1  0
  8  9  1  0
  9 10  1  0
 10 11  1  0
 10 12  2  0
  9 13  2  0
 13 14  1  0
 14 15  2  0
 15 16  1  0
 16 17  2  0
 17 18  1  0
 18 19  1  0
 18 20  1  0
 17 21  1  0
 21 22  2  0
 22  8  1  0
 22 14  1  0
  1 23  1  0
  1 24  1  0
 11 25  1  0
 11 26  1  0
 13 27  1  0
 15 28  1  0
 16 29  1  0
 19 30  1  0
 19 31  1  0
 19 32  1  0
 20 33  1  0
 20 34  1  0
 20 35  1  0
 21 36  1  0
M  CHG  1   5  -1
M  END
>  <UniqueID>  (56) 
56

>  <SMILES>  (56) 
C=C(C(=O)[O-])C(=O)n1c(C(N)=O)cc2ccc(N(C)C)cc21

>  <Energy>  (56) 
78.62829978651622

>  <Genealogy>  (56) 
C=C(C(=O)[O-])C(=O)n1c(C(N)=O)cc2ccc(N(C)C)cc21 (protonated)
C=C(C(=O)[O-])C(=O)n1c(C(N)=O)cc2ccc(N(C)C)cc21 (3D coordinates assigned)
C=C(C(=O)[O-])C(=O)n1c(C(N)=O)cc2ccc(N(C)C)cc21 (optimized conformer: 78.62829978651622 kcal/mol)

>  <smiles>  (56) 
C=C(C(=O)O)C(=O)n1c(C(N)=O)cc2ccc(N(C)C)cc21

>  <score_type>  (56) 
oracle

>  <origin>  (56) 
adg

>  <m_score__min__energy>  (56) 
-6.5300000000000002

>  <m_primary>  (56) 
energy

$$$$
56:0
     RDKit          3D

 39 40  0  0  0  0  0  0  0  0999 V2000
  149.2350  157.3440  132.5970 C   0  0  0  0  0  0  0  0  0  0  0  0
  148.0930  158.2800  132.8580 C   0  0  0  0  0  0  0  0  0  0  0  0
  148.3390  159.6610  133.0620 C   0  0  0  0  0  0  0  0  0  0  0  0
  147.2790  160.5440  133.3330 C   0  0  0  0  0  0  0  0  0  0  0  0
  145.9940  160.0150  133.4140 C   0  0  0  0  0  0  0  0  0  0  0  0
  144.7880  160.6410  133.6420 C   0  0  0  0  0  0  0  0  0  0  0  0
  143.8320  159.6250  133.6030 C   0  0  0  0  0  0  0  0  0  0  0  0
  142.3880  159.8420  133.8290 C   0  0  0  0  0  0  0  0  0  0  0  0
  141.4410  159.3820  132.8690 N   0  0  0  0  0  0  0  0  0  0  0  0
  141.9800  160.4420  134.8590 O   0  0  0  0  0  0  0  0  0  0  0  0
  144.4260  158.4240  133.3700 N   0  0  0  0  0  0  0  0  0  0  0  0
  143.7860  157.1490  133.2130 C   0  0  0  0  0  0  0  0  0  0  0  0
  143.0160  156.9630  132.2330 O   0  0  0  0  0  0  0  0  0  0  0  0
  144.0410  156.0580  134.1760 C   0  0  0  0  0  0  0  0  0  0  0  0
  143.3220  155.9680  135.2090 O   0  0  0  0  0  0  0  0  0  0  0  0
  145.1060  155.1120  133.9750 N   0  0  0  0  0  0  0  0  0  0  0  0
  145.1190  154.3430  132.7250 C   0  0  0  0  0  0  0  0  0  0  0  0
  146.2170  155.0120  134.9410 C   0  0  2  0  0  0  0  0  0  0  0  0
  147.5270  154.6780  134.2150 C   0  0  0  0  0  0  0  0  0  0  0  0
  145.9050  154.0090  136.0230 C   0  0  0  0  0  0  0  0  0  0  0  0
  144.7120  153.6820  136.2620 O   0  0  0  0  0  0  0  0  0  0  0  0
  146.9330  153.3720  136.7090 O   0  0  0  0  0  0  0  0  0  0  0  0
  145.7460  158.6780  133.2490 C   0  0  0  0  0  0  0  0  0  0  0  0
  146.7770  157.7780  132.9610 C   0  0  0  0  0  0  0  0  0  0  0  0
  149.6539  157.0007  133.5544 H   0  0  0  0  0  0  0  0  0  0  0  0
  148.8751  156.4777  132.0225 H   0  0  0  0  0  0  0  0  0  0  0  0
  150.0138  157.8670  132.0225 H   0  0  0  0  0  0  0  0  0  0  0  0
  149.3683  160.0452  133.0078 H   0  0  0  0  0  0  0  0  0  0  0  0
  147.4595  161.6196  133.4765 H   0  0  0  0  0  0  0  0  0  0  0  0
  144.6154  161.7131  133.8174 H   0  0  0  0  0  0  0  0  0  0  0  0
  141.7330  158.7570  132.0840 H   0  0  0  0  0  0  0  0  0  0  0  0
  145.1372  153.2677  132.9562 H   0  0  0  0  0  0  0  0  0  0  0  0
  144.2168  154.5773  132.1410 H   0  0  0  0  0  0  0  0  0  0  0  0
  146.0128  154.6076  132.1410 H   0  0  0  0  0  0  0  0  0  0  0  0
  146.3441  155.9880  135.4323 H   0  0  0  0  0  0  0  0  0  0  0  0
  148.3155  154.4770  134.9552 H   0  0  0  0  0  0  0  0  0  0  0  0
  147.3804  153.7885  133.5847 H   0  0  0  0  0  0  0  0  0  0  0  0
  147.8242  155.5291  133.5847 H   0  0  0  0  0  0  0  0  0  0  0  0
  146.5684  156.7074  132.8185 H   0  0  0  0  0  0  0  0  0  0  0  0
  1  2  1  0
  2  3  2  0
  3  4  1  0
  4  5  2  0
  5  6  1  0
  6  7  2  0
  7  8  1  0
  8  9  1  0
  8 10  2  0
  7 11  1  0
 11 12  1  0
 12 13  2  0
 12 14  1  0
 14 15  2  0
 14 16  1  0
 16 17  1  0
 16 18  1  0
 18 19  1  0
 18 20  1  0
 20 21  2  0
 20 22  1  0
 11 23  1  0
 23 24  2  0
 24  2  1  0
 23  5  1  0
  1 25  1  0
  1 26  1  0
  1 27  1  0
  3 28  1  0
  4 29  1  0
  6 30  1  0
  9 31  1  0
 17 32  1  0
 17 33  1  0
 17 34  1  0
 18 35  1  1
 19 36  1  0
 19 37  1  0
 19 38  1  0
 24 39  1  0
M  CHG  2   9  -1  22  -1
M  END
>  <UniqueID>  (57) 
57

>  <SMILES>  (57) 
Cc1ccc2cc(C([NH-])=O)n(C(=O)C(=O)N(C)[C@H](C)C(=O)[O-])c2c1

>  <Energy>  (57) 
79.08148125940875

>  <Genealogy>  (57) 
Cc1ccc2cc(C([NH-])=O)n(C(=O)C(=O)N(C)C(C)C(=O)[O-])c2c1 (protonated)
Cc1ccc2cc(C([NH-])=O)n(C(=O)C(=O)N(C)[C@H](C)C(=O)[O-])c2c1 (chirality)
Cc1ccc2cc(C([NH-])=O)n(C(=O)C(=O)N(C)[C@H](C)C(=O)[O-])c2c1 (3D coordinates assigned)
Cc1ccc2cc(C([NH-])=O)n(C(=O)C(=O)N(C)[C@H](C)C(=O)[O-])c2c1 (optimized conformer: 79.08148125940875 kcal/mol)

>  <smiles>  (57) 
Cc1ccc2cc(C(N)=O)n(C(=O)C(=O)N(C)C(C)C(=O)O)c2c1

>  <score_type>  (57) 
oracle

>  <origin>  (57) 
adg

>  <m_score__min__energy>  (57) 
-6.8899999999999997

>  <m_primary>  (57) 
energy

$$$$
57:0
     RDKit          3D

 32 33  0  0  0  0  0  0  0  0999 V2000
  145.2430  154.6180  132.2700 C   0  0  0  0  0  0  0  0  0  0  0  0
  145.9200  155.4800  132.6670 N   0  0  0  0  0  0  0  0  0  0  0  0
  146.7240  156.4920  133.1220 C   0  0  0  0  0  0  0  0  0  0  0  0
  147.8460  156.0700  133.5740 O   0  0  0  0  0  0  0  0  0  0  0  0
  146.4800  157.8680  133.1550 N   0  0  0  0  0  0  0  0  0  0  0  0
  147.2040  158.9170  132.7560 C   0  0  0  0  0  0  0  0  0  0  0  0
  148.5970  158.9530  132.3120 C   0  0  0  0  0  0  0  0  0  0  0  0
  149.3270  157.7160  132.1500 N   0  0  0  0  0  0  0  0  0  0  0  0
  149.2510  159.9830  132.0480 O   0  0  0  0  0  0  0  0  0  0  0  0
  146.4860  160.1060  132.8940 C   0  0  0  0  0  0  0  0  0  0  0  0
  145.2670  159.7410  133.4100 C   0  0  0  0  0  0  0  0  0  0  0  0
  144.1500  160.5260  133.7440 C   0  0  0  0  0  0  0  0  0  0  0  0
  142.9970  159.9170  134.2560 C   0  0  0  0  0  0  0  0  0  0  0  0
  143.0010  158.5460  134.4160 C   0  0  0  0  0  0  0  0  0  0  0  0
  141.8580  157.7610  134.9210 C   0  0  0  0  0  0  0  0  0  0  0  0
  140.8110  158.6200  135.5690 C   0  0  0  0  0  0  0  0  0  0  0  0
  141.1420  159.3780  136.5370 O   0  0  0  0  0  0  0  0  0  0  0  0
  139.4730  158.5880  135.1130 O   0  0  0  0  0  0  0  0  0  0  0  0
  139.1920  157.7220  134.0390 C   0  0  0  0  0  0  0  0  0  0  0  0
  144.1390  157.7990  134.0670 C   0  0  0  0  0  0  0  0  0  0  0  0
  145.2810  158.3840  133.5630 C   0  0  0  0  0  0  0  0  0  0  0  0
  149.5520  157.4100  131.1770 H   0  0  0  0  0  0  0  0  0  0  0  0
  149.6110  157.1720  132.9850 H   0  0  0  0  0  0  0  0  0  0  0  0
  146.8253  161.1217  132.6423 H   0  0  0  0  0  0  0  0  0  0  0  0
  144.1811  161.6166  133.6036 H   0  0  0  0  0  0  0  0  0  0  0  0
  142.1130  160.5147  134.5231 H   0  0  0  0  0  0  0  0  0  0  0  0
  141.4002  157.2225  134.0781 H   0  0  0  0  0  0  0  0  0  0  0  0
  142.2405  157.0677  135.6846 H   0  0  0  0  0  0  0  0  0  0  0  0
  138.8747  156.7440  134.4299 H   0  0  0  0  0  0  0  0  0  0  0  0
  138.3866  158.1499  133.4240 H   0  0  0  0  0  0  0  0  0  0  0  0
  140.0952  157.5955  133.4240 H   0  0  0  0  0  0  0  0  0  0  0  0
  144.1178  156.7074  134.2009 H   0  0  0  0  0  0  0  0  0  0  0  0
  1  2  3  0
  2  3  1  0
  3  4  2  0
  3  5  1  0
  5  6  1  0
  6  7  1  0
  7  8  1  0
  7  9  2  0
  6 10  2  0
 10 11  1  0
 11 12  2  0
 12 13  1  0
 13 14  2  0
 14 15  1  0
 15 16  1  0
 16 17  2  0
 16 18  1  0
 18 19  1  0
 14 20  1  0
 20 21  2  0
 21  5  1  0
 21 11  1  0
  8 22  1  0
  8 23  1  0
 10 24  1  0
 12 25  1  0
 13 26  1  0
 15 27  1  0
 15 28  1  0
 19 29  1  0
 19 30  1  0
 19 31  1  0
 20 32  1  0
M  CHG  2   1  -1   2   1
M  END
>  <smiles>  (58) 
[C-]#[N+]C(=O)n1c(C(N)=O)cc2ccc(CC(=O)OC)cc21

>  <score_type>  (58) 
oracle

>  <origin>  (58) 
adg

>  <m_score__min__energy>  (58) 
-6.5599999999999996

>  <m_primary>  (58) 
energy

$$$$
58:0
     RDKit          3D

 42 44  0  0  0  0  0  0  0  0999 V2000
  144.5940  156.8860  134.3820 N   0  0  0  0  0  0  0  0  0  0  0  0
  145.9620  156.5180  134.2270 C   0  0  0  0  0  0  0  0  0  0  0  0
  146.3630  155.4210  134.7010 O   0  0  0  0  0  0  0  0  0  0  0  0
  146.8980  157.3740  133.4710 C   0  0  0  0  0  0  0  0  0  0  0  0
  148.2180  157.0170  133.2060 C   0  0  0  0  0  0  0  0  0  0  0  0
  148.7170  158.0250  132.4150 C   0  0  0  0  0  0  0  0  0  0  0  0
  149.9880  158.1900  131.8700 C   0  0  0  0  0  0  0  0  0  0  0  0
  150.2370  159.3500  131.1190 C   0  0  0  0  0  0  0  0  0  0  0  0
  149.2230  160.3190  130.9340 C   0  0  0  0  0  0  0  0  0  0  0  0
  149.4920  161.5020  130.1780 N   0  0  0  0  0  0  0  0  0  0  0  0
  147.9450  160.1210  131.5010 C   0  0  0  0  0  0  0  0  0  0  0  0
  147.7180  158.9470  132.2300 C   0  0  0  0  0  0  0  0  0  0  0  0
  146.5940  158.5610  132.8740 N   0  0  0  0  0  0  0  0  0  0  0  0
  145.3780  159.3180  132.9950 C   0  0  0  0  0  0  0  0  0  0  0  0
  144.2860  158.8210  132.6050 O   0  0  0  0  0  0  0  0  0  0  0  0
  145.4170  160.6160  133.5180 O   0  0  0  0  0  0  0  0  0  0  0  0
  144.2840  161.2690  134.0890 C   0  0  2  0  0  0  0  0  0  0  0  0
  143.0940  160.7300  133.5210 O   0  0  0  0  0  0  0  0  0  0  0  0
  142.3170  159.7570  134.1580 C   0  0  0  0  0  0  0  0  0  0  0  0
  142.7170  159.2330  135.2340 O   0  0  0  0  0  0  0  0  0  0  0  0
  141.0260  159.3430  133.5670 C   0  0  0  0  0  0  0  0  0  0  0  0
  140.4130  158.1410  133.9690 C   0  0  0  0  0  0  0  0  0  0  0  0
  139.1920  157.7490  133.4130 C   0  0  0  0  0  0  0  0  0  0  0  0
  138.5710  158.5480  132.4500 C   0  0  0  0  0  0  0  0  0  0  0  0
  139.1690  159.7430  132.0420 C   0  0  0  0  0  0  0  0  0  0  0  0
  140.3900  160.1400  132.5960 C   0  0  0  0  0  0  0  0  0  0  0  0
  144.3370  162.7360  133.7970 C   0  0  0  0  0  0  0  0  0  0  0  0
  143.3150  163.3360  133.3710 O   0  0  0  0  0  0  0  0  0  0  0  0
  145.5100  163.4490  134.0200 O   0  0  0  0  0  0  0  0  0  0  0  0
  144.3210  157.8800  134.5430 H   0  0  0  0  0  0  0  0  0  0  0  0
  148.7487  156.1191  133.5554 H   0  0  0  0  0  0  0  0  0  0  0  0
  150.7728  157.4346  132.0232 H   0  0  0  0  0  0  0  0  0  0  0  0
  151.2292  159.5067  130.6706 H   0  0  0  0  0  0  0  0  0  0  0  0
  150.4350  161.9500  130.2050 H   0  0  0  0  0  0  0  0  0  0  0  0
  148.7510  161.9380  129.5850 H   0  0  0  0  0  0  0  0  0  0  0  0
  147.1488  160.8692  131.3735 H   0  0  0  0  0  0  0  0  0  0  0  0
  144.2905  161.1111  135.1776 H   0  0  0  0  0  0  0  0  0  0  0  0
  140.8980  157.5064  134.7254 H   0  0  0  0  0  0  0  0  0  0  0  0
  138.7191  156.8093  133.7344 H   0  0  0  0  0  0  0  0  0  0  0  0
  137.6110  158.2363  132.0128 H   0  0  0  0  0  0  0  0  0  0  0  0
  138.6789  160.3721  131.2843 H   0  0  0  0  0  0  0  0  0  0  0  0
  140.8569  161.0815  132.2709 H   0  0  0  0  0  0  0  0  0  0  0  0
  1  2  1  0
  2  3  2  0
  2  4  1  0
  4  5  2  0
  5  6  1  0
  6  7  2  0
  7  8  1  0
  8  9  2  0
  9 10  1  0
  9 11  1  0
 11 12  2  0
 12 13  1  0
 13 14  1  0
 14 15  2  0
 14 16  1  0
 16 17  1  0
 17 18  1  0
 18 19  1  0
 19 20  2  0
 19 21  1  0
 21 22  2  0
 22 23  1  0
 23 24  2  0
 24 25  1  0
 25 26  2  0
 17 27  1  0
 27 28  2  0
 27 29  1  0
 13  4  1  0
 26 21  1  0
 12  6  1  0
  1 30  1  0
  5 31  1  0
  7 32  1  0
  8 33  1  0
 10 34  1  0
 10 35  1  0
 11 36  1  0
 17 37  1  1
 22 38  1  0
 23 39  1  0
 24 40  1  0
 25 41  1  0
 26 42  1  0
M  CHG  2   1  -1  29  -1
M  END
>  <UniqueID>  (59) 
58

>  <SMILES>  (59) 
[NH-]C(=O)c1cc2ccc(N)cc2n1C(=O)O[C@H](OC(=O)c1ccccc1)C(=O)[O-]

>  <Energy>  (59) 
79.82738542014214

>  <Genealogy>  (59) 
[NH-]C(=O)c1cc2ccc(N)cc2n1C(=O)OC(OC(=O)c1ccccc1)C(=O)[O-] (protonated)
[NH-]C(=O)c1cc2ccc(N)cc2n1C(=O)O[C@H](OC(=O)c1ccccc1)C(=O)[O-] (chirality)
[NH-]C(=O)c1cc2ccc(N)cc2n1C(=O)O[C@H](OC(=O)c1ccccc1)C(=O)[O-] (3D coordinates assigned)
[NH-]C(=O)c1cc2ccc(N)cc2n1C(=O)O[C@H](OC(=O)c1ccccc1)C(=O)[O-] (optimized conformer: 79.82738542014214 kcal/mol)

>  <smiles>  (59) 
NC(=O)c1cc2ccc(N)cc2n1C(=O)OC(OC(=O)c1ccccc1)C(=O)O

>  <score_type>  (59) 
oracle

>  <origin>  (59) 
adg

>  <m_score__min__energy>  (59) 
-8.3300000000000001

>  <m_primary>  (59) 
energy

$$$$
59:0
     RDKit          3D

 33 34  0  0  0  0  0  0  0  0999 V2000
  148.4880  152.7040  134.0840 N   0  0  0  0  0  0  0  0  0  0  0  0
  148.8470  153.6020  133.0320 C   0  0  0  0  0  0  0  0  0  0  0  0
  149.5960  153.1960  132.1050 O   0  0  0  0  0  0  0  0  0  0  0  0
  148.3170  154.9810  132.9860 C   0  0  0  0  0  0  0  0  0  0  0  0
  149.0750  156.0870  132.6070 C   0  0  0  0  0  0  0  0  0  0  0  0
  148.2170  157.1600  132.6880 C   0  0  0  0  0  0  0  0  0  0  0  0
  148.4500  158.5120  132.4540 C   0  0  0  0  0  0  0  0  0  0  0  0
  147.3910  159.4100  132.6720 C   0  0  0  0  0  0  0  0  0  0  0  0
  146.1320  158.9450  133.1290 C   0  0  0  0  0  0  0  0  0  0  0  0
  145.0110  159.9100  133.3890 C   0  0  0  0  0  0  0  0  0  0  0  0
  144.0090  159.2790  134.1050 F   0  0  0  0  0  0  0  0  0  0  0  0
  145.4840  160.9870  134.1170 F   0  0  0  0  0  0  0  0  0  0  0  0
  145.9350  157.5660  133.3580 C   0  0  0  0  0  0  0  0  0  0  0  0
  146.9980  156.6920  133.1070 C   0  0  0  0  0  0  0  0  0  0  0  0
  147.0430  155.3530  133.2890 N   0  0  0  0  0  0  0  0  0  0  0  0
  146.0060  154.5360  133.8540 C   0  0  0  0  0  0  0  0  0  0  0  0
  145.1990  153.9450  133.0880 O   0  0  0  0  0  0  0  0  0  0  0  0
  145.8580  154.4290  135.3210 C   0  0  0  0  0  0  0  0  0  0  0  0
  144.9580  155.1030  135.8880 O   0  0  0  0  0  0  0  0  0  0  0  0
  146.7010  153.5970  136.1300 N   0  0  0  0  0  0  0  0  0  0  0  0
  147.7660  154.0490  137.0220 C   0  0  0  0  0  0  0  0  0  0  0  0
  148.8000  152.9800  137.1900 C   0  0  0  0  0  0  0  0  0  0  0  0
  148.8480  152.0100  136.3870 O   0  0  0  0  0  0  0  0  0  0  0  0
  149.6950  153.0370  138.2520 O   0  0  0  0  0  0  0  0  0  0  0  0
  148.9260  151.7580  134.1340 H   0  0  0  0  0  0  0  0  0  0  0  0
  147.7250  152.9360  134.7560 H   0  0  0  0  0  0  0  0  0  0  0  0
  150.1332  156.0998  132.3071 H   0  0  0  0  0  0  0  0  0  0  0  0
  149.4325  158.8667  132.1091 H   0  0  0  0  0  0  0  0  0  0  0  0
  147.5404  160.4839  132.4863 H   0  0  0  0  0  0  0  0  0  0  0  0
  144.6089  160.2633  132.4280 H   0  0  0  0  0  0  0  0  0  0  0  0
  144.9693  157.1880  133.7248 H   0  0  0  0  0  0  0  0  0  0  0  0
  148.2389  154.9458  136.5953 H   0  0  0  0  0  0  0  0  0  0  0  0
  147.3312  154.2802  138.0056 H   0  0  0  0  0  0  0  0  0  0  0  0
  1  2  1  0
  2  3  2  0
  2  4  1  0
  4  5  2  0
  5  6  1  0
  6  7  2  0
  7  8  1  0
  8  9  2  0
  9 10  1  0
 10 11  1  0
 10 12  1  0
  9 13  1  0
 13 14  2  0
 14 15  1  0
 15 16  1  0
 16 17  2  0
 16 18  1  0
 18 19  2  0
 18 20  1  0
 20 21  1  0
 21 22  1  0
 22 23  2  0
 22 24  1  0
 15  4  1  0
 14  6  1  0
  1 25  1  0
  1 26  1  0
  5 27  1  0
  7 28  1  0
  8 29  1  0
 10 30  1  0
 13 31  1  0
 21 32  1  0
 21 33  1  0
M  CHG  2  20  -1  24  -1
M  END
>  <UniqueID>  (60) 
59

>  <SMILES>  (60) 
NC(=O)c1cc2ccc(C(F)F)cc2n1C(=O)C(=O)[N-]CC(=O)[O-]

>  <Energy>  (60) 
72.6424035981872

>  <Genealogy>  (60) 
NC(=O)c1cc2ccc(C(F)F)cc2n1C(=O)C(=O)[N-]CC(=O)[O-] (protonated)
NC(=O)c1cc2ccc(C(F)F)cc2n1C(=O)C(=O)[N-]CC(=O)[O-] (3D coordinates assigned)
NC(=O)c1cc2ccc(C(F)F)cc2n1C(=O)C(=O)[N-]CC(=O)[O-] (optimized conformer: 72.6424035981872 kcal/mol)

>  <smiles>  (60) 
NC(=O)c1cc2ccc(C(F)F)cc2n1C(=O)C(=O)NCC(=O)O

>  <score_type>  (60) 
oracle

>  <origin>  (60) 
adg

>  <m_score__min__energy>  (60) 
-6.1200000000000001

>  <m_primary>  (60) 
energy

$$$$
60:0
     RDKit          3D

 40 42  0  0  0  0  0  0  0  0999 V2000
  140.8580  159.6900  134.8740 N   0  0  0  0  0  0  0  0  0  0  0  0
  141.7570  160.4890  134.1080 C   0  0  0  0  0  0  0  0  0  0  0  0
  141.3840  161.6220  133.7050 O   0  0  0  0  0  0  0  0  0  0  0  0
  143.1350  160.0310  133.8320 C   0  0  0  0  0  0  0  0  0  0  0  0
  144.2240  160.8950  133.7340 C   0  0  0  0  0  0  0  0  0  0  0  0
  145.3200  160.0820  133.5620 C   0  0  0  0  0  0  0  0  0  0  0  0
  146.6630  160.4110  133.4100 C   0  0  0  0  0  0  0  0  0  0  0  0
  147.5820  159.3650  133.2260 C   0  0  0  0  0  0  0  0  0  0  0  0
  147.1440  158.0160  133.1730 C   0  0  0  0  0  0  0  0  0  0  0  0
  148.1440  156.8990  133.0130 C   0  0  0  0  0  0  0  0  0  0  0  0
  149.3130  157.3670  132.4390 F   0  0  0  0  0  0  0  0  0  0  0  0
  148.4590  156.3440  134.2420 F   0  0  0  0  0  0  0  0  0  0  0  0
  147.6050  155.9190  132.2020 F   0  0  0  0  0  0  0  0  0  0  0  0
  145.7730  157.7200  133.3560 C   0  0  0  0  0  0  0  0  0  0  0  0
  144.8830  158.7820  133.5550 C   0  0  0  0  0  0  0  0  0  0  0  0
  143.5410  158.7350  133.7180 N   0  0  0  0  0  0  0  0  0  0  0  0
  142.7160  157.5610  133.6700 C   0  0  0  0  0  0  0  0  0  0  0  0
  143.0810  156.5080  134.2600 O   0  0  0  0  0  0  0  0  0  0  0  0
  141.5150  157.5870  132.9530 O   0  0  0  0  0  0  0  0  0  0  0  0
  140.3750  156.8210  133.3280 C   0  0  0  0  0  0  0  0  0  0  0  0
  139.0990  157.6460  133.0450 C   0  0  0  0  0  0  0  0  0  0  0  0
  138.9540  158.2180  131.6820 N   0  0  0  0  0  0  0  0  0  0  0  0
  139.8080  159.3890  131.4400 C   0  0  0  0  0  0  0  0  0  0  0  0
  138.6170  160.3090  131.2420 C   0  0  0  0  0  0  0  0  0  0  0  0
  138.5260  160.7860  129.9450 F   0  0  0  0  0  0  0  0  0  0  0  0
  137.7720  159.0670  131.4650 C   0  0  0  0  0  0  0  0  0  0  0  0
  140.7480  158.6710  134.6810 H   0  0  0  0  0  0  0  0  0  0  0  0
  144.2100  161.9938  133.7836 H   0  0  0  0  0  0  0  0  0  0  0  0
  146.9954  161.4593  133.4332 H   0  0  0  0  0  0  0  0  0  0  0  0
  148.6529  159.5938  133.1218 H   0  0  0  0  0  0  0  0  0  0  0  0
  145.4147  156.6801  133.3423 H   0  0  0  0  0  0  0  0  0  0  0  0
  140.3486  155.8891  132.7442 H   0  0  0  0  0  0  0  0  0  0  0  0
  140.4285  156.5749  134.3988 H   0  0  0  0  0  0  0  0  0  0  0  0
  138.2338  156.9906  133.2235 H   0  0  0  0  0  0  0  0  0  0  0  0
  139.1675  158.5164  133.7141 H   0  0  0  0  0  0  0  0  0  0  0  0
  140.4331  159.6612  132.3032 H   0  0  0  0  0  0  0  0  0  0  0  0
  140.5745  159.3346  130.6529 H   0  0  0  0  0  0  0  0  0  0  0  0
  138.4768  161.2401  131.8106 H   0  0  0  0  0  0  0  0  0  0  0  0
  137.1144  159.1361  132.3441 H   0  0  0  0  0  0  0  0  0  0  0  0
  137.0404  158.7755  130.6970 H   0  0  0  0  0  0  0  0  0  0  0  0
  1  2  1  0
  2  3  2  0
  2  4  1  0
  4  5  2  0
  5  6  1  0
  6  7  2  0
  7  8  1  0
  8  9  2  0
  9 10  1  0
 10 11  1  0
 10 12  1  0
 10 13  1  0
  9 14  1  0
 14 15  2  0
 15 16  1  0
 16 17  1  0
 17 18  2  0
 17 19  1  0
 19 20  1  0
 20 21  1  0
 21 22  1  0
 22 23  1  0
 23 24  1  0
 24 25  1  0
 24 26  1  0
 16  4  1  0
 26 22  1  0
 15  6  1  0
  1 27  1  0
  5 28  1  0
  7 29  1  0
  8 30  1  0
 14 31  1  0
 20 32  1  0
 20 33  1  0
 21 34  1  0
 21 35  1  0
 23 36  1  0
 23 37  1  0
 24 38  1  0
 26 39  1  0
 26 40  1  0
M  CHG  1   1  -1
M  END
>  <UniqueID>  (61) 
60

>  <SMILES>  (61) 
[NH-]C(=O)c1cc2ccc(C(F)(F)F)cc2n1C(=O)OCCN1CC(F)C1

>  <Energy>  (61) 
154.1484907166508

>  <Genealogy>  (61) 
[NH-]C(=O)c1cc2ccc(C(F)(F)F)cc2n1C(=O)OCCN1CC(F)C1 (protonated)
[NH-]C(=O)c1cc2ccc(C(F)(F)F)cc2n1C(=O)OCCN1CC(F)C1 (3D coordinates assigned)
[NH-]C(=O)c1cc2ccc(C(F)(F)F)cc2n1C(=O)OCCN1CC(F)C1 (nonaromatic ring conformer: 154.1484907166508 kcal/mol)

>  <smiles>  (61) 
NC(=O)c1cc2ccc(C(F)(F)F)cc2n1C(=O)OCCN1CC(F)C1

>  <score_type>  (61) 
oracle

>  <origin>  (61) 
adg

>  <m_score__min__energy>  (61) 
-6.4500000000000002

>  <m_primary>  (61) 
energy

$$$$
61:0
     RDKit          3D

 39 41  0  0  0  0  0  0  0  0999 V2000
  140.7130  155.5470  133.5410 C   0  0  0  0  0  0  0  0  0  0  0  0
  141.4140  156.7240  134.0600 N   0  0  0  0  0  0  0  0  0  0  0  0
  140.7710  157.5880  135.0570 C   0  0  0  0  0  0  0  0  0  0  0  0
  140.7010  158.9930  134.5510 C   0  0  0  0  0  0  0  0  0  0  0  0
  140.4480  159.2170  133.3380 O   0  0  0  0  0  0  0  0  0  0  0  0
  140.9650  160.0550  135.4070 O   0  0  0  0  0  0  0  0  0  0  0  0
  142.6270  157.1410  133.4120 C   0  0  0  0  0  0  0  0  0  0  0  0
  142.5880  157.5000  132.2030 O   0  0  0  0  0  0  0  0  0  0  0  0
  143.9170  157.1390  134.1300 C   0  0  0  0  0  0  0  0  0  0  0  0
  144.0480  156.4750  135.1920 O   0  0  0  0  0  0  0  0  0  0  0  0
  145.0360  157.8850  133.6240 N   0  0  0  0  0  0  0  0  0  0  0  0
  145.1610  159.2390  133.5620 C   0  0  0  0  0  0  0  0  0  0  0  0
  144.1020  160.2200  133.8760 C   0  0  0  0  0  0  0  0  0  0  0  0
  142.7830  160.0850  133.3450 N   0  0  0  0  0  0  0  0  0  0  0  0
  144.3750  161.2160  134.5970 O   0  0  0  0  0  0  0  0  0  0  0  0
  146.4500  159.5940  133.1670 C   0  0  0  0  0  0  0  0  0  0  0  0
  147.1180  158.4020  132.9900 C   0  0  0  0  0  0  0  0  0  0  0  0
  148.4420  158.1600  132.6370 C   0  0  0  0  0  0  0  0  0  0  0  0
  148.8780  156.8240  132.5920 C   0  0  0  0  0  0  0  0  0  0  0  0
  147.9940  155.7630  132.9120 C   0  0  0  0  0  0  0  0  0  0  0  0
  148.4730  154.3680  132.8730 C   0  0  0  0  0  0  0  0  0  0  0  0
  147.8660  153.3340  133.4880 N   0  0  0  0  0  0  0  0  0  0  0  0
  148.5930  152.2610  133.2170 N   0  0  0  0  0  0  0  0  0  0  0  0
  149.6160  152.6760  132.4470 C   0  0  0  0  0  0  0  0  0  0  0  0
  149.5460  153.9690  132.2340 O   0  0  0  0  0  0  0  0  0  0  0  0
  146.6580  156.0500  133.2740 C   0  0  0  0  0  0  0  0  0  0  0  0
  146.2440  157.3860  133.2830 C   0  0  0  0  0  0  0  0  0  0  0  0
  140.3495  154.9367  134.3809 H   0  0  0  0  0  0  0  0  0  0  0  0
  139.8599  155.8698  132.9262 H   0  0  0  0  0  0  0  0  0  0  0  0
  141.4032  154.9507  132.9262 H   0  0  0  0  0  0  0  0  0  0  0  0
  139.7528  157.2211  135.2538 H   0  0  0  0  0  0  0  0  0  0  0  0
  141.3618  157.5686  135.9847 H   0  0  0  0  0  0  0  0  0  0  0  0
  142.0320  160.7510  133.6350 H   0  0  0  0  0  0  0  0  0  0  0  0
  142.5640  159.3840  132.6050 H   0  0  0  0  0  0  0  0  0  0  0  0
  146.8488  160.6095  133.0266 H   0  0  0  0  0  0  0  0  0  0  0  0
  149.1263  158.9881  132.4005 H   0  0  0  0  0  0  0  0  0  0  0  0
  149.9161  156.5997  132.3054 H   0  0  0  0  0  0  0  0  0  0  0  0
  150.4044  152.0198  132.0498 H   0  0  0  0  0  0  0  0  0  0  0  0
  145.9610  155.2423  133.5421 H   0  0  0  0  0  0  0  0  0  0  0  0
  1  2  1  0
  2  3  1  0
  3  4  1  0
  4  5  2  0
  4  6  1  0
  2  7  1  0
  7  8  2  0
  7  9  1  0
  9 10  2  0
  9 11  1  0
 11 12  1  0
 12 13  1  0
 13 14  1  0
 13 15  2  0
 12 16  2  0
 16 17  1  0
 17 18  2  0
 18 19  1  0
 19 20  2  0
 20 21  1  0
 21 22  2  0
 22 23  1  0
 23 24  2  0
 24 25  1  0
 20 26  1  0
 26 27  2  0
 27 11  1  0
 27 17  1  0
 25 21  1  0
  1 28  1  0
  1 29  1  0
  1 30  1  0
  3 31  1  0
  3 32  1  0
 14 33  1  0
 14 34  1  0
 16 35  1  0
 18 36  1  0
 19 37  1  0
 24 38  1  0
 26 39  1  0
M  CHG  1   6  -1
M  END
>  <UniqueID>  (62) 
61

>  <SMILES>  (62) 
CN(CC(=O)[O-])C(=O)C(=O)n1c(C(N)=O)cc2ccc(-c3nnco3)cc21

>  <Energy>  (62) 
117.55056979204716

>  <Genealogy>  (62) 
CN(CC(=O)[O-])C(=O)C(=O)n1c(C(N)=O)cc2ccc(-c3nnco3)cc21 (protonated)
CN(CC(=O)[O-])C(=O)C(=O)n1c(C(N)=O)cc2ccc(-c3nnco3)cc21 (3D coordinates assigned)
CN(CC(=O)[O-])C(=O)C(=O)n1c(C(N)=O)cc2ccc(-c3nnco3)cc21 (optimized conformer: 117.55056979204716 kcal/mol)

>  <smiles>  (62) 
CN(CC(=O)O)C(=O)C(=O)n1c(C(N)=O)cc2ccc(-c3nnco3)cc21

>  <score_type>  (62) 
oracle

>  <origin>  (62) 
adg

>  <m_score__min__energy>  (62) 
-6.6799999999999997

>  <m_primary>  (62) 
energy

$$$$
62:0
     RDKit          3D

 39 40  0  0  0  0  0  0  0  0999 V2000
  149.5450  152.6170  132.2160 C   0  0  0  0  0  0  0  0  0  0  0  0
  149.3440  153.9510  132.6670 O   0  0  0  0  0  0  0  0  0  0  0  0
  148.1970  154.3470  133.3610 C   0  0  0  0  0  0  0  0  0  0  0  0
  148.0880  154.1330  134.6000 O   0  0  0  0  0  0  0  0  0  0  0  0
  147.0700  154.9820  132.6140 C   0  0  0  0  0  0  0  0  0  0  0  0
  147.1100  156.4730  132.7970 C   0  0  0  0  0  0  0  0  0  0  0  0
  148.3330  157.1780  132.6650 C   0  0  0  0  0  0  0  0  0  0  0  0
  148.3800  158.5700  132.8530 C   0  0  0  0  0  0  0  0  0  0  0  0
  147.2000  159.2230  133.1930 C   0  0  0  0  0  0  0  0  0  0  0  0
  146.9580  160.5600  133.4160 C   0  0  0  0  0  0  0  0  0  0  0  0
  145.6010  160.6450  133.7210 C   0  0  0  0  0  0  0  0  0  0  0  0
  144.9310  161.9030  134.1120 C   0  0  0  0  0  0  0  0  0  0  0  0
  143.6300  162.2260  133.6260 N   0  0  0  0  0  0  0  0  0  0  0  0
  145.4980  162.6860  134.9210 O   0  0  0  0  0  0  0  0  0  0  0  0
  145.0250  159.4100  133.6800 N   0  0  0  0  0  0  0  0  0  0  0  0
  143.6420  159.0730  133.8690 C   0  0  0  0  0  0  0  0  0  0  0  0
  143.1050  158.1990  133.1380 O   0  0  0  0  0  0  0  0  0  0  0  0
  142.8840  159.7340  134.8920 N   0  0  0  0  0  0  0  0  0  0  0  0
  141.4410  159.6220  135.1080 C   0  0  1  0  0  0  0  0  0  0  0  0
  140.6920  159.7340  133.8050 C   0  0  0  0  0  0  0  0  0  0  0  0
  140.9910  160.6480  132.9920 O   0  0  0  0  0  0  0  0  0  0  0  0
  139.7040  158.8160  133.4640 O   0  0  0  0  0  0  0  0  0  0  0  0
  141.0960  158.3540  135.9080 C   0  0  0  0  0  0  0  0  0  0  0  0
  141.7610  158.3280  137.1200 F   0  0  0  0  0  0  0  0  0  0  0  0
  139.7330  158.3150  136.1470 F   0  0  0  0  0  0  0  0  0  0  0  0
  141.4460  157.2310  135.1790 F   0  0  0  0  0  0  0  0  0  0  0  0
  146.0160  158.5510  133.3560 C   0  0  0  0  0  0  0  0  0  0  0  0
  145.9340  157.1700  133.1510 C   0  0  0  0  0  0  0  0  0  0  0  0
  149.6458  151.9480  133.0833 H   0  0  0  0  0  0  0  0  0  0  0  0
  148.6842  152.3019  131.6080 H   0  0  0  0  0  0  0  0  0  0  0  0
  150.4604  152.5695  131.6080 H   0  0  0  0  0  0  0  0  0  0  0  0
  147.1615  154.7434  131.5441 H   0  0  0  0  0  0  0  0  0  0  0  0
  146.1158  154.5953  133.0013 H   0  0  0  0  0  0  0  0  0  0  0  0
  149.2533  156.6306  132.4132 H   0  0  0  0  0  0  0  0  0  0  0  0
  149.3216  159.1262  132.7348 H   0  0  0  0  0  0  0  0  0  0  0  0
  147.6825  161.3861  133.3643 H   0  0  0  0  0  0  0  0  0  0  0  0
  142.8480  161.5350  133.6830 H   0  0  0  0  0  0  0  0  0  0  0  0
  141.1081  160.4684  135.7267 H   0  0  0  0  0  0  0  0  0  0  0  0
  144.9768  156.6397  133.2628 H   0  0  0  0  0  0  0  0  0  0  0  0
  1  2  1  0
  2  3  1  0
  3  4  2  0
  3  5  1  0
  5  6  1  0
  6  7  2  0
  7  8  1  0
  8  9  2  0
  9 10  1  0
 10 11  2  0
 11 12  1  0
 12 13  1  0
 12 14  2  0
 11 15  1  0
 15 16  1  0
 16 17  2  0
 16 18  1  0
 18 19  1  0
 19 20  1  0
 20 21  2  0
 20 22  1  0
 19 23  1  0
 23 24  1  0
 23 25  1  0
 23 26  1  0
 15 27  1  0
 27 28  2  0
 28  6  1  0
 27  9  1  0
  1 29  1  0
  1 30  1  0
  1 31  1  0
  5 32  1  0
  5 33  1  0
  7 34  1  0
  8 35  1  0
 10 36  1  0
 13 37  1  0
 19 38  1  1
 28 39  1  0
M  CHG  3  13  -1  18  -1  22  -1
M  END
>  <UniqueID>  (63) 
62

>  <SMILES>  (63) 
COC(=O)Cc1ccc2cc(C([NH-])=O)n(C(=O)[N-][C@@H](C(=O)[O-])C(F)(F)F)c2c1

>  <Energy>  (63) 
73.04340884304966

>  <Genealogy>  (63) 
COC(=O)Cc1ccc2cc(C([NH-])=O)n(C(=O)[N-]C(C(=O)[O-])C(F)(F)F)c2c1 (protonated)
COC(=O)Cc1ccc2cc(C([NH-])=O)n(C(=O)[N-][C@@H](C(=O)[O-])C(F)(F)F)c2c1 (chirality)
COC(=O)Cc1ccc2cc(C([NH-])=O)n(C(=O)[N-][C@@H](C(=O)[O-])C(F)(F)F)c2c1 (3D coordinates assigned)
COC(=O)Cc1ccc2cc(C([NH-])=O)n(C(=O)[N-][C@@H](C(=O)[O-])C(F)(F)F)c2c1 (optimized conformer: 73.04340884304966 kcal/mol)

>  <smiles>  (63) 
COC(=O)Cc1ccc2cc(C(N)=O)n(C(=O)NC(C(=O)O)C(F)(F)F)c2c1

>  <score_type>  (63) 
oracle

>  <origin>  (63) 
adg

>  <m_score__min__energy>  (63) 
-6.5300000000000002

>  <m_primary>  (63) 
energy

$$$$
63:0
     RDKit          3D

 37 38  0  0  0  0  0  0  0  0999 V2000
  148.2260  154.6800  132.7100 C   0  0  0  0  0  0  0  0  0  0  0  0
  147.8400  156.1190  132.8750 C   0  0  0  0  0  0  0  0  0  0  0  0
  148.8400  157.1200  132.9360 C   0  0  0  0  0  0  0  0  0  0  0  0
  148.4920  158.4710  133.1170 C   0  0  0  0  0  0  0  0  0  0  0  0
  147.1420  158.7820  133.2550 C   0  0  0  0  0  0  0  0  0  0  0  0
  146.5240  160.0010  133.4220 C   0  0  0  0  0  0  0  0  0  0  0  0
  145.1620  159.7180  133.4960 C   0  0  0  0  0  0  0  0  0  0  0  0
  144.1230  160.7430  133.7340 C   0  0  0  0  0  0  0  0  0  0  0  0
  142.7580  160.4940  133.4130 N   0  0  0  0  0  0  0  0  0  0  0  0
  144.4410  161.8430  134.2610 O   0  0  0  0  0  0  0  0  0  0  0  0
  144.9480  158.3780  133.3800 N   0  0  0  0  0  0  0  0  0  0  0  0
  143.6920  157.6830  133.3370 C   0  0  0  0  0  0  0  0  0  0  0  0
  142.9610  157.7890  132.3150 O   0  0  0  0  0  0  0  0  0  0  0  0
  143.2690  156.8690  134.4470 N   0  0  0  0  0  0  0  0  0  0  0  0
  142.4830  157.4740  135.5260 C   0  0  0  0  0  0  0  0  0  0  0  0
  143.7090  155.5010  134.5700 C   0  0  0  0  0  0  0  0  0  0  0  0
  143.2510  154.6190  133.7930 O   0  0  0  0  0  0  0  0  0  0  0  0
  144.6470  155.1300  135.5890 N   0  0  0  0  0  0  0  0  0  0  0  0
  145.3500  153.8530  135.6130 C   0  0  0  0  0  0  0  0  0  0  0  0
  146.7300  154.0350  136.1570 C   0  0  0  0  0  0  0  0  0  0  0  0
  147.3470  155.1150  135.9690 O   0  0  0  0  0  0  0  0  0  0  0  0
  147.3240  153.0230  136.9020 O   0  0  0  0  0  0  0  0  0  0  0  0
  146.1680  157.8200  133.2310 C   0  0  0  0  0  0  0  0  0  0  0  0
  146.4820  156.4720  133.0330 C   0  0  0  0  0  0  0  0  0  0  0  0
  148.3500  154.2177  133.7004 H   0  0  0  0  0  0  0  0  0  0  0  0
  147.4382  154.1504  132.1543 H   0  0  0  0  0  0  0  0  0  0  0  0
  149.1731  154.6158  132.1543 H   0  0  0  0  0  0  0  0  0  0  0  0
  149.8991  156.8384  132.8409 H   0  0  0  0  0  0  0  0  0  0  0  0
  149.2617  159.2563  133.1485 H   0  0  0  0  0  0  0  0  0  0  0  0
  147.0040  160.9888  133.4839 H   0  0  0  0  0  0  0  0  0  0  0  0
  142.4980  159.8860  132.6050 H   0  0  0  0  0  0  0  0  0  0  0  0
  142.8914  157.1596  136.4978 H   0  0  0  0  0  0  0  0  0  0  0  0
  142.5317  158.5699  135.4450 H   0  0  0  0  0  0  0  0  0  0  0  0
  141.4360  157.1465  135.4450 H   0  0  0  0  0  0  0  0  0  0  0  0
  144.7983  153.1462  136.2502 H   0  0  0  0  0  0  0  0  0  0  0  0
  145.4168  153.4601  134.5877 H   0  0  0  0  0  0  0  0  0  0  0  0
  145.6922  155.7070  133.0012 H   0  0  0  0  0  0  0  0  0  0  0  0
  1  2  1  0
  2  3  2  0
  3  4  1  0
  4  5  2  0
  5  6  1  0
  6  7  2  0
  7  8  1  0
  8  9  1  0
  8 10  2  0
  7 11  1  0
 11 12  1  0
 12 13  2  0
 12 14  1  0
 14 15  1  0
 14 16  1  0
 16 17  2  0
 16 18  1  0
 18 19  1  0
 19 20  1  0
 20 21  2  0
 20 22  1  0
 11 23  1  0
 23 24  2  0
 24  2  1  0
 23  5  1  0
  1 25  1  0
  1 26  1  0
  1 27  1  0
  3 28  1  0
  4 29  1  0
  6 30  1  0
  9 31  1  0
 15 32  1  0
 15 33  1  0
 15 34  1  0
 19 35  1  0
 19 36  1  0
 24 37  1  0
M  CHG  3   9  -1  18  -1  22  -1
M  END
>  <UniqueID>  (64) 
63

>  <SMILES>  (64) 
Cc1ccc2cc(C([NH-])=O)n(C(=O)N(C)C(=O)[N-]CC(=O)[O-])c2c1

>  <Energy>  (64) 
74.47563265997096

>  <Genealogy>  (64) 
Cc1ccc2cc(C([NH-])=O)n(C(=O)N(C)C(=O)[N-]CC(=O)[O-])c2c1 (protonated)
Cc1ccc2cc(C([NH-])=O)n(C(=O)N(C)C(=O)[N-]CC(=O)[O-])c2c1 (3D coordinates assigned)
Cc1ccc2cc(C([NH-])=O)n(C(=O)N(C)C(=O)[N-]CC(=O)[O-])c2c1 (optimized conformer: 74.47563265997096 kcal/mol)

>  <smiles>  (64) 
Cc1ccc2cc(C(N)=O)n(C(=O)N(C)C(=O)NCC(=O)O)c2c1

>  <score_type>  (64) 
oracle

>  <origin>  (64) 
adg

>  <m_score__min__energy>  (64) 
-7.1399999999999997

>  <m_primary>  (64) 
energy

$$$$
64:0
     RDKit          3D

 45 46  0  0  0  0  0  0  0  0999 V2000
  139.1080  155.9580  132.9590 C   0  0  0  0  0  0  0  0  0  0  0  0
  139.7920  157.2390  133.3500 C   0  0  0  0  0  0  0  0  0  0  0  0
  139.2720  158.4870  132.8450 S   0  0  0  0  0  0  0  0  0  0  0  0
  139.8040  159.6730  133.1980 O   0  0  0  0  0  0  0  0  0  0  0  0
  140.9250  157.1980  134.3110 C   0  0  0  0  0  0  0  0  0  0  0  0
  140.7430  157.4430  135.5350 O   0  0  0  0  0  0  0  0  0  0  0  0
  142.2490  156.8900  133.8520 N   0  0  0  0  0  0  0  0  0  0  0  0
  143.3470  157.6940  133.8640 C   0  0  0  0  0  0  0  0  0  0  0  0
  143.3770  159.1120  134.2800 C   0  0  0  0  0  0  0  0  0  0  0  0
  142.2620  159.7090  134.9380 N   0  0  0  0  0  0  0  0  0  0  0  0
  144.3930  159.8150  134.0300 O   0  0  0  0  0  0  0  0  0  0  0  0
  144.4570  157.0060  133.3720 C   0  0  0  0  0  0  0  0  0  0  0  0
  143.9960  155.7460  133.0600 C   0  0  0  0  0  0  0  0  0  0  0  0
  144.6720  154.6440  132.5470 C   0  0  0  0  0  0  0  0  0  0  0  0
  143.9420  153.4610  132.3450 C   0  0  0  0  0  0  0  0  0  0  0  0
  142.5610  153.3950  132.6560 C   0  0  0  0  0  0  0  0  0  0  0  0
  141.8520  152.1630  132.4210 N   0  0  0  0  0  0  0  0  0  0  0  0
  142.2290  150.8630  132.9800 C   0  0  0  0  0  0  0  0  0  0  0  0
  141.0610  150.2120  133.7310 C   0  0  0  0  0  0  0  0  0  0  0  0
  140.1380  149.5710  132.7950 N   0  0  0  0  0  0  0  0  0  0  0  0
  139.2140  150.3120  131.9900 C   0  0  0  0  0  0  0  0  0  0  0  0
  138.9870  151.5290  132.2340 O   0  0  0  0  0  0  0  0  0  0  0  0
  138.5660  149.6720  130.9280 O   0  0  0  0  0  0  0  0  0  0  0  0
  139.2590  148.9560  129.9080 C   0  0  0  0  0  0  0  0  0  0  0  0
  139.5260  147.5500  130.3440 C   0  0  0  0  0  0  0  0  0  0  0  0
  138.9780  146.5890  129.7420 O   0  0  0  0  0  0  0  0  0  0  0  0
  140.3530  147.3020  131.4320 O   0  0  0  0  0  0  0  0  0  0  0  0
  141.9130  154.5350  133.1890 C   0  0  0  0  0  0  0  0  0  0  0  0
  142.6620  155.7030  133.3620 C   0  0  0  0  0  0  0  0  0  0  0  0
  138.8142  155.4078  133.8651 H   0  0  0  0  0  0  0  0  0  0  0  0
  138.2125  156.1876  132.3630 H   0  0  0  0  0  0  0  0  0  0  0  0
  139.7970  155.3416  132.3630 H   0  0  0  0  0  0  0  0  0  0  0  0
  141.2880  159.3810  134.7480 H   0  0  0  0  0  0  0  0  0  0  0  0
  145.4820  157.3885  133.2577 H   0  0  0  0  0  0  0  0  0  0  0  0
  145.7442  154.6972  132.3071 H   0  0  0  0  0  0  0  0  0  0  0  0
  144.4495  152.5732  131.9397 H   0  0  0  0  0  0  0  0  0  0  0  0
  140.9820  152.1950  131.8420 H   0  0  0  0  0  0  0  0  0  0  0  0
  142.5411  150.1989  132.1605 H   0  0  0  0  0  0  0  0  0  0  0  0
  143.0519  151.0203  133.6929 H   0  0  0  0  0  0  0  0  0  0  0  0
  141.4550  149.4551  134.4251 H   0  0  0  0  0  0  0  0  0  0  0  0
  140.5181  150.9919  134.2851 H   0  0  0  0  0  0  0  0  0  0  0  0
  140.2700  148.5550  132.5870 H   0  0  0  0  0  0  0  0  0  0  0  0
  138.6454  148.9416  128.9951 H   0  0  0  0  0  0  0  0  0  0  0  0
  140.2189  149.4560  129.7118 H   0  0  0  0  0  0  0  0  0  0  0  0
  140.8474  154.5029  133.4602 H   0  0  0  0  0  0  0  0  0  0  0  0
  1  2  1  0
  2  3  2  0
  3  4  2  0
  2  5  1  0
  5  6  2  0
  5  7  1  0
  7  8  1  0
  8  9  1  0
  9 10  1  0
  9 11  2  0
  8 12  2  0
 12 13  1  0
 13 14  2  0
 14 15  1  0
 15 16  2  0
 16 17  1  0
 17 18  1  0
 18 19  1  0
 19 20  1  0
 20 21  1  0
 21 22  2  0
 21 23  1  0
 23 24  1  0
 24 25  1  0
 25 26  2  0
 25 27  1  0
 16 28  1  0
 28 29  2  0
 29  7  1  0
 29 13  1  0
  1 30  1  0
  1 31  1  0
  1 32  1  0
 10 33  1  0
 12 34  1  0
 14 35  1  0
 15 36  1  0
 17 37  1  0
 18 38  1  0
 18 39  1  0
 19 40  1  0
 19 41  1  0
 20 42  1  0
 24 43  1  0
 24 44  1  0
 28 45  1  0
M  CHG  2  10  -1  27  -1
M  END
>  <UniqueID>  (65) 
64

>  <SMILES>  (65) 
CC(=S=O)C(=O)n1c(C([NH-])=O)cc2ccc(NCCNC(=O)OCC(=O)[O-])cc21

>  <Energy>  (65) 
76.15007079939042

>  <Genealogy>  (65) 
CC(=S=O)C(=O)n1c(C([NH-])=O)cc2ccc(NCCNC(=O)OCC(=O)[O-])cc21 (protonated)
CC(=S=O)C(=O)n1c(C([NH-])=O)cc2ccc(NCCNC(=O)OCC(=O)[O-])cc21 (3D coordinates assigned)
CC(=S=O)C(=O)n1c(C([NH-])=O)cc2ccc(NCCNC(=O)OCC(=O)[O-])cc21 (optimized conformer: 76.15007079939042 kcal/mol)

>  <smiles>  (65) 
CC(=S=O)C(=O)n1c(C(N)=O)cc2ccc(NCCNC(=O)OCC(=O)O)cc21

>  <score_type>  (65) 
oracle

>  <origin>  (65) 
adg

>  <m_score__min__energy>  (65) 
-7.5300000000000002

>  <m_primary>  (65) 
energy

$$$$
65:0
     RDKit          3D

 50 52  0  0  0  0  0  0  0  0999 V2000
  146.4190  155.4800  132.6100 C   0  0  0  0  0  0  0  0  0  0  0  0
  146.4000  156.8890  133.0290 N   0  0  0  0  0  0  0  0  0  0  0  0
  147.6660  157.6250  133.0980 C   0  0  0  0  0  0  0  0  0  0  0  0
  145.1420  157.5410  133.3630 C   0  0  0  0  0  0  0  0  0  0  0  0
  145.0890  158.9530  133.5630 C   0  0  0  0  0  0  0  0  0  0  0  0
  143.8750  159.5940  133.8700 C   0  0  0  0  0  0  0  0  0  0  0  0
  142.7280  158.8100  133.9790 C   0  0  0  0  0  0  0  0  0  0  0  0
  141.4210  159.1790  134.2100 C   0  0  0  0  0  0  0  0  0  0  0  0
  140.6940  157.9920  134.1710 C   0  0  0  0  0  0  0  0  0  0  0  0
  139.2350  157.9140  134.3880 C   0  0  0  0  0  0  0  0  0  0  0  0
  138.3730  157.5590  133.3050 N   0  0  0  0  0  0  0  0  0  0  0  0
  138.7390  158.1640  135.5180 O   0  0  0  0  0  0  0  0  0  0  0  0
  141.5180  156.9330  133.9340 N   0  0  0  0  0  0  0  0  0  0  0  0
  141.1480  155.5490  133.8000 C   0  0  0  0  0  0  0  0  0  0  0  0
  139.9920  155.2620  133.3880 O   0  0  0  0  0  0  0  0  0  0  0  0
  142.1150  154.4870  134.1770 C   0  0  0  0  0  0  0  0  0  0  0  0
  142.6410  153.8060  133.2560 O   0  0  0  0  0  0  0  0  0  0  0  0
  142.5220  154.2110  135.5300 N   0  0  0  0  0  0  0  0  0  0  0  0
  141.6780  153.9310  136.6950 C   0  0  1  0  0  0  0  0  0  0  0  0
  142.0990  152.6210  137.3930 C   0  0  0  0  0  0  0  0  0  0  0  0
  140.9860  151.6200  137.4810 C   0  0  0  0  0  0  0  0  0  0  0  0
  140.3630  151.4570  138.5660 O   0  0  0  0  0  0  0  0  0  0  0  0
  140.6530  150.8500  136.3740 O   0  0  0  0  0  0  0  0  0  0  0  0
  141.7160  155.1060  137.6520 C   0  0  0  0  0  0  0  0  0  0  0  0
  142.0400  154.9290  139.0130 C   0  0  0  0  0  0  0  0  0  0  0  0
  142.0500  156.0240  139.8860 C   0  0  0  0  0  0  0  0  0  0  0  0
  141.7410  157.2990  139.4150 C   0  0  0  0  0  0  0  0  0  0  0  0
  141.4130  157.4870  138.0680 C   0  0  0  0  0  0  0  0  0  0  0  0
  141.0210  159.0890  137.4760 Cl  0  0  0  0  0  0  0  0  0  0  0  0
  141.3850  156.3930  137.1950 C   0  0  0  0  0  0  0  0  0  0  0  0
  142.7580  157.4510  133.8120 C   0  0  0  0  0  0  0  0  0  0  0  0
  143.9450  156.7870  133.4800 C   0  0  0  0  0  0  0  0  0  0  0  0
  146.4277  154.8330  133.4996 H   0  0  0  0  0  0  0  0  0  0  0  0
  145.5237  155.2642  132.0085 H   0  0  0  0  0  0  0  0  0  0  0  0
  147.3198  155.2885  132.0085 H   0  0  0  0  0  0  0  0  0  0  0  0
  147.9404  157.7845  134.1512 H   0  0  0  0  0  0  0  0  0  0  0  0
  148.4551  157.0449  132.5973 H   0  0  0  0  0  0  0  0  0  0  0  0
  147.5523  158.5978  132.5973 H   0  0  0  0  0  0  0  0  0  0  0  0
  146.0099  159.5482  133.4759 H   0  0  0  0  0  0  0  0  0  0  0  0
  143.8323  160.6829  134.0197 H   0  0  0  0  0  0  0  0  0  0  0  0
  141.0346  160.1935  134.3872 H   0  0  0  0  0  0  0  0  0  0  0  0
  138.3300  156.5760  132.9520 H   0  0  0  0  0  0  0  0  0  0  0  0
  140.6419  153.7921  136.3526 H   0  0  0  0  0  0  0  0  0  0  0  0
  142.9291  152.1733  136.8269 H   0  0  0  0  0  0  0  0  0  0  0  0
  142.3939  152.8763  138.4215 H   0  0  0  0  0  0  0  0  0  0  0  0
  142.2861  153.9257  139.3909 H   0  0  0  0  0  0  0  0  0  0  0  0
  142.3025  155.8775  140.9466 H   0  0  0  0  0  0  0  0  0  0  0  0
  141.7550  158.1575  140.1025 H   0  0  0  0  0  0  0  0  0  0  0  0
  141.1016  156.5420  136.1427 H   0  0  0  0  0  0  0  0  0  0  0  0
  143.9500  155.6998  133.3127 H   0  0  0  0  0  0  0  0  0  0  0  0
  1  2  1  0
  2  3  1  0
  2  4  1  0
  4  5  2  0
  5  6  1  0
  6  7  2  0
  7  8  1  0
  8  9  2  0
  9 10  1  0
 10 11  1  0
 10 12  2  0
  9 13  1  0
 13 14  1  0
 14 15  2  0
 14 16  1  0
 16 17  2  0
 16 18  1  0
 18 19  1  0
 19 20  1  0
 20 21  1  0
 21 22  2  0
 21 23  1  0
 19 24  1  0
 24 25  2  0
 25 26  1  0
 26 27  2  0
 27 28  1  0
 28 29  1  0
 28 30  2  0
 13 31  1  0
 31 32  2  0
 32  4  1  0
 31  7  1  0
 30 24  1  0
  1 33  1  0
  1 34  1  0
  1 35  1  0
  3 36  1  0
  3 37  1  0
  3 38  1  0
  5 39  1  0
  6 40  1  0
  8 41  1  0
 11 42  1  0
 19 43  1  6
 20 44  1  0
 20 45  1  0
 25 46  1  0
 26 47  1  0
 27 48  1  0
 30 49  1  0
 32 50  1  0
M  CHG  3  11  -1  18  -1  23  -1
M  END
>  <UniqueID>  (66) 
65

>  <SMILES>  (66) 
CN(C)c1ccc2cc(C([NH-])=O)n(C(=O)C(=O)[N-][C@@H](CC(=O)[O-])c3cccc(Cl)c3)c2c1

>  <Energy>  (66) 
93.40809837903191

>  <Genealogy>  (66) 
CN(C)c1ccc2cc(C([NH-])=O)n(C(=O)C(=O)[N-]C(CC(=O)[O-])c3cccc(Cl)c3)c2c1 (protonated)
CN(C)c1ccc2cc(C([NH-])=O)n(C(=O)C(=O)[N-][C@@H](CC(=O)[O-])c3cccc(Cl)c3)c2c1 (chirality)
CN(C)c1ccc2cc(C([NH-])=O)n(C(=O)C(=O)[N-][C@@H](CC(=O)[O-])c3cccc(Cl)c3)c2c1 (3D coordinates assigned)
CN(C)c1ccc2cc(C([NH-])=O)n(C(=O)C(=O)[N-][C@@H](CC(=O)[O-])c3cccc(Cl)c3)c2c1 (optimized conformer: 93.40809837903191 kcal/mol)

>  <smiles>  (66) 
CN(C)c1ccc2cc(C(N)=O)n(C(=O)C(=O)NC(CC(=O)O)c3cccc(Cl)c3)c2c1

>  <score_type>  (66) 
oracle

>  <origin>  (66) 
adg

>  <m_score__min__energy>  (66) 
-8.9800000000000004

>  <m_primary>  (66) 
energy

$$$$
66:0
     RDKit          3D

 42 43  0  0  0  0  0  0  0  0999 V2000
  145.5220  159.6150  133.1920 C   0  0  0  0  0  0  0  0  0  0  0  0
  145.2350  158.4450  133.2500 C   0  0  0  0  0  0  0  0  0  0  0  0
  144.8970  157.0490  133.3260 C   0  0  0  0  0  0  0  0  0  0  0  0
  145.9150  156.0700  133.2430 C   0  0  0  0  0  0  0  0  0  0  0  0
  145.5950  154.7030  133.3160 C   0  0  0  0  0  0  0  0  0  0  0  0
  144.2570  154.3530  133.4850 C   0  0  0  0  0  0  0  0  0  0  0  0
  143.6640  153.1120  133.5430 C   0  0  0  0  0  0  0  0  0  0  0  0
  142.3020  153.3610  133.6930 C   0  0  0  0  0  0  0  0  0  0  0  0
  141.2850  152.2980  133.8170 C   0  0  0  0  0  0  0  0  0  0  0  0
  140.1740  152.2250  132.9210 N   0  0  0  0  0  0  0  0  0  0  0  0
  141.3770  151.4600  134.7540 O   0  0  0  0  0  0  0  0  0  0  0  0
  142.0610  154.7020  133.7260 N   0  0  0  0  0  0  0  0  0  0  0  0
  140.7840  155.3580  133.7680 C   0  0  0  0  0  0  0  0  0  0  0  0
  139.9130  155.0700  132.9020 O   0  0  0  0  0  0  0  0  0  0  0  0
  140.4930  156.3410  134.7770 N   0  0  0  0  0  0  0  0  0  0  0  0
  141.2330  156.3340  136.0370 C   0  0  0  0  0  0  0  0  0  0  0  0
  139.4780  157.7090  134.4150 S   0  0  0  0  0  0  0  0  0  0  0  0
  138.3610  157.2960  133.4950 O   0  0  0  0  0  0  0  0  0  0  0  0
  138.8940  158.2480  135.6890 O   0  0  0  0  0  0  0  0  0  0  0  0
  140.4440  158.9810  133.6050 C   0  0  0  0  0  0  0  0  0  0  0  0
  140.2060  158.9990  132.0960 C   0  0  0  0  0  0  0  0  0  0  0  0
  139.4370  160.1320  131.7470 O   0  0  0  0  0  0  0  0  0  0  0  0
  138.2560  159.7110  131.1020 C   0  0  0  0  0  0  0  0  0  0  0  0
  143.2650  155.2960  133.5870 C   0  0  0  0  0  0  0  0  0  0  0  0
  143.5510  156.6620  133.4860 C   0  0  0  0  0  0  0  0  0  0  0  0
  145.7838  160.6821  133.1391 H   0  0  0  0  0  0  0  0  0  0  0  0
  146.9632  156.3803  133.1206 H   0  0  0  0  0  0  0  0  0  0  0  0
  146.3772  153.9331  133.2419 H   0  0  0  0  0  0  0  0  0  0  0  0
  144.1603  152.1321  133.4835 H   0  0  0  0  0  0  0  0  0  0  0  0
  139.9670  153.0000  132.2520 H   0  0  0  0  0  0  0  0  0  0  0  0
  139.5080  151.4220  132.9750 H   0  0  0  0  0  0  0  0  0  0  0  0
  140.5245  156.3407  136.8784 H   0  0  0  0  0  0  0  0  0  0  0  0
  141.8573  155.4299  136.0906 H   0  0  0  0  0  0  0  0  0  0  0  0
  141.8743  157.2261  136.0906 H   0  0  0  0  0  0  0  0  0  0  0  0
  140.1643  159.9600  134.0214 H   0  0  0  0  0  0  0  0  0  0  0  0
  141.5084  158.7663  133.7809 H   0  0  0  0  0  0  0  0  0  0  0  0
  141.1734  159.0392  131.5740 H   0  0  0  0  0  0  0  0  0  0  0  0
  139.6645  158.0876  131.8025 H   0  0  0  0  0  0  0  0  0  0  0  0
  137.5020  159.4422  131.8565 H   0  0  0  0  0  0  0  0  0  0  0  0
  137.8707  160.5272  130.4732 H   0  0  0  0  0  0  0  0  0  0  0  0
  138.4739  158.8352  130.4732 H   0  0  0  0  0  0  0  0  0  0  0  0
  142.7482  157.4127  133.5302 H   0  0  0  0  0  0  0  0  0  0  0  0
  1  2  3  0
  2  3  1  0
  3  4  2  0
  4  5  1  0
  5  6  2  0
  6  7  1  0
  7  8  2  0
  8  9  1  0
  9 10  1  0
  9 11  2  0
  8 12  1  0
 12 13  1  0
 13 14  2  0
 13 15  1  0
 15 16  1  0
 15 17  1  0
 17 18  2  0
 17 19  2  0
 17 20  1  0
 20 21  1  0
 21 22  1  0
 22 23  1  0
 12 24  1  0
 24 25  2  0
 25  3  1  0
 24  6  1  0
  1 26  1  0
  4 27  1  0
  5 28  1  0
  7 29  1  0
 10 30  1  0
 10 31  1  0
 16 32  1  0
 16 33  1  0
 16 34  1  0
 20 35  1  0
 20 36  1  0
 21 37  1  0
 21 38  1  0
 23 39  1  0
 23 40  1  0
 23 41  1  0
 25 42  1  0
M  END
>  <UniqueID>  (67) 
66

>  <SMILES>  (67) 
C#Cc1ccc2cc(C(N)=O)n(C(=O)N(C)S(=O)(=O)CCOC)c2c1

>  <Energy>  (67) 
75.5492959701698

>  <Genealogy>  (67) 
C#Cc1ccc2cc(C(N)=O)n(C(=O)N(C)S(=O)(=O)CCOC)c2c1 (3D coordinates assigned)
C#Cc1ccc2cc(C(N)=O)n(C(=O)N(C)S(=O)(=O)CCOC)c2c1 (optimized conformer: 75.5492959701698 kcal/mol)

>  <smiles>  (67) 
C#Cc1ccc2cc(C(N)=O)n(C(=O)N(C)S(=O)(=O)CCOC)c2c1

>  <score_type>  (67) 
oracle

>  <origin>  (67) 
adg

>  <m_score__min__energy>  (67) 
-7.1399999999999997

>  <m_primary>  (67) 
energy

$$$$
67:0
     RDKit          3D

 40 42  0  0  0  0  0  0  0  0999 V2000
  147.8990  152.8060  133.7360 N   0  0  0  0  0  0  0  0  0  0  0  0
  148.5460  153.7060  132.8340 C   0  0  0  0  0  0  0  0  0  0  0  0
  149.4610  153.2750  132.0830 O   0  0  0  0  0  0  0  0  0  0  0  0
  148.2070  155.1430  132.8130 C   0  0  0  0  0  0  0  0  0  0  0  0
  149.1490  156.1490  132.6110 C   0  0  0  0  0  0  0  0  0  0  0  0
  148.4490  157.3270  132.7250 C   0  0  0  0  0  0  0  0  0  0  0  0
  148.8870  158.6410  132.5990 C   0  0  0  0  0  0  0  0  0  0  0  0
  147.9380  159.6690  132.7260 C   0  0  0  0  0  0  0  0  0  0  0  0
  146.5700  159.3690  132.9690 C   0  0  0  0  0  0  0  0  0  0  0  0
  145.5770  160.4050  133.0930 N   0  0  0  0  0  0  0  0  0  0  0  0
  144.6840  160.5550  134.2410 C   0  0  0  0  0  0  0  0  0  0  0  0
  143.3480  160.0650  133.9120 N   0  0  0  0  0  0  0  0  0  0  0  0
  143.0040  158.7790  133.7110 C   0  0  0  0  0  0  0  0  0  0  0  0
  141.6640  158.7370  133.3910 C   0  0  0  0  0  0  0  0  0  0  0  0
  141.2560  160.0570  133.4080 C   0  0  0  0  0  0  0  0  0  0  0  0
  142.2990  160.8490  133.7220 N   0  0  0  0  0  0  0  0  0  0  0  0
  146.1670  158.0200  133.0840 C   0  0  0  0  0  0  0  0  0  0  0  0
  147.1380  157.0170  132.9750 C   0  0  0  0  0  0  0  0  0  0  0  0
  146.9710  155.6750  133.0290 N   0  0  0  0  0  0  0  0  0  0  0  0
  145.7270  154.9710  133.1670 C   0  0  0  0  0  0  0  0  0  0  0  0
  144.8980  154.9650  132.2150 O   0  0  0  0  0  0  0  0  0  0  0  0
  145.4340  154.3000  134.3570 O   0  0  0  0  0  0  0  0  0  0  0  0
  145.7110  154.8500  135.6400 C   0  0  0  0  0  0  0  0  0  0  0  0
  146.9820  154.2690  136.1580 C   0  0  0  0  0  0  0  0  0  0  0  0
  148.0410  154.9500  136.1450 O   0  0  0  0  0  0  0  0  0  0  0  0
  146.9900  152.9930  136.7080 O   0  0  0  0  0  0  0  0  0  0  0  0
  148.1220  151.7870  133.7080 H   0  0  0  0  0  0  0  0  0  0  0  0
  147.2670  153.1590  134.4870 H   0  0  0  0  0  0  0  0  0  0  0  0
  150.2226  156.0272  132.4045 H   0  0  0  0  0  0  0  0  0  0  0  0
  149.9456  158.8687  132.4055 H   0  0  0  0  0  0  0  0  0  0  0  0
  148.2571  160.7179  132.6364 H   0  0  0  0  0  0  0  0  0  0  0  0
  145.4540  161.0770  132.3010 H   0  0  0  0  0  0  0  0  0  0  0  0
  145.0831  159.9789  135.0888 H   0  0  0  0  0  0  0  0  0  0  0  0
  144.6188  161.6205  134.5065 H   0  0  0  0  0  0  0  0  0  0  0  0
  143.6762  157.9117  133.7887 H   0  0  0  0  0  0  0  0  0  0  0  0
  141.0540  157.8486  133.1707 H   0  0  0  0  0  0  0  0  0  0  0  0
  140.2349  160.4076  133.1972 H   0  0  0  0  0  0  0  0  0  0  0  0
  145.1114  157.7626  133.2558 H   0  0  0  0  0  0  0  0  0  0  0  0
  145.8122  155.9423  135.5581 H   0  0  0  0  0  0  0  0  0  0  0  0
  144.8877  154.6122  136.3297 H   0  0  0  0  0  0  0  0  0  0  0  0
  1  2  1  0
  2  3  2  0
  2  4  1  0
  4  5  2  0
  5  6  1  0
  6  7  2  0
  7  8  1  0
  8  9  2  0
  9 10  1  0
 10 11  1  0
 11 12  1  0
 12 13  1  0
 13 14  2  0
 14 15  1  0
 15 16  2  0
  9 17  1  0
 17 18  2  0
 18 19  1  0
 19 20  1  0
 20 21  2  0
 20 22  1  0
 22 23  1  0
 23 24  1  0
 24 25  2  0
 24 26  1  0
 19  4  1  0
 18  6  1  0
 16 12  1  0
  1 27  1  0
  1 28  1  0
  5 29  1  0
  7 30  1  0
  8 31  1  0
 10 32  1  0
 11 33  1  0
 11 34  1  0
 13 35  1  0
 14 36  1  0
 15 37  1  0
 17 38  1  0
 23 39  1  0
 23 40  1  0
M  CHG  1  26  -1
M  END
>  <UniqueID>  (68) 
67

>  <SMILES>  (68) 
NC(=O)c1cc2ccc(NCn3cccn3)cc2n1C(=O)OCC(=O)[O-]

>  <Energy>  (68) 
106.45068836283224

>  <Genealogy>  (68) 
NC(=O)c1cc2ccc(NCn3cccn3)cc2n1C(=O)OCC(=O)[O-] (protonated)
NC(=O)c1cc2ccc(NCn3cccn3)cc2n1C(=O)OCC(=O)[O-] (3D coordinates assigned)
NC(=O)c1cc2ccc(NCn3cccn3)cc2n1C(=O)OCC(=O)[O-] (optimized conformer: 106.45068836283224 kcal/mol)

>  <smiles>  (68) 
NC(=O)c1cc2ccc(NCn3cccn3)cc2n1C(=O)OCC(=O)O

>  <score_type>  (68) 
oracle

>  <origin>  (68) 
adg

>  <m_score__min__energy>  (68) 
-7.71

>  <m_primary>  (68) 
energy

$$$$
68:0
     RDKit          3D

 32 33  0  0  0  0  0  0  0  0999 V2000
  143.9810  155.5550  135.2240 C   0  0  0  0  0  0  0  0  0  0  0  0
  145.1400  154.6930  134.9750 N   0  0  0  0  0  0  0  0  0  0  0  0
  145.6480  153.8600  136.0370 C   0  0  0  0  0  0  0  0  0  0  0  0
  146.8290  153.4250  135.9950 O   0  0  0  0  0  0  0  0  0  0  0  0
  144.8530  153.5450  137.1320 O   0  0  0  0  0  0  0  0  0  0  0  0
  145.7180  154.6330  133.6560 C   0  0  0  0  0  0  0  0  0  0  0  0
  145.2510  153.8370  132.7960 O   0  0  0  0  0  0  0  0  0  0  0  0
  146.8350  155.4670  133.3070 N   0  0  0  0  0  0  0  0  0  0  0  0
  148.0800  155.0710  132.9230 C   0  0  0  0  0  0  0  0  0  0  0  0
  148.5640  153.6710  132.9070 C   0  0  0  0  0  0  0  0  0  0  0  0
  147.7600  152.6110  133.4270 N   0  0  0  0  0  0  0  0  0  0  0  0
  149.6900  153.3990  132.4130 O   0  0  0  0  0  0  0  0  0  0  0  0
  148.8680  156.1810  132.6120 C   0  0  0  0  0  0  0  0  0  0  0  0
  148.0530  157.2730  132.8130 C   0  0  0  0  0  0  0  0  0  0  0  0
  148.3150  158.6300  132.6410 C   0  0  0  0  0  0  0  0  0  0  0  0
  147.2730  159.5390  132.8970 C   0  0  0  0  0  0  0  0  0  0  0  0
  145.9970  159.0770  133.3120 C   0  0  0  0  0  0  0  0  0  0  0  0
  144.8820  160.0490  133.5710 C   0  0  0  0  0  0  0  0  0  0  0  0
  143.8120  159.3870  134.1460 F   0  0  0  0  0  0  0  0  0  0  0  0
  145.3180  161.0420  134.4290 F   0  0  0  0  0  0  0  0  0  0  0  0
  145.7700  157.6920  133.4710 C   0  0  0  0  0  0  0  0  0  0  0  0
  146.8320  156.8140  133.2280 C   0  0  0  0  0  0  0  0  0  0  0  0
  143.8324  155.6655  136.3083 H   0  0  0  0  0  0  0  0  0  0  0  0
  144.1564  156.5439  134.7753 H   0  0  0  0  0  0  0  0  0  0  0  0
  143.0844  155.1025  134.7753 H   0  0  0  0  0  0  0  0  0  0  0  0
  146.8510  152.7970  133.9020 H   0  0  0  0  0  0  0  0  0  0  0  0
  148.1000  151.6240  133.3740 H   0  0  0  0  0  0  0  0  0  0  0  0
  149.9160  156.1829  132.2778 H   0  0  0  0  0  0  0  0  0  0  0  0
  149.3057  158.9797  132.3152 H   0  0  0  0  0  0  0  0  0  0  0  0
  147.4486  160.6180  132.7745 H   0  0  0  0  0  0  0  0  0  0  0  0
  144.5682  160.4991  132.6176 H   0  0  0  0  0  0  0  0  0  0  0  0
  144.7839  157.3134  133.7779 H   0  0  0  0  0  0  0  0  0  0  0  0
  1  2  1  0
  2  3  1  0
  3  4  2  0
  3  5  1  0
  2  6  1  0
  6  7  2  0
  6  8  1  0
  8  9  1  0
  9 10  1  0
 10 11  1  0
 10 12  2  0
  9 13  2  0
 13 14  1  0
 14 15  2  0
 15 16  1  0
 16 17  2  0
 17 18  1  0
 18 19  1  0
 18 20  1  0
 17 21  1  0
 21 22  2  0
 22  8  1  0
 22 14  1  0
  1 23  1  0
  1 24  1  0
  1 25  1  0
 11 26  1  0
 11 27  1  0
 13 28  1  0
 15 29  1  0
 16 30  1  0
 18 31  1  0
 21 32  1  0
M  CHG  1   5  -1
M  END
>  <UniqueID>  (69) 
68

>  <SMILES>  (69) 
CN(C(=O)[O-])C(=O)n1c(C(N)=O)cc2ccc(C(F)F)cc21

>  <Energy>  (69) 
72.34851700825038

>  <Genealogy>  (69) 
CN(C(=O)[O-])C(=O)n1c(C(N)=O)cc2ccc(C(F)F)cc21 (protonated)
CN(C(=O)[O-])C(=O)n1c(C(N)=O)cc2ccc(C(F)F)cc21 (3D coordinates assigned)
CN(C(=O)[O-])C(=O)n1c(C(N)=O)cc2ccc(C(F)F)cc21 (optimized conformer: 72.34851700825038 kcal/mol)

>  <smiles>  (69) 
CN(C(=O)O)C(=O)n1c(C(N)=O)cc2ccc(C(F)F)cc21

>  <score_type>  (69) 
oracle

>  <origin>  (69) 
adg

>  <m_score__min__energy>  (69) 
-5.9100000000000001

>  <m_primary>  (69) 
energy

$$$$
69:0
     RDKit          3D

 33 34  0  0  0  0  0  0  0  0999 V2000
  141.1450  157.7990  133.6680 C   0  0  0  0  0  0  0  0  0  0  0  0
  142.0590  158.1100  134.8490 C   0  0  0  0  0  0  0  0  0  0  0  0
  142.3130  156.9410  135.5470 F   0  0  0  0  0  0  0  0  0  0  0  0
  141.4100  158.9840  135.7050 F   0  0  0  0  0  0  0  0  0  0  0  0
  143.3540  158.7200  134.3620 C   0  0  0  0  0  0  0  0  0  0  0  0
  143.4350  160.1120  134.0950 C   0  0  0  0  0  0  0  0  0  0  0  0
  144.6160  160.6810  133.5910 C   0  0  0  0  0  0  0  0  0  0  0  0
  145.6980  159.8380  133.3540 C   0  0  0  0  0  0  0  0  0  0  0  0
  146.9420  160.1180  132.8390 C   0  0  0  0  0  0  0  0  0  0  0  0
  147.6100  158.8960  132.8010 C   0  0  0  0  0  0  0  0  0  0  0  0
  149.0230  158.7550  132.3920 C   0  0  0  0  0  0  0  0  0  0  0  0
  149.6120  157.4680  132.2170 N   0  0  0  0  0  0  0  0  0  0  0  0
  149.7340  159.7840  132.2400 O   0  0  0  0  0  0  0  0  0  0  0  0
  146.8050  157.8980  133.2640 N   0  0  0  0  0  0  0  0  0  0  0  0
  147.0850  156.4900  133.3120 C   0  0  0  0  0  0  0  0  0  0  0  0
  147.1210  155.8180  132.2440 O   0  0  0  0  0  0  0  0  0  0  0  0
  147.2910  155.8650  134.5470 O   0  0  0  0  0  0  0  0  0  0  0  0
  147.2950  154.4500  134.7180 C   0  0  0  0  0  0  0  0  0  0  0  0
  147.6020  154.1000  136.1390 C   0  0  0  0  0  0  0  0  0  0  0  0
  148.4010  154.8060  136.8100 O   0  0  0  0  0  0  0  0  0  0  0  0
  146.9820  153.0080  136.7330 O   0  0  0  0  0  0  0  0  0  0  0  0
  145.6390  158.4910  133.6030 C   0  0  0  0  0  0  0  0  0  0  0  0
  144.4700  157.8950  134.0880 C   0  0  0  0  0  0  0  0  0  0  0  0
  140.1652  157.4656  134.0405 H   0  0  0  0  0  0  0  0  0  0  0  0
  141.0161  158.7038  133.0559 H   0  0  0  0  0  0  0  0  0  0  0  0
  141.5947  157.0033  133.0559 H   0  0  0  0  0  0  0  0  0  0  0  0
  142.5616  160.7531  134.2853 H   0  0  0  0  0  0  0  0  0  0  0  0
  144.6839  161.7603  133.3896 H   0  0  0  0  0  0  0  0  0  0  0  0
  147.3278  161.0988  132.5239 H   0  0  0  0  0  0  0  0  0  0  0  0
  149.0560  156.6700  131.8370 H   0  0  0  0  0  0  0  0  0  0  0  0
  146.3059  154.0494  134.4511 H   0  0  0  0  0  0  0  0  0  0  0  0
  148.0666  154.0130  134.0671 H   0  0  0  0  0  0  0  0  0  0  0  0
  144.4197  156.8086  134.2527 H   0  0  0  0  0  0  0  0  0  0  0  0
  1  2  1  0
  2  3  1  0
  2  4  1  0
  2  5  1  0
  5  6  2  0
  6  7  1  0
  7  8  2  0
  8  9  1  0
  9 10  2  0
 10 11  1  0
 11 12  1  0
 11 13  2  0
 10 14  1  0
 14 15  1  0
 15 16  2  0
 15 17  1  0
 17 18  1  0
 18 19  1  0
 19 20  2  0
 19 21  1  0
 14 22  1  0
 22 23  2  0
 23  5  1  0
 22  8  1  0
  1 24  1  0
  1 25  1  0
  1 26  1  0
  6 27  1  0
  7 28  1  0
  9 29  1  0
 12 30  1  0
 18 31  1  0
 18 32  1  0
 23 33  1  0
M  CHG  2  12  -1  21  -1
M  END
>  <UniqueID>  (70) 
69

>  <SMILES>  (70) 
CC(F)(F)c1ccc2cc(C([NH-])=O)n(C(=O)OCC(=O)[O-])c2c1

>  <Energy>  (70) 
68.43027703168707

>  <Genealogy>  (70) 
CC(F)(F)c1ccc2cc(C([NH-])=O)n(C(=O)OCC(=O)[O-])c2c1 (protonated)
CC(F)(F)c1ccc2cc(C([NH-])=O)n(C(=O)OCC(=O)[O-])c2c1 (3D coordinates assigned)
CC(F)(F)c1ccc2cc(C([NH-])=O)n(C(=O)OCC(=O)[O-])c2c1 (optimized conformer: 68.43027703168707 kcal/mol)

>  <smiles>  (70) 
CC(F)(F)c1ccc2cc(C(N)=O)n(C(=O)OCC(=O)O)c2c1

>  <score_type>  (70) 
oracle

>  <origin>  (70) 
adg

>  <m_score__min__energy>  (70) 
-5.8899999999999997

>  <m_primary>  (70) 
energy

$$$$
70:0
     RDKit          3D

 43 44  0  0  0  0  0  0  0  0999 V2000
  139.3650  157.8750  134.4100 C   0  0  0  0  0  0  0  0  0  0  0  0
  140.4370  158.3930  135.2700 N   0  0  0  0  0  0  0  0  0  0  0  0
  140.2230  158.4340  136.7220 C   0  0  0  0  0  0  0  0  0  0  0  0
  141.6870  158.8550  134.6950 C   0  0  0  0  0  0  0  0  0  0  0  0
  141.8600  160.2220  134.3330 C   0  0  0  0  0  0  0  0  0  0  0  0
  143.0680  160.6800  133.7820 C   0  0  0  0  0  0  0  0  0  0  0  0
  144.0920  159.7600  133.5970 C   0  0  0  0  0  0  0  0  0  0  0  0
  145.3620  159.9350  133.0930 C   0  0  0  0  0  0  0  0  0  0  0  0
  145.9540  158.6720  133.1380 C   0  0  0  0  0  0  0  0  0  0  0  0
  147.3000  158.3620  132.6050 C   0  0  0  0  0  0  0  0  0  0  0  0
  147.5780  157.0960  132.0070 N   0  0  0  0  0  0  0  0  0  0  0  0
  148.2250  159.2140  132.6930 O   0  0  0  0  0  0  0  0  0  0  0  0
  145.0820  157.7600  133.6540 N   0  0  0  0  0  0  0  0  0  0  0  0
  145.3090  156.3630  133.9010 C   0  0  0  0  0  0  0  0  0  0  0  0
  145.8970  156.0040  134.9550 O   0  0  0  0  0  0  0  0  0  0  0  0
  144.9020  155.3460  132.9210 C   0  0  0  0  0  0  0  0  0  0  0  0
  143.6980  155.2700  132.5520 O   0  0  0  0  0  0  0  0  0  0  0  0
  145.8610  154.4780  132.3920 O   0  0  0  0  0  0  0  0  0  0  0  0
  145.9600  153.1110  132.7820 C   0  0  0  0  0  0  0  0  0  0  0  0
  147.4040  152.6280  132.6380 C   0  0  0  0  0  0  0  0  0  0  0  0
  148.4220  153.6820  133.0900 C   0  0  0  0  0  0  0  0  0  0  0  0
  148.4070  154.7940  132.2350 O   0  0  0  0  0  0  0  0  0  0  0  0
  143.9480  158.4400  133.9230 C   0  0  0  0  0  0  0  0  0  0  0  0
  142.7630  157.9530  134.4830 C   0  0  0  0  0  0  0  0  0  0  0  0
  138.5506  157.4815  135.0360 H   0  0  0  0  0  0  0  0  0  0  0  0
  138.9800  158.6865  133.7749 H   0  0  0  0  0  0  0  0  0  0  0  0
  139.7615  157.0691  133.7749 H   0  0  0  0  0  0  0  0  0  0  0  0
  141.1769  158.2512  137.2385 H   0  0  0  0  0  0  0  0  0  0  0  0
  139.8349  159.4228  137.0077 H   0  0  0  0  0  0  0  0  0  0  0  0
  139.4969  157.6586  137.0077 H   0  0  0  0  0  0  0  0  0  0  0  0
  141.0333  160.9309  134.4877 H   0  0  0  0  0  0  0  0  0  0  0  0
  143.1993  161.7364  133.5051 H   0  0  0  0  0  0  0  0  0  0  0  0
  145.8134  160.8709  132.7320 H   0  0  0  0  0  0  0  0  0  0  0  0
  148.5420  156.8770  131.6690 H   0  0  0  0  0  0  0  0  0  0  0  0
  146.8260  156.3870  131.8570 H   0  0  0  0  0  0  0  0  0  0  0  0
  145.6445  153.0078  133.8307 H   0  0  0  0  0  0  0  0  0  0  0  0
  145.3103  152.5034  132.1348 H   0  0  0  0  0  0  0  0  0  0  0  0
  147.5366  151.7238  133.2502 H   0  0  0  0  0  0  0  0  0  0  0  0
  147.5841  152.4238  131.5722 H   0  0  0  0  0  0  0  0  0  0  0  0
  148.1723  154.0091  134.1101 H   0  0  0  0  0  0  0  0  0  0  0  0
  149.4260  153.2334  133.0642 H   0  0  0  0  0  0  0  0  0  0  0  0
  147.8010  154.5650  131.4830 H   0  0  0  0  0  0  0  0  0  0  0  0
  142.6661  156.8914  134.7542 H   0  0  0  0  0  0  0  0  0  0  0  0
  1  2  1  0
  2  3  1  0
  2  4  1  0
  4  5  2  0
  5  6  1  0
  6  7  2  0
  7  8  1  0
  8  9  2  0
  9 10  1  0
 10 11  1  0
 10 12  2  0
  9 13  1  0
 13 14  1  0
 14 15  2  0
 14 16  1  0
 16 17  2  0
 16 18  1  0
 18 19  1  0
 19 20  1  0
 20 21  1  0
 21 22  1  0
 13 23  1  0
 23 24  2  0
 24  4  1  0
 23  7  1  0
  1 25  1  0
  1 26  1  0
  1 27  1  0
  3 28  1  0
  3 29  1  0
  3 30  1  0
  5 31  1  0
  6 32  1  0
  8 33  1  0
 11 34  1  0
 11 35  1  0
 19 36  1  0
 19 37  1  0
 20 38  1  0
 20 39  1  0
 21 40  1  0
 21 41  1  0
 22 42  1  0
 24 43  1  0
M  END
>  <UniqueID>  (71) 
70

>  <SMILES>  (71) 
CN(C)c1ccc2cc(C(N)=O)n(C(=O)C(=O)OCCCO)c2c1

>  <Energy>  (71) 
76.84272343754787

>  <Genealogy>  (71) 
CN(C)c1ccc2cc(C(N)=O)n(C(=O)C(=O)OCCCO)c2c1 (3D coordinates assigned)
CN(C)c1ccc2cc(C(N)=O)n(C(=O)C(=O)OCCCO)c2c1 (optimized conformer: 76.84272343754787 kcal/mol)

>  <smiles>  (71) 
CN(C)c1ccc2cc(C(N)=O)n(C(=O)C(=O)OCCCO)c2c1

>  <score_type>  (71) 
oracle

>  <origin>  (71) 
adg

>  <m_score__min__energy>  (71) 
-5.8899999999999997

>  <m_primary>  (71) 
energy

$$$$
71:0
     RDKit          3D

 36 37  0  0  0  0  0  0  0  0999 V2000
  143.1650  160.6520  133.3870 N   0  0  0  0  0  0  0  0  0  0  0  0
  144.5390  160.8150  133.7300 C   0  0  0  0  0  0  0  0  0  0  0  0
  144.9020  161.8530  134.3440 O   0  0  0  0  0  0  0  0  0  0  0  0
  145.5290  159.7590  133.4270 C   0  0  0  0  0  0  0  0  0  0  0  0
  146.8530  160.0280  133.0860 C   0  0  0  0  0  0  0  0  0  0  0  0
  147.4600  158.7970  132.9790 C   0  0  0  0  0  0  0  0  0  0  0  0
  148.7740  158.4700  132.6560 C   0  0  0  0  0  0  0  0  0  0  0  0
  149.1170  157.1080  132.5940 C   0  0  0  0  0  0  0  0  0  0  0  0
  148.1450  156.1130  132.8440 C   0  0  0  0  0  0  0  0  0  0  0  0
  148.5030  154.7210  132.7710 C   0  0  0  0  0  0  0  0  0  0  0  0
  148.7970  153.5540  132.7130 C   0  0  0  0  0  0  0  0  0  0  0  0
  149.1480  152.1350  132.6450 C   0  0  0  0  0  0  0  0  0  0  0  0
  147.9890  151.3650  132.7830 O   0  0  0  0  0  0  0  0  0  0  0  0
  146.8220  156.4770  133.1640 C   0  0  0  0  0  0  0  0  0  0  0  0
  146.5120  157.8400  133.2420 C   0  0  0  0  0  0  0  0  0  0  0  0
  145.3210  158.4150  133.5160 N   0  0  0  0  0  0  0  0  0  0  0  0
  144.0890  157.7230  133.7710 C   0  0  0  0  0  0  0  0  0  0  0  0
  143.2410  158.2150  134.5650 O   0  0  0  0  0  0  0  0  0  0  0  0
  143.8210  156.5210  133.1100 O   0  0  0  0  0  0  0  0  0  0  0  0
  144.0180  155.2460  133.7130 C   0  0  0  0  0  0  0  0  0  0  0  0
  144.2920  154.1980  132.6360 C   0  0  0  0  0  0  0  0  0  0  0  0
  145.2610  153.1650  133.1220 C   0  0  0  0  0  0  0  0  0  0  0  0
  145.3490  152.0540  132.5360 O   0  0  0  0  0  0  0  0  0  0  0  0
  146.0950  153.4440  134.1970 O   0  0  0  0  0  0  0  0  0  0  0  0
  142.7980  159.7290  133.0680 H   0  0  0  0  0  0  0  0  0  0  0  0
  147.3151  161.0146  132.9344 H   0  0  0  0  0  0  0  0  0  0  0  0
  149.5205  159.2527  132.4556 H   0  0  0  0  0  0  0  0  0  0  0  0
  150.1486  156.8149  132.3493 H   0  0  0  0  0  0  0  0  0  0  0  0
  149.6192  151.9191  131.6747 H   0  0  0  0  0  0  0  0  0  0  0  0
  149.8515  151.8903  133.4545 H   0  0  0  0  0  0  0  0  0  0  0  0
  147.3720  151.8970  133.3470 H   0  0  0  0  0  0  0  0  0  0  0  0
  146.0539  155.7113  133.3475 H   0  0  0  0  0  0  0  0  0  0  0  0
  144.8758  155.2960  134.3998 H   0  0  0  0  0  0  0  0  0  0  0  0
  143.1118  154.9648  134.2695 H   0  0  0  0  0  0  0  0  0  0  0  0
  143.3466  153.7047  132.3661 H   0  0  0  0  0  0  0  0  0  0  0  0
  144.7289  154.7023  131.7614 H   0  0  0  0  0  0  0  0  0  0  0  0
  1  2  1  0
  2  3  2  0
  2  4  1  0
  4  5  2  0
  5  6  1  0
  6  7  2  0
  7  8  1  0
  8  9  2  0
  9 10  1  0
 10 11  3  0
 11 12  1  0
 12 13  1  0
  9 14  1  0
 14 15  2  0
 15 16  1  0
 16 17  1  0
 17 18  2  0
 17 19  1  0
 19 20  1  0
 20 21  1  0
 21 22  1  0
 22 23  2  0
 22 24  1  0
 16  4  1  0
 15  6  1  0
  1 25  1  0
  5 26  1  0
  7 27  1  0
  8 28  1  0
 12 29  1  0
 12 30  1  0
 13 31  1  0
 14 32  1  0
 20 33  1  0
 20 34  1  0
 21 35  1  0
 21 36  1  0
M  CHG  2   1  -1  24  -1
M  END
>  <UniqueID>  (72) 
71

>  <SMILES>  (72) 
[NH-]C(=O)c1cc2ccc(C#CCO)cc2n1C(=O)OCCC(=O)[O-]

>  <Energy>  (72) 
64.10946871642952

>  <Genealogy>  (72) 
[NH-]C(=O)c1cc2ccc(C#CCO)cc2n1C(=O)OCCC(=O)[O-] (protonated)
[NH-]C(=O)c1cc2ccc(C#CCO)cc2n1C(=O)OCCC(=O)[O-] (3D coordinates assigned)
[NH-]C(=O)c1cc2ccc(C#CCO)cc2n1C(=O)OCCC(=O)[O-] (optimized conformer: 64.10946871642952 kcal/mol)

>  <smiles>  (72) 
NC(=O)c1cc2ccc(C#CCO)cc2n1C(=O)OCCC(=O)O

>  <score_type>  (72) 
oracle

>  <origin>  (72) 
adg

>  <m_score__min__energy>  (72) 
-6.79

>  <m_primary>  (72) 
energy

$$$$
72:0
     RDKit          3D

 52 55  0  0  0  0  0  0  0  0999 V2000
  144.6730  159.9790  133.3620 C   0  0  0  0  0  0  0  0  0  0  0  0
  145.8350  159.0420  133.2240 C   0  0  0  0  0  0  0  0  0  0  0  0
  147.1580  159.5290  133.3540 C   0  0  0  0  0  0  0  0  0  0  0  0
  148.2520  158.6520  133.2690 C   0  0  0  0  0  0  0  0  0  0  0  0
  147.9900  157.3010  133.0560 C   0  0  0  0  0  0  0  0  0  0  0  0
  148.8580  156.2390  132.9830 C   0  0  0  0  0  0  0  0  0  0  0  0
  148.0550  155.1160  132.8040 C   0  0  0  0  0  0  0  0  0  0  0  0
  148.6060  153.7490  132.6550 C   0  0  0  0  0  0  0  0  0  0  0  0
  147.8800  152.6060  133.0950 N   0  0  0  0  0  0  0  0  0  0  0  0
  149.7250  153.5880  132.0990 O   0  0  0  0  0  0  0  0  0  0  0  0
  146.7360  155.4670  132.7610 N   0  0  0  0  0  0  0  0  0  0  0  0
  145.6000  154.5830  132.6870 C   0  0  0  0  0  0  0  0  0  0  0  0
  144.7300  154.7820  131.7940 O   0  0  0  0  0  0  0  0  0  0  0  0
  145.3800  153.5740  133.7040 N   0  0  1  0  0  0  0  0  0  0  0  0
  145.6940  154.1350  135.0000 C   0  0  0  0  0  0  0  0  0  0  0  0
  145.1700  155.2150  135.3850 O   0  0  0  0  0  0  0  0  0  0  0  0
  146.5630  153.4630  135.8530 O   0  0  0  0  0  0  0  0  0  0  0  0
  144.0320  152.9250  133.5780 C   0  0  0  0  0  0  0  0  0  0  0  0
  143.9820  151.5630  132.9110 C   0  0  0  0  0  0  0  0  0  0  0  0
  145.0500  151.1250  132.4020 O   0  0  0  0  0  0  0  0  0  0  0  0
  142.7670  150.7860  132.7810 N   0  0  0  0  0  0  0  0  0  0  0  0
  141.4850  151.2090  133.3610 C   0  0  0  0  0  0  0  0  0  0  0  0
  140.6430  149.9780  133.7200 C   0  0  0  0  0  0  0  0  0  0  0  0
  140.4140  149.0720  132.5760 N   0  0  0  0  0  0  0  0  0  0  0  0
  141.3730  149.2200  131.4680 C   0  0  0  0  0  0  0  0  0  0  0  0
  142.7850  149.5690  131.9540 C   0  0  0  0  0  0  0  0  0  0  0  0
  143.1000  152.9960  134.8060 C   0  0  0  0  0  0  0  0  0  0  0  0
  142.7760  153.8000  133.5590 C   0  0  0  0  0  0  0  0  0  0  0  0
  146.7150  156.8120  132.9250 C   0  0  0  0  0  0  0  0  0  0  0  0
  145.6100  157.6620  133.0300 C   0  0  0  0  0  0  0  0  0  0  0  0
  144.4631  160.1483  134.4284 H   0  0  0  0  0  0  0  0  0  0  0  0
  144.9154  160.9373  132.8794 H   0  0  0  0  0  0  0  0  0  0  0  0
  143.7878  159.5390  132.8794 H   0  0  0  0  0  0  0  0  0  0  0  0
  147.3305  160.6022  133.5228 H   0  0  0  0  0  0  0  0  0  0  0  0
  149.2836  159.0209  133.3676 H   0  0  0  0  0  0  0  0  0  0  0  0
  149.9554  156.2694  133.0515 H   0  0  0  0  0  0  0  0  0  0  0  0
  147.3310  152.6260  133.9830 H   0  0  0  0  0  0  0  0  0  0  0  0
  146.0850  152.8180  133.5520 H   0  0  0  0  0  0  0  0  0  0  0  0
  141.6730  151.7999  134.2695 H   0  0  0  0  0  0  0  0  0  0  0  0
  140.9391  151.8196  132.6267 H   0  0  0  0  0  0  0  0  0  0  0  0
  141.1637  149.4174  134.5103 H   0  0  0  0  0  0  0  0  0  0  0  0
  139.6585  150.3418  134.0492 H   0  0  0  0  0  0  0  0  0  0  0  0
  140.4610  148.0850  132.9240 H   0  0  0  0  0  0  0  0  0  0  0  0
  141.4162  148.2728  130.9104 H   0  0  0  0  0  0  0  0  0  0  0  0
  141.0244  150.0482  130.8335 H   0  0  0  0  0  0  0  0  0  0  0  0
  143.1778  148.7329  132.5512 H   0  0  0  0  0  0  0  0  0  0  0  0
  143.4254  149.7476  131.0777 H   0  0  0  0  0  0  0  0  0  0  0  0
  142.4807  152.1284  135.0774 H   0  0  0  0  0  0  0  0  0  0  0  0
  143.2341  153.2335  135.8716 H   0  0  0  0  0  0  0  0  0  0  0  0
  141.9193  153.5149  132.9307 H   0  0  0  0  0  0  0  0  0  0  0  0
  142.5769  154.8623  133.3541 H   0  0  0  0  0  0  0  0  0  0  0  0
  144.5868  157.2638  132.9629 H   0  0  0  0  0  0  0  0  0  0  0  0
  1  2  1  0
  2  3  2  0
  3  4  1  0
  4  5  2  0
  5  6  1  0
  6  7  2  0
  7  8  1  0
  8  9  1  0
  8 10  2  0
  7 11  1  0
 11 12  1  0
 12 13  2  0
 12 14  1  0
 14 15  1  0
 15 16  2  0
 15 17  1  0
 14 18  1  0
 18 19  1  0
 19 20  2  0
 19 21  1  0
 21 22  1  0
 22 23  1  0
 23 24  1  0
 24 25  1  0
 25 26  1  0
 18 27  1  0
 27 28  1  0
 11 29  1  0
 29 30  2  0
 30  2  1  0
 29  5  1  0
 28 18  1  0
 26 21  1  0
  1 31  1  0
  1 32  1  0
  1 33  1  0
  3 34  1  0
  4 35  1  0
  6 36  1  0
  9 37  1  0
 14 38  1  6
 22 39  1  0
 22 40  1  0
 23 41  1  0
 23 42  1  0
 24 43  1  0
 25 44  1  0
 25 45  1  0
 26 46  1  0
 26 47  1  0
 27 48  1  0
 27 49  1  0
 28 50  1  0
 28 51  1  0
 30 52  1  0
M  CHG  3   9  -1  14   1  17  -1
M  END
>  <UniqueID>  (73) 
72

>  <SMILES>  (73) 
Cc1ccc2cc(C([NH-])=O)n(C(=O)[NH+](C(=O)[O-])C3(C(=O)N4CCNCC4)CC3)c2c1

>  <Energy>  (73) 
378.48045745215813

>  <Genealogy>  (73) 
Cc1ccc2cc(C([NH-])=O)n(C(=O)[NH+](C(=O)[O-])C3(C(=O)N4CCNCC4)CC3)c2c1 (protonated)
Cc1ccc2cc(C([NH-])=O)n(C(=O)[NH+](C(=O)[O-])C3(C(=O)N4CCNCC4)CC3)c2c1 (3D coordinates assigned)
Cc1ccc2cc(C([NH-])=O)n(C(=O)[NH+](C(=O)[O-])C3(C(=O)N4CCNCC4)CC3)c2c1 (nonaromatic ring conformer: 378.48045745215813 kcal/mol)

>  <smiles>  (73) 
Cc1ccc2cc(C(N)=O)n(C(=O)N(C(=O)O)C3(C(=O)N4CCNCC4)CC3)c2c1

>  <score_type>  (73) 
oracle

>  <origin>  (73) 
adg

>  <m_score__min__energy>  (73) 
-8.0299999999999994

>  <m_primary>  (73) 
energy

$$$$
73:0
     RDKit          3D

 35 37  0  0  0  0  0  0  0  0999 V2000
  139.5000  158.0610  133.8850 C   0  0  0  0  0  0  0  0  0  0  0  0
  140.4260  158.6330  134.8690 N   0  0  0  0  0  0  0  0  0  0  0  0
  141.7250  159.0520  134.4050 C   0  0  0  0  0  0  0  0  0  0  0  0
  141.9880  160.4270  134.1850 C   0  0  0  0  0  0  0  0  0  0  0  0
  143.2520  160.8570  133.7530 C   0  0  0  0  0  0  0  0  0  0  0  0
  144.2290  159.8900  133.5320 C   0  0  0  0  0  0  0  0  0  0  0  0
  145.5430  160.0370  133.1500 C   0  0  0  0  0  0  0  0  0  0  0  0
  146.0550  158.7440  133.0970 C   0  0  0  0  0  0  0  0  0  0  0  0
  147.4390  158.4370  132.6890 C   0  0  0  0  0  0  0  0  0  0  0  0
  147.7330  157.2990  131.8780 N   0  0  0  0  0  0  0  0  0  0  0  0
  148.3710  159.2180  133.0170 O   0  0  0  0  0  0  0  0  0  0  0  0
  145.1050  157.8320  133.4470 N   0  0  0  0  0  0  0  0  0  0  0  0
  145.2770  156.4140  133.6230 C   0  0  0  0  0  0  0  0  0  0  0  0
  145.5330  155.6760  132.6340 O   0  0  0  0  0  0  0  0  0  0  0  0
  145.1780  155.8430  134.8860 O   0  0  0  0  0  0  0  0  0  0  0  0
  143.9900  158.5510  133.7110 C   0  0  0  0  0  0  0  0  0  0  0  0
  142.7450  158.0990  134.1690 C   0  0  0  0  0  0  0  0  0  0  0  0
  140.1710  158.4350  136.3090 C   0  0  0  0  0  0  0  0  0  0  0  0
  141.0410  157.3710  136.9510 C   0  0  0  0  0  0  0  0  0  0  0  0
  141.7170  158.3030  137.7580 O   0  0  0  0  0  0  0  0  0  0  0  0
  140.9710  159.3590  137.2040 C   0  0  0  0  0  0  0  0  0  0  0  0
  138.6769  157.5526  134.4084 H   0  0  0  0  0  0  0  0  0  0  0  0
  139.0925  158.8649  133.2544 H   0  0  0  0  0  0  0  0  0  0  0  0
  140.0365  157.3367  133.2544 H   0  0  0  0  0  0  0  0  0  0  0  0
  141.1915  161.1664  134.3550 H   0  0  0  0  0  0  0  0  0  0  0  0
  143.4643  161.9245  133.5940 H   0  0  0  0  0  0  0  0  0  0  0  0
  146.0746  160.9753  132.9331 H   0  0  0  0  0  0  0  0  0  0  0  0
  148.7200  157.0840  131.6210 H   0  0  0  0  0  0  0  0  0  0  0  0
  146.9670  156.7430  131.4350 H   0  0  0  0  0  0  0  0  0  0  0  0
  142.5644  157.0277  134.3413 H   0  0  0  0  0  0  0  0  0  0  0  0
  139.0721  158.3982  136.2760 H   0  0  0  0  0  0  0  0  0  0  0  0
  140.4694  156.6281  137.5267 H   0  0  0  0  0  0  0  0  0  0  0  0
  141.6309  156.7074  136.3017 H   0  0  0  0  0  0  0  0  0  0  0  0
  140.3549  159.8928  137.9426 H   0  0  0  0  0  0  0  0  0  0  0  0
  141.5086  160.2027  136.7467 H   0  0  0  0  0  0  0  0  0  0  0  0
  1  2  1  0
  2  3  1  0
  3  4  2  0
  4  5  1  0
  5  6  2  0
  6  7  1  0
  7  8  2  0
  8  9  1  0
  9 10  1  0
  9 11  2  0
  8 12  1  0
 12 13  1  0
 13 14  2  0
 13 15  1  0
 12 16  1  0
 16 17  2  0
  2 18  1  0
 18 19  1  0
 19 20  1  0
 20 21  1  0
 17  3  1  0
 21 18  1  0
 16  6  1  0
  1 22  1  0
  1 23  1  0
  1 24  1  0
  4 25  1  0
  5 26  1  0
  7 27  1  0
 10 28  1  0
 10 29  1  0
 17 30  1  0
 18 31  1  0
 19 32  1  0
 19 33  1  0
 21 34  1  0
 21 35  1  0
M  CHG  1  15  -1
M  END
>  <UniqueID>  (74) 
73

>  <SMILES>  (74) 
CN(c1ccc2cc(C(N)=O)n(C(=O)[O-])c2c1)C1COC1

>  <Energy>  (74) 
144.00125069415785

>  <Genealogy>  (74) 
CN(c1ccc2cc(C(N)=O)n(C(=O)[O-])c2c1)C1COC1 (protonated)
CN(c1ccc2cc(C(N)=O)n(C(=O)[O-])c2c1)C1COC1 (3D coordinates assigned)
CN(c1ccc2cc(C(N)=O)n(C(=O)[O-])c2c1)C1COC1 (nonaromatic ring conformer: 144.00125069415785 kcal/mol)

>  <smiles>  (74) 
CN(c1ccc2cc(C(N)=O)n(C(=O)O)c2c1)C1COC1

>  <score_type>  (74) 
oracle

>  <origin>  (74) 
adg

>  <m_score__min__energy>  (74) 
-6.3399999999999999

>  <m_primary>  (74) 
energy

$$$$
74:0
     RDKit          3D

 44 46  0  0  0  0  0  0  0  0999 V2000
  140.8720  160.8210  134.1180 H   0  0  0  0  0  0  0  0  0  0  0  0
  141.7250  161.2890  133.7360 N   0  0  0  0  0  0  0  0  0  0  0  0
  142.9900  160.6300  133.7460 C   0  0  0  0  0  0  0  0  0  0  0  0
  144.0390  161.3080  133.9000 O   0  0  0  0  0  0  0  0  0  0  0  0
  143.0590  159.1700  133.5320 C   0  0  0  0  0  0  0  0  0  0  0  0
  144.2570  158.4660  133.4150 C   0  0  0  0  0  0  0  0  0  0  0  0
  145.2746  158.8825  133.3837 H   0  0  0  0  0  0  0  0  0  0  0  0
  143.8960  157.1390  133.3470 C   0  0  0  0  0  0  0  0  0  0  0  0
  144.6860  155.9980  133.2360 C   0  0  0  0  0  0  0  0  0  0  0  0
  145.7825  156.0699  133.1866 H   0  0  0  0  0  0  0  0  0  0  0  0
  144.0390  154.7520  133.1890 C   0  0  0  0  0  0  0  0  0  0  0  0
  144.6344  153.8310  133.1041 H   0  0  0  0  0  0  0  0  0  0  0  0
  142.6270  154.6720  133.2500 C   0  0  0  0  0  0  0  0  0  0  0  0
  141.9810  153.3990  133.2100 N   0  0  0  0  0  0  0  0  0  0  0  0
  140.6100  152.8670  133.3340 C   0  0  0  0  0  0  0  0  0  0  0  0
  139.9329  153.2520  132.5572 H   0  0  0  0  0  0  0  0  0  0  0  0
  140.0582  153.1115  134.2536 H   0  0  0  0  0  0  0  0  0  0  0  0
  140.9790  151.4310  133.1200 C   0  0  0  0  0  0  0  0  0  0  0  0
  140.6862  150.6179  133.8005 H   0  0  0  0  0  0  0  0  0  0  0  0
  140.4890  150.8780  131.8540 N   0  0  0  0  0  0  0  0  0  0  0  0
  140.2000  151.5130  131.0760 H   0  0  0  0  0  0  0  0  0  0  0  0
  140.3310  149.4690  131.6630 C   0  0  0  0  0  0  0  0  0  0  0  0
  140.5670  148.6690  132.6120 O   0  0  0  0  0  0  0  0  0  0  0  0
  139.9060  148.9910  130.4210 O   0  0  0  0  0  0  0  0  0  0  0  0
  139.0990  147.8280  130.2850 C   0  0  0  0  0  0  0  0  0  0  0  0
  138.8344  147.4467  131.2823 H   0  0  0  0  0  0  0  0  0  0  0  0
  138.1813  148.0809  129.7338 H   0  0  0  0  0  0  0  0  0  0  0  0
  139.6571  147.0569  129.7338 H   0  0  0  0  0  0  0  0  0  0  0  0
  142.3630  151.9900  133.0030 C   0  0  0  0  0  0  0  0  0  0  0  0
  142.8104  151.8124  132.0139 H   0  0  0  0  0  0  0  0  0  0  0  0
  143.1292  151.5750  133.6744 H   0  0  0  0  0  0  0  0  0  0  0  0
  141.8570  155.8470  133.3580 C   0  0  0  0  0  0  0  0  0  0  0  0
  140.7585  155.8012  133.3941 H   0  0  0  0  0  0  0  0  0  0  0  0
  142.5270  157.0730  133.4180 C   0  0  0  0  0  0  0  0  0  0  0  0
  141.9980  158.3120  133.5220 N   0  0  0  0  0  0  0  0  0  0  0  0
  140.5970  158.6320  133.5570 C   0  0  0  0  0  0  0  0  0  0  0  0
  140.0430  158.8760  134.6640 O   0  0  0  0  0  0  0  0  0  0  0  0
  139.8040  158.6260  132.3120 C   0  0  0  0  0  0  0  0  0  0  0  0
  139.8104  157.7229  131.6840 H   0  0  0  0  0  0  0  0  0  0  0  0
  139.0770  159.6800  131.9190 C   0  0  0  0  0  0  0  0  0  0  0  0
  139.0648  160.5813  132.5494 H   0  0  0  0  0  0  0  0  0  0  0  0
  138.2940  159.6740  130.6730 C   0  0  0  0  0  0  0  0  0  0  0  0
  138.7510  159.2833  129.7519 H   0  0  0  0  0  0  0  0  0  0  0  0
  137.1110  160.1070  130.6390 O   0  0  0  0  0  0  0  0  0  0  0  0
  1  2  1  0
  2  3  1  0
  3  4  2  0
  3  5  1  0
  5  6  2  0
  6  7  1  0
  6  8  1  0
  8  9  2  0
  9 10  1  0
  9 11  1  0
 11 12  1  0
 11 13  2  0
 13 14  1  0
 14 15  1  0
 15 16  1  0
 15 17  1  0
 15 18  1  0
 18 19  1  0
 18 20  1  0
 20 21  1  0
 20 22  1  0
 22 23  2  0
 22 24  1  0
 24 25  1  0
 25 26  1  0
 25 27  1  0
 25 28  1  0
 18 29  1  0
 29 30  1  0
 29 31  1  0
 13 32  1  0
 32 33  1  0
 32 34  2  0
 34 35  1  0
 35 36  1  0
 36 37  2  0
 36 38  1  0
 38 39  1  0
 38 40  2  0
 40 41  1  0
 40 42  1  0
 42 43  1  0
 42 44  2  0
 35  5  1  0
 34  8  1  0
 29 14  1  0
M  CHG  1   2  -1
M  END
>  <UniqueID>  (75) 
74

>  <SMILES>  (75) 
COC(=O)NC1CN(c2ccc3cc(C([NH-])=O)n(C(=O)/C=C/C=O)c3c2)C1

>  <Energy>  (75) 
123.49207233109156

>  <Genealogy>  (75) 
COC(=O)NC1CN(c2ccc3cc(C([NH-])=O)n(C(=O)C=CC=O)c3c2)C1 (protonated)
COC(=O)NC1CN(c2ccc3cc(C([NH-])=O)n(C(=O)/C=C/C=O)c3c2)C1 (cis-trans isomerization)
COC(=O)NC1CN(c2ccc3cc(C([NH-])=O)n(C(=O)/C=C/C=O)c3c2)C1 (3D coordinates assigned)
COC(=O)NC1CN(c2ccc3cc(C([NH-])=O)n(C(=O)/C=C/C=O)c3c2)C1 (nonaromatic ring conformer: 123.49207233109156 kcal/mol)

>  <smiles>  (75) 
COC(=O)NC1CN(c2ccc3cc(C(N)=O)n(C(=O)C=CC=O)c3c2)C1

>  <score_type>  (75) 
oracle

>  <origin>  (75) 
adg

>  <m_score__min__energy>  (75) 
-8.1099999999999994

>  <m_primary>  (75) 
energy

$$$$
75:0
     RDKit          3D

 36 37  0  0  0  0  0  0  0  0999 V2000
  148.2420  160.8450  131.6920 C   0  0  0  0  0  0  0  0  0  0  0  0
  148.9360  159.5990  131.3540 N   0  0  0  0  0  0  0  0  0  0  0  0
  149.4390  159.3970  129.9900 C   0  0  0  0  0  0  0  0  0  0  0  0
  149.2270  158.5950  132.3530 C   0  0  0  0  0  0  0  0  0  0  0  0
  150.1780  157.7910  132.1530 O   0  0  0  0  0  0  0  0  0  0  0  0
  148.4540  158.4630  133.6140 C   0  0  0  0  0  0  0  0  0  0  0  0
  148.9270  158.8660  134.7100 O   0  0  0  0  0  0  0  0  0  0  0  0
  147.1460  157.8710  133.6000 N   0  0  0  0  0  0  0  0  0  0  0  0
  146.8410  156.5440  133.6160 C   0  0  0  0  0  0  0  0  0  0  0  0
  147.8310  155.4420  133.5610 C   0  0  0  0  0  0  0  0  0  0  0  0
  148.8710  155.4350  132.5810 N   0  0  0  0  0  0  0  0  0  0  0  0
  147.7680  154.4950  134.3910 O   0  0  0  0  0  0  0  0  0  0  0  0
  145.4570  156.3680  133.6440 C   0  0  0  0  0  0  0  0  0  0  0  0
  144.9260  157.6380  133.6560 C   0  0  0  0  0  0  0  0  0  0  0  0
  143.5990  158.0560  133.6960 C   0  0  0  0  0  0  0  0  0  0  0  0
  143.3450  159.4390  133.7290 C   0  0  0  0  0  0  0  0  0  0  0  0
  144.4140  160.3700  133.7350 C   0  0  0  0  0  0  0  0  0  0  0  0
  144.1290  161.8450  133.7410 C   0  0  0  0  0  0  0  0  0  0  0  0
  145.2380  162.5630  134.3760 C   0  0  0  0  0  0  0  0  0  0  0  0
  146.1140  163.1300  134.8780 N   0  0  0  0  0  0  0  0  0  0  0  0
  145.7480  159.9070  133.6830 C   0  0  0  0  0  0  0  0  0  0  0  0
  145.9680  158.5270  133.6350 C   0  0  0  0  0  0  0  0  0  0  0  0
  148.1848  160.9478  132.7857 H   0  0  0  0  0  0  0  0  0  0  0  0
  148.7949  161.6982  131.2720 H   0  0  0  0  0  0  0  0  0  0  0  0
  147.2256  160.8241  131.2720 H   0  0  0  0  0  0  0  0  0  0  0  0
  150.4590  158.9874  130.0323 H   0  0  0  0  0  0  0  0  0  0  0  0
  148.7828  158.6927  129.4578 H   0  0  0  0  0  0  0  0  0  0  0  0
  149.4522  160.3596  129.4578 H   0  0  0  0  0  0  0  0  0  0  0  0
  148.9290  156.1660  131.8380 H   0  0  0  0  0  0  0  0  0  0  0  0
  149.5740  154.6620  132.5720 H   0  0  0  0  0  0  0  0  0  0  0  0
  144.9066  155.4156  133.6543 H   0  0  0  0  0  0  0  0  0  0  0  0
  142.7747  157.3276  133.7016 H   0  0  0  0  0  0  0  0  0  0  0  0
  142.3067  159.8017  133.7504 H   0  0  0  0  0  0  0  0  0  0  0  0
  144.0105  162.1981  132.7060 H   0  0  0  0  0  0  0  0  0  0  0  0
  143.2039  162.0336  134.3055 H   0  0  0  0  0  0  0  0  0  0  0  0
  146.5911  160.6135  133.6804 H   0  0  0  0  0  0  0  0  0  0  0  0
  1  2  1  0
  2  3  1  0
  2  4  1  0
  4  5  2  0
  4  6  1  0
  6  7  2  0
  6  8  1  0
  8  9  1  0
  9 10  1  0
 10 11  1  0
 10 12  2  0
  9 13  2  0
 13 14  1  0
 14 15  2  0
 15 16  1  0
 16 17  2  0
 17 18  1  0
 18 19  1  0
 19 20  3  0
 17 21  1  0
 21 22  2  0
 22  8  1  0
 22 14  1  0
  1 23  1  0
  1 24  1  0
  1 25  1  0
  3 26  1  0
  3 27  1  0
  3 28  1  0
 11 29  1  0
 11 30  1  0
 13 31  1  0
 15 32  1  0
 16 33  1  0
 18 34  1  0
 18 35  1  0
 21 36  1  0
M  END
>  <UniqueID>  (76) 
75

>  <SMILES>  (76) 
CN(C)C(=O)C(=O)n1c(C(N)=O)cc2ccc(CC#N)cc21

>  <Energy>  (76) 
74.08741215622106

>  <Genealogy>  (76) 
CN(C)C(=O)C(=O)n1c(C(N)=O)cc2ccc(CC#N)cc21 (3D coordinates assigned)
CN(C)C(=O)C(=O)n1c(C(N)=O)cc2ccc(CC#N)cc21 (optimized conformer: 74.08741215622106 kcal/mol)

>  <smiles>  (76) 
CN(C)C(=O)C(=O)n1c(C(N)=O)cc2ccc(CC#N)cc21

>  <score_type>  (76) 
oracle

>  <origin>  (76) 
adg

>  <m_score__min__energy>  (76) 
-7.5099999999999998

>  <m_primary>  (76) 
energy

$$$$
76:0
     RDKit          3D

 39 40  0  0  0  0  0  0  0  0999 V2000
  148.5690  157.2920  133.4680 N   0  0  0  0  0  0  0  0  0  0  0  0
  148.0750  158.6290  133.3880 C   0  0  0  0  0  0  0  0  0  0  0  0
  148.8910  159.5860  133.3180 O   0  0  0  0  0  0  0  0  0  0  0  0
  146.6270  158.9140  133.4530 C   0  0  0  0  0  0  0  0  0  0  0  0
  146.1030  160.2010  133.5390 C   0  0  0  0  0  0  0  0  0  0  0  0
  144.7420  160.0320  133.6450 C   0  0  0  0  0  0  0  0  0  0  0  0
  143.7290  160.9810  133.7370 C   0  0  0  0  0  0  0  0  0  0  0  0
  142.4010  160.5260  133.7900 C   0  0  0  0  0  0  0  0  0  0  0  0
  142.1090  159.1390  133.7600 C   0  0  0  0  0  0  0  0  0  0  0  0
  140.6800  158.6580  133.7540 C   0  0  0  0  0  0  0  0  0  0  0  0
  140.6010  157.3480  133.3110 F   0  0  0  0  0  0  0  0  0  0  0  0
  139.9070  159.4450  132.9170 F   0  0  0  0  0  0  0  0  0  0  0  0
  140.1700  158.7300  135.0380 F   0  0  0  0  0  0  0  0  0  0  0  0
  143.1650  158.2070  133.6390 C   0  0  0  0  0  0  0  0  0  0  0  0
  144.4810  158.6860  133.6100 C   0  0  0  0  0  0  0  0  0  0  0  0
  145.6300  157.9840  133.4870 N   0  0  0  0  0  0  0  0  0  0  0  0
  145.7520  156.5630  133.3130 C   0  0  0  0  0  0  0  0  0  0  0  0
  146.3280  156.1000  132.2900 O   0  0  0  0  0  0  0  0  0  0  0  0
  145.2260  155.6960  134.2750 O   0  0  0  0  0  0  0  0  0  0  0  0
  146.0330  154.7990  135.0300 C   0  0  0  0  0  0  0  0  0  0  0  0
  147.3100  154.6720  134.4120 O   0  0  0  0  0  0  0  0  0  0  0  0
  148.1010  153.5260  134.5380 C   0  0  0  0  0  0  0  0  0  0  0  0
  148.4490  153.1040  135.6750 O   0  0  0  0  0  0  0  0  0  0  0  0
  148.4930  152.7640  133.3130 C   0  0  0  0  0  0  0  0  0  0  0  0
  149.1830  153.6820  132.3080 C   0  0  0  0  0  0  0  0  0  0  0  0
  149.2270  154.9850  132.8200 O   0  0  0  0  0  0  0  0  0  0  0  0
  147.9340  156.4950  133.6950 H   0  0  0  0  0  0  0  0  0  0  0  0
  149.5930  157.1050  133.3790 H   0  0  0  0  0  0  0  0  0  0  0  0
  146.6587  161.1502  133.5251 H   0  0  0  0  0  0  0  0  0  0  0  0
  143.9610  162.0558  133.7673 H   0  0  0  0  0  0  0  0  0  0  0  0
  141.5788  161.2538  133.8555 H   0  0  0  0  0  0  0  0  0  0  0  0
  142.9577  157.1290  133.5692 H   0  0  0  0  0  0  0  0  0  0  0  0
  146.1573  155.1888  136.0511 H   0  0  0  0  0  0  0  0  0  0  0  0
  145.5460  153.8135  135.0697 H   0  0  0  0  0  0  0  0  0  0  0  0
  149.1820  151.9545  133.5957 H   0  0  0  0  0  0  0  0  0  0  0  0
  147.5868  152.3473  132.8491 H   0  0  0  0  0  0  0  0  0  0  0  0
  150.2074  153.3241  132.1275 H   0  0  0  0  0  0  0  0  0  0  0  0
  148.6215  153.6783  131.3621 H   0  0  0  0  0  0  0  0  0  0  0  0
  148.3310  155.3770  132.6500 H   0  0  0  0  0  0  0  0  0  0  0  0
  1  2  1  0
  2  3  2  0
  2  4  1  0
  4  5  2  0
  5  6  1  0
  6  7  2  0
  7  8  1  0
  8  9  2  0
  9 10  1  0
 10 11  1  0
 10 12  1  0
 10 13  1  0
  9 14  1  0
 14 15  2  0
 15 16  1  0
 16 17  1  0
 17 18  2  0
 17 19  1  0
 19 20  1  0
 20 21  1  0
 21 22  1  0
 22 23  2  0
 22 24  1  0
 24 25  1  0
 25 26  1  0
 16  4  1  0
 15  6  1  0
  1 27  1  0
  1 28  1  0
  5 29  1  0
  7 30  1  0
  8 31  1  0
 14 32  1  0
 20 33  1  0
 20 34  1  0
 24 35  1  0
 24 36  1  0
 25 37  1  0
 25 38  1  0
 26 39  1  0
M  END
>  <UniqueID>  (77) 
76

>  <SMILES>  (77) 
NC(=O)c1cc2ccc(C(F)(F)F)cc2n1C(=O)OCOC(=O)CCO

>  <Energy>  (77) 
70.81533165494513

>  <Genealogy>  (77) 
NC(=O)c1cc2ccc(C(F)(F)F)cc2n1C(=O)OCOC(=O)CCO (3D coordinates assigned)
NC(=O)c1cc2ccc(C(F)(F)F)cc2n1C(=O)OCOC(=O)CCO (optimized conformer: 70.81533165494513 kcal/mol)

>  <smiles>  (77) 
NC(=O)c1cc2ccc(C(F)(F)F)cc2n1C(=O)OCOC(=O)CCO

>  <score_type>  (77) 
oracle

>  <origin>  (77) 
adg

>  <m_score__min__energy>  (77) 
-5.3099999999999996

>  <m_primary>  (77) 
energy

$$$$
77:0
     RDKit          3D

 42 43  0  0  0  0  0  0  0  0999 V2000
  139.0440  157.4680  133.6590 C   0  0  0  0  0  0  0  0  0  0  0  0
  140.4200  157.7740  134.2910 C   0  0  2  0  0  0  0  0  0  0  0  0
  140.2420  158.3250  135.7240 C   0  0  0  0  0  0  0  0  0  0  0  0
  141.4160  158.9710  136.1380 O   0  0  0  0  0  0  0  0  0  0  0  0
  141.2770  158.6680  133.4570 N   0  0  2  0  0  0  0  0  0  0  0  0
  140.5860  159.2570  132.2900 C   0  0  0  0  0  0  0  0  0  0  0  0
  142.4910  157.9840  133.0470 C   0  0  0  0  0  0  0  0  0  0  0  0
  142.5750  157.4640  131.8990 O   0  0  0  0  0  0  0  0  0  0  0  0
  143.6260  157.8280  133.9820 C   0  0  0  0  0  0  0  0  0  0  0  0
  143.5170  157.0750  134.9870 O   0  0  0  0  0  0  0  0  0  0  0  0
  144.8600  158.5230  133.7520 N   0  0  0  0  0  0  0  0  0  0  0  0
  145.0530  159.8700  133.6700 C   0  0  0  0  0  0  0  0  0  0  0  0
  144.0320  160.9070  133.9300 C   0  0  0  0  0  0  0  0  0  0  0  0
  142.7440  160.5620  134.4340 N   0  0  0  0  0  0  0  0  0  0  0  0
  144.3090  162.1200  133.7300 O   0  0  0  0  0  0  0  0  0  0  0  0
  146.3810  160.1520  133.3560 C   0  0  0  0  0  0  0  0  0  0  0  0
  146.9980  158.9260  133.2430 C   0  0  0  0  0  0  0  0  0  0  0  0
  148.3200  158.6100  132.9420 C   0  0  0  0  0  0  0  0  0  0  0  0
  148.6730  157.2520  132.8720 C   0  0  0  0  0  0  0  0  0  0  0  0
  147.7020  156.2370  133.0770 C   0  0  0  0  0  0  0  0  0  0  0  0
  148.1000  154.7830  133.0390 C   0  0  0  0  0  0  0  0  0  0  0  0
  147.0660  154.0070  132.5440 F   0  0  0  0  0  0  0  0  0  0  0  0
  148.4060  154.3630  134.3200 F   0  0  0  0  0  0  0  0  0  0  0  0
  149.2060  154.6010  132.2280 F   0  0  0  0  0  0  0  0  0  0  0  0
  146.3740  156.6000  133.4030 C   0  0  0  0  0  0  0  0  0  0  0  0
  146.0570  157.9610  133.4830 C   0  0  0  0  0  0  0  0  0  0  0  0
  138.3032  157.3033  134.4553 H   0  0  0  0  0  0  0  0  0  0  0  0
  138.7295  158.3182  133.0358 H   0  0  0  0  0  0  0  0  0  0  0  0
  139.1195  156.5647  133.0358 H   0  0  0  0  0  0  0  0  0  0  0  0
  140.9644  156.8195  134.3421 H   0  0  0  0  0  0  0  0  0  0  0  0
  139.4075  159.0415  135.7379 H   0  0  0  0  0  0  0  0  0  0  0  0
  140.0282  157.4906  136.4081 H   0  0  0  0  0  0  0  0  0  0  0  0
  142.1250  158.6930  135.5000 H   0  0  0  0  0  0  0  0  0  0  0  0
  141.5710  159.4800  134.0500 H   0  0  0  0  0  0  0  0  0  0  0  0
  139.7917  159.9341  132.6374 H   0  0  0  0  0  0  0  0  0  0  0  0
  141.3087  159.8211  131.6822 H   0  0  0  0  0  0  0  0  0  0  0  0
  140.1435  158.4541  131.6822 H   0  0  0  0  0  0  0  0  0  0  0  0
  142.5740  159.6370  134.8870 H   0  0  0  0  0  0  0  0  0  0  0  0
  146.8393  161.1435  133.2260 H   0  0  0  0  0  0  0  0  0  0  0  0
  149.0653  159.3994  132.7645 H   0  0  0  0  0  0  0  0  0  0  0  0
  149.7145  156.9718  132.6557 H   0  0  0  0  0  0  0  0  0  0  0  0
  145.6093  155.8315  133.5890 H   0  0  0  0  0  0  0  0  0  0  0  0
  1  2  1  0
  2  3  1  0
  3  4  1  0
  2  5  1  0
  5  6  1  0
  5  7  1  0
  7  8  2  0
  7  9  1  0
  9 10  2  0
  9 11  1  0
 11 12  1  0
 12 13  1  0
 13 14  1  0
 13 15  2  0
 12 16  2  0
 16 17  1  0
 17 18  2  0
 18 19  1  0
 19 20  2  0
 20 21  1  0
 21 22  1  0
 21 23  1  0
 21 24  1  0
 20 25  1  0
 25 26  2  0
 26 11  1  0
 26 17  1  0
  1 27  1  0
  1 28  1  0
  1 29  1  0
  2 30  1  1
  3 31  1  0
  3 32  1  0
  4 33  1  0
  5 34  1  1
  6 35  1  0
  6 36  1  0
  6 37  1  0
 14 38  1  0
 16 39  1  0
 18 40  1  0
 19 41  1  0
 25 42  1  0
M  CHG  2   5   1  14  -1
M  END
>  <UniqueID>  (78) 
77

>  <SMILES>  (78) 
C[C@H](CO)[N@H+](C)C(=O)C(=O)n1c(C([NH-])=O)cc2ccc(C(F)(F)F)cc21

>  <Energy>  (78) 
86.00489841140316

>  <Genealogy>  (78) 
CC(CO)[NH+](C)C(=O)C(=O)n1c(C([NH-])=O)cc2ccc(C(F)(F)F)cc21 (protonated)
C[C@H](CO)[N@H+](C)C(=O)C(=O)n1c(C([NH-])=O)cc2ccc(C(F)(F)F)cc21 (chirality)
C[C@H](CO)[N@H+](C)C(=O)C(=O)n1c(C([NH-])=O)cc2ccc(C(F)(F)F)cc21 (3D coordinates assigned)
C[C@H](CO)[N@H+](C)C(=O)C(=O)n1c(C([NH-])=O)cc2ccc(C(F)(F)F)cc21 (optimized conformer: 86.00489841140316 kcal/mol)

>  <smiles>  (78) 
CC(CO)N(C)C(=O)C(=O)n1c(C(N)=O)cc2ccc(C(F)(F)F)cc21

>  <score_type>  (78) 
oracle

>  <origin>  (78) 
adg

>  <m_score__min__energy>  (78) 
-5.2000000000000002

>  <m_primary>  (78) 
energy

$$$$
78:0
     RDKit          3D

 37 38  0  0  0  0  0  0  0  0999 V2000
  140.7420  155.2330  139.3400 C   0  0  0  0  0  0  0  0  0  0  0  0
  140.3870  156.0700  138.2480 O   0  0  0  0  0  0  0  0  0  0  0  0
  141.3260  156.8220  137.5340 C   0  0  0  0  0  0  0  0  0  0  0  0
  142.1490  156.2590  136.7600 O   0  0  0  0  0  0  0  0  0  0  0  0
  141.3520  158.3080  137.6980 C   0  0  0  0  0  0  0  0  0  0  0  0
  141.1010  158.9350  136.4440 O   0  0  0  0  0  0  0  0  0  0  0  0
  140.1310  158.4780  135.5450 C   0  0  0  0  0  0  0  0  0  0  0  0
  138.9540  158.2380  135.9320 O   0  0  0  0  0  0  0  0  0  0  0  0
  140.4720  158.3800  134.0940 C   0  0  0  0  0  0  0  0  0  0  0  0
  141.8220  158.9990  133.8670 C   0  0  0  0  0  0  0  0  0  0  0  0
  141.9650  160.4070  133.8360 C   0  0  0  0  0  0  0  0  0  0  0  0
  143.2360  160.9960  133.7330 C   0  0  0  0  0  0  0  0  0  0  0  0
  144.3420  160.1540  133.6660 C   0  0  0  0  0  0  0  0  0  0  0  0
  145.6820  160.4600  133.6290 C   0  0  0  0  0  0  0  0  0  0  0  0
  146.3380  159.2330  133.6160 C   0  0  0  0  0  0  0  0  0  0  0  0
  147.8060  159.0990  133.5270 C   0  0  0  0  0  0  0  0  0  0  0  0
  148.4970  158.0610  134.2230 N   0  0  0  0  0  0  0  0  0  0  0  0
  148.4550  159.8810  132.7810 O   0  0  0  0  0  0  0  0  0  0  0  0
  145.4440  158.2060  133.6570 N   0  0  0  0  0  0  0  0  0  0  0  0
  145.7330  156.8040  133.8000 C   0  0  0  0  0  0  0  0  0  0  0  0
  145.2900  155.9720  132.9660 O   0  0  0  0  0  0  0  0  0  0  0  0
  146.4980  156.3520  134.8680 O   0  0  0  0  0  0  0  0  0  0  0  0
  144.2220  158.7880  133.6810 C   0  0  0  0  0  0  0  0  0  0  0  0
  142.9690  158.1760  133.7990 C   0  0  0  0  0  0  0  0  0  0  0  0
  140.5224  155.7508  140.2854 H   0  0  0  0  0  0  0  0  0  0  0  0
  140.1624  154.2994  139.2900 H   0  0  0  0  0  0  0  0  0  0  0  0
  141.8161  155.0008  139.2900 H   0  0  0  0  0  0  0  0  0  0  0  0
  140.5778  158.6097  138.4189 H   0  0  0  0  0  0  0  0  0  0  0  0
  142.3414  158.6160  138.0671 H   0  0  0  0  0  0  0  0  0  0  0  0
  140.4951  157.3228  133.7910 H   0  0  0  0  0  0  0  0  0  0  0  0
  139.7148  158.9096  133.4972 H   0  0  0  0  0  0  0  0  0  0  0  0
  141.0717  161.0463  133.8931 H   0  0  0  0  0  0  0  0  0  0  0  0
  143.3535  162.0894  133.7061 H   0  0  0  0  0  0  0  0  0  0  0  0
  146.1380  161.4609  133.6131 H   0  0  0  0  0  0  0  0  0  0  0  0
  147.9760  157.3020  134.7130 H   0  0  0  0  0  0  0  0  0  0  0  0
  149.5390  158.0030  134.1770 H   0  0  0  0  0  0  0  0  0  0  0  0
  142.8789  157.0804  133.8379 H   0  0  0  0  0  0  0  0  0  0  0  0
  1  2  1  0
  2  3  1  0
  3  4  2  0
  3  5  1  0
  5  6  1  0
  6  7  1  0
  7  8  2  0
  7  9  1  0
  9 10  1  0
 10 11  2  0
 11 12  1  0
 12 13  2  0
 13 14  1  0
 14 15  2  0
 15 16  1  0
 16 17  1  0
 16 18  2  0
 15 19  1  0
 19 20  1  0
 20 21  2  0
 20 22  1  0
 19 23  1  0
 23 24  2  0
 24 10  1  0
 23 13  1  0
  1 25  1  0
  1 26  1  0
  1 27  1  0
  5 28  1  0
  5 29  1  0
  9 30  1  0
  9 31  1  0
 11 32  1  0
 12 33  1  0
 14 34  1  0
 17 35  1  0
 17 36  1  0
 24 37  1  0
M  CHG  1  22  -1
M  END
>  <UniqueID>  (79) 
78

>  <SMILES>  (79) 
COC(=O)COC(=O)Cc1ccc2cc(C(N)=O)n(C(=O)[O-])c2c1

>  <Energy>  (79) 
68.34560439708625

>  <Genealogy>  (79) 
COC(=O)COC(=O)Cc1ccc2cc(C(N)=O)n(C(=O)[O-])c2c1 (protonated)
COC(=O)COC(=O)Cc1ccc2cc(C(N)=O)n(C(=O)[O-])c2c1 (3D coordinates assigned)
COC(=O)COC(=O)Cc1ccc2cc(C(N)=O)n(C(=O)[O-])c2c1 (optimized conformer: 68.34560439708625 kcal/mol)

>  <smiles>  (79) 
COC(=O)COC(=O)Cc1ccc2cc(C(N)=O)n(C(=O)O)c2c1

>  <score_type>  (79) 
oracle

>  <origin>  (79) 
adg

>  <m_score__min__energy>  (79) 
-6.1399999999999997

>  <m_primary>  (79) 
energy

$$$$
79:0
     RDKit          3D

 34 35  0  0  0  0  0  0  0  0999 V2000
  142.0760  158.7750  134.4970 C   0  0  0  0  0  0  0  0  0  0  0  0
  143.4380  159.2270  134.0660 C   0  0  0  0  0  0  0  0  0  0  0  0
  143.7710  160.6040  134.0950 C   0  0  0  0  0  0  0  0  0  0  0  0
  145.0610  161.0360  133.7420 C   0  0  0  0  0  0  0  0  0  0  0  0
  145.9920  160.0710  133.3680 C   0  0  0  0  0  0  0  0  0  0  0  0
  147.3160  160.2080  133.0170 C   0  0  0  0  0  0  0  0  0  0  0  0
  147.7680  158.9130  132.7700 C   0  0  0  0  0  0  0  0  0  0  0  0
  149.1300  158.6050  132.2860 C   0  0  0  0  0  0  0  0  0  0  0  0
  149.6030  157.2620  132.2330 N   0  0  0  0  0  0  0  0  0  0  0  0
  149.8690  159.5370  131.8690 O   0  0  0  0  0  0  0  0  0  0  0  0
  146.7660  158.0110  132.9690 N   0  0  0  0  0  0  0  0  0  0  0  0
  146.8510  156.5790  132.9200 C   0  0  0  0  0  0  0  0  0  0  0  0
  147.2080  156.0060  131.8540 O   0  0  0  0  0  0  0  0  0  0  0  0
  146.5150  155.8260  134.0510 O   0  0  0  0  0  0  0  0  0  0  0  0
  147.3710  155.6820  135.1830 C   0  0  0  0  0  0  0  0  0  0  0  0
  147.7190  154.2140  135.4170 C   0  0  0  0  0  0  0  0  0  0  0  0
  147.0220  153.7430  136.5420 O   0  0  0  0  0  0  0  0  0  0  0  0
  148.1670  153.5520  137.7970 S   0  0  0  0  0  0  0  0  0  0  0  0
  148.2350  152.0430  137.9830 O   0  0  0  0  0  0  0  0  0  0  0  0
  147.3270  154.0870  139.1770 O   0  0  0  0  0  0  0  0  0  0  0  0
  145.6850  158.7350  133.3320 C   0  0  0  0  0  0  0  0  0  0  0  0
  144.4140  158.2750  133.6980 C   0  0  0  0  0  0  0  0  0  0  0  0
  142.0258  158.7583  135.5957 H   0  0  0  0  0  0  0  0  0  0  0  0
  141.3182  159.4698  134.1058 H   0  0  0  0  0  0  0  0  0  0  0  0
  141.8840  157.7650  134.1058 H   0  0  0  0  0  0  0  0  0  0  0  0
  143.0128  161.3417  134.3966 H   0  0  0  0  0  0  0  0  0  0  0  0
  145.3267  162.1033  133.7607 H   0  0  0  0  0  0  0  0  0  0  0  0
  147.8942  161.1411  132.9465 H   0  0  0  0  0  0  0  0  0  0  0  0
  149.2420  156.5930  131.5170 H   0  0  0  0  0  0  0  0  0  0  0  0
  148.2975  156.2488  135.0088 H   0  0  0  0  0  0  0  0  0  0  0  0
  146.8481  156.0661  136.0713 H   0  0  0  0  0  0  0  0  0  0  0  0
  147.4326  153.6237  134.5341 H   0  0  0  0  0  0  0  0  0  0  0  0
  148.8012  154.1155  135.5874 H   0  0  0  0  0  0  0  0  0  0  0  0
  144.1818  157.1998  133.6988 H   0  0  0  0  0  0  0  0  0  0  0  0
  1  2  1  0
  2  3  2  0
  3  4  1  0
  4  5  2  0
  5  6  1  0
  6  7  2  0
  7  8  1  0
  8  9  1  0
  8 10  2  0
  7 11  1  0
 11 12  1  0
 12 13  2  0
 12 14  1  0
 14 15  1  0
 15 16  1  0
 16 17  1  0
 17 18  1  0
 18 19  2  0
 18 20  1  1
 11 21  1  0
 21 22  2  0
 22  2  1  0
 21  5  1  0
  1 23  1  0
  1 24  1  0
  1 25  1  0
  3 26  1  0
  4 27  1  0
  6 28  1  0
  9 29  1  0
 15 30  1  0
 15 31  1  0
 16 32  1  0
 16 33  1  0
 22 34  1  0
M  CHG  2   9  -1  20  -1
M  END
>  <UniqueID>  (80) 
79

>  <SMILES>  (80) 
Cc1ccc2cc(C([NH-])=O)n(C(=O)OCCO[S@](=O)[O-])c2c1

>  <Energy>  (80) 
68.47122973824919

>  <Genealogy>  (80) 
Cc1ccc2cc(C([NH-])=O)n(C(=O)OCCOS(=O)[O-])c2c1 (protonated)
Cc1ccc2cc(C([NH-])=O)n(C(=O)OCCO[S@](=O)[O-])c2c1 (chirality)
Cc1ccc2cc(C([NH-])=O)n(C(=O)OCCO[S@](=O)[O-])c2c1 (3D coordinates assigned)
Cc1ccc2cc(C([NH-])=O)n(C(=O)OCCO[S@](=O)[O-])c2c1 (optimized conformer: 68.47122973824919 kcal/mol)

>  <smiles>  (80) 
Cc1ccc2cc(C(N)=O)n(C(=O)OCCOS(=O)O)c2c1

>  <score_type>  (80) 
oracle

>  <origin>  (80) 
adg

>  <m_score__min__energy>  (80) 
-6.5199999999999996

>  <m_primary>  (80) 
energy

$$$$
80:0
     RDKit          3D

 42 43  0  0  0  0  0  0  0  0999 V2000
  141.3900  156.9700  137.5330 C   0  0  0  0  0  0  0  0  0  0  0  0
  140.3290  157.6260  137.0690 C   0  0  0  0  0  0  0  0  0  0  0  0
  140.4410  158.6630  136.0330 C   0  0  0  0  0  0  0  0  0  0  0  0
  141.2840  159.5890  136.1790 O   0  0  0  0  0  0  0  0  0  0  0  0
  139.6220  158.6220  134.8990 O   0  0  0  0  0  0  0  0  0  0  0  0
  139.9350  159.3220  133.6990 C   0  0  0  0  0  0  0  0  0  0  0  0
  139.5090  158.4860  132.4970 C   0  0  0  0  0  0  0  0  0  0  0  0
  140.2580  157.2730  132.4360 O   0  0  0  0  0  0  0  0  0  0  0  0
  141.3410  156.9920  133.2770 C   0  0  0  0  0  0  0  0  0  0  0  0
  141.2060  156.1940  134.2440 O   0  0  0  0  0  0  0  0  0  0  0  0
  142.6020  157.6230  133.0200 N   0  0  0  0  0  0  0  0  0  0  0  0
  143.7900  157.4000  133.7940 C   0  0  0  0  0  0  0  0  0  0  0  0
  143.8110  156.5190  134.6970 O   0  0  0  0  0  0  0  0  0  0  0  0
  144.9640  158.1860  133.5450 N   0  0  0  0  0  0  0  0  0  0  0  0
  145.0600  159.5430  133.4550 C   0  0  0  0  0  0  0  0  0  0  0  0
  143.9780  160.5100  133.7350 C   0  0  0  0  0  0  0  0  0  0  0  0
  142.6190  160.1960  133.4450 N   0  0  0  0  0  0  0  0  0  0  0  0
  144.2530  161.6160  134.2720 O   0  0  0  0  0  0  0  0  0  0  0  0
  146.3600  159.9180  133.1190 C   0  0  0  0  0  0  0  0  0  0  0  0
  147.0630  158.7400  133.0090 C   0  0  0  0  0  0  0  0  0  0  0  0
  148.3980  158.5200  132.6770 C   0  0  0  0  0  0  0  0  0  0  0  0
  148.8470  157.1900  132.6020 C   0  0  0  0  0  0  0  0  0  0  0  0
  147.9590  156.1130  132.8520 C   0  0  0  0  0  0  0  0  0  0  0  0
  148.4390  154.6930  132.7530 C   0  0  0  0  0  0  0  0  0  0  0  0
  148.3580  154.0880  133.9940 F   0  0  0  0  0  0  0  0  0  0  0  0
  149.7510  154.6710  132.3180 F   0  0  0  0  0  0  0  0  0  0  0  0
  146.6120  156.3760  133.1810 C   0  0  0  0  0  0  0  0  0  0  0  0
  146.1980  157.7100  133.2680 C   0  0  0  0  0  0  0  0  0  0  0  0
  141.2648  156.2004  138.3090 H   0  0  0  0  0  0  0  0  0  0  0  0
  142.3921  157.1974  137.1406 H   0  0  0  0  0  0  0  0  0  0  0  0
  139.3353  157.3842  137.4741 H   0  0  0  0  0  0  0  0  0  0  0  0
  139.4003  160.2832  133.6851 H   0  0  0  0  0  0  0  0  0  0  0  0
  141.0188  159.5046  133.6531 H   0  0  0  0  0  0  0  0  0  0  0  0
  138.4391  158.2458  132.5850 H   0  0  0  0  0  0  0  0  0  0  0  0
  139.6960  159.0639  131.5799 H   0  0  0  0  0  0  0  0  0  0  0  0
  142.6560  158.2860  132.2150 H   0  0  0  0  0  0  0  0  0  0  0  0
  142.0140  159.7200  134.1510 H   0  0  0  0  0  0  0  0  0  0  0  0
  146.7427  160.9389  132.9728 H   0  0  0  0  0  0  0  0  0  0  0  0
  149.0794  159.3607  132.4797 H   0  0  0  0  0  0  0  0  0  0  0  0
  149.8968  156.9828  132.3471 H   0  0  0  0  0  0  0  0  0  0  0  0
  147.8073  154.1488  132.0355 H   0  0  0  0  0  0  0  0  0  0  0  0
  145.9054  155.5532  133.3644 H   0  0  0  0  0  0  0  0  0  0  0  0
  1  2  2  0
  2  3  1  0
  3  4  2  0
  3  5  1  0
  5  6  1  0
  6  7  1  0
  7  8  1  0
  8  9  1  0
  9 10  2  0
  9 11  1  0
 11 12  1  0
 12 13  2  0
 12 14  1  0
 14 15  1  0
 15 16  1  0
 16 17  1  0
 16 18  2  0
 15 19  2  0
 19 20  1  0
 20 21  2  0
 21 22  1  0
 22 23  2  0
 23 24  1  0
 24 25  1  0
 24 26  1  0
 23 27  1  0
 27 28  2  0
 28 14  1  0
 28 20  1  0
  1 29  1  0
  1 30  1  0
  2 31  1  0
  6 32  1  0
  6 33  1  0
  7 34  1  0
  7 35  1  0
 11 36  1  0
 17 37  1  0
 19 38  1  0
 21 39  1  0
 22 40  1  0
 24 41  1  0
 27 42  1  0
M  CHG  1  17  -1
M  END
>  <UniqueID>  (81) 
80

>  <SMILES>  (81) 
C=CC(=O)OCCOC(=O)NC(=O)n1c(C([NH-])=O)cc2ccc(C(F)F)cc21

>  <Energy>  (81) 
73.10469487442725

>  <Genealogy>  (81) 
C=CC(=O)OCCOC(=O)NC(=O)n1c(C([NH-])=O)cc2ccc(C(F)F)cc21 (protonated)
C=CC(=O)OCCOC(=O)NC(=O)n1c(C([NH-])=O)cc2ccc(C(F)F)cc21 (3D coordinates assigned)
C=CC(=O)OCCOC(=O)NC(=O)n1c(C([NH-])=O)cc2ccc(C(F)F)cc21 (optimized conformer: 73.10469487442725 kcal/mol)

>  <smiles>  (81) 
C=CC(=O)OCCOC(=O)NC(=O)n1c(C(N)=O)cc2ccc(C(F)F)cc21

>  <score_type>  (81) 
oracle

>  <origin>  (81) 
adg

>  <m_score__min__energy>  (81) 
-6.1299999999999999

>  <m_primary>  (81) 
energy

$$$$
81:0
     RDKit          3D

 42 43  0  0  0  0  0  0  0  0999 V2000
  141.2750  158.9950  137.4850 C   0  0  0  0  0  0  0  0  0  0  0  0
  140.9580  159.7220  136.2630 N   0  0  0  0  0  0  0  0  0  0  0  0
  141.2690  159.2700  134.9390 C   0  0  0  0  0  0  0  0  0  0  0  0
  140.6400  159.7660  133.9670 O   0  0  0  0  0  0  0  0  0  0  0  0
  142.3360  158.2450  134.6710 C   0  0  0  0  0  0  0  0  0  0  0  0
  143.5990  158.8990  134.1790 C   0  0  0  0  0  0  0  0  0  0  0  0
  143.6810  160.3130  134.0960 C   0  0  0  0  0  0  0  0  0  0  0  0
  144.8580  160.9380  133.6500 C   0  0  0  0  0  0  0  0  0  0  0  0
  145.9300  160.1290  133.2880 C   0  0  0  0  0  0  0  0  0  0  0  0
  147.1920  160.4660  132.8530 C   0  0  0  0  0  0  0  0  0  0  0  0
  147.8530  159.2550  132.6610 C   0  0  0  0  0  0  0  0  0  0  0  0
  149.2420  159.1380  132.1670 C   0  0  0  0  0  0  0  0  0  0  0  0
  149.8060  157.8500  131.9320 N   0  0  0  0  0  0  0  0  0  0  0  0
  149.9410  160.1640  131.9620 O   0  0  0  0  0  0  0  0  0  0  0  0
  147.0290  158.2110  132.9560 N   0  0  0  0  0  0  0  0  0  0  0  0
  147.3480  156.8130  132.9410 C   0  0  0  0  0  0  0  0  0  0  0  0
  147.3230  156.1920  131.8460 O   0  0  0  0  0  0  0  0  0  0  0  0
  147.7280  156.1210  134.1940 C   0  0  0  0  0  0  0  0  0  0  0  0
  148.4270  156.7450  135.0400 O   0  0  0  0  0  0  0  0  0  0  0  0
  147.3420  154.7580  134.4700 N   0  0  0  0  0  0  0  0  0  0  0  0
  147.9180  153.6860  133.6550 C   0  0  0  0  0  0  0  0  0  0  0  0
  146.4740  154.4090  135.6030 C   0  0  0  0  0  0  0  0  0  0  0  0
  147.2640  153.7910  136.7170 C   0  0  0  0  0  0  0  0  0  0  0  0
  146.9770  152.6330  137.1180 O   0  0  0  0  0  0  0  0  0  0  0  0
  148.3420  154.4630  137.2820 O   0  0  0  0  0  0  0  0  0  0  0  0
  145.8600  158.7620  133.3440 C   0  0  0  0  0  0  0  0  0  0  0  0
  144.7070  158.1110  133.7950 C   0  0  0  0  0  0  0  0  0  0  0  0
  141.0071  159.6094  138.3572 H   0  0  0  0  0  0  0  0  0  0  0  0
  140.7053  158.0543  137.5103 H   0  0  0  0  0  0  0  0  0  0  0  0
  142.3519  158.7723  137.5103 H   0  0  0  0  0  0  0  0  0  0  0  0
  142.5522  157.6989  135.6011 H   0  0  0  0  0  0  0  0  0  0  0  0
  141.9729  157.5549  133.8952 H   0  0  0  0  0  0  0  0  0  0  0  0
  142.8144  160.9264  134.3837 H   0  0  0  0  0  0  0  0  0  0  0  0
  144.9294  162.0340  133.5890 H   0  0  0  0  0  0  0  0  0  0  0  0
  147.5933  161.4773  132.6913 H   0  0  0  0  0  0  0  0  0  0  0  0
  149.2550  157.1000  131.4590 H   0  0  0  0  0  0  0  0  0  0  0  0
  148.3353  152.9093  134.3127 H   0  0  0  0  0  0  0  0  0  0  0  0
  147.1345  153.2467  133.0201 H   0  0  0  0  0  0  0  0  0  0  0  0
  148.7168  154.0969  133.0201 H   0  0  0  0  0  0  0  0  0  0  0  0
  145.9828  155.3208  135.9736 H   0  0  0  0  0  0  0  0  0  0  0  0
  145.7258  153.6799  135.2586 H   0  0  0  0  0  0  0  0  0  0  0  0
  144.6640  157.0132  133.8493 H   0  0  0  0  0  0  0  0  0  0  0  0
  1  2  1  0
  2  3  1  0
  3  4  2  0
  3  5  1  0
  5  6  1  0
  6  7  2  0
  7  8  1  0
  8  9  2  0
  9 10  1  0
 10 11  2  0
 11 12  1  0
 12 13  1  0
 12 14  2  0
 11 15  1  0
 15 16  1  0
 16 17  2  0
 16 18  1  0
 18 19  2  0
 18 20  1  0
 20 21  1  0
 20 22  1  0
 22 23  1  0
 23 24  2  0
 23 25  1  0
 15 26  1  0
 26 27  2  0
 27  6  1  0
 26  9  1  0
  1 28  1  0
  1 29  1  0
  1 30  1  0
  5 31  1  0
  5 32  1  0
  7 33  1  0
  8 34  1  0
 10 35  1  0
 13 36  1  0
 21 37  1  0
 21 38  1  0
 21 39  1  0
 22 40  1  0
 22 41  1  0
 27 42  1  0
M  CHG  3   2  -1  13  -1  25  -1
M  END
>  <UniqueID>  (82) 
81

>  <SMILES>  (82) 
C[N-]C(=O)Cc1ccc2cc(C([NH-])=O)n(C(=O)C(=O)N(C)CC(=O)[O-])c2c1

>  <Energy>  (82) 
78.50609387176037

>  <Genealogy>  (82) 
C[N-]C(=O)Cc1ccc2cc(C([NH-])=O)n(C(=O)C(=O)N(C)CC(=O)[O-])c2c1 (protonated)
C[N-]C(=O)Cc1ccc2cc(C([NH-])=O)n(C(=O)C(=O)N(C)CC(=O)[O-])c2c1 (3D coordinates assigned)
C[N-]C(=O)Cc1ccc2cc(C([NH-])=O)n(C(=O)C(=O)N(C)CC(=O)[O-])c2c1 (optimized conformer: 78.50609387176037 kcal/mol)

>  <smiles>  (82) 
CNC(=O)Cc1ccc2cc(C(N)=O)n(C(=O)C(=O)N(C)CC(=O)O)c2c1

>  <score_type>  (82) 
oracle

>  <origin>  (82) 
adg

>  <m_score__min__energy>  (82) 
-7.2400000000000002

>  <m_primary>  (82) 
energy

$$$$
82:0
     RDKit          3D

 42 44  0  0  0  0  0  0  0  0999 V2000
  144.0510  154.8790  132.6820 C   0  0  0  0  0  0  0  0  0  0  0  0
  143.2430  155.9250  133.4700 C   0  0  2  0  0  0  0  0  0  0  0  0
  142.0690  155.2480  134.0450 N   0  0  0  0  0  0  0  0  0  0  0  0
  140.8360  154.9450  133.3720 C   0  0  0  0  0  0  0  0  0  0  0  0
  140.6190  153.7930  132.9120 O   0  0  0  0  0  0  0  0  0  0  0  0
  139.8110  155.9810  133.2290 C   0  0  0  0  0  0  0  0  0  0  0  0
  138.7370  155.6930  132.6300 O   0  0  0  0  0  0  0  0  0  0  0  0
  139.9830  157.2980  133.7940 N   0  0  0  0  0  0  0  0  0  0  0  0
  139.9630  158.4870  133.1240 C   0  0  0  0  0  0  0  0  0  0  0  0
  139.5130  158.6750  131.7320 C   0  0  0  0  0  0  0  0  0  0  0  0
  138.3560  158.0000  131.2310 N   0  0  0  0  0  0  0  0  0  0  0  0
  140.1270  159.4870  130.9810 O   0  0  0  0  0  0  0  0  0  0  0  0
  140.3930  159.5280  133.9410 C   0  0  0  0  0  0  0  0  0  0  0  0
  140.6670  158.9440  135.1560 C   0  0  0  0  0  0  0  0  0  0  0  0
  141.1250  159.5180  136.3360 C   0  0  0  0  0  0  0  0  0  0  0  0
  141.3540  158.6710  137.4330 C   0  0  0  0  0  0  0  0  0  0  0  0
  141.1370  157.2720  137.3330 C   0  0  0  0  0  0  0  0  0  0  0  0
  141.3800  156.3940  138.5340 C   0  0  0  0  0  0  0  0  0  0  0  0
  141.7100  157.1380  139.6520 F   0  0  0  0  0  0  0  0  0  0  0  0
  140.2400  155.6640  138.8170 F   0  0  0  0  0  0  0  0  0  0  0  0
  142.4170  155.5260  138.2600 F   0  0  0  0  0  0  0  0  0  0  0  0
  140.6660  156.7280  136.1150 C   0  0  0  0  0  0  0  0  0  0  0  0
  140.4160  157.5960  135.0440 C   0  0  0  0  0  0  0  0  0  0  0  0
  142.8450  157.0990  132.5740 C   0  0  0  0  0  0  0  0  0  0  0  0
  143.6320  158.2690  133.1480 C   0  0  0  0  0  0  0  0  0  0  0  0
  143.9470  157.9770  134.4860 O   0  0  0  0  0  0  0  0  0  0  0  0
  144.1120  156.5800  134.5620 C   0  0  0  0  0  0  0  0  0  0  0  0
  144.5682  154.2095  133.3850 H   0  0  0  0  0  0  0  0  0  0  0  0
  143.3704  154.2908  132.0488 H   0  0  0  0  0  0  0  0  0  0  0  0
  144.7920  155.3889  132.0488 H   0  0  0  0  0  0  0  0  0  0  0  0
  138.0990  158.0870  130.2260 H   0  0  0  0  0  0  0  0  0  0  0  0
  137.7130  157.4890  131.8780 H   0  0  0  0  0  0  0  0  0  0  0  0
  140.4925  160.5902  133.6728 H   0  0  0  0  0  0  0  0  0  0  0  0
  141.3025  160.6012  136.4086 H   0  0  0  0  0  0  0  0  0  0  0  0
  141.7066  159.0982  138.3833 H   0  0  0  0  0  0  0  0  0  0  0  0
  140.4995  155.6457  136.0109 H   0  0  0  0  0  0  0  0  0  0  0  0
  143.1294  156.9094  131.5285 H   0  0  0  0  0  0  0  0  0  0  0  0
  141.7598  157.2786  132.5611 H   0  0  0  0  0  0  0  0  0  0  0  0
  144.5575  158.4130  132.5712 H   0  0  0  0  0  0  0  0  0  0  0  0
  143.0340  159.1906  133.0927 H   0  0  0  0  0  0  0  0  0  0  0  0
  145.1689  156.3218  134.3997 H   0  0  0  0  0  0  0  0  0  0  0  0
  143.8065  156.2177  135.5547 H   0  0  0  0  0  0  0  0  0  0  0  0
  1  2  1  0
  2  3  1  1
  3  4  1  0
  4  5  2  0
  4  6  1  0
  6  7  2  0
  6  8  1  0
  8  9  1  0
  9 10  1  0
 10 11  1  0
 10 12  2  0
  9 13  2  0
 13 14  1  0
 14 15  2  0
 15 16  1  0
 16 17  2  0
 17 18  1  0
 18 19  1  0
 18 20  1  0
 18 21  1  0
 17 22  1  0
 22 23  2  0
  2 24  1  0
 24 25  1  0
 25 26  1  0
 26 27  1  0
 27  2  1  0
 23  8  1  0
 23 14  1  0
  1 28  1  0
  1 29  1  0
  1 30  1  0
 11 31  1  0
 11 32  1  0
 13 33  1  0
 15 34  1  0
 16 35  1  0
 22 36  1  0
 24 37  1  0
 24 38  1  0
 25 39  1  0
 25 40  1  0
 27 41  1  0
 27 42  1  0
M  CHG  1   3  -1
M  END
>  <UniqueID>  (83) 
82

>  <SMILES>  (83) 
C[C@]1([N-]C(=O)C(=O)n2c(C(N)=O)cc3ccc(C(F)(F)F)cc32)CCOC1

>  <Energy>  (83) 
88.53942393811803

>  <Genealogy>  (83) 
CC1([N-]C(=O)C(=O)n2c(C(N)=O)cc3ccc(C(F)(F)F)cc32)CCOC1 (protonated)
C[C@]1([N-]C(=O)C(=O)n2c(C(N)=O)cc3ccc(C(F)(F)F)cc32)CCOC1 (chirality)
C[C@]1([N-]C(=O)C(=O)n2c(C(N)=O)cc3ccc(C(F)(F)F)cc32)CCOC1 (3D coordinates assigned)
C[C@]1([N-]C(=O)C(=O)n2c(C(N)=O)cc3ccc(C(F)(F)F)cc32)CCOC1 (nonaromatic ring conformer: 88.53942393811803 kcal/mol)

>  <smiles>  (83) 
CC1(NC(=O)C(=O)n2c(C(N)=O)cc3ccc(C(F)(F)F)cc32)CCOC1

>  <score_type>  (83) 
oracle

>  <origin>  (83) 
adg

>  <m_score__min__energy>  (83) 
-7.75

>  <m_primary>  (83) 
energy

$$$$
83:0
     RDKit          3D

 55 57  0  0  0  0  0  0  0  0999 V2000
  146.4850  153.7070  132.9840 C   0  0  0  0  0  0  0  0  0  0  0  0
  145.3060  154.6830  133.1090 C   0  0  0  0  0  0  0  0  0  0  0  0
  144.8950  154.7820  134.5900 C   0  0  0  0  0  0  0  0  0  0  0  0
  144.1380  154.1620  132.2530 C   0  0  0  0  0  0  0  0  0  0  0  0
  145.7570  155.9560  132.6210 O   0  0  0  0  0  0  0  0  0  0  0  0
  146.5460  156.8830  133.3180 C   0  0  0  0  0  0  0  0  0  0  0  0
  147.6510  156.5330  133.8150 O   0  0  0  0  0  0  0  0  0  0  0  0
  146.0930  158.2410  133.4750 N   0  0  0  0  0  0  0  0  0  0  0  0
  146.8060  159.3870  133.2850 C   0  0  0  0  0  0  0  0  0  0  0  0
  148.2370  159.4820  132.9490 C   0  0  0  0  0  0  0  0  0  0  0  0
  149.2280  158.9860  133.8410 N   0  0  0  0  0  0  0  0  0  0  0  0
  148.5910  160.0890  131.9040 O   0  0  0  0  0  0  0  0  0  0  0  0
  145.9760  160.5030  133.3600 C   0  0  0  0  0  0  0  0  0  0  0  0
  144.7240  160.0090  133.6280 C   0  0  0  0  0  0  0  0  0  0  0  0
  143.5200  160.6810  133.8110 C   0  0  0  0  0  0  0  0  0  0  0  0
  142.3720  159.9180  134.0660 C   0  0  0  0  0  0  0  0  0  0  0  0
  142.4400  158.5010  134.1290 C   0  0  0  0  0  0  0  0  0  0  0  0
  141.2030  157.6760  134.4220 C   0  0  2  0  0  0  0  0  0  0  0  0
  141.2060  156.4110  133.6010 C   0  0  0  0  0  0  0  0  0  0  0  0
  140.1590  155.8220  133.3800 O   0  0  0  0  0  0  0  0  0  0  0  0
  139.9310  158.5110  134.1640 C   0  0  0  0  0  0  0  0  0  0  0  0
  139.6940  158.6990  132.7160 N   0  0  0  0  0  0  0  0  0  0  0  0
  139.8420  160.1080  132.3140 C   0  0  0  0  0  0  0  0  0  0  0  0
  138.7510  160.4260  131.2970 C   0  0  0  0  0  0  0  0  0  0  0  0
  138.0340  159.1090  131.0590 C   0  0  2  0  0  0  0  0  0  0  0  0
  136.6510  159.2900  130.9140 O   0  0  0  0  0  0  0  0  0  0  0  0
  138.3460  158.2970  132.2990 C   0  0  0  0  0  0  0  0  0  0  0  0
  143.6900  157.8580  133.9540 C   0  0  0  0  0  0  0  0  0  0  0  0
  144.8170  158.6440  133.6870 C   0  0  0  0  0  0  0  0  0  0  0  0
  146.8315  153.4201  133.9878 H   0  0  0  0  0  0  0  0  0  0  0  0
  146.1613  152.8090  132.4373 H   0  0  0  0  0  0  0  0  0  0  0  0
  147.3067  154.1927  132.4373 H   0  0  0  0  0  0  0  0  0  0  0  0
  145.7667  154.5720  135.2272 H   0  0  0  0  0  0  0  0  0  0  0  0
  144.5227  155.7955  134.8002 H   0  0  0  0  0  0  0  0  0  0  0  0
  144.1021  154.0492  134.8002 H   0  0  0  0  0  0  0  0  0  0  0  0
  143.3329  153.8029  132.9109 H   0  0  0  0  0  0  0  0  0  0  0  0
  143.7572  154.9756  131.6181 H   0  0  0  0  0  0  0  0  0  0  0  0
  144.4890  153.3351  131.6181 H   0  0  0  0  0  0  0  0  0  0  0  0
  149.2520  157.9770  134.1090 H   0  0  0  0  0  0  0  0  0  0  0  0
  146.2632  161.5571  133.2316 H   0  0  0  0  0  0  0  0  0  0  0  0
  143.4702  161.7786  133.7572 H   0  0  0  0  0  0  0  0  0  0  0  0
  141.4068  160.4230  134.2191 H   0  0  0  0  0  0  0  0  0  0  0  0
  141.2100  157.3868  135.4833 H   0  0  0  0  0  0  0  0  0  0  0  0
  142.1523  156.0182  133.2007 H   0  0  0  0  0  0  0  0  0  0  0  0
  139.0667  157.9919  134.6038 H   0  0  0  0  0  0  0  0  0  0  0  0
  140.0671  159.5008  134.6242 H   0  0  0  0  0  0  0  0  0  0  0  0
  139.7341  160.7602  133.1932 H   0  0  0  0  0  0  0  0  0  0  0  0
  140.8356  160.2769  131.8733 H   0  0  0  0  0  0  0  0  0  0  0  0
  138.0553  161.1770  131.6995 H   0  0  0  0  0  0  0  0  0  0  0  0
  139.1643  160.8435  130.3670 H   0  0  0  0  0  0  0  0  0  0  0  0
  138.3620  158.6188  130.1305 H   0  0  0  0  0  0  0  0  0  0  0  0
  136.3570  158.6470  130.2180 H   0  0  0  0  0  0  0  0  0  0  0  0
  137.6182  158.5177  133.0937 H   0  0  0  0  0  0  0  0  0  0  0  0
  138.2914  157.2169  132.0980 H   0  0  0  0  0  0  0  0  0  0  0  0
  143.7733  156.7636  134.0264 H   0  0  0  0  0  0  0  0  0  0  0  0
  1  2  1  0
  2  3  1  0
  2  4  1  0
  2  5  1  0
  5  6  1  0
  6  7  2  0
  6  8  1  0
  8  9  1  0
  9 10  1  0
 10 11  1  0
 10 12  2  0
  9 13  2  0
 13 14  1  0
 14 15  2  0
 15 16  1  0
 16 17  2  0
 17 18  1  0
 18 19  1  0
 19 20  2  0
 18 21  1  0
 21 22  1  0
 22 23  1  0
 23 24  1  0
 24 25  1  0
 25 26  1  0
 25 27  1  0
 17 28  1  0
 28 29  2  0
 29  8  1  0
 29 14  1  0
 27 22  1  0
  1 30  1  0
  1 31  1  0
  1 32  1  0
  3 33  1  0
  3 34  1  0
  3 35  1  0
  4 36  1  0
  4 37  1  0
  4 38  1  0
 11 39  1  0
 13 40  1  0
 15 41  1  0
 16 42  1  0
 18 43  1  1
 19 44  1  0
 21 45  1  0
 21 46  1  0
 23 47  1  0
 23 48  1  0
 24 49  1  0
 24 50  1  0
 25 51  1  6
 26 52  1  0
 27 53  1  0
 27 54  1  0
 28 55  1  0
M  CHG  1  11  -1
M  END
>  <UniqueID>  (84) 
83

>  <SMILES>  (84) 
CC(C)(C)OC(=O)n1c(C([NH-])=O)cc2ccc([C@H](C=O)CN3CC[C@H](O)C3)cc21

>  <Energy>  (84) 
95.39795986783085

>  <Genealogy>  (84) 
CC(C)(C)OC(=O)n1c(C([NH-])=O)cc2ccc(C(C=O)CN3CCC(O)C3)cc21 (protonated)
CC(C)(C)OC(=O)n1c(C([NH-])=O)cc2ccc([C@H](C=O)CN3CC[C@H](O)C3)cc21 (chirality)
CC(C)(C)OC(=O)n1c(C([NH-])=O)cc2ccc([C@H](C=O)CN3CC[C@H](O)C3)cc21 (3D coordinates assigned)
CC(C)(C)OC(=O)n1c(C([NH-])=O)cc2ccc([C@H](C=O)CN3CC[C@H](O)C3)cc21 (nonaromatic ring conformer: 95.39795986783085 kcal/mol)

>  <smiles>  (84) 
CC(C)(C)OC(=O)n1c(C(N)=O)cc2ccc(C(C=O)CN3CCC(O)C3)cc21

>  <score_type>  (84) 
oracle

>  <origin>  (84) 
adg

>  <m_score__min__energy>  (84) 
-8.3000000000000007

>  <m_primary>  (84) 
energy

$$$$
84:0
     RDKit          3D

 33 34  0  0  0  0  0  0  0  0999 V2000
  144.3490  155.2060  133.1340 C   0  0  0  0  0  0  0  0  0  0  0  0
  144.9540  156.5760  133.2040 C   0  0  0  0  0  0  0  0  0  0  0  0
  146.3470  156.7500  133.0050 C   0  0  0  0  0  0  0  0  0  0  0  0
  146.9260  158.0260  133.0930 C   0  0  0  0  0  0  0  0  0  0  0  0
  146.0950  159.1020  133.3960 C   0  0  0  0  0  0  0  0  0  0  0  0
  146.3900  160.4400  133.5230 C   0  0  0  0  0  0  0  0  0  0  0  0
  145.1790  161.0570  133.8310 C   0  0  0  0  0  0  0  0  0  0  0  0
  145.0530  162.4960  134.1360 C   0  0  0  0  0  0  0  0  0  0  0  0
  145.9720  163.1150  135.0340 N   0  0  0  0  0  0  0  0  0  0  0  0
  144.1210  163.1800  133.6400 O   0  0  0  0  0  0  0  0  0  0  0  0
  144.1740  160.1370  133.8900 N   0  0  0  0  0  0  0  0  0  0  0  0
  142.7750  160.3720  134.1060 C   0  0  0  0  0  0  0  0  0  0  0  0
  142.1630  161.2020  133.3810 O   0  0  0  0  0  0  0  0  0  0  0  0
  142.0950  159.6990  135.1750 N   0  0  0  0  0  0  0  0  0  0  0  0
  141.2040  158.5430  135.0450 C   0  0  1  0  0  0  0  0  0  0  0  0
  140.2770  158.4410  136.2280 C   0  0  0  0  0  0  0  0  0  0  0  0
  140.4600  159.1370  137.2630 O   0  0  0  0  0  0  0  0  0  0  0  0
  139.2220  157.5360  136.1930 O   0  0  0  0  0  0  0  0  0  0  0  0
  140.4760  158.5440  133.6880 C   0  0  0  0  0  0  0  0  0  0  0  0
  141.3850  158.3210  132.6680 F   0  0  0  0  0  0  0  0  0  0  0  0
  139.4990  157.5660  133.6380 F   0  0  0  0  0  0  0  0  0  0  0  0
  139.8820  159.7760  133.4830 F   0  0  0  0  0  0  0  0  0  0  0  0
  144.7530  158.9450  133.6220 C   0  0  0  0  0  0  0  0  0  0  0  0
  144.1440  157.6870  133.5260 C   0  0  0  0  0  0  0  0  0  0  0  0
  144.1815  154.8267  134.1528 H   0  0  0  0  0  0  0  0  0  0  0  0
  143.3892  155.2559  132.5989 H   0  0  0  0  0  0  0  0  0  0  0  0
  145.0324  154.5303  132.5989 H   0  0  0  0  0  0  0  0  0  0  0  0
  146.9791  155.8783  132.7799 H   0  0  0  0  0  0  0  0  0  0  0  0
  148.0037  158.1716  132.9276 H   0  0  0  0  0  0  0  0  0  0  0  0
  147.3726  160.9204  133.4062 H   0  0  0  0  0  0  0  0  0  0  0  0
  146.9990  163.1000  134.8440 H   0  0  0  0  0  0  0  0  0  0  0  0
  141.8131  157.6271  135.0541 H   0  0  0  0  0  0  0  0  0  0  0  0
  143.0639  157.5679  133.6969 H   0  0  0  0  0  0  0  0  0  0  0  0
  1  2  1  0
  2  3  2  0
  3  4  1  0
  4  5  2  0
  5  6  1  0
  6  7  2  0
  7  8  1  0
  8  9  1  0
  8 10  2  0
  7 11  1  0
 11 12  1  0
 12 13  2  0
 12 14  1  0
 14 15  1  0
 15 16  1  0
 16 17  2  0
 16 18  1  0
 15 19  1  0
 19 20  1  0
 19 21  1  0
 19 22  1  0
 11 23  1  0
 23 24  2  0
 24  2  1  0
 23  5  1  0
  1 25  1  0
  1 26  1  0
  1 27  1  0
  3 28  1  0
  4 29  1  0
  6 30  1  0
  9 31  1  0
 15 32  1  6
 24 33  1  0
M  CHG  3   9  -1  14  -1  18  -1
M  END
>  <UniqueID>  (85) 
84

>  <SMILES>  (85) 
Cc1ccc2cc(C([NH-])=O)n(C(=O)[N-][C@@H](C(=O)[O-])C(F)(F)F)c2c1

>  <Energy>  (85) 
71.07703885431042

>  <Genealogy>  (85) 
Cc1ccc2cc(C([NH-])=O)n(C(=O)[N-]C(C(=O)[O-])C(F)(F)F)c2c1 (protonated)
Cc1ccc2cc(C([NH-])=O)n(C(=O)[N-][C@@H](C(=O)[O-])C(F)(F)F)c2c1 (chirality)
Cc1ccc2cc(C([NH-])=O)n(C(=O)[N-][C@@H](C(=O)[O-])C(F)(F)F)c2c1 (3D coordinates assigned)
Cc1ccc2cc(C([NH-])=O)n(C(=O)[N-][C@@H](C(=O)[O-])C(F)(F)F)c2c1 (optimized conformer: 71.07703885431042 kcal/mol)

>  <smiles>  (85) 
Cc1ccc2cc(C(N)=O)n(C(=O)NC(C(=O)O)C(F)(F)F)c2c1

>  <score_type>  (85) 
oracle

>  <origin>  (85) 
adg

>  <m_score__min__energy>  (85) 
-6.6699999999999999

>  <m_primary>  (85) 
energy

$$$$
85:0
     RDKit          3D

 39 40  0  0  0  0  0  0  0  0999 V2000
  140.4700  158.0010  136.1000 C   0  0  0  0  0  0  0  0  0  0  0  0
  140.0000  159.0020  135.2290 O   0  0  0  0  0  0  0  0  0  0  0  0
  139.8680  158.4300  134.0000 N   0  0  0  0  0  0  0  0  0  0  0  0
  138.6170  157.7540  133.6570 C   0  0  0  0  0  0  0  0  0  0  0  0
  140.8880  158.6150  133.0000 C   0  0  0  0  0  0  0  0  0  0  0  0
  141.0650  159.7540  132.4870 O   0  0  0  0  0  0  0  0  0  0  0  0
  141.8040  157.4880  132.6090 C   0  0  0  0  0  0  0  0  0  0  0  0
  143.1660  157.9140  132.6180 O   0  0  0  0  0  0  0  0  0  0  0  0
  143.7840  158.4850  133.7360 C   0  0  0  0  0  0  0  0  0  0  0  0
  143.2060  158.4770  134.8570 O   0  0  0  0  0  0  0  0  0  0  0  0
  145.0730  159.1040  133.5980 N   0  0  0  0  0  0  0  0  0  0  0  0
  145.3640  160.4350  133.5630 C   0  0  0  0  0  0  0  0  0  0  0  0
  144.4100  161.5390  133.7980 C   0  0  0  0  0  0  0  0  0  0  0  0
  143.0070  161.2930  133.7190 N   0  0  0  0  0  0  0  0  0  0  0  0
  144.8180  162.7070  134.0320 O   0  0  0  0  0  0  0  0  0  0  0  0
  146.7280  160.6310  133.3540 C   0  0  0  0  0  0  0  0  0  0  0  0
  147.2690  159.3680  133.2710 C   0  0  0  0  0  0  0  0  0  0  0  0
  148.5830  158.9710  133.0480 C   0  0  0  0  0  0  0  0  0  0  0  0
  148.8530  157.5950  132.9760 C   0  0  0  0  0  0  0  0  0  0  0  0
  147.8140  156.6420  133.1360 C   0  0  0  0  0  0  0  0  0  0  0  0
  148.1050  155.1700  132.9940 C   0  0  0  0  0  0  0  0  0  0  0  0
  149.3370  155.0060  132.3890 F   0  0  0  0  0  0  0  0  0  0  0  0
  147.1370  154.5530  132.2210 F   0  0  0  0  0  0  0  0  0  0  0  0
  148.1250  154.5540  134.2340 F   0  0  0  0  0  0  0  0  0  0  0  0
  146.4860  157.0870  133.3370 C   0  0  0  0  0  0  0  0  0  0  0  0
  146.2500  158.4640  133.4220 C   0  0  0  0  0  0  0  0  0  0  0  0
  140.3197  158.3211  137.1416 H   0  0  0  0  0  0  0  0  0  0  0  0
  139.9158  157.0681  135.9195 H   0  0  0  0  0  0  0  0  0  0  0  0
  141.5418  157.8316  135.9195 H   0  0  0  0  0  0  0  0  0  0  0  0
  138.0895  157.4689  134.5792 H   0  0  0  0  0  0  0  0  0  0  0  0
  137.9834  158.4325  133.0669 H   0  0  0  0  0  0  0  0  0  0  0  0
  138.8374  156.8522  133.0669 H   0  0  0  0  0  0  0  0  0  0  0  0
  141.6808  156.6595  133.3220 H   0  0  0  0  0  0  0  0  0  0  0  0
  141.5444  157.1602  131.5916 H   0  0  0  0  0  0  0  0  0  0  0  0
  142.6230  160.3320  133.8580 H   0  0  0  0  0  0  0  0  0  0  0  0
  147.2592  161.5908  133.2727 H   0  0  0  0  0  0  0  0  0  0  0  0
  149.3868  159.7128  132.9315 H   0  0  0  0  0  0  0  0  0  0  0  0
  149.8820  157.2518  132.7934 H   0  0  0  0  0  0  0  0  0  0  0  0
  145.6584  156.3676  133.4244 H   0  0  0  0  0  0  0  0  0  0  0  0
  1  2  1  0
  2  3  1  0
  3  4  1  0
  3  5  1  0
  5  6  2  0
  5  7  1  0
  7  8  1  0
  8  9  1  0
  9 10  2  0
  9 11  1  0
 11 12  1  0
 12 13  1  0
 13 14  1  0
 13 15  2  0
 12 16  2  0
 16 17  1  0
 17 18  2  0
 18 19  1  0
 19 20  2  0
 20 21  1  0
 21 22  1  0
 21 23  1  0
 21 24  1  0
 20 25  1  0
 25 26  2  0
 26 11  1  0
 26 17  1  0
  1 27  1  0
  1 28  1  0
  1 29  1  0
  4 30  1  0
  4 31  1  0
  4 32  1  0
  7 33  1  0
  7 34  1  0
 14 35  1  0
 16 36  1  0
 18 37  1  0
 19 38  1  0
 25 39  1  0
M  CHG  1  14  -1
M  END
>  <UniqueID>  (86) 
85

>  <SMILES>  (86) 
CON(C)C(=O)COC(=O)n1c(C([NH-])=O)cc2ccc(C(F)(F)F)cc21

>  <Energy>  (86) 
72.79091286764441

>  <Genealogy>  (86) 
CON(C)C(=O)COC(=O)n1c(C([NH-])=O)cc2ccc(C(F)(F)F)cc21 (protonated)
CON(C)C(=O)COC(=O)n1c(C([NH-])=O)cc2ccc(C(F)(F)F)cc21 (3D coordinates assigned)
CON(C)C(=O)COC(=O)n1c(C([NH-])=O)cc2ccc(C(F)(F)F)cc21 (optimized conformer: 72.79091286764441 kcal/mol)

>  <smiles>  (86) 
CON(C)C(=O)COC(=O)n1c(C(N)=O)cc2ccc(C(F)(F)F)cc21

>  <score_type>  (86) 
oracle

>  <origin>  (86) 
adg

>  <m_score__min__energy>  (86) 
-5.9400000000000004

>  <m_primary>  (86) 
energy

$$$$
86:0
     RDKit          3D

 68 70  0  0  0  0  0  0  0  0999 V2000
  149.5710  151.3220  131.2230 C   0  0  0  0  0  0  0  0  0  0  0  0
  149.1620  152.2510  132.3770 C   0  0  0  0  0  0  0  0  0  0  0  0
  149.9630  153.5600  132.2710 C   0  0  0  0  0  0  0  0  0  0  0  0
  149.4560  151.5400  133.7120 C   0  0  0  0  0  0  0  0  0  0  0  0
  147.7560  152.5060  132.2370 O   0  0  0  0  0  0  0  0  0  0  0  0
  146.7280  151.5480  132.2790 C   0  0  0  0  0  0  0  0  0  0  0  0
  146.9920  150.3210  132.1530 O   0  0  0  0  0  0  0  0  0  0  0  0
  145.3660  151.9800  132.4620 N   0  0  0  0  0  0  0  0  0  0  0  0
  145.0940  153.4170  132.5710 C   0  0  0  0  0  0  0  0  0  0  0  0
  143.5980  153.6900  132.6950 C   0  0  0  0  0  0  0  0  0  0  0  0
  143.0260  152.7650  133.6860 N   0  0  0  0  0  0  0  0  0  0  0  0
  141.6610  153.1990  134.0610 C   0  0  0  0  0  0  0  0  0  0  0  0
  141.2600  154.5070  133.3650 C   0  0  0  0  0  0  0  0  0  0  0  0
  141.1640  155.5460  134.3190 O   0  0  0  0  0  0  0  0  0  0  0  0
  140.3550  156.6050  133.8390 C   0  0  0  0  0  0  0  0  0  0  0  0
  141.1770  157.5030  132.9690 C   0  0  0  0  0  0  0  0  0  0  0  0
  140.6220  158.4380  132.3250 O   0  0  0  0  0  0  0  0  0  0  0  0
  142.5930  157.3160  132.9000 N   0  0  0  0  0  0  0  0  0  0  0  0
  143.4680  157.5040  134.0500 C   0  0  0  0  0  0  0  0  0  0  0  0
  143.9550  158.9220  134.0940 C   0  0  0  0  0  0  0  0  0  0  0  0
  143.1820  159.8210  134.5220 O   0  0  0  0  0  0  0  0  0  0  0  0
  145.2930  159.2750  133.6930 N   0  0  0  0  0  0  0  0  0  0  0  0
  145.8280  160.5230  133.7330 C   0  0  0  0  0  0  0  0  0  0  0  0
  145.0990  161.7380  134.1050 C   0  0  0  0  0  0  0  0  0  0  0  0
  143.9340  162.1200  133.3790 N   0  0  0  0  0  0  0  0  0  0  0  0
  145.4850  162.4260  135.0850 O   0  0  0  0  0  0  0  0  0  0  0  0
  147.1640  160.5110  133.3510 C   0  0  0  0  0  0  0  0  0  0  0  0
  147.4420  159.1920  133.0700 C   0  0  0  0  0  0  0  0  0  0  0  0
  148.6360  158.6000  132.6710 C   0  0  0  0  0  0  0  0  0  0  0  0
  148.6560  157.2070  132.4960 C   0  0  0  0  0  0  0  0  0  0  0  0
  147.4920  156.4370  132.7280 C   0  0  0  0  0  0  0  0  0  0  0  0
  147.5300  155.0170  132.5610 N   0  0  0  0  0  0  0  0  0  0  0  0
  146.2980  157.0680  133.1360 C   0  0  0  0  0  0  0  0  0  0  0  0
  146.2970  158.4620  133.2840 C   0  0  0  0  0  0  0  0  0  0  0  0
  143.0350  151.3730  133.1740 C   0  0  0  0  0  0  0  0  0  0  0  0
  144.2580  151.0280  132.2930 C   0  0  0  0  0  0  0  0  0  0  0  0
  149.9823  150.3877  131.6326 H   0  0  0  0  0  0  0  0  0  0  0  0
  148.6897  151.0948  130.6052 H   0  0  0  0  0  0  0  0  0  0  0  0
  150.3337  151.8186  130.6052 H   0  0  0  0  0  0  0  0  0  0  0  0
  150.1912  153.9330  133.2804 H   0  0  0  0  0  0  0  0  0  0  0  0
  150.9014  153.3727  131.7284 H   0  0  0  0  0  0  0  0  0  0  0  0
  149.3692  154.3103  131.7284 H   0  0  0  0  0  0  0  0  0  0  0  0
  149.1826  152.2012  134.5475 H   0  0  0  0  0  0  0  0  0  0  0  0
  148.8676  150.6124  133.7708 H   0  0  0  0  0  0  0  0  0  0  0  0
  150.5276  151.2988  133.7708 H   0  0  0  0  0  0  0  0  0  0  0  0
  145.6054  153.8120  133.4612 H   0  0  0  0  0  0  0  0  0  0  0  0
  145.4627  153.9103  131.6596 H   0  0  0  0  0  0  0  0  0  0  0  0
  143.4378  154.7277  133.0228 H   0  0  0  0  0  0  0  0  0  0  0  0
  143.1097  153.5414  131.7206 H   0  0  0  0  0  0  0  0  0  0  0  0
  140.9475  152.4120  133.7755 H   0  0  0  0  0  0  0  0  0  0  0  0
  141.6475  153.3748  135.1468 H   0  0  0  0  0  0  0  0  0  0  0  0
  142.0200  154.7693  132.6143 H   0  0  0  0  0  0  0  0  0  0  0  0
  140.2850  154.3733  132.8735 H   0  0  0  0  0  0  0  0  0  0  0  0
  139.5191  156.1926  133.2549 H   0  0  0  0  0  0  0  0  0  0  0  0
  139.9586  157.1792  134.6894 H   0  0  0  0  0  0  0  0  0  0  0  0
  142.9115  157.2806  134.9722 H   0  0  0  0  0  0  0  0  0  0  0  0
  144.3307  156.8271  133.9634 H   0  0  0  0  0  0  0  0  0  0  0  0
  143.2050  161.4170  133.1250 H   0  0  0  0  0  0  0  0  0  0  0  0
  147.8501  161.3685  133.2870 H   0  0  0  0  0  0  0  0  0  0  0  0
  149.5379  159.2054  132.4977 H   0  0  0  0  0  0  0  0  0  0  0  0
  149.5840  156.7105  132.1760 H   0  0  0  0  0  0  0  0  0  0  0  0
  147.5710  154.3830  133.3880 H   0  0  0  0  0  0  0  0  0  0  0  0
  147.5010  154.5900  131.6070 H   0  0  0  0  0  0  0  0  0  0  0  0
  145.3894  156.4801  133.3333 H   0  0  0  0  0  0  0  0  0  0  0  0
  143.0267  150.6889  134.0353 H   0  0  0  0  0  0  0  0  0  0  0  0
  142.1459  151.2661  132.5352 H   0  0  0  0  0  0  0  0  0  0  0  0
  144.6136  150.0226  132.5628 H   0  0  0  0  0  0  0  0  0  0  0  0
  143.9352  151.0771  131.2426 H   0  0  0  0  0  0  0  0  0  0  0  0
  1  2  1  0
  2  3  1  0
  2  4  1  0
  2  5  1  0
  5  6  1  0
  6  7  2  0
  6  8  1  0
  8  9  1  0
  9 10  1  0
 10 11  1  0
 11 12  1  0
 12 13  1  0
 13 14  1  0
 14 15  1  0
 15 16  1  0
 16 17  2  0
 16 18  1  0
 18 19  1  0
 19 20  1  0
 20 21  2  0
 20 22  1  0
 22 23  1  0
 23 24  1  0
 24 25  1  0
 24 26  2  0
 23 27  2  0
 27 28  1  0
 28 29  2  0
 29 30  1  0
 30 31  2  0
 31 32  1  0
 31 33  1  0
 33 34  2  0
 11 35  1  0
 35 36  1  0
 36  8  1  0
 34 22  1  0
 34 28  1  0
  1 37  1  0
  1 38  1  0
  1 39  1  0
  3 40  1  0
  3 41  1  0
  3 42  1  0
  4 43  1  0
  4 44  1  0
  4 45  1  0
  9 46  1  0
  9 47  1  0
 10 48  1  0
 10 49  1  0
 12 50  1  0
 12 51  1  0
 13 52  1  0
 13 53  1  0
 15 54  1  0
 15 55  1  0
 19 56  1  0
 19 57  1  0
 25 58  1  0
 27 59  1  0
 29 60  1  0
 30 61  1  0
 32 62  1  0
 32 63  1  0
 33 64  1  0
 35 65  1  0
 35 66  1  0
 36 67  1  0
 36 68  1  0
M  CHG  2  18  -1  25  -1
M  END
>  <UniqueID>  (87) 
86

>  <SMILES>  (87) 
CC(C)(C)OC(=O)N1CCN(CCOCC(=O)[N-]CC(=O)n2c(C([NH-])=O)cc3ccc(N)cc32)CC1

>  <Energy>  (87) 
111.16243053593773

>  <Genealogy>  (87) 
CC(C)(C)OC(=O)N1CCN(CCOCC(=O)[N-]CC(=O)n2c(C([NH-])=O)cc3ccc(N)cc32)CC1 (protonated)
CC(C)(C)OC(=O)N1CCN(CCOCC(=O)[N-]CC(=O)n2c(C([NH-])=O)cc3ccc(N)cc32)CC1 (3D coordinates assigned)
CC(C)(C)OC(=O)N1CCN(CCOCC(=O)[N-]CC(=O)n2c(C([NH-])=O)cc3ccc(N)cc32)CC1 (nonaromatic ring conformer: 111.16243053593773 kcal/mol)

>  <smiles>  (87) 
CC(C)(C)OC(=O)N1CCN(CCOCC(=O)NCC(=O)n2c(C(N)=O)cc3ccc(N)cc32)CC1

>  <score_type>  (87) 
oracle

>  <origin>  (87) 
adg

>  <m_score__min__energy>  (87) 
-8.8300000000000001

>  <m_primary>  (87) 
energy

$$$$
87:0
     RDKit          3D

 46 47  0  0  0  0  0  0  0  0999 V2000
  147.4240  154.5990  136.0120 C   0  0  0  0  0  0  0  0  0  0  0  0
  146.4650  154.3740  134.9230 N   0  0  0  0  0  0  0  0  0  0  0  0
  146.7910  153.3860  133.8850 C   0  0  0  0  0  0  0  0  0  0  0  0
  148.3040  153.2580  133.7090 C   0  0  0  0  0  0  0  0  0  0  0  0
  148.8590  154.5150  133.4150 O   0  0  0  0  0  0  0  0  0  0  0  0
  148.7160  154.6860  132.0760 N   0  0  0  0  0  0  0  0  0  0  0  0
  145.2040  155.0810  134.8850 C   0  0  0  0  0  0  0  0  0  0  0  0
  144.5240  155.2080  135.9400 O   0  0  0  0  0  0  0  0  0  0  0  0
  144.6810  155.7140  133.6240 C   0  0  0  0  0  0  0  0  0  0  0  0
  145.7270  156.5910  132.9960 C   0  0  0  0  0  0  0  0  0  0  0  0
  146.5860  156.0760  132.2280 O   0  0  0  0  0  0  0  0  0  0  0  0
  145.7880  157.9970  133.2850 N   0  0  0  0  0  0  0  0  0  0  0  0
  146.8890  158.7940  133.3620 C   0  0  0  0  0  0  0  0  0  0  0  0
  148.2900  158.3320  133.3440 C   0  0  0  0  0  0  0  0  0  0  0  0
  148.6090  156.9410  133.3830 N   0  0  0  0  0  0  0  0  0  0  0  0
  149.2210  159.1810  133.3480 O   0  0  0  0  0  0  0  0  0  0  0  0
  146.5210  160.1250  133.5380 C   0  0  0  0  0  0  0  0  0  0  0  0
  145.1440  160.1180  133.5850 C   0  0  0  0  0  0  0  0  0  0  0  0
  144.2450  161.1670  133.7550 C   0  0  0  0  0  0  0  0  0  0  0  0
  142.8730  160.8660  133.7390 C   0  0  0  0  0  0  0  0  0  0  0  0
  142.4270  159.5350  133.5380 C   0  0  0  0  0  0  0  0  0  0  0  0
  140.9560  159.2250  133.5240 C   0  0  0  0  0  0  0  0  0  0  0  0
  140.4680  158.9800  134.9150 C   0  0  0  0  0  0  0  0  0  0  0  0
  139.4790  158.2280  135.1150 O   0  0  0  0  0  0  0  0  0  0  0  0
  141.0860  159.6060  135.9910 O   0  0  0  0  0  0  0  0  0  0  0  0
  143.3700  158.4940  133.3870 C   0  0  0  0  0  0  0  0  0  0  0  0
  144.7280  158.8220  133.4260 C   0  0  0  0  0  0  0  0  0  0  0  0
  146.9147  154.4795  136.9796 H   0  0  0  0  0  0  0  0  0  0  0  0
  148.2430  153.8686  135.9361 H   0  0  0  0  0  0  0  0  0  0  0  0
  147.8327  155.6174  135.9361 H   0  0  0  0  0  0  0  0  0  0  0  0
  146.3784  152.4087  134.1759 H   0  0  0  0  0  0  0  0  0  0  0  0
  146.3536  153.7199  132.9325 H   0  0  0  0  0  0  0  0  0  0  0  0
  148.7480  152.8715  134.6383 H   0  0  0  0  0  0  0  0  0  0  0  0
  148.5151  152.5660  132.8804 H   0  0  0  0  0  0  0  0  0  0  0  0
  147.7700  154.3260  131.8220 H   0  0  0  0  0  0  0  0  0  0  0  0
  148.6990  155.7160  131.9050 H   0  0  0  0  0  0  0  0  0  0  0  0
  144.3988  154.9233  132.9133 H   0  0  0  0  0  0  0  0  0  0  0  0
  143.8062  156.3318  133.8752 H   0  0  0  0  0  0  0  0  0  0  0  0
  147.8640  156.2210  133.5140 H   0  0  0  0  0  0  0  0  0  0  0  0
  149.6040  156.6280  133.3490 H   0  0  0  0  0  0  0  0  0  0  0  0
  147.1873  160.9963  133.6217 H   0  0  0  0  0  0  0  0  0  0  0  0
  144.5978  162.1991  133.8974 H   0  0  0  0  0  0  0  0  0  0  0  0
  142.1372  161.6708  133.8838 H   0  0  0  0  0  0  0  0  0  0  0  0
  140.4093  160.0759  133.0915 H   0  0  0  0  0  0  0  0  0  0  0  0
  140.7847  158.3225  132.9189 H   0  0  0  0  0  0  0  0  0  0  0  0
  143.0442  157.4533  133.2426 H   0  0  0  0  0  0  0  0  0  0  0  0
  1  2  1  0
  2  3  1  0
  3  4  1  0
  4  5  1  0
  5  6  1  0
  2  7  1  0
  7  8  2  0
  7  9  1  0
  9 10  1  0
 10 11  2  0
 10 12  1  0
 12 13  1  0
 13 14  1  0
 14 15  1  0
 14 16  2  0
 13 17  2  0
 17 18  1  0
 18 19  2  0
 19 20  1  0
 20 21  2  0
 21 22  1  0
 22 23  1  0
 23 24  2  0
 23 25  1  0
 21 26  1  0
 26 27  2  0
 27 12  1  0
 27 18  1  0
  1 28  1  0
  1 29  1  0
  1 30  1  0
  3 31  1  0
  3 32  1  0
  4 33  1  0
  4 34  1  0
  6 35  1  0
  6 36  1  0
  9 37  1  0
  9 38  1  0
 15 39  1  0
 15 40  1  0
 17 41  1  0
 19 42  1  0
 20 43  1  0
 22 44  1  0
 22 45  1  0
 26 46  1  0
M  CHG  1  25  -1
M  END
>  <UniqueID>  (88) 
87

>  <SMILES>  (88) 
CN(CCON)C(=O)CC(=O)n1c(C(N)=O)cc2ccc(CC(=O)[O-])cc21

>  <Energy>  (88) 
74.73194775267557

>  <Genealogy>  (88) 
CN(CCON)C(=O)CC(=O)n1c(C(N)=O)cc2ccc(CC(=O)[O-])cc21 (protonated)
CN(CCON)C(=O)CC(=O)n1c(C(N)=O)cc2ccc(CC(=O)[O-])cc21 (3D coordinates assigned)
CN(CCON)C(=O)CC(=O)n1c(C(N)=O)cc2ccc(CC(=O)[O-])cc21 (optimized conformer: 74.73194775267557 kcal/mol)

>  <smiles>  (88) 
CN(CCON)C(=O)CC(=O)n1c(C(N)=O)cc2ccc(CC(=O)O)cc21

>  <score_type>  (88) 
oracle

>  <origin>  (88) 
adg

>  <m_score__min__energy>  (88) 
-6.2699999999999996

>  <m_primary>  (88) 
energy

$$$$
88:0
     RDKit          3D

 39 40  0  0  0  0  0  0  0  0999 V2000
  144.7610  154.2690  131.6310 C   0  0  0  0  0  0  0  0  0  0  0  0
  145.3890  153.4760  132.7060 N   0  0  1  0  0  0  0  0  0  0  0  0
  144.8260  153.8030  134.0370 C   0  0  0  0  0  0  0  0  0  0  0  0
  145.4780  154.9990  134.6940 C   0  0  0  0  0  0  0  0  0  0  0  0
  145.3480  155.1700  135.9360 O   0  0  0  0  0  0  0  0  0  0  0  0
  146.3010  155.9010  133.9380 N   0  0  0  0  0  0  0  0  0  0  0  0
  147.5540  155.6860  133.4460 C   0  0  0  0  0  0  0  0  0  0  0  0
  148.2540  154.3870  133.4130 C   0  0  0  0  0  0  0  0  0  0  0  0
  147.8520  153.3400  134.2920 N   0  0  0  0  0  0  0  0  0  0  0  0
  149.2330  154.2050  132.6400 O   0  0  0  0  0  0  0  0  0  0  0  0
  148.0530  156.8450  132.8580 C   0  0  0  0  0  0  0  0  0  0  0  0
  147.0510  157.7790  132.9840 C   0  0  0  0  0  0  0  0  0  0  0  0
  147.0080  159.1110  132.5810 C   0  0  0  0  0  0  0  0  0  0  0  0
  145.8440  159.8460  132.8590 C   0  0  0  0  0  0  0  0  0  0  0  0
  144.7400  159.2390  133.5130 C   0  0  0  0  0  0  0  0  0  0  0  0
  143.5190  160.0530  133.8590 C   0  0  0  0  0  0  0  0  0  0  0  0
  143.7820  161.4060  133.7340 F   0  0  0  0  0  0  0  0  0  0  0  0
  142.4670  159.7380  133.0170 F   0  0  0  0  0  0  0  0  0  0  0  0
  143.1480  159.7840  135.1640 F   0  0  0  0  0  0  0  0  0  0  0  0
  144.8310  157.8890  133.9230 C   0  0  0  0  0  0  0  0  0  0  0  0
  146.0020  157.1820  133.6300 C   0  0  0  0  0  0  0  0  0  0  0  0
  145.3380  152.0440  132.4390 C   0  0  0  0  0  0  0  0  0  0  0  0
  144.2660  151.4520  132.4250 O   0  0  0  0  0  0  0  0  0  0  0  0
  146.5900  151.2320  132.2130 C   0  0  0  0  0  0  0  0  0  0  0  0
  147.6980  152.0540  131.9700 O   0  0  0  0  0  0  0  0  0  0  0  0
  144.1361  155.0581  132.0747 H   0  0  0  0  0  0  0  0  0  0  0  0
  145.5435  154.7275  131.0086 H   0  0  0  0  0  0  0  0  0  0  0  0
  144.1354  153.6123  131.0086 H   0  0  0  0  0  0  0  0  0  0  0  0
  146.3960  153.7600  132.7170 H   0  0  0  0  0  0  0  0  0  0  0  0
  143.7529  154.0137  133.9183 H   0  0  0  0  0  0  0  0  0  0  0  0
  145.0132  152.9361  134.6878 H   0  0  0  0  0  0  0  0  0  0  0  0
  147.1780  152.6060  133.9810 H   0  0  0  0  0  0  0  0  0  0  0  0
  149.0394  156.9844  132.3915 H   0  0  0  0  0  0  0  0  0  0  0  0
  147.8597  159.5735  132.0607 H   0  0  0  0  0  0  0  0  0  0  0  0
  145.7871  160.9048  132.5664 H   0  0  0  0  0  0  0  0  0  0  0  0
  144.0009  157.4062  134.4595 H   0  0  0  0  0  0  0  0  0  0  0  0
  146.7867  150.6220  133.1070 H   0  0  0  0  0  0  0  0  0  0  0  0
  146.4332  150.5942  131.3306 H   0  0  0  0  0  0  0  0  0  0  0  0
  148.0050  152.3730  132.8580 H   0  0  0  0  0  0  0  0  0  0  0  0
  1  2  1  0
  2  3  1  0
  3  4  1  0
  4  5  2  0
  4  6  1  0
  6  7  1  0
  7  8  1  0
  8  9  1  0
  8 10  2  0
  7 11  2  0
 11 12  1  0
 12 13  2  0
 13 14  1  0
 14 15  2  0
 15 16  1  0
 16 17  1  0
 16 18  1  0
 16 19  1  0
 15 20  1  0
 20 21  2  0
  2 22  1  0
 22 23  2  0
 22 24  1  0
 24 25  1  0
 21  6  1  0
 21 12  1  0
  1 26  1  0
  1 27  1  0
  1 28  1  0
  2 29  1  1
  3 30  1  0
  3 31  1  0
  9 32  1  0
 11 33  1  0
 13 34  1  0
 14 35  1  0
 20 36  1  0
 24 37  1  0
 24 38  1  0
 25 39  1  0
M  CHG  2   2   1   9  -1
M  END
>  <UniqueID>  (89) 
88

>  <SMILES>  (89) 
C[N@@H+](CC(=O)n1c(C([NH-])=O)cc2ccc(C(F)(F)F)cc21)C(=O)CO

>  <Energy>  (89) 
81.19685698255444

>  <Genealogy>  (89) 
C[NH+](CC(=O)n1c(C([NH-])=O)cc2ccc(C(F)(F)F)cc21)C(=O)CO (protonated)
C[N@@H+](CC(=O)n1c(C([NH-])=O)cc2ccc(C(F)(F)F)cc21)C(=O)CO (chirality)
C[N@@H+](CC(=O)n1c(C([NH-])=O)cc2ccc(C(F)(F)F)cc21)C(=O)CO (3D coordinates assigned)
C[N@@H+](CC(=O)n1c(C([NH-])=O)cc2ccc(C(F)(F)F)cc21)C(=O)CO (optimized conformer: 81.19685698255444 kcal/mol)

>  <smiles>  (89) 
CN(CC(=O)n1c(C(N)=O)cc2ccc(C(F)(F)F)cc21)C(=O)CO

>  <score_type>  (89) 
oracle

>  <origin>  (89) 
adg

>  <m_score__min__energy>  (89) 
-6.4100000000000001

>  <m_primary>  (89) 
energy

$$$$
89:0
     RDKit          3D

 53 56  0  0  0  0  0  0  0  0999 V2000
  138.8070  158.0090  131.7300 N   0  0  0  0  0  0  0  0  0  0  0  0
  139.9390  158.6400  132.3250 C   0  0  0  0  0  0  0  0  0  0  0  0
  140.6140  159.4590  131.6460 O   0  0  0  0  0  0  0  0  0  0  0  0
  140.3060  158.3780  133.7330 C   0  0  0  0  0  0  0  0  0  0  0  0
  140.5710  159.3860  134.6590 C   0  0  0  0  0  0  0  0  0  0  0  0
  140.8050  158.7350  135.8500 C   0  0  0  0  0  0  0  0  0  0  0  0
  141.1360  159.2490  137.0990 C   0  0  0  0  0  0  0  0  0  0  0  0
  141.3530  158.3390  138.1480 C   0  0  0  0  0  0  0  0  0  0  0  0
  141.2280  156.9420  137.9340 C   0  0  0  0  0  0  0  0  0  0  0  0
  141.5200  155.9710  139.0500 C   0  0  0  0  0  0  0  0  0  0  0  0
  140.3580  155.3520  139.4790 F   0  0  0  0  0  0  0  0  0  0  0  0
  142.0830  156.6540  140.1120 F   0  0  0  0  0  0  0  0  0  0  0  0
  142.4010  154.9920  138.6250 F   0  0  0  0  0  0  0  0  0  0  0  0
  140.9170  156.4600  136.6420 C   0  0  0  0  0  0  0  0  0  0  0  0
  140.6870  157.3900  135.6220 C   0  0  0  0  0  0  0  0  0  0  0  0
  140.3770  157.1540  134.3280 N   0  0  0  0  0  0  0  0  0  0  0  0
  140.2190  155.8680  133.7040 C   0  0  0  0  0  0  0  0  0  0  0  0
  139.1200  155.5690  133.1650 O   0  0  0  0  0  0  0  0  0  0  0  0
  141.3460  154.8830  133.6560 C   0  0  0  0  0  0  0  0  0  0  0  0
  142.3610  155.2520  134.5870 O   0  0  0  0  0  0  0  0  0  0  0  0
  143.5660  155.8800  134.2430 C   0  0  0  0  0  0  0  0  0  0  0  0
  144.8220  155.3200  134.5370 C   0  0  0  0  0  0  0  0  0  0  0  0
  145.9940  155.9860  134.1690 C   0  0  0  0  0  0  0  0  0  0  0  0
  145.9330  157.2190  133.4980 C   0  0  0  0  0  0  0  0  0  0  0  0
  147.1420  157.9120  133.1320 N   0  0  0  0  0  0  0  0  0  0  0  0
  148.4180  157.1880  133.0700 C   0  0  0  0  0  0  0  0  0  0  0  0
  149.4530  157.9810  132.2610 C   0  0  0  0  0  0  0  0  0  0  0  0
  148.8090  158.6260  131.1070 N   0  0  0  0  0  0  0  0  0  0  0  0
  147.8230  159.6540  131.5060 C   0  0  0  0  0  0  0  0  0  0  0  0
  147.1340  159.3540  132.8540 C   0  0  0  0  0  0  0  0  0  0  0  0
  144.6770  157.7790  133.2140 C   0  0  0  0  0  0  0  0  0  0  0  0
  143.5050  157.1120  133.5820 C   0  0  0  0  0  0  0  0  0  0  0  0
  138.2430  157.3090  132.2600 H   0  0  0  0  0  0  0  0  0  0  0  0
  140.5893  160.4707  134.4771 H   0  0  0  0  0  0  0  0  0  0  0  0
  141.2252  160.3334  137.2609 H   0  0  0  0  0  0  0  0  0  0  0  0
  141.6228  158.7142  139.1462 H   0  0  0  0  0  0  0  0  0  0  0  0
  140.8572  155.3798  136.4432 H   0  0  0  0  0  0  0  0  0  0  0  0
  140.9656  153.8827  133.9103 H   0  0  0  0  0  0  0  0  0  0  0  0
  141.7735  154.8751  132.6425 H   0  0  0  0  0  0  0  0  0  0  0  0
  144.8821  154.3536  135.0589 H   0  0  0  0  0  0  0  0  0  0  0  0
  146.9718  155.5416  134.4064 H   0  0  0  0  0  0  0  0  0  0  0  0
  148.7972  157.0365  134.0914 H   0  0  0  0  0  0  0  0  0  0  0  0
  148.2511  156.2189  132.5771 H   0  0  0  0  0  0  0  0  0  0  0  0
  149.9035  158.7518  132.9036 H   0  0  0  0  0  0  0  0  0  0  0  0
  150.2307  157.2921  131.8996 H   0  0  0  0  0  0  0  0  0  0  0  0
  148.3350  157.8950  130.5250 H   0  0  0  0  0  0  0  0  0  0  0  0
  149.5470  159.0750  130.5160 H   0  0  0  0  0  0  0  0  0  0  0  0
  148.3412  160.6209  131.5872 H   0  0  0  0  0  0  0  0  0  0  0  0
  147.0375  159.6658  130.7361 H   0  0  0  0  0  0  0  0  0  0  0  0
  147.6698  159.8797  133.6581 H   0  0  0  0  0  0  0  0  0  0  0  0
  146.0905  159.6981  132.8019 H   0  0  0  0  0  0  0  0  0  0  0  0
  144.6150  158.7488  132.6986 H   0  0  0  0  0  0  0  0  0  0  0  0
  142.5270  157.5590  133.3502 H   0  0  0  0  0  0  0  0  0  0  0  0
  1  2  1  0
  2  3  2  0
  2  4  1  0
  4  5  2  0
  5  6  1  0
  6  7  2  0
  7  8  1  0
  8  9  2  0
  9 10  1  0
 10 11  1  0
 10 12  1  0
 10 13  1  0
  9 14  1  0
 14 15  2  0
 15 16  1  0
 16 17  1  0
 17 18  2  0
 17 19  1  0
 19 20  1  0
 20 21  1  0
 21 22  2  0
 22 23  1  0
 23 24  2  0
 24 25  1  0
 25 26  1  0
 26 27  1  0
 27 28  1  0
 28 29  1  0
 29 30  1  0
 24 31  1  0
 31 32  2  0
 16  4  1  0
 32 21  1  0
 15  6  1  0
 30 25  1  0
  1 33  1  0
  5 34  1  0
  7 35  1  0
  8 36  1  0
 14 37  1  0
 19 38  1  0
 19 39  1  0
 22 40  1  0
 23 41  1  0
 26 42  1  0
 26 43  1  0
 27 44  1  0
 27 45  1  0
 28 46  1  0
 28 47  1  0
 29 48  1  0
 29 49  1  0
 30 50  1  0
 30 51  1  0
 31 52  1  0
 32 53  1  0
M  CHG  2   1  -1  28   1
M  END
>  <UniqueID>  (90) 
89

>  <SMILES>  (90) 
[NH-]C(=O)c1cc2ccc(C(F)(F)F)cc2n1C(=O)COc1ccc(N2CC[NH2+]CC2)cc1

>  <Energy>  (90) 
103.32716542718947

>  <Genealogy>  (90) 
[NH-]C(=O)c1cc2ccc(C(F)(F)F)cc2n1C(=O)COc1ccc(N2CC[NH2+]CC2)cc1 (protonated)
[NH-]C(=O)c1cc2ccc(C(F)(F)F)cc2n1C(=O)COc1ccc(N2CC[NH2+]CC2)cc1 (3D coordinates assigned)
[NH-]C(=O)c1cc2ccc(C(F)(F)F)cc2n1C(=O)COc1ccc(N2CC[NH2+]CC2)cc1 (nonaromatic ring conformer: 103.32716542718947 kcal/mol)

>  <smiles>  (90) 
NC(=O)c1cc2ccc(C(F)(F)F)cc2n1C(=O)COc1ccc(N2CCNCC2)cc1

>  <score_type>  (90) 
oracle

>  <origin>  (90) 
adg

>  <m_score__min__energy>  (90) 
-7.7000000000000002

>  <m_primary>  (90) 
energy

$$$$
90:0
     RDKit          3D

 41 42  0  0  0  0  0  0  0  0999 V2000
  149.1090  161.7230  130.3820 C   0  0  0  0  0  0  0  0  0  0  0  0
  148.9200  160.4350  131.1290 C   0  0  0  0  0  0  0  0  0  0  0  0
  149.9980  159.5260  131.2670 C   0  0  0  0  0  0  0  0  0  0  0  0
  149.8380  158.3290  131.9860 C   0  0  0  0  0  0  0  0  0  0  0  0
  148.5990  158.0810  132.5690 C   0  0  0  0  0  0  0  0  0  0  0  0
  148.1630  156.9970  133.2990 C   0  0  0  0  0  0  0  0  0  0  0  0
  146.8360  157.2790  133.6210 C   0  0  0  0  0  0  0  0  0  0  0  0
  145.9820  156.3950  134.4420 C   0  0  0  0  0  0  0  0  0  0  0  0
  144.6230  156.7470  134.6880 N   0  0  0  0  0  0  0  0  0  0  0  0
  146.4350  155.3190  134.9160 O   0  0  0  0  0  0  0  0  0  0  0  0
  146.4700  158.4900  133.1150 N   0  0  0  0  0  0  0  0  0  0  0  0
  145.1800  159.1160  133.1880 C   0  0  0  0  0  0  0  0  0  0  0  0
  144.1910  158.5750  132.6260 O   0  0  0  0  0  0  0  0  0  0  0  0
  144.9970  160.3770  133.9200 C   0  0  0  0  0  0  0  0  0  0  0  0
  145.9480  161.2020  133.9980 O   0  0  0  0  0  0  0  0  0  0  0  0
  143.7690  160.6470  134.5310 O   0  0  0  0  0  0  0  0  0  0  0  0
  142.5580  160.8310  133.8010 C   0  0  0  0  0  0  0  0  0  0  0  0
  141.6800  159.6150  133.9350 C   0  0  0  0  0  0  0  0  0  0  0  0
  140.5220  159.6790  133.5430 O   0  0  0  0  0  0  0  0  0  0  0  0
  142.1850  158.3880  134.5210 N   0  0  0  0  0  0  0  0  0  0  0  0
  141.7420  157.2230  133.7380 C   0  0  0  0  0  0  0  0  0  0  0  0
  141.7370  158.2760  135.9180 C   0  0  0  0  0  0  0  0  0  0  0  0
  147.5570  158.9650  132.4700 C   0  0  0  0  0  0  0  0  0  0  0  0
  147.6810  160.1550  131.7470 C   0  0  0  0  0  0  0  0  0  0  0  0
  149.2301  162.5484  131.0990 H   0  0  0  0  0  0  0  0  0  0  0  0
  150.0063  161.6519  129.7498 H   0  0  0  0  0  0  0  0  0  0  0  0
  148.2291  161.9127  129.7498 H   0  0  0  0  0  0  0  0  0  0  0  0
  150.9696  159.7594  130.8070 H   0  0  0  0  0  0  0  0  0  0  0  0
  150.6656  157.6112  132.0847 H   0  0  0  0  0  0  0  0  0  0  0  0
  148.7391  156.1000  133.5701 H   0  0  0  0  0  0  0  0  0  0  0  0
  144.3050  157.7410  134.6270 H   0  0  0  0  0  0  0  0  0  0  0  0
  142.0256  161.7089  134.1958 H   0  0  0  0  0  0  0  0  0  0  0  0
  142.7991  160.9843  132.7387 H   0  0  0  0  0  0  0  0  0  0  0  0
  143.2330  158.3950  134.5180 H   0  0  0  0  0  0  0  0  0  0  0  0
  141.4356  156.4171  134.4211 H   0  0  0  0  0  0  0  0  0  0  0  0
  140.8902  157.5098  133.1039 H   0  0  0  0  0  0  0  0  0  0  0  0
  142.5692  156.8714  133.1039 H   0  0  0  0  0  0  0  0  0  0  0  0
  142.5806  158.4869  136.5916 H   0  0  0  0  0  0  0  0  0  0  0  0
  140.9299  159.0000  136.1034 H   0  0  0  0  0  0  0  0  0  0  0  0
  141.3655  157.2574  136.1034 H   0  0  0  0  0  0  0  0  0  0  0  0
  146.8364  160.8546  131.6616 H   0  0  0  0  0  0  0  0  0  0  0  0
  1  2  1  0
  2  3  2  0
  3  4  1  0
  4  5  2  0
  5  6  1  0
  6  7  2  0
  7  8  1  0
  8  9  1  0
  8 10  2  0
  7 11  1  0
 11 12  1  0
 12 13  2  0
 12 14  1  0
 14 15  2  0
 14 16  1  0
 16 17  1  0
 17 18  1  0
 18 19  2  0
 18 20  1  0
 20 21  1  0
 20 22  1  0
 11 23  1  0
 23 24  2  0
 24  2  1  0
 23  5  1  0
  1 25  1  0
  1 26  1  0
  1 27  1  0
  3 28  1  0
  4 29  1  0
  6 30  1  0
  9 31  1  0
 17 32  1  0
 17 33  1  0
 20 34  1  0
 21 35  1  0
 21 36  1  0
 21 37  1  0
 22 38  1  0
 22 39  1  0
 22 40  1  0
 24 41  1  0
M  CHG  2   9  -1  20   1
M  END
>  <UniqueID>  (91) 
90

>  <SMILES>  (91) 
Cc1ccc2cc(C([NH-])=O)n(C(=O)C(=O)OCC(=O)[NH+](C)C)c2c1

>  <Energy>  (91) 
75.62099882811688

>  <Genealogy>  (91) 
Cc1ccc2cc(C([NH-])=O)n(C(=O)C(=O)OCC(=O)[NH+](C)C)c2c1 (protonated)
Cc1ccc2cc(C([NH-])=O)n(C(=O)C(=O)OCC(=O)[NH+](C)C)c2c1 (3D coordinates assigned)
Cc1ccc2cc(C([NH-])=O)n(C(=O)C(=O)OCC(=O)[NH+](C)C)c2c1 (optimized conformer: 75.62099882811688 kcal/mol)

>  <smiles>  (91) 
Cc1ccc2cc(C(N)=O)n(C(=O)C(=O)OCC(=O)N(C)C)c2c1

>  <score_type>  (91) 
oracle

>  <origin>  (91) 
adg

>  <m_score__min__energy>  (91) 
-5.3799999999999999

>  <m_primary>  (91) 
energy

$$$$
91:0
     RDKit          3D

 40 42  0  0  0  0  0  0  0  0999 V2000
  139.3080  149.4070  131.1290 C   0  0  0  0  0  0  0  0  0  0  0  0
  139.8140  150.5490  131.8100 O   0  0  0  0  0  0  0  0  0  0  0  0
  140.7450  150.4560  132.8490 C   0  0  0  0  0  0  0  0  0  0  0  0
  140.6210  149.5730  133.7430 O   0  0  0  0  0  0  0  0  0  0  0  0
  141.8720  151.3930  132.8970 C   0  0  0  0  0  0  0  0  0  0  0  0
  141.6590  152.6970  133.2120 N   0  0  0  0  0  0  0  0  0  0  0  0
  142.6850  153.5850  133.2610 C   0  0  0  0  0  0  0  0  0  0  0  0
  143.9950  153.1660  132.9880 C   0  0  0  0  0  0  0  0  0  0  0  0
  145.1340  154.1180  133.0360 C   0  0  0  0  0  0  0  0  0  0  0  0
  146.4700  153.6400  132.9850 C   0  0  0  0  0  0  0  0  0  0  0  0
  147.5540  154.5330  133.0170 C   0  0  0  0  0  0  0  0  0  0  0  0
  147.2790  155.8930  133.1110 C   0  0  0  0  0  0  0  0  0  0  0  0
  148.1360  156.9690  133.1230 C   0  0  0  0  0  0  0  0  0  0  0  0
  147.3160  158.0900  133.2140 C   0  0  0  0  0  0  0  0  0  0  0  0
  147.8350  159.4680  133.3170 C   0  0  0  0  0  0  0  0  0  0  0  0
  147.1680  160.5590  132.6810 N   0  0  0  0  0  0  0  0  0  0  0  0
  148.8520  159.6950  134.0250 O   0  0  0  0  0  0  0  0  0  0  0  0
  146.0030  157.7270  133.2420 N   0  0  0  0  0  0  0  0  0  0  0  0
  144.8590  158.5970  133.2110 C   0  0  0  0  0  0  0  0  0  0  0  0
  143.8100  158.2410  132.6090 O   0  0  0  0  0  0  0  0  0  0  0  0
  144.9160  159.8400  133.8500 O   0  0  0  0  0  0  0  0  0  0  0  0
  143.7760  160.6750  134.0060 C   0  0  0  0  0  0  0  0  0  0  0  0
  145.9970  156.3750  133.1820 C   0  0  0  0  0  0  0  0  0  0  0  0
  144.8970  155.5100  133.1300 C   0  0  0  0  0  0  0  0  0  0  0  0
  144.1900  151.8140  132.6660 C   0  0  0  0  0  0  0  0  0  0  0  0
  143.1330  150.9620  132.6260 N   0  0  0  0  0  0  0  0  0  0  0  0
  138.9765  148.6588  131.8640 H   0  0  0  0  0  0  0  0  0  0  0  0
  138.4570  149.7034  130.4982 H   0  0  0  0  0  0  0  0  0  0  0  0
  140.0993  148.9758  130.4982 H   0  0  0  0  0  0  0  0  0  0  0  0
  142.4878  154.6368  133.5157 H   0  0  0  0  0  0  0  0  0  0  0  0
  146.6584  152.5582  132.9197 H   0  0  0  0  0  0  0  0  0  0  0  0
  148.5903  154.1671  132.9691 H   0  0  0  0  0  0  0  0  0  0  0  0
  149.2346  156.9480  133.0717 H   0  0  0  0  0  0  0  0  0  0  0  0
  147.5720  161.5220  132.7310 H   0  0  0  0  0  0  0  0  0  0  0  0
  146.2360  160.4320  132.2280 H   0  0  0  0  0  0  0  0  0  0  0  0
  143.5738  160.8231  135.0771 H   0  0  0  0  0  0  0  0  0  0  0  0
  143.9668  161.6486  133.5308 H   0  0  0  0  0  0  0  0  0  0  0  0
  142.9054  160.1994  133.5308 H   0  0  0  0  0  0  0  0  0  0  0  0
  143.8705  155.9041  133.1616 H   0  0  0  0  0  0  0  0  0  0  0  0
  145.2019  151.4432  132.4454 H   0  0  0  0  0  0  0  0  0  0  0  0
  1  2  1  0
  2  3  1  0
  3  4  2  0
  3  5  1  0
  5  6  2  0
  6  7  1  0
  7  8  2  0
  8  9  1  0
  9 10  2  0
 10 11  1  0
 11 12  2  0
 12 13  1  0
 13 14  2  0
 14 15  1  0
 15 16  1  0
 15 17  2  0
 14 18  1  0
 18 19  1  0
 19 20  2  0
 19 21  1  0
 21 22  1  0
 18 23  1  0
 23 24  2  0
  8 25  1  0
 25 26  2  0
 26  5  1  0
 24  9  1  0
 23 12  1  0
  1 27  1  0
  1 28  1  0
  1 29  1  0
  7 30  1  0
 10 31  1  0
 11 32  1  0
 13 33  1  0
 16 34  1  0
 16 35  1  0
 22 36  1  0
 22 37  1  0
 22 38  1  0
 24 39  1  0
 25 40  1  0
M  END
>  <UniqueID>  (92) 
91

>  <SMILES>  (92) 
COC(=O)c1ncc(-c2ccc3cc(C(N)=O)n(C(=O)OC)c3c2)cn1

>  <Energy>  (92) 
82.69711469429288

>  <Genealogy>  (92) 
COC(=O)c1ncc(-c2ccc3cc(C(N)=O)n(C(=O)OC)c3c2)cn1 (3D coordinates assigned)
COC(=O)c1ncc(-c2ccc3cc(C(N)=O)n(C(=O)OC)c3c2)cn1 (optimized conformer: 82.69711469429288 kcal/mol)

>  <smiles>  (92) 
COC(=O)c1ncc(-c2ccc3cc(C(N)=O)n(C(=O)OC)c3c2)cn1

>  <score_type>  (92) 
oracle

>  <origin>  (92) 
adg

>  <m_score__min__energy>  (92) 
-7.0599999999999996

>  <m_primary>  (92) 
energy

$$$$
92:0
     RDKit          3D

 62 66  0  0  0  0  0  0  0  0999 V2000
  144.4260  154.3030  131.3190 C   0  0  0  0  0  0  0  0  0  0  0  0
  144.6590  153.4680  132.3400 C   0  0  0  0  0  0  0  0  0  0  0  0
  143.9610  152.2550  132.4450 O   0  0  0  0  0  0  0  0  0  0  0  0
  142.8380  152.0650  133.2640 C   0  0  0  0  0  0  0  0  0  0  0  0
  142.3390  150.9180  133.3980 O   0  0  0  0  0  0  0  0  0  0  0  0
  142.2610  153.2040  134.0050 C   0  0  0  0  0  0  0  0  0  0  0  0
  142.5180  153.3610  135.3730 C   0  0  0  0  0  0  0  0  0  0  0  0
  142.0650  154.5010  136.0350 C   0  0  0  0  0  0  0  0  0  0  0  0
  141.3870  155.4860  135.3650 N   0  0  0  0  0  0  0  0  0  0  0  0
  141.0180  156.6450  136.0050 C   0  0  0  0  0  0  0  0  0  0  0  0
  141.2660  156.8000  137.2350 O   0  0  0  0  0  0  0  0  0  0  0  0
  140.3650  157.6760  135.3000 C   0  0  0  0  0  0  0  0  0  0  0  0
  140.1000  158.9600  135.9750 C   0  0  0  0  0  0  0  0  0  0  0  0
  140.9710  159.8740  135.9770 O   0  0  0  0  0  0  0  0  0  0  0  0
  140.0640  157.4680  133.9360 C   0  0  0  0  0  0  0  0  0  0  0  0
  139.5020  158.5000  133.1010 N   0  0  0  0  0  0  0  0  0  0  0  0
  140.3010  159.7280  132.9290 C   0  0  0  0  0  0  0  0  0  0  0  0
  139.5560  160.8550  132.1780 C   0  0  0  0  0  0  0  0  0  0  0  0
  138.2160  160.5400  131.8530 O   0  0  0  0  0  0  0  0  0  0  0  0
  138.1740  159.3020  131.1830 C   0  0  0  0  0  0  0  0  0  0  0  0
  138.3810  158.1870  132.2000 C   0  0  0  0  0  0  0  0  0  0  0  0
  140.4500  156.3050  133.3490 N   0  0  0  0  0  0  0  0  0  0  0  0
  141.0990  155.3290  134.0280 C   0  0  0  0  0  0  0  0  0  0  0  0
  141.5180  154.1820  133.3370 C   0  0  0  0  0  0  0  0  0  0  0  0
  145.6890  153.7790  133.3550 C   0  0  0  0  0  0  0  0  0  0  0  0
  145.7660  153.0770  134.4010 O   0  0  0  0  0  0  0  0  0  0  0  0
  146.6070  154.8650  133.1630 N   0  0  0  0  0  0  0  0  0  0  0  0
  147.9470  154.8190  132.9030 C   0  0  0  0  0  0  0  0  0  0  0  0
  148.7850  153.6130  132.6920 C   0  0  0  0  0  0  0  0  0  0  0  0
  148.3880  152.2950  133.1010 N   0  0  0  0  0  0  0  0  0  0  0  0
  149.9230  153.7640  132.1680 O   0  0  0  0  0  0  0  0  0  0  0  0
  148.4690  156.1150  132.8430 C   0  0  0  0  0  0  0  0  0  0  0  0
  147.4060  156.9530  133.0920 C   0  0  0  0  0  0  0  0  0  0  0  0
  147.3430  158.3420  133.1290 C   0  0  0  0  0  0  0  0  0  0  0  0
  146.0850  158.9410  133.3440 C   0  0  0  0  0  0  0  0  0  0  0  0
  144.9260  158.1460  133.5490 C   0  0  0  0  0  0  0  0  0  0  0  0
  143.5690  158.7960  133.6850 C   0  0  0  0  0  0  0  0  0  0  0  0
  142.6560  158.2040  132.8270 F   0  0  0  0  0  0  0  0  0  0  0  0
  143.1250  158.6560  134.9860 F   0  0  0  0  0  0  0  0  0  0  0  0
  143.6430  160.1450  133.3800 F   0  0  0  0  0  0  0  0  0  0  0  0
  145.0370  156.7360  133.5040 C   0  0  0  0  0  0  0  0  0  0  0  0
  146.2970  156.1710  133.2810 C   0  0  0  0  0  0  0  0  0  0  0  0
  144.9790  155.2511  131.2467 H   0  0  0  0  0  0  0  0  0  0  0  0
  143.6817  154.0406  130.5528 H   0  0  0  0  0  0  0  0  0  0  0  0
  143.0750  152.5879  135.9226 H   0  0  0  0  0  0  0  0  0  0  0  0
  142.2548  154.6120  137.1128 H   0  0  0  0  0  0  0  0  0  0  0  0
  139.1366  159.1227  136.4804 H   0  0  0  0  0  0  0  0  0  0  0  0
  140.5823  160.1014  133.9247 H   0  0  0  0  0  0  0  0  0  0  0  0
  141.1757  159.4591  132.3186 H   0  0  0  0  0  0  0  0  0  0  0  0
  139.5562  161.7531  132.8131 H   0  0  0  0  0  0  0  0  0  0  0  0
  140.0868  161.0095  131.2270 H   0  0  0  0  0  0  0  0  0  0  0  0
  137.1966  159.1794  130.6935 H   0  0  0  0  0  0  0  0  0  0  0  0
  138.9646  159.2631  130.4191 H   0  0  0  0  0  0  0  0  0  0  0  0
  137.4635  158.0670  132.7948 H   0  0  0  0  0  0  0  0  0  0  0  0
  138.6129  157.2571  131.6600 H   0  0  0  0  0  0  0  0  0  0  0  0
  141.2632  154.0529  132.2748 H   0  0  0  0  0  0  0  0  0  0  0  0
  147.5760  152.1140  133.7240 H   0  0  0  0  0  0  0  0  0  0  0  0
  148.9920  151.4770  132.8660 H   0  0  0  0  0  0  0  0  0  0  0  0
  149.5107  156.4040  132.6395 H   0  0  0  0  0  0  0  0  0  0  0  0
  148.2469  158.9543  132.9946 H   0  0  0  0  0  0  0  0  0  0  0  0
  146.0000  160.0377  133.3531 H   0  0  0  0  0  0  0  0  0  0  0  0
  144.1515  156.0980  133.6414 H   0  0  0  0  0  0  0  0  0  0  0  0
  1  2  2  0
  2  3  1  0
  3  4  1  0
  4  5  2  0
  4  6  1  0
  6  7  1  0
  7  8  2  0
  8  9  1  0
  9 10  1  0
 10 11  2  0
 10 12  1  0
 12 13  1  0
 13 14  2  0
 12 15  2  0
 15 16  1  0
 16 17  1  0
 17 18  1  0
 18 19  1  0
 19 20  1  0
 20 21  1  0
 15 22  1  0
 22 23  2  0
 23 24  1  0
  2 25  1  0
 25 26  2  0
 25 27  1  0
 27 28  1  0
 28 29  1  0
 29 30  1  0
 29 31  2  0
 28 32  2  0
 32 33  1  0
 33 34  2  0
 34 35  1  0
 35 36  2  0
 36 37  1  0
 37 38  1  0
 37 39  1  0
 37 40  1  0
 36 41  1  0
 41 42  2  0
 24  6  2  0
 42 27  1  0
 23  9  1  0
 42 33  1  0
 21 16  1  0
  1 43  1  0
  1 44  1  0
  7 45  1  0
  8 46  1  0
 13 47  1  0
 17 48  1  0
 17 49  1  0
 18 50  1  0
 18 51  1  0
 20 52  1  0
 20 53  1  0
 21 54  1  0
 21 55  1  0
 24 56  1  0
 30 57  1  0
 30 58  1  0
 32 59  1  0
 34 60  1  0
 35 61  1  0
 41 62  1  0
M  END
>  <UniqueID>  (93) 
92

>  <SMILES>  (93) 
C=C(OC(=O)c1ccn2c(=O)c(C=O)c(N3CCOCC3)nc2c1)C(=O)n1c(C(N)=O)cc2ccc(C(F)(F)F)cc21

>  <Energy>  (93) 
143.9755552422313

>  <Genealogy>  (93) 
C=C(OC(=O)c1ccn2c(=O)c(C=O)c(N3CCOCC3)nc2c1)C(=O)n1c(C(N)=O)cc2ccc(C(F)(F)F)cc21 (3D coordinates assigned)
C=C(OC(=O)c1ccn2c(=O)c(C=O)c(N3CCOCC3)nc2c1)C(=O)n1c(C(N)=O)cc2ccc(C(F)(F)F)cc21 (nonaromatic ring conformer: 143.9755552422313 kcal/mol)

>  <smiles>  (93) 
C=C(OC(=O)c1ccn2c(=O)c(C=O)c(N3CCOCC3)nc2c1)C(=O)n1c(C(N)=O)cc2ccc(C(F)(F)F)cc21

>  <score_type>  (93) 
oracle

>  <origin>  (93) 
adg

>  <m_score__min__energy>  (93) 
-9.7400000000000002

>  <m_primary>  (93) 
energy

$$$$
93:0
     RDKit          3D

 43 45  0  0  0  0  0  0  0  0999 V2000
  148.6560  154.8650  132.6280 C   0  0  0  0  0  0  0  0  0  0  0  0
  148.2520  156.3030  132.7940 C   0  0  0  0  0  0  0  0  0  0  0  0
  149.2120  157.3300  132.6150 C   0  0  0  0  0  0  0  0  0  0  0  0
  148.8420  158.6810  132.7300 C   0  0  0  0  0  0  0  0  0  0  0  0
  147.5130  158.9720  133.0210 C   0  0  0  0  0  0  0  0  0  0  0  0
  146.8780  160.1860  133.1570 C   0  0  0  0  0  0  0  0  0  0  0  0
  145.5460  159.8800  133.4300 C   0  0  0  0  0  0  0  0  0  0  0  0
  144.5250  160.9050  133.7300 C   0  0  0  0  0  0  0  0  0  0  0  0
  143.1590  160.7060  133.3750 N   0  0  0  0  0  0  0  0  0  0  0  0
  144.8540  161.9490  134.3570 O   0  0  0  0  0  0  0  0  0  0  0  0
  145.3630  158.5310  133.4580 N   0  0  0  0  0  0  0  0  0  0  0  0
  144.1300  157.8120  133.6290 C   0  0  0  0  0  0  0  0  0  0  0  0
  143.9210  157.1650  134.6940 O   0  0  0  0  0  0  0  0  0  0  0  0
  143.1860  157.7870  132.5970 O   0  0  0  0  0  0  0  0  0  0  0  0
  141.8170  157.4840  132.8340 C   0  0  0  0  0  0  0  0  0  0  0  0
  141.1790  158.5730  133.6480 C   0  0  0  0  0  0  0  0  0  0  0  0
  140.7360  159.5930  133.0500 O   0  0  0  0  0  0  0  0  0  0  0  0
  141.0770  158.4820  135.0860 N   0  0  0  0  0  0  0  0  0  0  0  0
  141.1890  157.1830  135.7650 C   0  0  0  0  0  0  0  0  0  0  0  0
  140.5340  157.2450  137.1490 C   0  0  0  0  0  0  0  0  0  0  0  0
  141.0180  158.3480  137.8860 O   0  0  0  0  0  0  0  0  0  0  0  0
  140.6110  159.5510  137.2610 C   0  0  0  0  0  0  0  0  0  0  0  0
  141.2680  159.7010  135.8840 C   0  0  0  0  0  0  0  0  0  0  0  0
  146.5750  157.9880  133.2060 C   0  0  0  0  0  0  0  0  0  0  0  0
  146.9110  156.6360  133.0790 C   0  0  0  0  0  0  0  0  0  0  0  0
  148.7856  154.4039  133.6183 H   0  0  0  0  0  0  0  0  0  0  0  0
  147.8744  154.3264  132.0721 H   0  0  0  0  0  0  0  0  0  0  0  0
  149.6038  154.8122  132.0721 H   0  0  0  0  0  0  0  0  0  0  0  0
  150.2550  157.0677  132.3842 H   0  0  0  0  0  0  0  0  0  0  0  0
  149.5811  159.4843  132.5940 H   0  0  0  0  0  0  0  0  0  0  0  0
  147.3271  161.1863  133.0688 H   0  0  0  0  0  0  0  0  0  0  0  0
  142.8790  159.9460  132.7140 H   0  0  0  0  0  0  0  0  0  0  0  0
  141.2924  157.3950  131.8712 H   0  0  0  0  0  0  0  0  0  0  0  0
  141.7495  156.5355  133.3871 H   0  0  0  0  0  0  0  0  0  0  0  0
  140.6865  156.4136  135.1604 H   0  0  0  0  0  0  0  0  0  0  0  0
  142.2537  156.9340  135.8851 H   0  0  0  0  0  0  0  0  0  0  0  0
  139.4450  157.3424  137.0281 H   0  0  0  0  0  0  0  0  0  0  0  0
  140.7786  156.3222  137.6955 H   0  0  0  0  0  0  0  0  0  0  0  0
  139.5178  159.5418  137.1394 H   0  0  0  0  0  0  0  0  0  0  0  0
  140.9201  160.3972  137.8922 H   0  0  0  0  0  0  0  0  0  0  0  0
  140.8137  160.5531  135.3573 H   0  0  0  0  0  0  0  0  0  0  0  0
  142.3462  159.8705  136.0213 H   0  0  0  0  0  0  0  0  0  0  0  0
  146.1486  155.8521  133.1984 H   0  0  0  0  0  0  0  0  0  0  0  0
  1  2  1  0
  2  3  2  0
  3  4  1  0
  4  5  2  0
  5  6  1  0
  6  7  2  0
  7  8  1  0
  8  9  1  0
  8 10  2  0
  7 11  1  0
 11 12  1  0
 12 13  2  0
 12 14  1  0
 14 15  1  0
 15 16  1  0
 16 17  2  0
 16 18  1  0
 18 19  1  0
 19 20  1  0
 20 21  1  0
 21 22  1  0
 22 23  1  0
 11 24  1  0
 24 25  2  0
 25  2  1  0
 24  5  1  0
 23 18  1  0
  1 26  1  0
  1 27  1  0
  1 28  1  0
  3 29  1  0
  4 30  1  0
  6 31  1  0
  9 32  1  0
 15 33  1  0
 15 34  1  0
 19 35  1  0
 19 36  1  0
 20 37  1  0
 20 38  1  0
 22 39  1  0
 22 40  1  0
 23 41  1  0
 23 42  1  0
 25 43  1  0
M  CHG  1   9  -1
M  END
>  <UniqueID>  (94) 
93

>  <SMILES>  (94) 
Cc1ccc2cc(C([NH-])=O)n(C(=O)OCC(=O)N3CCOCC3)c2c1

>  <Energy>  (94) 
82.61481836355269

>  <Genealogy>  (94) 
Cc1ccc2cc(C([NH-])=O)n(C(=O)OCC(=O)N3CCOCC3)c2c1 (protonated)
Cc1ccc2cc(C([NH-])=O)n(C(=O)OCC(=O)N3CCOCC3)c2c1 (3D coordinates assigned)
Cc1ccc2cc(C([NH-])=O)n(C(=O)OCC(=O)N3CCOCC3)c2c1 (nonaromatic ring conformer: 82.61481836355269 kcal/mol)

>  <smiles>  (94) 
Cc1ccc2cc(C(N)=O)n(C(=O)OCC(=O)N3CCOCC3)c2c1

>  <score_type>  (94) 
oracle

>  <origin>  (94) 
adg

>  <m_score__min__energy>  (94) 
-7.7999999999999998

>  <m_primary>  (94) 
energy

$$$$
94:0
     RDKit          3D

 36 37  0  0  0  0  0  0  0  0999 V2000
  147.7030  154.9980  132.6260 C   0  0  0  0  0  0  0  0  0  0  0  0
  147.5760  156.4800  132.8130 C   0  0  0  0  0  0  0  0  0  0  0  0
  148.7280  157.3030  132.7700 C   0  0  0  0  0  0  0  0  0  0  0  0
  148.6250  158.6890  132.9690 C   0  0  0  0  0  0  0  0  0  0  0  0
  147.3640  159.2190  133.2290 C   0  0  0  0  0  0  0  0  0  0  0  0
  146.9780  160.5230  133.4360 C   0  0  0  0  0  0  0  0  0  0  0  0
  145.6020  160.4720  133.6440 C   0  0  0  0  0  0  0  0  0  0  0  0
  144.7880  161.6560  133.9920 C   0  0  0  0  0  0  0  0  0  0  0  0
  143.3880  161.6880  133.7270 N   0  0  0  0  0  0  0  0  0  0  0  0
  145.3280  162.6330  134.5770 O   0  0  0  0  0  0  0  0  0  0  0  0
  145.1510  159.1890  133.5600 N   0  0  0  0  0  0  0  0  0  0  0  0
  143.7920  158.7320  133.6170 C   0  0  0  0  0  0  0  0  0  0  0  0
  143.2870  158.1460  132.6190 O   0  0  0  0  0  0  0  0  0  0  0  0
  143.0330  158.9620  134.7720 O   0  0  0  0  0  0  0  0  0  0  0  0
  141.6720  159.2890  134.7910 C   0  0  0  0  0  0  0  0  0  0  0  0
  141.0190  159.2990  135.8710 O   0  0  0  0  0  0  0  0  0  0  0  0
  141.0450  159.6140  133.5830 O   0  0  0  0  0  0  0  0  0  0  0  0
  140.3340  158.6650  132.7880 C   0  0  1  0  0  0  0  0  0  0  0  0
  139.4460  157.8160  133.6930 C   0  0  0  0  0  0  0  0  0  0  0  0
  139.4970  159.3650  131.7560 C   0  0  0  0  0  0  0  0  0  0  0  0
  139.1090  158.7500  130.7280 O   0  0  0  0  0  0  0  0  0  0  0  0
  139.1830  160.7090  131.9120 O   0  0  0  0  0  0  0  0  0  0  0  0
  146.2440  158.4320  133.3070 C   0  0  0  0  0  0  0  0  0  0  0  0
  146.3150  157.0510  133.0950 C   0  0  0  0  0  0  0  0  0  0  0  0
  147.7451  154.5066  133.6093 H   0  0  0  0  0  0  0  0  0  0  0  0
  146.8337  154.6233  132.0658 H   0  0  0  0  0  0  0  0  0  0  0  0
  148.6234  154.7767  132.0658 H   0  0  0  0  0  0  0  0  0  0  0  0
  149.7129  156.8519  132.5789 H   0  0  0  0  0  0  0  0  0  0  0  0
  149.5131  159.3362  132.9210 H   0  0  0  0  0  0  0  0  0  0  0  0
  147.6199  161.4163  133.4370 H   0  0  0  0  0  0  0  0  0  0  0  0
  142.8370  160.8050  133.6440 H   0  0  0  0  0  0  0  0  0  0  0  0
  141.0557  158.0185  132.2671 H   0  0  0  0  0  0  0  0  0  0  0  0
  139.6772  158.0370  134.7455 H   0  0  0  0  0  0  0  0  0  0  0  0
  138.3897  158.0486  133.4930 H   0  0  0  0  0  0  0  0  0  0  0  0
  139.6310  156.7503  133.4930 H   0  0  0  0  0  0  0  0  0  0  0  0
  145.4116  156.4255  133.1466 H   0  0  0  0  0  0  0  0  0  0  0  0
  1  2  1  0
  2  3  2  0
  3  4  1  0
  4  5  2  0
  5  6  1  0
  6  7  2  0
  7  8  1  0
  8  9  1  0
  8 10  2  0
  7 11  1  0
 11 12  1  0
 12 13  2  0
 12 14  1  0
 14 15  1  0
 15 16  2  0
 15 17  1  0
 17 18  1  0
 18 19  1  0
 18 20  1  0
 20 21  2  0
 20 22  1  0
 11 23  1  0
 23 24  2  0
 24  2  1  0
 23  5  1  0
  1 25  1  0
  1 26  1  0
  1 27  1  0
  3 28  1  0
  4 29  1  0
  6 30  1  0
  9 31  1  0
 18 32  1  6
 19 33  1  0
 19 34  1  0
 19 35  1  0
 24 36  1  0
M  CHG  2   9  -1  22  -1
M  END
>  <UniqueID>  (95) 
94

>  <SMILES>  (95) 
Cc1ccc2cc(C([NH-])=O)n(C(=O)OC(=O)O[C@@H](C)C(=O)[O-])c2c1

>  <Energy>  (95) 
71.67449974850574

>  <Genealogy>  (95) 
Cc1ccc2cc(C([NH-])=O)n(C(=O)OC(=O)OC(C)C(=O)[O-])c2c1 (protonated)
Cc1ccc2cc(C([NH-])=O)n(C(=O)OC(=O)O[C@@H](C)C(=O)[O-])c2c1 (chirality)
Cc1ccc2cc(C([NH-])=O)n(C(=O)OC(=O)O[C@@H](C)C(=O)[O-])c2c1 (3D coordinates assigned)
Cc1ccc2cc(C([NH-])=O)n(C(=O)OC(=O)O[C@@H](C)C(=O)[O-])c2c1 (optimized conformer: 71.67449974850574 kcal/mol)

>  <smiles>  (95) 
Cc1ccc2cc(C(N)=O)n(C(=O)OC(=O)OC(C)C(=O)O)c2c1

>  <score_type>  (95) 
oracle

>  <origin>  (95) 
adg

>  <m_score__min__energy>  (95) 
-6.6100000000000003

>  <m_primary>  (95) 
energy

$$$$
95:0
     RDKit          3D

 39 40  0  0  0  0  0  0  0  0999 V2000
  149.6440  150.6660  135.5880 C   0  0  0  0  0  0  0  0  0  0  0  0
  149.0380  151.9130  135.8470 O   0  0  0  0  0  0  0  0  0  0  0  0
  149.2140  152.2420  137.2100 C   0  0  0  0  0  0  0  0  0  0  0  0
  148.1370  153.2390  137.6330 C   0  0  0  0  0  0  0  0  0  0  0  0
  147.0580  153.2840  136.6510 N   0  0  0  0  0  0  0  0  0  0  0  0
  146.7440  154.4410  135.8710 C   0  0  0  0  0  0  0  0  0  0  0  0
  147.4240  155.4970  136.0040 O   0  0  0  0  0  0  0  0  0  0  0  0
  145.6780  154.3770  134.9680 O   0  0  0  0  0  0  0  0  0  0  0  0
  145.7290  154.7940  133.6310 C   0  0  0  0  0  0  0  0  0  0  0  0
  144.8120  154.4820  132.8230 O   0  0  0  0  0  0  0  0  0  0  0  0
  146.8470  155.5750  133.1770 N   0  0  0  0  0  0  0  0  0  0  0  0
  148.1020  155.1270  132.8890 C   0  0  0  0  0  0  0  0  0  0  0  0
  148.5200  153.7130  132.8170 C   0  0  0  0  0  0  0  0  0  0  0  0
  148.0770  152.7610  133.7840 N   0  0  0  0  0  0  0  0  0  0  0  0
  149.2390  153.3280  131.8560 O   0  0  0  0  0  0  0  0  0  0  0  0
  148.9540  156.1910  132.6100 C   0  0  0  0  0  0  0  0  0  0  0  0
  148.1740  157.3190  132.7220 C   0  0  0  0  0  0  0  0  0  0  0  0
  148.5130  158.6590  132.5530 C   0  0  0  0  0  0  0  0  0  0  0  0
  147.5130  159.6220  132.7630 C   0  0  0  0  0  0  0  0  0  0  0  0
  146.2080  159.2340  133.1540 C   0  0  0  0  0  0  0  0  0  0  0  0
  145.1440  160.2720  133.3470 C   0  0  0  0  0  0  0  0  0  0  0  0
  145.8960  157.8640  133.3020 C   0  0  0  0  0  0  0  0  0  0  0  0
  146.9070  156.9230  133.0670 C   0  0  0  0  0  0  0  0  0  0  0  0
  149.8848  150.1705  136.5401 H   0  0  0  0  0  0  0  0  0  0  0  0
  148.9521  150.0349  135.0109 H   0  0  0  0  0  0  0  0  0  0  0  0
  150.5677  150.8200  135.0109 H   0  0  0  0  0  0  0  0  0  0  0  0
  149.1317  151.3312  137.8212 H   0  0  0  0  0  0  0  0  0  0  0  0
  150.2079  152.6904  137.3549 H   0  0  0  0  0  0  0  0  0  0  0  0
  147.7259  152.9343  138.6068 H   0  0  0  0  0  0  0  0  0  0  0  0
  148.5904  154.2386  137.7047 H   0  0  0  0  0  0  0  0  0  0  0  0
  147.3590  153.0130  134.4970 H   0  0  0  0  0  0  0  0  0  0  0  0
  148.4240  151.7770  133.7490 H   0  0  0  0  0  0  0  0  0  0  0  0
  150.0227  156.1411  132.3545 H   0  0  0  0  0  0  0  0  0  0  0  0
  149.5325  158.9539  132.2639 H   0  0  0  0  0  0  0  0  0  0  0  0
  147.7452  160.6880  132.6225 H   0  0  0  0  0  0  0  0  0  0  0  0
  144.9793  160.4327  134.4227 H   0  0  0  0  0  0  0  0  0  0  0  0
  145.4631  161.2154  132.8800 H   0  0  0  0  0  0  0  0  0  0  0  0
  144.2087  159.9297  132.8800 H   0  0  0  0  0  0  0  0  0  0  0  0
  144.8849  157.5443  133.5943 H   0  0  0  0  0  0  0  0  0  0  0  0
  1  2  1  0
  2  3  1  0
  3  4  1  0
  4  5  1  0
  5  6  1  0
  6  7  2  0
  6  8  1  0
  8  9  1  0
  9 10  2  0
  9 11  1  0
 11 12  1  0
 12 13  1  0
 13 14  1  0
 13 15  2  0
 12 16  2  0
 16 17  1  0
 17 18  2  0
 18 19  1  0
 19 20  2  0
 20 21  1  0
 20 22  1  0
 22 23  2  0
 23 11  1  0
 23 17  1  0
  1 24  1  0
  1 25  1  0
  1 26  1  0
  3 27  1  0
  3 28  1  0
  4 29  1  0
  4 30  1  0
 14 31  1  0
 14 32  1  0
 16 33  1  0
 18 34  1  0
 19 35  1  0
 21 36  1  0
 21 37  1  0
 21 38  1  0
 22 39  1  0
M  CHG  1   5  -1
M  END
>  <UniqueID>  (96) 
95

>  <SMILES>  (96) 
COCC[N-]C(=O)OC(=O)n1c(C(N)=O)cc2ccc(C)cc21

>  <Energy>  (96) 
75.36000366166381

>  <Genealogy>  (96) 
COCC[N-]C(=O)OC(=O)n1c(C(N)=O)cc2ccc(C)cc21 (protonated)
COCC[N-]C(=O)OC(=O)n1c(C(N)=O)cc2ccc(C)cc21 (3D coordinates assigned)
COCC[N-]C(=O)OC(=O)n1c(C(N)=O)cc2ccc(C)cc21 (optimized conformer: 75.36000366166381 kcal/mol)

>  <smiles>  (96) 
COCCNC(=O)OC(=O)n1c(C(N)=O)cc2ccc(C)cc21

>  <score_type>  (96) 
oracle

>  <origin>  (96) 
adg

>  <m_score__min__energy>  (96) 
-6.5700000000000003

>  <m_primary>  (96) 
energy

$$$$
96:0
     RDKit          3D

 30 31  0  0  0  0  0  0  0  0999 V2000
  149.6050  157.4970  132.1800 N   0  0  0  0  0  0  0  0  0  0  0  0
  149.1030  158.8040  132.4480 C   0  0  0  0  0  0  0  0  0  0  0  0
  149.8370  159.8030  132.2270 O   0  0  0  0  0  0  0  0  0  0  0  0
  147.7190  159.0040  132.9260 C   0  0  0  0  0  0  0  0  0  0  0  0
  147.1090  160.2550  133.0020 C   0  0  0  0  0  0  0  0  0  0  0  0
  145.8140  160.0050  133.3990 C   0  0  0  0  0  0  0  0  0  0  0  0
  144.7720  160.8900  133.6520 C   0  0  0  0  0  0  0  0  0  0  0  0
  143.5460  160.3560  134.0870 C   0  0  0  0  0  0  0  0  0  0  0  0
  143.3810  158.9560  134.2490 C   0  0  0  0  0  0  0  0  0  0  0  0
  142.0820  158.4020  134.7750 C   0  0  0  0  0  0  0  0  0  0  0  0
  141.1760  158.3010  133.7360 F   0  0  0  0  0  0  0  0  0  0  0  0
  142.2740  157.1480  135.3300 F   0  0  0  0  0  0  0  0  0  0  0  0
  141.5570  159.2310  135.7510 F   0  0  0  0  0  0  0  0  0  0  0  0
  144.4750  158.0930  134.0040 C   0  0  0  0  0  0  0  0  0  0  0  0
  145.6770  158.6510  133.5540 C   0  0  0  0  0  0  0  0  0  0  0  0
  146.8390  158.0220  133.2720 N   0  0  0  0  0  0  0  0  0  0  0  0
  147.0940  156.6150  133.3990 C   0  0  0  0  0  0  0  0  0  0  0  0
  147.0590  155.8750  132.3780 O   0  0  0  0  0  0  0  0  0  0  0  0
  147.4060  156.0760  134.6520 O   0  0  0  0  0  0  0  0  0  0  0  0
  147.6610  154.6910  134.8680 C   0  0  0  0  0  0  0  0  0  0  0  0
  146.6390  154.1130  135.7940 C   0  0  0  0  0  0  0  0  0  0  0  0
  145.4430  154.5030  135.7410 O   0  0  0  0  0  0  0  0  0  0  0  0
  147.0130  153.1640  136.7360 O   0  0  0  0  0  0  0  0  0  0  0  0
  148.9720  156.7370  131.8460 H   0  0  0  0  0  0  0  0  0  0  0  0
  147.5647  161.2335  132.7901 H   0  0  0  0  0  0  0  0  0  0  0  0
  144.9025  161.9738  133.5162 H   0  0  0  0  0  0  0  0  0  0  0  0
  142.7053  161.0313  134.3042 H   0  0  0  0  0  0  0  0  0  0  0  0
  144.3830  157.0085  134.1635 H   0  0  0  0  0  0  0  0  0  0  0  0
  147.6199  154.1601  133.9055 H   0  0  0  0  0  0  0  0  0  0  0  0
  148.6577  154.5770  135.3193 H   0  0  0  0  0  0  0  0  0  0  0  0
  1  2  1  0
  2  3  2  0
  2  4  1  0
  4  5  2  0
  5  6  1  0
  6  7  2  0
  7  8  1  0
  8  9  2  0
  9 10  1  0
 10 11  1  0
 10 12  1  0
 10 13  1  0
  9 14  1  0
 14 15  2  0
 15 16  1  0
 16 17  1  0
 17 18  2  0
 17 19  1  0
 19 20  1  0
 20 21  1  0
 21 22  2  0
 21 23  1  0
 16  4  1  0
 15  6  1  0
  1 24  1  0
  5 25  1  0
  7 26  1  0
  8 27  1  0
 14 28  1  0
 20 29  1  0
 20 30  1  0
M  CHG  2   1  -1  23  -1
M  END
>  <UniqueID>  (97) 
96

>  <SMILES>  (97) 
[NH-]C(=O)c1cc2ccc(C(F)(F)F)cc2n1C(=O)OCC(=O)[O-]

>  <Energy>  (97) 
68.07150461881945

>  <Genealogy>  (97) 
[NH-]C(=O)c1cc2ccc(C(F)(F)F)cc2n1C(=O)OCC(=O)[O-] (protonated)
[NH-]C(=O)c1cc2ccc(C(F)(F)F)cc2n1C(=O)OCC(=O)[O-] (3D coordinates assigned)
[NH-]C(=O)c1cc2ccc(C(F)(F)F)cc2n1C(=O)OCC(=O)[O-] (optimized conformer: 68.07150461881945 kcal/mol)

>  <smiles>  (97) 
NC(=O)c1cc2ccc(C(F)(F)F)cc2n1C(=O)OCC(=O)O

>  <score_type>  (97) 
oracle

>  <origin>  (97) 
adg

>  <m_score__min__energy>  (97) 
-5.6500000000000004

>  <m_primary>  (97) 
energy

$$$$
97:0
     RDKit          3D

 44 45  0  0  0  0  0  0  0  0999 V2000
  151.0480  150.2640  130.0680 C   0  0  0  0  0  0  0  0  0  0  0  0
  149.8450  150.4620  130.9770 C   0  0  0  0  0  0  0  0  0  0  0  0
  149.6270  151.8540  131.1820 O   0  0  0  0  0  0  0  0  0  0  0  0
  149.5640  152.4250  132.4550 C   0  0  0  0  0  0  0  0  0  0  0  0
  149.9490  151.7890  133.4720 O   0  0  0  0  0  0  0  0  0  0  0  0
  149.0530  153.7580  132.6050 C   0  0  0  0  0  0  0  0  0  0  0  0
  148.6240  154.8780  132.7280 C   0  0  0  0  0  0  0  0  0  0  0  0
  148.1100  156.2140  132.8760 C   0  0  0  0  0  0  0  0  0  0  0  0
  148.9960  157.3150  132.8730 C   0  0  0  0  0  0  0  0  0  0  0  0
  148.5040  158.6250  133.0100 C   0  0  0  0  0  0  0  0  0  0  0  0
  147.1290  158.7940  133.1550 C   0  0  0  0  0  0  0  0  0  0  0  0
  146.3830  159.9440  133.2780 C   0  0  0  0  0  0  0  0  0  0  0  0
  145.0590  159.5180  133.3700 C   0  0  0  0  0  0  0  0  0  0  0  0
  143.9130  160.4320  133.5590 C   0  0  0  0  0  0  0  0  0  0  0  0
  142.5810  159.9470  133.4020 N   0  0  0  0  0  0  0  0  0  0  0  0
  144.0960  161.6460  133.8400 O   0  0  0  0  0  0  0  0  0  0  0  0
  144.9910  158.1590  133.3110 N   0  0  0  0  0  0  0  0  0  0  0  0
  143.8110  157.3400  133.3160 C   0  0  0  0  0  0  0  0  0  0  0  0
  143.2210  157.0950  132.2290 O   0  0  0  0  0  0  0  0  0  0  0  0
  143.2860  156.7890  134.5800 C   0  0  0  0  0  0  0  0  0  0  0  0
  143.7430  155.6980  135.0180 O   0  0  0  0  0  0  0  0  0  0  0  0
  142.2690  157.4860  135.3140 N   0  0  0  0  0  0  0  0  0  0  0  0
  141.7290  156.9440  136.5630 C   0  0  0  0  0  0  0  0  0  0  0  0
  141.2420  158.0580  137.4970 C   0  0  0  0  0  0  0  0  0  0  0  0
  140.5720  159.1570  136.7320 C   0  0  0  0  0  0  0  0  0  0  0  0
  139.9470  158.9010  135.6690 O   0  0  0  0  0  0  0  0  0  0  0  0
  140.6120  160.4610  137.2090 O   0  0  0  0  0  0  0  0  0  0  0  0
  146.2640  157.7300  133.1740 C   0  0  0  0  0  0  0  0  0  0  0  0
  146.7230  156.4180  133.0220 C   0  0  0  0  0  0  0  0  0  0  0  0
  151.9497  150.1156  130.6803 H   0  0  0  0  0  0  0  0  0  0  0  0
  150.8864  149.3804  129.4331 H   0  0  0  0  0  0  0  0  0  0  0  0
  151.1781  151.1528  129.4331 H   0  0  0  0  0  0  0  0  0  0  0  0
  148.9548  150.0168  130.5087 H   0  0  0  0  0  0  0  0  0  0  0  0
  150.0336  149.9747  131.9450 H   0  0  0  0  0  0  0  0  0  0  0  0
  150.0773  157.1460  132.7628 H   0  0  0  0  0  0  0  0  0  0  0  0
  149.1839  159.4897  133.0029 H   0  0  0  0  0  0  0  0  0  0  0  0
  146.7531  160.9797  133.2992 H   0  0  0  0  0  0  0  0  0  0  0  0
  142.3670  159.1700  132.7390 H   0  0  0  0  0  0  0  0  0  0  0  0
  141.9070  158.3940  134.9430 H   0  0  0  0  0  0  0  0  0  0  0  0
  140.8840  156.2800  136.3283 H   0  0  0  0  0  0  0  0  0  0  0  0
  142.5316  156.3923  137.0743 H   0  0  0  0  0  0  0  0  0  0  0  0
  140.5259  157.6344  138.2166 H   0  0  0  0  0  0  0  0  0  0  0  0
  142.1143  158.4799  138.0176 H   0  0  0  0  0  0  0  0  0  0  0  0
  146.0223  155.5701  133.0165 H   0  0  0  0  0  0  0  0  0  0  0  0
  1  2  1  0
  2  3  1  0
  3  4  1  0
  4  5  2  0
  4  6  1  0
  6  7  3  0
  7  8  1  0
  8  9  2  0
  9 10  1  0
 10 11  2  0
 11 12  1  0
 12 13  2  0
 13 14  1  0
 14 15  1  0
 14 16  2  0
 13 17  1  0
 17 18  1  0
 18 19  2  0
 18 20  1  0
 20 21  2  0
 20 22  1  0
 22 23  1  0
 23 24  1  0
 24 25  1  0
 25 26  2  0
 25 27  1  0
 17 28  1  0
 28 29  2  0
 29  8  1  0
 28 11  1  0
  1 30  1  0
  1 31  1  0
  1 32  1  0
  2 33  1  0
  2 34  1  0
  9 35  1  0
 10 36  1  0
 12 37  1  0
 15 38  1  0
 22 39  1  0
 23 40  1  0
 23 41  1  0
 24 42  1  0
 24 43  1  0
 29 44  1  0
M  CHG  2  15  -1  27  -1
M  END
>  <UniqueID>  (98) 
97

>  <SMILES>  (98) 
CCOC(=O)C#Cc1ccc2cc(C([NH-])=O)n(C(=O)C(=O)NCCC(=O)[O-])c2c1

>  <Energy>  (98) 
68.77543167338456

>  <Genealogy>  (98) 
CCOC(=O)C#Cc1ccc2cc(C([NH-])=O)n(C(=O)C(=O)NCCC(=O)[O-])c2c1 (protonated)
CCOC(=O)C#Cc1ccc2cc(C([NH-])=O)n(C(=O)C(=O)NCCC(=O)[O-])c2c1 (3D coordinates assigned)
CCOC(=O)C#Cc1ccc2cc(C([NH-])=O)n(C(=O)C(=O)NCCC(=O)[O-])c2c1 (optimized conformer: 68.77543167338456 kcal/mol)

>  <smiles>  (98) 
CCOC(=O)C#Cc1ccc2cc(C(N)=O)n(C(=O)C(=O)NCCC(=O)O)c2c1

>  <score_type>  (98) 
oracle

>  <origin>  (98) 
adg

>  <m_score__min__energy>  (98) 
-7.7800000000000002

>  <m_primary>  (98) 
energy

$$$$
98:0
     RDKit          3D

 42 43  0  0  0  0  0  0  0  0999 V2000
  149.2260  159.4320  131.2090 C   0  0  0  0  0  0  0  0  0  0  0  0
  149.2330  158.4300  132.3750 C   0  0  0  0  0  0  0  0  0  0  0  0
  148.5280  159.0190  133.6080 C   0  0  0  0  0  0  0  0  0  0  0  0
  148.6800  157.1120  131.9890 N   0  0  0  0  0  0  0  0  0  0  0  0
  147.7130  156.6070  132.9310 C   0  0  0  0  0  0  0  0  0  0  0  0
  148.0850  155.8130  133.8400 O   0  0  0  0  0  0  0  0  0  0  0  0
  146.3370  157.0150  132.8370 N   0  0  0  0  0  0  0  0  0  0  0  0
  145.3300  156.6710  133.8020 C   0  0  0  0  0  0  0  0  0  0  0  0
  145.6390  156.0540  134.8560 O   0  0  0  0  0  0  0  0  0  0  0  0
  143.9630  157.0410  133.5730 N   0  0  0  0  0  0  0  0  0  0  0  0
  143.4510  158.2970  133.4420 C   0  0  0  0  0  0  0  0  0  0  0  0
  144.2340  159.5490  133.3780 C   0  0  0  0  0  0  0  0  0  0  0  0
  145.4460  159.6170  132.6320 N   0  0  0  0  0  0  0  0  0  0  0  0
  143.8100  160.5840  133.9580 O   0  0  0  0  0  0  0  0  0  0  0  0
  142.0640  158.2520  133.3180 C   0  0  0  0  0  0  0  0  0  0  0  0
  141.7380  156.9150  133.3770 C   0  0  0  0  0  0  0  0  0  0  0  0
  140.4920  156.2950  133.3220 C   0  0  0  0  0  0  0  0  0  0  0  0
  140.4480  154.8950  133.4450 C   0  0  0  0  0  0  0  0  0  0  0  0
  141.6390  154.1500  133.6350 C   0  0  0  0  0  0  0  0  0  0  0  0
  141.5800  152.6500  133.7360 C   0  0  0  0  0  0  0  0  0  0  0  0
  141.6630  152.2240  135.1680 C   0  0  0  0  0  0  0  0  0  0  0  0
  142.3260  152.9050  135.9950 O   0  0  0  0  0  0  0  0  0  0  0  0
  140.9940  151.0800  135.5940 O   0  0  0  0  0  0  0  0  0  0  0  0
  142.8860  154.8140  133.6800 C   0  0  0  0  0  0  0  0  0  0  0  0
  142.9000  156.2060  133.5340 C   0  0  0  0  0  0  0  0  0  0  0  0
  149.2188  160.4575  131.6069 H   0  0  0  0  0  0  0  0  0  0  0  0
  150.1252  159.2840  130.5929 H   0  0  0  0  0  0  0  0  0  0  0  0
  148.3290  159.2714  130.5929 H   0  0  0  0  0  0  0  0  0  0  0  0
  150.2831  158.2485  132.6477 H   0  0  0  0  0  0  0  0  0  0  0  0
  148.9981  158.6262  134.5217 H   0  0  0  0  0  0  0  0  0  0  0  0
  148.6166  160.1153  133.5922 H   0  0  0  0  0  0  0  0  0  0  0  0
  147.4649  158.7368  133.5922 H   0  0  0  0  0  0  0  0  0  0  0  0
  149.4610  156.4210  131.9000 H   0  0  0  0  0  0  0  0  0  0  0  0
  148.2340  157.1880  131.0440 H   0  0  0  0  0  0  0  0  0  0  0  0
  146.0580  157.6370  132.0450 H   0  0  0  0  0  0  0  0  0  0  0  0
  145.7740  160.5220  132.2250 H   0  0  0  0  0  0  0  0  0  0  0  0
  141.3764  159.1023  133.1985 H   0  0  0  0  0  0  0  0  0  0  0  0
  139.5716  156.8820  133.1866 H   0  0  0  0  0  0  0  0  0  0  0  0
  139.4810  154.3733  133.3934 H   0  0  0  0  0  0  0  0  0  0  0  0
  140.6324  152.2940  133.3055 H   0  0  0  0  0  0  0  0  0  0  0  0
  142.4288  152.2198  133.1842 H   0  0  0  0  0  0  0  0  0  0  0  0
  143.8203  154.2519  133.8258 H   0  0  0  0  0  0  0  0  0  0  0  0
  1  2  1  0
  2  3  1  0
  2  4  1  0
  4  5  1  0
  5  6  2  0
  5  7  1  0
  7  8  1  0
  8  9  2  0
  8 10  1  0
 10 11  1  0
 11 12  1  0
 12 13  1  0
 12 14  2  0
 11 15  2  0
 15 16  1  0
 16 17  2  0
 17 18  1  0
 18 19  2  0
 19 20  1  0
 20 21  1  0
 21 22  2  0
 21 23  1  0
 19 24  1  0
 24 25  2  0
 25 10  1  0
 25 16  1  0
  1 26  1  0
  1 27  1  0
  1 28  1  0
  2 29  1  0
  3 30  1  0
  3 31  1  0
  3 32  1  0
  4 33  1  0
  4 34  1  0
  7 35  1  0
 13 36  1  0
 15 37  1  0
 17 38  1  0
 18 39  1  0
 20 40  1  0
 20 41  1  0
 24 42  1  0
M  CHG  3   4   1  13  -1  23  -1
M  END
>  <UniqueID>  (99) 
98

>  <SMILES>  (99) 
CC(C)[NH2+]C(=O)NC(=O)n1c(C([NH-])=O)cc2ccc(CC(=O)[O-])cc21

>  <Energy>  (99) 
78.15577600910976

>  <Genealogy>  (99) 
CC(C)[NH2+]C(=O)NC(=O)n1c(C([NH-])=O)cc2ccc(CC(=O)[O-])cc21 (protonated)
CC(C)[NH2+]C(=O)NC(=O)n1c(C([NH-])=O)cc2ccc(CC(=O)[O-])cc21 (3D coordinates assigned)
CC(C)[NH2+]C(=O)NC(=O)n1c(C([NH-])=O)cc2ccc(CC(=O)[O-])cc21 (optimized conformer: 78.15577600910976 kcal/mol)

>  <smiles>  (99) 
CC(C)NC(=O)NC(=O)n1c(C(N)=O)cc2ccc(CC(=O)O)cc21

>  <score_type>  (99) 
oracle

>  <origin>  (99) 
adg

>  <m_score__min__energy>  (99) 
-7.8300000000000001

>  <m_primary>  (99) 
energy

$$$$
99:0
     RDKit          3D

 46 47  0  0  0  0  0  0  0  0999 V2000
  141.6450  159.0220  137.2810 C   0  0  0  0  0  0  0  0  0  0  0  0
  140.8160  159.2380  136.1460 O   0  0  0  0  0  0  0  0  0  0  0  0
  140.0170  158.2320  135.5980 C   0  0  0  0  0  0  0  0  0  0  0  0
  139.1060  157.6910  136.2810 O   0  0  0  0  0  0  0  0  0  0  0  0
  140.2380  157.8020  134.1730 C   0  0  0  0  0  0  0  0  0  0  0  0
  141.1430  158.6990  133.4180 N   0  0  2  0  0  0  0  0  0  0  0  0
  140.4760  159.3330  132.2660 C   0  0  0  0  0  0  0  0  0  0  0  0
  142.3570  158.0130  133.0200 C   0  0  0  0  0  0  0  0  0  0  0  0
  142.4440  157.4820  131.8780 O   0  0  0  0  0  0  0  0  0  0  0  0
  143.5020  157.8940  133.9490 C   0  0  0  0  0  0  0  0  0  0  0  0
  143.3890  157.2290  135.0130 O   0  0  0  0  0  0  0  0  0  0  0  0
  144.7460  158.5470  133.6590 N   0  0  0  0  0  0  0  0  0  0  0  0
  145.0030  159.8840  133.6730 C   0  0  0  0  0  0  0  0  0  0  0  0
  144.0080  160.9550  133.8960 C   0  0  0  0  0  0  0  0  0  0  0  0
  142.6650  160.6470  134.2610 N   0  0  0  0  0  0  0  0  0  0  0  0
  144.3410  162.1600  133.7400 O   0  0  0  0  0  0  0  0  0  0  0  0
  146.3500  160.1220  133.4050 C   0  0  0  0  0  0  0  0  0  0  0  0
  146.9120  158.8770  133.2310 C   0  0  0  0  0  0  0  0  0  0  0  0
  148.2270  158.5180  132.9620 C   0  0  0  0  0  0  0  0  0  0  0  0
  148.5310  157.1500  132.8640 C   0  0  0  0  0  0  0  0  0  0  0  0
  147.5240  156.1570  133.0420 C   0  0  0  0  0  0  0  0  0  0  0  0
  147.8520  154.7470  132.9490 N   0  0  0  0  0  0  0  0  0  0  0  0
  149.2090  154.3190  132.5920 C   0  0  0  0  0  0  0  0  0  0  0  0
  146.8310  153.7240  133.2130 C   0  0  0  0  0  0  0  0  0  0  0  0
  146.1950  156.5750  133.3150 C   0  0  0  0  0  0  0  0  0  0  0  0
  145.9240  157.9440  133.3910 C   0  0  0  0  0  0  0  0  0  0  0  0
  141.0577  159.1750  138.1984 H   0  0  0  0  0  0  0  0  0  0  0  0
  142.0328  157.9928  137.2613 H   0  0  0  0  0  0  0  0  0  0  0  0
  142.4857  159.7311  137.2613 H   0  0  0  0  0  0  0  0  0  0  0  0
  140.6736  156.7919  134.1778 H   0  0  0  0  0  0  0  0  0  0  0  0
  139.2598  157.8325  133.6708 H   0  0  0  0  0  0  0  0  0  0  0  0
  141.4020  159.4830  134.0630 H   0  0  0  0  0  0  0  0  0  0  0  0
  139.7228  160.0489  132.6268 H   0  0  0  0  0  0  0  0  0  0  0  0
  141.2225  159.8625  131.6559 H   0  0  0  0  0  0  0  0  0  0  0  0
  139.9850  158.5605  131.6559 H   0  0  0  0  0  0  0  0  0  0  0  0
  142.4410  159.7850  134.8070 H   0  0  0  0  0  0  0  0  0  0  0  0
  146.8562  161.0967  133.3452 H   0  0  0  0  0  0  0  0  0  0  0  0
  149.0069  159.2823  132.8297 H   0  0  0  0  0  0  0  0  0  0  0  0
  149.5637  156.8399  132.6462 H   0  0  0  0  0  0  0  0  0  0  0  0
  149.7889  154.1361  133.5087 H   0  0  0  0  0  0  0  0  0  0  0  0
  149.1577  153.3934  131.9998 H   0  0  0  0  0  0  0  0  0  0  0  0
  149.6980  155.1065  131.9998 H   0  0  0  0  0  0  0  0  0  0  0  0
  146.7078  153.6006  134.2991 H   0  0  0  0  0  0  0  0  0  0  0  0
  145.8747  154.0372  132.7688 H   0  0  0  0  0  0  0  0  0  0  0  0
  147.1461  152.7683  132.7688 H   0  0  0  0  0  0  0  0  0  0  0  0
  145.3941  155.8358  133.4638 H   0  0  0  0  0  0  0  0  0  0  0  0
  1  2  1  0
  2  3  1  0
  3  4  2  0
  3  5  1  0
  5  6  1  0
  6  7  1  0
  6  8  1  0
  8  9  2  0
  8 10  1  0
 10 11  2  0
 10 12  1  0
 12 13  1  0
 13 14  1  0
 14 15  1  0
 14 16  2  0
 13 17  2  0
 17 18  1  0
 18 19  2  0
 19 20  1  0
 20 21  2  0
 21 22  1  0
 22 23  1  0
 22 24  1  0
 21 25  1  0
 25 26  2  0
 26 12  1  0
 26 18  1  0
  1 27  1  0
  1 28  1  0
  1 29  1  0
  5 30  1  0
  5 31  1  0
  6 32  1  1
  7 33  1  0
  7 34  1  0
  7 35  1  0
 15 36  1  0
 17 37  1  0
 19 38  1  0
 20 39  1  0
 23 40  1  0
 23 41  1  0
 23 42  1  0
 24 43  1  0
 24 44  1  0
 24 45  1  0
 25 46  1  0
M  CHG  2   6   1  15  -1
M  END
>  <UniqueID>  (100) 
99

>  <SMILES>  (100) 
COC(=O)C[N@H+](C)C(=O)C(=O)n1c(C([NH-])=O)cc2ccc(N(C)C)cc21

>  <Energy>  (100) 
87.16420611123625

>  <Genealogy>  (100) 
COC(=O)C[NH+](C)C(=O)C(=O)n1c(C([NH-])=O)cc2ccc(N(C)C)cc21 (protonated)
COC(=O)C[N@H+](C)C(=O)C(=O)n1c(C([NH-])=O)cc2ccc(N(C)C)cc21 (chirality)
COC(=O)C[N@H+](C)C(=O)C(=O)n1c(C([NH-])=O)cc2ccc(N(C)C)cc21 (3D coordinates assigned)
COC(=O)C[N@H+](C)C(=O)C(=O)n1c(C([NH-])=O)cc2ccc(N(C)C)cc21 (optimized conformer: 87.16420611123625 kcal/mol)

>  <smiles>  (100) 
COC(=O)CN(C)C(=O)C(=O)n1c(C(N)=O)cc2ccc(N(C)C)cc21

>  <score_type>  (100) 
oracle

>  <origin>  (100) 
adg

>  <m_score__min__energy>  (100) 
-5.9500000000000002

>  <m_primary>  (100) 
energy

$$$$
