0:0
     RDKit          3D

 52 53  0  0  0  0  0  0  0  0999 V2000
  146.7280  151.8060  132.5490 C   0  0  0  0  0  0  0  0  0  0  0  0
  146.4320  153.2550  132.5130 N   0  0  2  0  0  0  0  0  0  0  0  0
  147.4560  153.9430  133.2890 C   0  0  0  0  0  0  0  0  0  0  0  0
  147.5290  153.7920  134.5000 O   0  0  0  0  0  0  0  0  0  0  0  0
  148.4870  154.8110  132.6070 C   0  0  0  0  0  0  0  0  0  0  0  0
  148.0940  156.2600  132.6780 C   0  0  0  0  0  0  0  0  0  0  0  0
  149.0860  157.2680  132.6050 C   0  0  0  0  0  0  0  0  0  0  0  0
  148.7420  158.6230  132.7520 C   0  0  0  0  0  0  0  0  0  0  0  0
  147.4040  158.9350  132.9740 C   0  0  0  0  0  0  0  0  0  0  0  0
  146.8080  160.1500  133.2290 C   0  0  0  0  0  0  0  0  0  0  0  0
  145.4620  159.8620  133.4540 C   0  0  0  0  0  0  0  0  0  0  0  0
  144.4400  160.8920  133.7290 C   0  0  0  0  0  0  0  0  0  0  0  0
  143.0770  160.6860  133.3710 N   0  0  0  0  0  0  0  0  0  0  0  0
  144.7810  161.9850  134.2560 O   0  0  0  0  0  0  0  0  0  0  0  0
  145.2370  158.5230  133.3390 N   0  0  0  0  0  0  0  0  0  0  0  0
  144.0340  157.8050  133.6490 C   0  0  0  0  0  0  0  0  0  0  0  0
  143.9470  157.1620  134.7300 O   0  0  0  0  0  0  0  0  0  0  0  0
  142.9490  157.8590  132.7660 O   0  0  0  0  0  0  0  0  0  0  0  0
  141.7160  157.1840  133.0020 C   0  0  0  0  0  0  0  0  0  0  0  0
  140.5420  158.1550  132.8700 C   0  0  0  0  0  0  0  0  0  0  0  0
  140.9340  159.2990  132.1600 O   0  0  0  0  0  0  0  0  0  0  0  0
  146.4330  157.9710  133.0400 C   0  0  0  0  0  0  0  0  0  0  0  0
  146.7460  156.6150  132.8990 C   0  0  0  0  0  0  0  0  0  0  0  0
  145.0130  153.6110  132.8880 C   0  0  0  0  0  0  0  0  0  0  0  0
  144.1430  152.3260  132.9680 C   0  0  0  0  0  0  0  0  0  0  0  0
  144.3640  154.5130  131.8060 C   0  0  0  0  0  0  0  0  0  0  0  0
  144.9040  154.3410  134.2530 C   0  0  0  0  0  0  0  0  0  0  0  0
  146.7963  151.4716  133.5947 H   0  0  0  0  0  0  0  0  0  0  0  0
  145.9239  151.2547  132.0395 H   0  0  0  0  0  0  0  0  0  0  0  0
  147.6839  151.6142  132.0395 H   0  0  0  0  0  0  0  0  0  0  0  0
  146.5660  153.5420  131.5140 H   0  0  0  0  0  0  0  0  0  0  0  0
  149.4587  154.6758  133.1046 H   0  0  0  0  0  0  0  0  0  0  0  0
  148.5545  154.5148  131.5498 H   0  0  0  0  0  0  0  0  0  0  0  0
  150.1356  156.9880  132.4316 H   0  0  0  0  0  0  0  0  0  0  0  0
  149.5063  159.4119  132.6934 H   0  0  0  0  0  0  0  0  0  0  0  0
  147.2910  161.1380  133.2507 H   0  0  0  0  0  0  0  0  0  0  0  0
  142.8180  160.0190  132.6100 H   0  0  0  0  0  0  0  0  0  0  0  0
  141.6002  156.3736  132.2673 H   0  0  0  0  0  0  0  0  0  0  0  0
  141.7248  156.7718  134.0218 H   0  0  0  0  0  0  0  0  0  0  0  0
  139.7195  157.6591  132.3336 H   0  0  0  0  0  0  0  0  0  0  0  0
  140.2102  158.4540  133.8752 H   0  0  0  0  0  0  0  0  0  0  0  0
  141.9270  159.3000  132.1460 H   0  0  0  0  0  0  0  0  0  0  0  0
  145.9622  155.8456  132.9588 H   0  0  0  0  0  0  0  0  0  0  0  0
  143.9676  152.0670  134.0226 H   0  0  0  0  0  0  0  0  0  0  0  0
  143.1790  152.5042  132.4690 H   0  0  0  0  0  0  0  0  0  0  0  0
  144.6665  151.4971  132.4690 H   0  0  0  0  0  0  0  0  0  0  0  0
  143.7880  155.3135  132.2932 H   0  0  0  0  0  0  0  0  0  0  0  0
  145.1509  154.9572  131.1787 H   0  0  0  0  0  0  0  0  0  0  0  0
  143.6928  153.9081  131.1787 H   0  0  0  0  0  0  0  0  0  0  0  0
  145.0130  153.6112  135.0688 H   0  0  0  0  0  0  0  0  0  0  0  0
  145.6992  155.0973  134.3289 H   0  0  0  0  0  0  0  0  0  0  0  0
  143.9226  154.8320  134.3289 H   0  0  0  0  0  0  0  0  0  0  0  0
  1  2  1  0
  2  3  1  0
  3  4  2  0
  3  5  1  0
  5  6  1  0
  6  7  2  0
  7  8  1  0
  8  9  2  0
  9 10  1  0
 10 11  2  0
 11 12  1  0
 12 13  1  0
 12 14  2  0
 11 15  1  0
 15 16  1  0
 16 17  2  0
 16 18  1  0
 18 19  1  0
 19 20  1  0
 20 21  1  0
 15 22  1  0
 22 23  2  0
  2 24  1  0
 24 25  1  0
 24 26  1  0
 24 27  1  0
 23  6  1  0
 22  9  1  0
  1 28  1  0
  1 29  1  0
  1 30  1  0
  2 31  1  6
  5 32  1  0
  5 33  1  0
  7 34  1  0
  8 35  1  0
 10 36  1  0
 13 37  1  0
 19 38  1  0
 19 39  1  0
 20 40  1  0
 20 41  1  0
 21 42  1  0
 23 43  1  0
 25 44  1  0
 25 45  1  0
 25 46  1  0
 26 47  1  0
 26 48  1  0
 26 49  1  0
 27 50  1  0
 27 51  1  0
 27 52  1  0
M  CHG  2   2   1  13  -1
M  END
>  <UniqueID>  (1) 
1

>  <SMILES>  (1) 
C[N@H+](C(=O)Cc1ccc2cc(C([NH-])=O)n(C(=O)OCCO)c2c1)C(C)(C)C

>  <Energy>  (1) 
90.19595636971486

>  <Genealogy>  (1) 
C[NH+](C(=O)Cc1ccc2cc(C([NH-])=O)n(C(=O)OCCO)c2c1)C(C)(C)C (protonated)
C[N@H+](C(=O)Cc1ccc2cc(C([NH-])=O)n(C(=O)OCCO)c2c1)C(C)(C)C (chirality)
C[N@H+](C(=O)Cc1ccc2cc(C([NH-])=O)n(C(=O)OCCO)c2c1)C(C)(C)C (3D coordinates assigned)
C[N@H+](C(=O)Cc1ccc2cc(C([NH-])=O)n(C(=O)OCCO)c2c1)C(C)(C)C (optimized conformer: 90.19595636971486 kcal/mol)

>  <smiles>  (1) 
CN(C(=O)Cc1ccc2cc(C(N)=O)n(C(=O)OCCO)c2c1)C(C)(C)C

>  <score_type>  (1) 
oracle

>  <origin>  (1) 
adg

>  <m_score__min__energy>  (1) 
-6.7199999999999998

>  <m_primary>  (1) 
energy

$$$$
1:0
     RDKit          3D

 35 36  0  0  0  0  0  0  0  0999 V2000
  148.8030  161.2990  130.9250 C   0  0  0  0  0  0  0  0  0  0  0  0
  149.8740  160.3240  130.6630 N   0  0  0  0  0  0  0  0  0  0  0  0
  150.0030  160.1160  129.2100 C   0  0  0  0  0  0  0  0  0  0  0  0
  149.5880  159.0490  131.3600 C   0  0  0  0  0  0  0  0  0  0  0  0
  149.1930  159.2890  132.8250 C   0  0  0  0  0  0  0  0  0  0  0  0
  147.7410  158.9680  133.0630 C   0  0  0  0  0  0  0  0  0  0  0  0
  147.2980  157.6220  133.0600 C   0  0  0  0  0  0  0  0  0  0  0  0
  145.9560  157.3100  133.3310 C   0  0  0  0  0  0  0  0  0  0  0  0
  145.0840  158.3600  133.6000 C   0  0  0  0  0  0  0  0  0  0  0  0
  143.7460  158.3370  133.9210 C   0  0  0  0  0  0  0  0  0  0  0  0
  143.3870  159.6700  134.1040 C   0  0  0  0  0  0  0  0  0  0  0  0
  142.0030  160.1090  134.3810 C   0  0  0  0  0  0  0  0  0  0  0  0
  141.3070  160.9050  133.4260 N   0  0  0  0  0  0  0  0  0  0  0  0
  141.4420  159.8210  135.4710 O   0  0  0  0  0  0  0  0  0  0  0  0
  144.4630  160.4870  133.9110 N   0  0  0  0  0  0  0  0  0  0  0  0
  144.5250  161.9130  134.0790 C   0  0  0  0  0  0  0  0  0  0  0  0
  145.3580  162.4230  134.8740 O   0  0  0  0  0  0  0  0  0  0  0  0
  143.6480  162.7410  133.3890 O   0  0  0  0  0  0  0  0  0  0  0  0
  145.4920  159.6680  133.5990 C   0  0  0  0  0  0  0  0  0  0  0  0
  146.8280  160.0070  133.3500 C   0  0  0  0  0  0  0  0  0  0  0  0
  148.6727  161.4176  132.0108 H   0  0  0  0  0  0  0  0  0  0  0  0
  149.0725  162.2682  130.4800 H   0  0  0  0  0  0  0  0  0  0  0  0
  147.8633  160.9399  130.4800 H   0  0  0  0  0  0  0  0  0  0  0  0
  150.5741  159.1951  129.0207 H   0  0  0  0  0  0  0  0  0  0  0  0
  149.0023  160.0254  128.7623 H   0  0  0  0  0  0  0  0  0  0  0  0
  150.5288  160.9722  128.7623 H   0  0  0  0  0  0  0  0  0  0  0  0
  148.7614  158.5371  130.8454 H   0  0  0  0  0  0  0  0  0  0  0  0
  150.4989  158.4326  131.3430 H   0  0  0  0  0  0  0  0  0  0  0  0
  149.8115  158.6493  133.4717 H   0  0  0  0  0  0  0  0  0  0  0  0
  149.3548  160.3520  133.0572 H   0  0  0  0  0  0  0  0  0  0  0  0
  148.0122  156.8139  132.8433 H   0  0  0  0  0  0  0  0  0  0  0  0
  145.6050  156.2675  133.3306 H   0  0  0  0  0  0  0  0  0  0  0  0
  143.0977  157.4532  134.0134 H   0  0  0  0  0  0  0  0  0  0  0  0
  141.7500  161.7540  133.0100 H   0  0  0  0  0  0  0  0  0  0  0  0
  147.1580  161.0560  133.3773 H   0  0  0  0  0  0  0  0  0  0  0  0
  1  2  1  0
  2  3  1  0
  2  4  1  0
  4  5  1  0
  5  6  1  0
  6  7  2  0
  7  8  1  0
  8  9  2  0
  9 10  1  0
 10 11  2  0
 11 12  1  0
 12 13  1  0
 12 14  2  0
 11 15  1  0
 15 16  1  0
 16 17  2  0
 16 18  1  0
 15 19  1  0
 19 20  2  0
 20  6  1  0
 19  9  1  0
  1 21  1  0
  1 22  1  0
  1 23  1  0
  3 24  1  0
  3 25  1  0
  3 26  1  0
  4 27  1  0
  4 28  1  0
  5 29  1  0
  5 30  1  0
  7 31  1  0
  8 32  1  0
 10 33  1  0
 13 34  1  0
 20 35  1  0
M  CHG  2  13  -1  18  -1
M  END
>  <UniqueID>  (2) 
2

>  <SMILES>  (2) 
CN(C)CCc1ccc2cc(C([NH-])=O)n(C(=O)[O-])c2c1

>  <Energy>  (2) 
72.27484635615488

>  <Genealogy>  (2) 
CN(C)CCc1ccc2cc(C([NH-])=O)n(C(=O)[O-])c2c1 (protonated)
CN(C)CCc1ccc2cc(C([NH-])=O)n(C(=O)[O-])c2c1 (3D coordinates assigned)
CN(C)CCc1ccc2cc(C([NH-])=O)n(C(=O)[O-])c2c1 (optimized conformer: 72.27484635615488 kcal/mol)

>  <smiles>  (2) 
CN(C)CCc1ccc2cc(C(N)=O)n(C(=O)O)c2c1

>  <score_type>  (2) 
oracle

>  <origin>  (2) 
adg

>  <m_score__min__energy>  (2) 
-7.0099999999999998

>  <m_primary>  (2) 
energy

$$$$
2:0
     RDKit          3D

 51 54  0  0  0  0  0  0  0  0999 V2000
  144.0030  154.4170  131.6130 N   0  0  0  0  0  0  0  0  0  0  0  0
  144.7300  154.8050  132.4270 C   0  0  0  0  0  0  0  0  0  0  0  0
  145.6650  155.3020  133.4430 C   0  0  0  0  0  0  0  0  0  0  0  0
  146.5040  156.4120  132.8830 C   0  0  0  0  0  0  0  0  0  0  0  0
  147.5420  156.1340  132.2240 O   0  0  0  0  0  0  0  0  0  0  0  0
  146.1580  157.7870  133.1030 N   0  0  0  0  0  0  0  0  0  0  0  0
  147.0100  158.8400  133.2410 C   0  0  0  0  0  0  0  0  0  0  0  0
  148.4820  158.7730  133.1250 C   0  0  0  0  0  0  0  0  0  0  0  0
  149.0810  158.4350  131.8750 N   0  0  0  0  0  0  0  0  0  0  0  0
  149.2180  158.9990  134.1230 O   0  0  0  0  0  0  0  0  0  0  0  0
  146.3000  160.0140  133.4830 C   0  0  0  0  0  0  0  0  0  0  0  0
  144.9740  159.6430  133.4950 C   0  0  0  0  0  0  0  0  0  0  0  0
  143.8330  160.4030  133.7340 C   0  0  0  0  0  0  0  0  0  0  0  0
  142.5930  159.7430  133.7460 C   0  0  0  0  0  0  0  0  0  0  0  0
  142.5170  158.3440  133.5190 C   0  0  0  0  0  0  0  0  0  0  0  0
  141.1960  157.6340  133.6180 C   0  0  0  0  0  0  0  0  0  0  0  0
  141.3820  156.3190  134.3100 C   0  0  0  0  0  0  0  0  0  0  0  0
  141.0340  156.2000  135.5170 O   0  0  0  0  0  0  0  0  0  0  0  0
  142.0100  155.2240  133.6230 N   0  0  0  0  0  0  0  0  0  0  0  0
  142.3700  153.9940  134.3230 C   0  0  0  0  0  0  0  0  0  0  0  0
  141.7990  152.8040  133.6170 C   0  0  0  0  0  0  0  0  0  0  0  0
  142.4260  151.5680  133.4860 C   0  0  0  0  0  0  0  0  0  0  0  0
  141.6220  150.6240  132.8370 C   0  0  0  0  0  0  0  0  0  0  0  0
  140.3620  151.0980  132.5140 C   0  0  0  0  0  0  0  0  0  0  0  0
  140.2390  152.7110  132.9760 S   0  0  0  0  0  0  0  0  0  0  0  0
  139.3440  150.2910  131.7710 C   0  0  0  0  0  0  0  0  0  0  0  0
  139.7160  148.7990  131.8320 C   0  0  0  0  0  0  0  0  0  0  0  0
  141.1500  148.6050  131.5370 N   0  0  0  0  0  0  0  0  0  0  0  0
  141.9960  149.1910  132.5920 C   0  0  0  0  0  0  0  0  0  0  0  0
  143.6980  157.6060  133.2820 C   0  0  0  0  0  0  0  0  0  0  0  0
  144.9160  158.2920  133.2650 C   0  0  0  0  0  0  0  0  0  0  0  0
  145.0961  155.6777  134.3062 H   0  0  0  0  0  0  0  0  0  0  0  0
  146.3244  154.4785  133.7544 H   0  0  0  0  0  0  0  0  0  0  0  0
  149.0030  157.4680  131.4870 H   0  0  0  0  0  0  0  0  0  0  0  0
  146.7114  161.0231  133.6327 H   0  0  0  0  0  0  0  0  0  0  0  0
  143.9000  161.4871  133.9081 H   0  0  0  0  0  0  0  0  0  0  0  0
  141.6726  160.3156  133.9330 H   0  0  0  0  0  0  0  0  0  0  0  0
  140.4901  158.2527  134.1916 H   0  0  0  0  0  0  0  0  0  0  0  0
  140.7979  157.4613  132.6072 H   0  0  0  0  0  0  0  0  0  0  0  0
  142.2670  155.3420  132.6150 H   0  0  0  0  0  0  0  0  0  0  0  0
  143.4658  153.9038  134.3566 H   0  0  0  0  0  0  0  0  0  0  0  0
  141.9617  154.0325  135.3437 H   0  0  0  0  0  0  0  0  0  0  0  0
  143.4415  151.3566  133.8522 H   0  0  0  0  0  0  0  0  0  0  0  0
  138.3550  150.4398  132.2289 H   0  0  0  0  0  0  0  0  0  0  0  0
  139.3188  150.6164  130.7205 H   0  0  0  0  0  0  0  0  0  0  0  0
  139.4995  148.4140  132.8394 H   0  0  0  0  0  0  0  0  0  0  0  0
  139.1242  148.2564  131.0801 H   0  0  0  0  0  0  0  0  0  0  0  0
  141.3380  147.5750  131.5130 H   0  0  0  0  0  0  0  0  0  0  0  0
  141.8620  148.6187  133.5218 H   0  0  0  0  0  0  0  0  0  0  0  0
  143.0460  149.1501  132.2668 H   0  0  0  0  0  0  0  0  0  0  0  0
  143.6602  156.5194  133.1151 H   0  0  0  0  0  0  0  0  0  0  0  0
  1  2  3  0
  2  3  1  0
  3  4  1  0
  4  5  2  0
  4  6  1  0
  6  7  1  0
  7  8  1  0
  8  9  1  0
  8 10  2  0
  7 11  2  0
 11 12  1  0
 12 13  2  0
 13 14  1  0
 14 15  2  0
 15 16  1  0
 16 17  1  0
 17 18  2  0
 17 19  1  0
 19 20  1  0
 20 21  1  0
 21 22  2  0
 22 23  1  0
 23 24  2  0
 24 25  1  0
 24 26  1  0
 26 27  1  0
 27 28  1  0
 28 29  1  0
 15 30  1  0
 30 31  2  0
 31  6  1  0
 31 12  1  0
 25 21  1  0
 29 23  1  0
  3 32  1  0
  3 33  1  0
  9 34  1  0
 11 35  1  0
 13 36  1  0
 14 37  1  0
 16 38  1  0
 16 39  1  0
 19 40  1  0
 20 41  1  0
 20 42  1  0
 22 43  1  0
 26 44  1  0
 26 45  1  0
 27 46  1  0
 27 47  1  0
 28 48  1  0
 29 49  1  0
 29 50  1  0
 30 51  1  0
M  CHG  1   9  -1
M  END
>  <UniqueID>  (3) 
3

>  <SMILES>  (3) 
N#CCC(=O)n1c(C([NH-])=O)cc2ccc(CC(=O)NCc3cc4c(s3)CCNC4)cc21

>  <Energy>  (3) 
114.38429174069864

>  <Genealogy>  (3) 
N#CCC(=O)n1c(C([NH-])=O)cc2ccc(CC(=O)NCc3cc4c(s3)CCNC4)cc21 (protonated)
N#CCC(=O)n1c(C([NH-])=O)cc2ccc(CC(=O)NCc3cc4c(s3)CCNC4)cc21 (3D coordinates assigned)
N#CCC(=O)n1c(C([NH-])=O)cc2ccc(CC(=O)NCc3cc4c(s3)CCNC4)cc21 (nonaromatic ring conformer: 114.38429174069864 kcal/mol)

>  <smiles>  (3) 
N#CCC(=O)n1c(C(N)=O)cc2ccc(CC(=O)NCc3cc4c(s3)CCNC4)cc21

>  <score_type>  (3) 
oracle

>  <origin>  (3) 
adg

>  <m_score__min__energy>  (3) 
-9.9600000000000009

>  <m_primary>  (3) 
energy

$$$$
3:0
     RDKit          3D

 42 43  0  0  0  0  0  0  0  0999 V2000
  149.2540  153.7070  132.5710 C   0  0  0  0  0  0  0  0  0  0  0  0
  148.2640  154.5230  132.9410 C   0  0  0  0  0  0  0  0  0  0  0  0
  148.4500  156.0130  132.9740 C   0  0  0  0  0  0  0  0  0  0  0  0
  147.5400  156.6140  133.8920 O   0  0  0  0  0  0  0  0  0  0  0  0
  146.2120  156.9180  133.5700 C   0  0  0  0  0  0  0  0  0  0  0  0
  145.3930  155.9960  133.3060 O   0  0  0  0  0  0  0  0  0  0  0  0
  145.7890  158.2900  133.5180 N   0  0  0  0  0  0  0  0  0  0  0  0
  146.5620  159.4010  133.3500 C   0  0  0  0  0  0  0  0  0  0  0  0
  148.0100  159.4140  133.0520 C   0  0  0  0  0  0  0  0  0  0  0  0
  148.9420  158.9980  134.0460 N   0  0  0  0  0  0  0  0  0  0  0  0
  148.4360  159.8240  131.9400 O   0  0  0  0  0  0  0  0  0  0  0  0
  145.7800  160.5530  133.4100 C   0  0  0  0  0  0  0  0  0  0  0  0
  144.4930  160.1110  133.6140 C   0  0  0  0  0  0  0  0  0  0  0  0
  143.3110  160.8310  133.7520 C   0  0  0  0  0  0  0  0  0  0  0  0
  142.1240  160.1120  133.9700 C   0  0  0  0  0  0  0  0  0  0  0  0
  142.1420  158.6980  134.0580 C   0  0  0  0  0  0  0  0  0  0  0  0
  140.8620  157.9330  134.2810 C   0  0  0  0  0  0  0  0  0  0  0  0
  140.3420  157.2790  132.9820 C   0  0  2  0  0  0  0  0  0  0  0  0
  139.0910  158.0040  132.4390 C   0  0  0  0  0  0  0  0  0  0  0  0
  139.4540  159.2690  131.7210 C   0  0  0  0  0  0  0  0  0  0  0  0
  139.3930  160.3760  132.3190 O   0  0  0  0  0  0  0  0  0  0  0  0
  139.8960  159.2210  130.4050 O   0  0  0  0  0  0  0  0  0  0  0  0
  140.0500  155.8220  133.2340 C   0  0  0  0  0  0  0  0  0  0  0  0
  139.1190  155.2410  132.6160 O   0  0  0  0  0  0  0  0  0  0  0  0
  140.8100  155.1120  134.1540 O   0  0  0  0  0  0  0  0  0  0  0  0
  143.3620  158.0010  133.9120 C   0  0  0  0  0  0  0  0  0  0  0  0
  144.5250  158.7420  133.6750 C   0  0  0  0  0  0  0  0  0  0  0  0
  149.0930  152.6190  132.5550 H   0  0  0  0  0  0  0  0  0  0  0  0
  150.2306  154.1228  132.2822 H   0  0  0  0  0  0  0  0  0  0  0  0
  147.2920  154.0951  133.2276 H   0  0  0  0  0  0  0  0  0  0  0  0
  149.4801  156.2415  133.2848 H   0  0  0  0  0  0  0  0  0  0  0  0
  148.2564  156.4160  131.9690 H   0  0  0  0  0  0  0  0  0  0  0  0
  149.2290  157.9960  134.1280 H   0  0  0  0  0  0  0  0  0  0  0  0
  146.1197  161.5949  133.3145 H   0  0  0  0  0  0  0  0  0  0  0  0
  143.3058  161.9294  133.6923 H   0  0  0  0  0  0  0  0  0  0  0  0
  141.1713  160.6520  134.0734 H   0  0  0  0  0  0  0  0  0  0  0  0
  141.0451  157.1449  135.0262 H   0  0  0  0  0  0  0  0  0  0  0  0
  140.0991  158.6440  134.6311 H   0  0  0  0  0  0  0  0  0  0  0  0
  141.1234  157.3655  132.2127 H   0  0  0  0  0  0  0  0  0  0  0  0
  138.5659  157.3355  131.7409 H   0  0  0  0  0  0  0  0  0  0  0  0
  138.4476  158.2653  133.2921 H   0  0  0  0  0  0  0  0  0  0  0  0
  143.3968  156.9038  133.9828 H   0  0  0  0  0  0  0  0  0  0  0  0
  1  2  2  0
  2  3  1  0
  3  4  1  0
  4  5  1  0
  5  6  2  0
  5  7  1  0
  7  8  1  0
  8  9  1  0
  9 10  1  0
  9 11  2  0
  8 12  2  0
 12 13  1  0
 13 14  2  0
 14 15  1  0
 15 16  2  0
 16 17  1  0
 17 18  1  0
 18 19  1  0
 19 20  1  0
 20 21  2  0
 20 22  1  0
 18 23  1  0
 23 24  2  0
 23 25  1  0
 16 26  1  0
 26 27  2  0
 27  7  1  0
 27 13  1  0
  1 28  1  0
  1 29  1  0
  2 30  1  0
  3 31  1  0
  3 32  1  0
 10 33  1  0
 12 34  1  0
 14 35  1  0
 15 36  1  0
 17 37  1  0
 17 38  1  0
 18 39  1  6
 19 40  1  0
 19 41  1  0
 26 42  1  0
M  CHG  3  10  -1  22  -1  25  -1
M  END
>  <UniqueID>  (4) 
4

>  <SMILES>  (4) 
C=CCOC(=O)n1c(C([NH-])=O)cc2ccc(C[C@H](CC(=O)[O-])C(=O)[O-])cc21

>  <Energy>  (4) 
72.29908617805343

>  <Genealogy>  (4) 
C=CCOC(=O)n1c(C([NH-])=O)cc2ccc(C[C@H](CC(=O)[O-])C(=O)[O-])cc21 (protonated)
C=CCOC(=O)n1c(C([NH-])=O)cc2ccc(C[C@H](CC(=O)[O-])C(=O)[O-])cc21 (3D coordinates assigned)
C=CCOC(=O)n1c(C([NH-])=O)cc2ccc(C[C@H](CC(=O)[O-])C(=O)[O-])cc21 (optimized conformer: 72.29908617805343 kcal/mol)

>  <smiles>  (4) 
C=CCOC(=O)n1c(C(N)=O)cc2ccc(C[C@H](CC(=O)O)C(=O)O)cc21

>  <score_type>  (4) 
oracle

>  <origin>  (4) 
adg

>  <m_score__min__energy>  (4) 
-7.0199999999999996

>  <m_primary>  (4) 
energy

$$$$
4:0
     RDKit          3D

 45 47  0  0  0  0  0  0  0  0999 V2000
  141.5010  153.6750  132.9890 C   0  0  0  0  0  0  0  0  0  0  0  0
  142.5210  152.7690  132.4260 N   0  0  0  0  0  0  0  0  0  0  0  0
  142.1040  151.3650  132.6270 C   0  0  0  0  0  0  0  0  0  0  0  0
  143.8830  153.0880  132.9550 C   0  0  1  0  0  0  0  0  0  0  0  0
  145.0440  152.6870  132.0080 C   0  0  0  0  0  0  0  0  0  0  0  0
  146.4250  152.8770  132.6710 C   0  0  0  0  0  0  0  0  0  0  0  0
  146.4190  153.9100  133.8100 C   0  0  0  0  0  0  0  0  0  0  0  0
  145.4250  154.9610  133.5550 N   0  0  0  0  0  0  0  0  0  0  0  0
  145.8100  156.3500  133.5250 C   0  0  0  0  0  0  0  0  0  0  0  0
  147.1140  156.7200  133.1030 C   0  0  0  0  0  0  0  0  0  0  0  0
  147.4940  158.0720  133.0440 C   0  0  0  0  0  0  0  0  0  0  0  0
  146.5550  159.0290  133.4140 C   0  0  0  0  0  0  0  0  0  0  0  0
  146.6480  160.4010  133.4210 C   0  0  0  0  0  0  0  0  0  0  0  0
  145.4080  160.8540  133.8650 C   0  0  0  0  0  0  0  0  0  0  0  0
  145.1020  162.2800  134.1030 C   0  0  0  0  0  0  0  0  0  0  0  0
  145.9780  163.1000  134.8720 N   0  0  0  0  0  0  0  0  0  0  0  0
  144.0790  162.7950  133.5770 O   0  0  0  0  0  0  0  0  0  0  0  0
  144.5760  159.8020  134.1120 N   0  0  0  0  0  0  0  0  0  0  0  0
  143.1920  159.8440  134.4980 C   0  0  0  0  0  0  0  0  0  0  0  0
  142.8230  159.3570  135.5990 O   0  0  0  0  0  0  0  0  0  0  0  0
  142.2510  160.4450  133.6720 O   0  0  0  0  0  0  0  0  0  0  0  0
  145.2940  158.6920  133.8340 C   0  0  0  0  0  0  0  0  0  0  0  0
  144.8830  157.3550  133.8840 C   0  0  0  0  0  0  0  0  0  0  0  0
  144.0190  154.5870  133.3250 C   0  0  0  0  0  0  0  0  0  0  0  0
  141.5434  153.6374  134.0875 H   0  0  0  0  0  0  0  0  0  0  0  0
  141.6962  154.7030  132.6495 H   0  0  0  0  0  0  0  0  0  0  0  0
  140.5033  153.3600  132.6495 H   0  0  0  0  0  0  0  0  0  0  0  0
  142.5260  152.9440  131.3910 H   0  0  0  0  0  0  0  0  0  0  0  0
  142.0407  151.1520  133.7043 H   0  0  0  0  0  0  0  0  0  0  0  0
  141.1195  151.2049  132.1631 H   0  0  0  0  0  0  0  0  0  0  0  0
  142.8415  150.6935  132.1631 H   0  0  0  0  0  0  0  0  0  0  0  0
  143.9758  152.4701  133.8603 H   0  0  0  0  0  0  0  0  0  0  0  0
  144.9262  151.6292  131.7303 H   0  0  0  0  0  0  0  0  0  0  0  0
  145.0002  153.3387  131.1229 H   0  0  0  0  0  0  0  0  0  0  0  0
  146.7516  151.9094  133.0797 H   0  0  0  0  0  0  0  0  0  0  0  0
  147.1084  153.2530  131.8954 H   0  0  0  0  0  0  0  0  0  0  0  0
  146.1740  153.4034  134.7552 H   0  0  0  0  0  0  0  0  0  0  0  0
  147.4147  154.3735  133.8712 H   0  0  0  0  0  0  0  0  0  0  0  0
  147.8353  155.9396  132.8189 H   0  0  0  0  0  0  0  0  0  0  0  0
  148.5024  158.3640  132.7155 H   0  0  0  0  0  0  0  0  0  0  0  0
  147.5176  161.0115  133.1362 H   0  0  0  0  0  0  0  0  0  0  0  0
  147.0140  162.9970  134.7970 H   0  0  0  0  0  0  0  0  0  0  0  0
  143.8614  157.0921  134.1957 H   0  0  0  0  0  0  0  0  0  0  0  0
  143.4426  154.7827  134.2412 H   0  0  0  0  0  0  0  0  0  0  0  0
  143.6355  155.1858  132.4857 H   0  0  0  0  0  0  0  0  0  0  0  0
  1  2  1  0
  2  3  1  0
  2  4  1  0
  4  5  1  0
  5  6  1  0
  6  7  1  0
  7  8  1  0
  8  9  1  0
  9 10  2  0
 10 11  1  0
 11 12  2  0
 12 13  1  0
 13 14  2  0
 14 15  1  0
 15 16  1  0
 15 17  2  0
 14 18  1  0
 18 19  1  0
 19 20  2  0
 19 21  1  0
 18 22  1  0
 22 23  2  0
  8 24  1  0
 24  4  1  0
 23  9  1  0
 22 12  1  0
  1 25  1  0
  1 26  1  0
  1 27  1  0
  2 28  1  0
  3 29  1  0
  3 30  1  0
  3 31  1  0
  4 32  1  1
  5 33  1  0
  5 34  1  0
  6 35  1  0
  6 36  1  0
  7 37  1  0
  7 38  1  0
 10 39  1  0
 11 40  1  0
 13 41  1  0
 16 42  1  0
 23 43  1  0
 24 44  1  0
 24 45  1  0
M  CHG  3   2   1  16  -1  21  -1
M  END
>  <UniqueID>  (5) 
5

>  <SMILES>  (5) 
C[NH+](C)[C@H]1CCCN(c2ccc3cc(C([NH-])=O)n(C(=O)[O-])c3c2)C1

>  <Energy>  (5) 
98.23012342306615

>  <Genealogy>  (5) 
C[NH+](C)C1CCCN(c2ccc3cc(C([NH-])=O)n(C(=O)[O-])c3c2)C1 (protonated)
C[NH+](C)[C@H]1CCCN(c2ccc3cc(C([NH-])=O)n(C(=O)[O-])c3c2)C1 (chirality)
C[NH+](C)[C@H]1CCCN(c2ccc3cc(C([NH-])=O)n(C(=O)[O-])c3c2)C1 (3D coordinates assigned)
C[NH+](C)[C@H]1CCCN(c2ccc3cc(C([NH-])=O)n(C(=O)[O-])c3c2)C1 (nonaromatic ring conformer: 98.23012342306615 kcal/mol)

>  <smiles>  (5) 
CN(C)C1CCCN(c2ccc3cc(C(N)=O)n(C(=O)O)c3c2)C1

>  <score_type>  (5) 
oracle

>  <origin>  (5) 
adg

>  <m_score__min__energy>  (5) 
-7.0800000000000001

>  <m_primary>  (5) 
energy

$$$$
5:0
     RDKit          3D

 58 60  0  0  0  0  0  0  0  0999 V2000
  140.1960  159.0020  132.1270 C   0  0  0  0  0  0  0  0  0  0  0  0
  141.0380  158.3440  133.2360 C   0  0  0  0  0  0  0  0  0  0  0  0
  140.6870  159.0010  134.5820 C   0  0  0  0  0  0  0  0  0  0  0  0
  140.7370  156.8360  133.3240 C   0  0  0  0  0  0  0  0  0  0  0  0
  142.4340  158.5680  133.0080 O   0  0  0  0  0  0  0  0  0  0  0  0
  143.4810  158.2590  133.8850 C   0  0  0  0  0  0  0  0  0  0  0  0
  143.2830  157.5540  134.9100 O   0  0  0  0  0  0  0  0  0  0  0  0
  144.7970  158.7670  133.6170 N   0  0  0  0  0  0  0  0  0  0  0  0
  145.1930  160.0700  133.6060 C   0  0  0  0  0  0  0  0  0  0  0  0
  144.2960  161.2380  133.7370 C   0  0  0  0  0  0  0  0  0  0  0  0
  142.9080  161.1280  133.4150 N   0  0  0  0  0  0  0  0  0  0  0  0
  144.7470  162.3380  134.1520 O   0  0  0  0  0  0  0  0  0  0  0  0
  146.5680  160.1600  133.3890 C   0  0  0  0  0  0  0  0  0  0  0  0
  147.0040  158.8600  133.2750 C   0  0  0  0  0  0  0  0  0  0  0  0
  148.2910  158.3610  133.0810 C   0  0  0  0  0  0  0  0  0  0  0  0
  148.4600  156.9660  133.0670 C   0  0  0  0  0  0  0  0  0  0  0  0
  147.3520  156.1020  133.2600 C   0  0  0  0  0  0  0  0  0  0  0  0
  147.5480  154.6070  133.2620 C   0  0  0  0  0  0  0  0  0  0  0  0
  146.6990  153.9220  134.3360 C   0  0  0  0  0  0  0  0  0  0  0  0
  147.2570  154.1320  135.7110 C   0  0  0  0  0  0  0  0  0  0  0  0
  147.9580  155.1500  135.9540 O   0  0  0  0  0  0  0  0  0  0  0  0
  146.9940  153.1650  136.7320 N   0  0  0  0  0  0  0  0  0  0  0  0
  147.9490  152.7730  137.7630 C   0  0  0  0  0  0  0  0  0  0  0  0
  148.3250  153.9720  138.6460 C   0  0  2  0  0  0  0  0  0  0  0  0
  149.7020  153.8430  139.2720 C   0  0  0  0  0  0  0  0  0  0  0  0
  149.5600  154.6610  140.5140 C   0  0  0  0  0  0  0  0  0  0  0  0
  148.0780  154.5660  140.8260 C   0  0  0  0  0  0  0  0  0  0  0  0
  147.3830  154.1150  139.6860 O   0  0  0  0  0  0  0  0  0  0  0  0
  146.0590  156.6450  133.4310 C   0  0  0  0  0  0  0  0  0  0  0  0
  145.9180  158.0370  133.4210 C   0  0  0  0  0  0  0  0  0  0  0  0
  139.4071  159.6185  132.5826 H   0  0  0  0  0  0  0  0  0  0  0  0
  140.8428  159.6364  131.5032 H   0  0  0  0  0  0  0  0  0  0  0  0
  139.7367  158.2211  131.5032 H   0  0  0  0  0  0  0  0  0  0  0  0
  141.0309  158.3572  135.4050 H   0  0  0  0  0  0  0  0  0  0  0  0
  141.1817  159.9810  134.6517 H   0  0  0  0  0  0  0  0  0  0  0  0
  139.5974  159.1346  134.6517 H   0  0  0  0  0  0  0  0  0  0  0  0
  140.6769  156.5351  134.3804 H   0  0  0  0  0  0  0  0  0  0  0  0
  139.7788  156.6238  132.8273 H   0  0  0  0  0  0  0  0  0  0  0  0
  141.5403  156.2722  132.8273 H   0  0  0  0  0  0  0  0  0  0  0  0
  142.2680  161.9420  133.5570 H   0  0  0  0  0  0  0  0  0  0  0  0
  142.5100  160.2470  133.0190 H   0  0  0  0  0  0  0  0  0  0  0  0
  147.1745  161.0753  133.3231 H   0  0  0  0  0  0  0  0  0  0  0  0
  149.1472  159.0377  132.9432 H   0  0  0  0  0  0  0  0  0  0  0  0
  149.4612  156.5401  132.9048 H   0  0  0  0  0  0  0  0  0  0  0  0
  147.2635  154.2096  132.2765 H   0  0  0  0  0  0  0  0  0  0  0  0
  148.6062  154.4019  133.4814 H   0  0  0  0  0  0  0  0  0  0  0  0
  145.6798  154.3342  134.2995 H   0  0  0  0  0  0  0  0  0  0  0  0
  146.6986  152.8413  134.1308 H   0  0  0  0  0  0  0  0  0  0  0  0
  147.4995  151.9899  138.3913 H   0  0  0  0  0  0  0  0  0  0  0  0
  148.8599  152.3974  137.2739 H   0  0  0  0  0  0  0  0  0  0  0  0
  148.3315  154.8511  137.9849 H   0  0  0  0  0  0  0  0  0  0  0  0
  149.9360  152.7947  139.5091 H   0  0  0  0  0  0  0  0  0  0  0  0
  150.5194  154.1749  138.6149 H   0  0  0  0  0  0  0  0  0  0  0  0
  150.1629  154.2419  141.3331 H   0  0  0  0  0  0  0  0  0  0  0  0
  149.9085  155.6969  140.3898 H   0  0  0  0  0  0  0  0  0  0  0  0
  147.9227  153.8579  141.6534 H   0  0  0  0  0  0  0  0  0  0  0  0
  147.7011  155.5582  141.1149 H   0  0  0  0  0  0  0  0  0  0  0  0
  145.1858  155.9904  133.5684 H   0  0  0  0  0  0  0  0  0  0  0  0
  1  2  1  0
  2  3  1  0
  2  4  1  0
  2  5  1  0
  5  6  1  0
  6  7  2  0
  6  8  1  0
  8  9  1  0
  9 10  1  0
 10 11  1  0
 10 12  2  0
  9 13  2  0
 13 14  1  0
 14 15  2  0
 15 16  1  0
 16 17  2  0
 17 18  1  0
 18 19  1  0
 19 20  1  0
 20 21  2  0
 20 22  1  0
 22 23  1  0
 23 24  1  0
 24 25  1  0
 25 26  1  0
 26 27  1  0
 27 28  1  0
 17 29  1  0
 29 30  2  0
 30  8  1  0
 30 14  1  0
 28 24  1  0
  1 31  1  0
  1 32  1  0
  1 33  1  0
  3 34  1  0
  3 35  1  0
  3 36  1  0
  4 37  1  0
  4 38  1  0
  4 39  1  0
 11 40  1  0
 11 41  1  0
 13 42  1  0
 15 43  1  0
 16 44  1  0
 18 45  1  0
 18 46  1  0
 19 47  1  0
 19 48  1  0
 23 49  1  0
 23 50  1  0
 24 51  1  6
 25 52  1  0
 25 53  1  0
 26 54  1  0
 26 55  1  0
 27 56  1  0
 27 57  1  0
 29 58  1  0
M  CHG  1  22  -1
M  END
>  <UniqueID>  (6) 
6

>  <SMILES>  (6) 
CC(C)(C)OC(=O)n1c(C(N)=O)cc2ccc(CCC(=O)[N-]C[C@@H]3CCCO3)cc21

>  <Energy>  (6) 
85.854560064574

>  <Genealogy>  (6) 
CC(C)(C)OC(=O)n1c(C(N)=O)cc2ccc(CCC(=O)[N-]C[C@@H]3CCCO3)cc21 (protonated)
CC(C)(C)OC(=O)n1c(C(N)=O)cc2ccc(CCC(=O)[N-]C[C@@H]3CCCO3)cc21 (3D coordinates assigned)
CC(C)(C)OC(=O)n1c(C(N)=O)cc2ccc(CCC(=O)[N-]C[C@@H]3CCCO3)cc21 (nonaromatic ring conformer: 85.854560064574 kcal/mol)

>  <smiles>  (6) 
CC(C)(C)OC(=O)n1c(C(N)=O)cc2ccc(CCC(=O)NC[C@@H]3CCCO3)cc21

>  <score_type>  (6) 
oracle

>  <origin>  (6) 
adg

>  <m_score__min__energy>  (6) 
-9.2200000000000006

>  <m_primary>  (6) 
energy

$$$$
6:0
     RDKit          3D

 48 50  0  0  0  0  0  0  0  0999 V2000
  139.1220  157.9130  132.6320 C   0  0  0  0  0  0  0  0  0  0  0  0
  139.6090  156.5120  132.9860 C   0  0  0  0  0  0  0  0  0  0  0  0
  140.5990  156.5710  134.1100 C   0  0  0  0  0  0  0  0  0  0  0  0
  140.1950  156.7720  135.2870 O   0  0  0  0  0  0  0  0  0  0  0  0
  141.9820  156.2740  133.8750 N   0  0  0  0  0  0  0  0  0  0  0  0
  143.0380  157.1340  133.8760 C   0  0  0  0  0  0  0  0  0  0  0  0
  142.9930  158.5560  134.2770 C   0  0  0  0  0  0  0  0  0  0  0  0
  142.2980  158.9630  135.4530 N   0  0  0  0  0  0  0  0  0  0  0  0
  143.6030  159.4180  133.5900 O   0  0  0  0  0  0  0  0  0  0  0  0
  144.2050  156.4710  133.4980 C   0  0  0  0  0  0  0  0  0  0  0  0
  143.8250  155.1660  133.2700 C   0  0  0  0  0  0  0  0  0  0  0  0
  144.5770  154.0710  132.8560 C   0  0  0  0  0  0  0  0  0  0  0  0
  143.9100  152.8460  132.6740 C   0  0  0  0  0  0  0  0  0  0  0  0
  142.5150  152.7410  132.9040 C   0  0  0  0  0  0  0  0  0  0  0  0
  141.8450  151.4820  132.7150 N   0  0  0  0  0  0  0  0  0  0  0  0
  142.6070  150.3240  132.2260 C   0  0  0  0  0  0  0  0  0  0  0  0
  141.7270  149.0730  132.0900 C   0  0  0  0  0  0  0  0  0  0  0  0
  140.4380  149.4000  131.4600 N   0  0  0  0  0  0  0  0  0  0  0  0
  139.7940  148.4640  130.5750 C   0  0  0  0  0  0  0  0  0  0  0  0
  138.9730  148.8850  129.7140 O   0  0  0  0  0  0  0  0  0  0  0  0
  140.0480  147.0550  130.6820 N   0  0  0  0  0  0  0  0  0  0  0  0
  139.4760  146.1000  129.7410 C   0  0  0  0  0  0  0  0  0  0  0  0
  139.7310  150.6440  131.8070 C   0  0  0  0  0  0  0  0  0  0  0  0
  140.4080  151.3630  132.9750 C   0  0  0  0  0  0  0  0  0  0  0  0
  141.7870  153.8760  133.3260 C   0  0  0  0  0  0  0  0  0  0  0  0
  142.4790  155.0760  133.5070 C   0  0  0  0  0  0  0  0  0  0  0  0
  138.9258  158.4773  133.5556 H   0  0  0  0  0  0  0  0  0  0  0  0
  139.8928  158.4311  132.0425 H   0  0  0  0  0  0  0  0  0  0  0  0
  138.1961  157.8413  132.0425 H   0  0  0  0  0  0  0  0  0  0  0  0
  138.7502  155.8962  133.2914 H   0  0  0  0  0  0  0  0  0  0  0  0
  140.0964  156.0704  132.1042 H   0  0  0  0  0  0  0  0  0  0  0  0
  141.5080  158.3980  135.8340 H   0  0  0  0  0  0  0  0  0  0  0  0
  145.2140  156.8985  133.4022 H   0  0  0  0  0  0  0  0  0  0  0  0
  145.6586  154.1604  132.6767 H   0  0  0  0  0  0  0  0  0  0  0  0
  144.4765  151.9605  132.3499 H   0  0  0  0  0  0  0  0  0  0  0  0
  143.0317  150.5684  131.2412 H   0  0  0  0  0  0  0  0  0  0  0  0
  143.3990  150.1048  132.9572 H   0  0  0  0  0  0  0  0  0  0  0  0
  142.2514  148.3300  131.4712 H   0  0  0  0  0  0  0  0  0  0  0  0
  141.5333  148.6703  133.0951 H   0  0  0  0  0  0  0  0  0  0  0  0
  140.6250  146.6850  131.4710 H   0  0  0  0  0  0  0  0  0  0  0  0
  138.9881  145.2854  130.2963 H   0  0  0  0  0  0  0  0  0  0  0  0
  138.7336  146.6085  129.1083 H   0  0  0  0  0  0  0  0  0  0  0  0
  140.2746  145.6855  129.1083 H   0  0  0  0  0  0  0  0  0  0  0  0
  139.7266  151.3095  130.9311 H   0  0  0  0  0  0  0  0  0  0  0  0
  138.7044  150.3868  132.1068 H   0  0  0  0  0  0  0  0  0  0  0  0
  139.9725  152.3667  133.0885 H   0  0  0  0  0  0  0  0  0  0  0  0
  140.2512  150.7860  133.8983 H   0  0  0  0  0  0  0  0  0  0  0  0
  140.7037  153.8163  133.5073 H   0  0  0  0  0  0  0  0  0  0  0  0
  1  2  1  0
  2  3  1  0
  3  4  2  0
  3  5  1  0
  5  6  1  0
  6  7  1  0
  7  8  1  0
  7  9  2  0
  6 10  2  0
 10 11  1  0
 11 12  2  0
 12 13  1  0
 13 14  2  0
 14 15  1  0
 15 16  1  0
 16 17  1  0
 17 18  1  0
 18 19  1  0
 19 20  2  0
 19 21  1  0
 21 22  1  0
 18 23  1  0
 23 24  1  0
 14 25  1  0
 25 26  2  0
 26  5  1  0
 26 11  1  0
 24 15  1  0
  1 27  1  0
  1 28  1  0
  1 29  1  0
  2 30  1  0
  2 31  1  0
  8 32  1  0
 10 33  1  0
 12 34  1  0
 13 35  1  0
 16 36  1  0
 16 37  1  0
 17 38  1  0
 17 39  1  0
 21 40  1  0
 22 41  1  0
 22 42  1  0
 22 43  1  0
 23 44  1  0
 23 45  1  0
 24 46  1  0
 24 47  1  0
 25 48  1  0
M  CHG  1   8  -1
M  END
>  <UniqueID>  (7) 
7

>  <SMILES>  (7) 
CCC(=O)n1c(C([NH-])=O)cc2ccc(N3CCN(C(=O)NC)CC3)cc21

>  <Energy>  (7) 
87.78710342717024

>  <Genealogy>  (7) 
CCC(=O)n1c(C([NH-])=O)cc2ccc(N3CCN(C(=O)NC)CC3)cc21 (protonated)
CCC(=O)n1c(C([NH-])=O)cc2ccc(N3CCN(C(=O)NC)CC3)cc21 (3D coordinates assigned)
CCC(=O)n1c(C([NH-])=O)cc2ccc(N3CCN(C(=O)NC)CC3)cc21 (nonaromatic ring conformer: 87.78710342717024 kcal/mol)

>  <smiles>  (7) 
CCC(=O)n1c(C(N)=O)cc2ccc(N3CCN(C(=O)NC)CC3)cc21

>  <score_type>  (7) 
oracle

>  <origin>  (7) 
adg

>  <m_score__min__energy>  (7) 
-8.0999999999999996

>  <m_primary>  (7) 
energy

$$$$
7:0
     RDKit          3D

 46 48  0  0  0  0  0  0  0  0999 V2000
  141.2830  158.5710  135.8320 C   0  0  0  0  0  0  0  0  0  0  0  0
  141.4140  159.0280  134.3740 C   0  0  2  0  0  0  0  0  0  0  0  0
  140.9100  157.9810  133.4170 C   0  0  0  0  0  0  0  0  0  0  0  0
  141.2980  157.9870  132.2200 O   0  0  0  0  0  0  0  0  0  0  0  0
  140.0690  156.9640  133.8550 O   0  0  0  0  0  0  0  0  0  0  0  0
  142.8470  159.4030  134.0510 C   0  0  0  0  0  0  0  0  0  0  0  0
  143.2240  160.7700  134.0110 C   0  0  0  0  0  0  0  0  0  0  0  0
  144.5510  161.1410  133.7470 C   0  0  0  0  0  0  0  0  0  0  0  0
  145.4790  160.1310  133.5190 C   0  0  0  0  0  0  0  0  0  0  0  0
  146.8310  160.2120  133.2770 C   0  0  0  0  0  0  0  0  0  0  0  0
  147.2600  158.8940  133.1370 C   0  0  0  0  0  0  0  0  0  0  0  0
  148.6470  158.5260  132.8060 C   0  0  0  0  0  0  0  0  0  0  0  0
  148.9280  157.4980  131.8530 N   0  0  0  0  0  0  0  0  0  0  0  0
  149.6000  159.1620  133.3310 O   0  0  0  0  0  0  0  0  0  0  0  0
  146.2210  158.0260  133.2950 N   0  0  0  0  0  0  0  0  0  0  0  0
  146.2800  156.5890  133.3380 C   0  0  0  0  0  0  0  0  0  0  0  0
  146.8780  155.9590  132.4260 O   0  0  0  0  0  0  0  0  0  0  0  0
  145.6570  155.8940  134.3840 O   0  0  0  0  0  0  0  0  0  0  0  0
  145.1930  154.5490  134.2750 C   0  0  0  0  0  0  0  0  0  0  0  0
  144.3570  154.3280  132.9940 C   0  0  1  0  0  0  0  0  0  0  0  0
  143.2820  153.2730  133.1830 C   0  0  0  0  0  0  0  0  0  0  0  0
  142.0050  154.0440  133.4950 C   0  0  0  0  0  0  0  0  0  0  0  0
  142.2630  155.4690  133.2830 N   0  0  0  0  0  0  0  0  0  0  0  0
  143.5650  155.5770  132.6320 C   0  0  0  0  0  0  0  0  0  0  0  0
  145.1360  158.8020  133.5330 C   0  0  0  0  0  0  0  0  0  0  0  0
  143.8240  158.4040  133.8190 C   0  0  0  0  0  0  0  0  0  0  0  0
  141.5234  159.4096  136.5021 H   0  0  0  0  0  0  0  0  0  0  0  0
  140.2525  158.2353  136.0199 H   0  0  0  0  0  0  0  0  0  0  0  0
  141.9792  157.7403  136.0199 H   0  0  0  0  0  0  0  0  0  0  0  0
  140.7850  159.9221  134.2518 H   0  0  0  0  0  0  0  0  0  0  0  0
  142.4671  161.5481  134.1890 H   0  0  0  0  0  0  0  0  0  0  0  0
  144.8485  162.1997  133.7211 H   0  0  0  0  0  0  0  0  0  0  0  0
  147.4430  161.1235  133.2086 H   0  0  0  0  0  0  0  0  0  0  0  0
  148.1690  157.0580  131.2950 H   0  0  0  0  0  0  0  0  0  0  0  0
  149.9140  157.2450  131.6310 H   0  0  0  0  0  0  0  0  0  0  0  0
  146.0614  153.8742  134.2533 H   0  0  0  0  0  0  0  0  0  0  0  0
  144.5489  154.3400  135.1418 H   0  0  0  0  0  0  0  0  0  0  0  0
  145.0926  154.0409  132.2282 H   0  0  0  0  0  0  0  0  0  0  0  0
  143.1588  152.6809  132.2642 H   0  0  0  0  0  0  0  0  0  0  0  0
  143.5394  152.5676  133.9868 H   0  0  0  0  0  0  0  0  0  0  0  0
  141.1966  153.7095  132.8282 H   0  0  0  0  0  0  0  0  0  0  0  0
  141.7005  153.8657  134.5369 H   0  0  0  0  0  0  0  0  0  0  0  0
  141.5360  155.8670  132.6470 H   0  0  0  0  0  0  0  0  0  0  0  0
  143.4366  155.6384  131.5412 H   0  0  0  0  0  0  0  0  0  0  0  0
  144.0928  156.4829  132.9646 H   0  0  0  0  0  0  0  0  0  0  0  0
  143.5578  157.3376  133.8626 H   0  0  0  0  0  0  0  0  0  0  0  0
  1  2  1  0
  2  3  1  0
  3  4  2  0
  3  5  1  0
  2  6  1  0
  6  7  2  0
  7  8  1  0
  8  9  2  0
  9 10  1  0
 10 11  2  0
 11 12  1  0
 12 13  1  0
 12 14  2  0
 11 15  1  0
 15 16  1  0
 16 17  2  0
 16 18  1  0
 18 19  1  0
 19 20  1  0
 20 21  1  0
 21 22  1  0
 22 23  1  0
 23 24  1  0
 15 25  1  0
 25 26  2  0
 26  6  1  0
 25  9  1  0
 24 20  1  0
  1 27  1  0
  1 28  1  0
  1 29  1  0
  2 30  1  1
  7 31  1  0
  8 32  1  0
 10 33  1  0
 13 34  1  0
 13 35  1  0
 19 36  1  0
 19 37  1  0
 20 38  1  6
 21 39  1  0
 21 40  1  0
 22 41  1  0
 22 42  1  0
 23 43  1  0
 24 44  1  0
 24 45  1  0
 26 46  1  0
M  CHG  1   5  -1
M  END
>  <UniqueID>  (8) 
8

>  <SMILES>  (8) 
C[C@H](C(=O)[O-])c1ccc2cc(C(N)=O)n(C(=O)OC[C@H]3CCNC3)c2c1

>  <Energy>  (8) 
83.51989387275546

>  <Genealogy>  (8) 
CC(C(=O)[O-])c1ccc2cc(C(N)=O)n(C(=O)OC[C@H]3CCNC3)c2c1 (protonated)
C[C@H](C(=O)[O-])c1ccc2cc(C(N)=O)n(C(=O)OC[C@H]3CCNC3)c2c1 (chirality)
C[C@H](C(=O)[O-])c1ccc2cc(C(N)=O)n(C(=O)OC[C@H]3CCNC3)c2c1 (3D coordinates assigned)
C[C@H](C(=O)[O-])c1ccc2cc(C(N)=O)n(C(=O)OC[C@H]3CCNC3)c2c1 (nonaromatic ring conformer: 83.51989387275546 kcal/mol)

>  <smiles>  (8) 
CC(C(=O)O)c1ccc2cc(C(N)=O)n(C(=O)OC[C@H]3CCNC3)c2c1

>  <score_type>  (8) 
oracle

>  <origin>  (8) 
adg

>  <m_score__min__energy>  (8) 
-8.1400000000000006

>  <m_primary>  (8) 
energy

$$$$
8:0
     RDKit          3D

 44 45  0  0  0  0  0  0  0  0999 V2000
  139.8750  154.4600  138.9930 C   0  0  0  0  0  0  0  0  0  0  0  0
  140.9530  155.2230  138.7980 C   0  0  0  0  0  0  0  0  0  0  0  0
  141.6740  155.2330  137.4840 C   0  0  0  0  0  0  0  0  0  0  0  0
  141.9250  153.8950  137.0720 O   0  0  0  0  0  0  0  0  0  0  0  0
  142.8310  153.5630  136.0600 C   0  0  0  0  0  0  0  0  0  0  0  0
  144.0670  153.5000  136.3100 O   0  0  0  0  0  0  0  0  0  0  0  0
  142.3420  153.2580  134.6670 C   0  0  1  0  0  0  0  0  0  0  0  0
  141.5550  151.9740  134.6440 C   0  0  0  0  0  0  0  0  0  0  0  0
  141.3730  151.3710  133.5550 O   0  0  0  0  0  0  0  0  0  0  0  0
  140.9840  151.4680  135.8070 O   0  0  0  0  0  0  0  0  0  0  0  0
  141.5220  154.3980  134.0900 C   0  0  0  0  0  0  0  0  0  0  0  0
  140.3440  154.1180  133.3520 C   0  0  0  0  0  0  0  0  0  0  0  0
  139.5910  155.1570  132.7800 C   0  0  0  0  0  0  0  0  0  0  0  0
  140.0350  156.4610  132.9610 C   0  0  0  0  0  0  0  0  0  0  0  0
  139.5190  157.6460  132.4860 C   0  0  0  0  0  0  0  0  0  0  0  0
  140.3790  158.6380  132.9530 C   0  0  0  0  0  0  0  0  0  0  0  0
  140.1470  160.0820  132.7440 C   0  0  0  0  0  0  0  0  0  0  0  0
  141.0210  161.0540  133.3090 N   0  0  0  0  0  0  0  0  0  0  0  0
  139.1350  160.4630  132.1000 O   0  0  0  0  0  0  0  0  0  0  0  0
  141.3930  158.0860  133.6810 N   0  0  0  0  0  0  0  0  0  0  0  0
  142.5310  158.7520  134.2520 C   0  0  0  0  0  0  0  0  0  0  0  0
  143.6330  158.7520  133.6390 O   0  0  0  0  0  0  0  0  0  0  0  0
  142.4170  159.3670  135.5050 O   0  0  0  0  0  0  0  0  0  0  0  0
  141.7590  158.7650  136.6170 C   0  0  0  0  0  0  0  0  0  0  0  0
  140.2680  158.9130  136.4790 C   0  0  0  0  0  0  0  0  0  0  0  0
  139.4640  157.8530  136.3460 C   0  0  0  0  0  0  0  0  0  0  0  0
  141.1630  156.7550  133.6800 C   0  0  0  0  0  0  0  0  0  0  0  0
  141.9400  155.7410  134.2490 C   0  0  0  0  0  0  0  0  0  0  0  0
  139.3629  154.4699  139.9665 H   0  0  0  0  0  0  0  0  0  0  0  0
  139.4988  153.8214  138.1802 H   0  0  0  0  0  0  0  0  0  0  0  0
  141.3196  155.8573  139.6185 H   0  0  0  0  0  0  0  0  0  0  0  0
  141.0542  155.7391  136.7292 H   0  0  0  0  0  0  0  0  0  0  0  0
  142.6285  155.7688  137.5930 H   0  0  0  0  0  0  0  0  0  0  0  0
  143.2309  153.1367  134.0304 H   0  0  0  0  0  0  0  0  0  0  0  0
  140.0161  153.0756  133.2260 H   0  0  0  0  0  0  0  0  0  0  0  0
  138.6771  154.9444  132.2059 H   0  0  0  0  0  0  0  0  0  0  0  0
  138.6186  157.7810  131.8686 H   0  0  0  0  0  0  0  0  0  0  0  0
  141.7860  160.7740  133.9620 H   0  0  0  0  0  0  0  0  0  0  0  0
  142.0162  157.6962  136.6567 H   0  0  0  0  0  0  0  0  0  0  0  0
  142.0858  159.2638  137.5414 H   0  0  0  0  0  0  0  0  0  0  0  0
  139.8274  159.9209  136.4878 H   0  0  0  0  0  0  0  0  0  0  0  0
  138.3778  157.9955  136.2472 H   0  0  0  0  0  0  0  0  0  0  0  0
  139.8888  156.8384  136.3353 H   0  0  0  0  0  0  0  0  0  0  0  0
  142.8562  155.9819  134.8080 H   0  0  0  0  0  0  0  0  0  0  0  0
  1  2  2  0
  2  3  1  0
  3  4  1  0
  4  5  1  0
  5  6  2  0
  5  7  1  0
  7  8  1  0
  8  9  2  0
  8 10  1  0
  7 11  1  0
 11 12  2  0
 12 13  1  0
 13 14  2  0
 14 15  1  0
 15 16  2  0
 16 17  1  0
 17 18  1  0
 17 19  2  0
 16 20  1  0
 20 21  1  0
 21 22  2  0
 21 23  1  0
 23 24  1  0
 24 25  1  0
 25 26  2  0
 20 27  1  0
 27 28  2  0
 28 11  1  0
 27 14  1  0
  1 29  1  0
  1 30  1  0
  2 31  1  0
  3 32  1  0
  3 33  1  0
  7 34  1  6
 12 35  1  0
 13 36  1  0
 15 37  1  0
 18 38  1  0
 24 39  1  0
 24 40  1  0
 25 41  1  0
 26 42  1  0
 26 43  1  0
 28 44  1  0
M  CHG  2  10  -1  18  -1
M  END
>  <UniqueID>  (9) 
9

>  <SMILES>  (9) 
C=CCOC(=O)[C@@H](C(=O)[O-])c1ccc2cc(C([NH-])=O)n(C(=O)OCC=C)c2c1

>  <Energy>  (9) 
74.57682412006334

>  <Genealogy>  (9) 
C=CCOC(=O)C(C(=O)[O-])c1ccc2cc(C([NH-])=O)n(C(=O)OCC=C)c2c1 (protonated)
C=CCOC(=O)[C@@H](C(=O)[O-])c1ccc2cc(C([NH-])=O)n(C(=O)OCC=C)c2c1 (chirality)
C=CCOC(=O)[C@@H](C(=O)[O-])c1ccc2cc(C([NH-])=O)n(C(=O)OCC=C)c2c1 (3D coordinates assigned)
C=CCOC(=O)[C@@H](C(=O)[O-])c1ccc2cc(C([NH-])=O)n(C(=O)OCC=C)c2c1 (optimized conformer: 74.57682412006334 kcal/mol)

>  <smiles>  (9) 
C=CCOC(=O)C(C(=O)O)c1ccc2cc(C(N)=O)n(C(=O)OCC=C)c2c1

>  <score_type>  (9) 
oracle

>  <origin>  (9) 
adg

>  <m_score__min__energy>  (9) 
-7.0599999999999996

>  <m_primary>  (9) 
energy

$$$$
9:0
     RDKit          3D

 42 44  0  0  0  0  0  0  0  0999 V2000
  139.0640  148.3890  129.2920 C   0  0  0  0  0  0  0  0  0  0  0  0
  139.0650  148.7660  130.7130 N   0  0  0  0  0  0  0  0  0  0  0  0
  140.1030  148.0180  131.4710 C   0  0  0  0  0  0  0  0  0  0  0  0
  141.3700  148.8480  131.7160 C   0  0  0  0  0  0  0  0  0  0  0  0
  141.0530  150.1200  132.5420 C   0  0  0  0  0  0  0  0  0  0  0  0
  142.1090  151.2230  132.3040 C   0  0  0  0  0  0  0  0  0  0  0  0
  142.1600  152.2080  133.4450 C   0  0  0  0  0  0  0  0  0  0  0  0
  142.5950  153.5370  133.2140 C   0  0  0  0  0  0  0  0  0  0  0  0
  142.6300  154.4710  134.2610 C   0  0  0  0  0  0  0  0  0  0  0  0
  142.2110  154.0540  135.5220 C   0  0  0  0  0  0  0  0  0  0  0  0
  142.1600  154.7450  136.7100 C   0  0  0  0  0  0  0  0  0  0  0  0
  141.6650  153.8380  137.6450 C   0  0  0  0  0  0  0  0  0  0  0  0
  141.3680  154.1960  139.0480 C   0  0  0  0  0  0  0  0  0  0  0  0
  142.2750  155.0220  139.7740 N   0  0  0  0  0  0  0  0  0  0  0  0
  140.3060  153.8110  139.6030 O   0  0  0  0  0  0  0  0  0  0  0  0
  141.4260  152.6290  137.0580 N   0  0  0  0  0  0  0  0  0  0  0  0
  140.9700  151.4180  137.6830 C   0  0  0  0  0  0  0  0  0  0  0  0
  141.2270  151.1900  138.8940 O   0  0  0  0  0  0  0  0  0  0  0  0
  140.2610  150.4740  136.9500 O   0  0  0  0  0  0  0  0  0  0  0  0
  141.7640  152.7780  135.7580 C   0  0  0  0  0  0  0  0  0  0  0  0
  141.7400  151.8220  134.7370 C   0  0  0  0  0  0  0  0  0  0  0  0
  139.6240  150.6480  132.2540 C   0  0  0  0  0  0  0  0  0  0  0  0
  139.1510  150.2400  130.8540 C   0  0  0  0  0  0  0  0  0  0  0  0
  139.0611  147.2926  129.2036 H   0  0  0  0  0  0  0  0  0  0  0  0
  138.1669  148.7986  128.8046 H   0  0  0  0  0  0  0  0  0  0  0  0
  139.9632  148.7938  128.8046 H   0  0  0  0  0  0  0  0  0  0  0  0
  139.6832  147.7211  132.4434 H   0  0  0  0  0  0  0  0  0  0  0  0
  140.3897  147.1439  130.8679 H   0  0  0  0  0  0  0  0  0  0  0  0
  142.0999  148.2355  132.2656 H   0  0  0  0  0  0  0  0  0  0  0  0
  141.7789  149.1567  130.7426 H   0  0  0  0  0  0  0  0  0  0  0  0
  141.0941  149.8361  133.6040 H   0  0  0  0  0  0  0  0  0  0  0  0
  143.0972  150.7520  132.1963 H   0  0  0  0  0  0  0  0  0  0  0  0
  141.8297  151.7714  131.3923 H   0  0  0  0  0  0  0  0  0  0  0  0
  142.9083  153.8395  132.2039 H   0  0  0  0  0  0  0  0  0  0  0  0
  142.9777  155.5006  134.0909 H   0  0  0  0  0  0  0  0  0  0  0  0
  142.4488  155.7919  136.8851 H   0  0  0  0  0  0  0  0  0  0  0  0
  143.2270  155.2310  139.4000 H   0  0  0  0  0  0  0  0  0  0  0  0
  141.4021  150.7942  134.9357 H   0  0  0  0  0  0  0  0  0  0  0  0
  138.9314  150.2333  133.0012 H   0  0  0  0  0  0  0  0  0  0  0  0
  139.6424  151.7465  132.3078 H   0  0  0  0  0  0  0  0  0  0  0  0
  138.1567  150.6743  130.6728 H   0  0  0  0  0  0  0  0  0  0  0  0
  139.8827  150.6128  130.1222 H   0  0  0  0  0  0  0  0  0  0  0  0
  1  2  1  0
  2  3  1  0
  3  4  1  0
  4  5  1  0
  5  6  1  0
  6  7  1  0
  7  8  2  0
  8  9  1  0
  9 10  2  0
 10 11  1  0
 11 12  2  0
 12 13  1  0
 13 14  1  0
 13 15  2  0
 12 16  1  0
 16 17  1  0
 17 18  2  0
 17 19  1  0
 16 20  1  0
 20 21  2  0
  5 22  1  0
 22 23  1  0
 23  2  1  0
 21  7  1  0
 20 10  1  0
  1 24  1  0
  1 25  1  0
  1 26  1  0
  3 27  1  0
  3 28  1  0
  4 29  1  0
  4 30  1  0
  5 31  1  0
  6 32  1  0
  6 33  1  0
  8 34  1  0
  9 35  1  0
 11 36  1  0
 14 37  1  0
 21 38  1  0
 22 39  1  0
 22 40  1  0
 23 41  1  0
 23 42  1  0
M  CHG  2  14  -1  19  -1
M  END
>  <UniqueID>  (10) 
10

>  <SMILES>  (10) 
CN1CCC(Cc2ccc3cc(C([NH-])=O)n(C(=O)[O-])c3c2)CC1

>  <Energy>  (10) 
87.88360768604434

>  <Genealogy>  (10) 
CN1CCC(Cc2ccc3cc(C([NH-])=O)n(C(=O)[O-])c3c2)CC1 (protonated)
CN1CCC(Cc2ccc3cc(C([NH-])=O)n(C(=O)[O-])c3c2)CC1 (3D coordinates assigned)
CN1CCC(Cc2ccc3cc(C([NH-])=O)n(C(=O)[O-])c3c2)CC1 (nonaromatic ring conformer: 87.88360768604434 kcal/mol)

>  <smiles>  (10) 
CN1CCC(Cc2ccc3cc(C(N)=O)n(C(=O)O)c3c2)CC1

>  <score_type>  (10) 
oracle

>  <origin>  (10) 
adg

>  <m_score__min__energy>  (10) 
-8.0199999999999996

>  <m_primary>  (10) 
energy

$$$$
10:0
     RDKit          3D

 44 45  0  0  0  0  0  0  0  0999 V2000
  149.9510  153.7170  132.2350 C   0  0  0  0  0  0  0  0  0  0  0  0
  149.2100  152.8400  133.1550 N   0  0  0  0  0  0  0  0  0  0  0  0
  148.0990  153.4260  133.8560 C   0  0  0  0  0  0  0  0  0  0  0  0
  148.0620  153.3870  135.1150 O   0  0  0  0  0  0  0  0  0  0  0  0
  146.9860  154.0950  133.1040 C   0  0  0  0  0  0  0  0  0  0  0  0
  147.0890  155.5920  133.2070 C   0  0  0  0  0  0  0  0  0  0  0  0
  148.3520  156.2300  133.1290 C   0  0  0  0  0  0  0  0  0  0  0  0
  148.4550  157.6270  133.2240 C   0  0  0  0  0  0  0  0  0  0  0  0
  147.2850  158.3580  133.4080 C   0  0  0  0  0  0  0  0  0  0  0  0
  147.0980  159.7190  133.4940 C   0  0  0  0  0  0  0  0  0  0  0  0
  145.7270  159.8900  133.6640 C   0  0  0  0  0  0  0  0  0  0  0  0
  145.0910  161.2070  133.8610 C   0  0  0  0  0  0  0  0  0  0  0  0
  143.6770  161.3720  133.7420 N   0  0  0  0  0  0  0  0  0  0  0  0
  145.8020  162.1930  134.1960 O   0  0  0  0  0  0  0  0  0  0  0  0
  145.0870  158.6850  133.6700 N   0  0  0  0  0  0  0  0  0  0  0  0
  143.6680  158.4490  133.7050 C   0  0  0  0  0  0  0  0  0  0  0  0
  143.0820  157.9510  132.7080 O   0  0  0  0  0  0  0  0  0  0  0  0
  142.9310  158.7590  134.8400 O   0  0  0  0  0  0  0  0  0  0  0  0
  146.0560  157.7560  133.5130 C   0  0  0  0  0  0  0  0  0  0  0  0
  145.9230  156.3670  133.3990 C   0  0  0  0  0  0  0  0  0  0  0  0
  149.3680  151.3600  133.1260 C   0  0  0  0  0  0  0  0  0  0  0  0
  148.0940  150.6930  132.5600 C   0  0  0  0  0  0  0  0  0  0  0  0
  149.6120  150.7780  134.5400 C   0  0  0  0  0  0  0  0  0  0  0  0
  150.5700  150.9960  132.2330 C   0  0  0  0  0  0  0  0  0  0  0  0
  150.5542  154.4309  132.8150 H   0  0  0  0  0  0  0  0  0  0  0  0
  150.6125  153.1082  131.6011 H   0  0  0  0  0  0  0  0  0  0  0  0
  149.2404  154.2675  131.6011 H   0  0  0  0  0  0  0  0  0  0  0  0
  147.0410  153.8027  132.0450 H   0  0  0  0  0  0  0  0  0  0  0  0
  146.0278  153.7789  133.5420 H   0  0  0  0  0  0  0  0  0  0  0  0
  149.2604  155.6249  132.9927 H   0  0  0  0  0  0  0  0  0  0  0  0
  149.4314  158.1289  133.1550 H   0  0  0  0  0  0  0  0  0  0  0  0
  147.8672  160.5035  133.4400 H   0  0  0  0  0  0  0  0  0  0  0  0
  143.2530  162.3240  133.8170 H   0  0  0  0  0  0  0  0  0  0  0  0
  143.0440  160.5480  133.6460 H   0  0  0  0  0  0  0  0  0  0  0  0
  144.9336  155.8899  133.4575 H   0  0  0  0  0  0  0  0  0  0  0  0
  147.4552  150.3586  133.3907 H   0  0  0  0  0  0  0  0  0  0  0  0
  147.5434  151.4185  131.9432 H   0  0  0  0  0  0  0  0  0  0  0  0
  148.3766  149.8271  131.9432 H   0  0  0  0  0  0  0  0  0  0  0  0
  149.3036  151.5136  135.2975 H   0  0  0  0  0  0  0  0  0  0  0  0
  149.0246  149.8562  134.6635 H   0  0  0  0  0  0  0  0  0  0  0  0
  150.6812  150.5507  134.6635 H   0  0  0  0  0  0  0  0  0  0  0  0
  151.4312  150.7352  132.8657 H   0  0  0  0  0  0  0  0  0  0  0  0
  150.3081  150.1369  131.5979 H   0  0  0  0  0  0  0  0  0  0  0  0
  150.8287  151.8561  131.5979 H   0  0  0  0  0  0  0  0  0  0  0  0
  1  2  1  0
  2  3  1  0
  3  4  2  0
  3  5  1  0
  5  6  1  0
  6  7  2  0
  7  8  1  0
  8  9  2  0
  9 10  1  0
 10 11  2  0
 11 12  1  0
 12 13  1  0
 12 14  2  0
 11 15  1  0
 15 16  1  0
 16 17  2  0
 16 18  1  0
 15 19  1  0
 19 20  2  0
  2 21  1  0
 21 22  1  0
 21 23  1  0
 21 24  1  0
 20  6  1  0
 19  9  1  0
  1 25  1  0
  1 26  1  0
  1 27  1  0
  5 28  1  0
  5 29  1  0
  7 30  1  0
  8 31  1  0
 10 32  1  0
 13 33  1  0
 13 34  1  0
 20 35  1  0
 22 36  1  0
 22 37  1  0
 22 38  1  0
 23 39  1  0
 23 40  1  0
 23 41  1  0
 24 42  1  0
 24 43  1  0
 24 44  1  0
M  CHG  1  18  -1
M  END
>  <UniqueID>  (11) 
11

>  <SMILES>  (11) 
CN(C(=O)Cc1ccc2cc(C(N)=O)n(C(=O)[O-])c2c1)C(C)(C)C

>  <Energy>  (11) 
86.2421249896187

>  <Genealogy>  (11) 
CN(C(=O)Cc1ccc2cc(C(N)=O)n(C(=O)[O-])c2c1)C(C)(C)C (protonated)
CN(C(=O)Cc1ccc2cc(C(N)=O)n(C(=O)[O-])c2c1)C(C)(C)C (3D coordinates assigned)
CN(C(=O)Cc1ccc2cc(C(N)=O)n(C(=O)[O-])c2c1)C(C)(C)C (optimized conformer: 86.2421249896187 kcal/mol)

>  <smiles>  (11) 
CN(C(=O)Cc1ccc2cc(C(N)=O)n(C(=O)O)c2c1)C(C)(C)C

>  <score_type>  (11) 
oracle

>  <origin>  (11) 
adg

>  <m_score__min__energy>  (11) 
-7.2400000000000002

>  <m_primary>  (11) 
energy

$$$$
11:0
     RDKit          3D

 61 62  0  0  0  0  0  0  0  0999 V2000
  150.9410  149.9900  129.9810 C   0  0  0  0  0  0  0  0  0  0  0  0
  150.2840  150.2950  130.9470 C   0  0  0  0  0  0  0  0  0  0  0  0
  149.4680  150.6700  132.1130 C   0  0  0  0  0  0  0  0  0  0  0  0
  148.6540  151.7860  131.8050 O   0  0  0  0  0  0  0  0  0  0  0  0
  149.2410  152.9960  132.2620 C   0  0  0  0  0  0  0  0  0  0  0  0
  148.3190  153.7110  133.2620 C   0  0  0  0  0  0  0  0  0  0  0  0
  147.4220  154.6000  132.6210 O   0  0  0  0  0  0  0  0  0  0  0  0
  147.8410  155.9510  132.7440 C   0  0  0  0  0  0  0  0  0  0  0  0
  146.6600  156.8890  133.0090 C   0  0  0  0  0  0  0  0  0  0  0  0
  147.1430  158.1790  133.3220 O   0  0  0  0  0  0  0  0  0  0  0  0
  146.1560  159.1610  133.0770 C   0  0  0  0  0  0  0  0  0  0  0  0
  144.8300  158.7660  133.7340 C   0  0  0  0  0  0  0  0  0  0  0  0
  144.1020  159.9200  134.1090 O   0  0  0  0  0  0  0  0  0  0  0  0
  142.8090  159.9410  133.5260 C   0  0  0  0  0  0  0  0  0  0  0  0
  141.7620  160.1610  134.6160 C   0  0  0  0  0  0  0  0  0  0  0  0
  140.5590  159.3760  134.3540 N   0  0  0  0  0  0  0  0  0  0  0  0
  140.2110  158.1180  134.9490 C   0  0  0  0  0  0  0  0  0  0  0  0
  140.1770  158.0380  136.2100 O   0  0  0  0  0  0  0  0  0  0  0  0
  139.8570  156.9180  134.1090 C   0  0  0  0  0  0  0  0  0  0  0  0
  141.0850  156.2380  133.5550 C   0  0  0  0  0  0  0  0  0  0  0  0
  142.1530  157.0190  133.0460 C   0  0  0  0  0  0  0  0  0  0  0  0
  143.3380  156.4090  132.6060 C   0  0  0  0  0  0  0  0  0  0  0  0
  143.4230  155.0210  132.6790 C   0  0  0  0  0  0  0  0  0  0  0  0
  144.4590  154.1830  132.3390 C   0  0  0  0  0  0  0  0  0  0  0  0
  144.0000  152.8950  132.6190 C   0  0  0  0  0  0  0  0  0  0  0  0
  144.7680  151.6700  132.3060 C   0  0  0  0  0  0  0  0  0  0  0  0
  146.1300  151.7470  131.8800 N   0  0  0  0  0  0  0  0  0  0  0  0
  144.2090  150.5400  132.3660 O   0  0  0  0  0  0  0  0  0  0  0  0
  142.7290  152.9370  133.1120 N   0  0  0  0  0  0  0  0  0  0  0  0
  141.9220  151.8310  133.5490 C   0  0  0  0  0  0  0  0  0  0  0  0
  141.7070  151.6440  134.7760 O   0  0  0  0  0  0  0  0  0  0  0  0
  141.3750  150.9450  132.6270 O   0  0  0  0  0  0  0  0  0  0  0  0
  142.3920  154.2470  133.1440 C   0  0  0  0  0  0  0  0  0  0  0  0
  141.2070  154.8310  133.6100 C   0  0  0  0  0  0  0  0  0  0  0  0
  151.5395  149.7121  129.1009 H   0  0  0  0  0  0  0  0  0  0  0  0
  148.8280  149.8213  132.3960 H   0  0  0  0  0  0  0  0  0  0  0  0
  150.1354  150.9334  132.9467 H   0  0  0  0  0  0  0  0  0  0  0  0
  150.1980  152.7683  132.7542 H   0  0  0  0  0  0  0  0  0  0  0  0
  149.4005  153.6570  131.3973 H   0  0  0  0  0  0  0  0  0  0  0  0
  147.7375  152.9554  133.8106 H   0  0  0  0  0  0  0  0  0  0  0  0
  148.9511  154.3009  133.9421 H   0  0  0  0  0  0  0  0  0  0  0  0
  148.5524  156.0288  133.5794 H   0  0  0  0  0  0  0  0  0  0  0  0
  148.3113  156.2515  131.7961 H   0  0  0  0  0  0  0  0  0  0  0  0
  146.0262  156.9428  132.1116 H   0  0  0  0  0  0  0  0  0  0  0  0
  146.0691  156.5044  133.8533 H   0  0  0  0  0  0  0  0  0  0  0  0
  146.4923  160.1231  133.4908 H   0  0  0  0  0  0  0  0  0  0  0  0
  146.0027  159.2474  131.9912 H   0  0  0  0  0  0  0  0  0  0  0  0
  144.2338  158.1771  133.0215 H   0  0  0  0  0  0  0  0  0  0  0  0
  145.0414  158.1696  134.6338 H   0  0  0  0  0  0  0  0  0  0  0  0
  142.7511  160.7581  132.7918 H   0  0  0  0  0  0  0  0  0  0  0  0
  142.6182  158.9815  133.0229 H   0  0  0  0  0  0  0  0  0  0  0  0
  142.1840  159.8592  135.5860 H   0  0  0  0  0  0  0  0  0  0  0  0
  141.4887  161.2264  134.6286 H   0  0  0  0  0  0  0  0  0  0  0  0
  139.3024  156.1996  134.7306 H   0  0  0  0  0  0  0  0  0  0  0  0
  139.2462  157.2628  133.2616 H   0  0  0  0  0  0  0  0  0  0  0  0
  142.0521  158.1132  132.9954 H   0  0  0  0  0  0  0  0  0  0  0  0
  144.1735  157.0086  132.2157 H   0  0  0  0  0  0  0  0  0  0  0  0
  145.4409  154.4674  131.9327 H   0  0  0  0  0  0  0  0  0  0  0  0
  146.6270  152.6610  131.8200 H   0  0  0  0  0  0  0  0  0  0  0  0
  146.6750  150.8710  131.7030 H   0  0  0  0  0  0  0  0  0  0  0  0
  140.3915  154.2098  134.0089 H   0  0  0  0  0  0  0  0  0  0  0  0
  1  2  3  0
  2  3  1  0
  3  4  1  0
  4  5  1  0
  5  6  1  0
  6  7  1  0
  7  8  1  0
  8  9  1  0
  9 10  1  0
 10 11  1  0
 11 12  1  0
 12 13  1  0
 13 14  1  0
 14 15  1  0
 15 16  1  0
 16 17  1  0
 17 18  2  0
 17 19  1  0
 19 20  1  0
 20 21  2  0
 21 22  1  0
 22 23  2  0
 23 24  1  0
 24 25  2  0
 25 26  1  0
 26 27  1  0
 26 28  2  0
 25 29  1  0
 29 30  1  0
 30 31  2  0
 30 32  1  0
 29 33  1  0
 33 34  2  0
 34 20  1  0
 33 23  1  0
  1 35  1  0
  3 36  1  0
  3 37  1  0
  5 38  1  0
  5 39  1  0
  6 40  1  0
  6 41  1  0
  8 42  1  0
  8 43  1  0
  9 44  1  0
  9 45  1  0
 11 46  1  0
 11 47  1  0
 12 48  1  0
 12 49  1  0
 14 50  1  0
 14 51  1  0
 15 52  1  0
 15 53  1  0
 19 54  1  0
 19 55  1  0
 21 56  1  0
 22 57  1  0
 24 58  1  0
 27 59  1  0
 27 60  1  0
 34 61  1  0
M  CHG  2  16  -1  32  -1
M  END
>  <UniqueID>  (12) 
12

>  <SMILES>  (12) 
C#CCOCCOCCOCCOCC[N-]C(=O)Cc1ccc2cc(C(N)=O)n(C(=O)[O-])c2c1

>  <Energy>  (12) 
103.67283883957046

>  <Genealogy>  (12) 
C#CCOCCOCCOCCOCC[N-]C(=O)Cc1ccc2cc(C(N)=O)n(C(=O)[O-])c2c1 (protonated)
C#CCOCCOCCOCCOCC[N-]C(=O)Cc1ccc2cc(C(N)=O)n(C(=O)[O-])c2c1 (3D coordinates assigned)
C#CCOCCOCCOCCOCC[N-]C(=O)Cc1ccc2cc(C(N)=O)n(C(=O)[O-])c2c1 (optimized conformer: 103.67283883957046 kcal/mol)

>  <smiles>  (12) 
C#CCOCCOCCOCCOCCNC(=O)Cc1ccc2cc(C(N)=O)n(C(=O)O)c2c1

>  <score_type>  (12) 
oracle

>  <origin>  (12) 
adg

>  <m_score__min__energy>  (12) 
-7.75

>  <m_primary>  (12) 
energy

$$$$
12:0
     RDKit          3D

 54 55  0  0  0  0  0  0  0  0999 V2000
  138.6200  158.8740  131.8330 C   0  0  0  0  0  0  0  0  0  0  0  0
  139.4930  157.7520  132.3910 C   0  0  0  0  0  0  0  0  0  0  0  0
  138.9160  157.1770  133.6840 C   0  0  0  0  0  0  0  0  0  0  0  0
  139.9290  157.1080  134.6680 O   0  0  0  0  0  0  0  0  0  0  0  0
  139.8890  158.2460  135.5150 C   0  0  2  0  0  0  0  0  0  0  0  0
  140.8080  159.3380  134.9240 C   0  0  0  0  0  0  0  0  0  0  0  0
  142.2060  159.3560  135.5510 C   0  0  0  0  0  0  0  0  0  0  0  0
  143.1950  159.5000  134.5340 O   0  0  0  0  0  0  0  0  0  0  0  0
  143.4630  158.4960  133.5990 C   0  0  0  0  0  0  0  0  0  0  0  0
  142.6930  158.3250  132.6150 O   0  0  0  0  0  0  0  0  0  0  0  0
  144.6280  157.6690  133.7550 N   0  0  0  0  0  0  0  0  0  0  0  0
  144.7140  156.4800  134.4160 C   0  0  0  0  0  0  0  0  0  0  0  0
  143.5780  155.7020  134.9430 C   0  0  0  0  0  0  0  0  0  0  0  0
  142.2330  156.1450  134.7620 N   0  0  0  0  0  0  0  0  0  0  0  0
  143.7930  154.5930  135.5020 O   0  0  0  0  0  0  0  0  0  0  0  0
  146.0350  156.0450  134.4800 C   0  0  0  0  0  0  0  0  0  0  0  0
  146.7650  157.0070  133.8210 C   0  0  0  0  0  0  0  0  0  0  0  0
  148.1380  157.0930  133.6030 C   0  0  0  0  0  0  0  0  0  0  0  0
  148.6290  158.2250  132.9330 C   0  0  0  0  0  0  0  0  0  0  0  0
  147.7460  159.2430  132.4950 C   0  0  0  0  0  0  0  0  0  0  0  0
  148.2910  160.4780  131.8290 C   0  0  0  0  0  0  0  0  0  0  0  0
  149.1150  160.1070  130.6340 C   0  0  0  0  0  0  0  0  0  0  0  0
  150.3030  159.8580  130.7580 O   0  0  0  0  0  0  0  0  0  0  0  0
  146.3600  159.1270  132.7420 C   0  0  0  0  0  0  0  0  0  0  0  0
  145.8950  157.9780  133.3940 C   0  0  0  0  0  0  0  0  0  0  0  0
  140.3580  157.8210  136.9190 C   0  0  0  0  0  0  0  0  0  0  0  0
  140.6530  156.4360  136.9480 O   0  0  0  0  0  0  0  0  0  0  0  0
  141.3150  156.0960  138.1460 C   0  0  0  0  0  0  0  0  0  0  0  0
  138.1777  159.4424  132.6644 H   0  0  0  0  0  0  0  0  0  0  0  0
  139.2356  159.5454  131.2163 H   0  0  0  0  0  0  0  0  0  0  0  0
  137.8179  158.4423  131.2163 H   0  0  0  0  0  0  0  0  0  0  0  0
  139.5619  156.9484  131.6430 H   0  0  0  0  0  0  0  0  0  0  0  0
  140.4861  158.1689  132.6142 H   0  0  0  0  0  0  0  0  0  0  0  0
  138.1024  157.8253  134.0415 H   0  0  0  0  0  0  0  0  0  0  0  0
  138.5255  156.1668  133.4914 H   0  0  0  0  0  0  0  0  0  0  0  0
  138.8700  158.6535  135.5894 H   0  0  0  0  0  0  0  0  0  0  0  0
  140.9119  159.1601  133.8435 H   0  0  0  0  0  0  0  0  0  0  0  0
  140.3407  160.3101  135.1401 H   0  0  0  0  0  0  0  0  0  0  0  0
  142.2796  160.1999  136.2527 H   0  0  0  0  0  0  0  0  0  0  0  0
  142.3738  158.4098  136.0863 H   0  0  0  0  0  0  0  0  0  0  0  0
  141.4430  155.5720  135.1320 H   0  0  0  0  0  0  0  0  0  0  0  0
  142.0160  156.9900  134.1880 H   0  0  0  0  0  0  0  0  0  0  0  0
  146.4139  155.1284  134.9556 H   0  0  0  0  0  0  0  0  0  0  0  0
  148.8170  156.2982  133.9453 H   0  0  0  0  0  0  0  0  0  0  0  0
  149.7087  158.3225  132.7465 H   0  0  0  0  0  0  0  0  0  0  0  0
  147.4543  161.1160  131.5083 H   0  0  0  0  0  0  0  0  0  0  0  0
  148.9259  161.0191  132.5460 H   0  0  0  0  0  0  0  0  0  0  0  0
  148.6466  160.0588  129.6399 H   0  0  0  0  0  0  0  0  0  0  0  0
  145.6635  159.9192  132.4301 H   0  0  0  0  0  0  0  0  0  0  0  0
  141.2617  158.3888  137.1856 H   0  0  0  0  0  0  0  0  0  0  0  0
  139.5527  158.0272  137.6394 H   0  0  0  0  0  0  0  0  0  0  0  0
  140.7035  156.4101  139.0047 H   0  0  0  0  0  0  0  0  0  0  0  0
  141.4686  155.0074  138.1838 H   0  0  0  0  0  0  0  0  0  0  0  0
  142.2893  156.6053  138.1838 H   0  0  0  0  0  0  0  0  0  0  0  0
  1  2  1  0
  2  3  1  0
  3  4  1  0
  4  5  1  0
  5  6  1  0
  6  7  1  0
  7  8  1  0
  8  9  1  0
  9 10  2  0
  9 11  1  0
 11 12  1  0
 12 13  1  0
 13 14  1  0
 13 15  2  0
 12 16  2  0
 16 17  1  0
 17 18  2  0
 18 19  1  0
 19 20  2  0
 20 21  1  0
 21 22  1  0
 22 23  2  0
 20 24  1  0
 24 25  2  0
  5 26  1  0
 26 27  1  0
 27 28  1  0
 25 11  1  0
 25 17  1  0
  1 29  1  0
  1 30  1  0
  1 31  1  0
  2 32  1  0
  2 33  1  0
  3 34  1  0
  3 35  1  0
  5 36  1  1
  6 37  1  0
  6 38  1  0
  7 39  1  0
  7 40  1  0
 14 41  1  0
 14 42  1  0
 16 43  1  0
 18 44  1  0
 19 45  1  0
 21 46  1  0
 21 47  1  0
 22 48  1  0
 24 49  1  0
 26 50  1  0
 26 51  1  0
 28 52  1  0
 28 53  1  0
 28 54  1  0
M  END
>  <UniqueID>  (13) 
13

>  <SMILES>  (13) 
CCCO[C@H](CCOC(=O)n1c(C(N)=O)cc2ccc(CC=O)cc21)COC

>  <Energy>  (13) 
82.80284034518449

>  <Genealogy>  (13) 
CCCO[C@H](CCOC(=O)n1c(C(N)=O)cc2ccc(CC=O)cc21)COC (chirality)
CCCO[C@H](CCOC(=O)n1c(C(N)=O)cc2ccc(CC=O)cc21)COC (3D coordinates assigned)
CCCO[C@H](CCOC(=O)n1c(C(N)=O)cc2ccc(CC=O)cc21)COC (optimized conformer: 82.80284034518449 kcal/mol)

>  <smiles>  (13) 
CCCOC(CCOC(=O)n1c(C(N)=O)cc2ccc(CC=O)cc21)COC

>  <score_type>  (13) 
oracle

>  <origin>  (13) 
adg

>  <m_score__min__energy>  (13) 
-7.5700000000000003

>  <m_primary>  (13) 
energy

$$$$
13:0
     RDKit          3D

 35 37  0  0  0  0  0  0  0  0999 V2000
  148.3720  158.1110  134.1330 N   0  0  0  0  0  0  0  0  0  0  0  0
  147.6260  159.0920  133.4110 C   0  0  0  0  0  0  0  0  0  0  0  0
  148.2180  159.8300  132.5810 O   0  0  0  0  0  0  0  0  0  0  0  0
  146.1630  159.2100  133.5730 C   0  0  0  0  0  0  0  0  0  0  0  0
  145.4930  160.4290  133.5880 C   0  0  0  0  0  0  0  0  0  0  0  0
  144.1580  160.1090  133.6850 C   0  0  0  0  0  0  0  0  0  0  0  0
  143.0420  160.9380  133.7450 C   0  0  0  0  0  0  0  0  0  0  0  0
  141.7810  160.3360  133.8740 C   0  0  0  0  0  0  0  0  0  0  0  0
  141.6580  158.9270  133.9550 C   0  0  0  0  0  0  0  0  0  0  0  0
  140.2970  158.2900  134.0550 C   0  0  0  0  0  0  0  0  0  0  0  0
  139.8650  157.6770  132.7180 C   0  0  0  0  0  0  0  0  0  0  0  0
  139.2520  158.6840  131.8530 N   0  0  0  0  0  0  0  0  0  0  0  0
  137.9500  158.9980  131.7760 C   0  0  0  0  0  0  0  0  0  0  0  0
  137.8030  159.9400  130.7820 C   0  0  0  0  0  0  0  0  0  0  0  0
  139.0050  160.2100  130.2320 N   0  0  0  0  0  0  0  0  0  0  0  0
  139.8660  159.4220  130.9090 C   0  0  0  0  0  0  0  0  0  0  0  0
  142.8130  158.1150  133.8850 C   0  0  0  0  0  0  0  0  0  0  0  0
  144.0570  158.7410  133.7360 C   0  0  0  0  0  0  0  0  0  0  0  0
  145.2830  158.1730  133.6700 N   0  0  0  0  0  0  0  0  0  0  0  0
  145.5970  156.7770  133.8070 C   0  0  0  0  0  0  0  0  0  0  0  0
  145.1220  155.9330  133.0030 O   0  0  0  0  0  0  0  0  0  0  0  0
  146.4240  156.3410  134.8360 O   0  0  0  0  0  0  0  0  0  0  0  0
  149.4100  158.0650  134.0320 H   0  0  0  0  0  0  0  0  0  0  0  0
  147.8930  157.3790  134.7000 H   0  0  0  0  0  0  0  0  0  0  0  0
  145.9359  161.4345  133.5339 H   0  0  0  0  0  0  0  0  0  0  0  0
  143.1451  162.0319  133.6929 H   0  0  0  0  0  0  0  0  0  0  0  0
  140.8790  160.9644  133.9126 H   0  0  0  0  0  0  0  0  0  0  0  0
  140.3279  157.4983  134.8180 H   0  0  0  0  0  0  0  0  0  0  0  0
  139.5702  159.0690  134.3288 H   0  0  0  0  0  0  0  0  0  0  0  0
  140.7476  157.2580  132.2126 H   0  0  0  0  0  0  0  0  0  0  0  0
  139.1242  156.8886  132.9173 H   0  0  0  0  0  0  0  0  0  0  0  0
  137.1440  158.5782  132.3958 H   0  0  0  0  0  0  0  0  0  0  0  0
  136.8507  160.4018  130.4822 H   0  0  0  0  0  0  0  0  0  0  0  0
  140.9476  159.3865  130.7119 H   0  0  0  0  0  0  0  0  0  0  0  0
  142.7367  157.0194  133.9460 H   0  0  0  0  0  0  0  0  0  0  0  0
  1  2  1  0
  2  3  2  0
  2  4  1  0
  4  5  2  0
  5  6  1  0
  6  7  2  0
  7  8  1  0
  8  9  2  0
  9 10  1  0
 10 11  1  0
 11 12  1  0
 12 13  1  0
 13 14  2  0
 14 15  1  0
 15 16  2  0
  9 17  1  0
 17 18  2  0
 18 19  1  0
 19 20  1  0
 20 21  2  0
 20 22  1  0
 19  4  1  0
 18  6  1  0
 16 12  1  0
  1 23  1  0
  1 24  1  0
  5 25  1  0
  7 26  1  0
  8 27  1  0
 10 28  1  0
 10 29  1  0
 11 30  1  0
 11 31  1  0
 13 32  1  0
 14 33  1  0
 16 34  1  0
 17 35  1  0
M  CHG  1  22  -1
M  END
>  <UniqueID>  (14) 
14

>  <SMILES>  (14) 
NC(=O)c1cc2ccc(CCn3ccnc3)cc2n1C(=O)[O-]

>  <Energy>  (14) 
101.99487067805194

>  <Genealogy>  (14) 
NC(=O)c1cc2ccc(CCn3ccnc3)cc2n1C(=O)[O-] (protonated)
NC(=O)c1cc2ccc(CCn3ccnc3)cc2n1C(=O)[O-] (3D coordinates assigned)
NC(=O)c1cc2ccc(CCn3ccnc3)cc2n1C(=O)[O-] (optimized conformer: 101.99487067805194 kcal/mol)

>  <smiles>  (14) 
NC(=O)c1cc2ccc(CCn3ccnc3)cc2n1C(=O)O

>  <score_type>  (14) 
oracle

>  <origin>  (14) 
adg

>  <m_score__min__energy>  (14) 
-6.9199999999999999

>  <m_primary>  (14) 
energy

$$$$
14:0
     RDKit          3D

 44 46  0  0  0  0  0  0  0  0999 V2000
  148.3030  155.4540  132.9480 C   0  0  0  0  0  0  0  0  0  0  0  0
  147.4100  154.9400  134.0280 C   0  0  0  0  0  0  0  0  0  0  0  0
  147.8300  154.2890  135.0870 O   0  0  0  0  0  0  0  0  0  0  0  0
  146.7580  154.0070  135.7890 C   0  0  0  0  0  0  0  0  0  0  0  0
  146.7800  153.3700  136.8730 O   0  0  0  0  0  0  0  0  0  0  0  0
  145.6600  154.4490  135.2250 O   0  0  0  0  0  0  0  0  0  0  0  0
  146.0290  155.0410  134.1150 C   0  0  0  0  0  0  0  0  0  0  0  0
  145.0920  155.6670  133.1670 C   0  0  0  0  0  0  0  0  0  0  0  0
  144.6750  155.0180  132.1680 O   0  0  0  0  0  0  0  0  0  0  0  0
  144.6180  157.0020  133.3950 N   0  0  0  0  0  0  0  0  0  0  0  0
  143.3580  157.3860  133.7310 C   0  0  0  0  0  0  0  0  0  0  0  0
  142.1960  156.4900  133.8590 C   0  0  0  0  0  0  0  0  0  0  0  0
  142.0520  155.3690  132.9850 N   0  0  0  0  0  0  0  0  0  0  0  0
  141.3680  156.6610  134.7930 O   0  0  0  0  0  0  0  0  0  0  0  0
  143.3090  158.7580  133.9780 C   0  0  0  0  0  0  0  0  0  0  0  0
  144.5900  159.2110  133.7630 C   0  0  0  0  0  0  0  0  0  0  0  0
  145.1140  160.4970  133.8520 C   0  0  0  0  0  0  0  0  0  0  0  0
  146.4840  160.6680  133.5890 C   0  0  0  0  0  0  0  0  0  0  0  0
  147.2980  159.5590  133.2400 C   0  0  0  0  0  0  0  0  0  0  0  0
  148.7850  159.7420  133.0390 C   0  0  0  0  0  0  0  0  0  0  0  0
  149.2330  159.3020  131.6610 C   0  0  0  0  0  0  0  0  0  0  0  0
  149.6080  158.1080  131.4820 O   0  0  0  0  0  0  0  0  0  0  0  0
  149.2670  160.2280  130.5520 N   0  0  0  0  0  0  0  0  0  0  0  0
  148.8750  161.6280  130.7300 C   0  0  0  0  0  0  0  0  0  0  0  0
  149.7170  159.7510  129.2390 C   0  0  0  0  0  0  0  0  0  0  0  0
  146.7290  158.2700  133.1540 C   0  0  0  0  0  0  0  0  0  0  0  0
  145.3650  158.1280  133.4250 C   0  0  0  0  0  0  0  0  0  0  0  0
  149.1727  155.9546  133.3986 H   0  0  0  0  0  0  0  0  0  0  0  0
  148.6452  154.6147  132.3248 H   0  0  0  0  0  0  0  0  0  0  0  0
  147.7491  156.1715  132.3248 H   0  0  0  0  0  0  0  0  0  0  0  0
  142.7310  155.2050  132.2110 H   0  0  0  0  0  0  0  0  0  0  0  0
  141.2640  154.6980  133.1200 H   0  0  0  0  0  0  0  0  0  0  0  0
  142.4332  159.3510  134.2801 H   0  0  0  0  0  0  0  0  0  0  0  0
  144.4763  161.3524  134.1197 H   0  0  0  0  0  0  0  0  0  0  0  0
  146.9298  161.6715  133.6543 H   0  0  0  0  0  0  0  0  0  0  0  0
  149.0320  160.8060  133.1692 H   0  0  0  0  0  0  0  0  0  0  0  0
  149.3059  159.1173  133.7796 H   0  0  0  0  0  0  0  0  0  0  0  0
  148.8109  161.8571  131.8040 H   0  0  0  0  0  0  0  0  0  0  0  0
  149.6248  162.2813  130.2599 H   0  0  0  0  0  0  0  0  0  0  0  0
  147.8950  161.7970  130.2599 H   0  0  0  0  0  0  0  0  0  0  0  0
  150.4661  158.9570  129.3744 H   0  0  0  0  0  0  0  0  0  0  0  0
  148.8578  159.3529  128.6793 H   0  0  0  0  0  0  0  0  0  0  0  0
  150.1644  160.5856  128.6793 H   0  0  0  0  0  0  0  0  0  0  0  0
  147.3433  157.3994  132.8807 H   0  0  0  0  0  0  0  0  0  0  0  0
  1  2  1  0
  2  3  1  0
  3  4  1  0
  4  5  2  0
  4  6  1  0
  6  7  1  0
  7  8  1  0
  8  9  2  0
  8 10  1  0
 10 11  1  0
 11 12  1  0
 12 13  1  0
 12 14  2  0
 11 15  2  0
 15 16  1  0
 16 17  2  0
 17 18  1  0
 18 19  2  0
 19 20  1  0
 20 21  1  0
 21 22  2  0
 21 23  1  0
 23 24  1  0
 23 25  1  0
 19 26  1  0
 26 27  2  0
  7  2  2  0
 27 10  1  0
 27 16  1  0
  1 28  1  0
  1 29  1  0
  1 30  1  0
 13 31  1  0
 13 32  1  0
 15 33  1  0
 17 34  1  0
 18 35  1  0
 20 36  1  0
 20 37  1  0
 24 38  1  0
 24 39  1  0
 24 40  1  0
 25 41  1  0
 25 42  1  0
 25 43  1  0
 26 44  1  0
M  END
>  <UniqueID>  (15) 
15

>  <SMILES>  (15) 
Cc1oc(=O)oc1C(=O)n1c(C(N)=O)cc2ccc(CC(=O)N(C)C)cc21

>  <Energy>  (15) 
117.31123734348334

>  <Genealogy>  (15) 
Cc1oc(=O)oc1C(=O)n1c(C(N)=O)cc2ccc(CC(=O)N(C)C)cc21 (3D coordinates assigned)
Cc1oc(=O)oc1C(=O)n1c(C(N)=O)cc2ccc(CC(=O)N(C)C)cc21 (optimized conformer: 117.31123734348334 kcal/mol)

>  <smiles>  (15) 
Cc1oc(=O)oc1C(=O)n1c(C(N)=O)cc2ccc(CC(=O)N(C)C)cc21

>  <score_type>  (15) 
oracle

>  <origin>  (15) 
adg

>  <m_score__min__energy>  (15) 
-8.2899999999999991

>  <m_primary>  (15) 
energy

$$$$
15:0
     RDKit          3D

 55 58  0  0  0  0  0  0  0  0999 V2000
  139.8780  154.7210  139.3450 C   0  0  0  0  0  0  0  0  0  0  0  0
  140.9620  155.5160  138.6200 C   0  0  0  0  0  0  0  0  0  0  0  0
  141.3920  156.7540  139.4110 C   0  0  0  0  0  0  0  0  0  0  0  0
  141.9830  157.7490  138.5230 N   0  0  0  0  0  0  0  0  0  0  0  0
  141.2030  158.5510  137.6340 C   0  0  0  0  0  0  0  0  0  0  0  0
  140.9850  159.7640  137.8990 O   0  0  0  0  0  0  0  0  0  0  0  0
  140.6860  157.9720  136.3910 C   0  0  0  0  0  0  0  0  0  0  0  0
  139.5360  158.3370  135.7240 C   0  0  0  0  0  0  0  0  0  0  0  0
  139.4270  157.4900  134.6880 N   0  0  0  0  0  0  0  0  0  0  0  0
  138.3920  157.4980  133.6590 C   0  0  0  0  0  0  0  0  0  0  0  0
  138.8250  158.2360  132.5170 O   0  0  0  0  0  0  0  0  0  0  0  0
  139.8110  159.2380  132.4970 C   0  0  0  0  0  0  0  0  0  0  0  0
  139.4480  160.4130  132.2260 O   0  0  0  0  0  0  0  0  0  0  0  0
  141.2460  158.9920  132.7660 C   0  0  0  0  0  0  0  0  0  0  0  0
  142.1250  159.8760  133.3610 C   0  0  0  0  0  0  0  0  0  0  0  0
  143.3100  159.2440  133.4180 N   0  0  0  0  0  0  0  0  0  0  0  0
  144.5390  159.7510  134.0270 C   0  0  0  0  0  0  0  0  0  0  0  0
  145.7030  158.8680  133.6660 C   0  0  0  0  0  0  0  0  0  0  0  0
  146.7630  159.3870  132.8820 C   0  0  0  0  0  0  0  0  0  0  0  0
  147.8280  158.5620  132.4850 C   0  0  0  0  0  0  0  0  0  0  0  0
  147.7980  157.2250  132.8750 C   0  0  0  0  0  0  0  0  0  0  0  0
  148.6980  156.2160  132.6300 C   0  0  0  0  0  0  0  0  0  0  0  0
  148.1650  155.0870  133.2510 C   0  0  0  0  0  0  0  0  0  0  0  0
  148.7510  153.7320  133.1370 C   0  0  0  0  0  0  0  0  0  0  0  0
  148.0750  152.5960  133.6750 N   0  0  0  0  0  0  0  0  0  0  0  0
  149.8790  153.5770  132.5970 O   0  0  0  0  0  0  0  0  0  0  0  0
  146.9870  155.3880  133.8660 N   0  0  0  0  0  0  0  0  0  0  0  0
  146.1890  154.5210  134.6920 C   0  0  0  0  0  0  0  0  0  0  0  0
  146.6690  154.0080  135.7370 O   0  0  0  0  0  0  0  0  0  0  0  0
  144.8800  154.2190  134.3330 O   0  0  0  0  0  0  0  0  0  0  0  0
  146.7700  156.7020  133.6200 C   0  0  0  0  0  0  0  0  0  0  0  0
  145.7040  157.5060  134.0420 C   0  0  0  0  0  0  0  0  0  0  0  0
  143.1640  158.0290  132.9120 N   0  0  0  0  0  0  0  0  0  0  0  0
  141.9170  157.8540  132.4980 N   0  0  0  0  0  0  0  0  0  0  0  0
  140.4650  156.6670  134.7040 N   0  0  0  0  0  0  0  0  0  0  0  0
  141.2480  156.9340  135.7390 N   0  0  0  0  0  0  0  0  0  0  0  0
  140.0147  154.8213  140.4319 H   0  0  0  0  0  0  0  0  0  0  0  0
  138.8881  155.1088  139.0627 H   0  0  0  0  0  0  0  0  0  0  0  0
  139.9504  153.6603  139.0627 H   0  0  0  0  0  0  0  0  0  0  0  0
  141.8382  154.8678  138.4713 H   0  0  0  0  0  0  0  0  0  0  0  0
  140.5490  155.8542  137.6582 H   0  0  0  0  0  0  0  0  0  0  0  0
  140.5125  157.1894  139.9078 H   0  0  0  0  0  0  0  0  0  0  0  0
  142.1414  156.4553  140.1588 H   0  0  0  0  0  0  0  0  0  0  0  0
  138.8486  159.1546  135.9867 H   0  0  0  0  0  0  0  0  0  0  0  0
  138.1728  156.4628  133.3586 H   0  0  0  0  0  0  0  0  0  0  0  0
  137.4890  157.9748  134.0679 H   0  0  0  0  0  0  0  0  0  0  0  0
  141.9005  160.8925  133.7165 H   0  0  0  0  0  0  0  0  0  0  0  0
  144.7306  160.7711  133.6627 H   0  0  0  0  0  0  0  0  0  0  0  0
  144.4203  159.7577  135.1206 H   0  0  0  0  0  0  0  0  0  0  0  0
  146.7517  160.4452  132.5817 H   0  0  0  0  0  0  0  0  0  0  0  0
  148.6599  158.9592  131.8848 H   0  0  0  0  0  0  0  0  0  0  0  0
  149.6389  156.2844  132.0643 H   0  0  0  0  0  0  0  0  0  0  0  0
  147.1260  152.6730  134.1070 H   0  0  0  0  0  0  0  0  0  0  0  0
  148.5220  151.6520  133.6290 H   0  0  0  0  0  0  0  0  0  0  0  0
  144.8885  157.0880  134.6505 H   0  0  0  0  0  0  0  0  0  0  0  0
  1  2  1  0
  2  3  1  0
  3  4  1  0
  4  5  1  0
  5  6  2  0
  5  7  1  0
  7  8  2  0
  8  9  1  0
  9 10  1  0
 10 11  1  0
 11 12  1  0
 12 13  2  0
 12 14  1  0
 14 15  2  0
 15 16  1  0
 16 17  1  0
 17 18  1  0
 18 19  2  0
 19 20  1  0
 20 21  2  0
 21 22  1  0
 22 23  2  0
 23 24  1  0
 24 25  1  0
 24 26  2  0
 23 27  1  0
 27 28  1  0
 28 29  2  0
 28 30  1  0
 27 31  1  0
 31 32  2  0
 16 33  1  0
 33 34  2  0
  9 35  2  0
 35 36  1  0
 36  7  1  0
 34 14  1  0
 32 18  1  0
 31 21  1  0
  1 37  1  0
  1 38  1  0
  1 39  1  0
  2 40  1  0
  2 41  1  0
  3 42  1  0
  3 43  1  0
  8 44  1  0
 10 45  1  0
 10 46  1  0
 15 47  1  0
 17 48  1  0
 17 49  1  0
 19 50  1  0
 20 51  1  0
 22 52  1  0
 25 53  1  0
 25 54  1  0
 32 55  1  0
M  CHG  4   4  -1   9   1  30  -1  36  -1
M  END
>  <UniqueID>  (16) 
16

>  <SMILES>  (16) 
CCC[N-]C(=O)c1c[n+](COC(=O)c2cn(Cc3ccc4cc(C(N)=O)n(C(=O)[O-])c4c3)nn2)n[n-]1

>  <Energy>  (16) 
158.40640502500747

>  <Genealogy>  (16) 
CCC[N-]C(=O)c1c[n+](COC(=O)c2cn(Cc3ccc4cc(C(N)=O)n(C(=O)[O-])c4c3)nn2)n[n-]1 (protonated)
CCC[N-]C(=O)c1c[n+](COC(=O)c2cn(Cc3ccc4cc(C(N)=O)n(C(=O)[O-])c4c3)nn2)n[n-]1 (3D coordinates assigned)
CCC[N-]C(=O)c1c[n+](COC(=O)c2cn(Cc3ccc4cc(C(N)=O)n(C(=O)[O-])c4c3)nn2)n[n-]1 (optimized conformer: 158.40640502500747 kcal/mol)

>  <smiles>  (16) 
CCCNC(=O)c1c[n+](COC(=O)c2cn(Cc3ccc4cc(C(N)=O)n(C(=O)O)c4c3)nn2)n[nH]1

>  <score_type>  (16) 
oracle

>  <origin>  (16) 
adg

>  <m_score__min__energy>  (16) 
-9

>  <m_primary>  (16) 
energy

$$$$
16:0
     RDKit          3D

 51 52  0  0  0  0  0  0  0  0999 V2000
  149.1400  153.7840  132.5970 C   0  0  0  0  0  0  0  0  0  0  0  0
  148.6560  154.8830  132.7180 C   0  0  0  0  0  0  0  0  0  0  0  0
  148.0780  156.1920  132.8640 C   0  0  0  0  0  0  0  0  0  0  0  0
  148.8550  157.3410  132.5920 C   0  0  0  0  0  0  0  0  0  0  0  0
  148.3000  158.6260  132.7240 C   0  0  0  0  0  0  0  0  0  0  0  0
  146.9700  158.7220  133.1250 C   0  0  0  0  0  0  0  0  0  0  0  0
  146.1780  159.8320  133.3140 C   0  0  0  0  0  0  0  0  0  0  0  0
  144.9340  159.3370  133.7040 C   0  0  0  0  0  0  0  0  0  0  0  0
  143.7920  160.1880  134.1050 C   0  0  0  0  0  0  0  0  0  0  0  0
  142.7550  159.6730  134.9420 N   0  0  0  0  0  0  0  0  0  0  0  0
  143.7160  161.3750  133.6950 O   0  0  0  0  0  0  0  0  0  0  0  0
  144.9580  157.9750  133.7500 N   0  0  0  0  0  0  0  0  0  0  0  0
  143.8750  157.0760  134.0410 C   0  0  0  0  0  0  0  0  0  0  0  0
  143.4150  157.0230  135.2130 O   0  0  0  0  0  0  0  0  0  0  0  0
  143.4140  156.0860  133.0090 C   0  0  0  0  0  0  0  0  0  0  0  0
  141.8390  155.3390  133.4280 S   0  0  0  0  0  0  0  0  0  0  0  0
  141.6750  154.0560  132.6640 O   0  0  0  0  0  0  0  0  0  0  0  0
  141.8350  155.0290  134.9000 O   0  0  0  0  0  0  0  0  0  0  0  0
  140.4470  156.4090  133.0580 C   0  0  0  0  0  0  0  0  0  0  0  0
  140.2690  157.5120  134.1000 C   0  0  0  0  0  0  0  0  0  0  0  0
  139.9240  156.9380  135.3430 O   0  0  0  0  0  0  0  0  0  0  0  0
  139.2830  157.9030  136.1510 C   0  0  0  0  0  0  0  0  0  0  0  0
  140.2410  159.0680  136.3930 C   0  0  0  0  0  0  0  0  0  0  0  0
  141.5150  158.5900  136.7870 O   0  0  0  0  0  0  0  0  0  0  0  0
  141.5300  158.2960  138.1690 C   0  0  0  0  0  0  0  0  0  0  0  0
  141.4610  156.7850  138.3660 C   0  0  0  0  0  0  0  0  0  0  0  0
  142.0670  156.1230  137.2870 O   0  0  0  0  0  0  0  0  0  0  0  0
  146.2100  157.6140  133.3970 C   0  0  0  0  0  0  0  0  0  0  0  0
  146.7350  156.3240  133.2670 C   0  0  0  0  0  0  0  0  0  0  0  0
  149.5811  152.7824  132.4867 H   0  0  0  0  0  0  0  0  0  0  0  0
  149.9022  157.2289  132.2745 H   0  0  0  0  0  0  0  0  0  0  0  0
  148.8971  159.5264  132.5172 H   0  0  0  0  0  0  0  0  0  0  0  0
  146.4654  160.8859  133.1848 H   0  0  0  0  0  0  0  0  0  0  0  0
  142.8140  158.7160  135.3550 H   0  0  0  0  0  0  0  0  0  0  0  0
  141.9400  160.2740  135.1960 H   0  0  0  0  0  0  0  0  0  0  0  0
  143.3129  156.6040  132.0439 H   0  0  0  0  0  0  0  0  0  0  0  0
  144.1626  155.2815  132.9603 H   0  0  0  0  0  0  0  0  0  0  0  0
  140.6105  156.8745  132.0748 H   0  0  0  0  0  0  0  0  0  0  0  0
  139.5371  155.7909  133.0642 H   0  0  0  0  0  0  0  0  0  0  0  0
  141.2097  158.0725  134.2041 H   0  0  0  0  0  0  0  0  0  0  0  0
  139.4681  158.1935  133.7774 H   0  0  0  0  0  0  0  0  0  0  0  0
  138.3795  158.2688  135.6413 H   0  0  0  0  0  0  0  0  0  0  0  0
  138.9984  157.4512  137.1127 H   0  0  0  0  0  0  0  0  0  0  0  0
  140.3440  159.6504  135.4656 H   0  0  0  0  0  0  0  0  0  0  0  0
  139.8351  159.7011  137.1957 H   0  0  0  0  0  0  0  0  0  0  0  0
  142.4576  158.6825  138.6164 H   0  0  0  0  0  0  0  0  0  0  0  0
  140.6645  158.7699  138.6550 H   0  0  0  0  0  0  0  0  0  0  0  0
  141.9837  156.5164  139.2959 H   0  0  0  0  0  0  0  0  0  0  0  0
  140.4056  156.4805  138.4243 H   0  0  0  0  0  0  0  0  0  0  0  0
  141.7200  156.5470  136.4590 H   0  0  0  0  0  0  0  0  0  0  0  0
  146.1166  155.4380  133.4736 H   0  0  0  0  0  0  0  0  0  0  0  0
  1  2  3  0
  2  3  1  0
  3  4  2  0
  4  5  1  0
  5  6  2  0
  6  7  1  0
  7  8  2  0
  8  9  1  0
  9 10  1  0
  9 11  2  0
  8 12  1  0
 12 13  1  0
 13 14  2  0
 13 15  1  0
 15 16  1  0
 16 17  2  0
 16 18  2  0
 16 19  1  0
 19 20  1  0
 20 21  1  0
 21 22  1  0
 22 23  1  0
 23 24  1  0
 24 25  1  0
 25 26  1  0
 26 27  1  0
 12 28  1  0
 28 29  2  0
 29  3  1  0
 28  6  1  0
  1 30  1  0
  4 31  1  0
  5 32  1  0
  7 33  1  0
 10 34  1  0
 10 35  1  0
 15 36  1  0
 15 37  1  0
 19 38  1  0
 19 39  1  0
 20 40  1  0
 20 41  1  0
 22 42  1  0
 22 43  1  0
 23 44  1  0
 23 45  1  0
 25 46  1  0
 25 47  1  0
 26 48  1  0
 26 49  1  0
 27 50  1  0
 29 51  1  0
M  END
>  <UniqueID>  (17) 
17

>  <SMILES>  (17) 
C#Cc1ccc2cc(C(N)=O)n(C(=O)CS(=O)(=O)CCOCCOCCO)c2c1

>  <Energy>  (17) 
76.77435806748598

>  <Genealogy>  (17) 
C#Cc1ccc2cc(C(N)=O)n(C(=O)CS(=O)(=O)CCOCCOCCO)c2c1 (3D coordinates assigned)
C#Cc1ccc2cc(C(N)=O)n(C(=O)CS(=O)(=O)CCOCCOCCO)c2c1 (optimized conformer: 76.77435806748598 kcal/mol)

>  <smiles>  (17) 
C#Cc1ccc2cc(C(N)=O)n(C(=O)CS(=O)(=O)CCOCCOCCO)c2c1

>  <score_type>  (17) 
oracle

>  <origin>  (17) 
adg

>  <m_score__min__energy>  (17) 
-7.6500000000000004

>  <m_primary>  (17) 
energy

$$$$
17:0
     RDKit          3D

 48 49  0  0  0  0  0  0  0  0999 V2000
  144.5420  154.6090  131.7340 C   0  0  0  0  0  0  0  0  0  0  0  0
  145.4600  155.4990  132.3520 O   0  0  0  0  0  0  0  0  0  0  0  0
  145.1790  156.1620  133.5510 C   0  0  0  0  0  0  0  0  0  0  0  0
  145.0890  155.5120  134.6290 O   0  0  0  0  0  0  0  0  0  0  0  0
  144.9930  157.5870  133.5560 N   0  0  0  0  0  0  0  0  0  0  0  0
  145.8890  158.5430  133.1790 C   0  0  0  0  0  0  0  0  0  0  0  0
  147.3080  158.3130  132.8430 C   0  0  0  0  0  0  0  0  0  0  0  0
  147.6880  157.3590  131.8500 N   0  0  0  0  0  0  0  0  0  0  0  0
  148.2030  158.9320  133.4770 O   0  0  0  0  0  0  0  0  0  0  0  0
  145.2990  159.8030  133.1890 C   0  0  0  0  0  0  0  0  0  0  0  0
  144.0010  159.5920  133.5990 C   0  0  0  0  0  0  0  0  0  0  0  0
  142.9580  160.4960  133.7620 C   0  0  0  0  0  0  0  0  0  0  0  0
  141.7040  159.9940  134.1460 C   0  0  0  0  0  0  0  0  0  0  0  0
  141.5070  158.6020  134.3480 C   0  0  0  0  0  0  0  0  0  0  0  0
  140.2050  158.0870  134.7090 N   0  0  0  0  0  0  0  0  0  0  0  0
  139.7180  158.2530  136.0830 C   0  0  0  0  0  0  0  0  0  0  0  0
  139.3660  157.3860  133.7200 C   0  0  0  0  0  0  0  0  0  0  0  0
  138.4410  158.3560  132.9670 C   0  0  0  0  0  0  0  0  0  0  0  0
  138.7340  158.4320  131.4580 C   0  0  0  0  0  0  0  0  0  0  0  0
  138.5300  159.7960  130.9200 N   0  0  0  0  0  0  0  0  0  0  0  0
  139.1220  160.7870  131.8340 C   0  0  0  0  0  0  0  0  0  0  0  0
  137.0990  160.0890  130.7410 C   0  0  0  0  0  0  0  0  0  0  0  0
  142.5970  157.7170  134.1720 C   0  0  0  0  0  0  0  0  0  0  0  0
  143.8410  158.2470  133.8130 C   0  0  0  0  0  0  0  0  0  0  0  0
  143.9810  154.0651  132.5082 H   0  0  0  0  0  0  0  0  0  0  0  0
  143.8418  155.1811  131.1076 H   0  0  0  0  0  0  0  0  0  0  0  0
  145.0922  153.8914  131.1076 H   0  0  0  0  0  0  0  0  0  0  0  0
  148.6940  157.2320  131.6030 H   0  0  0  0  0  0  0  0  0  0  0  0
  146.9850  156.7170  131.4220 H   0  0  0  0  0  0  0  0  0  0  0  0
  145.7685  160.7623  132.9258 H   0  0  0  0  0  0  0  0  0  0  0  0
  143.1102  161.5726  133.5952 H   0  0  0  0  0  0  0  0  0  0  0  0
  140.8632  160.6880  134.2923 H   0  0  0  0  0  0  0  0  0  0  0  0
  140.5156  157.9811  136.7901 H   0  0  0  0  0  0  0  0  0  0  0  0
  139.4264  159.3013  136.2445 H   0  0  0  0  0  0  0  0  0  0  0  0
  138.8469  157.6011  136.2445 H   0  0  0  0  0  0  0  0  0  0  0  0
  140.0191  156.8803  132.9935 H   0  0  0  0  0  0  0  0  0  0  0  0
  138.7370  156.6610  134.2574 H   0  0  0  0  0  0  0  0  0  0  0  0
  137.4014  158.0238  133.1041 H   0  0  0  0  0  0  0  0  0  0  0  0
  138.6148  159.3595  133.3827 H   0  0  0  0  0  0  0  0  0  0  0  0
  139.7786  158.1344  131.2839 H   0  0  0  0  0  0  0  0  0  0  0  0
  138.0357  157.7562  130.9425 H   0  0  0  0  0  0  0  0  0  0  0  0
  138.9393  160.4811  132.8747 H   0  0  0  0  0  0  0  0  0  0  0  0
  140.2055  160.8495  131.6551 H   0  0  0  0  0  0  0  0  0  0  0  0
  138.6635  161.7707  131.6551 H   0  0  0  0  0  0  0  0  0  0  0  0
  136.6189  160.1873  131.7258 H   0  0  0  0  0  0  0  0  0  0  0  0
  136.9844  161.0292  130.1817 H   0  0  0  0  0  0  0  0  0  0  0  0
  136.6241  159.2695  130.1817 H   0  0  0  0  0  0  0  0  0  0  0  0
  142.4688  156.6338  134.3146 H   0  0  0  0  0  0  0  0  0  0  0  0
  1  2  1  0
  2  3  1  0
  3  4  2  0
  3  5  1  0
  5  6  1  0
  6  7  1  0
  7  8  1  0
  7  9  2  0
  6 10  2  0
 10 11  1  0
 11 12  2  0
 12 13  1  0
 13 14  2  0
 14 15  1  0
 15 16  1  0
 15 17  1  0
 17 18  1  0
 18 19  1  0
 19 20  1  0
 20 21  1  0
 20 22  1  0
 14 23  1  0
 23 24  2  0
 24  5  1  0
 24 11  1  0
  1 25  1  0
  1 26  1  0
  1 27  1  0
  8 28  1  0
  8 29  1  0
 10 30  1  0
 12 31  1  0
 13 32  1  0
 16 33  1  0
 16 34  1  0
 16 35  1  0
 17 36  1  0
 17 37  1  0
 18 38  1  0
 18 39  1  0
 19 40  1  0
 19 41  1  0
 21 42  1  0
 21 43  1  0
 21 44  1  0
 22 45  1  0
 22 46  1  0
 22 47  1  0
 23 48  1  0
M  END
>  <UniqueID>  (18) 
18

>  <SMILES>  (18) 
COC(=O)n1c(C(N)=O)cc2ccc(N(C)CCCN(C)C)cc21

>  <Energy>  (18) 
83.11887903784866

>  <Genealogy>  (18) 
COC(=O)n1c(C(N)=O)cc2ccc(N(C)CCCN(C)C)cc21 (3D coordinates assigned)
COC(=O)n1c(C(N)=O)cc2ccc(N(C)CCCN(C)C)cc21 (optimized conformer: 83.11887903784866 kcal/mol)

>  <smiles>  (18) 
COC(=O)n1c(C(N)=O)cc2ccc(N(C)CCCN(C)C)cc21

>  <score_type>  (18) 
oracle

>  <origin>  (18) 
adg

>  <m_score__min__energy>  (18) 
-7

>  <m_primary>  (18) 
energy

$$$$
18:0
     RDKit          3D

 63 66  0  0  0  0  0  0  0  0999 V2000
  144.4180  154.3170  131.5240 C   0  0  0  0  0  0  0  0  0  0  0  0
  145.0890  153.8820  132.5950 C   0  0  0  0  0  0  0  0  0  0  0  0
  146.4740  154.3720  132.9150 C   0  0  0  0  0  0  0  0  0  0  0  0
  146.7840  155.5300  132.1450 O   0  0  0  0  0  0  0  0  0  0  0  0
  147.5480  156.5960  132.6370 C   0  0  0  0  0  0  0  0  0  0  0  0
  148.7610  156.4300  132.9360 O   0  0  0  0  0  0  0  0  0  0  0  0
  146.9340  157.8780  132.8310 N   0  0  0  0  0  0  0  0  0  0  0  0
  147.4560  159.1080  132.5620 C   0  0  0  0  0  0  0  0  0  0  0  0
  148.8470  159.3920  132.1470 C   0  0  0  0  0  0  0  0  0  0  0  0
  149.5830  158.4580  131.3560 N   0  0  0  0  0  0  0  0  0  0  0  0
  149.4070  160.4570  132.5260 O   0  0  0  0  0  0  0  0  0  0  0  0
  146.5090  160.1040  132.8100 C   0  0  0  0  0  0  0  0  0  0  0  0
  145.3860  159.4400  133.2480 C   0  0  0  0  0  0  0  0  0  0  0  0
  144.1410  159.9330  133.6370 C   0  0  0  0  0  0  0  0  0  0  0  0
  143.1550  159.0050  134.0210 C   0  0  0  0  0  0  0  0  0  0  0  0
  143.4240  157.6180  133.9840 C   0  0  0  0  0  0  0  0  0  0  0  0
  142.4070  156.6790  134.3540 N   0  0  0  0  0  0  0  0  0  0  0  0
  141.8210  156.7310  135.6950 C   0  0  0  0  0  0  0  0  0  0  0  0
  142.0120  155.3780  136.3870 C   0  0  0  0  0  0  0  0  0  0  0  0
  141.6910  154.2530  135.4870 N   0  0  0  0  0  0  0  0  0  0  0  0
  141.8580  152.9040  135.9580 C   0  0  0  0  0  0  0  0  0  0  0  0
  142.3730  152.6950  137.0920 O   0  0  0  0  0  0  0  0  0  0  0  0
  141.4580  151.8240  135.1630 O   0  0  0  0  0  0  0  0  0  0  0  0
  142.2190  151.3380  134.0630 C   0  0  0  0  0  0  0  0  0  0  0  0
  141.3320  150.6530  133.0570 C   0  0  0  0  0  0  0  0  0  0  0  0
  141.5450  149.3110  132.7070 C   0  0  0  0  0  0  0  0  0  0  0  0
  140.7140  148.6870  131.7690 C   0  0  0  0  0  0  0  0  0  0  0  0
  139.6680  149.4000  131.1660 C   0  0  0  0  0  0  0  0  0  0  0  0
  138.6200  148.6360  129.9760 S   0  0  0  0  0  0  0  0  0  0  0  0
  138.5460  146.9400  130.2780 N   0  0  0  0  0  0  0  0  0  0  0  0
  139.1430  148.8700  128.5850 O   0  0  0  0  0  0  0  0  0  0  0  0
  137.2420  149.2240  130.0760 O   0  0  0  0  0  0  0  0  0  0  0  0
  139.4510  150.7360  131.5200 C   0  0  0  0  0  0  0  0  0  0  0  0
  140.2770  151.3600  132.4610 C   0  0  0  0  0  0  0  0  0  0  0  0
  141.1940  154.5240  134.1270 C   0  0  0  0  0  0  0  0  0  0  0  0
  142.0890  155.5690  133.4430 C   0  0  0  0  0  0  0  0  0  0  0  0
  144.6970  157.1530  133.5950 C   0  0  0  0  0  0  0  0  0  0  0  0
  145.6680  158.0980  133.2460 C   0  0  0  0  0  0  0  0  0  0  0  0
  143.4059  153.9385  131.3180 H   0  0  0  0  0  0  0  0  0  0  0  0
  144.8779  155.0535  130.8486 H   0  0  0  0  0  0  0  0  0  0  0  0
  144.6150  153.1454  133.2605 H   0  0  0  0  0  0  0  0  0  0  0  0
  146.5312  154.6225  133.9846 H   0  0  0  0  0  0  0  0  0  0  0  0
  147.1968  153.5792  132.6720 H   0  0  0  0  0  0  0  0  0  0  0  0
  149.1890  157.5160  131.1320 H   0  0  0  0  0  0  0  0  0  0  0  0
  146.6342  161.1894  132.6823 H   0  0  0  0  0  0  0  0  0  0  0  0
  143.9359  161.0137  133.6435 H   0  0  0  0  0  0  0  0  0  0  0  0
  142.1685  159.3616  134.3521 H   0  0  0  0  0  0  0  0  0  0  0  0
  142.3182  157.5170  136.2824 H   0  0  0  0  0  0  0  0  0  0  0  0
  140.7470  156.9557  135.6180 H   0  0  0  0  0  0  0  0  0  0  0  0
  143.0596  155.2879  136.7102 H   0  0  0  0  0  0  0  0  0  0  0  0
  141.3281  155.3340  137.2474 H   0  0  0  0  0  0  0  0  0  0  0  0
  142.7295  152.1825  133.5770 H   0  0  0  0  0  0  0  0  0  0  0  0
  142.9531  150.6097  134.4379 H   0  0  0  0  0  0  0  0  0  0  0  0
  142.3677  148.7474  133.1712 H   0  0  0  0  0  0  0  0  0  0  0  0
  140.8824  147.6328  131.5039 H   0  0  0  0  0  0  0  0  0  0  0  0
  137.9560  146.8050  131.1260 H   0  0  0  0  0  0  0  0  0  0  0  0
  138.6271  151.2984  131.0563 H   0  0  0  0  0  0  0  0  0  0  0  0
  140.0983  152.4103  132.7349 H   0  0  0  0  0  0  0  0  0  0  0  0
  141.2070  153.5929  133.5414 H   0  0  0  0  0  0  0  0  0  0  0  0
  140.1659  154.9105  134.1869 H   0  0  0  0  0  0  0  0  0  0  0  0
  143.0252  155.0864  133.1258 H   0  0  0  0  0  0  0  0  0  0  0  0
  141.5476  155.9757  132.5761 H   0  0  0  0  0  0  0  0  0  0  0  0
  144.9207  156.0764  133.5667 H   0  0  0  0  0  0  0  0  0  0  0  0
  1  2  2  0
  2  3  1  0
  3  4  1  0
  4  5  1  0
  5  6  2  0
  5  7  1  0
  7  8  1  0
  8  9  1  0
  9 10  1  0
  9 11  2  0
  8 12  2  0
 12 13  1  0
 13 14  2  0
 14 15  1  0
 15 16  2  0
 16 17  1  0
 17 18  1  0
 18 19  1  0
 19 20  1  0
 20 21  1  0
 21 22  2  0
 21 23  1  0
 23 24  1  0
 24 25  1  0
 25 26  2  0
 26 27  1  0
 27 28  2  0
 28 29  1  0
 29 30  1  0
 29 31  2  0
 29 32  2  0
 28 33  1  0
 33 34  2  0
 20 35  1  0
 35 36  1  0
 16 37  1  0
 37 38  2  0
 38  7  1  0
 38 13  1  0
 36 17  1  0
 34 25  1  0
  1 39  1  0
  1 40  1  0
  2 41  1  0
  3 42  1  0
  3 43  1  0
 10 44  1  0
 12 45  1  0
 14 46  1  0
 15 47  1  0
 18 48  1  0
 18 49  1  0
 19 50  1  0
 19 51  1  0
 24 52  1  0
 24 53  1  0
 26 54  1  0
 27 55  1  0
 30 56  1  0
 33 57  1  0
 34 58  1  0
 35 59  1  0
 35 60  1  0
 36 61  1  0
 36 62  1  0
 37 63  1  0
M  CHG  2  10  -1  30  -1
M  END
>  <UniqueID>  (19) 
19

>  <SMILES>  (19) 
C=CCOC(=O)n1c(C([NH-])=O)cc2ccc(N3CCN(C(=O)OCc4ccc(S([NH-])(=O)=O)cc4)CC3)cc21

>  <Energy>  (19) 
105.66970887173851

>  <Genealogy>  (19) 
C=CCOC(=O)n1c(C([NH-])=O)cc2ccc(N3CCN(C(=O)OCc4ccc(S([NH-])(=O)=O)cc4)CC3)cc21 (protonated)
C=CCOC(=O)n1c(C([NH-])=O)cc2ccc(N3CCN(C(=O)OCc4ccc(S([NH-])(=O)=O)cc4)CC3)cc21 (3D coordinates assigned)
C=CCOC(=O)n1c(C([NH-])=O)cc2ccc(N3CCN(C(=O)OCc4ccc(S([NH-])(=O)=O)cc4)CC3)cc21 (nonaromatic ring conformer: 105.66970887173851 kcal/mol)

>  <smiles>  (19) 
C=CCOC(=O)n1c(C(N)=O)cc2ccc(N3CCN(C(=O)OCc4ccc(S(N)(=O)=O)cc4)CC3)cc21

>  <score_type>  (19) 
oracle

>  <origin>  (19) 
adg

>  <m_score__min__energy>  (19) 
-10.01

>  <m_primary>  (19) 
energy

$$$$
19:0
     RDKit          3D

 34 36  0  0  0  0  0  0  0  0999 V2000
  147.6130  156.7350  134.5510 C   0  0  0  0  0  0  0  0  0  0  0  0
  148.0150  157.6990  133.4790 C   0  0  0  0  0  0  0  0  0  0  0  0
  149.2000  157.6660  132.8440 N   0  0  0  0  0  0  0  0  0  0  0  0
  149.2260  158.6330  131.9760 O   0  0  0  0  0  0  0  0  0  0  0  0
  148.0960  159.3050  131.9990 C   0  0  0  0  0  0  0  0  0  0  0  0
  147.8070  160.4760  131.1180 C   0  0  0  0  0  0  0  0  0  0  0  0
  147.2650  158.7440  132.9600 C   0  0  0  0  0  0  0  0  0  0  0  0
  145.8980  159.1610  133.3400 C   0  0  0  0  0  0  0  0  0  0  0  0
  145.5770  160.5370  133.4490 C   0  0  0  0  0  0  0  0  0  0  0  0
  144.2860  160.9460  133.8220 C   0  0  0  0  0  0  0  0  0  0  0  0
  143.3370  159.9590  134.0720 C   0  0  0  0  0  0  0  0  0  0  0  0
  142.0260  160.0750  134.4730 C   0  0  0  0  0  0  0  0  0  0  0  0
  141.5560  158.7690  134.5800 C   0  0  0  0  0  0  0  0  0  0  0  0
  140.1530  158.4350  134.9040 C   0  0  0  0  0  0  0  0  0  0  0  0
  139.7420  158.2300  136.2540 N   0  0  0  0  0  0  0  0  0  0  0  0
  139.3180  158.2800  133.9750 O   0  0  0  0  0  0  0  0  0  0  0  0
  142.5400  157.8790  134.2670 N   0  0  0  0  0  0  0  0  0  0  0  0
  142.4860  156.4450  134.3510 C   0  0  0  0  0  0  0  0  0  0  0  0
  141.6290  155.8010  133.6900 O   0  0  0  0  0  0  0  0  0  0  0  0
  143.3960  155.7530  135.1410 O   0  0  0  0  0  0  0  0  0  0  0  0
  143.6240  158.6240  133.9550 C   0  0  0  0  0  0  0  0  0  0  0  0
  144.9070  158.1900  133.6030 C   0  0  0  0  0  0  0  0  0  0  0  0
  147.8004  157.1844  135.5373 H   0  0  0  0  0  0  0  0  0  0  0  0
  146.5426  156.5017  134.4518 H   0  0  0  0  0  0  0  0  0  0  0  0
  148.2005  155.8104  134.4518 H   0  0  0  0  0  0  0  0  0  0  0  0
  149.9810  156.9930  133.0080 H   0  0  0  0  0  0  0  0  0  0  0  0
  147.5895  161.3574  131.7392 H   0  0  0  0  0  0  0  0  0  0  0  0
  148.6813  160.6817  130.4830 H   0  0  0  0  0  0  0  0  0  0  0  0
  146.9374  160.2513  130.4830 H   0  0  0  0  0  0  0  0  0  0  0  0
  146.3476  161.2934  133.2391 H   0  0  0  0  0  0  0  0  0  0  0  0
  144.0330  162.0126  133.9136 H   0  0  0  0  0  0  0  0  0  0  0  0
  141.4678  161.0026  134.6677 H   0  0  0  0  0  0  0  0  0  0  0  0
  139.2590  158.9850  136.7880 H   0  0  0  0  0  0  0  0  0  0  0  0
  145.1383  157.1169  133.5328 H   0  0  0  0  0  0  0  0  0  0  0  0
  1  2  1  0
  2  3  2  0
  3  4  1  0
  4  5  1  0
  5  6  1  0
  5  7  2  0
  7  8  1  0
  8  9  2  0
  9 10  1  0
 10 11  2  0
 11 12  1  0
 12 13  2  0
 13 14  1  0
 14 15  1  0
 14 16  2  0
 13 17  1  0
 17 18  1  0
 18 19  2  0
 18 20  1  0
 17 21  1  0
 21 22  2  0
  7  2  1  0
 22  8  1  0
 21 11  1  0
  1 23  1  0
  1 24  1  0
  1 25  1  0
  3 26  1  0
  6 27  1  0
  6 28  1  0
  6 29  1  0
  9 30  1  0
 10 31  1  0
 12 32  1  0
 15 33  1  0
 22 34  1  0
M  CHG  3   3   1  15  -1  20  -1
M  END
>  <UniqueID>  (20) 
20

>  <SMILES>  (20) 
Cc1[nH+]oc(C)c1-c1ccc2cc(C([NH-])=O)n(C(=O)[O-])c2c1

>  <Energy>  (20) 
110.30268416638795

>  <Genealogy>  (20) 
Cc1[nH+]oc(C)c1-c1ccc2cc(C([NH-])=O)n(C(=O)[O-])c2c1 (protonated)
Cc1[nH+]oc(C)c1-c1ccc2cc(C([NH-])=O)n(C(=O)[O-])c2c1 (3D coordinates assigned)
Cc1[nH+]oc(C)c1-c1ccc2cc(C([NH-])=O)n(C(=O)[O-])c2c1 (optimized conformer: 110.30268416638795 kcal/mol)

>  <smiles>  (20) 
Cc1noc(C)c1-c1ccc2cc(C(N)=O)n(C(=O)O)c2c1

>  <score_type>  (20) 
oracle

>  <origin>  (20) 
adg

>  <m_score__min__energy>  (20) 
-7.1100000000000003

>  <m_primary>  (20) 
energy

$$$$
20:0
     RDKit          3D

 24 25  0  0  0  0  0  0  0  0999 V2000
  141.5040  160.5280  133.8300 N   0  0  0  0  0  0  0  0  0  0  0  0
  142.3890  159.7550  134.6340 C   0  0  0  0  0  0  0  0  0  0  0  0
  142.0050  159.3510  135.7640 O   0  0  0  0  0  0  0  0  0  0  0  0
  143.7270  159.3700  134.1380 C   0  0  0  0  0  0  0  0  0  0  0  0
  144.1180  158.0470  133.9380 C   0  0  0  0  0  0  0  0  0  0  0  0
  145.3780  158.1190  133.3880 C   0  0  0  0  0  0  0  0  0  0  0  0
  146.2370  157.1010  132.9880 C   0  0  0  0  0  0  0  0  0  0  0  0
  147.4920  157.4630  132.4720 C   0  0  0  0  0  0  0  0  0  0  0  0
  147.8760  158.8260  132.3890 C   0  0  0  0  0  0  0  0  0  0  0  0
  149.2110  159.2030  131.7970 C   0  0  0  0  0  0  0  0  0  0  0  0
  149.1450  159.2240  130.4150 F   0  0  0  0  0  0  0  0  0  0  0  0
  150.1600  158.2770  132.1890 F   0  0  0  0  0  0  0  0  0  0  0  0
  149.6010  160.4590  132.2310 F   0  0  0  0  0  0  0  0  0  0  0  0
  146.9640  159.8320  132.7840 C   0  0  0  0  0  0  0  0  0  0  0  0
  145.7130  159.4430  133.2770 C   0  0  0  0  0  0  0  0  0  0  0  0
  144.7100  160.2260  133.7360 N   0  0  0  0  0  0  0  0  0  0  0  0
  144.7330  161.6560  133.8640 C   0  0  0  0  0  0  0  0  0  0  0  0
  143.7880  162.3510  133.4070 O   0  0  0  0  0  0  0  0  0  0  0  0
  145.8110  162.2900  134.4690 O   0  0  0  0  0  0  0  0  0  0  0  0
  141.8130  161.4300  133.4050 H   0  0  0  0  0  0  0  0  0  0  0  0
  143.5423  157.1389  134.1702 H   0  0  0  0  0  0  0  0  0  0  0  0
  145.9424  156.0446  133.0732 H   0  0  0  0  0  0  0  0  0  0  0  0
  148.1849  156.6808  132.1284 H   0  0  0  0  0  0  0  0  0  0  0  0
  147.2316  160.8961  132.7056 H   0  0  0  0  0  0  0  0  0  0  0  0
  1  2  1  0
  2  3  2  0
  2  4  1  0
  4  5  2  0
  5  6  1  0
  6  7  2  0
  7  8  1  0
  8  9  2  0
  9 10  1  0
 10 11  1  0
 10 12  1  0
 10 13  1  0
  9 14  1  0
 14 15  2  0
 15 16  1  0
 16 17  1  0
 17 18  2  0
 17 19  1  0
 16  4  1  0
 15  6  1  0
  1 20  1  0
  5 21  1  0
  7 22  1  0
  8 23  1  0
 14 24  1  0
M  CHG  2   1  -1  19  -1
M  END
>  <UniqueID>  (21) 
21

>  <SMILES>  (21) 
[NH-]C(=O)c1cc2ccc(C(F)(F)F)cc2n1C(=O)[O-]

>  <Energy>  (21) 
65.24609163300198

>  <Genealogy>  (21) 
[NH-]C(=O)c1cc2ccc(C(F)(F)F)cc2n1C(=O)[O-] (protonated)
[NH-]C(=O)c1cc2ccc(C(F)(F)F)cc2n1C(=O)[O-] (3D coordinates assigned)
[NH-]C(=O)c1cc2ccc(C(F)(F)F)cc2n1C(=O)[O-] (optimized conformer: 65.24609163300198 kcal/mol)

>  <smiles>  (21) 
NC(=O)c1cc2ccc(C(F)(F)F)cc2n1C(=O)O

>  <score_type>  (21) 
oracle

>  <origin>  (21) 
adg

>  <m_score__min__energy>  (21) 
-5.2999999999999998

>  <m_primary>  (21) 
energy

$$$$
21:0
     RDKit          3D

 44 46  0  0  0  0  0  0  0  0999 V2000
  140.8440  157.1370  137.1900 C   0  0  0  0  0  0  0  0  0  0  0  0
  141.6830  158.1170  136.5930 O   0  0  0  0  0  0  0  0  0  0  0  0
  141.1760  159.2230  135.9030 C   0  0  0  0  0  0  0  0  0  0  0  0
  140.5920  160.1550  136.5220 O   0  0  0  0  0  0  0  0  0  0  0  0
  141.3730  159.3210  134.4250 C   0  0  0  0  0  0  0  0  0  0  0  0
  142.8270  159.5370  134.1150 C   0  0  0  0  0  0  0  0  0  0  0  0
  143.3480  160.8530  134.0300 C   0  0  0  0  0  0  0  0  0  0  0  0
  144.7010  161.0680  133.7200 C   0  0  0  0  0  0  0  0  0  0  0  0
  145.5020  159.9540  133.4860 C   0  0  0  0  0  0  0  0  0  0  0  0
  146.8430  159.8760  133.1890 C   0  0  0  0  0  0  0  0  0  0  0  0
  147.1170  158.5150  133.0650 C   0  0  0  0  0  0  0  0  0  0  0  0
  148.4310  157.9690  132.6610 C   0  0  0  0  0  0  0  0  0  0  0  0
  148.5580  156.6100  132.2420 N   0  0  0  0  0  0  0  0  0  0  0  0
  149.4600  158.6930  132.7140 O   0  0  0  0  0  0  0  0  0  0  0  0
  145.9870  157.7810  133.2760 N   0  0  0  0  0  0  0  0  0  0  0  0
  145.8690  156.3500  133.3060 C   0  0  0  0  0  0  0  0  0  0  0  0
  145.6160  155.7160  132.2440 O   0  0  0  0  0  0  0  0  0  0  0  0
  146.0180  155.6650  134.5170 O   0  0  0  0  0  0  0  0  0  0  0  0
  146.2760  154.2660  134.5980 C   0  0  0  0  0  0  0  0  0  0  0  0
  147.3640  153.8850  133.6410 C   0  0  0  0  0  0  0  0  0  0  0  0
  148.5170  154.5040  133.5450 O   0  0  0  0  0  0  0  0  0  0  0  0
  149.1880  153.8730  132.6100 C   0  0  0  0  0  0  0  0  0  0  0  0
  150.3490  154.1930  132.2480 O   0  0  0  0  0  0  0  0  0  0  0  0
  148.5150  152.8700  132.0930 O   0  0  0  0  0  0  0  0  0  0  0  0
  147.3630  152.8510  132.7210 C   0  0  0  0  0  0  0  0  0  0  0  0
  146.2690  151.8700  132.4560 C   0  0  0  0  0  0  0  0  0  0  0  0
  145.0070  158.6760  133.5350 C   0  0  0  0  0  0  0  0  0  0  0  0
  143.6680  158.4310  133.8590 C   0  0  0  0  0  0  0  0  0  0  0  0
  140.9108  157.2151  138.2852 H   0  0  0  0  0  0  0  0  0  0  0  0
  139.8037  157.3029  136.8734 H   0  0  0  0  0  0  0  0  0  0  0  0
  141.1682  156.1347  136.8734 H   0  0  0  0  0  0  0  0  0  0  0  0
  141.0334  158.3891  133.9494 H   0  0  0  0  0  0  0  0  0  0  0  0
  140.7907  160.1702  134.0381 H   0  0  0  0  0  0  0  0  0  0  0  0
  142.6865  161.7135  134.2085 H   0  0  0  0  0  0  0  0  0  0  0  0
  145.1149  162.0856  133.6639 H   0  0  0  0  0  0  0  0  0  0  0  0
  147.5496  160.7111  133.0737 H   0  0  0  0  0  0  0  0  0  0  0  0
  149.4970  156.2240  131.9960 H   0  0  0  0  0  0  0  0  0  0  0  0
  147.7230  155.9950  132.1330 H   0  0  0  0  0  0  0  0  0  0  0  0
  146.5875  154.0125  135.6221 H   0  0  0  0  0  0  0  0  0  0  0  0
  145.3596  153.7160  134.3376 H   0  0  0  0  0  0  0  0  0  0  0  0
  145.8633  151.5062  133.4115 H   0  0  0  0  0  0  0  0  0  0  0  0
  145.4693  152.3592  131.8806 H   0  0  0  0  0  0  0  0  0  0  0  0
  146.6685  151.0219  131.8806 H   0  0  0  0  0  0  0  0  0  0  0  0
  143.2799  157.4031  133.9130 H   0  0  0  0  0  0  0  0  0  0  0  0
  1  2  1  0
  2  3  1  0
  3  4  2  0
  3  5  1  0
  5  6  1  0
  6  7  2  0
  7  8  1  0
  8  9  2  0
  9 10  1  0
 10 11  2  0
 11 12  1  0
 12 13  1  0
 12 14  2  0
 11 15  1  0
 15 16  1  0
 16 17  2  0
 16 18  1  0
 18 19  1  0
 19 20  1  0
 20 21  1  0
 21 22  1  0
 22 23  2  0
 22 24  1  0
 24 25  1  0
 25 26  1  0
 15 27  1  0
 27 28  2  0
 28  6  1  0
 27  9  1  0
 25 20  2  0
  1 29  1  0
  1 30  1  0
  1 31  1  0
  5 32  1  0
  5 33  1  0
  7 34  1  0
  8 35  1  0
 10 36  1  0
 13 37  1  0
 13 38  1  0
 19 39  1  0
 19 40  1  0
 26 41  1  0
 26 42  1  0
 26 43  1  0
 28 44  1  0
M  END
>  <UniqueID>  (22) 
22

>  <SMILES>  (22) 
COC(=O)Cc1ccc2cc(C(N)=O)n(C(=O)OCc3oc(=O)oc3C)c2c1

>  <Energy>  (22) 
109.89468675585864

>  <Genealogy>  (22) 
COC(=O)Cc1ccc2cc(C(N)=O)n(C(=O)OCc3oc(=O)oc3C)c2c1 (3D coordinates assigned)
COC(=O)Cc1ccc2cc(C(N)=O)n(C(=O)OCc3oc(=O)oc3C)c2c1 (optimized conformer: 109.89468675585864 kcal/mol)

>  <smiles>  (22) 
COC(=O)Cc1ccc2cc(C(N)=O)n(C(=O)OCc3oc(=O)oc3C)c2c1

>  <score_type>  (22) 
oracle

>  <origin>  (22) 
adg

>  <m_score__min__energy>  (22) 
-7.2599999999999998

>  <m_primary>  (22) 
energy

$$$$
22:0
     RDKit          3D

 38 39  0  0  0  0  0  0  0  0999 V2000
  147.6950  155.8130  135.0420 C   0  0  0  0  0  0  0  0  0  0  0  0
  146.7280  155.8360  134.1280 C   0  0  0  0  0  0  0  0  0  0  0  0
  146.8040  156.6690  132.9140 C   0  0  0  0  0  0  0  0  0  0  0  0
  146.9930  156.1390  131.7860 O   0  0  0  0  0  0  0  0  0  0  0  0
  146.6560  158.0950  133.0100 N   0  0  0  0  0  0  0  0  0  0  0  0
  147.6150  159.0450  132.8250 C   0  0  0  0  0  0  0  0  0  0  0  0
  149.0020  158.7970  132.3800 C   0  0  0  0  0  0  0  0  0  0  0  0
  149.4740  157.4590  132.2360 N   0  0  0  0  0  0  0  0  0  0  0  0
  149.7850  159.7550  132.1460 O   0  0  0  0  0  0  0  0  0  0  0  0
  147.0930  160.3170  133.0560 C   0  0  0  0  0  0  0  0  0  0  0  0
  145.7730  160.1150  133.3920 C   0  0  0  0  0  0  0  0  0  0  0  0
  144.7830  161.0330  133.7290 C   0  0  0  0  0  0  0  0  0  0  0  0
  143.5090  160.5370  134.0560 C   0  0  0  0  0  0  0  0  0  0  0  0
  143.2570  159.1420  134.0580 C   0  0  0  0  0  0  0  0  0  0  0  0
  141.8800  158.6220  134.3870 C   0  0  0  0  0  0  0  0  0  0  0  0
  140.8390  159.0780  133.3910 C   0  0  0  0  0  0  0  0  0  0  0  0
  140.8060  160.2910  133.0390 O   0  0  0  0  0  0  0  0  0  0  0  0
  139.8530  158.1610  132.8680 N   0  0  0  0  0  0  0  0  0  0  0  0
  138.8760  158.6460  131.8890 C   0  0  0  0  0  0  0  0  0  0  0  0
  139.8130  156.7650  133.3180 C   0  0  0  0  0  0  0  0  0  0  0  0
  144.2830  158.2410  133.7010 C   0  0  0  0  0  0  0  0  0  0  0  0
  145.5360  158.7650  133.3590 C   0  0  0  0  0  0  0  0  0  0  0  0
  147.5948  155.1755  135.9328 H   0  0  0  0  0  0  0  0  0  0  0  0
  148.5945  156.4315  134.9067 H   0  0  0  0  0  0  0  0  0  0  0  0
  145.8376  155.2093  134.2844 H   0  0  0  0  0  0  0  0  0  0  0  0
  149.0330  156.8060  131.5490 H   0  0  0  0  0  0  0  0  0  0  0  0
  147.6232  161.2782  132.9849 H   0  0  0  0  0  0  0  0  0  0  0  0
  144.9909  162.1131  133.7392 H   0  0  0  0  0  0  0  0  0  0  0  0
  142.7006  161.2374  134.3126 H   0  0  0  0  0  0  0  0  0  0  0  0
  141.9089  157.5224  134.3894 H   0  0  0  0  0  0  0  0  0  0  0  0
  141.5979  159.0199  135.3730 H   0  0  0  0  0  0  0  0  0  0  0  0
  138.0111  159.0753  132.4159 H   0  0  0  0  0  0  0  0  0  0  0  0
  139.3412  159.4178  131.2582 H   0  0  0  0  0  0  0  0  0  0  0  0
  138.5425  157.8088  131.2582 H   0  0  0  0  0  0  0  0  0  0  0  0
  139.8121  156.7341  134.4176 H   0  0  0  0  0  0  0  0  0  0  0  0
  138.9007  156.2829  132.9369 H   0  0  0  0  0  0  0  0  0  0  0  0
  140.6962  156.2315  132.9369 H   0  0  0  0  0  0  0  0  0  0  0  0
  144.1033  157.1558  133.6916 H   0  0  0  0  0  0  0  0  0  0  0  0
  1  2  2  0
  2  3  1  0
  3  4  2  0
  3  5  1  0
  5  6  1  0
  6  7  1  0
  7  8  1  0
  7  9  2  0
  6 10  2  0
 10 11  1  0
 11 12  2  0
 12 13  1  0
 13 14  2  0
 14 15  1  0
 15 16  1  0
 16 17  2  0
 16 18  1  0
 18 19  1  0
 18 20  1  0
 14 21  1  0
 21 22  2  0
 22  5  1  0
 22 11  1  0
  1 23  1  0
  1 24  1  0
  2 25  1  0
  8 26  1  0
 10 27  1  0
 12 28  1  0
 13 29  1  0
 15 30  1  0
 15 31  1  0
 19 32  1  0
 19 33  1  0
 19 34  1  0
 20 35  1  0
 20 36  1  0
 20 37  1  0
 21 38  1  0
M  CHG  1   8  -1
M  END
>  <UniqueID>  (23) 
23

>  <SMILES>  (23) 
C=CC(=O)n1c(C([NH-])=O)cc2ccc(CC(=O)N(C)C)cc21

>  <Energy>  (23) 
73.41373820789066

>  <Genealogy>  (23) 
C=CC(=O)n1c(C([NH-])=O)cc2ccc(CC(=O)N(C)C)cc21 (protonated)
C=CC(=O)n1c(C([NH-])=O)cc2ccc(CC(=O)N(C)C)cc21 (3D coordinates assigned)
C=CC(=O)n1c(C([NH-])=O)cc2ccc(CC(=O)N(C)C)cc21 (optimized conformer: 73.41373820789066 kcal/mol)

>  <smiles>  (23) 
C=CC(=O)n1c(C(N)=O)cc2ccc(CC(=O)N(C)C)cc21

>  <score_type>  (23) 
oracle

>  <origin>  (23) 
adg

>  <m_score__min__energy>  (23) 
-6.9900000000000002

>  <m_primary>  (23) 
energy

$$$$
23:0
     RDKit          3D

 38 39  0  0  0  0  0  0  0  0999 V2000
  149.6040  160.8330  129.2360 C   0  0  0  0  0  0  0  0  0  0  0  0
  148.9150  160.2740  130.4420 C   0  0  0  0  0  0  0  0  0  0  0  0
  147.7220  160.4840  130.6040 O   0  0  0  0  0  0  0  0  0  0  0  0
  149.6750  159.4670  131.4580 C   0  0  0  0  0  0  0  0  0  0  0  0
  149.2230  159.7710  132.7760 O   0  0  0  0  0  0  0  0  0  0  0  0
  148.5260  158.8610  133.5790 C   0  0  0  0  0  0  0  0  0  0  0  0
  148.8120  158.7390  134.8020 O   0  0  0  0  0  0  0  0  0  0  0  0
  147.3980  158.0700  132.9760 C   0  0  1  0  0  0  0  0  0  0  0  0
  147.4680  156.5860  133.3600 C   0  0  0  0  0  0  0  0  0  0  0  0
  146.0620  158.6750  133.3530 C   0  0  0  0  0  0  0  0  0  0  0  0
  145.8850  160.0850  133.3850 C   0  0  0  0  0  0  0  0  0  0  0  0
  144.6490  160.6450  133.7470 C   0  0  0  0  0  0  0  0  0  0  0  0
  143.6070  159.7810  134.0620 C   0  0  0  0  0  0  0  0  0  0  0  0
  142.3210  160.0560  134.4690 C   0  0  0  0  0  0  0  0  0  0  0  0
  141.7180  158.8140  134.6560 C   0  0  0  0  0  0  0  0  0  0  0  0
  140.2940  158.6490  135.0110 C   0  0  0  0  0  0  0  0  0  0  0  0
  139.8920  158.4780  136.3680 N   0  0  0  0  0  0  0  0  0  0  0  0
  139.4250  158.6070  134.1010 O   0  0  0  0  0  0  0  0  0  0  0  0
  142.6000  157.8090  134.3850 N   0  0  0  0  0  0  0  0  0  0  0  0
  142.3960  156.3960  134.5490 C   0  0  0  0  0  0  0  0  0  0  0  0
  143.1300  155.7340  135.3280 O   0  0  0  0  0  0  0  0  0  0  0  0
  141.3670  155.7530  133.8710 O   0  0  0  0  0  0  0  0  0  0  0  0
  143.7500  158.4180  134.0200 C   0  0  0  0  0  0  0  0  0  0  0  0
  144.9760  157.8310  133.6830 C   0  0  0  0  0  0  0  0  0  0  0  0
  150.4215  161.4962  129.5552 H   0  0  0  0  0  0  0  0  0  0  0  0
  150.0142  160.0093  128.6334 H   0  0  0  0  0  0  0  0  0  0  0  0
  148.8825  161.4042  128.6334 H   0  0  0  0  0  0  0  0  0  0  0  0
  149.5194  158.3962  131.2598 H   0  0  0  0  0  0  0  0  0  0  0  0
  150.7440  159.7150  131.3822 H   0  0  0  0  0  0  0  0  0  0  0  0
  147.5032  158.1206  131.8822 H   0  0  0  0  0  0  0  0  0  0  0  0
  147.4725  156.4906  134.4559 H   0  0  0  0  0  0  0  0  0  0  0  0
  146.5937  156.0594  132.9497 H   0  0  0  0  0  0  0  0  0  0  0  0
  148.3880  156.1441  132.9497 H   0  0  0  0  0  0  0  0  0  0  0  0
  146.7254  160.7448  133.1233 H   0  0  0  0  0  0  0  0  0  0  0  0
  144.5097  161.7356  133.7802 H   0  0  0  0  0  0  0  0  0  0  0  0
  141.8658  161.0466  134.6155 H   0  0  0  0  0  0  0  0  0  0  0  0
  139.4790  159.2700  136.9090 H   0  0  0  0  0  0  0  0  0  0  0  0
  145.0919  156.7371  133.6751 H   0  0  0  0  0  0  0  0  0  0  0  0
  1  2  1  0
  2  3  2  0
  2  4  1  0
  4  5  1  0
  5  6  1  0
  6  7  2  0
  6  8  1  0
  8  9  1  0
  8 10  1  0
 10 11  2  0
 11 12  1  0
 12 13  2  0
 13 14  1  0
 14 15  2  0
 15 16  1  0
 16 17  1  0
 16 18  2  0
 15 19  1  0
 19 20  1  0
 20 21  2  0
 20 22  1  0
 19 23  1  0
 23 24  2  0
 24 10  1  0
 23 13  1  0
  1 25  1  0
  1 26  1  0
  1 27  1  0
  4 28  1  0
  4 29  1  0
  8 30  1  6
  9 31  1  0
  9 32  1  0
  9 33  1  0
 11 34  1  0
 12 35  1  0
 14 36  1  0
 17 37  1  0
 24 38  1  0
M  CHG  2  17  -1  22  -1
M  END
>  <UniqueID>  (24) 
24

>  <SMILES>  (24) 
CC(=O)COC(=O)[C@@H](C)c1ccc2cc(C([NH-])=O)n(C(=O)[O-])c2c1

>  <Energy>  (24) 
71.57745793260054

>  <Genealogy>  (24) 
CC(=O)COC(=O)C(C)c1ccc2cc(C([NH-])=O)n(C(=O)[O-])c2c1 (protonated)
CC(=O)COC(=O)[C@@H](C)c1ccc2cc(C([NH-])=O)n(C(=O)[O-])c2c1 (chirality)
CC(=O)COC(=O)[C@@H](C)c1ccc2cc(C([NH-])=O)n(C(=O)[O-])c2c1 (3D coordinates assigned)
CC(=O)COC(=O)[C@@H](C)c1ccc2cc(C([NH-])=O)n(C(=O)[O-])c2c1 (optimized conformer: 71.57745793260054 kcal/mol)

>  <smiles>  (24) 
CC(=O)COC(=O)C(C)c1ccc2cc(C(N)=O)n(C(=O)O)c2c1

>  <score_type>  (24) 
oracle

>  <origin>  (24) 
adg

>  <m_score__min__energy>  (24) 
-7.0700000000000003

>  <m_primary>  (24) 
energy

$$$$
24:0
     RDKit          3D

 41 42  0  0  0  0  0  0  0  0999 V2000
  147.6480  154.8320  134.7750 C   0  0  0  0  0  0  0  0  0  0  0  0
  147.4920  154.6270  133.2700 C   0  0  0  0  0  0  0  0  0  0  0  0
  148.8650  154.4820  132.6060 C   0  0  0  0  0  0  0  0  0  0  0  0
  146.7990  155.7480  132.7220 O   0  0  0  0  0  0  0  0  0  0  0  0
  145.7440  156.4010  133.3680 C   0  0  0  0  0  0  0  0  0  0  0  0
  144.8600  155.7360  133.9760 O   0  0  0  0  0  0  0  0  0  0  0  0
  145.6680  157.8350  133.3370 N   0  0  0  0  0  0  0  0  0  0  0  0
  146.6930  158.7220  133.1930 C   0  0  0  0  0  0  0  0  0  0  0  0
  148.0960  158.3800  132.8870 C   0  0  0  0  0  0  0  0  0  0  0  0
  148.4210  157.4400  131.8600 N   0  0  0  0  0  0  0  0  0  0  0  0
  149.0240  158.9680  133.5010 O   0  0  0  0  0  0  0  0  0  0  0  0
  146.2330  160.0290  133.3230 C   0  0  0  0  0  0  0  0  0  0  0  0
  144.8790  159.9180  133.5400 C   0  0  0  0  0  0  0  0  0  0  0  0
  143.9210  160.9090  133.7440 C   0  0  0  0  0  0  0  0  0  0  0  0
  142.5960  160.5050  133.9760 C   0  0  0  0  0  0  0  0  0  0  0  0
  142.2560  159.1290  134.0160 C   0  0  0  0  0  0  0  0  0  0  0  0
  140.8270  158.7060  134.2530 C   0  0  0  0  0  0  0  0  0  0  0  0
  140.5580  158.3140  135.7190 C   0  0  2  0  0  0  0  0  0  0  0  0
  139.1790  158.2460  135.9750 O   0  0  0  0  0  0  0  0  0  0  0  0
  141.1980  159.2860  136.6670 C   0  0  0  0  0  0  0  0  0  0  0  0
  140.5970  160.3460  136.9850 O   0  0  0  0  0  0  0  0  0  0  0  0
  142.4310  159.0000  137.2410 O   0  0  0  0  0  0  0  0  0  0  0  0
  143.2550  158.1540  133.8050 C   0  0  0  0  0  0  0  0  0  0  0  0
  144.5630  158.5840  133.5490 C   0  0  0  0  0  0  0  0  0  0  0  0
  147.0664  154.0677  135.3114 H   0  0  0  0  0  0  0  0  0  0  0  0
  148.7097  154.7441  135.0489 H   0  0  0  0  0  0  0  0  0  0  0  0
  147.2802  155.8318  135.0489 H   0  0  0  0  0  0  0  0  0  0  0  0
  146.9198  153.7065  133.0822 H   0  0  0  0  0  0  0  0  0  0  0  0
  149.6406  154.4001  133.3817 H   0  0  0  0  0  0  0  0  0  0  0  0
  148.8758  153.5777  131.9798 H   0  0  0  0  0  0  0  0  0  0  0  0
  149.0644  155.3641  131.9798 H   0  0  0  0  0  0  0  0  0  0  0  0
  149.4180  157.1810  131.6850 H   0  0  0  0  0  0  0  0  0  0  0  0
  147.6880  157.0680  131.2170 H   0  0  0  0  0  0  0  0  0  0  0  0
  146.8257  160.9538  133.2647 H   0  0  0  0  0  0  0  0  0  0  0  0
  144.1939  161.9744  133.7240 H   0  0  0  0  0  0  0  0  0  0  0  0
  141.8142  161.2637  134.1282 H   0  0  0  0  0  0  0  0  0  0  0  0
  140.1636  159.5414  133.9847 H   0  0  0  0  0  0  0  0  0  0  0  0
  140.6357  157.8188  133.6314 H   0  0  0  0  0  0  0  0  0  0  0  0
  141.0018  157.3203  135.8789 H   0  0  0  0  0  0  0  0  0  0  0  0
  138.9810  158.9290  136.6670 H   0  0  0  0  0  0  0  0  0  0  0  0
  143.0117  157.0818  133.8408 H   0  0  0  0  0  0  0  0  0  0  0  0
  1  2  1  0
  2  3  1  0
  2  4  1  0
  4  5  1  0
  5  6  2  0
  5  7  1  0
  7  8  1  0
  8  9  1  0
  9 10  1  0
  9 11  2  0
  8 12  2  0
 12 13  1  0
 13 14  2  0
 14 15  1  0
 15 16  2  0
 16 17  1  0
 17 18  1  0
 18 19  1  0
 18 20  1  0
 20 21  2  0
 20 22  1  0
 16 23  1  0
 23 24  2  0
 24  7  1  0
 24 13  1  0
  1 25  1  0
  1 26  1  0
  1 27  1  0
  2 28  1  0
  3 29  1  0
  3 30  1  0
  3 31  1  0
 10 32  1  0
 10 33  1  0
 12 34  1  0
 14 35  1  0
 15 36  1  0
 17 37  1  0
 17 38  1  0
 18 39  1  1
 19 40  1  0
 23 41  1  0
M  CHG  1  22  -1
M  END
>  <UniqueID>  (25) 
25

>  <SMILES>  (25) 
CC(C)OC(=O)n1c(C(N)=O)cc2ccc(C[C@H](O)C(=O)[O-])cc21

>  <Energy>  (25) 
71.42611678903334

>  <Genealogy>  (25) 
CC(C)OC(=O)n1c(C(N)=O)cc2ccc(CC(O)C(=O)[O-])cc21 (protonated)
CC(C)OC(=O)n1c(C(N)=O)cc2ccc(C[C@H](O)C(=O)[O-])cc21 (chirality)
CC(C)OC(=O)n1c(C(N)=O)cc2ccc(C[C@H](O)C(=O)[O-])cc21 (3D coordinates assigned)
CC(C)OC(=O)n1c(C(N)=O)cc2ccc(C[C@H](O)C(=O)[O-])cc21 (optimized conformer: 71.42611678903334 kcal/mol)

>  <smiles>  (25) 
CC(C)OC(=O)n1c(C(N)=O)cc2ccc(CC(O)C(=O)O)cc21

>  <score_type>  (25) 
oracle

>  <origin>  (25) 
adg

>  <m_score__min__energy>  (25) 
-7.2400000000000002

>  <m_primary>  (25) 
energy

$$$$
25:0
     RDKit          3D

 41 42  0  0  0  0  0  0  0  0999 V2000
  139.8530  157.7840  136.7270 C   0  0  0  0  0  0  0  0  0  0  0  0
  140.9850  158.5630  137.0430 O   0  0  0  0  0  0  0  0  0  0  0  0
  140.9930  159.7270  136.2420 C   0  0  0  0  0  0  0  0  0  0  0  0
  141.2610  159.3810  134.8000 C   0  0  0  0  0  0  0  0  0  0  0  0
  140.7000  160.0290  133.9290 O   0  0  0  0  0  0  0  0  0  0  0  0
  142.2280  158.2970  134.3970 C   0  0  0  0  0  0  0  0  0  0  0  0
  143.5650  158.8890  134.0410 C   0  0  0  0  0  0  0  0  0  0  0  0
  143.7680  160.2930  134.0960 C   0  0  0  0  0  0  0  0  0  0  0  0
  145.0070  160.8520  133.7410 C   0  0  0  0  0  0  0  0  0  0  0  0
  146.0190  159.9880  133.3290 C   0  0  0  0  0  0  0  0  0  0  0  0
  147.3130  160.2540  132.9370 C   0  0  0  0  0  0  0  0  0  0  0  0
  147.8710  159.0110  132.6390 C   0  0  0  0  0  0  0  0  0  0  0  0
  149.2510  158.8240  132.1430 C   0  0  0  0  0  0  0  0  0  0  0  0
  149.7700  157.5220  131.8870 N   0  0  0  0  0  0  0  0  0  0  0  0
  149.9780  159.8310  131.9270 O   0  0  0  0  0  0  0  0  0  0  0  0
  146.9550  158.0230  132.8340 N   0  0  0  0  0  0  0  0  0  0  0  0
  147.1420  156.6080  132.6860 C   0  0  0  0  0  0  0  0  0  0  0  0
  147.0200  156.0890  131.5430 O   0  0  0  0  0  0  0  0  0  0  0  0
  147.4660  155.7860  133.8240 N   0  0  0  0  0  0  0  0  0  0  0  0
  147.3610  156.3360  135.1780 C   0  0  0  0  0  0  0  0  0  0  0  0
  147.8390  154.3840  133.6160 C   0  0  0  0  0  0  0  0  0  0  0  0
  145.8320  158.6330  133.2620 C   0  0  0  0  0  0  0  0  0  0  0  0
  144.6180  158.0460  133.6240 C   0  0  0  0  0  0  0  0  0  0  0  0
  139.3672  157.4497  137.6555 H   0  0  0  0  0  0  0  0  0  0  0  0
  139.1452  158.3872  136.1395 H   0  0  0  0  0  0  0  0  0  0  0  0
  140.1635  156.9074  136.1395 H   0  0  0  0  0  0  0  0  0  0  0  0
  140.0147  160.2241  136.3180 H   0  0  0  0  0  0  0  0  0  0  0  0
  141.7903  160.3957  136.5987 H   0  0  0  0  0  0  0  0  0  0  0  0
  142.3544  157.5950  135.2344 H   0  0  0  0  0  0  0  0  0  0  0  0
  141.8266  157.7709  133.5183 H   0  0  0  0  0  0  0  0  0  0  0  0
  142.9470  160.9497  134.4198 H   0  0  0  0  0  0  0  0  0  0  0  0
  145.1729  161.9385  133.7870 H   0  0  0  0  0  0  0  0  0  0  0  0
  147.8018  161.2373  132.8728 H   0  0  0  0  0  0  0  0  0  0  0  0
  149.1410  156.7390  131.6040 H   0  0  0  0  0  0  0  0  0  0  0  0
  147.5144  155.5323  135.9132 H   0  0  0  0  0  0  0  0  0  0  0  0
  148.1271  157.1128  135.3187 H   0  0  0  0  0  0  0  0  0  0  0  0
  146.3626  156.7759  135.3187 H   0  0  0  0  0  0  0  0  0  0  0  0
  147.9702  153.8910  134.5906 H   0  0  0  0  0  0  0  0  0  0  0  0
  147.0454  153.8734  133.0507 H   0  0  0  0  0  0  0  0  0  0  0  0
  148.7814  154.3353  133.0507 H   0  0  0  0  0  0  0  0  0  0  0  0
  144.4854  156.9547  133.5853 H   0  0  0  0  0  0  0  0  0  0  0  0
  1  2  1  0
  2  3  1  0
  3  4  1  0
  4  5  2  0
  4  6  1  0
  6  7  1  0
  7  8  2  0
  8  9  1  0
  9 10  2  0
 10 11  1  0
 11 12  2  0
 12 13  1  0
 13 14  1  0
 13 15  2  0
 12 16  1  0
 16 17  1  0
 17 18  2  0
 17 19  1  0
 19 20  1  0
 19 21  1  0
 16 22  1  0
 22 23  2  0
 23  7  1  0
 22 10  1  0
  1 24  1  0
  1 25  1  0
  1 26  1  0
  3 27  1  0
  3 28  1  0
  6 29  1  0
  6 30  1  0
  8 31  1  0
  9 32  1  0
 11 33  1  0
 14 34  1  0
 20 35  1  0
 20 36  1  0
 20 37  1  0
 21 38  1  0
 21 39  1  0
 21 40  1  0
 23 41  1  0
M  CHG  1  14  -1
M  END
>  <UniqueID>  (26) 
26

>  <SMILES>  (26) 
COCC(=O)Cc1ccc2cc(C([NH-])=O)n(C(=O)N(C)C)c2c1

>  <Energy>  (26) 
75.471198928553

>  <Genealogy>  (26) 
COCC(=O)Cc1ccc2cc(C([NH-])=O)n(C(=O)N(C)C)c2c1 (protonated)
COCC(=O)Cc1ccc2cc(C([NH-])=O)n(C(=O)N(C)C)c2c1 (3D coordinates assigned)
COCC(=O)Cc1ccc2cc(C([NH-])=O)n(C(=O)N(C)C)c2c1 (optimized conformer: 75.471198928553 kcal/mol)

>  <smiles>  (26) 
COCC(=O)Cc1ccc2cc(C(N)=O)n(C(=O)N(C)C)c2c1

>  <score_type>  (26) 
oracle

>  <origin>  (26) 
adg

>  <m_score__min__energy>  (26) 
-6.4500000000000002

>  <m_primary>  (26) 
energy

$$$$
26:0
     RDKit          3D

 39 40  0  0  0  0  0  0  0  0999 V2000
  138.9980  150.6500  130.4646 H   0  0  0  0  0  0  0  0  0  0  0  0
  139.1450  149.6330  130.8570 C   0  0  0  0  0  0  0  0  0  0  0  0
  138.8160  148.6220  130.1150 N   0  0  0  0  0  0  0  0  0  0  0  0
  138.9650  147.3220  130.5470 O   0  0  0  0  0  0  0  0  0  0  0  0
  139.1310  146.2690  129.6150 C   0  0  0  0  0  0  0  0  0  0  0  0
  139.2803  145.3220  130.1544 H   0  0  0  0  0  0  0  0  0  0  0  0
  138.2336  146.1936  128.9833 H   0  0  0  0  0  0  0  0  0  0  0  0
  140.0080  146.4733  128.9833 H   0  0  0  0  0  0  0  0  0  0  0  0
  139.7200  149.4630  132.2340 C   0  0  0  0  0  0  0  0  0  0  0  0
  140.1553  148.4566  132.3216 H   0  0  0  0  0  0  0  0  0  0  0  0
  138.9152  149.5968  132.9719 H   0  0  0  0  0  0  0  0  0  0  0  0
  140.7910  150.4890  132.4950 C   0  0  0  0  0  0  0  0  0  0  0  0
  142.1310  150.0750  132.6930 C   0  0  0  0  0  0  0  0  0  0  0  0
  142.3867  149.0072  132.6261 H   0  0  0  0  0  0  0  0  0  0  0  0
  143.1370  151.0150  132.9740 C   0  0  0  0  0  0  0  0  0  0  0  0
  144.1790  150.6999  133.1322 H   0  0  0  0  0  0  0  0  0  0  0  0
  142.7750  152.3560  133.0460 C   0  0  0  0  0  0  0  0  0  0  0  0
  143.5380  153.4620  133.3390 C   0  0  0  0  0  0  0  0  0  0  0  0
  144.6149  153.4895  133.5616 H   0  0  0  0  0  0  0  0  0  0  0  0
  142.6580  154.5390  133.2940 C   0  0  0  0  0  0  0  0  0  0  0  0
  143.0800  155.9420  133.4880 C   0  0  0  0  0  0  0  0  0  0  0  0
  143.9140  156.2160  134.3920 O   0  0  0  0  0  0  0  0  0  0  0  0
  142.6110  156.9830  132.6310 N   0  0  0  0  0  0  0  0  0  0  0  0
  142.8880  157.9730  132.8080 H   0  0  0  0  0  0  0  0  0  0  0  0
  142.0540  156.7660  131.7750 H   0  0  0  0  0  0  0  0  0  0  0  0
  141.3950  154.1180  132.9990 N   0  0  0  0  0  0  0  0  0  0  0  0
  140.1950  154.9090  132.9970 C   0  0  0  0  0  0  0  0  0  0  0  0
  139.0660  154.3460  132.9910 O   0  0  0  0  0  0  0  0  0  0  0  0
  140.2850  156.3040  133.0030 O   0  0  0  0  0  0  0  0  0  0  0  0
  139.1700  157.1470  133.2690 C   0  0  0  0  0  0  0  0  0  0  0  0
  139.2945  157.6189  134.2548 H   0  0  0  0  0  0  0  0  0  0  0  0
  138.2480  156.5471  133.2624 H   0  0  0  0  0  0  0  0  0  0  0  0
  139.0800  158.2240  132.2000 C   0  0  0  0  0  0  0  0  0  0  0  0
  138.9976  159.2106  132.6795 H   0  0  0  0  0  0  0  0  0  0  0  0
  139.9837  158.1952  131.5735 H   0  0  0  0  0  0  0  0  0  0  0  0
  138.1936  158.0456  131.5735 H   0  0  0  0  0  0  0  0  0  0  0  0
  141.4840  152.7770  132.8440 C   0  0  0  0  0  0  0  0  0  0  0  0
  140.4600  151.8600  132.5790 C   0  0  0  0  0  0  0  0  0  0  0  0
  139.4228  152.1986  132.4395 H   0  0  0  0  0  0  0  0  0  0  0  0
  1  2  1  0
  2  3  2  0
  3  4  1  0
  4  5  1  0
  5  6  1  0
  5  7  1  0
  5  8  1  0
  2  9  1  0
  9 10  1  0
  9 11  1  0
  9 12  1  0
 12 13  2  0
 13 14  1  0
 13 15  1  0
 15 16  1  0
 15 17  2  0
 17 18  1  0
 18 19  1  0
 18 20  2  0
 20 21  1  0
 21 22  2  0
 21 23  1  0
 23 24  1  0
 23 25  1  0
 20 26  1  0
 26 27  1  0
 27 28  2  0
 27 29  1  0
 29 30  1  0
 30 31  1  0
 30 32  1  0
 30 33  1  0
 33 34  1  0
 33 35  1  0
 33 36  1  0
 26 37  1  0
 37 38  2  0
 38 39  1  0
 38 12  1  0
 37 17  1  0
M  END
>  <UniqueID>  (27) 
27

>  <SMILES>  (27) 
CCOC(=O)n1c(C(N)=O)cc2ccc(C/C=N\OC)cc21

>  <Energy>  (27) 
66.9394738028227

>  <Genealogy>  (27) 
CCOC(=O)n1c(C(N)=O)cc2ccc(C/C=N\OC)cc21 (cis-trans isomerization)
CCOC(=O)n1c(C(N)=O)cc2ccc(C/C=N\OC)cc21 (3D coordinates assigned)
CCOC(=O)n1c(C(N)=O)cc2ccc(C/C=N\OC)cc21 (optimized conformer: 66.9394738028227 kcal/mol)

>  <smiles>  (27) 
CCOC(=O)n1c(C(N)=O)cc2ccc(CC=NOC)cc21

>  <score_type>  (27) 
oracle

>  <origin>  (27) 
adg

>  <m_score__min__energy>  (27) 
-6.7300000000000004

>  <m_primary>  (27) 
energy

$$$$
27:0
     RDKit          3D

 41 43  0  0  0  0  0  0  0  0999 V2000
  138.4270  158.6150  131.1880 C   0  0  0  0  0  0  0  0  0  0  0  0
  138.9580  158.8420  132.5400 N   0  0  0  0  0  0  0  0  0  0  0  0
  139.8800  159.9890  132.5620 C   0  0  0  0  0  0  0  0  0  0  0  0
  139.5370  157.6170  133.1380 C   0  0  0  0  0  0  0  0  0  0  0  0
  139.7850  157.7170  134.6270 C   0  0  0  0  0  0  0  0  0  0  0  0
  138.9020  158.2190  135.5100 N   0  0  0  0  0  0  0  0  0  0  0  0
  139.4720  158.0750  136.6980 N   0  0  0  0  0  0  0  0  0  0  0  0
  140.6530  157.4930  136.5660 N   0  0  0  0  0  0  0  0  0  0  0  0
  140.8690  157.2540  135.2840 N   0  0  0  0  0  0  0  0  0  0  0  0
  142.0560  156.5770  134.7620 C   0  0  0  0  0  0  0  0  0  0  0  0
  143.0740  157.5750  134.2790 C   0  0  0  0  0  0  0  0  0  0  0  0
  142.6780  158.8960  133.9550 C   0  0  0  0  0  0  0  0  0  0  0  0
  143.6150  159.8300  133.4840 C   0  0  0  0  0  0  0  0  0  0  0  0
  144.9380  159.4170  133.3520 C   0  0  0  0  0  0  0  0  0  0  0  0
  146.0370  160.1080  132.9000 C   0  0  0  0  0  0  0  0  0  0  0  0
  147.0930  159.2040  132.9710 C   0  0  0  0  0  0  0  0  0  0  0  0
  148.4870  159.5580  132.6350 C   0  0  0  0  0  0  0  0  0  0  0  0
  149.5730  158.6990  132.9840 N   0  0  0  0  0  0  0  0  0  0  0  0
  148.7280  160.6640  132.0820 O   0  0  0  0  0  0  0  0  0  0  0  0
  146.6650  157.9950  133.4330 N   0  0  0  0  0  0  0  0  0  0  0  0
  147.4270  156.7830  133.5490 C   0  0  0  0  0  0  0  0  0  0  0  0
  148.1640  156.4020  132.6010 O   0  0  0  0  0  0  0  0  0  0  0  0
  147.3600  156.0150  134.7050 O   0  0  0  0  0  0  0  0  0  0  0  0
  145.3400  158.1430  133.6640 C   0  0  0  0  0  0  0  0  0  0  0  0
  144.4210  157.1840  134.1050 C   0  0  0  0  0  0  0  0  0  0  0  0
  137.4176  158.1835  131.2582 H   0  0  0  0  0  0  0  0  0  0  0  0
  138.3800  159.5717  130.6471 H   0  0  0  0  0  0  0  0  0  0  0  0
  139.0861  157.9200  130.6471 H   0  0  0  0  0  0  0  0  0  0  0  0
  140.1000  160.2627  133.6045 H   0  0  0  0  0  0  0  0  0  0  0  0
  140.8146  159.7181  132.0490 H   0  0  0  0  0  0  0  0  0  0  0  0
  139.4145  160.8435  132.0490 H   0  0  0  0  0  0  0  0  0  0  0  0
  138.8427  156.7829  132.9583 H   0  0  0  0  0  0  0  0  0  0  0  0
  140.5166  157.4629  132.6619 H   0  0  0  0  0  0  0  0  0  0  0  0
  142.5018  155.9650  135.5599 H   0  0  0  0  0  0  0  0  0  0  0  0
  141.7553  155.9432  133.9147 H   0  0  0  0  0  0  0  0  0  0  0  0
  141.6256  159.1933  134.0736 H   0  0  0  0  0  0  0  0  0  0  0  0
  143.3130  160.8561  133.2273 H   0  0  0  0  0  0  0  0  0  0  0  0
  146.0740  161.1521  132.5558 H   0  0  0  0  0  0  0  0  0  0  0  0
  150.5480  158.9460  132.7040 H   0  0  0  0  0  0  0  0  0  0  0  0
  149.4240  157.8620  133.5910 H   0  0  0  0  0  0  0  0  0  0  0  0
  144.7392  156.1514  134.3111 H   0  0  0  0  0  0  0  0  0  0  0  0
  1  2  1  0
  2  3  1  0
  2  4  1  0
  4  5  1  0
  5  6  2  0
  6  7  1  0
  7  8  2  0
  8  9  1  0
  9 10  1  0
 10 11  1  0
 11 12  2  0
 12 13  1  0
 13 14  2  0
 14 15  1  0
 15 16  2  0
 16 17  1  0
 17 18  1  0
 17 19  2  0
 16 20  1  0
 20 21  1  0
 21 22  2  0
 21 23  1  0
 20 24  1  0
 24 25  2  0
  9  5  1  0
 25 11  1  0
 24 14  1  0
  1 26  1  0
  1 27  1  0
  1 28  1  0
  3 29  1  0
  3 30  1  0
  3 31  1  0
  4 32  1  0
  4 33  1  0
 10 34  1  0
 10 35  1  0
 12 36  1  0
 13 37  1  0
 15 38  1  0
 18 39  1  0
 18 40  1  0
 25 41  1  0
M  CHG  1  23  -1
M  END
>  <UniqueID>  (28) 
28

>  <SMILES>  (28) 
CN(C)Cc1nnnn1Cc1ccc2cc(C(N)=O)n(C(=O)[O-])c2c1

>  <Energy>  (28) 
122.99992944487319

>  <Genealogy>  (28) 
CN(C)Cc1nnnn1Cc1ccc2cc(C(N)=O)n(C(=O)[O-])c2c1 (protonated)
CN(C)Cc1nnnn1Cc1ccc2cc(C(N)=O)n(C(=O)[O-])c2c1 (3D coordinates assigned)
CN(C)Cc1nnnn1Cc1ccc2cc(C(N)=O)n(C(=O)[O-])c2c1 (optimized conformer: 122.99992944487319 kcal/mol)

>  <smiles>  (28) 
CN(C)Cc1nnnn1Cc1ccc2cc(C(N)=O)n(C(=O)O)c2c1

>  <score_type>  (28) 
oracle

>  <origin>  (28) 
adg

>  <m_score__min__energy>  (28) 
-7.8200000000000003

>  <m_primary>  (28) 
energy

$$$$
28:0
     RDKit          3D

100106  0  0  0  0  0  0  0  0999 V2000
  141.3480  155.2680  140.4780 C   0  0  0  0  0  0  0  0  0  0  0  0
  141.9700  156.1360  139.4720 N   0  0  0  0  0  0  0  0  0  0  0  0
  141.6340  155.6630  138.1220 C   0  0  2  0  0  0  0  0  0  0  0  0
  141.7940  154.1480  137.9680 C   0  0  0  0  0  0  0  0  0  0  0  0
  142.8510  154.3700  136.8720 C   0  0  2  0  0  0  0  0  0  0  0  0
  142.4190  153.9330  135.4320 C   0  0  0  0  0  0  0  0  0  0  0  0
  142.7690  154.8340  134.2170 C   0  0  0  0  0  0  0  0  0  0  0  0
  141.6130  155.5970  133.6200 C   0  0  0  0  0  0  0  0  0  0  0  0
  140.4590  154.8960  133.1840 C   0  0  0  0  0  0  0  0  0  0  0  0
  139.3720  155.5810  132.6210 C   0  0  0  0  0  0  0  0  0  0  0  0
  139.4610  156.9620  132.5100 C   0  0  0  0  0  0  0  0  0  0  0  0
  138.5650  157.8600  131.9800 C   0  0  0  0  0  0  0  0  0  0  0  0
  139.1640  159.1100  132.1300 C   0  0  0  0  0  0  0  0  0  0  0  0
  138.5080  160.3860  131.7560 C   0  0  0  0  0  0  0  0  0  0  0  0
  139.2520  161.6050  131.7140 N   0  0  0  0  0  0  0  0  0  0  0  0
  137.2890  160.4030  131.4400 O   0  0  0  0  0  0  0  0  0  0  0  0
  140.3820  158.9860  132.7340 N   0  0  0  0  0  0  0  0  0  0  0  0
  141.3300  160.0250  133.0280 C   0  0  0  0  0  0  0  0  0  0  0  0
  140.9170  161.1670  133.3700 O   0  0  0  0  0  0  0  0  0  0  0  0
  142.7030  159.7560  132.9320 O   0  0  0  0  0  0  0  0  0  0  0  0
  143.6150  159.5860  134.0270 C   0  0  0  0  0  0  0  0  0  0  0  0
  142.8490  159.3640  135.3480 C   0  0  0  0  0  0  0  0  0  0  0  0
  144.4290  160.8820  134.1470 C   0  0  0  0  0  0  0  0  0  0  0  0
  144.5800  158.4160  133.7460 C   0  0  0  0  0  0  0  0  0  0  0  0
  140.5480  157.6630  132.9600 C   0  0  0  0  0  0  0  0  0  0  0  0
  141.6500  157.0060  133.5240 C   0  0  0  0  0  0  0  0  0  0  0  0
  144.2180  153.7460  137.2820 C   0  0  0  0  0  0  0  0  0  0  0  0
  145.2560  154.0040  136.2550 N   0  0  0  0  0  0  0  0  0  0  0  0
  146.6310  153.8750  136.7780 C   0  0  0  0  0  0  0  0  0  0  0  0
  147.6320  153.7690  135.6070 C   0  0  0  0  0  0  0  0  0  0  0  0
  147.0830  154.4000  134.3020 C   0  0  0  0  0  0  0  0  0  0  0  0
  146.2640  153.4080  133.5040 C   0  0  0  0  0  0  0  0  0  0  0  0
  144.9990  153.0570  133.8030 N   0  0  0  0  0  0  0  0  0  0  0  0
  144.7200  152.1620  132.8340 C   0  0  0  0  0  0  0  0  0  0  0  0
  143.4680  151.3820  132.7940 C   0  0  0  0  0  0  0  0  0  0  0  0
  142.2600  151.9200  133.2760 C   0  0  0  0  0  0  0  0  0  0  0  0
  141.0710  151.1870  133.1720 C   0  0  0  0  0  0  0  0  0  0  0  0
  141.0650  149.9310  132.5540 C   0  0  0  0  0  0  0  0  0  0  0  0
  139.8460  149.2650  132.3840 O   0  0  0  0  0  0  0  0  0  0  0  0
  139.4610  148.7020  131.1620 C   0  0  0  0  0  0  0  0  0  0  0  0
  138.8440  149.5100  130.1980 C   0  0  0  0  0  0  0  0  0  0  0  0
  138.4700  148.9720  128.9640 C   0  0  0  0  0  0  0  0  0  0  0  0
  138.7100  147.6230  128.6890 C   0  0  0  0  0  0  0  0  0  0  0  0
  139.3240  146.8110  129.6490 C   0  0  0  0  0  0  0  0  0  0  0  0
  139.6950  147.3470  130.8890 C   0  0  0  0  0  0  0  0  0  0  0  0
  142.2760  149.3780  132.1060 C   0  0  0  0  0  0  0  0  0  0  0  0
  143.4660  150.0960  132.2340 C   0  0  0  0  0  0  0  0  0  0  0  0
  145.7590  151.9760  131.9970 N   0  0  0  0  0  0  0  0  0  0  0  0
  146.6900  152.7700  132.4400 O   0  0  0  0  0  0  0  0  0  0  0  0
  146.2560  155.6590  134.6480 C   0  0  0  0  0  0  0  0  0  0  0  0
  145.0930  155.3340  135.6210 C   0  0  0  0  0  0  0  0  0  0  0  0
  142.7770  155.8880  137.1270 C   0  0  0  0  0  0  0  0  0  0  0  0
  141.6068  155.6291  141.4843 H   0  0  0  0  0  0  0  0  0  0  0  0
  140.2554  155.2852  140.3520 H   0  0  0  0  0  0  0  0  0  0  0  0
  141.7155  154.2389  140.3520 H   0  0  0  0  0  0  0  0  0  0  0  0
  143.0080  156.0450  139.6000 H   0  0  0  0  0  0  0  0  0  0  0  0
  140.6529  156.1363  137.9686 H   0  0  0  0  0  0  0  0  0  0  0  0
  142.1784  153.6435  138.8668 H   0  0  0  0  0  0  0  0  0  0  0  0
  140.9171  153.5127  137.7747 H   0  0  0  0  0  0  0  0  0  0  0  0
  142.8798  152.9519  135.2447 H   0  0  0  0  0  0  0  0  0  0  0  0
  141.3204  153.9718  135.4715 H   0  0  0  0  0  0  0  0  0  0  0  0
  143.5246  155.5639  134.5429 H   0  0  0  0  0  0  0  0  0  0  0  0
  143.1213  154.1534  133.4279 H   0  0  0  0  0  0  0  0  0  0  0  0
  140.4162  153.8018  133.2888 H   0  0  0  0  0  0  0  0  0  0  0  0
  138.4771  155.0409  132.2782 H   0  0  0  0  0  0  0  0  0  0  0  0
  137.5845  157.6393  131.5329 H   0  0  0  0  0  0  0  0  0  0  0  0
  140.2650  161.6400  131.9510 H   0  0  0  0  0  0  0  0  0  0  0  0
  138.7700  162.4990  131.4630 H   0  0  0  0  0  0  0  0  0  0  0  0
  143.5197  159.5584  136.1979 H   0  0  0  0  0  0  0  0  0  0  0  0
  141.9906  160.0503  135.3939 H   0  0  0  0  0  0  0  0  0  0  0  0
  142.4906  158.3250  135.3939 H   0  0  0  0  0  0  0  0  0  0  0  0
  144.5803  161.1229  135.2096 H   0  0  0  0  0  0  0  0  0  0  0  0
  145.4056  160.7482  133.6587 H   0  0  0  0  0  0  0  0  0  0  0  0
  143.8844  161.7036  133.6587 H   0  0  0  0  0  0  0  0  0  0  0  0
  144.9296  157.9921  134.6989 H   0  0  0  0  0  0  0  0  0  0  0  0
  144.0564  157.6393  133.1693 H   0  0  0  0  0  0  0  0  0  0  0  0
  145.4422  158.7822  133.1693 H   0  0  0  0  0  0  0  0  0  0  0  0
  142.5216  157.5730  133.8828 H   0  0  0  0  0  0  0  0  0  0  0  0
  144.5411  154.1862  138.2369 H   0  0  0  0  0  0  0  0  0  0  0  0
  144.0884  152.6581  137.3799 H   0  0  0  0  0  0  0  0  0  0  0  0
  146.8740  154.7586  137.3865 H   0  0  0  0  0  0  0  0  0  0  0  0
  146.6994  152.9673  137.3956 H   0  0  0  0  0  0  0  0  0  0  0  0
  148.5601  154.2885  135.8874 H   0  0  0  0  0  0  0  0  0  0  0  0
  147.8108  152.7009  135.4140 H   0  0  0  0  0  0  0  0  0  0  0  0
  147.9330  154.6918  133.6678 H   0  0  0  0  0  0  0  0  0  0  0  0
  142.2496  152.9192  133.7358 H   0  0  0  0  0  0  0  0  0  0  0  0
  140.1363  151.6008  133.5784 H   0  0  0  0  0  0  0  0  0  0  0  0
  138.6533  150.5717  130.4134 H   0  0  0  0  0  0  0  0  0  0  0  0
  137.9869  149.6099  128.2093 H   0  0  0  0  0  0  0  0  0  0  0  0
  138.4161  147.1993  127.7174 H   0  0  0  0  0  0  0  0  0  0  0  0
  139.5157  145.7503  129.4297 H   0  0  0  0  0  0  0  0  0  0  0  0
  140.1690  146.7060  131.6469 H   0  0  0  0  0  0  0  0  0  0  0  0
  142.2865  148.3758  131.6528 H   0  0  0  0  0  0  0  0  0  0  0  0
  144.4113  149.6491  131.8924 H   0  0  0  0  0  0  0  0  0  0  0  0
  146.9174  156.4013  135.1188 H   0  0  0  0  0  0  0  0  0  0  0  0
  145.8229  156.0507  133.7158 H   0  0  0  0  0  0  0  0  0  0  0  0
  145.0633  156.1017  136.4083 H   0  0  0  0  0  0  0  0  0  0  0  0
  144.1579  155.3225  135.0418 H   0  0  0  0  0  0  0  0  0  0  0  0
  143.6867  156.3131  137.5762 H   0  0  0  0  0  0  0  0  0  0  0  0
  142.6558  156.5889  136.2880 H   0  0  0  0  0  0  0  0  0  0  0  0
  1  2  1  0
  2  3  1  0
  3  4  1  0
  4  5  1  0
  5  6  1  6
  6  7  1  0
  7  8  1  0
  8  9  2  0
  9 10  1  0
 10 11  2  0
 11 12  1  0
 12 13  2  0
 13 14  1  0
 14 15  1  0
 14 16  2  0
 13 17  1  0
 17 18  1  0
 18 19  2  0
 18 20  1  0
 20 21  1  0
 21 22  1  0
 21 23  1  0
 21 24  1  0
 17 25  1  0
 25 26  2  0
  5 27  1  0
 27 28  1  0
 28 29  1  0
 29 30  1  0
 30 31  1  0
 31 32  1  0
 32 33  2  0
 33 34  1  0
 34 35  1  0
 35 36  2  0
 36 37  1  0
 37 38  2  0
 38 39  1  0
 39 40  1  0
 40 41  2  0
 41 42  1  0
 42 43  2  0
 43 44  1  0
 44 45  2  0
 38 46  1  0
 46 47  2  0
 34 48  2  0
 48 49  1  0
 31 50  1  0
 50 51  1  0
  5 52  1  0
 52  3  1  0
 26  8  1  0
 51 28  1  0
 25 11  1  0
 49 32  1  0
 47 35  1  0
 45 40  1  0
  1 53  1  0
  1 54  1  0
  1 55  1  0
  2 56  1  0
  3 57  1  6
  4 58  1  0
  4 59  1  0
  6 60  1  0
  6 61  1  0
  7 62  1  0
  7 63  1  0
  9 64  1  0
 10 65  1  0
 12 66  1  0
 15 67  1  0
 15 68  1  0
 22 69  1  0
 22 70  1  0
 22 71  1  0
 23 72  1  0
 23 73  1  0
 23 74  1  0
 24 75  1  0
 24 76  1  0
 24 77  1  0
 26 78  1  0
 27 79  1  0
 27 80  1  0
 29 81  1  0
 29 82  1  0
 30 83  1  0
 30 84  1  0
 31 85  1  0
 36 86  1  0
 37 87  1  0
 41 88  1  0
 42 89  1  0
 43 90  1  0
 44 91  1  0
 45 92  1  0
 46 93  1  0
 47 94  1  0
 50 95  1  0
 50 96  1  0
 51 97  1  0
 51 98  1  0
 52 99  1  0
 52100  1  0
M  END
>  <UniqueID>  (29) 
29

>  <SMILES>  (29) 
CNC1CC(CCc2ccc3cc(C(N)=O)n(C(=O)OC(C)(C)C)c3c2)(CN2CCC(c3nc(-c4ccc(Oc5ccccc5)cc4)no3)CC2)C1

>  <Energy>  (29) 
254.2963503146606

>  <Genealogy>  (29) 
CNC1CC(CCc2ccc3cc(C(N)=O)n(C(=O)OC(C)(C)C)c3c2)(CN2CCC(c3nc(-c4ccc(Oc5ccccc5)cc4)no3)CC2)C1 (3D coordinates assigned)
CNC1CC(CCc2ccc3cc(C(N)=O)n(C(=O)OC(C)(C)C)c3c2)(CN2CCC(c3nc(-c4ccc(Oc5ccccc5)cc4)no3)CC2)C1 (nonaromatic ring conformer: 254.2963503146606 kcal/mol)

>  <smiles>  (29) 
CNC1CC(CCc2ccc3cc(C(N)=O)n(C(=O)OC(C)(C)C)c3c2)(CN2CCC(c3nc(-c4ccc(Oc5ccccc5)cc4)no3)CC2)C1

>  <score_type>  (29) 
oracle

>  <origin>  (29) 
adg

>  <m_score__min__energy>  (29) 
-13.26

>  <m_primary>  (29) 
energy

$$$$
29:0
     RDKit          3D

 35 36  0  0  0  0  0  0  0  0999 V2000
  145.6630  153.6300  133.3590 C   0  0  0  0  0  0  0  0  0  0  0  0
  146.9590  153.5610  132.6660 N   0  0  0  0  0  0  0  0  0  0  0  0
  147.4170  152.1670  132.5530 C   0  0  0  0  0  0  0  0  0  0  0  0
  147.9470  154.3570  133.3700 C   0  0  0  0  0  0  0  0  0  0  0  0
  148.0860  154.2420  134.5800 O   0  0  0  0  0  0  0  0  0  0  0  0
  148.8470  155.2990  132.6160 C   0  0  0  0  0  0  0  0  0  0  0  0
  148.3250  156.7040  132.7230 C   0  0  0  0  0  0  0  0  0  0  0  0
  149.2160  157.8040  132.6550 C   0  0  0  0  0  0  0  0  0  0  0  0
  148.7460  159.1170  132.8200 C   0  0  0  0  0  0  0  0  0  0  0  0
  147.3860  159.2990  133.0520 C   0  0  0  0  0  0  0  0  0  0  0  0
  146.6760  160.4530  133.2890 C   0  0  0  0  0  0  0  0  0  0  0  0
  145.3580  160.0440  133.4830 C   0  0  0  0  0  0  0  0  0  0  0  0
  144.2390  160.9850  133.6920 C   0  0  0  0  0  0  0  0  0  0  0  0
  142.8960  160.6120  133.3920 N   0  0  0  0  0  0  0  0  0  0  0  0
  144.4750  162.1550  134.0980 O   0  0  0  0  0  0  0  0  0  0  0  0
  145.2570  158.6870  133.3780 N   0  0  0  0  0  0  0  0  0  0  0  0
  144.0990  157.8670  133.6000 C   0  0  0  0  0  0  0  0  0  0  0  0
  143.1600  157.8540  132.7630 O   0  0  0  0  0  0  0  0  0  0  0  0
  143.9920  157.1050  134.7560 O   0  0  0  0  0  0  0  0  0  0  0  0
  146.5070  158.2470  133.1100 C   0  0  0  0  0  0  0  0  0  0  0  0
  146.9510  156.9270  132.9670 C   0  0  0  0  0  0  0  0  0  0  0  0
  145.8278  153.6212  134.4465 H   0  0  0  0  0  0  0  0  0  0  0  0
  145.1439  154.5571  133.0743 H   0  0  0  0  0  0  0  0  0  0  0  0
  145.0484  152.7633  133.0743 H   0  0  0  0  0  0  0  0  0  0  0  0
  146.8280  153.9380  131.6990 H   0  0  0  0  0  0  0  0  0  0  0  0
  147.5560  151.7440  133.5589 H   0  0  0  0  0  0  0  0  0  0  0  0
  146.6654  151.5772  132.0078 H   0  0  0  0  0  0  0  0  0  0  0  0
  148.3720  152.1379  132.0078 H   0  0  0  0  0  0  0  0  0  0  0  0
  149.8604  155.2534  133.0414 H   0  0  0  0  0  0  0  0  0  0  0  0
  148.8735  155.0032  131.5569 H   0  0  0  0  0  0  0  0  0  0  0  0
  150.2861  157.6276  132.4712 H   0  0  0  0  0  0  0  0  0  0  0  0
  149.4319  159.9754  132.7675 H   0  0  0  0  0  0  0  0  0  0  0  0
  147.0660  161.4811  133.3190 H   0  0  0  0  0  0  0  0  0  0  0  0
  142.6830  159.9730  132.5960 H   0  0  0  0  0  0  0  0  0  0  0  0
  146.2479  156.0844  133.0427 H   0  0  0  0  0  0  0  0  0  0  0  0
  1  2  1  0
  2  3  1  0
  2  4  1  0
  4  5  2  0
  4  6  1  0
  6  7  1  0
  7  8  2  0
  8  9  1  0
  9 10  2  0
 10 11  1  0
 11 12  2  0
 12 13  1  0
 13 14  1  0
 13 15  2  0
 12 16  1  0
 16 17  1  0
 17 18  2  0
 17 19  1  0
 16 20  1  0
 20 21  2  0
 21  7  1  0
 20 10  1  0
  1 22  1  0
  1 23  1  0
  1 24  1  0
  2 25  1  0
  3 26  1  0
  3 27  1  0
  3 28  1  0
  6 29  1  0
  6 30  1  0
  8 31  1  0
  9 32  1  0
 11 33  1  0
 14 34  1  0
 21 35  1  0
M  CHG  3   2   1  14  -1  19  -1
M  END
>  <UniqueID>  (30) 
30

>  <SMILES>  (30) 
C[NH+](C)C(=O)Cc1ccc2cc(C([NH-])=O)n(C(=O)[O-])c2c1

>  <Energy>  (30) 
72.1417613164246

>  <Genealogy>  (30) 
C[NH+](C)C(=O)Cc1ccc2cc(C([NH-])=O)n(C(=O)[O-])c2c1 (protonated)
C[NH+](C)C(=O)Cc1ccc2cc(C([NH-])=O)n(C(=O)[O-])c2c1 (3D coordinates assigned)
C[NH+](C)C(=O)Cc1ccc2cc(C([NH-])=O)n(C(=O)[O-])c2c1 (optimized conformer: 72.1417613164246 kcal/mol)

>  <smiles>  (30) 
CN(C)C(=O)Cc1ccc2cc(C(N)=O)n(C(=O)O)c2c1

>  <score_type>  (30) 
oracle

>  <origin>  (30) 
adg

>  <m_score__min__energy>  (30) 
-6.46

>  <m_primary>  (30) 
energy

$$$$
30:0
     RDKit          3D

 35 36  0  0  0  0  0  0  0  0999 V2000
  145.1080  162.7310  134.2840 C   0  0  0  0  0  0  0  0  0  0  0  0
  144.7470  161.5970  134.0970 C   0  0  0  0  0  0  0  0  0  0  0  0
  144.3170  160.2410  133.8730 C   0  0  0  0  0  0  0  0  0  0  0  0
  145.2760  159.2120  133.7350 C   0  0  0  0  0  0  0  0  0  0  0  0
  144.8690  157.8830  133.5330 C   0  0  0  0  0  0  0  0  0  0  0  0
  143.5020  157.6230  133.4620 C   0  0  0  0  0  0  0  0  0  0  0  0
  142.8380  156.4290  133.3080 C   0  0  0  0  0  0  0  0  0  0  0  0
  141.4850  156.7550  133.3200 C   0  0  0  0  0  0  0  0  0  0  0  0
  140.4110  155.7610  133.1240 C   0  0  0  0  0  0  0  0  0  0  0  0
  139.1060  156.1550  132.6950 N   0  0  0  0  0  0  0  0  0  0  0  0
  140.6640  154.5370  133.2830 O   0  0  0  0  0  0  0  0  0  0  0  0
  141.3140  158.0960  133.4920 N   0  0  0  0  0  0  0  0  0  0  0  0
  140.0760  158.8060  133.6610 C   0  0  0  0  0  0  0  0  0  0  0  0
  139.1070  158.2500  134.2470 O   0  0  0  0  0  0  0  0  0  0  0  0
  139.9480  160.1130  133.1780 O   0  0  0  0  0  0  0  0  0  0  0  0
  139.3750  160.4300  131.9120 C   0  0  0  0  0  0  0  0  0  0  0  0
  139.6810  159.3360  130.8870 C   0  0  0  0  0  0  0  0  0  0  0  0
  138.6220  158.3970  130.8420 O   0  0  0  0  0  0  0  0  0  0  0  0
  137.3950  159.0140  131.1660 C   0  0  0  0  0  0  0  0  0  0  0  0
  142.5610  158.6160  133.5750 C   0  0  0  0  0  0  0  0  0  0  0  0
  142.9410  159.9460  133.8000 C   0  0  0  0  0  0  0  0  0  0  0  0
  145.4376  163.7665  134.4547 H   0  0  0  0  0  0  0  0  0  0  0  0
  146.3479  159.4535  133.7861 H   0  0  0  0  0  0  0  0  0  0  0  0
  145.6064  157.0728  133.4340 H   0  0  0  0  0  0  0  0  0  0  0  0
  143.2819  155.4285  133.1985 H   0  0  0  0  0  0  0  0  0  0  0  0
  138.3500  155.4430  132.5980 H   0  0  0  0  0  0  0  0  0  0  0  0
  138.9120  157.1340  132.3920 H   0  0  0  0  0  0  0  0  0  0  0  0
  138.2848  160.5249  132.0234 H   0  0  0  0  0  0  0  0  0  0  0  0
  139.8078  161.3767  131.5566 H   0  0  0  0  0  0  0  0  0  0  0  0
  139.8038  159.7928  129.8939 H   0  0  0  0  0  0  0  0  0  0  0  0
  140.6066  158.8189  131.1800 H   0  0  0  0  0  0  0  0  0  0  0  0
  137.2889  159.0674  132.2596 H   0  0  0  0  0  0  0  0  0  0  0  0
  137.3733  160.0302  130.7455 H   0  0  0  0  0  0  0  0  0  0  0  0
  136.5663  158.4254  130.7455 H   0  0  0  0  0  0  0  0  0  0  0  0
  142.1862  160.7376  133.9164 H   0  0  0  0  0  0  0  0  0  0  0  0
  1  2  3  0
  2  3  1  0
  3  4  2  0
  4  5  1  0
  5  6  2  0
  6  7  1  0
  7  8  2  0
  8  9  1  0
  9 10  1  0
  9 11  2  0
  8 12  1  0
 12 13  1  0
 13 14  2  0
 13 15  1  0
 15 16  1  0
 16 17  1  0
 17 18  1  0
 18 19  1  0
 12 20  1  0
 20 21  2  0
 21  3  1  0
 20  6  1  0
  1 22  1  0
  4 23  1  0
  5 24  1  0
  7 25  1  0
 10 26  1  0
 10 27  1  0
 16 28  1  0
 16 29  1  0
 17 30  1  0
 17 31  1  0
 19 32  1  0
 19 33  1  0
 19 34  1  0
 21 35  1  0
M  END
>  <UniqueID>  (31) 
31

>  <SMILES>  (31) 
C#Cc1ccc2cc(C(N)=O)n(C(=O)OCCOC)c2c1

>  <Energy>  (31) 
71.13920324237422

>  <Genealogy>  (31) 
C#Cc1ccc2cc(C(N)=O)n(C(=O)OCCOC)c2c1 (3D coordinates assigned)
C#Cc1ccc2cc(C(N)=O)n(C(=O)OCCOC)c2c1 (optimized conformer: 71.13920324237422 kcal/mol)

>  <smiles>  (31) 
C#Cc1ccc2cc(C(N)=O)n(C(=O)OCCOC)c2c1

>  <score_type>  (31) 
oracle

>  <origin>  (31) 
adg

>  <m_score__min__energy>  (31) 
-6.3399999999999999

>  <m_primary>  (31) 
energy

$$$$
31:0
     RDKit          3D

 54 56  0  0  0  0  0  0  0  0999 V2000
  144.8470  152.8890  132.9190 C   0  0  0  0  0  0  0  0  0  0  0  0
  146.2500  152.9420  132.4700 N   0  0  0  0  0  0  0  0  0  0  0  0
  146.7810  151.5880  132.2290 C   0  0  0  0  0  0  0  0  0  0  0  0
  147.1170  153.7640  133.3550 C   0  0  0  0  0  0  0  0  0  0  0  0
  148.1250  154.7020  132.6470 C   0  0  0  0  0  0  0  0  0  0  0  0
  147.8150  156.1680  132.8100 C   0  0  0  0  0  0  0  0  0  0  0  0
  148.8550  157.1290  132.7250 C   0  0  0  0  0  0  0  0  0  0  0  0
  148.5800  158.4970  132.8850 C   0  0  0  0  0  0  0  0  0  0  0  0
  147.2630  158.8740  133.1280 C   0  0  0  0  0  0  0  0  0  0  0  0
  146.7270  160.1220  133.3470 C   0  0  0  0  0  0  0  0  0  0  0  0
  145.3660  159.9080  133.5510 C   0  0  0  0  0  0  0  0  0  0  0  0
  144.3910  161.0020  133.7390 C   0  0  0  0  0  0  0  0  0  0  0  0
  143.0030  160.7620  133.5220 N   0  0  0  0  0  0  0  0  0  0  0  0
  144.7670  162.1380  134.1300 O   0  0  0  0  0  0  0  0  0  0  0  0
  145.0710  158.5790  133.4700 N   0  0  0  0  0  0  0  0  0  0  0  0
  143.8030  157.9460  133.7030 C   0  0  0  0  0  0  0  0  0  0  0  0
  142.8220  158.2050  132.9530 O   0  0  0  0  0  0  0  0  0  0  0  0
  143.6670  157.0240  134.7450 O   0  0  0  0  0  0  0  0  0  0  0  0
  142.4550  156.8550  135.4700 C   0  0  0  0  0  0  0  0  0  0  0  0
  141.3910  156.3720  134.5400 C   0  0  0  0  0  0  0  0  0  0  0  0
  141.3260  155.1530  134.0560 O   0  0  0  0  0  0  0  0  0  0  0  0
  140.2450  155.1190  133.3110 C   0  0  0  0  0  0  0  0  0  0  0  0
  139.8650  154.0990  132.6800 O   0  0  0  0  0  0  0  0  0  0  0  0
  139.6050  156.2650  133.2980 O   0  0  0  0  0  0  0  0  0  0  0  0
  140.2940  157.0740  134.0680 C   0  0  0  0  0  0  0  0  0  0  0  0
  139.9420  158.5130  134.3280 C   0  0  2  0  0  0  0  0  0  0  0  0
  140.5060  159.3320  133.3380 O   0  0  0  0  0  0  0  0  0  0  0  0
  140.4500  158.9490  135.7040 C   0  0  0  0  0  0  0  0  0  0  0  0
  141.6890  159.5940  135.5840 O   0  0  0  0  0  0  0  0  0  0  0  0
  146.2440  157.9600  133.2100 C   0  0  0  0  0  0  0  0  0  0  0  0
  146.4930  156.5890  133.0760 C   0  0  0  0  0  0  0  0  0  0  0  0
  144.8137  152.8877  134.0185 H   0  0  0  0  0  0  0  0  0  0  0  0
  144.3063  153.7674  132.5368 H   0  0  0  0  0  0  0  0  0  0  0  0
  144.3741  151.9724  132.5368 H   0  0  0  0  0  0  0  0  0  0  0  0
  146.2470  153.4250  131.5400 H   0  0  0  0  0  0  0  0  0  0  0  0
  146.9750  151.0934  133.1922 H   0  0  0  0  0  0  0  0  0  0  0  0
  146.0460  151.0022  131.6575 H   0  0  0  0  0  0  0  0  0  0  0  0
  147.7183  151.6581  131.6575 H   0  0  0  0  0  0  0  0  0  0  0  0
  146.4618  154.3873  133.9813 H   0  0  0  0  0  0  0  0  0  0  0  0
  147.7303  153.0439  133.9165 H   0  0  0  0  0  0  0  0  0  0  0  0
  149.1256  154.5115  133.0623 H   0  0  0  0  0  0  0  0  0  0  0  0
  148.0646  154.4811  131.5711 H   0  0  0  0  0  0  0  0  0  0  0  0
  149.8866  156.7996  132.5320 H   0  0  0  0  0  0  0  0  0  0  0  0
  149.3816  159.2475  132.8201 H   0  0  0  0  0  0  0  0  0  0  0  0
  147.2600  161.0842  133.3585 H   0  0  0  0  0  0  0  0  0  0  0  0
  142.6010  159.8050  133.6340 H   0  0  0  0  0  0  0  0  0  0  0  0
  142.6056  156.1173  136.2720 H   0  0  0  0  0  0  0  0  0  0  0  0
  142.1516  157.8152  135.9126 H   0  0  0  0  0  0  0  0  0  0  0  0
  138.8468  158.6127  134.3044 H   0  0  0  0  0  0  0  0  0  0  0  0
  141.4910  159.2770  133.4490 H   0  0  0  0  0  0  0  0  0  0  0  0
  139.7236  159.6401  136.1566 H   0  0  0  0  0  0  0  0  0  0  0  0
  140.5703  158.0590  136.3392 H   0  0  0  0  0  0  0  0  0  0  0  0
  142.1160  159.2200  134.7710 H   0  0  0  0  0  0  0  0  0  0  0  0
  145.6783  155.8566  133.1755 H   0  0  0  0  0  0  0  0  0  0  0  0
  1  2  1  0
  2  3  1  0
  2  4  1  0
  4  5  1  0
  5  6  1  0
  6  7  2  0
  7  8  1  0
  8  9  2  0
  9 10  1  0
 10 11  2  0
 11 12  1  0
 12 13  1  0
 12 14  2  0
 11 15  1  0
 15 16  1  0
 16 17  2  0
 16 18  1  0
 18 19  1  0
 19 20  1  0
 20 21  1  0
 21 22  1  0
 22 23  2  0
 22 24  1  0
 24 25  1  0
 25 26  1  0
 26 27  1  0
 26 28  1  0
 28 29  1  0
 15 30  1  0
 30 31  2  0
 31  6  1  0
 30  9  1  0
 25 20  2  0
  1 32  1  0
  1 33  1  0
  1 34  1  0
  2 35  1  0
  3 36  1  0
  3 37  1  0
  3 38  1  0
  4 39  1  0
  4 40  1  0
  5 41  1  0
  5 42  1  0
  7 43  1  0
  8 44  1  0
 10 45  1  0
 13 46  1  0
 19 47  1  0
 19 48  1  0
 26 49  1  1
 27 50  1  0
 28 51  1  0
 28 52  1  0
 29 53  1  0
 31 54  1  0
M  CHG  2   2   1  13  -1
M  END
>  <UniqueID>  (32) 
32

>  <SMILES>  (32) 
C[NH+](C)CCc1ccc2cc(C([NH-])=O)n(C(=O)OCc3oc(=O)oc3[C@H](O)CO)c2c1

>  <Energy>  (32) 
123.80746375253455

>  <Genealogy>  (32) 
C[NH+](C)CCc1ccc2cc(C([NH-])=O)n(C(=O)OCc3oc(=O)oc3C(O)CO)c2c1 (protonated)
C[NH+](C)CCc1ccc2cc(C([NH-])=O)n(C(=O)OCc3oc(=O)oc3[C@H](O)CO)c2c1 (chirality)
C[NH+](C)CCc1ccc2cc(C([NH-])=O)n(C(=O)OCc3oc(=O)oc3[C@H](O)CO)c2c1 (3D coordinates assigned)
C[NH+](C)CCc1ccc2cc(C([NH-])=O)n(C(=O)OCc3oc(=O)oc3[C@H](O)CO)c2c1 (optimized conformer: 123.80746375253455 kcal/mol)

>  <smiles>  (32) 
CN(C)CCc1ccc2cc(C(N)=O)n(C(=O)OCc3oc(=O)oc3C(O)CO)c2c1

>  <score_type>  (32) 
oracle

>  <origin>  (32) 
adg

>  <m_score__min__energy>  (32) 
-6.3600000000000003

>  <m_primary>  (32) 
energy

$$$$
32:0
     RDKit          3D

 45 46  0  0  0  0  0  0  0  0999 V2000
  146.2470  151.8320  133.3230 H   0  0  0  0  0  0  0  0  0  0  0  0
  145.6650  151.4950  132.5250 N   0  0  0  0  0  0  0  0  0  0  0  0
  144.2430  151.4720  132.6130 C   0  0  0  0  0  0  0  0  0  0  0  0
  143.6370  150.3720  132.4970 O   0  0  0  0  0  0  0  0  0  0  0  0
  143.4700  152.7170  132.8090 C   0  0  0  0  0  0  0  0  0  0  0  0
  144.0080  153.9940  132.6550 C   0  0  0  0  0  0  0  0  0  0  0  0
  145.0313  154.2535  132.3460 H   0  0  0  0  0  0  0  0  0  0  0  0
  142.9860  154.8620  132.9720 C   0  0  0  0  0  0  0  0  0  0  0  0
  142.9590  156.2530  132.9770 C   0  0  0  0  0  0  0  0  0  0  0  0
  143.8527  156.8389  132.7162 H   0  0  0  0  0  0  0  0  0  0  0  0
  141.7530  156.8860  133.3260 C   0  0  0  0  0  0  0  0  0  0  0  0
  141.6986  157.9846  133.3391 H   0  0  0  0  0  0  0  0  0  0  0  0
  140.6070  156.1230  133.6610 C   0  0  0  0  0  0  0  0  0  0  0  0
  139.3120  156.8080  133.9960 C   0  0  0  0  0  0  0  0  0  0  0  0
  138.5444  156.5138  133.2651 H   0  0  0  0  0  0  0  0  0  0  0  0
  138.9972  156.5109  135.0073 H   0  0  0  0  0  0  0  0  0  0  0  0
  139.4930  158.2910  133.9540 C   0  0  0  0  0  0  0  0  0  0  0  0
  138.9970  158.9570  133.0060 O   0  0  0  0  0  0  0  0  0  0  0  0
  140.2540  158.9180  134.9460 O   0  0  0  0  0  0  0  0  0  0  0  0
  140.1910  158.5350  136.3140 C   0  0  0  0  0  0  0  0  0  0  0  0
  140.3367  159.4207  136.9498 H   0  0  0  0  0  0  0  0  0  0  0  0
  139.2075  158.0898  136.5252 H   0  0  0  0  0  0  0  0  0  0  0  0
  140.9800  157.7982  136.5252 H   0  0  0  0  0  0  0  0  0  0  0  0
  140.6690  154.7120  133.6260 C   0  0  0  0  0  0  0  0  0  0  0  0
  139.7823  154.1024  133.8542 H   0  0  0  0  0  0  0  0  0  0  0  0
  141.8860  154.1110  133.2940 C   0  0  0  0  0  0  0  0  0  0  0  0
  142.1690  152.7930  133.2060 N   0  0  0  0  0  0  0  0  0  0  0  0
  141.2450  151.7120  133.4100 C   0  0  0  0  0  0  0  0  0  0  0  0
  141.2540  151.0890  134.5050 O   0  0  0  0  0  0  0  0  0  0  0  0
  140.3020  151.2920  132.3560 C   0  0  0  0  0  0  0  0  0  0  0  0
  140.0145  152.0181  131.5813 H   0  0  0  0  0  0  0  0  0  0  0  0
  139.7840  150.0590  132.3090 C   0  0  0  0  0  0  0  0  0  0  0  0
  140.0922  149.3196  133.0628 H   0  0  0  0  0  0  0  0  0  0  0  0
  138.7900  149.6570  131.2510 C   0  0  0  0  0  0  0  0  0  0  0  0
  139.0840  150.1112  130.2933 H   0  0  0  0  0  0  0  0  0  0  0  0
  137.7947  150.0076  131.5616 H   0  0  0  0  0  0  0  0  0  0  0  0
  138.7350  148.1950  131.0900 N   0  0  0  0  0  0  0  0  0  0  0  0
  137.7510  147.8700  131.2420 H   0  0  0  0  0  0  0  0  0  0  0  0
  139.1810  147.7580  129.7570 C   0  0  0  0  0  0  0  0  0  0  0  0
  140.2156  148.0937  129.5930 H   0  0  0  0  0  0  0  0  0  0  0  0
  138.5163  148.1955  128.9975 H   0  0  0  0  0  0  0  0  0  0  0  0
  139.1230  146.2390  129.6480 C   0  0  0  0  0  0  0  0  0  0  0  0
  139.1062  145.7994  130.6562 H   0  0  0  0  0  0  0  0  0  0  0  0
  138.2130  145.9449  129.1046 H   0  0  0  0  0  0  0  0  0  0  0  0
  140.0080  145.8763  129.1046 H   0  0  0  0  0  0  0  0  0  0  0  0
  1  2  1  0
  2  3  1  0
  3  4  2  0
  3  5  1  0
  5  6  2  0
  6  7  1  0
  6  8  1  0
  8  9  2  0
  9 10  1  0
  9 11  1  0
 11 12  1  0
 11 13  2  0
 13 14  1  0
 14 15  1  0
 14 16  1  0
 14 17  1  0
 17 18  2  0
 17 19  1  0
 19 20  1  0
 20 21  1  0
 20 22  1  0
 20 23  1  0
 13 24  1  0
 24 25  1  0
 24 26  2  0
 26 27  1  0
 27 28  1  0
 28 29  2  0
 28 30  1  0
 30 31  1  0
 30 32  2  0
 32 33  1  0
 32 34  1  0
 34 35  1  0
 34 36  1  0
 34 37  1  0
 37 38  1  0
 37 39  1  0
 39 40  1  0
 39 41  1  0
 39 42  1  0
 42 43  1  0
 42 44  1  0
 42 45  1  0
 27  5  1  0
 26  8  1  0
M  CHG  1   2  -1
M  END
>  <UniqueID>  (33) 
33

>  <SMILES>  (33) 
CCNC/C=C/C(=O)n1c(C([NH-])=O)cc2ccc(CC(=O)OC)cc21

>  <Energy>  (33) 
75.43759410460346

>  <Genealogy>  (33) 
CCNCC=CC(=O)n1c(C([NH-])=O)cc2ccc(CC(=O)OC)cc21 (protonated)
CCNC/C=C/C(=O)n1c(C([NH-])=O)cc2ccc(CC(=O)OC)cc21 (cis-trans isomerization)
CCNC/C=C/C(=O)n1c(C([NH-])=O)cc2ccc(CC(=O)OC)cc21 (3D coordinates assigned)
CCNC/C=C/C(=O)n1c(C([NH-])=O)cc2ccc(CC(=O)OC)cc21 (optimized conformer: 75.43759410460346 kcal/mol)

>  <smiles>  (33) 
CCNCC=CC(=O)n1c(C(N)=O)cc2ccc(CC(=O)OC)cc21

>  <score_type>  (33) 
oracle

>  <origin>  (33) 
adg

>  <m_score__min__energy>  (33) 
-6.9900000000000002

>  <m_primary>  (33) 
energy

$$$$
33:0
     RDKit          3D

 59 62  0  0  0  0  0  0  0  0999 V2000
  146.2360  155.2180  132.2400 C   0  0  0  0  0  0  0  0  0  0  0  0
  145.9230  156.4510  132.9900 N   0  0  2  0  0  0  0  0  0  0  0  0
  147.0610  157.0600  133.4810 O   0  0  0  0  0  0  0  0  0  0  0  0
  147.6820  157.9160  132.5250 C   0  0  1  0  0  0  0  0  0  0  0  0
  147.8910  159.2870  133.0960 C   0  0  0  0  0  0  0  0  0  0  0  0
  149.1990  159.7210  132.4710 C   0  0  0  0  0  0  0  0  0  0  0  0
  149.9480  158.5790  132.1290 O   0  0  0  0  0  0  0  0  0  0  0  0
  149.1040  157.4570  132.2510 C   0  0  0  0  0  0  0  0  0  0  0  0
  144.9030  156.2830  134.0110 C   0  0  0  0  0  0  0  0  0  0  0  0
  145.2120  155.8630  135.1600 O   0  0  0  0  0  0  0  0  0  0  0  0
  143.5190  156.5370  133.7100 N   0  0  0  0  0  0  0  0  0  0  0  0
  142.9220  157.7390  133.4950 C   0  0  0  0  0  0  0  0  0  0  0  0
  143.6230  159.0240  133.4230 C   0  0  0  0  0  0  0  0  0  0  0  0
  144.8230  159.1420  132.6630 N   0  0  0  0  0  0  0  0  0  0  0  0
  143.1650  160.0210  134.0430 O   0  0  0  0  0  0  0  0  0  0  0  0
  141.5650  157.5820  133.2340 C   0  0  0  0  0  0  0  0  0  0  0  0
  141.3430  156.2250  133.3070 C   0  0  0  0  0  0  0  0  0  0  0  0
  140.1630  155.5000  133.1580 C   0  0  0  0  0  0  0  0  0  0  0  0
  140.2210  154.1060  133.3320 C   0  0  0  0  0  0  0  0  0  0  0  0
  141.4460  153.4680  133.6600 C   0  0  0  0  0  0  0  0  0  0  0  0
  141.4930  151.9760  133.8710 C   0  0  0  0  0  0  0  0  0  0  0  0
  141.2290  151.1960  132.5640 C   0  0  0  0  0  0  0  0  0  0  0  0
  139.7230  151.1270  132.2450 C   0  0  0  0  0  0  0  0  0  0  0  0
  139.4580  150.2990  130.9800 C   0  0  0  0  0  0  0  0  0  0  0  0
  140.1130  148.9870  131.0750 N   0  0  0  0  0  0  0  0  0  0  0  0
  139.4770  147.8140  130.5310 C   0  0  0  0  0  0  0  0  0  0  0  0
  138.3510  147.8960  129.9680 O   0  0  0  0  0  0  0  0  0  0  0  0
  140.0900  146.5710  130.6290 O   0  0  0  0  0  0  0  0  0  0  0  0
  141.5410  148.9550  131.4160 C   0  0  0  0  0  0  0  0  0  0  0  0
  141.8060  149.7730  132.6830 C   0  0  0  0  0  0  0  0  0  0  0  0
  142.6260  154.2350  133.7850 C   0  0  0  0  0  0  0  0  0  0  0  0
  142.5400  155.6170  133.5920 C   0  0  0  0  0  0  0  0  0  0  0  0
  146.4433  154.4013  132.9472 H   0  0  0  0  0  0  0  0  0  0  0  0
  145.3784  154.9461  131.6071 H   0  0  0  0  0  0  0  0  0  0  0  0
  147.1194  155.3881  131.6071 H   0  0  0  0  0  0  0  0  0  0  0  0
  145.5230  157.1170  132.2900 H   0  0  0  0  0  0  0  0  0  0  0  0
  147.0308  157.9043  131.6385 H   0  0  0  0  0  0  0  0  0  0  0  0
  147.0724  159.9635  132.8094 H   0  0  0  0  0  0  0  0  0  0  0  0
  147.9110  159.2998  134.1957 H   0  0  0  0  0  0  0  0  0  0  0  0
  148.9963  160.3130  131.5663 H   0  0  0  0  0  0  0  0  0  0  0  0
  149.7657  160.3350  133.1865 H   0  0  0  0  0  0  0  0  0  0  0  0
  149.1279  156.8776  131.3163 H   0  0  0  0  0  0  0  0  0  0  0  0
  149.4514  156.8275  133.0836 H   0  0  0  0  0  0  0  0  0  0  0  0
  145.5420  158.3850  132.6810 H   0  0  0  0  0  0  0  0  0  0  0  0
  140.8292  158.3703  133.0166 H   0  0  0  0  0  0  0  0  0  0  0  0
  139.2157  156.0022  132.9120 H   0  0  0  0  0  0  0  0  0  0  0  0
  139.3082  153.5039  133.2128 H   0  0  0  0  0  0  0  0  0  0  0  0
  142.4880  151.7028  134.2524 H   0  0  0  0  0  0  0  0  0  0  0  0
  140.7036  151.7103  134.5895 H   0  0  0  0  0  0  0  0  0  0  0  0
  141.7256  151.7294  131.7401 H   0  0  0  0  0  0  0  0  0  0  0  0
  139.1980  150.6634  133.0932 H   0  0  0  0  0  0  0  0  0  0  0  0
  139.3574  152.1501  132.0731 H   0  0  0  0  0  0  0  0  0  0  0  0
  138.3738  150.1543  130.8630 H   0  0  0  0  0  0  0  0  0  0  0  0
  139.8656  150.8372  130.1116 H   0  0  0  0  0  0  0  0  0  0  0  0
  141.8497  147.9130  131.5862 H   0  0  0  0  0  0  0  0  0  0  0  0
  142.1161  149.3887  130.5846 H   0  0  0  0  0  0  0  0  0  0  0  0
  141.3373  149.2673  133.5401 H   0  0  0  0  0  0  0  0  0  0  0  0
  142.8942  149.8512  132.8233 H   0  0  0  0  0  0  0  0  0  0  0  0
  143.5868  153.7575  134.0277 H   0  0  0  0  0  0  0  0  0  0  0  0
  1  2  1  0
  2  3  1  0
  3  4  1  0
  4  5  1  0
  5  6  1  0
  6  7  1  0
  7  8  1  0
  2  9  1  0
  9 10  2  0
  9 11  1  0
 11 12  1  0
 12 13  1  0
 13 14  1  0
 13 15  2  0
 12 16  2  0
 16 17  1  0
 17 18  2  0
 18 19  1  0
 19 20  2  0
 20 21  1  0
 21 22  1  0
 22 23  1  0
 23 24  1  0
 24 25  1  0
 25 26  1  0
 26 27  2  0
 26 28  1  0
 25 29  1  0
 29 30  1  0
 20 31  1  0
 31 32  2  0
  8  4  1  0
 32 11  1  0
 32 17  1  0
 30 22  1  0
  1 33  1  0
  1 34  1  0
  1 35  1  0
  2 36  1  6
  4 37  1  6
  5 38  1  0
  5 39  1  0
  6 40  1  0
  6 41  1  0
  8 42  1  0
  8 43  1  0
 14 44  1  0
 16 45  1  0
 18 46  1  0
 19 47  1  0
 21 48  1  0
 21 49  1  0
 22 50  1  0
 23 51  1  0
 23 52  1  0
 24 53  1  0
 24 54  1  0
 29 55  1  0
 29 56  1  0
 30 57  1  0
 30 58  1  0
 31 59  1  0
M  CHG  3   2   1  14  -1  28  -1
M  END
>  <UniqueID>  (34) 
34

>  <SMILES>  (34) 
C[N@H+](O[C@H]1CCOC1)C(=O)n1c(C([NH-])=O)cc2ccc(CC3CCN(C(=O)[O-])CC3)cc21

>  <Energy>  (34) 
112.1325617611902

>  <Genealogy>  (34) 
C[NH+](OC1CCOC1)C(=O)n1c(C([NH-])=O)cc2ccc(CC3CCN(C(=O)[O-])CC3)cc21 (protonated)
C[N@H+](O[C@H]1CCOC1)C(=O)n1c(C([NH-])=O)cc2ccc(CC3CCN(C(=O)[O-])CC3)cc21 (chirality)
C[N@H+](O[C@H]1CCOC1)C(=O)n1c(C([NH-])=O)cc2ccc(CC3CCN(C(=O)[O-])CC3)cc21 (3D coordinates assigned)
C[N@H+](O[C@H]1CCOC1)C(=O)n1c(C([NH-])=O)cc2ccc(CC3CCN(C(=O)[O-])CC3)cc21 (nonaromatic ring conformer: 112.1325617611902 kcal/mol)

>  <smiles>  (34) 
CN(OC1CCOC1)C(=O)n1c(C(N)=O)cc2ccc(CC3CCN(C(=O)O)CC3)cc21

>  <score_type>  (34) 
oracle

>  <origin>  (34) 
adg

>  <m_score__min__energy>  (34) 
-9.1400000000000006

>  <m_primary>  (34) 
energy

$$$$
34:0
     RDKit          3D

 34 36  0  0  0  0  0  0  0  0999 V2000
  140.4050  159.2290  136.3820 N   0  0  0  0  0  0  0  0  0  0  0  0
  140.6210  158.8230  135.0320 C   0  0  0  0  0  0  0  0  0  0  0  0
  139.6300  158.6510  134.2740 O   0  0  0  0  0  0  0  0  0  0  0  0
  141.9830  158.5450  134.5310 C   0  0  0  0  0  0  0  0  0  0  0  0
  142.5790  157.2880  134.5930 C   0  0  0  0  0  0  0  0  0  0  0  0
  143.8580  157.4680  134.1170 C   0  0  0  0  0  0  0  0  0  0  0  0
  144.8840  156.5500  133.9530 C   0  0  0  0  0  0  0  0  0  0  0  0
  146.0980  157.0040  133.4130 C   0  0  0  0  0  0  0  0  0  0  0  0
  146.2780  158.3680  133.0280 C   0  0  0  0  0  0  0  0  0  0  0  0
  147.5420  158.8280  132.4560 N   0  0  0  0  0  0  0  0  0  0  0  0
  147.5950  160.1440  131.7830 C   0  0  0  0  0  0  0  0  0  0  0  0
  148.9950  160.5290  131.2980 C   0  0  0  0  0  0  0  0  0  0  0  0
  149.6790  159.4080  130.7920 O   0  0  0  0  0  0  0  0  0  0  0  0
  149.9750  158.5480  131.8650 C   0  0  0  0  0  0  0  0  0  0  0  0
  148.7010  157.9100  132.4260 C   0  0  0  0  0  0  0  0  0  0  0  0
  145.1910  159.2670  133.2240 C   0  0  0  0  0  0  0  0  0  0  0  0
  144.0010  158.7860  133.7830 C   0  0  0  0  0  0  0  0  0  0  0  0
  142.8560  159.4630  134.0290 N   0  0  0  0  0  0  0  0  0  0  0  0
  142.5970  160.8440  133.7240 C   0  0  0  0  0  0  0  0  0  0  0  0
  141.4280  161.2280  133.4550 O   0  0  0  0  0  0  0  0  0  0  0  0
  143.6310  161.7720  133.7480 O   0  0  0  0  0  0  0  0  0  0  0  0
  139.4890  159.0590  136.8530 H   0  0  0  0  0  0  0  0  0  0  0  0
  142.1245  156.3509  134.9469 H   0  0  0  0  0  0  0  0  0  0  0  0
  144.7507  155.4959  134.2379 H   0  0  0  0  0  0  0  0  0  0  0  0
  146.9283  156.2942  133.2836 H   0  0  0  0  0  0  0  0  0  0  0  0
  146.9211  160.1174  130.9140 H   0  0  0  0  0  0  0  0  0  0  0  0
  147.2922  160.8978  132.5247 H   0  0  0  0  0  0  0  0  0  0  0  0
  148.9054  161.2846  130.5036 H   0  0  0  0  0  0  0  0  0  0  0  0
  149.5629  160.9312  132.1499 H   0  0  0  0  0  0  0  0  0  0  0  0
  150.6501  157.7538  131.5135 H   0  0  0  0  0  0  0  0  0  0  0  0
  150.4527  159.1355  132.6629 H   0  0  0  0  0  0  0  0  0  0  0  0
  148.4418  157.0432  131.8003 H   0  0  0  0  0  0  0  0  0  0  0  0
  148.9143  157.6262  133.4671 H   0  0  0  0  0  0  0  0  0  0  0  0
  145.2852  160.3255  132.9399 H   0  0  0  0  0  0  0  0  0  0  0  0
  1  2  1  0
  2  3  2  0
  2  4  1  0
  4  5  2  0
  5  6  1  0
  6  7  2  0
  7  8  1  0
  8  9  2  0
  9 10  1  0
 10 11  1  0
 11 12  1  0
 12 13  1  0
 13 14  1  0
 14 15  1  0
  9 16  1  0
 16 17  2  0
 17 18  1  0
 18 19  1  0
 19 20  2  0
 19 21  1  0
 18  4  1  0
 17  6  1  0
 15 10  1  0
  1 22  1  0
  5 23  1  0
  7 24  1  0
  8 25  1  0
 11 26  1  0
 11 27  1  0
 12 28  1  0
 12 29  1  0
 14 30  1  0
 14 31  1  0
 15 32  1  0
 15 33  1  0
 16 34  1  0
M  CHG  2   1  -1  21  -1
M  END
>  <UniqueID>  (35) 
35

>  <SMILES>  (35) 
[NH-]C(=O)c1cc2ccc(N3CCOCC3)cc2n1C(=O)[O-]

>  <Energy>  (35) 
83.43233251004422

>  <Genealogy>  (35) 
[NH-]C(=O)c1cc2ccc(N3CCOCC3)cc2n1C(=O)[O-] (protonated)
[NH-]C(=O)c1cc2ccc(N3CCOCC3)cc2n1C(=O)[O-] (3D coordinates assigned)
[NH-]C(=O)c1cc2ccc(N3CCOCC3)cc2n1C(=O)[O-] (nonaromatic ring conformer: 83.43233251004422 kcal/mol)

>  <smiles>  (35) 
NC(=O)c1cc2ccc(N3CCOCC3)cc2n1C(=O)O

>  <score_type>  (35) 
oracle

>  <origin>  (35) 
adg

>  <m_score__min__energy>  (35) 
-6.6399999999999997

>  <m_primary>  (35) 
energy

$$$$
35:0
     RDKit          3D

 37 38  0  0  0  0  0  0  0  0999 V2000
  141.3510  158.5530  137.4930 C   0  0  0  0  0  0  0  0  0  0  0  0
  140.7960  159.2460  136.3820 O   0  0  0  0  0  0  0  0  0  0  0  0
  140.0110  158.6120  135.4150 C   0  0  0  0  0  0  0  0  0  0  0  0
  138.8780  158.1420  135.7120 O   0  0  0  0  0  0  0  0  0  0  0  0
  140.4990  158.5370  134.0050 C   0  0  0  0  0  0  0  0  0  0  0  0
  141.9000  159.0760  133.9180 C   0  0  0  0  0  0  0  0  0  0  0  0
  142.1200  160.4740  133.8350 C   0  0  0  0  0  0  0  0  0  0  0  0
  143.4230  160.9870  133.7330 C   0  0  0  0  0  0  0  0  0  0  0  0
  144.4800  160.0820  133.6940 C   0  0  0  0  0  0  0  0  0  0  0  0
  145.8360  160.3090  133.6230 C   0  0  0  0  0  0  0  0  0  0  0  0
  146.4200  159.0450  133.6180 C   0  0  0  0  0  0  0  0  0  0  0  0
  147.8730  158.8210  133.4800 C   0  0  0  0  0  0  0  0  0  0  0  0
  148.4760  157.5940  133.8950 N   0  0  0  0  0  0  0  0  0  0  0  0
  148.5860  159.7050  132.9340 O   0  0  0  0  0  0  0  0  0  0  0  0
  145.4670  158.0740  133.6980 N   0  0  0  0  0  0  0  0  0  0  0  0
  145.6700  156.6570  133.8210 C   0  0  0  0  0  0  0  0  0  0  0  0
  146.2980  156.0320  132.9230 O   0  0  0  0  0  0  0  0  0  0  0  0
  145.1680  155.9760  134.9360 O   0  0  0  0  0  0  0  0  0  0  0  0
  145.4400  154.6020  135.2010 C   0  0  0  0  0  0  0  0  0  0  0  0
  146.7570  154.4590  135.8950 C   0  0  0  0  0  0  0  0  0  0  0  0
  147.6610  155.3190  135.7260 O   0  0  0  0  0  0  0  0  0  0  0  0
  146.9910  153.3660  136.7180 O   0  0  0  0  0  0  0  0  0  0  0  0
  144.2830  158.7250  133.7410 C   0  0  0  0  0  0  0  0  0  0  0  0
  142.9970  158.1870  133.8680 C   0  0  0  0  0  0  0  0  0  0  0  0
  140.9877  159.0067  138.4269 H   0  0  0  0  0  0  0  0  0  0  0  0
  141.0463  157.4967  137.4557 H   0  0  0  0  0  0  0  0  0  0  0  0
  142.4483  158.6196  137.4557 H   0  0  0  0  0  0  0  0  0  0  0  0
  140.4903  157.4888  133.6715 H   0  0  0  0  0  0  0  0  0  0  0  0
  139.8396  159.1379  133.3615 H   0  0  0  0  0  0  0  0  0  0  0  0
  141.2625  161.1628  133.8507 H   0  0  0  0  0  0  0  0  0  0  0  0
  143.6031  162.0711  133.6854 H   0  0  0  0  0  0  0  0  0  0  0  0
  146.3486  161.2813  133.5795 H   0  0  0  0  0  0  0  0  0  0  0  0
  149.5100  157.4690  133.8250 H   0  0  0  0  0  0  0  0  0  0  0  0
  147.8930  156.7790  134.1870 H   0  0  0  0  0  0  0  0  0  0  0  0
  144.6456  154.1917  135.8417 H   0  0  0  0  0  0  0  0  0  0  0  0
  145.4759  154.0537  134.2481 H   0  0  0  0  0  0  0  0  0  0  0  0
  142.8443  157.0993  133.9274 H   0  0  0  0  0  0  0  0  0  0  0  0
  1  2  1  0
  2  3  1  0
  3  4  2  0
  3  5  1  0
  5  6  1  0
  6  7  2  0
  7  8  1  0
  8  9  2  0
  9 10  1  0
 10 11  2  0
 11 12  1  0
 12 13  1  0
 12 14  2  0
 11 15  1  0
 15 16  1  0
 16 17  2  0
 16 18  1  0
 18 19  1  0
 19 20  1  0
 20 21  2  0
 20 22  1  0
 15 23  1  0
 23 24  2  0
 24  6  1  0
 23  9  1  0
  1 25  1  0
  1 26  1  0
  1 27  1  0
  5 28  1  0
  5 29  1  0
  7 30  1  0
  8 31  1  0
 10 32  1  0
 13 33  1  0
 13 34  1  0
 19 35  1  0
 19 36  1  0
 24 37  1  0
M  CHG  1  22  -1
M  END
>  <UniqueID>  (36) 
36

>  <SMILES>  (36) 
COC(=O)Cc1ccc2cc(C(N)=O)n(C(=O)OCC(=O)[O-])c2c1

>  <Energy>  (36) 
69.97954337401694

>  <Genealogy>  (36) 
COC(=O)Cc1ccc2cc(C(N)=O)n(C(=O)OCC(=O)[O-])c2c1 (protonated)
COC(=O)Cc1ccc2cc(C(N)=O)n(C(=O)OCC(=O)[O-])c2c1 (3D coordinates assigned)
COC(=O)Cc1ccc2cc(C(N)=O)n(C(=O)OCC(=O)[O-])c2c1 (optimized conformer: 69.97954337401694 kcal/mol)

>  <smiles>  (36) 
COC(=O)Cc1ccc2cc(C(N)=O)n(C(=O)OCC(=O)O)c2c1

>  <score_type>  (36) 
oracle

>  <origin>  (36) 
adg

>  <m_score__min__energy>  (36) 
-6.3499999999999996

>  <m_primary>  (36) 
energy

$$$$
36:0
     RDKit          3D

 55 57  0  0  0  0  0  0  0  0999 V2000
  137.2720  160.1090  130.7300 C   0  0  0  0  0  0  0  0  0  0  0  0
  138.6660  159.6440  130.3430 C   0  0  0  0  0  0  0  0  0  0  0  0
  139.4890  159.6030  131.5060 O   0  0  0  0  0  0  0  0  0  0  0  0
  139.2450  158.7320  132.5710 C   0  0  0  0  0  0  0  0  0  0  0  0
  138.1020  158.2250  132.7430 O   0  0  0  0  0  0  0  0  0  0  0  0
  140.3740  158.3540  133.4820 C   0  0  0  0  0  0  0  0  0  0  0  0
  141.7020  158.9030  133.1500 N   0  0  0  0  0  0  0  0  0  0  0  0
  142.8720  158.9940  133.9900 C   0  0  0  0  0  0  0  0  0  0  0  0
  142.9210  158.4130  135.1040 O   0  0  0  0  0  0  0  0  0  0  0  0
  144.0320  159.8500  133.5600 C   0  0  0  0  0  0  0  0  0  0  0  0
  145.2770  159.0250  133.3660 C   0  0  0  0  0  0  0  0  0  0  0  0
  146.5050  159.6590  133.0460 C   0  0  0  0  0  0  0  0  0  0  0  0
  147.6790  158.9040  132.8870 C   0  0  0  0  0  0  0  0  0  0  0  0
  147.5950  157.5240  133.0530 C   0  0  0  0  0  0  0  0  0  0  0  0
  148.5780  156.5640  132.9800 C   0  0  0  0  0  0  0  0  0  0  0  0
  147.9350  155.3550  133.2430 C   0  0  0  0  0  0  0  0  0  0  0  0
  148.6140  154.0440  133.1810 C   0  0  0  0  0  0  0  0  0  0  0  0
  148.1870  152.9830  134.0340 N   0  0  0  0  0  0  0  0  0  0  0  0
  149.5930  153.8610  132.4080 O   0  0  0  0  0  0  0  0  0  0  0  0
  146.6060  155.5600  133.4780 N   0  0  0  0  0  0  0  0  0  0  0  0
  145.6220  154.5840  133.8600 C   0  0  0  0  0  0  0  0  0  0  0  0
  145.4800  153.5320  133.1790 O   0  0  0  0  0  0  0  0  0  0  0  0
  144.8160  154.8140  134.9780 O   0  0  0  0  0  0  0  0  0  0  0  0
  145.1220  154.3310  136.2850 C   0  0  0  0  0  0  0  0  0  0  0  0
  146.6320  154.3280  136.5270 C   0  0  0  0  0  0  0  0  0  0  0  0
  147.0700  153.0010  136.7320 O   0  0  0  0  0  0  0  0  0  0  0  0
  148.4150  153.0130  137.1570 C   0  0  0  0  0  0  0  0  0  0  0  0
  146.4140  156.8940  133.3570 C   0  0  0  0  0  0  0  0  0  0  0  0
  145.2330  157.6230  133.5450 C   0  0  0  0  0  0  0  0  0  0  0  0
  140.0110  158.1950  134.9520 C   0  0  0  0  0  0  0  0  0  0  0  0
  140.3210  156.9640  134.0950 C   0  0  0  0  0  0  0  0  0  0  0  0
  137.1862  160.1376  131.8263 H   0  0  0  0  0  0  0  0  0  0  0  0
  137.0946  161.1150  130.3219 H   0  0  0  0  0  0  0  0  0  0  0  0
  136.5262  159.4110  130.3219 H   0  0  0  0  0  0  0  0  0  0  0  0
  138.6080  158.6395  129.8984 H   0  0  0  0  0  0  0  0  0  0  0  0
  139.0973  160.3426  129.6109 H   0  0  0  0  0  0  0  0  0  0  0  0
  141.7840  159.3310  132.1980 H   0  0  0  0  0  0  0  0  0  0  0  0
  143.7792  160.3462  132.6113 H   0  0  0  0  0  0  0  0  0  0  0  0
  144.2265  160.5931  134.3474 H   0  0  0  0  0  0  0  0  0  0  0  0
  146.5383  160.7514  132.9213 H   0  0  0  0  0  0  0  0  0  0  0  0
  148.6351  159.3881  132.6390 H   0  0  0  0  0  0  0  0  0  0  0  0
  149.6449  156.7177  132.7607 H   0  0  0  0  0  0  0  0  0  0  0  0
  147.2360  152.9970  134.4690 H   0  0  0  0  0  0  0  0  0  0  0  0
  144.6392  154.9797  137.0307 H   0  0  0  0  0  0  0  0  0  0  0  0
  144.7501  153.2996  136.3741 H   0  0  0  0  0  0  0  0  0  0  0  0
  147.1451  154.7531  135.6518 H   0  0  0  0  0  0  0  0  0  0  0  0
  146.8636  154.9336  137.4156 H   0  0  0  0  0  0  0  0  0  0  0  0
  148.4521  153.0133  138.2564 H   0  0  0  0  0  0  0  0  0  0  0  0
  148.9288  152.1194  136.7730 H   0  0  0  0  0  0  0  0  0  0  0  0
  148.9128  153.9156  136.7730 H   0  0  0  0  0  0  0  0  0  0  0  0
  144.2963  157.1185  133.8244 H   0  0  0  0  0  0  0  0  0  0  0  0
  140.7177  158.5155  135.7317 H   0  0  0  0  0  0  0  0  0  0  0  0
  139.1697  158.5118  135.5859 H   0  0  0  0  0  0  0  0  0  0  0  0
  141.2504  156.3990  134.2591 H   0  0  0  0  0  0  0  0  0  0  0  0
  139.7945  156.0278  133.8576 H   0  0  0  0  0  0  0  0  0  0  0  0
  1  2  1  0
  2  3  1  0
  3  4  1  0
  4  5  2  0
  4  6  1  0
  6  7  1  0
  7  8  1  0
  8  9  2  0
  8 10  1  0
 10 11  1  0
 11 12  2  0
 12 13  1  0
 13 14  2  0
 14 15  1  0
 15 16  2  0
 16 17  1  0
 17 18  1  0
 17 19  2  0
 16 20  1  0
 20 21  1  0
 21 22  2  0
 21 23  1  0
 23 24  1  0
 24 25  1  0
 25 26  1  0
 26 27  1  0
 20 28  1  0
 28 29  2  0
  6 30  1  0
 30 31  1  0
 31  6  1  0
 29 11  1  0
 28 14  1  0
  1 32  1  0
  1 33  1  0
  1 34  1  0
  2 35  1  0
  2 36  1  0
  7 37  1  0
 10 38  1  0
 10 39  1  0
 12 40  1  0
 13 41  1  0
 15 42  1  0
 18 43  1  0
 24 44  1  0
 24 45  1  0
 25 46  1  0
 25 47  1  0
 27 48  1  0
 27 49  1  0
 27 50  1  0
 29 51  1  0
 30 52  1  0
 30 53  1  0
 31 54  1  0
 31 55  1  0
M  CHG  1  18  -1
M  END
>  <UniqueID>  (37) 
37

>  <SMILES>  (37) 
CCOC(=O)C1(NC(=O)Cc2ccc3cc(C([NH-])=O)n(C(=O)OCCOC)c3c2)CC1

>  <Energy>  (37) 
358.5924031766429

>  <Genealogy>  (37) 
CCOC(=O)C1(NC(=O)Cc2ccc3cc(C([NH-])=O)n(C(=O)OCCOC)c3c2)CC1 (protonated)
CCOC(=O)C1(NC(=O)Cc2ccc3cc(C([NH-])=O)n(C(=O)OCCOC)c3c2)CC1 (3D coordinates assigned)
CCOC(=O)C1(NC(=O)Cc2ccc3cc(C([NH-])=O)n(C(=O)OCCOC)c3c2)CC1 (nonaromatic ring conformer: 358.5924031766429 kcal/mol)

>  <smiles>  (37) 
CCOC(=O)C1(NC(=O)Cc2ccc3cc(C(N)=O)n(C(=O)OCCOC)c3c2)CC1

>  <score_type>  (37) 
oracle

>  <origin>  (37) 
adg

>  <m_score__min__energy>  (37) 
-8.4100000000000001

>  <m_primary>  (37) 
energy

$$$$
37:0
     RDKit          3D

 59 61  0  0  0  0  0  0  0  0999 V2000
  139.7130  158.2350  135.6020 C   0  0  0  0  0  0  0  0  0  0  0  0
  140.9210  158.3050  135.0350 C   0  0  0  0  0  0  0  0  0  0  0  0
  142.1260  157.7690  135.7280 C   0  0  0  0  0  0  0  0  0  0  0  0
  143.0100  157.1930  134.7660 O   0  0  0  0  0  0  0  0  0  0  0  0
  143.4190  157.8640  133.6060 C   0  0  0  0  0  0  0  0  0  0  0  0
  142.6620  157.8920  132.5960 O   0  0  0  0  0  0  0  0  0  0  0  0
  144.7100  158.4990  133.5540 N   0  0  0  0  0  0  0  0  0  0  0  0
  144.9670  159.8370  133.4940 C   0  0  0  0  0  0  0  0  0  0  0  0
  143.9810  160.9190  133.6800 C   0  0  0  0  0  0  0  0  0  0  0  0
  142.6060  160.6990  133.3470 N   0  0  0  0  0  0  0  0  0  0  0  0
  144.3500  162.0560  134.0770 O   0  0  0  0  0  0  0  0  0  0  0  0
  146.3290  160.0730  133.3430 C   0  0  0  0  0  0  0  0  0  0  0  0
  146.9130  158.8290  133.3320 C   0  0  0  0  0  0  0  0  0  0  0  0
  148.2570  158.4810  133.2350 C   0  0  0  0  0  0  0  0  0  0  0  0
  148.5860  157.1190  133.2740 C   0  0  0  0  0  0  0  0  0  0  0  0
  147.5770  156.1320  133.4090 C   0  0  0  0  0  0  0  0  0  0  0  0
  147.9300  154.7360  133.5000 N   0  0  0  0  0  0  0  0  0  0  0  0
  147.1960  153.8660  134.4300 C   0  0  0  0  0  0  0  0  0  0  0  0
  147.5550  154.1490  135.8590 C   0  0  0  0  0  0  0  0  0  0  0  0
  148.0950  155.2560  136.1500 O   0  0  0  0  0  0  0  0  0  0  0  0
  147.1960  153.2200  136.8620 O   0  0  0  0  0  0  0  0  0  0  0  0
  148.0950  152.5100  137.7270 C   0  0  0  0  0  0  0  0  0  0  0  0
  148.6770  153.4640  138.7820 C   0  0  0  0  0  0  0  0  0  0  0  0
  147.2780  151.4210  138.4330 C   0  0  0  0  0  0  0  0  0  0  0  0
  149.2230  151.8350  136.9260 C   0  0  0  0  0  0  0  0  0  0  0  0
  148.8450  154.1300  132.5120 C   0  0  0  0  0  0  0  0  0  0  0  0
  149.1910  152.6690  132.8740 C   0  0  0  0  0  0  0  0  0  0  0  0
  148.2760  151.6020  132.2900 C   0  0  0  0  0  0  0  0  0  0  0  0
  149.6730  151.7970  131.7220 C   0  0  0  0  0  0  0  0  0  0  0  0
  146.2220  156.5230  133.4850 C   0  0  0  0  0  0  0  0  0  0  0  0
  145.9180  157.8930  133.4610 C   0  0  0  0  0  0  0  0  0  0  0  0
  138.8343  158.6360  135.0756 H   0  0  0  0  0  0  0  0  0  0  0  0
  139.5973  157.7764  136.5951 H   0  0  0  0  0  0  0  0  0  0  0  0
  141.0273  158.7653  134.0416 H   0  0  0  0  0  0  0  0  0  0  0  0
  142.6398  158.5862  136.2554 H   0  0  0  0  0  0  0  0  0  0  0  0
  141.8210  157.0001  136.4531 H   0  0  0  0  0  0  0  0  0  0  0  0
  142.3350  160.0450  132.5830 H   0  0  0  0  0  0  0  0  0  0  0  0
  146.8316  161.0472  133.2518 H   0  0  0  0  0  0  0  0  0  0  0  0
  149.0363  159.2503  133.1310 H   0  0  0  0  0  0  0  0  0  0  0  0
  149.6397  156.8122  133.1990 H   0  0  0  0  0  0  0  0  0  0  0  0
  146.1168  154.0304  134.2948 H   0  0  0  0  0  0  0  0  0  0  0  0
  147.4679  152.8232  134.2093 H   0  0  0  0  0  0  0  0  0  0  0  0
  148.4451  153.0839  139.7878 H   0  0  0  0  0  0  0  0  0  0  0  0
  149.7680  153.5278  138.6566 H   0  0  0  0  0  0  0  0  0  0  0  0
  148.2345  154.4632  138.6566 H   0  0  0  0  0  0  0  0  0  0  0  0
  147.3692  151.5425  139.5225 H   0  0  0  0  0  0  0  0  0  0  0  0
  146.2210  151.5087  138.1415 H   0  0  0  0  0  0  0  0  0  0  0  0
  147.6578  150.4307  138.1415 H   0  0  0  0  0  0  0  0  0  0  0  0
  149.9548  151.3971  137.6208 H   0  0  0  0  0  0  0  0  0  0  0  0
  148.7990  151.0421  136.2924 H   0  0  0  0  0  0  0  0  0  0  0  0
  149.7213  152.5835  136.2924 H   0  0  0  0  0  0  0  0  0  0  0  0
  148.3639  154.1478  131.5229 H   0  0  0  0  0  0  0  0  0  0  0  0
  149.7784  154.7121  132.5072 H   0  0  0  0  0  0  0  0  0  0  0  0
  149.5636  152.9089  133.8808 H   0  0  0  0  0  0  0  0  0  0  0  0
  148.0408  150.6998  132.8738 H   0  0  0  0  0  0  0  0  0  0  0  0
  147.2597  151.5949  131.8691 H   0  0  0  0  0  0  0  0  0  0  0  0
  150.4483  151.0361  131.8952 H   0  0  0  0  0  0  0  0  0  0  0  0
  150.0856  151.9895  130.7206 H   0  0  0  0  0  0  0  0  0  0  0  0
  145.4230  155.7708  133.5613 H   0  0  0  0  0  0  0  0  0  0  0  0
  1  2  2  0
  2  3  1  0
  3  4  1  0
  4  5  1  0
  5  6  2  0
  5  7  1  0
  7  8  1  0
  8  9  1  0
  9 10  1  0
  9 11  2  0
  8 12  2  0
 12 13  1  0
 13 14  2  0
 14 15  1  0
 15 16  2  0
 16 17  1  0
 17 18  1  0
 18 19  1  0
 19 20  2  0
 19 21  1  0
 21 22  1  0
 22 23  1  0
 22 24  1  0
 22 25  1  0
 17 26  1  0
 26 27  1  0
 27 28  1  0
 28 29  1  0
 16 30  1  0
 30 31  2  0
 31  7  1  0
 31 13  1  0
 29 27  1  0
  1 32  1  0
  1 33  1  0
  2 34  1  0
  3 35  1  0
  3 36  1  0
 10 37  1  0
 12 38  1  0
 14 39  1  0
 15 40  1  0
 18 41  1  0
 18 42  1  0
 23 43  1  0
 23 44  1  0
 23 45  1  0
 24 46  1  0
 24 47  1  0
 24 48  1  0
 25 49  1  0
 25 50  1  0
 25 51  1  0
 26 52  1  0
 26 53  1  0
 27 54  1  0
 28 55  1  0
 28 56  1  0
 29 57  1  0
 29 58  1  0
 30 59  1  0
M  CHG  1  10  -1
M  END
>  <UniqueID>  (38) 
38

>  <SMILES>  (38) 
C=CCOC(=O)n1c(C([NH-])=O)cc2ccc(N(CC(=O)OC(C)(C)C)CC3CC3)cc21

>  <Energy>  (38) 
353.0235393619979

>  <Genealogy>  (38) 
C=CCOC(=O)n1c(C([NH-])=O)cc2ccc(N(CC(=O)OC(C)(C)C)CC3CC3)cc21 (protonated)
C=CCOC(=O)n1c(C([NH-])=O)cc2ccc(N(CC(=O)OC(C)(C)C)CC3CC3)cc21 (3D coordinates assigned)
C=CCOC(=O)n1c(C([NH-])=O)cc2ccc(N(CC(=O)OC(C)(C)C)CC3CC3)cc21 (nonaromatic ring conformer: 353.0235393619979 kcal/mol)

>  <smiles>  (38) 
C=CCOC(=O)n1c(C(N)=O)cc2ccc(N(CC(=O)OC(C)(C)C)CC3CC3)cc21

>  <score_type>  (38) 
oracle

>  <origin>  (38) 
adg

>  <m_score__min__energy>  (38) 
-8.6600000000000001

>  <m_primary>  (38) 
energy

$$$$
38:0
     RDKit          3D

 48 51  0  0  0  0  0  0  0  0999 V2000
  145.2490  154.5550  134.7930 C   0  0  0  0  0  0  0  0  0  0  0  0
  143.8810  154.7150  135.1590 O   0  0  0  0  0  0  0  0  0  0  0  0
  142.8010  154.1000  134.5030 C   0  0  0  0  0  0  0  0  0  0  0  0
  142.7370  152.7040  134.3370 C   0  0  0  0  0  0  0  0  0  0  0  0
  141.6670  152.1220  133.6610 C   0  0  0  0  0  0  0  0  0  0  0  0
  140.6410  152.9160  133.1520 C   0  0  0  0  0  0  0  0  0  0  0  0
  140.6660  154.3100  133.3220 C   0  0  0  0  0  0  0  0  0  0  0  0
  139.5300  155.1290  132.7660 C   0  0  0  0  0  0  0  0  0  0  0  0
  141.7650  154.9100  133.9890 C   0  0  0  0  0  0  0  0  0  0  0  0
  141.8500  156.3790  134.1510 C   0  0  0  0  0  0  0  0  0  0  0  0
  140.7510  157.1010  134.6770 C   0  0  0  0  0  0  0  0  0  0  0  0
  140.8180  158.4960  134.8280 C   0  0  0  0  0  0  0  0  0  0  0  0
  141.9970  159.1370  134.4540 C   0  0  0  0  0  0  0  0  0  0  0  0
  142.3200  160.4750  134.4660 C   0  0  0  0  0  0  0  0  0  0  0  0
  143.6200  160.5460  133.9710 C   0  0  0  0  0  0  0  0  0  0  0  0
  144.3910  161.8040  133.8870 C   0  0  0  0  0  0  0  0  0  0  0  0
  145.7980  161.8180  134.1120 N   0  0  0  0  0  0  0  0  0  0  0  0
  143.7910  162.8890  133.6640 O   0  0  0  0  0  0  0  0  0  0  0  0
  144.0800  159.3020  133.6580 N   0  0  0  0  0  0  0  0  0  0  0  0
  145.3230  158.9480  133.0290 C   0  0  0  0  0  0  0  0  0  0  0  0
  145.8810  159.7560  132.2380 O   0  0  0  0  0  0  0  0  0  0  0  0
  145.8860  157.6920  133.2680 O   0  0  0  0  0  0  0  0  0  0  0  0
  147.1570  157.5210  133.8860 C   0  0  0  0  0  0  0  0  0  0  0  0
  148.0690  156.6340  133.0620 C   0  0  0  0  0  0  0  0  0  0  0  0
  148.9830  157.7320  132.7430 N   0  0  0  0  0  0  0  0  0  0  0  0
  148.1310  158.6280  133.5270 C   0  0  0  0  0  0  0  0  0  0  0  0
  143.0760  158.4500  133.9640 C   0  0  0  0  0  0  0  0  0  0  0  0
  143.0320  157.0620  133.7880 C   0  0  0  0  0  0  0  0  0  0  0  0
  145.8655  154.4829  135.7011 H   0  0  0  0  0  0  0  0  0  0  0  0
  145.3644  153.6372  134.1977 H   0  0  0  0  0  0  0  0  0  0  0  0
  145.5730  155.4214  134.1977 H   0  0  0  0  0  0  0  0  0  0  0  0
  143.5372  152.0682  134.7437 H   0  0  0  0  0  0  0  0  0  0  0  0
  141.6318  151.0306  133.5283 H   0  0  0  0  0  0  0  0  0  0  0  0
  139.8048  152.4471  132.6127 H   0  0  0  0  0  0  0  0  0  0  0  0
  138.9431  155.5521  133.5946 H   0  0  0  0  0  0  0  0  0  0  0  0
  139.9340  155.9449  132.1488 H   0  0  0  0  0  0  0  0  0  0  0  0
  138.8835  154.4879  132.1488 H   0  0  0  0  0  0  0  0  0  0  0  0
  139.8365  156.5645  134.9700 H   0  0  0  0  0  0  0  0  0  0  0  0
  139.9660  159.0646  135.2291 H   0  0  0  0  0  0  0  0  0  0  0  0
  141.6859  161.3109  134.7965 H   0  0  0  0  0  0  0  0  0  0  0  0
  146.4640  161.5290  133.3620 H   0  0  0  0  0  0  0  0  0  0  0  0
  146.8583  157.2958  134.9204 H   0  0  0  0  0  0  0  0  0  0  0  0
  148.5400  155.8297  133.6462 H   0  0  0  0  0  0  0  0  0  0  0  0
  147.6344  156.0517  132.2362 H   0  0  0  0  0  0  0  0  0  0  0  0
  149.8770  157.5830  133.2670 H   0  0  0  0  0  0  0  0  0  0  0  0
  148.6402  159.0620  134.4001 H   0  0  0  0  0  0  0  0  0  0  0  0
  147.7427  159.5402  133.0503 H   0  0  0  0  0  0  0  0  0  0  0  0
  143.8952  156.5174  133.3778 H   0  0  0  0  0  0  0  0  0  0  0  0
  1  2  1  0
  2  3  1  0
  3  4  2  0
  4  5  1  0
  5  6  2  0
  6  7  1  0
  7  8  1  0
  7  9  2  0
  9 10  1  0
 10 11  2  0
 11 12  1  0
 12 13  2  0
 13 14  1  0
 14 15  2  0
 15 16  1  0
 16 17  1  0
 16 18  2  0
 15 19  1  0
 19 20  1  0
 20 21  2  0
 20 22  1  0
 22 23  1  0
 23 24  1  0
 24 25  1  0
 25 26  1  0
 19 27  1  0
 27 28  2  0
  9  3  1  0
 28 10  1  0
 27 13  1  0
 26 23  1  0
  1 29  1  0
  1 30  1  0
  1 31  1  0
  4 32  1  0
  5 33  1  0
  6 34  1  0
  8 35  1  0
  8 36  1  0
  8 37  1  0
 11 38  1  0
 12 39  1  0
 14 40  1  0
 17 41  1  0
 23 42  1  0
 24 43  1  0
 24 44  1  0
 25 45  1  0
 26 46  1  0
 26 47  1  0
 28 48  1  0
M  CHG  1  17  -1
M  END
>  <UniqueID>  (39) 
39

>  <SMILES>  (39) 
COc1cccc(C)c1-c1ccc2cc(C([NH-])=O)n(C(=O)OC3CNC3)c2c1

>  <Energy>  (39) 
161.47036717673322

>  <Genealogy>  (39) 
COc1cccc(C)c1-c1ccc2cc(C([NH-])=O)n(C(=O)OC3CNC3)c2c1 (protonated)
COc1cccc(C)c1-c1ccc2cc(C([NH-])=O)n(C(=O)OC3CNC3)c2c1 (3D coordinates assigned)
COc1cccc(C)c1-c1ccc2cc(C([NH-])=O)n(C(=O)OC3CNC3)c2c1 (nonaromatic ring conformer: 161.47036717673322 kcal/mol)

>  <smiles>  (39) 
COc1cccc(C)c1-c1ccc2cc(C(N)=O)n(C(=O)OC3CNC3)c2c1

>  <score_type>  (39) 
oracle

>  <origin>  (39) 
adg

>  <m_score__min__energy>  (39) 
-8.7899999999999991

>  <m_primary>  (39) 
energy

$$$$
39:0
     RDKit          3D

 31 32  0  0  0  0  0  0  0  0999 V2000
  139.4780  146.3220  129.9800 C   0  0  0  0  0  0  0  0  0  0  0  0
  138.3830  147.2220  129.8670 O   0  0  0  0  0  0  0  0  0  0  0  0
  138.5100  148.5950  130.0900 C   0  0  0  0  0  0  0  0  0  0  0  0
  138.6920  149.3910  129.1280 O   0  0  0  0  0  0  0  0  0  0  0  0
  138.4820  149.1180  131.4900 C   0  0  0  0  0  0  0  0  0  0  0  0
  139.8190  149.7030  131.8470 C   0  0  0  0  0  0  0  0  0  0  0  0
  140.9660  148.8730  131.9020 C   0  0  0  0  0  0  0  0  0  0  0  0
  142.2120  149.3980  132.2820 C   0  0  0  0  0  0  0  0  0  0  0  0
  142.2810  150.7520  132.5970 C   0  0  0  0  0  0  0  0  0  0  0  0
  143.3490  151.5040  133.0310 C   0  0  0  0  0  0  0  0  0  0  0  0
  142.8420  152.7870  133.2170 C   0  0  0  0  0  0  0  0  0  0  0  0
  143.6750  153.9360  133.6220 C   0  0  0  0  0  0  0  0  0  0  0  0
  143.5110  155.2190  133.0160 N   0  0  0  0  0  0  0  0  0  0  0  0
  144.5870  153.7690  134.4750 O   0  0  0  0  0  0  0  0  0  0  0  0
  141.5110  152.8280  132.9260 N   0  0  0  0  0  0  0  0  0  0  0  0
  140.6140  153.9370  133.1130 C   0  0  0  0  0  0  0  0  0  0  0  0
  139.3710  153.7820  132.9820 O   0  0  0  0  0  0  0  0  0  0  0  0
  141.1100  155.1910  133.4470 O   0  0  0  0  0  0  0  0  0  0  0  0
  141.1830  151.5740  132.5430 C   0  0  0  0  0  0  0  0  0  0  0  0
  139.9240  151.0700  132.1890 C   0  0  0  0  0  0  0  0  0  0  0  0
  139.6967  146.1423  131.0429 H   0  0  0  0  0  0  0  0  0  0  0  0
  139.2219  145.3699  129.4922 H   0  0  0  0  0  0  0  0  0  0  0  0
  140.3625  146.7576  129.4922 H   0  0  0  0  0  0  0  0  0  0  0  0
  137.7098  149.8971  131.5724 H   0  0  0  0  0  0  0  0  0  0  0  0
  138.2537  148.2919  132.1795 H   0  0  0  0  0  0  0  0  0  0  0  0
  140.8798  147.8070  131.6445 H   0  0  0  0  0  0  0  0  0  0  0  0
  143.1059  148.7587  132.3292 H   0  0  0  0  0  0  0  0  0  0  0  0
  144.3821  151.1639  133.1956 H   0  0  0  0  0  0  0  0  0  0  0  0
  144.0840  156.0290  133.3400 H   0  0  0  0  0  0  0  0  0  0  0  0
  142.8800  155.3490  132.1940 H   0  0  0  0  0  0  0  0  0  0  0  0
  139.0388  151.7230  132.1777 H   0  0  0  0  0  0  0  0  0  0  0  0
  1  2  1  0
  2  3  1  0
  3  4  2  0
  3  5  1  0
  5  6  1  0
  6  7  2  0
  7  8  1  0
  8  9  2  0
  9 10  1  0
 10 11  2  0
 11 12  1  0
 12 13  1  0
 12 14  2  0
 11 15  1  0
 15 16  1  0
 16 17  2  0
 16 18  1  0
 15 19  1  0
 19 20  2  0
 20  6  1  0
 19  9  1  0
  1 21  1  0
  1 22  1  0
  1 23  1  0
  5 24  1  0
  5 25  1  0
  7 26  1  0
  8 27  1  0
 10 28  1  0
 13 29  1  0
 13 30  1  0
 20 31  1  0
M  CHG  1  18  -1
M  END
>  <UniqueID>  (40) 
40

>  <SMILES>  (40) 
COC(=O)Cc1ccc2cc(C(N)=O)n(C(=O)[O-])c2c1

>  <Energy>  (40) 
67.1244832392471

>  <Genealogy>  (40) 
COC(=O)Cc1ccc2cc(C(N)=O)n(C(=O)[O-])c2c1 (protonated)
COC(=O)Cc1ccc2cc(C(N)=O)n(C(=O)[O-])c2c1 (3D coordinates assigned)
COC(=O)Cc1ccc2cc(C(N)=O)n(C(=O)[O-])c2c1 (optimized conformer: 67.1244832392471 kcal/mol)

>  <smiles>  (40) 
COC(=O)Cc1ccc2cc(C(N)=O)n(C(=O)O)c2c1

>  <score_type>  (40) 
oracle

>  <origin>  (40) 
adg

>  <m_score__min__energy>  (40) 
-6.1600000000000001

>  <m_primary>  (40) 
energy

$$$$
40:0
     RDKit          3D

 24 25  0  0  0  0  0  0  0  0999 V2000
  141.4420  161.0040  133.7170 N   0  0  0  0  0  0  0  0  0  0  0  0
  142.2530  160.1120  134.4740 C   0  0  0  0  0  0  0  0  0  0  0  0
  141.8310  159.6860  135.5830 O   0  0  0  0  0  0  0  0  0  0  0  0
  143.6010  159.7250  134.0080 C   0  0  0  0  0  0  0  0  0  0  0  0
  143.9500  158.4170  133.6810 C   0  0  0  0  0  0  0  0  0  0  0  0
  145.2930  158.4600  133.3880 C   0  0  0  0  0  0  0  0  0  0  0  0
  146.1570  157.4410  132.9960 C   0  0  0  0  0  0  0  0  0  0  0  0
  147.4950  157.7770  132.7320 C   0  0  0  0  0  0  0  0  0  0  0  0
  147.9380  159.1170  132.8450 C   0  0  0  0  0  0  0  0  0  0  0  0
  149.3750  159.4590  132.5850 C   0  0  0  0  0  0  0  0  0  0  0  0
  149.9660  158.4430  131.8590 F   0  0  0  0  0  0  0  0  0  0  0  0
  147.0370  160.1240  133.2590 C   0  0  0  0  0  0  0  0  0  0  0  0
  145.7130  159.7570  133.5330 C   0  0  0  0  0  0  0  0  0  0  0  0
  144.6850  160.5480  133.9120 N   0  0  0  0  0  0  0  0  0  0  0  0
  144.7260  161.9750  134.0810 C   0  0  0  0  0  0  0  0  0  0  0  0
  145.5710  162.4990  134.8520 O   0  0  0  0  0  0  0  0  0  0  0  0
  143.8160  162.7860  133.4150 O   0  0  0  0  0  0  0  0  0  0  0  0
  141.8200  161.9170  133.3760 H   0  0  0  0  0  0  0  0  0  0  0  0
  143.2912  157.5363  133.6613 H   0  0  0  0  0  0  0  0  0  0  0  0
  145.8026  156.4045  132.8961 H   0  0  0  0  0  0  0  0  0  0  0  0
  148.2054  156.9916  132.4346 H   0  0  0  0  0  0  0  0  0  0  0  0
  149.4311  160.3979  132.0146 H   0  0  0  0  0  0  0  0  0  0  0  0
  149.9023  159.5799  133.5428 H   0  0  0  0  0  0  0  0  0  0  0  0
  147.3665  161.1683  133.3633 H   0  0  0  0  0  0  0  0  0  0  0  0
  1  2  1  0
  2  3  2  0
  2  4  1  0
  4  5  2  0
  5  6  1  0
  6  7  2  0
  7  8  1  0
  8  9  2  0
  9 10  1  0
 10 11  1  0
  9 12  1  0
 12 13  2  0
 13 14  1  0
 14 15  1  0
 15 16  2  0
 15 17  1  0
 14  4  1  0
 13  6  1  0
  1 18  1  0
  5 19  1  0
  7 20  1  0
  8 21  1  0
 10 22  1  0
 10 23  1  0
 12 24  1  0
M  CHG  2   1  -1  17  -1
M  END
>  <UniqueID>  (41) 
41

>  <SMILES>  (41) 
[NH-]C(=O)c1cc2ccc(CF)cc2n1C(=O)[O-]

>  <Energy>  (41) 
63.83652783344413

>  <Genealogy>  (41) 
[NH-]C(=O)c1cc2ccc(CF)cc2n1C(=O)[O-] (protonated)
[NH-]C(=O)c1cc2ccc(CF)cc2n1C(=O)[O-] (3D coordinates assigned)
[NH-]C(=O)c1cc2ccc(CF)cc2n1C(=O)[O-] (optimized conformer: 63.83652783344413 kcal/mol)

>  <smiles>  (41) 
NC(=O)c1cc2ccc(CF)cc2n1C(=O)O

>  <score_type>  (41) 
oracle

>  <origin>  (41) 
adg

>  <m_score__min__energy>  (41) 
-5.21

>  <m_primary>  (41) 
energy

$$$$
41:0
     RDKit          3D

 25 26  0  0  0  0  0  0  0  0999 V2000
  147.3730  155.4490  131.9460 N   0  0  0  0  0  0  0  0  0  0  0  0
  146.5390  155.7480  133.0680 C   0  0  0  0  0  0  0  0  0  0  0  0
  146.2640  154.8340  133.8880 O   0  0  0  0  0  0  0  0  0  0  0  0
  145.9720  157.1030  133.2470 C   0  0  0  0  0  0  0  0  0  0  0  0
  144.6160  157.3560  133.4430 C   0  0  0  0  0  0  0  0  0  0  0  0
  144.5250  158.7110  133.6640 C   0  0  0  0  0  0  0  0  0  0  0  0
  143.4070  159.5040  133.9060 C   0  0  0  0  0  0  0  0  0  0  0  0
  143.6030  160.8860  134.0700 C   0  0  0  0  0  0  0  0  0  0  0  0
  144.9030  161.4450  133.9860 C   0  0  0  0  0  0  0  0  0  0  0  0
  145.1060  162.9250  134.1460 C   0  0  0  0  0  0  0  0  0  0  0  0
  145.3850  163.2160  135.4680 F   0  0  0  0  0  0  0  0  0  0  0  0
  143.9600  163.5980  133.7620 F   0  0  0  0  0  0  0  0  0  0  0  0
  146.0130  160.6080  133.7380 C   0  0  0  0  0  0  0  0  0  0  0  0
  145.7910  159.2330  133.5950 C   0  0  0  0  0  0  0  0  0  0  0  0
  146.6920  158.2570  133.3390 N   0  0  0  0  0  0  0  0  0  0  0  0
  148.1040  158.4250  133.1300 C   0  0  0  0  0  0  0  0  0  0  0  0
  148.8090  159.0220  133.9850 O   0  0  0  0  0  0  0  0  0  0  0  0
  148.7050  157.9450  131.9720 O   0  0  0  0  0  0  0  0  0  0  0  0
  147.6660  156.1920  131.2750 H   0  0  0  0  0  0  0  0  0  0  0  0
  147.7360  154.4790  131.8070 H   0  0  0  0  0  0  0  0  0  0  0  0
  143.7926  156.6269  133.4249 H   0  0  0  0  0  0  0  0  0  0  0  0
  142.4012  159.0627  133.9670 H   0  0  0  0  0  0  0  0  0  0  0  0
  142.7401  161.5396  134.2653 H   0  0  0  0  0  0  0  0  0  0  0  0
  145.9477  163.2433  133.5134 H   0  0  0  0  0  0  0  0  0  0  0  0
  147.0274  161.0261  133.6591 H   0  0  0  0  0  0  0  0  0  0  0  0
  1  2  1  0
  2  3  2  0
  2  4  1  0
  4  5  2  0
  5  6  1  0
  6  7  2  0
  7  8  1  0
  8  9  2  0
  9 10  1  0
 10 11  1  0
 10 12  1  0
  9 13  1  0
 13 14  2  0
 14 15  1  0
 15 16  1  0
 16 17  2  0
 16 18  1  0
 15  4  1  0
 14  6  1  0
  1 19  1  0
  1 20  1  0
  5 21  1  0
  7 22  1  0
  8 23  1  0
 10 24  1  0
 13 25  1  0
M  CHG  1  18  -1
M  END
>  <UniqueID>  (42) 
42

>  <SMILES>  (42) 
NC(=O)c1cc2ccc(C(F)F)cc2n1C(=O)[O-]

>  <Energy>  (42) 
64.35940272203463

>  <Genealogy>  (42) 
NC(=O)c1cc2ccc(C(F)F)cc2n1C(=O)[O-] (protonated)
NC(=O)c1cc2ccc(C(F)F)cc2n1C(=O)[O-] (3D coordinates assigned)
NC(=O)c1cc2ccc(C(F)F)cc2n1C(=O)[O-] (optimized conformer: 64.35940272203463 kcal/mol)

>  <smiles>  (42) 
NC(=O)c1cc2ccc(C(F)F)cc2n1C(=O)O

>  <score_type>  (42) 
oracle

>  <origin>  (42) 
adg

>  <m_score__min__energy>  (42) 
-5.46

>  <m_primary>  (42) 
energy

$$$$
42:0
     RDKit          3D

 31 32  0  0  0  0  0  0  0  0999 V2000
  146.4320  152.9940  133.3550 N   0  0  0  0  0  0  0  0  0  0  0  0
  146.5350  154.0860  134.2700 C   0  0  0  0  0  0  0  0  0  0  0  0
  146.3260  153.8810  135.4960 O   0  0  0  0  0  0  0  0  0  0  0  0
  146.9190  155.4350  133.7960 C   0  0  0  0  0  0  0  0  0  0  0  0
  146.2180  156.5970  134.1100 C   0  0  0  0  0  0  0  0  0  0  0  0
  146.8400  157.6000  133.4030 C   0  0  0  0  0  0  0  0  0  0  0  0
  146.5540  158.9600  133.3430 C   0  0  0  0  0  0  0  0  0  0  0  0
  147.3770  159.7710  132.5420 C   0  0  0  0  0  0  0  0  0  0  0  0
  148.4780  159.2190  131.8390 C   0  0  0  0  0  0  0  0  0  0  0  0
  149.3300  160.0930  130.9550 C   0  0  0  0  0  0  0  0  0  0  0  0
  149.2220  161.4210  131.3290 F   0  0  0  0  0  0  0  0  0  0  0  0
  148.9350  159.9830  129.6330 F   0  0  0  0  0  0  0  0  0  0  0  0
  150.6510  159.7000  131.0650 F   0  0  0  0  0  0  0  0  0  0  0  0
  148.7190  157.8250  131.9070 C   0  0  0  0  0  0  0  0  0  0  0  0
  147.8720  157.0390  132.6980 C   0  0  0  0  0  0  0  0  0  0  0  0
  147.9340  155.7090  132.9280 N   0  0  0  0  0  0  0  0  0  0  0  0
  148.9220  154.7940  132.4250 C   0  0  0  0  0  0  0  0  0  0  0  0
  150.1050  155.1870  132.2340 O   0  0  0  0  0  0  0  0  0  0  0  0
  148.5680  153.4660  132.1570 O   0  0  0  0  0  0  0  0  0  0  0  0
  149.4350  152.3610  132.3950 C   0  0  0  0  0  0  0  0  0  0  0  0
  148.6920  151.0730  132.2440 C   0  0  0  0  0  0  0  0  0  0  0  0
  149.3150  149.9790  132.2560 O   0  0  0  0  0  0  0  0  0  0  0  0
  147.3150  151.0800  132.0600 O   0  0  0  0  0  0  0  0  0  0  0  0
  146.1990  152.0380  133.7050 H   0  0  0  0  0  0  0  0  0  0  0  0
  146.5460  153.1340  132.3270 H   0  0  0  0  0  0  0  0  0  0  0  0
  145.3513  156.6924  134.7807 H   0  0  0  0  0  0  0  0  0  0  0  0
  145.7104  159.3875  133.9047 H   0  0  0  0  0  0  0  0  0  0  0  0
  147.1643  160.8471  132.4596 H   0  0  0  0  0  0  0  0  0  0  0  0
  149.5523  157.3703  131.3513 H   0  0  0  0  0  0  0  0  0  0  0  0
  150.2635  152.3882  131.6720 H   0  0  0  0  0  0  0  0  0  0  0  0
  149.8258  152.4290  133.4210 H   0  0  0  0  0  0  0  0  0  0  0  0
  1  2  1  0
  2  3  2  0
  2  4  1  0
  4  5  2  0
  5  6  1  0
  6  7  2  0
  7  8  1  0
  8  9  2  0
  9 10  1  0
 10 11  1  0
 10 12  1  0
 10 13  1  0
  9 14  1  0
 14 15  2  0
 15 16  1  0
 16 17  1  0
 17 18  2  0
 17 19  1  0
 19 20  1  0
 20 21  1  0
 21 22  2  0
 21 23  1  0
 16  4  1  0
 15  6  1  0
  1 24  1  0
  1 25  1  0
  5 26  1  0
  7 27  1  0
  8 28  1  0
 14 29  1  0
 20 30  1  0
 20 31  1  0
M  CHG  1  23  -1
M  END
>  <UniqueID>  (43) 
43

>  <SMILES>  (43) 
NC(=O)c1cc2ccc(C(F)(F)F)cc2n1C(=O)OCC(=O)[O-]

>  <Energy>  (43) 
68.37573154018665

>  <Genealogy>  (43) 
NC(=O)c1cc2ccc(C(F)(F)F)cc2n1C(=O)OCC(=O)[O-] (protonated)
NC(=O)c1cc2ccc(C(F)(F)F)cc2n1C(=O)OCC(=O)[O-] (3D coordinates assigned)
NC(=O)c1cc2ccc(C(F)(F)F)cc2n1C(=O)OCC(=O)[O-] (optimized conformer: 68.37573154018665 kcal/mol)

>  <smiles>  (43) 
NC(=O)c1cc2ccc(C(F)(F)F)cc2n1C(=O)OCC(=O)O

>  <score_type>  (43) 
oracle

>  <origin>  (43) 
adg

>  <m_score__min__energy>  (43) 
-5.7800000000000002

>  <m_primary>  (43) 
energy

$$$$
43:0
     RDKit          3D

 36 38  0  0  0  0  0  0  0  0999 V2000
  139.7260  156.4920  132.9820 C   0  0  0  0  0  0  0  0  0  0  0  0
  139.5420  157.9070  132.5030 C   0  0  0  0  0  0  0  0  0  0  0  0
  138.7320  158.1470  131.3800 C   0  0  0  0  0  0  0  0  0  0  0  0
  138.5670  159.4080  130.9030 N   0  0  0  0  0  0  0  0  0  0  0  0
  139.1740  160.4750  131.4810 C   0  0  0  0  0  0  0  0  0  0  0  0
  139.9900  160.2950  132.5970 C   0  0  0  0  0  0  0  0  0  0  0  0
  140.1820  159.0090  133.1280 C   0  0  0  0  0  0  0  0  0  0  0  0
  141.0620  158.8620  134.3520 C   0  0  0  0  0  0  0  0  0  0  0  0
  142.4680  159.3190  134.0570 C   0  0  0  0  0  0  0  0  0  0  0  0
  142.7690  160.7030  133.9940 C   0  0  0  0  0  0  0  0  0  0  0  0
  144.0790  161.1400  133.7380 C   0  0  0  0  0  0  0  0  0  0  0  0
  145.0660  160.1750  133.5630 C   0  0  0  0  0  0  0  0  0  0  0  0
  146.4050  160.3200  133.2830 C   0  0  0  0  0  0  0  0  0  0  0  0
  146.9100  159.0240  133.2090 C   0  0  0  0  0  0  0  0  0  0  0  0
  148.3420  158.7210  133.0080 C   0  0  0  0  0  0  0  0  0  0  0  0
  148.7980  158.0770  131.8220 N   0  0  0  0  0  0  0  0  0  0  0  0
  149.1700  158.9910  133.9200 O   0  0  0  0  0  0  0  0  0  0  0  0
  145.9190  158.1110  133.4260 N   0  0  0  0  0  0  0  0  0  0  0  0
  146.0070  156.6780  133.3530 C   0  0  0  0  0  0  0  0  0  0  0  0
  146.7370  156.1290  132.4880 O   0  0  0  0  0  0  0  0  0  0  0  0
  145.2670  155.8860  134.2220 O   0  0  0  0  0  0  0  0  0  0  0  0
  144.7970  158.8330  133.6440 C   0  0  0  0  0  0  0  0  0  0  0  0
  143.4970  158.3690  133.8770 C   0  0  0  0  0  0  0  0  0  0  0  0
  139.7283  156.4746  134.0819 H   0  0  0  0  0  0  0  0  0  0  0  0
  138.9015  155.8678  132.6071 H   0  0  0  0  0  0  0  0  0  0  0  0
  140.6827  156.0995  132.6071 H   0  0  0  0  0  0  0  0  0  0  0  0
  138.2269  157.3058  130.8827 H   0  0  0  0  0  0  0  0  0  0  0  0
  139.0221  161.4834  131.0685 H   0  0  0  0  0  0  0  0  0  0  0  0
  140.4839  161.1609  133.0620 H   0  0  0  0  0  0  0  0  0  0  0  0
  140.6484  159.4714  135.1691 H   0  0  0  0  0  0  0  0  0  0  0  0
  141.0890  157.8013  134.6421 H   0  0  0  0  0  0  0  0  0  0  0  0
  141.9686  161.4419  134.1471 H   0  0  0  0  0  0  0  0  0  0  0  0
  144.3174  162.2122  133.6777 H   0  0  0  0  0  0  0  0  0  0  0  0
  146.9594  161.2602  133.1465 H   0  0  0  0  0  0  0  0  0  0  0  0
  148.3750  157.1780  131.5020 H   0  0  0  0  0  0  0  0  0  0  0  0
  143.2824  157.2910  133.9188 H   0  0  0  0  0  0  0  0  0  0  0  0
  1  2  1  0
  2  3  2  0
  3  4  1  0
  4  5  2  0
  5  6  1  0
  6  7  2  0
  7  8  1  0
  8  9  1  0
  9 10  2  0
 10 11  1  0
 11 12  2  0
 12 13  1  0
 13 14  2  0
 14 15  1  0
 15 16  1  0
 15 17  2  0
 14 18  1  0
 18 19  1  0
 19 20  2  0
 19 21  1  0
 18 22  1  0
 22 23  2  0
  7  2  1  0
 23  9  1  0
 22 12  1  0
  1 24  1  0
  1 25  1  0
  1 26  1  0
  3 27  1  0
  5 28  1  0
  6 29  1  0
  8 30  1  0
  8 31  1  0
 10 32  1  0
 11 33  1  0
 13 34  1  0
 16 35  1  0
 23 36  1  0
M  CHG  2  16  -1  21  -1
M  END
>  <UniqueID>  (44) 
44

>  <SMILES>  (44) 
Cc1cnccc1Cc1ccc2cc(C([NH-])=O)n(C(=O)[O-])c2c1

>  <Energy>  (44) 
79.8644379383329

>  <Genealogy>  (44) 
Cc1cnccc1Cc1ccc2cc(C([NH-])=O)n(C(=O)[O-])c2c1 (protonated)
Cc1cnccc1Cc1ccc2cc(C([NH-])=O)n(C(=O)[O-])c2c1 (3D coordinates assigned)
Cc1cnccc1Cc1ccc2cc(C([NH-])=O)n(C(=O)[O-])c2c1 (optimized conformer: 79.8644379383329 kcal/mol)

>  <smiles>  (44) 
Cc1cnccc1Cc1ccc2cc(C(N)=O)n(C(=O)O)c2c1

>  <score_type>  (44) 
oracle

>  <origin>  (44) 
adg

>  <m_score__min__energy>  (44) 
-7.75

>  <m_primary>  (44) 
energy

$$$$
44:0
     RDKit          3D

 31 33  0  0  0  0  0  0  0  0999 V2000
  140.5080  158.9350  136.4720 N   0  0  0  0  0  0  0  0  0  0  0  0
  140.7420  158.7760  135.0760 C   0  0  0  0  0  0  0  0  0  0  0  0
  139.7670  158.8120  134.2790 O   0  0  0  0  0  0  0  0  0  0  0  0
  142.1020  158.5140  134.5580 C   0  0  0  0  0  0  0  0  0  0  0  0
  142.7180  157.2660  134.6270 C   0  0  0  0  0  0  0  0  0  0  0  0
  143.9860  157.4580  134.1290 C   0  0  0  0  0  0  0  0  0  0  0  0
  145.0250  156.5490  133.9560 C   0  0  0  0  0  0  0  0  0  0  0  0
  146.2200  157.0160  133.3870 C   0  0  0  0  0  0  0  0  0  0  0  0
  146.3580  158.3740  133.0000 C   0  0  0  0  0  0  0  0  0  0  0  0
  147.6180  158.8540  132.3810 C   0  0  0  0  0  0  0  0  0  0  0  0
  147.6460  160.0920  131.7140 C   0  0  0  0  0  0  0  0  0  0  0  0
  148.8260  160.5520  131.1220 C   0  0  0  0  0  0  0  0  0  0  0  0
  149.9900  159.7840  131.1940 C   0  0  0  0  0  0  0  0  0  0  0  0
  149.9770  158.5550  131.8580 C   0  0  0  0  0  0  0  0  0  0  0  0
  148.7990  158.0880  132.4520 C   0  0  0  0  0  0  0  0  0  0  0  0
  148.8260  156.9090  133.1250 F   0  0  0  0  0  0  0  0  0  0  0  0
  145.2750  159.2660  133.1880 C   0  0  0  0  0  0  0  0  0  0  0  0
  144.1030  158.7770  133.7740 C   0  0  0  0  0  0  0  0  0  0  0  0
  142.9530  159.4390  134.0280 N   0  0  0  0  0  0  0  0  0  0  0  0
  142.6750  160.8130  133.7120 C   0  0  0  0  0  0  0  0  0  0  0  0
  143.6010  161.6660  133.7130 O   0  0  0  0  0  0  0  0  0  0  0  0
  141.3760  161.2180  133.4290 O   0  0  0  0  0  0  0  0  0  0  0  0
  139.5360  158.9860  136.8510 H   0  0  0  0  0  0  0  0  0  0  0  0
  142.2830  156.3271  135.0002 H   0  0  0  0  0  0  0  0  0  0  0  0
  144.9133  155.4966  134.2560 H   0  0  0  0  0  0  0  0  0  0  0  0
  147.0596  156.3208  133.2393 H   0  0  0  0  0  0  0  0  0  0  0  0
  146.7328  160.7027  131.6578 H   0  0  0  0  0  0  0  0  0  0  0  0
  148.8375  161.5197  130.5991 H   0  0  0  0  0  0  0  0  0  0  0  0
  150.9177  160.1470  130.7276 H   0  0  0  0  0  0  0  0  0  0  0  0
  150.8956  157.9524  131.9142 H   0  0  0  0  0  0  0  0  0  0  0  0
  145.3534  160.3192  132.8804 H   0  0  0  0  0  0  0  0  0  0  0  0
  1  2  1  0
  2  3  2  0
  2  4  1  0
  4  5  2  0
  5  6  1  0
  6  7  2  0
  7  8  1  0
  8  9  2  0
  9 10  1  0
 10 11  2  0
 11 12  1  0
 12 13  2  0
 13 14  1  0
 14 15  2  0
 15 16  1  0
  9 17  1  0
 17 18  2  0
 18 19  1  0
 19 20  1  0
 20 21  2  0
 20 22  1  0
 19  4  1  0
 18  6  1  0
 15 10  1  0
  1 23  1  0
  5 24  1  0
  7 25  1  0
  8 26  1  0
 11 27  1  0
 12 28  1  0
 13 29  1  0
 14 30  1  0
 17 31  1  0
M  CHG  2   1  -1  22  -1
M  END
>  <UniqueID>  (45) 
45

>  <SMILES>  (45) 
[NH-]C(=O)c1cc2ccc(-c3ccccc3F)cc2n1C(=O)[O-]

>  <Energy>  (45) 
80.17105994985944

>  <Genealogy>  (45) 
[NH-]C(=O)c1cc2ccc(-c3ccccc3F)cc2n1C(=O)[O-] (protonated)
[NH-]C(=O)c1cc2ccc(-c3ccccc3F)cc2n1C(=O)[O-] (3D coordinates assigned)
[NH-]C(=O)c1cc2ccc(-c3ccccc3F)cc2n1C(=O)[O-] (optimized conformer: 80.17105994985944 kcal/mol)

>  <smiles>  (45) 
NC(=O)c1cc2ccc(-c3ccccc3F)cc2n1C(=O)O

>  <score_type>  (45) 
oracle

>  <origin>  (45) 
adg

>  <m_score__min__energy>  (45) 
-7.5099999999999998

>  <m_primary>  (45) 
energy

$$$$
45:0
     RDKit          3D

 56 58  0  0  0  0  0  0  0  0999 V2000
  137.7270  159.7270  130.8900 C   0  0  0  0  0  0  0  0  0  0  0  0
  138.3950  159.5900  132.1960 N   0  0  0  0  0  0  0  0  0  0  0  0
  139.6010  160.4360  132.2200 C   0  0  0  0  0  0  0  0  0  0  0  0
  138.7300  158.1730  132.4530 C   0  0  0  0  0  0  0  0  0  0  0  0
  138.7610  157.8540  133.9580 C   0  0  0  0  0  0  0  0  0  0  0  0
  140.1050  157.2180  134.4230 C   0  0  2  0  0  0  0  0  0  0  0  0
  140.3470  157.3690  135.9420 C   0  0  0  0  0  0  0  0  0  0  0  0
  140.5740  158.8300  136.3840 C   0  0  0  0  0  0  0  0  0  0  0  0
  141.1310  159.7310  135.2690 C   0  0  0  0  0  0  0  0  0  0  0  0
  141.9220  158.9530  134.3070 N   0  0  0  0  0  0  0  0  0  0  0  0
  143.2670  159.3500  133.9790 C   0  0  0  0  0  0  0  0  0  0  0  0
  143.6370  160.7190  134.0250 C   0  0  0  0  0  0  0  0  0  0  0  0
  144.9520  161.1180  133.7340 C   0  0  0  0  0  0  0  0  0  0  0  0
  145.8720  160.1320  133.3930 C   0  0  0  0  0  0  0  0  0  0  0  0
  147.2130  160.2330  133.1000 C   0  0  0  0  0  0  0  0  0  0  0  0
  147.6410  158.9280  132.8620 C   0  0  0  0  0  0  0  0  0  0  0  0
  149.0280  158.5780  132.4850 C   0  0  0  0  0  0  0  0  0  0  0  0
  149.4260  157.2220  132.3070 N   0  0  0  0  0  0  0  0  0  0  0  0
  149.8710  159.4950  132.2970 O   0  0  0  0  0  0  0  0  0  0  0  0
  146.6000  158.0560  132.9950 N   0  0  0  0  0  0  0  0  0  0  0  0
  146.6300  156.6260  132.8790 C   0  0  0  0  0  0  0  0  0  0  0  0
  146.9960  156.0930  131.7980 O   0  0  0  0  0  0  0  0  0  0  0  0
  146.1950  155.7560  134.0260 C   0  0  0  0  0  0  0  0  0  0  0  0
  147.3780  155.3750  134.9160 C   0  0  0  0  0  0  0  0  0  0  0  0
  148.1260  156.4950  135.2280 F   0  0  0  0  0  0  0  0  0  0  0  0
  148.1810  154.4520  134.2710 F   0  0  0  0  0  0  0  0  0  0  0  0
  146.9060  154.8130  136.0880 F   0  0  0  0  0  0  0  0  0  0  0  0
  145.5290  158.8070  133.3280 C   0  0  0  0  0  0  0  0  0  0  0  0
  144.2340  158.3780  133.6370 C   0  0  0  0  0  0  0  0  0  0  0  0
  141.3300  157.7740  133.6530 C   0  0  0  0  0  0  0  0  0  0  0  0
  136.6602  159.9458  131.0450 H   0  0  0  0  0  0  0  0  0  0  0  0
  138.1915  160.5486  130.3250 H   0  0  0  0  0  0  0  0  0  0  0  0
  137.8306  158.7889  130.3250 H   0  0  0  0  0  0  0  0  0  0  0  0
  139.8873  160.6368  133.2629 H   0  0  0  0  0  0  0  0  0  0  0  0
  140.4238  159.9161  131.7075 H   0  0  0  0  0  0  0  0  0  0  0  0
  139.3923  161.3867  131.7075 H   0  0  0  0  0  0  0  0  0  0  0  0
  137.9745  157.5358  131.9700 H   0  0  0  0  0  0  0  0  0  0  0  0
  139.7324  157.9802  132.0432 H   0  0  0  0  0  0  0  0  0  0  0  0
  138.6047  158.7885  134.5167 H   0  0  0  0  0  0  0  0  0  0  0  0
  137.9667  157.1184  134.1526 H   0  0  0  0  0  0  0  0  0  0  0  0
  140.0008  156.1478  134.1908 H   0  0  0  0  0  0  0  0  0  0  0  0
  139.4693  156.9756  136.4757 H   0  0  0  0  0  0  0  0  0  0  0  0
  141.2640  156.8109  136.1819 H   0  0  0  0  0  0  0  0  0  0  0  0
  139.6121  159.2455  136.7189 H   0  0  0  0  0  0  0  0  0  0  0  0
  141.3242  158.8109  137.1883 H   0  0  0  0  0  0  0  0  0  0  0  0
  140.2928  160.2096  134.7413 H   0  0  0  0  0  0  0  0  0  0  0  0
  141.7836  160.4896  135.7258 H   0  0  0  0  0  0  0  0  0  0  0  0
  142.8854  161.4766  134.2916 H   0  0  0  0  0  0  0  0  0  0  0  0
  145.2452  162.1774  133.7745 H   0  0  0  0  0  0  0  0  0  0  0  0
  147.8191  161.1501  133.0617 H   0  0  0  0  0  0  0  0  0  0  0  0
  149.0530  156.6510  131.5170 H   0  0  0  0  0  0  0  0  0  0  0  0
  145.4547  156.3022  134.6290 H   0  0  0  0  0  0  0  0  0  0  0  0
  145.7592  154.8333  133.6152 H   0  0  0  0  0  0  0  0  0  0  0  0
  143.9745  157.3093  133.6143 H   0  0  0  0  0  0  0  0  0  0  0  0
  141.0103  158.0568  132.6392 H   0  0  0  0  0  0  0  0  0  0  0  0
  142.0962  156.9850  133.6312 H   0  0  0  0  0  0  0  0  0  0  0  0
  1  2  1  0
  2  3  1  0
  2  4  1  0
  4  5  1  0
  5  6  1  0
  6  7  1  0
  7  8  1  0
  8  9  1  0
  9 10  1  0
 10 11  1  0
 11 12  2  0
 12 13  1  0
 13 14  2  0
 14 15  1  0
 15 16  2  0
 16 17  1  0
 17 18  1  0
 17 19  2  0
 16 20  1  0
 20 21  1  0
 21 22  2  0
 21 23  1  0
 23 24  1  0
 24 25  1  0
 24 26  1  0
 24 27  1  0
 20 28  1  0
 28 29  2  0
 10 30  1  0
 30  6  1  0
 29 11  1  0
 28 14  1  0
  1 31  1  0
  1 32  1  0
  1 33  1  0
  3 34  1  0
  3 35  1  0
  3 36  1  0
  4 37  1  0
  4 38  1  0
  5 39  1  0
  5 40  1  0
  6 41  1  1
  7 42  1  0
  7 43  1  0
  8 44  1  0
  8 45  1  0
  9 46  1  0
  9 47  1  0
 12 48  1  0
 13 49  1  0
 15 50  1  0
 18 51  1  0
 23 52  1  0
 23 53  1  0
 29 54  1  0
 30 55  1  0
 30 56  1  0
M  CHG  1  18  -1
M  END
>  <UniqueID>  (46) 
46

>  <SMILES>  (46) 
CN(C)CC[C@@H]1CCCN(c2ccc3cc(C([NH-])=O)n(C(=O)CC(F)(F)F)c3c2)C1

>  <Energy>  (46) 
101.20974239921935

>  <Genealogy>  (46) 
CN(C)CCC1CCCN(c2ccc3cc(C([NH-])=O)n(C(=O)CC(F)(F)F)c3c2)C1 (protonated)
CN(C)CC[C@@H]1CCCN(c2ccc3cc(C([NH-])=O)n(C(=O)CC(F)(F)F)c3c2)C1 (chirality)
CN(C)CC[C@@H]1CCCN(c2ccc3cc(C([NH-])=O)n(C(=O)CC(F)(F)F)c3c2)C1 (3D coordinates assigned)
CN(C)CC[C@@H]1CCCN(c2ccc3cc(C([NH-])=O)n(C(=O)CC(F)(F)F)c3c2)C1 (nonaromatic ring conformer: 101.20974239921935 kcal/mol)

>  <smiles>  (46) 
CN(C)CCC1CCCN(c2ccc3cc(C(N)=O)n(C(=O)CC(F)(F)F)c3c2)C1

>  <score_type>  (46) 
oracle

>  <origin>  (46) 
adg

>  <m_score__min__energy>  (46) 
-8.4000000000000004

>  <m_primary>  (46) 
energy

$$$$
46:0
     RDKit          3D

 54 57  0  0  0  0  0  0  0  0999 V2000
  144.1260  153.3080  138.5290 N   0  0  0  0  0  0  0  0  0  0  0  0
  142.7330  153.5770  138.3800 C   0  0  0  0  0  0  0  0  0  0  0  0
  141.8980  152.8360  138.9630 O   0  0  0  0  0  0  0  0  0  0  0  0
  142.2900  154.6800  137.5030 C   0  0  0  0  0  0  0  0  0  0  0  0
  141.1350  155.4210  137.7480 C   0  0  0  0  0  0  0  0  0  0  0  0
  141.1090  156.3930  136.7790 C   0  0  0  0  0  0  0  0  0  0  0  0
  140.1830  157.4080  136.5600 C   0  0  0  0  0  0  0  0  0  0  0  0
  140.3980  158.2720  135.4740 C   0  0  0  0  0  0  0  0  0  0  0  0
  141.5150  158.0930  134.6190 C   0  0  0  0  0  0  0  0  0  0  0  0
  141.7330  159.0290  133.4610 C   0  0  0  0  0  0  0  0  0  0  0  0
  140.4270  159.5080  132.9100 C   0  0  0  0  0  0  0  0  0  0  0  0
  140.2590  160.7350  132.6710 O   0  0  0  0  0  0  0  0  0  0  0  0
  139.3730  158.5690  132.6680 N   0  0  0  0  0  0  0  0  0  0  0  0
  138.8120  158.3090  131.3470 C   0  0  0  0  0  0  0  0  0  0  0  0
  137.5660  159.1620  131.1060 C   0  0  0  0  0  0  0  0  0  0  0  0
  137.8170  160.5010  131.4390 O   0  0  0  0  0  0  0  0  0  0  0  0
  142.4310  157.0470  134.8720 C   0  0  0  0  0  0  0  0  0  0  0  0
  142.2110  156.2210  135.9820 C   0  0  0  0  0  0  0  0  0  0  0  0
  142.9540  155.1730  136.4150 N   0  0  0  0  0  0  0  0  0  0  0  0
  144.1570  154.6710  135.8020 C   0  0  0  0  0  0  0  0  0  0  0  0
  145.2510  155.2770  135.9720 O   0  0  0  0  0  0  0  0  0  0  0  0
  144.1120  153.5320  134.9900 O   0  0  0  0  0  0  0  0  0  0  0  0
  143.8500  153.5780  133.5850 C   0  0  2  0  0  0  0  0  0  0  0  0
  144.2490  155.2040  132.9850 S   0  0  0  0  0  0  0  0  0  0  0  0
  142.3990  153.2590  133.2470 C   0  0  0  0  0  0  0  0  0  0  0  0
  141.4400  154.2870  133.2750 C   0  0  0  0  0  0  0  0  0  0  0  0
  140.1040  153.9980  132.9990 C   0  0  0  0  0  0  0  0  0  0  0  0
  139.2410  154.9130  133.0480 O   0  0  0  0  0  0  0  0  0  0  0  0
  139.7330  152.7650  132.6840 O   0  0  0  0  0  0  0  0  0  0  0  0
  140.5940  151.7570  132.5960 C   0  0  0  0  0  0  0  0  0  0  0  0
  140.1220  150.4900  132.2350 C   0  0  0  0  0  0  0  0  0  0  0  0
  141.0110  149.4180  132.0970 C   0  0  0  0  0  0  0  0  0  0  0  0
  140.5430  148.1560  131.7290 O   0  0  0  0  0  0  0  0  0  0  0  0
  142.3770  149.6140  132.3200 C   0  0  0  0  0  0  0  0  0  0  0  0
  143.2650  148.5540  132.1620 O   0  0  0  0  0  0  0  0  0  0  0  0
  142.8580  150.8730  132.6950 C   0  0  0  0  0  0  0  0  0  0  0  0
  141.9740  151.9610  132.8550 C   0  0  0  0  0  0  0  0  0  0  0  0
  144.8390  153.8640  138.0060 H   0  0  0  0  0  0  0  0  0  0  0  0
  140.3989  155.2606  138.5495 H   0  0  0  0  0  0  0  0  0  0  0  0
  139.3094  157.5300  137.2172 H   0  0  0  0  0  0  0  0  0  0  0  0
  139.6934  159.0952  135.2848 H   0  0  0  0  0  0  0  0  0  0  0  0
  142.3192  159.8948  133.8028 H   0  0  0  0  0  0  0  0  0  0  0  0
  142.2725  158.4892  132.6688 H   0  0  0  0  0  0  0  0  0  0  0  0
  139.5656  158.5481  130.5822 H   0  0  0  0  0  0  0  0  0  0  0  0
  138.5283  157.2478  131.2882 H   0  0  0  0  0  0  0  0  0  0  0  0
  137.2839  159.0994  130.0446 H   0  0  0  0  0  0  0  0  0  0  0  0
  136.7483  158.7849  131.7379 H   0  0  0  0  0  0  0  0  0  0  0  0
  138.5470  160.4980  132.1110 H   0  0  0  0  0  0  0  0  0  0  0  0
  143.2966  156.8851  134.2127 H   0  0  0  0  0  0  0  0  0  0  0  0
  144.4719  152.8101  133.1018 H   0  0  0  0  0  0  0  0  0  0  0  0
  141.7430  155.3170  133.5141 H   0  0  0  0  0  0  0  0  0  0  0  0
  139.0472  150.3360  132.0589 H   0  0  0  0  0  0  0  0  0  0  0  0
  141.1730  147.3700  131.6130 H   0  0  0  0  0  0  0  0  0  0  0  0
  143.9351  151.0160  132.8667 H   0  0  0  0  0  0  0  0  0  0  0  0
  1  2  1  0
  2  3  2  0
  2  4  1  0
  4  5  2  0
  5  6  1  0
  6  7  2  0
  7  8  1  0
  8  9  2  0
  9 10  1  0
 10 11  1  0
 11 12  2  0
 11 13  1  0
 13 14  1  0
 14 15  1  0
 15 16  1  0
  9 17  1  0
 17 18  2  0
 18 19  1  0
 19 20  1  0
 20 21  2  0
 20 22  1  0
 22 23  1  0
 23 24  1  0
 23 25  1  0
 25 26  2  0
 26 27  1  0
 27 28  2  0
 27 29  1  0
 29 30  1  0
 30 31  2  0
 31 32  1  0
 32 33  1  0
 32 34  2  0
 34 35  1  0
 34 36  1  0
 36 37  2  0
 19  4  1  0
 37 25  1  0
 18  6  1  0
 37 30  1  0
  1 38  1  0
  5 39  1  0
  7 40  1  0
  8 41  1  0
 10 42  1  0
 10 43  1  0
 14 44  1  0
 14 45  1  0
 15 46  1  0
 15 47  1  0
 16 48  1  0
 17 49  1  0
 23 50  1  6
 26 51  1  0
 31 52  1  0
 33 53  1  0
 36 54  1  0
M  CHG  4   1  -1  13  -1  24  -1  35  -1
M  END
>  <UniqueID>  (47) 
47

>  <SMILES>  (47) 
[NH-]C(=O)c1cc2ccc(CC(=O)[N-]CCO)cc2n1C(=O)O[C@H]([S-])c1cc(=O)oc2cc(O)c([O-])cc12

>  <Energy>  (47) 
98.69590023262636

>  <Genealogy>  (47) 
[NH-]C(=O)c1cc2ccc(CC(=O)[N-]CCO)cc2n1C(=O)OC([S-])c1cc(=O)oc2cc(O)c([O-])cc12 (protonated)
[NH-]C(=O)c1cc2ccc(CC(=O)[N-]CCO)cc2n1C(=O)O[C@H]([S-])c1cc(=O)oc2cc(O)c([O-])cc12 (chirality)
[NH-]C(=O)c1cc2ccc(CC(=O)[N-]CCO)cc2n1C(=O)O[C@H]([S-])c1cc(=O)oc2cc(O)c([O-])cc12 (3D coordinates assigned)
[NH-]C(=O)c1cc2ccc(CC(=O)[N-]CCO)cc2n1C(=O)O[C@H]([S-])c1cc(=O)oc2cc(O)c([O-])cc12 (optimized conformer: 98.69590023262636 kcal/mol)

>  <smiles>  (47) 
NC(=O)c1cc2ccc(CC(=O)NCCO)cc2n1C(=O)OC(S)c1cc(=O)oc2cc(O)c(O)cc12

>  <score_type>  (47) 
oracle

>  <origin>  (47) 
adg

>  <m_score__min__energy>  (47) 
-9.1899999999999995

>  <m_primary>  (47) 
energy

$$$$
47:0
     RDKit          3D

 33 34  0  0  0  0  0  0  0  0999 V2000
  149.2880  162.3470  130.3560 C   0  0  0  0  0  0  0  0  0  0  0  0
  149.9330  161.0860  130.2260 O   0  0  0  0  0  0  0  0  0  0  0  0
  149.3990  159.9090  130.7570 C   0  0  0  0  0  0  0  0  0  0  0  0
  148.9010  159.0290  130.0020 O   0  0  0  0  0  0  0  0  0  0  0  0
  149.3750  159.7160  132.2380 C   0  0  0  0  0  0  0  0  0  0  0  0
  147.9990  159.3010  132.6770 C   0  0  0  0  0  0  0  0  0  0  0  0
  147.6330  157.9310  132.6700 C   0  0  0  0  0  0  0  0  0  0  0  0
  146.3400  157.5340  133.0520 C   0  0  0  0  0  0  0  0  0  0  0  0
  145.4360  158.5250  133.4220 C   0  0  0  0  0  0  0  0  0  0  0  0
  144.1280  158.4220  133.8410 C   0  0  0  0  0  0  0  0  0  0  0  0
  143.7090  159.7310  134.0690 C   0  0  0  0  0  0  0  0  0  0  0  0
  142.3290  160.0950  134.4500 C   0  0  0  0  0  0  0  0  0  0  0  0
  141.5460  160.9120  133.5840 N   0  0  0  0  0  0  0  0  0  0  0  0
  141.8440  159.7180  135.5490 O   0  0  0  0  0  0  0  0  0  0  0  0
  144.7220  160.6070  133.8120 N   0  0  0  0  0  0  0  0  0  0  0  0
  144.7230  162.0350  133.9710 C   0  0  0  0  0  0  0  0  0  0  0  0
  145.8150  162.7210  134.7290 C   0  0  0  0  0  0  0  0  0  0  0  0
  143.8290  162.7270  133.4140 O   0  0  0  0  0  0  0  0  0  0  0  0
  145.7680  159.8540  133.4120 C   0  0  0  0  0  0  0  0  0  0  0  0
  147.0490  160.2790  133.0480 C   0  0  0  0  0  0  0  0  0  0  0  0
  149.1649  162.5877  131.4223 H   0  0  0  0  0  0  0  0  0  0  0  0
  149.8997  163.1233  129.8731 H   0  0  0  0  0  0  0  0  0  0  0  0
  148.3005  162.3053  129.8731 H   0  0  0  0  0  0  0  0  0  0  0  0
  150.0977  158.9347  132.5159 H   0  0  0  0  0  0  0  0  0  0  0  0
  149.6427  160.6621  132.7311 H   0  0  0  0  0  0  0  0  0  0  0  0
  148.3677  157.1721  132.3628 H   0  0  0  0  0  0  0  0  0  0  0  0
  146.0515  156.4725  133.0583 H   0  0  0  0  0  0  0  0  0  0  0  0
  143.5392  157.5016  133.9685 H   0  0  0  0  0  0  0  0  0  0  0  0
  141.9890  161.6640  133.0100 H   0  0  0  0  0  0  0  0  0  0  0  0
  145.6377  162.6096  135.8089 H   0  0  0  0  0  0  0  0  0  0  0  0
  146.7829  162.2684  134.4678 H   0  0  0  0  0  0  0  0  0  0  0  0
  145.8274  163.7895  134.4678 H   0  0  0  0  0  0  0  0  0  0  0  0
  147.3108  161.3474  133.0503 H   0  0  0  0  0  0  0  0  0  0  0  0
  1  2  1  0
  2  3  1  0
  3  4  2  0
  3  5  1  0
  5  6  1  0
  6  7  2  0
  7  8  1  0
  8  9  2  0
  9 10  1  0
 10 11  2  0
 11 12  1  0
 12 13  1  0
 12 14  2  0
 11 15  1  0
 15 16  1  0
 16 17  1  0
 16 18  2  0
 15 19  1  0
 19 20  2  0
 20  6  1  0
 19  9  1  0
  1 21  1  0
  1 22  1  0
  1 23  1  0
  5 24  1  0
  5 25  1  0
  7 26  1  0
  8 27  1  0
 10 28  1  0
 13 29  1  0
 17 30  1  0
 17 31  1  0
 17 32  1  0
 20 33  1  0
M  CHG  1  13  -1
M  END
>  <UniqueID>  (48) 
48

>  <SMILES>  (48) 
COC(=O)Cc1ccc2cc(C([NH-])=O)n(C(C)=O)c2c1

>  <Energy>  (48) 
67.56534392689431

>  <Genealogy>  (48) 
COC(=O)Cc1ccc2cc(C([NH-])=O)n(C(C)=O)c2c1 (protonated)
COC(=O)Cc1ccc2cc(C([NH-])=O)n(C(C)=O)c2c1 (3D coordinates assigned)
COC(=O)Cc1ccc2cc(C([NH-])=O)n(C(C)=O)c2c1 (optimized conformer: 67.56534392689431 kcal/mol)

>  <smiles>  (48) 
COC(=O)Cc1ccc2cc(C(N)=O)n(C(C)=O)c2c1

>  <score_type>  (48) 
oracle

>  <origin>  (48) 
adg

>  <m_score__min__energy>  (48) 
-6.5700000000000003

>  <m_primary>  (48) 
energy

$$$$
48:0
     RDKit          3D

 42 44  0  0  0  0  0  0  0  0999 V2000
  149.5170  161.3330  130.3720 C   0  0  0  0  0  0  0  0  0  0  0  0
  148.7650  160.5230  131.1210 C   0  0  0  0  0  0  0  0  0  0  0  0
  148.8840  159.0290  131.0180 C   0  0  0  0  0  0  0  0  0  0  0  0
  149.2540  158.4650  132.2750 O   0  0  0  0  0  0  0  0  0  0  0  0
  148.4370  158.5200  133.4110 C   0  0  0  0  0  0  0  0  0  0  0  0
  148.8660  159.0300  134.4820 O   0  0  0  0  0  0  0  0  0  0  0  0
  147.0960  158.0130  133.3480 N   0  0  0  0  0  0  0  0  0  0  0  0
  145.9360  158.7010  133.5420 C   0  0  0  0  0  0  0  0  0  0  0  0
  145.8110  160.1660  133.6890 C   0  0  0  0  0  0  0  0  0  0  0  0
  146.9640  161.0030  133.7070 N   0  0  0  0  0  0  0  0  0  0  0  0
  144.6670  160.6910  133.7530 O   0  0  0  0  0  0  0  0  0  0  0  0
  144.8450  157.8370  133.5040 C   0  0  0  0  0  0  0  0  0  0  0  0
  145.3760  156.5890  133.2760 C   0  0  0  0  0  0  0  0  0  0  0  0
  144.7450  155.3590  133.1570 C   0  0  0  0  0  0  0  0  0  0  0  0
  145.5430  154.2220  132.9530 C   0  0  0  0  0  0  0  0  0  0  0  0
  146.9670  154.3160  132.8810 C   0  0  0  0  0  0  0  0  0  0  0  0
  147.7910  153.1240  132.6830 N   0  0  0  0  0  0  0  0  0  0  0  0
  149.2640  153.2450  132.7430 C   0  0  0  0  0  0  0  0  0  0  0  0
  149.9960  151.9080  132.5920 C   0  0  0  0  0  0  0  0  0  0  0  0
  149.3540  151.0860  131.6470 O   0  0  0  0  0  0  0  0  0  0  0  0
  148.1180  150.6770  132.1810 C   0  0  0  0  0  0  0  0  0  0  0  0
  147.1460  151.8570  132.2800 C   0  0  0  0  0  0  0  0  0  0  0  0
  147.5600  155.6050  133.0040 C   0  0  0  0  0  0  0  0  0  0  0  0
  146.7340  156.7190  133.1870 C   0  0  0  0  0  0  0  0  0  0  0  0
  149.4116  162.4239  130.4655 H   0  0  0  0  0  0  0  0  0  0  0  0
  150.2420  160.9094  129.6614 H   0  0  0  0  0  0  0  0  0  0  0  0
  148.0435  160.9585  131.8280 H   0  0  0  0  0  0  0  0  0  0  0  0
  147.9161  158.6103  130.7052 H   0  0  0  0  0  0  0  0  0  0  0  0
  149.6615  158.7862  130.2787 H   0  0  0  0  0  0  0  0  0  0  0  0
  147.7200  160.8620  134.4140 H   0  0  0  0  0  0  0  0  0  0  0  0
  143.7836  158.0973  133.6296 H   0  0  0  0  0  0  0  0  0  0  0  0
  143.6499  155.2770  133.2207 H   0  0  0  0  0  0  0  0  0  0  0  0
  145.0621  153.2385  132.8464 H   0  0  0  0  0  0  0  0  0  0  0  0
  149.5912  153.9139  131.9334 H   0  0  0  0  0  0  0  0  0  0  0  0
  149.5149  153.6393  133.7388 H   0  0  0  0  0  0  0  0  0  0  0  0
  151.0279  152.0980  132.2616 H   0  0  0  0  0  0  0  0  0  0  0  0
  149.9915  151.3940  133.5645 H   0  0  0  0  0  0  0  0  0  0  0  0
  147.6821  149.9054  131.5293 H   0  0  0  0  0  0  0  0  0  0  0  0
  148.2877  150.2767  133.1914 H   0  0  0  0  0  0  0  0  0  0  0  0
  146.6762  152.0037  131.2963 H   0  0  0  0  0  0  0  0  0  0  0  0
  146.4132  151.6060  133.0610 H   0  0  0  0  0  0  0  0  0  0  0  0
  148.6526  155.7230  132.9558 H   0  0  0  0  0  0  0  0  0  0  0  0
  1  2  2  0
  2  3  1  0
  3  4  1  0
  4  5  1  0
  5  6  2  0
  5  7  1  0
  7  8  1  0
  8  9  1  0
  9 10  1  0
  9 11  2  0
  8 12  2  0
 12 13  1  0
 13 14  2  0
 14 15  1  0
 15 16  2  0
 16 17  1  0
 17 18  1  0
 18 19  1  0
 19 20  1  0
 20 21  1  0
 21 22  1  0
 16 23  1  0
 23 24  2  0
 24  7  1  0
 24 13  1  0
 22 17  1  0
  1 25  1  0
  1 26  1  0
  2 27  1  0
  3 28  1  0
  3 29  1  0
 10 30  1  0
 12 31  1  0
 14 32  1  0
 15 33  1  0
 18 34  1  0
 18 35  1  0
 19 36  1  0
 19 37  1  0
 21 38  1  0
 21 39  1  0
 22 40  1  0
 22 41  1  0
 23 42  1  0
M  CHG  1  10  -1
M  END
>  <UniqueID>  (49) 
49

>  <SMILES>  (49) 
C=CCOC(=O)n1c(C([NH-])=O)cc2ccc(N3CCOCC3)cc21

>  <Energy>  (49) 
85.89933112606317

>  <Genealogy>  (49) 
C=CCOC(=O)n1c(C([NH-])=O)cc2ccc(N3CCOCC3)cc21 (protonated)
C=CCOC(=O)n1c(C([NH-])=O)cc2ccc(N3CCOCC3)cc21 (3D coordinates assigned)
C=CCOC(=O)n1c(C([NH-])=O)cc2ccc(N3CCOCC3)cc21 (nonaromatic ring conformer: 85.89933112606317 kcal/mol)

>  <smiles>  (49) 
C=CCOC(=O)n1c(C(N)=O)cc2ccc(N3CCOCC3)cc21

>  <score_type>  (49) 
oracle

>  <origin>  (49) 
adg

>  <m_score__min__energy>  (49) 
-7.04

>  <m_primary>  (49) 
energy

$$$$
49:0
     RDKit          3D

 39 40  0  0  0  0  0  0  0  0999 V2000
  138.1170  160.0540  130.7400 C   0  0  0  0  0  0  0  0  0  0  0  0
  138.9510  159.9240  131.8630 O   0  0  0  0  0  0  0  0  0  0  0  0
  139.2500  158.6030  131.9630 N   0  0  0  0  0  0  0  0  0  0  0  0
  139.2630  157.9370  133.2260 C   0  0  0  0  0  0  0  0  0  0  0  0
  138.7140  156.8090  133.3530 O   0  0  0  0  0  0  0  0  0  0  0  0
  139.8790  158.6060  134.4120 C   0  0  0  0  0  0  0  0  0  0  0  0
  141.3100  158.9580  134.1140 C   0  0  0  0  0  0  0  0  0  0  0  0
  141.7260  160.3120  134.1320 C   0  0  0  0  0  0  0  0  0  0  0  0
  143.0640  160.6530  133.8780 C   0  0  0  0  0  0  0  0  0  0  0  0
  143.9650  159.6200  133.6320 C   0  0  0  0  0  0  0  0  0  0  0  0
  145.3050  159.6700  133.3260 C   0  0  0  0  0  0  0  0  0  0  0  0
  145.6970  158.3440  133.1700 C   0  0  0  0  0  0  0  0  0  0  0  0
  147.0870  157.9340  132.8840 C   0  0  0  0  0  0  0  0  0  0  0  0
  147.3770  156.9230  131.9200 N   0  0  0  0  0  0  0  0  0  0  0  0
  148.0300  158.4480  133.5430 O   0  0  0  0  0  0  0  0  0  0  0  0
  144.6410  157.5040  133.3600 N   0  0  0  0  0  0  0  0  0  0  0  0
  144.6140  156.0820  133.1600 C   0  0  0  0  0  0  0  0  0  0  0  0
  145.6850  155.4180  133.2050 O   0  0  0  0  0  0  0  0  0  0  0  0
  143.3940  155.4410  132.9140 O   0  0  0  0  0  0  0  0  0  0  0  0
  143.2600  154.0370  132.6880 C   0  0  0  0  0  0  0  0  0  0  0  0
  142.1590  153.4360  133.5680 C   0  0  0  0  0  0  0  0  0  0  0  0
  140.6440  154.3380  133.3210 Cl  0  0  0  0  0  0  0  0  0  0  0  0
  141.8640  151.7250  133.1600 Cl  0  0  0  0  0  0  0  0  0  0  0  0
  142.6100  153.5500  135.2910 Cl  0  0  0  0  0  0  0  0  0  0  0  0
  143.5850  158.3020  133.6440 C   0  0  0  0  0  0  0  0  0  0  0  0
  142.2530  157.9360  133.8690 C   0  0  0  0  0  0  0  0  0  0  0  0
  137.0802  160.2156  131.0700 H   0  0  0  0  0  0  0  0  0  0  0  0
  138.4472  160.9115  130.1353 H   0  0  0  0  0  0  0  0  0  0  0  0
  138.1706  159.1367  130.1353 H   0  0  0  0  0  0  0  0  0  0  0  0
  139.3186  159.5233  134.6454 H   0  0  0  0  0  0  0  0  0  0  0  0
  139.8457  157.9213  135.2723 H   0  0  0  0  0  0  0  0  0  0  0  0
  140.9935  161.1040  134.3471 H   0  0  0  0  0  0  0  0  0  0  0  0
  143.3905  161.7034  133.8734 H   0  0  0  0  0  0  0  0  0  0  0  0
  145.9332  160.5674  133.2259 H   0  0  0  0  0  0  0  0  0  0  0  0
  148.3680  156.6760  131.7000 H   0  0  0  0  0  0  0  0  0  0  0  0
  146.6140  156.3610  131.4800 H   0  0  0  0  0  0  0  0  0  0  0  0
  143.0075  153.8663  131.6311 H   0  0  0  0  0  0  0  0  0  0  0  0
  144.2133  153.5509  132.9428 H   0  0  0  0  0  0  0  0  0  0  0  0
  141.9485  156.8791  133.8553 H   0  0  0  0  0  0  0  0  0  0  0  0
  1  2  1  0
  2  3  1  0
  3  4  1  0
  4  5  2  0
  4  6  1  0
  6  7  1  0
  7  8  2  0
  8  9  1  0
  9 10  2  0
 10 11  1  0
 11 12  2  0
 12 13  1  0
 13 14  1  0
 13 15  2  0
 12 16  1  0
 16 17  1  0
 17 18  2  0
 17 19  1  0
 19 20  1  0
 20 21  1  0
 21 22  1  0
 21 23  1  0
 21 24  1  0
 16 25  1  0
 25 26  2  0
 26  7  1  0
 25 10  1  0
  1 27  1  0
  1 28  1  0
  1 29  1  0
  6 30  1  0
  6 31  1  0
  8 32  1  0
  9 33  1  0
 11 34  1  0
 14 35  1  0
 14 36  1  0
 20 37  1  0
 20 38  1  0
 26 39  1  0
M  CHG  1   3  -1
M  END
>  <UniqueID>  (50) 
50

>  <SMILES>  (50) 
CO[N-]C(=O)Cc1ccc2cc(C(N)=O)n(C(=O)OCC(Cl)(Cl)Cl)c2c1

>  <Energy>  (50) 
71.4600708760458

>  <Genealogy>  (50) 
CO[N-]C(=O)Cc1ccc2cc(C(N)=O)n(C(=O)OCC(Cl)(Cl)Cl)c2c1 (protonated)
CO[N-]C(=O)Cc1ccc2cc(C(N)=O)n(C(=O)OCC(Cl)(Cl)Cl)c2c1 (3D coordinates assigned)
CO[N-]C(=O)Cc1ccc2cc(C(N)=O)n(C(=O)OCC(Cl)(Cl)Cl)c2c1 (optimized conformer: 71.4600708760458 kcal/mol)

>  <smiles>  (50) 
CONC(=O)Cc1ccc2cc(C(N)=O)n(C(=O)OCC(Cl)(Cl)Cl)c2c1

>  <score_type>  (50) 
oracle

>  <origin>  (50) 
adg

>  <m_score__min__energy>  (50) 
-7.6299999999999999

>  <m_primary>  (50) 
energy

$$$$
50:0
     RDKit          3D

 33 35  0  0  0  0  0  0  0  0999 V2000
  148.9490  158.2080  131.8410 N   0  0  0  0  0  0  0  0  0  0  0  0
  148.4390  158.7610  133.0520 C   0  0  0  0  0  0  0  0  0  0  0  0
  149.2330  159.0020  134.0010 O   0  0  0  0  0  0  0  0  0  0  0  0
  146.9920  158.9980  133.2300 C   0  0  0  0  0  0  0  0  0  0  0  0
  146.4300  160.2700  133.3120 C   0  0  0  0  0  0  0  0  0  0  0  0
  145.0950  160.0630  133.5700 C   0  0  0  0  0  0  0  0  0  0  0  0
  144.0620  160.9810  133.7360 C   0  0  0  0  0  0  0  0  0  0  0  0
  142.7690  160.4840  133.9630 C   0  0  0  0  0  0  0  0  0  0  0  0
  142.5290  159.0880  134.0200 C   0  0  0  0  0  0  0  0  0  0  0  0
  141.1330  158.5680  134.2770 C   0  0  0  0  0  0  0  0  0  0  0  0
  140.3950  158.1250  132.9960 C   0  0  1  0  0  0  0  0  0  0  0  0
  138.8490  158.0430  133.1610 C   0  0  0  0  0  0  0  0  0  0  0  0
  138.3180  158.9900  132.2410 O   0  0  0  0  0  0  0  0  0  0  0  0
  139.3450  159.5530  131.5210 C   0  0  0  0  0  0  0  0  0  0  0  0
  139.1740  160.4100  130.6150 O   0  0  0  0  0  0  0  0  0  0  0  0
  140.6100  159.0720  131.9090 N   0  0  0  0  0  0  0  0  0  0  0  0
  143.6020  158.1870  133.8350 C   0  0  0  0  0  0  0  0  0  0  0  0
  144.8840  158.7100  133.6300 C   0  0  0  0  0  0  0  0  0  0  0  0
  146.0400  158.0400  133.4200 N   0  0  0  0  0  0  0  0  0  0  0  0
  146.1960  156.6160  133.3220 C   0  0  0  0  0  0  0  0  0  0  0  0
  145.5680  155.8520  134.1010 O   0  0  0  0  0  0  0  0  0  0  0  0
  147.0190  156.0650  132.3470 O   0  0  0  0  0  0  0  0  0  0  0  0
  148.6080  157.2870  131.4860 H   0  0  0  0  0  0  0  0  0  0  0  0
  146.9447  161.2351  133.1952 H   0  0  0  0  0  0  0  0  0  0  0  0
  144.2531  162.0633  133.6906 H   0  0  0  0  0  0  0  0  0  0  0  0
  141.9326  161.1856  134.0982 H   0  0  0  0  0  0  0  0  0  0  0  0
  141.2025  157.7045  134.9549 H   0  0  0  0  0  0  0  0  0  0  0  0
  140.5548  159.3958  134.7133 H   0  0  0  0  0  0  0  0  0  0  0  0
  140.8089  157.1287  132.7816 H   0  0  0  0  0  0  0  0  0  0  0  0
  138.4899  157.0312  132.9215 H   0  0  0  0  0  0  0  0  0  0  0  0
  138.5367  158.2577  134.1937 H   0  0  0  0  0  0  0  0  0  0  0  0
  141.5270  159.3310  131.4820 H   0  0  0  0  0  0  0  0  0  0  0  0
  143.4336  157.1001  133.8517 H   0  0  0  0  0  0  0  0  0  0  0  0
  1  2  1  0
  2  3  2  0
  2  4  1  0
  4  5  2  0
  5  6  1  0
  6  7  2  0
  7  8  1  0
  8  9  2  0
  9 10  1  0
 10 11  1  0
 11 12  1  0
 12 13  1  0
 13 14  1  0
 14 15  2  0
 14 16  1  0
  9 17  1  0
 17 18  2  0
 18 19  1  0
 19 20  1  0
 20 21  2  0
 20 22  1  0
 19  4  1  0
 18  6  1  0
 16 11  1  0
  1 23  1  0
  5 24  1  0
  7 25  1  0
  8 26  1  0
 10 27  1  0
 10 28  1  0
 11 29  1  6
 12 30  1  0
 12 31  1  0
 16 32  1  0
 17 33  1  0
M  CHG  2   1  -1  22  -1
M  END
>  <UniqueID>  (51) 
51

>  <SMILES>  (51) 
[NH-]C(=O)c1cc2ccc(C[C@H]3COC(=O)N3)cc2n1C(=O)[O-]

>  <Energy>  (51) 
87.95859608411952

>  <Genealogy>  (51) 
[NH-]C(=O)c1cc2ccc(C[C@H]3COC(=O)N3)cc2n1C(=O)[O-] (protonated)
[NH-]C(=O)c1cc2ccc(C[C@H]3COC(=O)N3)cc2n1C(=O)[O-] (3D coordinates assigned)
[NH-]C(=O)c1cc2ccc(C[C@H]3COC(=O)N3)cc2n1C(=O)[O-] (nonaromatic ring conformer: 87.95859608411952 kcal/mol)

>  <smiles>  (51) 
NC(=O)c1cc2ccc(C[C@H]3COC(=O)N3)cc2n1C(=O)O

>  <score_type>  (51) 
oracle

>  <origin>  (51) 
adg

>  <m_score__min__energy>  (51) 
-7.4000000000000004

>  <m_primary>  (51) 
energy

$$$$
51:0
     RDKit          3D

 39 40  0  0  0  0  0  0  0  0999 V2000
  149.5500  160.9350  130.3220 C   0  0  0  0  0  0  0  0  0  0  0  0
  149.4430  159.6320  131.1060 C   0  0  0  0  0  0  0  0  0  0  0  0
  148.2490  159.6110  131.8850 O   0  0  0  0  0  0  0  0  0  0  0  0
  148.0980  158.8430  133.0450 C   0  0  0  0  0  0  0  0  0  0  0  0
  148.8570  159.0320  134.0360 O   0  0  0  0  0  0  0  0  0  0  0  0
  147.0780  157.8340  133.1080 N   0  0  0  0  0  0  0  0  0  0  0  0
  145.7510  158.0100  133.3640 C   0  0  0  0  0  0  0  0  0  0  0  0
  145.0570  159.3090  133.4780 C   0  0  0  0  0  0  0  0  0  0  0  0
  145.5750  160.4820  132.8500 N   0  0  0  0  0  0  0  0  0  0  0  0
  143.9590  159.3710  134.0930 O   0  0  0  0  0  0  0  0  0  0  0  0
  145.1010  156.7820  133.4570 C   0  0  0  0  0  0  0  0  0  0  0  0
  146.0750  155.8380  133.2330 C   0  0  0  0  0  0  0  0  0  0  0  0
  145.9870  154.4490  133.2160 C   0  0  0  0  0  0  0  0  0  0  0  0
  147.1640  153.7160  132.9900 C   0  0  0  0  0  0  0  0  0  0  0  0
  148.4010  154.3800  132.8010 C   0  0  0  0  0  0  0  0  0  0  0  0
  149.6570  153.5860  132.5460 C   0  0  0  0  0  0  0  0  0  0  0  0
  149.3560  152.1070  132.2690 C   0  0  0  0  0  0  0  0  0  0  0  0
  149.6860  151.2080  133.4660 C   0  0  0  0  0  0  0  0  0  0  0  0
  148.8790  150.0630  133.4470 O   0  0  0  0  0  0  0  0  0  0  0  0
  148.4530  155.7910  132.8220 C   0  0  0  0  0  0  0  0  0  0  0  0
  147.2610  156.4960  133.0260 C   0  0  0  0  0  0  0  0  0  0  0  0
  149.6194  161.7800  131.0229 H   0  0  0  0  0  0  0  0  0  0  0  0
  150.4490  160.9091  129.6887 H   0  0  0  0  0  0  0  0  0  0  0  0
  148.6588  161.0561  129.6887 H   0  0  0  0  0  0  0  0  0  0  0  0
  149.4302  158.7867  130.4022 H   0  0  0  0  0  0  0  0  0  0  0  0
  150.3079  159.5525  131.7810 H   0  0  0  0  0  0  0  0  0  0  0  0
  146.3840  160.4290  132.1910 H   0  0  0  0  0  0  0  0  0  0  0  0
  145.0940  161.4000  132.9760 H   0  0  0  0  0  0  0  0  0  0  0  0
  144.0355  156.6050  133.6653 H   0  0  0  0  0  0  0  0  0  0  0  0
  145.0246  153.9404  133.3748 H   0  0  0  0  0  0  0  0  0  0  0  0
  147.1247  152.6171  132.9596 H   0  0  0  0  0  0  0  0  0  0  0  0
  150.1757  154.0121  131.6746 H   0  0  0  0  0  0  0  0  0  0  0  0
  150.2833  153.6419  133.4485 H   0  0  0  0  0  0  0  0  0  0  0  0
  148.2867  152.0025  132.0332 H   0  0  0  0  0  0  0  0  0  0  0  0
  149.9881  151.7887  131.4269 H   0  0  0  0  0  0  0  0  0  0  0  0
  150.7432  150.9085  133.4151 H   0  0  0  0  0  0  0  0  0  0  0  0
  149.4982  151.7646  134.3960 H   0  0  0  0  0  0  0  0  0  0  0  0
  148.1470  150.2210  134.1010 H   0  0  0  0  0  0  0  0  0  0  0  0
  149.4058  156.3225  132.6817 H   0  0  0  0  0  0  0  0  0  0  0  0
  1  2  1  0
  2  3  1  0
  3  4  1  0
  4  5  2  0
  4  6  1  0
  6  7  1  0
  7  8  1  0
  8  9  1  0
  8 10  2  0
  7 11  2  0
 11 12  1  0
 12 13  2  0
 13 14  1  0
 14 15  2  0
 15 16  1  0
 16 17  1  0
 17 18  1  0
 18 19  1  0
 15 20  1  0
 20 21  2  0
 21  6  1  0
 21 12  1  0
  1 22  1  0
  1 23  1  0
  1 24  1  0
  2 25  1  0
  2 26  1  0
  9 27  1  0
  9 28  1  0
 11 29  1  0
 13 30  1  0
 14 31  1  0
 16 32  1  0
 16 33  1  0
 17 34  1  0
 17 35  1  0
 18 36  1  0
 18 37  1  0
 19 38  1  0
 20 39  1  0
M  END
>  <UniqueID>  (52) 
52

>  <SMILES>  (52) 
CCOC(=O)n1c(C(N)=O)cc2ccc(CCCO)cc21

>  <Energy>  (52) 
69.40336089226126

>  <Genealogy>  (52) 
CCOC(=O)n1c(C(N)=O)cc2ccc(CCCO)cc21 (3D coordinates assigned)
CCOC(=O)n1c(C(N)=O)cc2ccc(CCCO)cc21 (optimized conformer: 69.40336089226126 kcal/mol)

>  <smiles>  (52) 
CCOC(=O)n1c(C(N)=O)cc2ccc(CCCO)cc21

>  <score_type>  (52) 
oracle

>  <origin>  (52) 
adg

>  <m_score__min__energy>  (52) 
-6.9699999999999998

>  <m_primary>  (52) 
energy

$$$$
52:0
     RDKit          3D

 44 46  0  0  0  0  0  0  0  0999 V2000
  142.8650  151.6670  133.7250 N   0  0  0  0  0  0  0  0  0  0  0  0
  141.6470  152.1860  133.1970 C   0  0  0  0  0  0  0  0  0  0  0  0
  140.8620  151.4130  132.5870 O   0  0  0  0  0  0  0  0  0  0  0  0
  141.2840  153.6080  133.3740 C   0  0  0  0  0  0  0  0  0  0  0  0
  140.0690  154.1580  132.9660 C   0  0  0  0  0  0  0  0  0  0  0  0
  140.1140  155.4780  133.3620 C   0  0  0  0  0  0  0  0  0  0  0  0
  139.1680  156.4910  133.2270 C   0  0  0  0  0  0  0  0  0  0  0  0
  139.4890  157.7610  133.7380 C   0  0  0  0  0  0  0  0  0  0  0  0
  140.7440  157.9970  134.3550 C   0  0  0  0  0  0  0  0  0  0  0  0
  141.0600  159.3420  134.9420 C   0  0  0  0  0  0  0  0  0  0  0  0
  140.6970  159.3480  136.7250 P   0  0  2  0  0  0  0  0  0  0  0  0
  140.2330  160.7230  137.1460 O   0  0  0  0  0  0  0  0  0  0  0  0
  142.0980  158.9420  137.5800 O   0  0  0  0  0  0  0  0  0  0  0  0
  139.4850  158.2140  137.0610 O   0  0  0  0  0  0  0  0  0  0  0  0
  141.6770  156.9440  134.4710 C   0  0  0  0  0  0  0  0  0  0  0  0
  141.3210  155.6880  133.9720 C   0  0  0  0  0  0  0  0  0  0  0  0
  142.0450  154.5510  133.9950 N   0  0  0  0  0  0  0  0  0  0  0  0
  143.3720  154.4080  134.5210 C   0  0  0  0  0  0  0  0  0  0  0  0
  143.5270  153.8920  135.6610 O   0  0  0  0  0  0  0  0  0  0  0  0
  144.5170  154.8480  133.7590 N   0  0  0  0  0  0  0  0  0  0  0  0
  144.6410  156.2750  133.4190 C   0  0  0  0  0  0  0  0  0  0  0  0
  146.0620  156.7920  133.6760 C   0  0  0  0  0  0  0  0  0  0  0  0
  147.1050  156.2630  132.6850 C   0  0  0  0  0  0  0  0  0  0  0  0
  148.0850  154.8660  133.3500 S   0  0  0  0  0  0  0  0  0  0  0  0
  146.7720  153.6750  133.8590 C   0  0  0  0  0  0  0  0  0  0  0  0
  145.4030  153.8210  133.1710 C   0  0  0  0  0  0  0  0  0  0  0  0
  143.2510  152.0160  134.6300 H   0  0  0  0  0  0  0  0  0  0  0  0
  139.2490  153.6472  132.4400 H   0  0  0  0  0  0  0  0  0  0  0  0
  138.2013  156.3038  132.7367 H   0  0  0  0  0  0  0  0  0  0  0  0
  138.7591  158.5801  133.6584 H   0  0  0  0  0  0  0  0  0  0  0  0
  142.1259  159.5651  134.7871 H   0  0  0  0  0  0  0  0  0  0  0  0
  140.4417  160.1050  134.4465 H   0  0  0  0  0  0  0  0  0  0  0  0
  138.7510  158.7400  137.4680 H   0  0  0  0  0  0  0  0  0  0  0  0
  142.6578  157.1076  134.9414 H   0  0  0  0  0  0  0  0  0  0  0  0
  144.3979  156.4115  132.3549 H   0  0  0  0  0  0  0  0  0  0  0  0
  143.9464  156.8432  134.0551 H   0  0  0  0  0  0  0  0  0  0  0  0
  146.0480  157.8900  133.6107 H   0  0  0  0  0  0  0  0  0  0  0  0
  146.3572  156.4315  134.6724 H   0  0  0  0  0  0  0  0  0  0  0  0
  146.5848  155.9246  131.7768 H   0  0  0  0  0  0  0  0  0  0  0  0
  147.8056  157.0850  132.4766 H   0  0  0  0  0  0  0  0  0  0  0  0
  147.1432  152.6606  133.6511 H   0  0  0  0  0  0  0  0  0  0  0  0
  146.5856  153.8867  134.9222 H   0  0  0  0  0  0  0  0  0  0  0  0
  145.5766  154.0826  132.1168 H   0  0  0  0  0  0  0  0  0  0  0  0
  144.8879  152.8579  133.3017 H   0  0  0  0  0  0  0  0  0  0  0  0
  1  2  1  0
  2  3  2  0
  2  4  1  0
  4  5  2  0
  5  6  1  0
  6  7  2  0
  7  8  1  0
  8  9  2  0
  9 10  1  0
 10 11  1  0
 11 12  2  0
 11 13  1  1
 11 14  1  0
  9 15  1  0
 15 16  2  0
 16 17  1  0
 17 18  1  0
 18 19  2  0
 18 20  1  0
 20 21  1  0
 21 22  1  0
 22 23  1  0
 23 24  1  0
 24 25  1  0
 25 26  1  0
 17  4  1  0
 26 20  1  0
 16  6  1  0
  1 27  1  0
  5 28  1  0
  7 29  1  0
  8 30  1  0
 10 31  1  0
 10 32  1  0
 14 33  1  0
 15 34  1  0
 21 35  1  0
 21 36  1  0
 22 37  1  0
 22 38  1  0
 23 39  1  0
 23 40  1  0
 25 41  1  0
 25 42  1  0
 26 43  1  0
 26 44  1  0
M  CHG  2   1  -1  13  -1
M  END
>  <UniqueID>  (53) 
53

>  <SMILES>  (53) 
[NH-]C(=O)c1cc2ccc(C[P@](=O)([O-])O)cc2n1C(=O)N1CCCSCC1

>  <Energy>  (53) 
83.72622547353355

>  <Genealogy>  (53) 
[NH-]C(=O)c1cc2ccc(CP(=O)([O-])O)cc2n1C(=O)N1CCCSCC1 (protonated)
[NH-]C(=O)c1cc2ccc(C[P@](=O)([O-])O)cc2n1C(=O)N1CCCSCC1 (chirality)
[NH-]C(=O)c1cc2ccc(C[P@](=O)([O-])O)cc2n1C(=O)N1CCCSCC1 (3D coordinates assigned)
[NH-]C(=O)c1cc2ccc(C[P@](=O)([O-])O)cc2n1C(=O)N1CCCSCC1 (nonaromatic ring conformer: 83.72622547353355 kcal/mol)

>  <smiles>  (53) 
NC(=O)c1cc2ccc(CP(=O)(O)O)cc2n1C(=O)N1CCCSCC1

>  <score_type>  (53) 
oracle

>  <origin>  (53) 
adg

>  <m_score__min__energy>  (53) 
-5.6299999999999999

>  <m_primary>  (53) 
energy

$$$$
53:0
     RDKit          3D

 41 42  0  0  0  0  0  0  0  0999 V2000
  148.9770  159.0430  131.2130 C   0  0  0  0  0  0  0  0  0  0  0  0
  148.5060  158.9100  132.6260 C   0  0  0  0  0  0  0  0  0  0  0  0
  149.2180  159.3770  133.5560 O   0  0  0  0  0  0  0  0  0  0  0  0
  147.2470  158.2870  132.9340 N   0  0  0  0  0  0  0  0  0  0  0  0
  146.1100  158.8780  133.3980 C   0  0  0  0  0  0  0  0  0  0  0  0
  145.8750  160.3310  133.5150 C   0  0  0  0  0  0  0  0  0  0  0  0
  146.9560  161.2400  133.7280 N   0  0  0  0  0  0  0  0  0  0  0  0
  144.7080  160.7830  133.3710 O   0  0  0  0  0  0  0  0  0  0  0  0
  145.1470  157.9180  133.7000 C   0  0  0  0  0  0  0  0  0  0  0  0
  145.7280  156.7110  133.3880 C   0  0  0  0  0  0  0  0  0  0  0  0
  145.2250  155.4190  133.5010 C   0  0  0  0  0  0  0  0  0  0  0  0
  146.0600  154.3510  133.1340 C   0  0  0  0  0  0  0  0  0  0  0  0
  147.3810  154.5890  132.6650 C   0  0  0  0  0  0  0  0  0  0  0  0
  148.2630  153.5100  132.2940 N   0  0  0  0  0  0  0  0  0  0  0  0
  149.6020  153.3040  132.8470 C   0  0  0  0  0  0  0  0  0  0  0  0
  149.9800  151.8190  132.8050 C   0  0  0  0  0  0  0  0  0  0  0  0
  149.2710  151.1320  131.7030 N   0  0  0  0  0  0  0  0  0  0  0  0
  148.2460  150.2250  132.2440 C   0  0  0  0  0  0  0  0  0  0  0  0
  150.2120  150.3630  130.8700 C   0  0  0  0  0  0  0  0  0  0  0  0
  147.8530  155.9160  132.5720 C   0  0  0  0  0  0  0  0  0  0  0  0
  146.9930  156.9600  132.9290 C   0  0  0  0  0  0  0  0  0  0  0  0
  150.0356  159.3419  131.2060 H   0  0  0  0  0  0  0  0  0  0  0  0
  148.8650  158.0781  130.6968 H   0  0  0  0  0  0  0  0  0  0  0  0
  148.3769  159.8068  130.6968 H   0  0  0  0  0  0  0  0  0  0  0  0
  147.9480  160.9180  133.6830 H   0  0  0  0  0  0  0  0  0  0  0  0
  146.7670  162.2590  133.8510 H   0  0  0  0  0  0  0  0  0  0  0  0
  144.1375  158.0887  134.1021 H   0  0  0  0  0  0  0  0  0  0  0  0
  144.2034  155.2391  133.8670 H   0  0  0  0  0  0  0  0  0  0  0  0
  145.6878  153.3187  133.2103 H   0  0  0  0  0  0  0  0  0  0  0  0
  147.9360  152.8270  131.5730 H   0  0  0  0  0  0  0  0  0  0  0  0
  150.3298  153.8792  132.2559 H   0  0  0  0  0  0  0  0  0  0  0  0
  149.6096  153.6426  133.8936 H   0  0  0  0  0  0  0  0  0  0  0  0
  151.0651  151.7264  132.6499 H   0  0  0  0  0  0  0  0  0  0  0  0
  149.6906  151.3524  133.7581 H   0  0  0  0  0  0  0  0  0  0  0  0
  148.2761  150.2517  133.3433 H   0  0  0  0  0  0  0  0  0  0  0  0
  147.2527  150.5453  131.8966 H   0  0  0  0  0  0  0  0  0  0  0  0
  148.4431  149.2001  131.8966 H   0  0  0  0  0  0  0  0  0  0  0  0
  150.9002  149.8006  131.5181 H   0  0  0  0  0  0  0  0  0  0  0  0
  149.6508  149.6617  130.2350 H   0  0  0  0  0  0  0  0  0  0  0  0
  150.7875  151.0526  130.2350 H   0  0  0  0  0  0  0  0  0  0  0  0
  148.8760  156.1249  132.2259 H   0  0  0  0  0  0  0  0  0  0  0  0
  1  2  1  0
  2  3  2  0
  2  4  1  0
  4  5  1  0
  5  6  1  0
  6  7  1  0
  6  8  2  0
  5  9  2  0
  9 10  1  0
 10 11  2  0
 11 12  1  0
 12 13  2  0
 13 14  1  0
 14 15  1  0
 15 16  1  0
 16 17  1  0
 17 18  1  0
 17 19  1  0
 13 20  1  0
 20 21  2  0
 21  4  1  0
 21 10  1  0
  1 22  1  0
  1 23  1  0
  1 24  1  0
  7 25  1  0
  7 26  1  0
  9 27  1  0
 11 28  1  0
 12 29  1  0
 14 30  1  0
 15 31  1  0
 15 32  1  0
 16 33  1  0
 16 34  1  0
 18 35  1  0
 18 36  1  0
 18 37  1  0
 19 38  1  0
 19 39  1  0
 19 40  1  0
 20 41  1  0
M  END
>  <UniqueID>  (54) 
54

>  <SMILES>  (54) 
CC(=O)n1c(C(N)=O)cc2ccc(NCCN(C)C)cc21

>  <Energy>  (54) 
78.44626382589274

>  <Genealogy>  (54) 
CC(=O)n1c(C(N)=O)cc2ccc(NCCN(C)C)cc21 (3D coordinates assigned)
CC(=O)n1c(C(N)=O)cc2ccc(NCCN(C)C)cc21 (optimized conformer: 78.44626382589274 kcal/mol)

>  <smiles>  (54) 
CC(=O)n1c(C(N)=O)cc2ccc(NCCN(C)C)cc21

>  <score_type>  (54) 
oracle

>  <origin>  (54) 
adg

>  <m_score__min__energy>  (54) 
-6.7199999999999998

>  <m_primary>  (54) 
energy

$$$$
54:0
     RDKit          3D

 62 64  0  0  0  0  0  0  0  0999 V2000
  144.6750  152.0890  132.6140 C   0  0  0  0  0  0  0  0  0  0  0  0
  145.3250  153.4650  132.8220 C   0  0  0  0  0  0  0  0  0  0  0  0
  144.7430  154.4530  131.7930 C   0  0  0  0  0  0  0  0  0  0  0  0
  145.0330  153.9410  134.2580 C   0  0  0  0  0  0  0  0  0  0  0  0
  146.7360  153.3010  132.6230 O   0  0  0  0  0  0  0  0  0  0  0  0
  147.7550  153.9620  133.3280 C   0  0  0  0  0  0  0  0  0  0  0  0
  147.9500  153.7480  134.5540 O   0  0  0  0  0  0  0  0  0  0  0  0
  148.6500  154.9050  132.5920 C   0  0  0  0  0  0  0  0  0  0  0  0
  148.1780  156.3180  132.7980 C   0  0  0  0  0  0  0  0  0  0  0  0
  149.1090  157.3860  132.7520 C   0  0  0  0  0  0  0  0  0  0  0  0
  148.6820  158.7140  132.9170 C   0  0  0  0  0  0  0  0  0  0  0  0
  147.3230  158.9420  133.1110 C   0  0  0  0  0  0  0  0  0  0  0  0
  146.6510  160.1200  133.3430 C   0  0  0  0  0  0  0  0  0  0  0  0
  145.3150  159.7560  133.4920 C   0  0  0  0  0  0  0  0  0  0  0  0
  144.2310  160.7320  133.7310 C   0  0  0  0  0  0  0  0  0  0  0  0
  142.8610  160.3830  133.5260 N   0  0  0  0  0  0  0  0  0  0  0  0
  144.5220  161.9100  134.0700 O   0  0  0  0  0  0  0  0  0  0  0  0
  145.1640  158.4080  133.3660 N   0  0  0  0  0  0  0  0  0  0  0  0
  143.9760  157.6410  133.6250 C   0  0  0  0  0  0  0  0  0  0  0  0
  143.0720  157.5530  132.7500 O   0  0  0  0  0  0  0  0  0  0  0  0
  143.8400  156.9790  134.8480 O   0  0  0  0  0  0  0  0  0  0  0  0
  142.6210  156.3880  135.2840 C   0  0  0  0  0  0  0  0  0  0  0  0
  141.6870  157.4840  135.7770 C   0  0  0  0  0  0  0  0  0  0  0  0
  141.7310  158.5620  134.8600 O   0  0  0  0  0  0  0  0  0  0  0  0
  140.4770  159.2220  134.7710 C   0  0  2  0  0  0  0  0  0  0  0  0
  139.3050  158.2370  135.0240 C   0  0  0  0  0  0  0  0  0  0  0  0
  138.7100  157.7000  133.7170 C   0  0  0  0  0  0  0  0  0  0  0  0
  139.7990  157.5480  132.6600 C   0  0  0  0  0  0  0  0  0  0  0  0
  140.5270  158.8920  132.4400 C   0  0  0  0  0  0  0  0  0  0  0  0
  140.3420  159.8290  133.4950 O   0  0  0  0  0  0  0  0  0  0  0  0
  146.4040  157.9220  133.1310 C   0  0  0  0  0  0  0  0  0  0  0  0
  146.8050  156.5880  132.9870 C   0  0  0  0  0  0  0  0  0  0  0  0
  144.4598  151.6335  133.5919 H   0  0  0  0  0  0  0  0  0  0  0  0
  143.7377  152.2076  132.0506 H   0  0  0  0  0  0  0  0  0  0  0  0
  145.3619  151.4404  132.0506 H   0  0  0  0  0  0  0  0  0  0  0  0
  144.2529  155.2849  132.3200 H   0  0  0  0  0  0  0  0  0  0  0  0
  145.5541  154.8456  131.1622 H   0  0  0  0  0  0  0  0  0  0  0  0
  144.0064  153.9339  131.1622 H   0  0  0  0  0  0  0  0  0  0  0  0
  145.4689  153.2304  134.9756 H   0  0  0  0  0  0  0  0  0  0  0  0
  145.4764  154.9359  134.4118 H   0  0  0  0  0  0  0  0  0  0  0  0
  143.9452  153.9966  134.4118 H   0  0  0  0  0  0  0  0  0  0  0  0
  149.6778  154.8041  132.9707 H   0  0  0  0  0  0  0  0  0  0  0  0
  148.6263  154.6662  131.5185 H   0  0  0  0  0  0  0  0  0  0  0  0
  150.1753  157.1729  132.5856 H   0  0  0  0  0  0  0  0  0  0  0  0
  149.3994  159.5476  132.8936 H   0  0  0  0  0  0  0  0  0  0  0  0
  147.0776  161.1324  133.3988 H   0  0  0  0  0  0  0  0  0  0  0  0
  142.1060  161.0670  133.7550 H   0  0  0  0  0  0  0  0  0  0  0  0
  142.5950  159.4770  133.0800 H   0  0  0  0  0  0  0  0  0  0  0  0
  142.1508  155.8520  134.4464 H   0  0  0  0  0  0  0  0  0  0  0  0
  142.8233  155.6778  136.0993 H   0  0  0  0  0  0  0  0  0  0  0  0
  140.6603  157.0944  135.8418 H   0  0  0  0  0  0  0  0  0  0  0  0
  142.0022  157.8258  136.7739 H   0  0  0  0  0  0  0  0  0  0  0  0
  140.4391  159.9987  135.5491 H   0  0  0  0  0  0  0  0  0  0  0  0
  139.6761  157.3896  135.6192 H   0  0  0  0  0  0  0  0  0  0  0  0
  138.5129  158.7831  135.5573 H   0  0  0  0  0  0  0  0  0  0  0  0
  138.2480  156.7196  133.9050 H   0  0  0  0  0  0  0  0  0  0  0  0
  137.9540  158.4102  133.3508 H   0  0  0  0  0  0  0  0  0  0  0  0
  140.5255  156.7927  132.9942 H   0  0  0  0  0  0  0  0  0  0  0  0
  139.3358  157.2339  131.7130 H   0  0  0  0  0  0  0  0  0  0  0  0
  141.6038  158.6902  132.3412 H   0  0  0  0  0  0  0  0  0  0  0  0
  140.0962  159.3431  131.5340 H   0  0  0  0  0  0  0  0  0  0  0  0
  146.0690  155.7712  133.0203 H   0  0  0  0  0  0  0  0  0  0  0  0
  1  2  1  0
  2  3  1  0
  2  4  1  0
  2  5  1  0
  5  6  1  0
  6  7  2  0
  6  8  1  0
  8  9  1  0
  9 10  2  0
 10 11  1  0
 11 12  2  0
 12 13  1  0
 13 14  2  0
 14 15  1  0
 15 16  1  0
 15 17  2  0
 14 18  1  0
 18 19  1  0
 19 20  2  0
 19 21  1  0
 21 22  1  0
 22 23  1  0
 23 24  1  0
 24 25  1  0
 25 26  1  0
 26 27  1  0
 27 28  1  0
 28 29  1  0
 29 30  1  0
 18 31  1  0
 31 32  2  0
 32  9  1  0
 31 12  1  0
 30 25  1  0
  1 33  1  0
  1 34  1  0
  1 35  1  0
  3 36  1  0
  3 37  1  0
  3 38  1  0
  4 39  1  0
  4 40  1  0
  4 41  1  0
  8 42  1  0
  8 43  1  0
 10 44  1  0
 11 45  1  0
 13 46  1  0
 16 47  1  0
 16 48  1  0
 22 49  1  0
 22 50  1  0
 23 51  1  0
 23 52  1  0
 25 53  1  1
 26 54  1  0
 26 55  1  0
 27 56  1  0
 27 57  1  0
 28 58  1  0
 28 59  1  0
 29 60  1  0
 29 61  1  0
 32 62  1  0
M  END
>  <UniqueID>  (55) 
55

>  <SMILES>  (55) 
CC(C)(C)OC(=O)Cc1ccc2cc(C(N)=O)n(C(=O)OCCO[C@@H]3CCCCO3)c2c1

>  <Energy>  (55) 
99.09430351287224

>  <Genealogy>  (55) 
CC(C)(C)OC(=O)Cc1ccc2cc(C(N)=O)n(C(=O)OCCO[C@@H]3CCCCO3)c2c1 (chirality)
CC(C)(C)OC(=O)Cc1ccc2cc(C(N)=O)n(C(=O)OCCO[C@@H]3CCCCO3)c2c1 (3D coordinates assigned)
CC(C)(C)OC(=O)Cc1ccc2cc(C(N)=O)n(C(=O)OCCO[C@@H]3CCCCO3)c2c1 (nonaromatic ring conformer: 99.09430351287224 kcal/mol)

>  <smiles>  (55) 
CC(C)(C)OC(=O)Cc1ccc2cc(C(N)=O)n(C(=O)OCCOC3CCCCO3)c2c1

>  <score_type>  (55) 
oracle

>  <origin>  (55) 
adg

>  <m_score__min__energy>  (55) 
-8.6699999999999999

>  <m_primary>  (55) 
energy

$$$$
55:0
     RDKit          3D

 48 50  0  0  0  0  0  0  0  0999 V2000
  149.5700  162.1760  130.3290 C   0  0  0  0  0  0  0  0  0  0  0  0
  148.8220  160.9960  130.5090 O   0  0  0  0  0  0  0  0  0  0  0  0
  149.6190  160.0340  131.1690 C   0  0  0  0  0  0  0  0  0  0  0  0
  148.9450  159.6300  132.4800 C   0  0  0  0  0  0  0  0  0  0  0  0
  147.5390  160.0370  132.4940 N   0  0  0  0  0  0  0  0  0  0  0  0
  146.4570  159.2360  133.0140 C   0  0  0  0  0  0  0  0  0  0  0  0
  145.1010  159.6630  132.9450 C   0  0  0  0  0  0  0  0  0  0  0  0
  144.0660  158.8480  133.4330 C   0  0  0  0  0  0  0  0  0  0  0  0
  144.4060  157.6170  133.9840 C   0  0  0  0  0  0  0  0  0  0  0  0
  143.6040  156.6180  134.4880 C   0  0  0  0  0  0  0  0  0  0  0  0
  144.4770  155.5970  134.8690 C   0  0  0  0  0  0  0  0  0  0  0  0
  144.0610  154.3350  135.5330 C   0  0  0  0  0  0  0  0  0  0  0  0
  144.6780  153.8970  136.7510 N   0  0  0  0  0  0  0  0  0  0  0  0
  143.1700  153.6130  135.0100 O   0  0  0  0  0  0  0  0  0  0  0  0
  145.7650  155.9620  134.6120 N   0  0  0  0  0  0  0  0  0  0  0  0
  146.9580  155.1860  134.7980 C   0  0  0  0  0  0  0  0  0  0  0  0
  147.7300  154.9860  133.8220 O   0  0  0  0  0  0  0  0  0  0  0  0
  147.2410  154.6420  136.0550 O   0  0  0  0  0  0  0  0  0  0  0  0
  148.3710  153.8140  136.3270 C   0  0  0  0  0  0  0  0  0  0  0  0
  148.0220  152.7600  137.3860 C   0  0  1  0  0  0  0  0  0  0  0  0
  148.4940  153.1240  138.8160 C   0  0  0  0  0  0  0  0  0  0  0  0
  147.3230  152.7850  139.7460 C   0  0  0  0  0  0  0  0  0  0  0  0
  146.2140  152.5780  138.7980 C   0  0  0  0  0  0  0  0  0  0  0  0
  145.0200  152.3940  139.1440 O   0  0  0  0  0  0  0  0  0  0  0  0
  146.6180  152.6080  137.4840 O   0  0  0  0  0  0  0  0  0  0  0  0
  145.7040  157.1960  134.0720 C   0  0  0  0  0  0  0  0  0  0  0  0
  146.7560  157.9790  133.5860 C   0  0  0  0  0  0  0  0  0  0  0  0
  149.8357  162.5951  131.3107 H   0  0  0  0  0  0  0  0  0  0  0  0
  150.4878  161.9463  129.7678 H   0  0  0  0  0  0  0  0  0  0  0  0
  148.9707  162.9080  129.7678 H   0  0  0  0  0  0  0  0  0  0  0  0
  149.7327  159.1483  130.5266 H   0  0  0  0  0  0  0  0  0  0  0  0
  150.6101  160.4611  131.3816 H   0  0  0  0  0  0  0  0  0  0  0  0
  149.0044  158.5375  132.5933 H   0  0  0  0  0  0  0  0  0  0  0  0
  149.4636  160.1322  133.3100 H   0  0  0  0  0  0  0  0  0  0  0  0
  147.3210  160.9970  132.1440 H   0  0  0  0  0  0  0  0  0  0  0  0
  144.8608  160.6420  132.5047 H   0  0  0  0  0  0  0  0  0  0  0  0
  143.0167  159.1741  133.3808 H   0  0  0  0  0  0  0  0  0  0  0  0
  142.5073  156.6230  134.5727 H   0  0  0  0  0  0  0  0  0  0  0  0
  145.4300  154.4460  137.2220 H   0  0  0  0  0  0  0  0  0  0  0  0
  144.3950  152.9890  137.1790 H   0  0  0  0  0  0  0  0  0  0  0  0
  148.6803  153.3079  135.4006 H   0  0  0  0  0  0  0  0  0  0  0  0
  149.1897  154.4428  136.7070 H   0  0  0  0  0  0  0  0  0  0  0  0
  148.5365  151.8484  137.0480 H   0  0  0  0  0  0  0  0  0  0  0  0
  149.3813  152.5334  139.0876 H   0  0  0  0  0  0  0  0  0  0  0  0
  148.7737  154.1852  138.8903 H   0  0  0  0  0  0  0  0  0  0  0  0
  147.5265  151.8724  140.3254 H   0  0  0  0  0  0  0  0  0  0  0  0
  147.1193  153.5627  140.4968 H   0  0  0  0  0  0  0  0  0  0  0  0
  147.7951  157.6235  133.6478 H   0  0  0  0  0  0  0  0  0  0  0  0
  1  2  1  0
  2  3  1  0
  3  4  1  0
  4  5  1  0
  5  6  1  0
  6  7  2  0
  7  8  1  0
  8  9  2  0
  9 10  1  0
 10 11  2  0
 11 12  1  0
 12 13  1  0
 12 14  2  0
 11 15  1  0
 15 16  1  0
 16 17  2  0
 16 18  1  0
 18 19  1  0
 19 20  1  0
 20 21  1  0
 21 22  1  0
 22 23  1  0
 23 24  2  0
 23 25  1  0
 15 26  1  0
 26 27  2  0
 27  6  1  0
 26  9  1  0
 25 20  1  0
  1 28  1  0
  1 29  1  0
  1 30  1  0
  3 31  1  0
  3 32  1  0
  4 33  1  0
  4 34  1  0
  5 35  1  0
  7 36  1  0
  8 37  1  0
 10 38  1  0
 13 39  1  0
 13 40  1  0
 19 41  1  0
 19 42  1  0
 20 43  1  6
 21 44  1  0
 21 45  1  0
 22 46  1  0
 22 47  1  0
 27 48  1  0
M  END
>  <UniqueID>  (56) 
56

>  <SMILES>  (56) 
COCCNc1ccc2cc(C(N)=O)n(C(=O)OC[C@H]3CCC(=O)O3)c2c1

>  <Energy>  (56) 
92.46707352641808

>  <Genealogy>  (56) 
COCCNc1ccc2cc(C(N)=O)n(C(=O)OC[C@H]3CCC(=O)O3)c2c1 (chirality)
COCCNc1ccc2cc(C(N)=O)n(C(=O)OC[C@H]3CCC(=O)O3)c2c1 (3D coordinates assigned)
COCCNc1ccc2cc(C(N)=O)n(C(=O)OC[C@H]3CCC(=O)O3)c2c1 (nonaromatic ring conformer: 92.46707352641808 kcal/mol)

>  <smiles>  (56) 
COCCNc1ccc2cc(C(N)=O)n(C(=O)OCC3CCC(=O)O3)c2c1

>  <score_type>  (56) 
oracle

>  <origin>  (56) 
adg

>  <m_score__min__energy>  (56) 
-7.4299999999999997

>  <m_primary>  (56) 
energy

$$$$
56:0
     RDKit          3D

 42 44  0  0  0  0  0  0  0  0999 V2000
  148.1620  149.8370  132.6080 C   0  0  0  0  0  0  0  0  0  0  0  0
  149.1320  150.8750  132.5190 O   0  0  0  0  0  0  0  0  0  0  0  0
  148.8050  152.2290  132.6400 C   0  0  0  0  0  0  0  0  0  0  0  0
  147.5370  152.6130  132.9480 N   0  0  0  0  0  0  0  0  0  0  0  0
  147.2070  153.9240  133.0660 C   0  0  0  0  0  0  0  0  0  0  0  0
  148.1810  154.9160  132.8740 C   0  0  0  0  0  0  0  0  0  0  0  0
  147.8460  156.3570  133.0000 C   0  0  0  0  0  0  0  0  0  0  0  0
  148.8490  157.3450  132.8190 C   0  0  0  0  0  0  0  0  0  0  0  0
  148.5400  158.7120  132.9230 C   0  0  0  0  0  0  0  0  0  0  0  0
  147.2280  159.0630  133.2170 C   0  0  0  0  0  0  0  0  0  0  0  0
  146.6520  160.3070  133.3460 C   0  0  0  0  0  0  0  0  0  0  0  0
  145.3100  160.0650  133.6280 C   0  0  0  0  0  0  0  0  0  0  0  0
  144.3370  161.1380  133.9250 C   0  0  0  0  0  0  0  0  0  0  0  0
  142.9560  160.8430  134.1120 N   0  0  0  0  0  0  0  0  0  0  0  0
  144.7380  162.3230  134.0650 O   0  0  0  0  0  0  0  0  0  0  0  0
  145.0620  158.7260  133.6650 N   0  0  0  0  0  0  0  0  0  0  0  0
  143.7930  158.0740  133.8270 C   0  0  0  0  0  0  0  0  0  0  0  0
  143.5860  157.3370  134.8300 O   0  0  0  0  0  0  0  0  0  0  0  0
  142.7970  158.2440  132.8610 O   0  0  0  0  0  0  0  0  0  0  0  0
  141.5240  157.6140  132.9480 C   0  0  0  0  0  0  0  0  0  0  0  0
  140.5750  158.4790  133.7720 C   0  0  0  0  0  0  0  0  0  0  0  0
  141.1780  158.8570  134.9800 O   0  0  0  0  0  0  0  0  0  0  0  0
  146.2480  158.1260  133.4140 C   0  0  0  0  0  0  0  0  0  0  0  0
  146.5210  156.7580  133.2970 C   0  0  0  0  0  0  0  0  0  0  0  0
  149.4820  154.4950  132.5590 C   0  0  0  0  0  0  0  0  0  0  0  0
  149.7660  153.1710  132.4480 N   0  0  0  0  0  0  0  0  0  0  0  0
  147.9564  149.6170  133.6660 H   0  0  0  0  0  0  0  0  0  0  0  0
  147.2338  150.1592  132.1134 H   0  0  0  0  0  0  0  0  0  0  0  0
  148.5462  148.9327  132.1134 H   0  0  0  0  0  0  0  0  0  0  0  0
  146.1738  154.2098  133.3127 H   0  0  0  0  0  0  0  0  0  0  0  0
  149.8808  157.0369  132.5946 H   0  0  0  0  0  0  0  0  0  0  0  0
  149.3131  159.4806  132.7762 H   0  0  0  0  0  0  0  0  0  0  0  0
  147.1469  161.2844  133.2472 H   0  0  0  0  0  0  0  0  0  0  0  0
  142.5470  159.9440  133.7720 H   0  0  0  0  0  0  0  0  0  0  0  0
  141.1122  157.4814  131.9366 H   0  0  0  0  0  0  0  0  0  0  0  0
  141.6363  156.6335  133.4338 H   0  0  0  0  0  0  0  0  0  0  0  0
  140.3175  159.3814  133.1982 H   0  0  0  0  0  0  0  0  0  0  0  0
  139.6673  157.8986  133.9941 H   0  0  0  0  0  0  0  0  0  0  0  0
  142.1380  159.0130  134.7820 H   0  0  0  0  0  0  0  0  0  0  0  0
  145.7244  156.0117  133.4327 H   0  0  0  0  0  0  0  0  0  0  0  0
  150.2755  155.2403  132.4012 H   0  0  0  0  0  0  0  0  0  0  0  0
  150.7390  152.8740  132.2080 H   0  0  0  0  0  0  0  0  0  0  0  0
  1  2  1  0
  2  3  1  0
  3  4  2  0
  4  5  1  0
  5  6  2  0
  6  7  1  0
  7  8  2  0
  8  9  1  0
  9 10  2  0
 10 11  1  0
 11 12  2  0
 12 13  1  0
 13 14  1  0
 13 15  2  0
 12 16  1  0
 16 17  1  0
 17 18  2  0
 17 19  1  0
 19 20  1  0
 20 21  1  0
 21 22  1  0
 16 23  1  0
 23 24  2  0
  6 25  1  0
 25 26  2  0
 26  3  1  0
 24  7  1  0
 23 10  1  0
  1 27  1  0
  1 28  1  0
  1 29  1  0
  5 30  1  0
  8 31  1  0
  9 32  1  0
 11 33  1  0
 14 34  1  0
 20 35  1  0
 20 36  1  0
 21 37  1  0
 21 38  1  0
 22 39  1  0
 24 40  1  0
 25 41  1  0
 26 42  1  0
M  CHG  2  14  -1  26   1
M  END
>  <UniqueID>  (57) 
57

>  <SMILES>  (57) 
COc1ncc(-c2ccc3cc(C([NH-])=O)n(C(=O)OCCO)c3c2)c[nH+]1

>  <Energy>  (57) 
82.31890834211349

>  <Genealogy>  (57) 
COc1ncc(-c2ccc3cc(C([NH-])=O)n(C(=O)OCCO)c3c2)c[nH+]1 (protonated)
COc1ncc(-c2ccc3cc(C([NH-])=O)n(C(=O)OCCO)c3c2)c[nH+]1 (3D coordinates assigned)
COc1ncc(-c2ccc3cc(C([NH-])=O)n(C(=O)OCCO)c3c2)c[nH+]1 (optimized conformer: 82.31890834211349 kcal/mol)

>  <smiles>  (57) 
COc1ncc(-c2ccc3cc(C(N)=O)n(C(=O)OCCO)c3c2)cn1

>  <score_type>  (57) 
oracle

>  <origin>  (57) 
adg

>  <m_score__min__energy>  (57) 
-6.9199999999999999

>  <m_primary>  (57) 
energy

$$$$
57:0
     RDKit          3D

 40 41  0  0  0  0  0  0  0  0999 V2000
  148.8170  157.9200  131.8300 N   0  0  0  0  0  0  0  0  0  0  0  0
  148.3740  158.7270  132.9190 C   0  0  0  0  0  0  0  0  0  0  0  0
  149.2250  159.3040  133.6450 O   0  0  0  0  0  0  0  0  0  0  0  0
  146.9260  158.8890  133.1740 C   0  0  0  0  0  0  0  0  0  0  0  0
  146.2860  160.1250  133.2590 C   0  0  0  0  0  0  0  0  0  0  0  0
  144.9710  159.8350  133.5470 C   0  0  0  0  0  0  0  0  0  0  0  0
  143.8850  160.6850  133.7340 C   0  0  0  0  0  0  0  0  0  0  0  0
  142.6330  160.1050  134.0050 C   0  0  0  0  0  0  0  0  0  0  0  0
  142.4890  158.6950  134.0630 C   0  0  0  0  0  0  0  0  0  0  0  0
  141.1520  158.0860  134.3770 C   0  0  0  0  0  0  0  0  0  0  0  0
  140.6400  158.5330  136.0640 P   0  0  0  0  0  0  0  0  0  0  0  0
  140.6240  160.0380  136.2120 O   0  0  0  0  0  0  0  0  0  0  0  0
  141.7330  157.8740  137.1720 O   0  0  0  0  0  0  0  0  0  0  0  0
  139.0940  157.9220  136.3700 O   0  0  0  0  0  0  0  0  0  0  0  0
  143.6150  157.8660  133.8710 C   0  0  0  0  0  0  0  0  0  0  0  0
  144.8500  158.4720  133.6260 C   0  0  0  0  0  0  0  0  0  0  0  0
  146.0430  157.8800  133.4050 N   0  0  0  0  0  0  0  0  0  0  0  0
  146.3010  156.4690  133.3920 C   0  0  0  0  0  0  0  0  0  0  0  0
  146.6420  155.9040  132.3180 O   0  0  0  0  0  0  0  0  0  0  0  0
  146.2450  155.6740  134.6630 C   0  0  0  0  0  0  0  0  0  0  0  0
  147.5270  154.8640  134.8410 C   0  0  0  0  0  0  0  0  0  0  0  0
  148.0230  155.0310  136.2040 N   0  0  0  0  0  0  0  0  0  0  0  0
  148.1300  153.4820  136.9800 S   0  0  0  0  0  0  0  0  0  0  0  0
  148.8510  152.5100  136.0880 O   0  0  0  0  0  0  0  0  0  0  0  0
  146.7510  152.9600  137.2760 O   0  0  0  0  0  0  0  0  0  0  0  0
  149.0290  153.6560  138.5050 C   0  0  0  0  0  0  0  0  0  0  0  0
  148.5950  154.7860  139.1740 F   0  0  0  0  0  0  0  0  0  0  0  0
  150.3790  153.7740  138.2360 F   0  0  0  0  0  0  0  0  0  0  0  0
  148.8160  152.5440  139.2970 F   0  0  0  0  0  0  0  0  0  0  0  0
  148.2400  157.1210  131.4840 H   0  0  0  0  0  0  0  0  0  0  0  0
  146.7358  161.1198  133.1246 H   0  0  0  0  0  0  0  0  0  0  0  0
  144.0024  161.7769  133.6717 H   0  0  0  0  0  0  0  0  0  0  0  0
  141.7580  160.7500  134.1734 H   0  0  0  0  0  0  0  0  0  0  0  0
  140.4055  158.4583  133.6599 H   0  0  0  0  0  0  0  0  0  0  0  0
  141.2296  156.9912  134.3033 H   0  0  0  0  0  0  0  0  0  0  0  0
  143.5227  156.7707  133.9132 H   0  0  0  0  0  0  0  0  0  0  0  0
  146.1285  156.3601  135.5149 H   0  0  0  0  0  0  0  0  0  0  0  0
  145.3903  154.9832  134.6145 H   0  0  0  0  0  0  0  0  0  0  0  0
  147.3175  153.8003  134.6548 H   0  0  0  0  0  0  0  0  0  0  0  0
  148.2865  155.2183  134.1285 H   0  0  0  0  0  0  0  0  0  0  0  0
  1  2  1  0
  2  3  2  0
  2  4  1  0
  4  5  2  0
  5  6  1  0
  6  7  2  0
  7  8  1  0
  8  9  2  0
  9 10  1  0
 10 11  1  0
 11 12  2  0
 11 13  1  0
 11 14  1  0
  9 15  1  0
 15 16  2  0
 16 17  1  0
 17 18  1  0
 18 19  2  0
 18 20  1  0
 20 21  1  0
 21 22  1  0
 22 23  1  0
 23 24  2  0
 23 25  2  0
 23 26  1  0
 26 27  1  0
 26 28  1  0
 26 29  1  0
 17  4  1  0
 16  6  1  0
  1 30  1  0
  5 31  1  0
  7 32  1  0
  8 33  1  0
 10 34  1  0
 10 35  1  0
 15 36  1  0
 20 37  1  0
 20 38  1  0
 21 39  1  0
 21 40  1  0
M  CHG  4   1  -1  13  -1  14  -1  22  -1
M  END
>  <UniqueID>  (58) 
58

>  <SMILES>  (58) 
[NH-]C(=O)c1cc2ccc(CP(=O)([O-])[O-])cc2n1C(=O)CC[N-]S(=O)(=O)C(F)(F)F

>  <Energy>  (58) 
64.66166810932616

>  <Genealogy>  (58) 
[NH-]C(=O)c1cc2ccc(CP(=O)([O-])[O-])cc2n1C(=O)CC[N-]S(=O)(=O)C(F)(F)F (protonated)
[NH-]C(=O)c1cc2ccc(CP(=O)([O-])[O-])cc2n1C(=O)CC[N-]S(=O)(=O)C(F)(F)F (3D coordinates assigned)
[NH-]C(=O)c1cc2ccc(CP(=O)([O-])[O-])cc2n1C(=O)CC[N-]S(=O)(=O)C(F)(F)F (optimized conformer: 64.66166810932616 kcal/mol)

>  <smiles>  (58) 
NC(=O)c1cc2ccc(CP(=O)(O)O)cc2n1C(=O)CCNS(=O)(=O)C(F)(F)F

>  <score_type>  (58) 
oracle

>  <origin>  (58) 
adg

>  <m_score__min__energy>  (58) 
-7.2699999999999996

>  <m_primary>  (58) 
energy

$$$$
58:0
     RDKit          3D

 66 68  0  0  0  0  0  0  0  0999 V2000
  144.1050  153.7270  132.3840 C   0  0  0  0  0  0  0  0  0  0  0  0
  143.3130  152.5650  132.9840 C   0  0  0  0  0  0  0  0  0  0  0  0
  142.1410  153.0240  133.8710 C   0  0  0  0  0  0  0  0  0  0  0  0
  140.9760  153.6600  133.1020 C   0  0  1  0  0  0  0  0  0  0  0  0
  139.9510  152.7460  132.9240 F   0  0  0  0  0  0  0  0  0  0  0  0
  140.4920  154.8140  133.7880 O   0  0  0  0  0  0  0  0  0  0  0  0
  139.9460  155.9130  133.1190 C   0  0  0  0  0  0  0  0  0  0  0  0
  138.7990  155.8390  132.6000 O   0  0  0  0  0  0  0  0  0  0  0  0
  140.7080  157.1220  132.9940 N   0  0  0  0  0  0  0  0  0  0  0  0
  140.2920  158.3300  132.5220 C   0  0  0  0  0  0  0  0  0  0  0  0
  138.9780  158.6180  131.9120 C   0  0  0  0  0  0  0  0  0  0  0  0
  137.7710  158.4470  132.6490 N   0  0  0  0  0  0  0  0  0  0  0  0
  138.9170  158.9780  130.7060 O   0  0  0  0  0  0  0  0  0  0  0  0
  141.3200  159.2670  132.6160 C   0  0  0  0  0  0  0  0  0  0  0  0
  142.3880  158.5870  133.1580 C   0  0  0  0  0  0  0  0  0  0  0  0
  143.6660  159.0320  133.4820 C   0  0  0  0  0  0  0  0  0  0  0  0
  144.5540  158.1150  134.0710 C   0  0  0  0  0  0  0  0  0  0  0  0
  144.1520  156.7800  134.3390 C   0  0  0  0  0  0  0  0  0  0  0  0
  145.0760  155.8320  135.0150 C   0  0  0  0  0  0  0  0  0  0  0  0
  146.4650  155.9360  134.8500 C   0  0  0  0  0  0  0  0  0  0  0  0
  147.3180  155.0130  135.4550 C   0  0  0  0  0  0  0  0  0  0  0  0
  146.7800  153.9740  136.2330 C   0  0  0  0  0  0  0  0  0  0  0  0
  147.5710  152.9950  136.8550 O   0  0  0  0  0  0  0  0  0  0  0  0
  147.4440  152.3840  138.4950 Si  0  0  0  0  0  4  0  0  0  0  0  0
  147.7370  150.5300  138.5320 C   0  0  0  0  0  0  0  0  0  0  0  0
  145.7500  152.7750  139.2020 C   0  0  0  0  0  0  0  0  0  0  0  0
  148.7850  153.2640  139.5210 C   0  0  0  0  0  0  0  0  0  0  0  0
  149.2310  152.3370  140.6660 C   0  0  0  0  0  0  0  0  0  0  0  0
  148.2010  154.5590  140.1140 C   0  0  0  0  0  0  0  0  0  0  0  0
  149.9980  153.6080  138.6370 C   0  0  0  0  0  0  0  0  0  0  0  0
  145.4300  153.9010  136.3950 N   0  0  0  0  0  0  0  0  0  0  0  0
  144.5800  154.7900  135.8140 C   0  0  0  0  0  0  0  0  0  0  0  0
  142.8460  156.3670  133.9830 C   0  0  0  0  0  0  0  0  0  0  0  0
  141.9900  157.2950  133.3790 C   0  0  0  0  0  0  0  0  0  0  0  0
  144.5242  154.3420  133.1940 H   0  0  0  0  0  0  0  0  0  0  0  0
  144.9225  153.3317  131.7632 H   0  0  0  0  0  0  0  0  0  0  0  0
  143.4382  154.3434  131.7632 H   0  0  0  0  0  0  0  0  0  0  0  0
  142.9111  151.9544  132.1620 H   0  0  0  0  0  0  0  0  0  0  0  0
  144.0030  151.9946  133.6232 H   0  0  0  0  0  0  0  0  0  0  0  0
  141.7572  152.1480  134.4145 H   0  0  0  0  0  0  0  0  0  0  0  0
  142.5386  153.8024  134.5389 H   0  0  0  0  0  0  0  0  0  0  0  0
  141.3466  153.9682  132.1132 H   0  0  0  0  0  0  0  0  0  0  0  0
  137.4680  157.5020  132.9720 H   0  0  0  0  0  0  0  0  0  0  0  0
  141.2854  160.3258  132.3198 H   0  0  0  0  0  0  0  0  0  0  0  0
  143.9721  160.0697  133.2833 H   0  0  0  0  0  0  0  0  0  0  0  0
  145.5742  158.4362  134.3277 H   0  0  0  0  0  0  0  0  0  0  0  0
  146.8839  156.7500  134.2401 H   0  0  0  0  0  0  0  0  0  0  0  0
  148.4068  155.0981  135.3237 H   0  0  0  0  0  0  0  0  0  0  0  0
  147.7910  150.1881  139.5761 H   0  0  0  0  0  0  0  0  0  0  0  0
  146.9087  150.0176  138.0208 H   0  0  0  0  0  0  0  0  0  0  0  0
  148.6830  150.2980  138.0208 H   0  0  0  0  0  0  0  0  0  0  0  0
  145.7997  152.7635  140.3008 H   0  0  0  0  0  0  0  0  0  0  0  0
  145.4307  153.7704  138.8598 H   0  0  0  0  0  0  0  0  0  0  0  0
  145.0267  152.0202  138.8598 H   0  0  0  0  0  0  0  0  0  0  0  0
  149.0028  152.8114  141.6319 H   0  0  0  0  0  0  0  0  0  0  0  0
  148.6951  151.3792  140.5922 H   0  0  0  0  0  0  0  0  0  0  0  0
  150.3138  152.1580  140.5922 H   0  0  0  0  0  0  0  0  0  0  0  0
  148.2261  154.5033  141.2123 H   0  0  0  0  0  0  0  0  0  0  0  0
  148.7985  155.4188  139.7767 H   0  0  0  0  0  0  0  0  0  0  0  0
  147.1610  154.6803  139.7767 H   0  0  0  0  0  0  0  0  0  0  0  0
  150.8596  153.8523  139.2757 H   0  0  0  0  0  0  0  0  0  0  0  0
  150.2455  152.7446  138.0019 H   0  0  0  0  0  0  0  0  0  0  0  0
  149.7554  154.4728  138.0019 H   0  0  0  0  0  0  0  0  0  0  0  0
  145.0290  153.1300  136.9760 H   0  0  0  0  0  0  0  0  0  0  0  0
  143.4958  154.6915  135.9715 H   0  0  0  0  0  0  0  0  0  0  0  0
  142.5105  155.3375  134.1771 H   0  0  0  0  0  0  0  0  0  0  0  0
  1  2  1  0
  2  3  1  0
  3  4  1  0
  4  5  1  0
  4  6  1  0
  6  7  1  0
  7  8  2  0
  7  9  1  0
  9 10  1  0
 10 11  1  0
 11 12  1  0
 11 13  2  0
 10 14  2  0
 14 15  1  0
 15 16  2  0
 16 17  1  0
 17 18  2  0
 18 19  1  0
 19 20  2  0
 20 21  1  0
 21 22  2  0
 22 23  1  0
 23 24  1  0
 24 25  1  0
 24 26  1  0
 24 27  1  0
 27 28  1  0
 27 29  1  0
 27 30  1  0
 22 31  1  0
 31 32  2  0
 18 33  1  0
 33 34  2  0
 34  9  1  0
 34 15  1  0
 32 19  1  0
  1 35  1  0
  1 36  1  0
  1 37  1  0
  2 38  1  0
  2 39  1  0
  3 40  1  0
  3 41  1  0
  4 42  1  6
 12 43  1  0
 14 44  1  0
 16 45  1  0
 17 46  1  0
 20 47  1  0
 21 48  1  0
 25 49  1  0
 25 50  1  0
 25 51  1  0
 26 52  1  0
 26 53  1  0
 26 54  1  0
 28 55  1  0
 28 56  1  0
 28 57  1  0
 29 58  1  0
 29 59  1  0
 29 60  1  0
 30 61  1  0
 30 62  1  0
 30 63  1  0
 31 64  1  0
 32 65  1  0
 33 66  1  0
M  CHG  2  12  -1  31   1
M  END
>  <UniqueID>  (59) 
59

>  <SMILES>  (59) 
CCC[C@@H](F)OC(=O)n1c(C([NH-])=O)cc2ccc(-c3ccc(O[Si](C)(C)C(C)(C)C)[nH+]c3)cc21

>  <Energy>  (59) 
89.22986363526284

>  <Genealogy>  (59) 
CCCC(F)OC(=O)n1c(C([NH-])=O)cc2ccc(-c3ccc(O[Si](C)(C)C(C)(C)C)[nH+]c3)cc21 (protonated)
CCC[C@@H](F)OC(=O)n1c(C([NH-])=O)cc2ccc(-c3ccc(O[Si](C)(C)C(C)(C)C)[nH+]c3)cc21 (chirality)
CCC[C@@H](F)OC(=O)n1c(C([NH-])=O)cc2ccc(-c3ccc(O[Si](C)(C)C(C)(C)C)[nH+]c3)cc21 (3D coordinates assigned)
CCC[C@@H](F)OC(=O)n1c(C([NH-])=O)cc2ccc(-c3ccc(O[Si](C)(C)C(C)(C)C)[nH+]c3)cc21 (optimized conformer: 89.22986363526284 kcal/mol)

>  <smiles>  (59) 
CCCC(F)OC(=O)n1c(C(N)=O)cc2ccc(-c3ccc(O[Si](C)(C)C(C)(C)C)nc3)cc21

>  <score_type>  (59) 
oracle

>  <origin>  (59) 
adg

>  <m_score__min__energy>  (59) 
-8.1899999999999995

>  <m_primary>  (59) 
energy

$$$$
59:0
     RDKit          3D

 46 49  0  0  0  0  0  0  0  0999 V2000
  143.6470  157.7780  134.2000 C   0  0  0  0  0  0  0  0  0  0  0  0
  144.7890  158.1270  133.3010 C   0  0  0  0  0  0  0  0  0  0  0  0
  144.7310  159.1790  132.6100 O   0  0  0  0  0  0  0  0  0  0  0  0
  145.9500  157.2860  133.2230 N   0  0  0  0  0  0  0  0  0  0  0  0
  147.2560  157.6590  133.3410 C   0  0  0  0  0  0  0  0  0  0  0  0
  147.7560  159.0460  133.4490 C   0  0  0  0  0  0  0  0  0  0  0  0
  147.3900  160.0370  132.4920 N   0  0  0  0  0  0  0  0  0  0  0  0
  148.5440  159.3540  134.3820 O   0  0  0  0  0  0  0  0  0  0  0  0
  148.0890  156.5420  133.2870 C   0  0  0  0  0  0  0  0  0  0  0  0
  147.2460  155.4660  133.1310 C   0  0  0  0  0  0  0  0  0  0  0  0
  147.5360  154.1080  133.0350 C   0  0  0  0  0  0  0  0  0  0  0  0
  146.4610  153.2120  132.9110 C   0  0  0  0  0  0  0  0  0  0  0  0
  145.1210  153.6810  132.8930 C   0  0  0  0  0  0  0  0  0  0  0  0
  143.9910  152.7240  132.7740 C   0  0  0  0  0  0  0  0  0  0  0  0
  142.6670  153.1710  132.8180 C   0  0  0  0  0  0  0  0  0  0  0  0
  141.6180  152.2570  132.7120 C   0  0  0  0  0  0  0  0  0  0  0  0
  141.8530  150.9060  132.5970 N   0  0  0  0  0  0  0  0  0  0  0  0
  140.7330  149.9270  132.4720 C   0  0  2  0  0  0  0  0  0  0  0  0
  140.8090  148.9790  131.2820 C   0  0  0  0  0  0  0  0  0  0  0  0
  139.3710  148.5580  131.0770 C   0  0  0  0  0  0  0  0  0  0  0  0
  138.5280  149.6830  131.4790 N   0  0  0  0  0  0  0  0  0  0  0  0
  139.3730  150.5990  132.2520 C   0  0  0  0  0  0  0  0  0  0  0  0
  143.1540  150.4680  132.4810 C   0  0  0  0  0  0  0  0  0  0  0  0
  143.4090  149.2530  132.2540 O   0  0  0  0  0  0  0  0  0  0  0  0
  144.2270  151.3580  132.5910 C   0  0  0  0  0  0  0  0  0  0  0  0
  144.8700  155.0690  132.9960 C   0  0  0  0  0  0  0  0  0  0  0  0
  145.9600  155.9400  133.0980 C   0  0  0  0  0  0  0  0  0  0  0  0
  143.9634  157.8747  135.2491 H   0  0  0  0  0  0  0  0  0  0  0  0
  142.8061  158.4602  134.0063 H   0  0  0  0  0  0  0  0  0  0  0  0
  143.3311  156.7423  134.0063 H   0  0  0  0  0  0  0  0  0  0  0  0
  146.4510  160.4940  132.5240 H   0  0  0  0  0  0  0  0  0  0  0  0
  149.1868  156.5248  133.3547 H   0  0  0  0  0  0  0  0  0  0  0  0
  148.5750  153.7474  133.0556 H   0  0  0  0  0  0  0  0  0  0  0  0
  146.6600  152.1334  132.8268 H   0  0  0  0  0  0  0  0  0  0  0  0
  142.4523  154.2433  132.9362 H   0  0  0  0  0  0  0  0  0  0  0  0
  140.5811  152.6242  132.7206 H   0  0  0  0  0  0  0  0  0  0  0  0
  140.8319  149.3909  133.4274 H   0  0  0  0  0  0  0  0  0  0  0  0
  141.1988  149.4948  130.3921 H   0  0  0  0  0  0  0  0  0  0  0  0
  141.4853  148.1285  131.4530 H   0  0  0  0  0  0  0  0  0  0  0  0
  139.1967  148.3163  130.0181 H   0  0  0  0  0  0  0  0  0  0  0  0
  139.1379  147.6636  131.6734 H   0  0  0  0  0  0  0  0  0  0  0  0
  137.7620  149.3240  132.0970 H   0  0  0  0  0  0  0  0  0  0  0  0
  139.5078  151.5390  131.6969 H   0  0  0  0  0  0  0  0  0  0  0  0
  138.9009  150.8260  133.2192 H   0  0  0  0  0  0  0  0  0  0  0  0
  145.2593  150.9825  132.5334 H   0  0  0  0  0  0  0  0  0  0  0  0
  143.8401  155.4553  132.9959 H   0  0  0  0  0  0  0  0  0  0  0  0
  1  2  1  0
  2  3  2  0
  2  4  1  0
  4  5  1  0
  5  6  1  0
  6  7  1  0
  6  8  2  0
  5  9  2  0
  9 10  1  0
 10 11  2  0
 11 12  1  0
 12 13  2  0
 13 14  1  0
 14 15  1  0
 15 16  2  0
 16 17  1  0
 17 18  1  0
 18 19  1  0
 19 20  1  0
 20 21  1  0
 21 22  1  0
 17 23  1  0
 23 24  2  0
 23 25  1  0
 13 26  1  0
 26 27  2  0
 27  4  1  0
 27 10  1  0
 25 14  2  0
 22 18  1  0
  1 28  1  0
  1 29  1  0
  1 30  1  0
  7 31  1  0
  9 32  1  0
 11 33  1  0
 12 34  1  0
 15 35  1  0
 16 36  1  0
 18 37  1  1
 19 38  1  0
 19 39  1  0
 20 40  1  0
 20 41  1  0
 21 42  1  0
 22 43  1  0
 22 44  1  0
 25 45  1  0
 26 46  1  0
M  CHG  1   7  -1
M  END
>  <UniqueID>  (60) 
60

>  <SMILES>  (60) 
CC(=O)n1c(C([NH-])=O)cc2ccc(-c3ccn([C@@H]4CCNC4)c(=O)c3)cc21

>  <Energy>  (60) 
103.81326470466995

>  <Genealogy>  (60) 
CC(=O)n1c(C([NH-])=O)cc2ccc(-c3ccn(C4CCNC4)c(=O)c3)cc21 (protonated)
CC(=O)n1c(C([NH-])=O)cc2ccc(-c3ccn([C@@H]4CCNC4)c(=O)c3)cc21 (chirality)
CC(=O)n1c(C([NH-])=O)cc2ccc(-c3ccn([C@@H]4CCNC4)c(=O)c3)cc21 (3D coordinates assigned)
CC(=O)n1c(C([NH-])=O)cc2ccc(-c3ccn([C@@H]4CCNC4)c(=O)c3)cc21 (nonaromatic ring conformer: 103.81326470466995 kcal/mol)

>  <smiles>  (60) 
CC(=O)n1c(C(N)=O)cc2ccc(-c3ccn(C4CCNC4)c(=O)c3)cc21

>  <score_type>  (60) 
oracle

>  <origin>  (60) 
adg

>  <m_score__min__energy>  (60) 
-8.8900000000000006

>  <m_primary>  (60) 
energy

$$$$
60:0
     RDKit          3D

 36 37  0  0  0  0  0  0  0  0999 V2000
  138.3440  159.7180  130.7120 C   0  0  0  0  0  0  0  0  0  0  0  0
  139.7560  159.5600  131.2640 C   0  0  0  0  0  0  0  0  0  0  0  0
  139.8630  160.1730  132.5830 N   0  0  0  0  0  0  0  0  0  0  0  0
  141.0350  160.0960  133.4000 C   0  0  0  0  0  0  0  0  0  0  0  0
  141.4460  161.1170  134.0170 O   0  0  0  0  0  0  0  0  0  0  0  0
  141.7580  158.8590  133.5010 N   0  0  0  0  0  0  0  0  0  0  0  0
  141.2490  157.6070  133.6840 C   0  0  0  0  0  0  0  0  0  0  0  0
  139.8180  157.2400  133.6690 C   0  0  0  0  0  0  0  0  0  0  0  0
  139.3630  156.0800  132.9770 N   0  0  0  0  0  0  0  0  0  0  0  0
  138.9890  157.9370  134.3140 O   0  0  0  0  0  0  0  0  0  0  0  0
  142.2790  156.6760  133.8090 C   0  0  0  0  0  0  0  0  0  0  0  0
  143.4430  157.4010  133.6890 C   0  0  0  0  0  0  0  0  0  0  0  0
  144.7680  156.9790  133.7380 C   0  0  0  0  0  0  0  0  0  0  0  0
  145.7740  157.9530  133.6040 C   0  0  0  0  0  0  0  0  0  0  0  0
  145.4370  159.3210  133.4440 C   0  0  0  0  0  0  0  0  0  0  0  0
  146.5200  160.3510  133.2790 C   0  0  0  0  0  0  0  0  0  0  0  0
  147.8570  159.6830  133.1050 C   0  0  0  0  0  0  0  0  0  0  0  0
  148.4430  159.2460  134.0860 O   0  0  0  0  0  0  0  0  0  0  0  0
  148.4820  159.5630  131.7420 C   0  0  0  0  0  0  0  0  0  0  0  0
  147.7360  160.2760  130.8230 F   0  0  0  0  0  0  0  0  0  0  0  0
  149.7680  160.0700  131.7780 F   0  0  0  0  0  0  0  0  0  0  0  0
  148.5330  158.2380  131.3470 F   0  0  0  0  0  0  0  0  0  0  0  0
  144.0810  159.7080  133.3920 C   0  0  0  0  0  0  0  0  0  0  0  0
  143.1010  158.7160  133.5060 C   0  0  0  0  0  0  0  0  0  0  0  0
  137.6311  159.7978  131.5459 H   0  0  0  0  0  0  0  0  0  0  0  0
  138.2908  160.6277  130.0959 H   0  0  0  0  0  0  0  0  0  0  0  0
  138.0911  158.8426  130.0959 H   0  0  0  0  0  0  0  0  0  0  0  0
  139.9958  158.4893  131.3424 H   0  0  0  0  0  0  0  0  0  0  0  0
  140.4610  160.0589  130.5828 H   0  0  0  0  0  0  0  0  0  0  0  0
  138.3510  155.8230  132.9670 H   0  0  0  0  0  0  0  0  0  0  0  0
  142.1822  155.5921  133.9695 H   0  0  0  0  0  0  0  0  0  0  0  0
  145.0207  155.9175  133.8771 H   0  0  0  0  0  0  0  0  0  0  0  0
  146.8315  157.6508  133.6235 H   0  0  0  0  0  0  0  0  0  0  0  0
  146.3038  160.9655  132.3927 H   0  0  0  0  0  0  0  0  0  0  0  0
  146.5513  160.9831  134.1787 H   0  0  0  0  0  0  0  0  0  0  0  0
  143.8012  160.7642  133.2649 H   0  0  0  0  0  0  0  0  0  0  0  0
  1  2  1  0
  2  3  1  0
  3  4  1  0
  4  5  2  0
  4  6  1  0
  6  7  1  0
  7  8  1  0
  8  9  1  0
  8 10  2  0
  7 11  2  0
 11 12  1  0
 12 13  2  0
 13 14  1  0
 14 15  2  0
 15 16  1  0
 16 17  1  0
 17 18  2  0
 17 19  1  0
 19 20  1  0
 19 21  1  0
 19 22  1  0
 15 23  1  0
 23 24  2  0
 24  6  1  0
 24 12  1  0
  1 25  1  0
  1 26  1  0
  1 27  1  0
  2 28  1  0
  2 29  1  0
  9 30  1  0
 11 31  1  0
 13 32  1  0
 14 33  1  0
 16 34  1  0
 16 35  1  0
 23 36  1  0
M  CHG  2   3  -1   9  -1
M  END
>  <UniqueID>  (61) 
61

>  <SMILES>  (61) 
CC[N-]C(=O)n1c(C([NH-])=O)cc2ccc(CC(=O)C(F)(F)F)cc21

>  <Energy>  (61) 
67.87838627384237

>  <Genealogy>  (61) 
CC[N-]C(=O)n1c(C([NH-])=O)cc2ccc(CC(=O)C(F)(F)F)cc21 (protonated)
CC[N-]C(=O)n1c(C([NH-])=O)cc2ccc(CC(=O)C(F)(F)F)cc21 (3D coordinates assigned)
CC[N-]C(=O)n1c(C([NH-])=O)cc2ccc(CC(=O)C(F)(F)F)cc21 (optimized conformer: 67.87838627384237 kcal/mol)

>  <smiles>  (61) 
CCNC(=O)n1c(C(N)=O)cc2ccc(CC(=O)C(F)(F)F)cc21

>  <score_type>  (61) 
oracle

>  <origin>  (61) 
adg

>  <m_score__min__energy>  (61) 
-6.7000000000000002

>  <m_primary>  (61) 
energy

$$$$
61:0
     RDKit          3D

 40 41  0  0  0  0  0  0  0  0999 V2000
  147.7030  154.9410  134.7440 C   0  0  0  0  0  0  0  0  0  0  0  0
  147.5530  154.6900  133.2360 C   0  0  0  0  0  0  0  0  0  0  0  0
  148.9510  154.4860  132.6220 C   0  0  0  0  0  0  0  0  0  0  0  0
  146.6780  153.4400  133.0230 C   0  0  0  0  0  0  0  0  0  0  0  0
  146.9210  155.8500  132.6760 O   0  0  0  0  0  0  0  0  0  0  0  0
  145.7310  156.4470  133.1210 C   0  0  0  0  0  0  0  0  0  0  0  0
  144.7190  155.7470  133.3950 O   0  0  0  0  0  0  0  0  0  0  0  0
  145.6680  157.8740  133.2640 N   0  0  0  0  0  0  0  0  0  0  0  0
  146.6690  158.7760  133.0540 C   0  0  0  0  0  0  0  0  0  0  0  0
  148.0830  158.4500  132.7810 C   0  0  0  0  0  0  0  0  0  0  0  0
  148.4530  157.6210  131.6790 N   0  0  0  0  0  0  0  0  0  0  0  0
  148.9760  158.8660  133.5670 O   0  0  0  0  0  0  0  0  0  0  0  0
  146.1930  160.0780  133.1840 C   0  0  0  0  0  0  0  0  0  0  0  0
  144.8590  159.9460  133.4970 C   0  0  0  0  0  0  0  0  0  0  0  0
  143.8950  160.9220  133.7340 C   0  0  0  0  0  0  0  0  0  0  0  0
  142.5840  160.5010  134.0080 C   0  0  0  0  0  0  0  0  0  0  0  0
  142.2560  159.1210  134.0180 C   0  0  0  0  0  0  0  0  0  0  0  0
  140.8540  158.6800  134.3290 C   0  0  0  0  0  0  0  0  0  0  0  0
  140.6120  158.7410  135.8030 C   0  0  0  0  0  0  0  0  0  0  0  0
  141.4110  159.3620  136.5510 O   0  0  0  0  0  0  0  0  0  0  0  0
  139.4750  158.1540  136.3450 O   0  0  0  0  0  0  0  0  0  0  0  0
  143.2620  158.1590  133.7810 C   0  0  0  0  0  0  0  0  0  0  0  0
  144.5660  158.6070  133.5360 C   0  0  0  0  0  0  0  0  0  0  0  0
  147.2165  154.1270  135.3014 H   0  0  0  0  0  0  0  0  0  0  0  0
  148.7709  154.9771  135.0053 H   0  0  0  0  0  0  0  0  0  0  0  0
  147.2290  155.8986  135.0053 H   0  0  0  0  0  0  0  0  0  0  0  0
  149.6928  154.3777  133.4270 H   0  0  0  0  0  0  0  0  0  0  0  0
  148.9496  153.5785  132.0003 H   0  0  0  0  0  0  0  0  0  0  0  0
  149.2089  155.3560  132.0003 H   0  0  0  0  0  0  0  0  0  0  0  0
  146.3875  153.0250  133.9994 H   0  0  0  0  0  0  0  0  0  0  0  0
  145.7751  153.7163  132.4587 H   0  0  0  0  0  0  0  0  0  0  0  0
  147.2466  152.6862  132.4587 H   0  0  0  0  0  0  0  0  0  0  0  0
  149.4610  157.4360  131.4780 H   0  0  0  0  0  0  0  0  0  0  0  0
  147.7330  157.1200  131.1140 H   0  0  0  0  0  0  0  0  0  0  0  0
  146.7612  161.0120  133.0626 H   0  0  0  0  0  0  0  0  0  0  0  0
  144.1528  161.9910  133.7074 H   0  0  0  0  0  0  0  0  0  0  0  0
  141.8041  161.2481  134.2168 H   0  0  0  0  0  0  0  0  0  0  0  0
  140.1417  159.3425  133.8155 H   0  0  0  0  0  0  0  0  0  0  0  0
  140.7171  157.6445  133.9839 H   0  0  0  0  0  0  0  0  0  0  0  0
  143.0273  157.0844  133.7886 H   0  0  0  0  0  0  0  0  0  0  0  0
  1  2  1  0
  2  3  1  0
  2  4  1  0
  2  5  1  0
  5  6  1  0
  6  7  2  0
  6  8  1  0
  8  9  1  0
  9 10  1  0
 10 11  1  0
 10 12  2  0
  9 13  2  0
 13 14  1  0
 14 15  2  0
 15 16  1  0
 16 17  2  0
 17 18  1  0
 18 19  1  0
 19 20  2  0
 19 21  1  0
 17 22  1  0
 22 23  2  0
 23  8  1  0
 23 14  1  0
  1 24  1  0
  1 25  1  0
  1 26  1  0
  3 27  1  0
  3 28  1  0
  3 29  1  0
  4 30  1  0
  4 31  1  0
  4 32  1  0
 11 33  1  0
 11 34  1  0
 13 35  1  0
 15 36  1  0
 16 37  1  0
 18 38  1  0
 18 39  1  0
 22 40  1  0
M  CHG  1  21  -1
M  END
>  <UniqueID>  (62) 
62

>  <SMILES>  (62) 
CC(C)(C)OC(=O)n1c(C(N)=O)cc2ccc(CC(=O)[O-])cc21

>  <Energy>  (62) 
72.41633784348363

>  <Genealogy>  (62) 
CC(C)(C)OC(=O)n1c(C(N)=O)cc2ccc(CC(=O)[O-])cc21 (protonated)
CC(C)(C)OC(=O)n1c(C(N)=O)cc2ccc(CC(=O)[O-])cc21 (3D coordinates assigned)
CC(C)(C)OC(=O)n1c(C(N)=O)cc2ccc(CC(=O)[O-])cc21 (optimized conformer: 72.41633784348363 kcal/mol)

>  <smiles>  (62) 
CC(C)(C)OC(=O)n1c(C(N)=O)cc2ccc(CC(=O)O)cc21

>  <score_type>  (62) 
oracle

>  <origin>  (62) 
adg

>  <m_score__min__energy>  (62) 
-7.4199999999999999

>  <m_primary>  (62) 
energy

$$$$
62:0
     RDKit          3D

 31 33  0  0  0  0  0  0  0  0999 V2000
  141.5250  160.9790  133.6340 N   0  0  0  0  0  0  0  0  0  0  0  0
  142.3170  160.1190  134.4490 C   0  0  0  0  0  0  0  0  0  0  0  0
  141.8110  159.6190  135.4890 O   0  0  0  0  0  0  0  0  0  0  0  0
  143.6970  159.7610  134.0610 C   0  0  0  0  0  0  0  0  0  0  0  0
  144.0990  158.4550  133.7880 C   0  0  0  0  0  0  0  0  0  0  0  0
  145.4100  158.5540  133.3820 C   0  0  0  0  0  0  0  0  0  0  0  0
  146.3030  157.5600  132.9910 C   0  0  0  0  0  0  0  0  0  0  0  0
  147.6070  157.9470  132.6440 C   0  0  0  0  0  0  0  0  0  0  0  0
  147.9980  159.3080  132.7110 C   0  0  0  0  0  0  0  0  0  0  0  0
  149.3900  159.7130  132.3120 C   0  0  0  0  0  0  0  0  0  0  0  0
  149.3320  160.6510  131.1020 C   0  0  0  0  0  0  0  0  0  0  0  0
  149.9970  160.1370  129.8340 C   0  0  0  0  0  0  0  0  0  0  0  0
  148.4810  160.1550  129.9440 C   0  0  0  0  0  0  0  0  0  0  0  0
  147.0620  160.2900  133.1030 C   0  0  0  0  0  0  0  0  0  0  0  0
  145.7620  159.8790  133.4240 C   0  0  0  0  0  0  0  0  0  0  0  0
  144.7220  160.6330  133.8410 N   0  0  0  0  0  0  0  0  0  0  0  0
  144.7430  162.0490  134.0820 C   0  0  0  0  0  0  0  0  0  0  0  0
  145.6020  162.5510  134.8540 O   0  0  0  0  0  0  0  0  0  0  0  0
  143.8300  162.8830  133.4480 O   0  0  0  0  0  0  0  0  0  0  0  0
  141.8970  161.8970  133.3020 H   0  0  0  0  0  0  0  0  0  0  0  0
  143.4962  157.5393  133.8779 H   0  0  0  0  0  0  0  0  0  0  0  0
  145.9963  156.5042  132.9551 H   0  0  0  0  0  0  0  0  0  0  0  0
  148.3321  157.1872  132.3171 H   0  0  0  0  0  0  0  0  0  0  0  0
  149.8744  160.2312  133.1527 H   0  0  0  0  0  0  0  0  0  0  0  0
  149.9673  158.8148  132.0474 H   0  0  0  0  0  0  0  0  0  0  0  0
  149.3937  161.5798  131.6881 H   0  0  0  0  0  0  0  0  0  0  0  0
  150.5078  160.8382  129.1577 H   0  0  0  0  0  0  0  0  0  0  0  0
  150.7515  159.3692  129.6076 H   0  0  0  0  0  0  0  0  0  0  0  0
  147.8948  160.8691  129.3470 H   0  0  0  0  0  0  0  0  0  0  0  0
  147.6842  159.4053  129.8299 H   0  0  0  0  0  0  0  0  0  0  0  0
  147.3467  161.3512  133.1550 H   0  0  0  0  0  0  0  0  0  0  0  0
  1  2  1  0
  2  3  2  0
  2  4  1  0
  4  5  2  0
  5  6  1  0
  6  7  2  0
  7  8  1  0
  8  9  2  0
  9 10  1  0
 10 11  1  0
 11 12  1  0
 12 13  1  0
  9 14  1  0
 14 15  2  0
 15 16  1  0
 16 17  1  0
 17 18  2  0
 17 19  1  0
 16  4  1  0
 15  6  1  0
 13 11  1  0
  1 20  1  0
  5 21  1  0
  7 22  1  0
  8 23  1  0
 10 24  1  0
 10 25  1  0
 11 26  1  0
 12 27  1  0
 12 28  1  0
 13 29  1  0
 13 30  1  0
 14 31  1  0
M  CHG  2   1  -1  19  -1
M  END
>  <UniqueID>  (63) 
63

>  <SMILES>  (63) 
[NH-]C(=O)c1cc2ccc(CC3CC3)cc2n1C(=O)[O-]

>  <Energy>  (63) 
333.9400392003564

>  <Genealogy>  (63) 
[NH-]C(=O)c1cc2ccc(CC3CC3)cc2n1C(=O)[O-] (protonated)
[NH-]C(=O)c1cc2ccc(CC3CC3)cc2n1C(=O)[O-] (3D coordinates assigned)
[NH-]C(=O)c1cc2ccc(CC3CC3)cc2n1C(=O)[O-] (nonaromatic ring conformer: 333.9400392003564 kcal/mol)

>  <smiles>  (63) 
NC(=O)c1cc2ccc(CC3CC3)cc2n1C(=O)O

>  <score_type>  (63) 
oracle

>  <origin>  (63) 
adg

>  <m_score__min__energy>  (63) 
-7.4299999999999997

>  <m_primary>  (63) 
energy

$$$$
63:0
     RDKit          3D

 54 57  0  0  0  0  0  0  0  0999 V2000
  147.3190  160.6640  132.5450 N   0  0  0  0  0  0  0  0  0  0  0  0
  147.8800  159.6320  133.3580 C   0  0  0  0  0  0  0  0  0  0  0  0
  148.8950  159.8840  134.0620 O   0  0  0  0  0  0  0  0  0  0  0  0
  147.3350  158.2600  133.3380 C   0  0  0  0  0  0  0  0  0  0  0  0
  148.1320  157.1230  133.2480 C   0  0  0  0  0  0  0  0  0  0  0  0
  147.2540  156.0670  133.1890 C   0  0  0  0  0  0  0  0  0  0  0  0
  147.5040  154.7020  133.1010 C   0  0  0  0  0  0  0  0  0  0  0  0
  146.4050  153.8290  133.0860 C   0  0  0  0  0  0  0  0  0  0  0  0
  145.0790  154.3290  133.1700 C   0  0  0  0  0  0  0  0  0  0  0  0
  143.9240  153.3970  133.1560 C   0  0  0  0  0  0  0  0  0  0  0  0
  144.1130  152.0170  132.9750 C   0  0  0  0  0  0  0  0  0  0  0  0
  143.0160  151.1540  132.9400 C   0  0  0  0  0  0  0  0  0  0  0  0
  141.7280  151.6740  133.0820 C   0  0  0  0  0  0  0  0  0  0  0  0
  140.6280  150.8100  133.0180 O   0  0  0  0  0  0  0  0  0  0  0  0
  140.6050  149.5050  133.6000 C   0  0  0  0  0  0  0  0  0  0  0  0
  141.1480  148.4510  132.6280 C   0  0  0  0  0  0  0  0  0  0  0  0
  140.9910  148.8650  131.1590 C   0  0  0  0  0  0  0  0  0  0  0  0
  139.6230  149.3790  130.9180 N   0  0  0  0  0  0  0  0  0  0  0  0
  139.3720  149.6680  129.4850 C   0  0  0  0  0  0  0  0  0  0  0  0
  138.7650  148.4620  128.7370 C   0  0  0  0  0  0  0  0  0  0  0  0
  139.1220  147.2520  129.3690 O   0  0  0  0  0  0  0  0  0  0  0  0
  138.4970  147.1620  130.6390 C   0  0  0  0  0  0  0  0  0  0  0  0
  138.5880  148.4730  131.4550 C   0  0  0  0  0  0  0  0  0  0  0  0
  141.5590  153.0120  133.2730 N   0  0  0  0  0  0  0  0  0  0  0  0
  142.6100  153.8730  133.3110 C   0  0  0  0  0  0  0  0  0  0  0  0
  144.8670  155.7260  133.2630 C   0  0  0  0  0  0  0  0  0  0  0  0
  145.9810  156.5740  133.2530 C   0  0  0  0  0  0  0  0  0  0  0  0
  146.0130  157.9240  133.3480 N   0  0  0  0  0  0  0  0  0  0  0  0
  144.8900  158.8010  133.5460 C   0  0  0  0  0  0  0  0  0  0  0  0
  144.8360  159.9080  132.9490 O   0  0  0  0  0  0  0  0  0  0  0  0
  143.8550  158.4390  134.3990 O   0  0  0  0  0  0  0  0  0  0  0  0
  147.6960  161.6360  132.6000 H   0  0  0  0  0  0  0  0  0  0  0  0
  146.5900  160.4490  131.8310 H   0  0  0  0  0  0  0  0  0  0  0  0
  149.2309  157.0786  133.2283 H   0  0  0  0  0  0  0  0  0  0  0  0
  148.5331  154.3175  133.0448 H   0  0  0  0  0  0  0  0  0  0  0  0
  146.5732  152.7447  133.0082 H   0  0  0  0  0  0  0  0  0  0  0  0
  145.1302  151.6142  132.8603 H   0  0  0  0  0  0  0  0  0  0  0  0
  143.1653  150.0730  132.8017 H   0  0  0  0  0  0  0  0  0  0  0  0
  141.2247  149.5072  134.5088 H   0  0  0  0  0  0  0  0  0  0  0  0
  139.5621  149.2507  133.8402 H   0  0  0  0  0  0  0  0  0  0  0  0
  142.2166  148.2959  132.8378 H   0  0  0  0  0  0  0  0  0  0  0  0
  140.5666  147.5293  132.7779 H   0  0  0  0  0  0  0  0  0  0  0  0
  141.7222  149.6521  130.9228 H   0  0  0  0  0  0  0  0  0  0  0  0
  141.1642  147.9883  130.5176 H   0  0  0  0  0  0  0  0  0  0  0  0
  138.6744  150.5155  129.4128 H   0  0  0  0  0  0  0  0  0  0  0  0
  140.3396  149.9000  129.0160 H   0  0  0  0  0  0  0  0  0  0  0  0
  137.6690  148.5560  128.7298 H   0  0  0  0  0  0  0  0  0  0  0  0
  139.1540  148.4518  127.7081 H   0  0  0  0  0  0  0  0  0  0  0  0
  137.4354  146.9155  130.4899 H   0  0  0  0  0  0  0  0  0  0  0  0
  139.0247  146.3835  131.2096 H   0  0  0  0  0  0  0  0  0  0  0  0
  137.6142  148.9833  131.4197 H   0  0  0  0  0  0  0  0  0  0  0  0
  138.8604  148.2154  132.4891 H   0  0  0  0  0  0  0  0  0  0  0  0
  142.4317  154.9477  133.4638 H   0  0  0  0  0  0  0  0  0  0  0  0
  143.8493  156.1360  133.3414 H   0  0  0  0  0  0  0  0  0  0  0  0
  1  2  1  0
  2  3  2  0
  2  4  1  0
  4  5  2  0
  5  6  1  0
  6  7  2  0
  7  8  1  0
  8  9  2  0
  9 10  1  0
 10 11  2  0
 11 12  1  0
 12 13  2  0
 13 14  1  0
 14 15  1  0
 15 16  1  0
 16 17  1  0
 17 18  1  0
 18 19  1  0
 19 20  1  0
 20 21  1  0
 21 22  1  0
 22 23  1  0
 13 24  1  0
 24 25  2  0
  9 26  1  0
 26 27  2  0
 27 28  1  0
 28 29  1  0
 29 30  2  0
 29 31  1  0
 28  4  1  0
 27  6  1  0
 25 10  1  0
 23 18  1  0
  1 32  1  0
  1 33  1  0
  5 34  1  0
  7 35  1  0
  8 36  1  0
 11 37  1  0
 12 38  1  0
 15 39  1  0
 15 40  1  0
 16 41  1  0
 16 42  1  0
 17 43  1  0
 17 44  1  0
 19 45  1  0
 19 46  1  0
 20 47  1  0
 20 48  1  0
 22 49  1  0
 22 50  1  0
 23 51  1  0
 23 52  1  0
 25 53  1  0
 26 54  1  0
M  CHG  1  31  -1
M  END
>  <UniqueID>  (64) 
64

>  <SMILES>  (64) 
NC(=O)c1cc2ccc(-c3ccc(OCCCN4CCOCC4)nc3)cc2n1C(=O)[O-]

>  <Energy>  (64) 
111.37066713582746

>  <Genealogy>  (64) 
NC(=O)c1cc2ccc(-c3ccc(OCCCN4CCOCC4)nc3)cc2n1C(=O)[O-] (protonated)
NC(=O)c1cc2ccc(-c3ccc(OCCCN4CCOCC4)nc3)cc2n1C(=O)[O-] (3D coordinates assigned)
NC(=O)c1cc2ccc(-c3ccc(OCCCN4CCOCC4)nc3)cc2n1C(=O)[O-] (nonaromatic ring conformer: 111.37066713582746 kcal/mol)

>  <smiles>  (64) 
NC(=O)c1cc2ccc(-c3ccc(OCCCN4CCOCC4)nc3)cc2n1C(=O)O

>  <score_type>  (64) 
oracle

>  <origin>  (64) 
adg

>  <m_score__min__energy>  (64) 
-8.6699999999999999

>  <m_primary>  (64) 
energy

$$$$
64:0
     RDKit          3D

 40 43  0  0  0  0  0  0  0  0999 V2000
  149.9400  159.6820  131.3490 C   0  0  0  0  0  0  0  0  0  0  0  0
  148.8110  159.2600  132.1660 N   0  0  0  0  0  0  0  0  0  0  0  0
  147.5690  159.7730  132.1180 C   0  0  0  0  0  0  0  0  0  0  0  0
  146.7720  159.0590  132.9970 C   0  0  0  0  0  0  0  0  0  0  0  0
  145.3290  159.2610  133.2830 C   0  0  0  0  0  0  0  0  0  0  0  0
  144.8110  160.5700  133.4860 C   0  0  0  0  0  0  0  0  0  0  0  0
  143.4460  160.7730  133.7480 C   0  0  0  0  0  0  0  0  0  0  0  0
  142.6200  159.6570  133.8100 C   0  0  0  0  0  0  0  0  0  0  0  0
  141.2630  159.5680  134.0220 C   0  0  0  0  0  0  0  0  0  0  0  0
  140.9700  158.2080  133.9710 C   0  0  0  0  0  0  0  0  0  0  0  0
  139.6190  157.6550  134.2040 C   0  0  0  0  0  0  0  0  0  0  0  0
  138.9610  156.8570  133.2190 N   0  0  0  0  0  0  0  0  0  0  0  0
  139.0520  157.8580  135.3110 O   0  0  0  0  0  0  0  0  0  0  0  0
  142.0980  157.4860  133.7200 N   0  0  0  0  0  0  0  0  0  0  0  0
  142.2130  156.0720  133.4930 C   0  0  0  0  0  0  0  0  0  0  0  0
  141.2440  155.4430  132.9880 O   0  0  0  0  0  0  0  0  0  0  0  0
  143.4390  155.3440  133.8690 C   0  0  0  0  0  0  0  0  0  0  0  0
  144.0440  155.4600  135.1210 C   0  0  0  0  0  0  0  0  0  0  0  0
  145.4110  154.4760  135.1360 S   0  0  0  0  0  0  0  0  0  0  0  0
  145.1720  153.9590  133.5560 C   0  0  0  0  0  0  0  0  0  0  0  0
  146.0210  153.0440  132.8690 N   0  0  0  0  0  0  0  0  0  0  0  0
  144.0750  154.5110  133.0000 N   0  0  0  0  0  0  0  0  0  0  0  0
  143.0990  158.3870  133.6300 C   0  0  0  0  0  0  0  0  0  0  0  0
  144.4500  158.1530  133.3520 C   0  0  0  0  0  0  0  0  0  0  0  0
  147.6200  158.1020  133.5400 C   0  0  0  0  0  0  0  0  0  0  0  0
  148.8520  158.2420  133.0100 N   0  0  0  0  0  0  0  0  0  0  0  0
  150.7694  159.9920  132.0017 H   0  0  0  0  0  0  0  0  0  0  0  0
  150.2662  158.8451  130.7140 H   0  0  0  0  0  0  0  0  0  0  0  0
  149.6373  160.5277  130.7140 H   0  0  0  0  0  0  0  0  0  0  0  0
  147.2425  160.6144  131.4892 H   0  0  0  0  0  0  0  0  0  0  0  0
  145.4886  161.4352  133.4371 H   0  0  0  0  0  0  0  0  0  0  0  0
  143.0428  161.7851  133.8996 H   0  0  0  0  0  0  0  0  0  0  0  0
  140.5594  160.3957  134.1950 H   0  0  0  0  0  0  0  0  0  0  0  0
  137.9830  156.5300  133.3800 H   0  0  0  0  0  0  0  0  0  0  0  0
  139.4670  156.5120  132.3740 H   0  0  0  0  0  0  0  0  0  0  0  0
  143.6897  156.0855  135.9536 H   0  0  0  0  0  0  0  0  0  0  0  0
  146.4380  152.2310  133.3730 H   0  0  0  0  0  0  0  0  0  0  0  0
  146.2290  153.1810  131.8550 H   0  0  0  0  0  0  0  0  0  0  0  0
  144.8214  157.1303  133.1905 H   0  0  0  0  0  0  0  0  0  0  0  0
  147.3313  157.3473  134.2863 H   0  0  0  0  0  0  0  0  0  0  0  0
  1  2  1  0
  2  3  1  0
  3  4  2  0
  4  5  1  0
  5  6  2  0
  6  7  1  0
  7  8  2  0
  8  9  1  0
  9 10  2  0
 10 11  1  0
 11 12  1  0
 11 13  2  0
 10 14  1  0
 14 15  1  0
 15 16  2  0
 15 17  1  0
 17 18  2  0
 18 19  1  0
 19 20  1  0
 20 21  1  0
 20 22  2  0
 14 23  1  0
 23 24  2  0
  4 25  1  0
 25 26  2  0
 26  2  1  0
 24  5  1  0
 23  8  1  0
 22 17  1  0
  1 27  1  0
  1 28  1  0
  1 29  1  0
  3 30  1  0
  6 31  1  0
  7 32  1  0
  9 33  1  0
 12 34  1  0
 12 35  1  0
 18 36  1  0
 21 37  1  0
 21 38  1  0
 24 39  1  0
 25 40  1  0
M  END
>  <UniqueID>  (65) 
65

>  <SMILES>  (65) 
Cn1cc(-c2ccc3cc(C(N)=O)n(C(=O)c4csc(N)n4)c3c2)cn1

>  <Energy>  (65) 
143.67128417348712

>  <Genealogy>  (65) 
Cn1cc(-c2ccc3cc(C(N)=O)n(C(=O)c4csc(N)n4)c3c2)cn1 (3D coordinates assigned)
Cn1cc(-c2ccc3cc(C(N)=O)n(C(=O)c4csc(N)n4)c3c2)cn1 (optimized conformer: 143.67128417348712 kcal/mol)

>  <smiles>  (65) 
Cn1cc(-c2ccc3cc(C(N)=O)n(C(=O)c4csc(N)n4)c3c2)cn1

>  <score_type>  (65) 
oracle

>  <origin>  (65) 
adg

>  <m_score__min__energy>  (65) 
-9.1899999999999995

>  <m_primary>  (65) 
energy

$$$$
65:0
     RDKit          3D

 39 40  0  0  0  0  0  0  0  0999 V2000
  145.3350  154.0050  132.2410 C   0  0  0  0  0  0  0  0  0  0  0  0
  146.0030  155.2290  132.7160 N   0  0  0  0  0  0  0  0  0  0  0  0
  145.9000  155.3070  134.1860 C   0  0  0  0  0  0  0  0  0  0  0  0
  147.4160  155.2330  132.2620 C   0  0  0  0  0  0  0  0  0  0  0  0
  148.3490  156.1380  133.0990 C   0  0  0  0  0  0  0  0  0  0  0  0
  148.6160  157.5270  132.4940 C   0  0  0  0  0  0  0  0  0  0  0  0
  147.5630  158.5320  132.8870 C   0  0  0  0  0  0  0  0  0  0  0  0
  147.9150  159.8930  133.0670 C   0  0  0  0  0  0  0  0  0  0  0  0
  146.9380  160.8490  133.3840 C   0  0  0  0  0  0  0  0  0  0  0  0
  145.6210  160.4170  133.5160 C   0  0  0  0  0  0  0  0  0  0  0  0
  144.4770  161.1350  133.7830 C   0  0  0  0  0  0  0  0  0  0  0  0
  143.4450  160.2000  133.7790 C   0  0  0  0  0  0  0  0  0  0  0  0
  142.0430  160.5360  134.1040 C   0  0  0  0  0  0  0  0  0  0  0  0
  141.4410  160.0070  135.2840 N   0  0  0  0  0  0  0  0  0  0  0  0
  141.3570  161.2570  133.3320 O   0  0  0  0  0  0  0  0  0  0  0  0
  143.9300  158.9530  133.5150 N   0  0  0  0  0  0  0  0  0  0  0  0
  143.1880  157.7320  133.3530 C   0  0  0  0  0  0  0  0  0  0  0  0
  142.0950  157.5670  133.9560 O   0  0  0  0  0  0  0  0  0  0  0  0
  143.6570  156.7330  132.5110 O   0  0  0  0  0  0  0  0  0  0  0  0
  145.2640  159.1040  133.3600 C   0  0  0  0  0  0  0  0  0  0  0  0
  146.2150  158.1310  133.0310 C   0  0  0  0  0  0  0  0  0  0  0  0
  145.0085  153.4068  133.1045 H   0  0  0  0  0  0  0  0  0  0  0  0
  144.4605  154.2774  131.6319 H   0  0  0  0  0  0  0  0  0  0  0  0
  146.0372  153.4169  131.6319 H   0  0  0  0  0  0  0  0  0  0  0  0
  145.4870  156.0390  132.3040 H   0  0  0  0  0  0  0  0  0  0  0  0
  146.6980  154.7027  134.6421 H   0  0  0  0  0  0  0  0  0  0  0  0
  146.0048  156.3542  134.5059 H   0  0  0  0  0  0  0  0  0  0  0  0
  144.9204  154.9222  134.5059 H   0  0  0  0  0  0  0  0  0  0  0  0
  147.7977  154.2026  132.3137 H   0  0  0  0  0  0  0  0  0  0  0  0
  147.4178  155.6378  131.2392 H   0  0  0  0  0  0  0  0  0  0  0  0
  147.8909  156.2787  134.0891 H   0  0  0  0  0  0  0  0  0  0  0  0
  149.3218  155.6261  133.1387 H   0  0  0  0  0  0  0  0  0  0  0  0
  149.5952  157.8841  132.8456 H   0  0  0  0  0  0  0  0  0  0  0  0
  148.5955  157.4276  131.3987 H   0  0  0  0  0  0  0  0  0  0  0  0
  148.9647  160.2030  132.9571 H   0  0  0  0  0  0  0  0  0  0  0  0
  147.2044  161.9070  133.5239 H   0  0  0  0  0  0  0  0  0  0  0  0
  144.3955  162.2173  133.9616 H   0  0  0  0  0  0  0  0  0  0  0  0
  141.3350  158.9770  135.4160 H   0  0  0  0  0  0  0  0  0  0  0  0
  145.9209  157.0807  132.8881 H   0  0  0  0  0  0  0  0  0  0  0  0
  1  2  1  0
  2  3  1  0
  2  4  1  0
  4  5  1  0
  5  6  1  0
  6  7  1  0
  7  8  2  0
  8  9  1  0
  9 10  2  0
 10 11  1  0
 11 12  2  0
 12 13  1  0
 13 14  1  0
 13 15  2  0
 12 16  1  0
 16 17  1  0
 17 18  2  0
 17 19  1  0
 16 20  1  0
 20 21  2  0
 21  7  1  0
 20 10  1  0
  1 22  1  0
  1 23  1  0
  1 24  1  0
  2 25  1  0
  3 26  1  0
  3 27  1  0
  3 28  1  0
  4 29  1  0
  4 30  1  0
  5 31  1  0
  5 32  1  0
  6 33  1  0
  6 34  1  0
  8 35  1  0
  9 36  1  0
 11 37  1  0
 14 38  1  0
 21 39  1  0
M  CHG  3   2   1  14  -1  19  -1
M  END
>  <UniqueID>  (66) 
66

>  <SMILES>  (66) 
C[NH+](C)CCCc1ccc2cc(C([NH-])=O)n(C(=O)[O-])c2c1

>  <Energy>  (66) 
76.12117839926144

>  <Genealogy>  (66) 
C[NH+](C)CCCc1ccc2cc(C([NH-])=O)n(C(=O)[O-])c2c1 (protonated)
C[NH+](C)CCCc1ccc2cc(C([NH-])=O)n(C(=O)[O-])c2c1 (3D coordinates assigned)
C[NH+](C)CCCc1ccc2cc(C([NH-])=O)n(C(=O)[O-])c2c1 (optimized conformer: 76.12117839926144 kcal/mol)

>  <smiles>  (66) 
CN(C)CCCc1ccc2cc(C(N)=O)n(C(=O)O)c2c1

>  <score_type>  (66) 
oracle

>  <origin>  (66) 
adg

>  <m_score__min__energy>  (66) 
-6.1600000000000001

>  <m_primary>  (66) 
energy

$$$$
66:0
     RDKit          3D

 48 50  0  0  0  0  0  0  0  0999 V2000
  150.7450  149.5740  130.3150 C   0  0  0  0  0  0  0  0  0  0  0  0
  150.0180  150.7250  130.9450 C   0  0  0  0  0  0  0  0  0  0  0  0
  149.9960  151.8280  130.3350 O   0  0  0  0  0  0  0  0  0  0  0  0
  149.3490  150.5910  132.2190 N   0  0  0  0  0  0  0  0  0  0  0  0
  148.0390  149.9360  132.3060 C   0  0  0  0  0  0  0  0  0  0  0  0
  149.9760  151.1250  133.4370 C   0  0  0  0  0  0  0  0  0  0  0  0
  149.2250  152.3700  133.9160 C   0  0  0  0  0  0  0  0  0  0  0  0
  148.4710  152.9730  132.8170 N   0  0  0  0  0  0  0  0  0  0  0  0
  147.4280  153.9540  132.9830 C   0  0  0  0  0  0  0  0  0  0  0  0
  146.0780  153.5230  133.0290 C   0  0  0  0  0  0  0  0  0  0  0  0
  145.0280  154.4460  133.1720 C   0  0  0  0  0  0  0  0  0  0  0  0
  145.3550  155.7960  133.2610 C   0  0  0  0  0  0  0  0  0  0  0  0
  144.5440  156.8950  133.4250 C   0  0  0  0  0  0  0  0  0  0  0  0
  145.4080  157.9880  133.4680 C   0  0  0  0  0  0  0  0  0  0  0  0
  144.9540  159.3900  133.5910 C   0  0  0  0  0  0  0  0  0  0  0  0
  143.5630  159.6950  133.5230 N   0  0  0  0  0  0  0  0  0  0  0  0
  145.7850  160.3260  133.7340 O   0  0  0  0  0  0  0  0  0  0  0  0
  146.7000  157.5800  133.3310 N   0  0  0  0  0  0  0  0  0  0  0  0
  147.8860  158.3880  133.4050 C   0  0  0  0  0  0  0  0  0  0  0  0
  148.5240  158.4490  134.4910 O   0  0  0  0  0  0  0  0  0  0  0  0
  148.3610  159.1430  132.2260 C   0  0  0  0  0  0  0  0  0  0  0  0
  148.3500  160.5480  132.2100 C   0  0  0  0  0  0  0  0  0  0  0  0
  148.8280  161.2250  131.0860 C   0  0  0  0  0  0  0  0  0  0  0  0
  149.3040  160.5050  129.9900 C   0  0  0  0  0  0  0  0  0  0  0  0
  149.2890  159.1090  130.0330 C   0  0  0  0  0  0  0  0  0  0  0  0
  148.8230  158.4670  131.1360 N   0  0  0  0  0  0  0  0  0  0  0  0
  146.6500  156.2350  133.2100 C   0  0  0  0  0  0  0  0  0  0  0  0
  147.7170  155.3380  133.0890 C   0  0  0  0  0  0  0  0  0  0  0  0
  151.1553  148.9244  131.1022 H   0  0  0  0  0  0  0  0  0  0  0  0
  150.0470  148.9972  129.6904 H   0  0  0  0  0  0  0  0  0  0  0  0
  151.5658  149.9564  129.6904 H   0  0  0  0  0  0  0  0  0  0  0  0
  147.7666  149.7998  133.3630 H   0  0  0  0  0  0  0  0  0  0  0  0
  147.2825  150.5619  131.8101 H   0  0  0  0  0  0  0  0  0  0  0  0
  148.0858  148.9552  131.8101 H   0  0  0  0  0  0  0  0  0  0  0  0
  149.9490  150.3585  134.2255 H   0  0  0  0  0  0  0  0  0  0  0  0
  151.0180  151.3980  133.2141 H   0  0  0  0  0  0  0  0  0  0  0  0
  148.5285  152.0853  134.7184 H   0  0  0  0  0  0  0  0  0  0  0  0
  149.9560  153.1031  134.2878 H   0  0  0  0  0  0  0  0  0  0  0  0
  148.7740  152.7310  131.8450 H   0  0  0  0  0  0  0  0  0  0  0  0
  145.8491  152.4499  132.9516 H   0  0  0  0  0  0  0  0  0  0  0  0
  143.9807  154.1121  133.2123 H   0  0  0  0  0  0  0  0  0  0  0  0
  143.4470  156.9084  133.5052 H   0  0  0  0  0  0  0  0  0  0  0  0
  143.0700  159.7480  132.6040 H   0  0  0  0  0  0  0  0  0  0  0  0
  147.9682  161.1097  133.0753 H   0  0  0  0  0  0  0  0  0  0  0  0
  148.8292  162.3248  131.0648 H   0  0  0  0  0  0  0  0  0  0  0  0
  149.6866  161.0304  129.1026 H   0  0  0  0  0  0  0  0  0  0  0  0
  149.6548  158.5288  129.1730 H   0  0  0  0  0  0  0  0  0  0  0  0
  148.7562  155.6983  133.0764 H   0  0  0  0  0  0  0  0  0  0  0  0
  1  2  1  0
  2  3  2  0
  2  4  1  0
  4  5  1  0
  4  6  1  0
  6  7  1  0
  7  8  1  0
  8  9  1  0
  9 10  2  0
 10 11  1  0
 11 12  2  0
 12 13  1  0
 13 14  2  0
 14 15  1  0
 15 16  1  0
 15 17  2  0
 14 18  1  0
 18 19  1  0
 19 20  2  0
 19 21  1  0
 21 22  2  0
 22 23  1  0
 23 24  2  0
 24 25  1  0
 25 26  2  0
 18 27  1  0
 27 28  2  0
 28  9  1  0
 27 12  1  0
 26 21  1  0
  1 29  1  0
  1 30  1  0
  1 31  1  0
  5 32  1  0
  5 33  1  0
  5 34  1  0
  6 35  1  0
  6 36  1  0
  7 37  1  0
  7 38  1  0
  8 39  1  0
 10 40  1  0
 11 41  1  0
 13 42  1  0
 16 43  1  0
 22 44  1  0
 23 45  1  0
 24 46  1  0
 25 47  1  0
 28 48  1  0
M  CHG  1  16  -1
M  END
>  <UniqueID>  (67) 
67

>  <SMILES>  (67) 
CC(=O)N(C)CCNc1ccc2cc(C([NH-])=O)n(C(=O)c3ccccn3)c2c1

>  <Energy>  (67) 
83.03306396268238

>  <Genealogy>  (67) 
CC(=O)N(C)CCNc1ccc2cc(C([NH-])=O)n(C(=O)c3ccccn3)c2c1 (protonated)
CC(=O)N(C)CCNc1ccc2cc(C([NH-])=O)n(C(=O)c3ccccn3)c2c1 (3D coordinates assigned)
CC(=O)N(C)CCNc1ccc2cc(C([NH-])=O)n(C(=O)c3ccccn3)c2c1 (optimized conformer: 83.03306396268238 kcal/mol)

>  <smiles>  (67) 
CC(=O)N(C)CCNc1ccc2cc(C(N)=O)n(C(=O)c3ccccn3)c2c1

>  <score_type>  (67) 
oracle

>  <origin>  (67) 
adg

>  <m_score__min__energy>  (67) 
-8.3000000000000007

>  <m_primary>  (67) 
energy

$$$$
67:0
     RDKit          3D

 50 51  0  0  0  0  0  0  0  0999 V2000
  140.9790  159.3750  136.7940 C   0  0  0  0  0  0  0  0  0  0  0  0
  140.9530  158.1850  135.8180 C   0  0  0  0  0  0  0  0  0  0  0  0
  139.4940  157.8070  135.5150 C   0  0  0  0  0  0  0  0  0  0  0  0
  141.6580  156.9780  136.4680 C   0  0  0  0  0  0  0  0  0  0  0  0
  141.8360  158.6820  134.1970 Si  0  0  0  0  0  4  0  0  0  0  0  0
  140.6660  159.6670  133.1200 C   0  0  0  0  0  0  0  0  0  0  0  0
  142.3470  157.1760  133.2000 C   0  0  0  0  0  0  0  0  0  0  0  0
  143.1770  159.7310  134.5370 O   0  0  0  0  0  0  0  0  0  0  0  0
  143.8600  160.0930  133.3600 C   0  0  0  0  0  0  0  0  0  0  0  0
  145.2630  160.5840  133.7220 C   0  0  0  0  0  0  0  0  0  0  0  0
  146.2900  159.5180  133.4470 C   0  0  0  0  0  0  0  0  0  0  0  0
  147.5100  159.8500  132.8080 C   0  0  0  0  0  0  0  0  0  0  0  0
  148.4460  158.8500  132.4900 C   0  0  0  0  0  0  0  0  0  0  0  0
  148.1220  157.5310  132.7980 C   0  0  0  0  0  0  0  0  0  0  0  0
  148.8470  156.3770  132.6120 C   0  0  0  0  0  0  0  0  0  0  0  0
  148.0360  155.3540  133.0930 C   0  0  0  0  0  0  0  0  0  0  0  0
  148.4040  153.9250  133.0210 C   0  0  0  0  0  0  0  0  0  0  0  0
  147.6130  152.9280  133.6650 N   0  0  0  0  0  0  0  0  0  0  0  0
  149.3970  153.5730  132.3270 O   0  0  0  0  0  0  0  0  0  0  0  0
  146.8600  155.8520  133.5710 N   0  0  0  0  0  0  0  0  0  0  0  0
  145.8020  155.1220  134.2190 C   0  0  0  0  0  0  0  0  0  0  0  0
  145.6290  155.2220  135.4650 O   0  0  0  0  0  0  0  0  0  0  0  0
  144.9610  154.2960  133.4830 O   0  0  0  0  0  0  0  0  0  0  0  0
  146.9300  157.1890  133.3860 C   0  0  0  0  0  0  0  0  0  0  0  0
  145.9980  158.1690  133.7470 C   0  0  0  0  0  0  0  0  0  0  0  0
  140.9708  159.0010  137.8285 H   0  0  0  0  0  0  0  0  0  0  0  0
  141.8903  159.9676  136.6255 H   0  0  0  0  0  0  0  0  0  0  0  0
  140.0944  160.0068  136.6255 H   0  0  0  0  0  0  0  0  0  0  0  0
  138.9482  157.6656  136.4595 H   0  0  0  0  0  0  0  0  0  0  0  0
  139.0197  158.6119  134.9344 H   0  0  0  0  0  0  0  0  0  0  0  0
  139.4702  156.8730  134.9344 H   0  0  0  0  0  0  0  0  0  0  0  0
  141.6051  157.0685  137.5630 H   0  0  0  0  0  0  0  0  0  0  0  0
  141.1604  156.0491  136.1524 H   0  0  0  0  0  0  0  0  0  0  0  0
  142.7115  156.9551  136.1524 H   0  0  0  0  0  0  0  0  0  0  0  0
  139.9799  160.2446  133.7568 H   0  0  0  0  0  0  0  0  0  0  0  0
  141.2435  160.3549  132.4849 H   0  0  0  0  0  0  0  0  0  0  0  0
  140.0866  158.9807  132.4849 H   0  0  0  0  0  0  0  0  0  0  0  0
  142.6238  156.3602  133.8839 H   0  0  0  0  0  0  0  0  0  0  0  0
  141.5078  156.8540  132.5659 H   0  0  0  0  0  0  0  0  0  0  0  0
  143.2088  157.4312  132.5659 H   0  0  0  0  0  0  0  0  0  0  0  0
  143.9361  159.2196  132.6956 H   0  0  0  0  0  0  0  0  0  0  0  0
  143.3097  160.8946  132.8456 H   0  0  0  0  0  0  0  0  0  0  0  0
  145.4990  161.4754  133.1223 H   0  0  0  0  0  0  0  0  0  0  0  0
  145.2857  160.8271  134.7946 H   0  0  0  0  0  0  0  0  0  0  0  0
  147.7269  160.8991  132.5584 H   0  0  0  0  0  0  0  0  0  0  0  0
  149.4045  159.1017  132.0127 H   0  0  0  0  0  0  0  0  0  0  0  0
  149.8526  156.2831  132.1763 H   0  0  0  0  0  0  0  0  0  0  0  0
  147.8740  151.9200  133.5850 H   0  0  0  0  0  0  0  0  0  0  0  0
  146.7010  153.1650  134.1110 H   0  0  0  0  0  0  0  0  0  0  0  0
  145.0602  157.8950  134.2524 H   0  0  0  0  0  0  0  0  0  0  0  0
  1  2  1  0
  2  3  1  0
  2  4  1  0
  2  5  1  0
  5  6  1  0
  5  7  1  0
  5  8  1  0
  8  9  1  0
  9 10  1  0
 10 11  1  0
 11 12  2  0
 12 13  1  0
 13 14  2  0
 14 15  1  0
 15 16  2  0
 16 17  1  0
 17 18  1  0
 17 19  2  0
 16 20  1  0
 20 21  1  0
 21 22  2  0
 21 23  1  0
 20 24  1  0
 24 25  2  0
 25 11  1  0
 24 14  1  0
  1 26  1  0
  1 27  1  0
  1 28  1  0
  3 29  1  0
  3 30  1  0
  3 31  1  0
  4 32  1  0
  4 33  1  0
  4 34  1  0
  6 35  1  0
  6 36  1  0
  6 37  1  0
  7 38  1  0
  7 39  1  0
  7 40  1  0
  9 41  1  0
  9 42  1  0
 10 43  1  0
 10 44  1  0
 12 45  1  0
 13 46  1  0
 15 47  1  0
 18 48  1  0
 18 49  1  0
 25 50  1  0
M  CHG  1  23  -1
M  END
>  <UniqueID>  (68) 
68

>  <SMILES>  (68) 
CC(C)(C)[Si](C)(C)OCCc1ccc2cc(C(N)=O)n(C(=O)[O-])c2c1

>  <Energy>  (68) 
69.01152170498241

>  <Genealogy>  (68) 
CC(C)(C)[Si](C)(C)OCCc1ccc2cc(C(N)=O)n(C(=O)[O-])c2c1 (protonated)
CC(C)(C)[Si](C)(C)OCCc1ccc2cc(C(N)=O)n(C(=O)[O-])c2c1 (3D coordinates assigned)
CC(C)(C)[Si](C)(C)OCCc1ccc2cc(C(N)=O)n(C(=O)[O-])c2c1 (optimized conformer: 69.01152170498241 kcal/mol)

>  <smiles>  (68) 
CC(C)(C)[Si](C)(C)OCCc1ccc2cc(C(N)=O)n(C(=O)O)c2c1

>  <score_type>  (68) 
oracle

>  <origin>  (68) 
adg

>  <m_score__min__energy>  (68) 
-7.7199999999999998

>  <m_primary>  (68) 
energy

$$$$
68:0
     RDKit          3D

 67 70  0  0  0  0  0  0  0  0999 V2000
  141.7320  154.4690  133.3590 C   0  0  0  0  0  0  0  0  0  0  0  0
  143.1340  154.0320  133.2270 N   0  0  0  0  0  0  0  0  0  0  0  0
  143.2690  152.6260  133.6510 C   0  0  0  0  0  0  0  0  0  0  0  0
  144.6720  152.0340  133.3760 C   0  0  0  0  0  0  0  0  0  0  0  0
  145.5800  152.9380  132.6550 N   0  0  0  0  0  0  0  0  0  0  0  0
  146.9610  152.5460  132.5710 C   0  0  0  0  0  0  0  0  0  0  0  0
  147.2610  151.4830  131.9630 O   0  0  0  0  0  0  0  0  0  0  0  0
  148.0710  153.3810  133.1740 C   0  0  0  0  0  0  0  0  0  0  0  0
  148.4250  154.5870  132.2660 C   0  0  0  0  0  0  0  0  0  0  0  0
  148.6850  155.8610  133.0660 C   0  0  0  0  0  0  0  0  0  0  0  0
  147.5320  156.1280  133.9320 N   0  0  0  0  0  0  0  0  0  0  0  0
  146.7700  157.3440  133.7940 C   0  0  0  0  0  0  0  0  0  0  0  0
  147.4340  158.5930  133.7030 C   0  0  0  0  0  0  0  0  0  0  0  0
  146.7050  159.7890  133.6250 C   0  0  0  0  0  0  0  0  0  0  0  0
  145.3170  159.7100  133.6560 C   0  0  0  0  0  0  0  0  0  0  0  0
  144.3830  160.7150  133.6280 C   0  0  0  0  0  0  0  0  0  0  0  0
  143.1500  160.0770  133.7280 C   0  0  0  0  0  0  0  0  0  0  0  0
  141.8770  160.8150  133.8730 C   0  0  0  0  0  0  0  0  0  0  0  0
  140.6710  160.0970  134.1240 N   0  0  0  0  0  0  0  0  0  0  0  0
  141.8320  162.0640  133.7190 O   0  0  0  0  0  0  0  0  0  0  0  0
  143.3110  158.7210  133.7890 N   0  0  0  0  0  0  0  0  0  0  0  0
  142.2800  157.7140  133.8350 C   0  0  0  0  0  0  0  0  0  0  0  0
  141.4150  157.6520  132.9190 O   0  0  0  0  0  0  0  0  0  0  0  0
  142.2510  156.7860  134.8800 O   0  0  0  0  0  0  0  0  0  0  0  0
  142.1040  157.1550  136.2460 C   0  0  0  0  0  0  0  0  0  0  0  0
  140.6710  156.8640  136.7010 C   0  0  0  0  0  0  0  0  0  0  0  0
  139.6760  157.9390  136.2400 C   0  0  0  0  0  0  0  0  0  0  0  0
  139.3580  157.8040  134.8830 O   0  0  0  0  0  0  0  0  0  0  0  0
  144.6500  158.5150  133.7540 C   0  0  0  0  0  0  0  0  0  0  0  0
  145.3560  157.3050  133.8100 C   0  0  0  0  0  0  0  0  0  0  0  0
  147.0470  155.0780  134.8410 C   0  0  0  0  0  0  0  0  0  0  0  0
  147.8040  153.7530  134.6570 C   0  0  0  0  0  0  0  0  0  0  0  0
  145.1010  153.9930  131.7520 C   0  0  0  0  0  0  0  0  0  0  0  0
  143.5880  154.1810  131.8340 C   0  0  0  0  0  0  0  0  0  0  0  0
  141.4720  154.5500  134.4247 H   0  0  0  0  0  0  0  0  0  0  0  0
  141.6063  155.4489  132.8754 H   0  0  0  0  0  0  0  0  0  0  0  0
  141.0718  153.7340  132.8754 H   0  0  0  0  0  0  0  0  0  0  0  0
  143.7130  154.6390  133.8560 H   0  0  0  0  0  0  0  0  0  0  0  0
  143.0711  152.5670  134.7314 H   0  0  0  0  0  0  0  0  0  0  0  0
  142.5476  152.0387  133.0639 H   0  0  0  0  0  0  0  0  0  0  0  0
  145.1339  151.7800  134.3415 H   0  0  0  0  0  0  0  0  0  0  0  0
  144.5223  151.1568  132.7294 H   0  0  0  0  0  0  0  0  0  0  0  0
  148.9764  152.7575  133.2119 H   0  0  0  0  0  0  0  0  0  0  0  0
  149.3288  154.3415  131.6890 H   0  0  0  0  0  0  0  0  0  0  0  0
  147.5646  154.7745  131.6068 H   0  0  0  0  0  0  0  0  0  0  0  0
  149.5865  155.7310  133.6827 H   0  0  0  0  0  0  0  0  0  0  0  0
  148.8352  156.7061  132.3781 H   0  0  0  0  0  0  0  0  0  0  0  0
  148.5335  158.6248  133.6934 H   0  0  0  0  0  0  0  0  0  0  0  0
  147.2157  160.7597  133.5418 H   0  0  0  0  0  0  0  0  0  0  0  0
  144.5693  161.7959  133.5443 H   0  0  0  0  0  0  0  0  0  0  0  0
  140.5030  159.1630  133.6860 H   0  0  0  0  0  0  0  0  0  0  0  0
  142.8088  156.5755  136.8604 H   0  0  0  0  0  0  0  0  0  0  0  0
  142.3148  158.2285  136.3610 H   0  0  0  0  0  0  0  0  0  0  0  0
  140.3595  155.8942  136.2858 H   0  0  0  0  0  0  0  0  0  0  0  0
  140.6658  156.8545  137.8010 H   0  0  0  0  0  0  0  0  0  0  0  0
  138.7538  157.8485  136.8328 H   0  0  0  0  0  0  0  0  0  0  0  0
  140.1439  158.9238  136.3857 H   0  0  0  0  0  0  0  0  0  0  0  0
  140.1820  158.0240  134.3770 H   0  0  0  0  0  0  0  0  0  0  0  0
  144.8215  156.3452  133.8652 H   0  0  0  0  0  0  0  0  0  0  0  0
  147.1784  155.4195  135.8784 H   0  0  0  0  0  0  0  0  0  0  0  0
  145.9872  154.8954  134.6098 H   0  0  0  0  0  0  0  0  0  0  0  0
  148.7719  153.8326  135.1736 H   0  0  0  0  0  0  0  0  0  0  0  0
  147.1658  152.9604  135.0747 H   0  0  0  0  0  0  0  0  0  0  0  0
  145.5906  154.9401  132.0228 H   0  0  0  0  0  0  0  0  0  0  0  0
  145.3483  153.6938  130.7228 H   0  0  0  0  0  0  0  0  0  0  0  0
  143.3261  155.1860  131.4716 H   0  0  0  0  0  0  0  0  0  0  0  0
  143.0964  153.4187  131.2117 H   0  0  0  0  0  0  0  0  0  0  0  0
  1  2  1  0
  2  3  1  0
  3  4  1  0
  4  5  1  0
  5  6  1  0
  6  7  2  0
  6  8  1  0
  8  9  1  0
  9 10  1  0
 10 11  1  0
 11 12  1  0
 12 13  2  0
 13 14  1  0
 14 15  2  0
 15 16  1  0
 16 17  2  0
 17 18  1  0
 18 19  1  0
 18 20  2  0
 17 21  1  0
 21 22  1  0
 22 23  2  0
 22 24  1  0
 24 25  1  0
 25 26  1  0
 26 27  1  0
 27 28  1  0
 21 29  1  0
 29 30  2  0
 11 31  1  0
 31 32  1  0
  5 33  1  0
 33 34  1  0
 34  2  1  0
 32  8  1  0
 30 12  1  0
 29 15  1  0
  1 35  1  0
  1 36  1  0
  1 37  1  0
  2 38  1  0
  3 39  1  0
  3 40  1  0
  4 41  1  0
  4 42  1  0
  8 43  1  0
  9 44  1  0
  9 45  1  0
 10 46  1  0
 10 47  1  0
 13 48  1  0
 14 49  1  0
 16 50  1  0
 19 51  1  0
 25 52  1  0
 25 53  1  0
 26 54  1  0
 26 55  1  0
 27 56  1  0
 27 57  1  0
 28 58  1  0
 30 59  1  0
 31 60  1  0
 31 61  1  0
 32 62  1  0
 32 63  1  0
 33 64  1  0
 33 65  1  0
 34 66  1  0
 34 67  1  0
M  CHG  2   2   1  19  -1
M  END
>  <UniqueID>  (69) 
69

>  <SMILES>  (69) 
C[NH+]1CCN(C(=O)C2CCN(c3ccc4cc(C([NH-])=O)n(C(=O)OCCCO)c4c3)CC2)CC1

>  <Energy>  (69) 
117.08562602126305

>  <Genealogy>  (69) 
C[NH+]1CCN(C(=O)C2CCN(c3ccc4cc(C([NH-])=O)n(C(=O)OCCCO)c4c3)CC2)CC1 (protonated)
C[NH+]1CCN(C(=O)C2CCN(c3ccc4cc(C([NH-])=O)n(C(=O)OCCCO)c4c3)CC2)CC1 (3D coordinates assigned)
C[NH+]1CCN(C(=O)C2CCN(c3ccc4cc(C([NH-])=O)n(C(=O)OCCCO)c4c3)CC2)CC1 (nonaromatic ring conformer: 117.08562602126305 kcal/mol)

>  <smiles>  (69) 
CN1CCN(C(=O)C2CCN(c3ccc4cc(C(N)=O)n(C(=O)OCCCO)c4c3)CC2)CC1

>  <score_type>  (69) 
oracle

>  <origin>  (69) 
adg

>  <m_score__min__energy>  (69) 
-7.7300000000000004

>  <m_primary>  (69) 
energy

$$$$
69:0
     RDKit          3D

 39 41  0  0  0  0  0  0  0  0999 V2000
  149.2270  160.8880  130.6770 C   0  0  0  0  0  0  0  0  0  0  0  0
  149.0030  159.5740  131.4150 C   0  0  0  0  0  0  0  0  0  0  0  0
  147.9380  159.7000  132.3550 O   0  0  0  0  0  0  0  0  0  0  0  0
  147.7550  158.8290  133.4360 C   0  0  0  0  0  0  0  0  0  0  0  0
  148.5960  158.7950  134.3750 O   0  0  0  0  0  0  0  0  0  0  0  0
  146.6020  157.9730  133.4730 N   0  0  0  0  0  0  0  0  0  0  0  0
  145.2950  158.3520  133.5320 C   0  0  0  0  0  0  0  0  0  0  0  0
  144.8020  159.7280  133.7470 C   0  0  0  0  0  0  0  0  0  0  0  0
  145.5100  160.8560  133.2300 N   0  0  0  0  0  0  0  0  0  0  0  0
  143.7700  159.9140  134.4450 O   0  0  0  0  0  0  0  0  0  0  0  0
  144.4540  157.2490  133.4120 C   0  0  0  0  0  0  0  0  0  0  0  0
  145.2920  156.1660  133.2880 C   0  0  0  0  0  0  0  0  0  0  0  0
  144.9920  154.8170  133.1220 C   0  0  0  0  0  0  0  0  0  0  0  0
  146.0620  153.9170  132.9790 C   0  0  0  0  0  0  0  0  0  0  0  0
  147.3980  154.3810  132.9960 C   0  0  0  0  0  0  0  0  0  0  0  0
  148.4760  153.4580  132.8350 N   0  0  0  0  0  0  0  0  0  0  0  0
  149.8220  153.4470  132.2290 C   0  0  0  0  0  0  0  0  0  0  0  0
  150.1420  152.0290  132.5880 C   0  0  0  0  0  0  0  0  0  0  0  0
  150.2500  151.1660  131.4780 O   0  0  0  0  0  0  0  0  0  0  0  0
  148.7760  152.0600  133.2050 C   0  0  0  0  0  0  0  0  0  0  0  0
  147.6680  155.7550  133.1640 C   0  0  0  0  0  0  0  0  0  0  0  0
  146.5840  156.6280  133.3260 C   0  0  0  0  0  0  0  0  0  0  0  0
  149.3653  161.6994  131.4067 H   0  0  0  0  0  0  0  0  0  0  0  0
  150.1241  160.8057  130.0457 H   0  0  0  0  0  0  0  0  0  0  0  0
  148.3533  161.1076  130.0457 H   0  0  0  0  0  0  0  0  0  0  0  0
  148.7511  158.7890  130.6867 H   0  0  0  0  0  0  0  0  0  0  0  0
  149.9237  159.3106  131.9563 H   0  0  0  0  0  0  0  0  0  0  0  0
  145.1260  161.8180  133.3580 H   0  0  0  0  0  0  0  0  0  0  0  0
  146.4510  160.7490  132.7940 H   0  0  0  0  0  0  0  0  0  0  0  0
  143.3540  157.2448  133.4156 H   0  0  0  0  0  0  0  0  0  0  0  0
  143.9496  154.4661  133.1033 H   0  0  0  0  0  0  0  0  0  0  0  0
  145.8588  152.8433  132.8529 H   0  0  0  0  0  0  0  0  0  0  0  0
  149.8004  153.6160  131.1423 H   0  0  0  0  0  0  0  0  0  0  0  0
  150.5290  154.2213  132.5616 H   0  0  0  0  0  0  0  0  0  0  0  0
  151.0525  151.7201  133.1224 H   0  0  0  0  0  0  0  0  0  0  0  0
  151.1680  151.2290  131.1030 H   0  0  0  0  0  0  0  0  0  0  0  0
  148.0842  151.3398  132.7438 H   0  0  0  0  0  0  0  0  0  0  0  0
  148.6982  151.7931  134.2693 H   0  0  0  0  0  0  0  0  0  0  0  0
  148.7017  156.1312  133.1678 H   0  0  0  0  0  0  0  0  0  0  0  0
  1  2  1  0
  2  3  1  0
  3  4  1  0
  4  5  2  0
  4  6  1  0
  6  7  1  0
  7  8  1  0
  8  9  1  0
  8 10  2  0
  7 11  2  0
 11 12  1  0
 12 13  2  0
 13 14  1  0
 14 15  2  0
 15 16  1  0
 16 17  1  0
 17 18  1  0
 18 19  1  0
 18 20  1  0
 15 21  1  0
 21 22  2  0
 22  6  1  0
 22 12  1  0
 20 16  1  0
  1 23  1  0
  1 24  1  0
  1 25  1  0
  2 26  1  0
  2 27  1  0
  9 28  1  0
  9 29  1  0
 11 30  1  0
 13 31  1  0
 14 32  1  0
 17 33  1  0
 17 34  1  0
 18 35  1  0
 19 36  1  0
 20 37  1  0
 20 38  1  0
 21 39  1  0
M  END
>  <UniqueID>  (70) 
70

>  <SMILES>  (70) 
CCOC(=O)n1c(C(N)=O)cc2ccc(N3CC(O)C3)cc21

>  <Energy>  (70) 
122.02431358590454

>  <Genealogy>  (70) 
CCOC(=O)n1c(C(N)=O)cc2ccc(N3CC(O)C3)cc21 (3D coordinates assigned)
CCOC(=O)n1c(C(N)=O)cc2ccc(N3CC(O)C3)cc21 (nonaromatic ring conformer: 122.02431358590454 kcal/mol)

>  <smiles>  (70) 
CCOC(=O)n1c(C(N)=O)cc2ccc(N3CC(O)C3)cc21

>  <score_type>  (70) 
oracle

>  <origin>  (70) 
adg

>  <m_score__min__energy>  (70) 
-6.8899999999999997

>  <m_primary>  (70) 
energy

$$$$
70:0
     RDKit          3D

 55 58  0  0  0  0  0  0  0  0999 V2000
  139.6420  156.7090  132.8900 C   0  0  0  0  0  0  0  0  0  0  0  0
  140.2160  157.9710  133.4510 C   0  0  0  0  0  0  0  0  0  0  0  0
  141.0470  158.7720  132.8180 O   0  0  0  0  0  0  0  0  0  0  0  0
  141.3330  159.7410  133.6600 C   0  0  0  0  0  0  0  0  0  0  0  0
  142.1080  160.7040  133.3890 O   0  0  0  0  0  0  0  0  0  0  0  0
  140.7220  159.5960  134.8140 O   0  0  0  0  0  0  0  0  0  0  0  0
  140.0100  158.4920  134.7130 C   0  0  0  0  0  0  0  0  0  0  0  0
  139.1650  157.9200  135.8050 C   0  0  0  0  0  0  0  0  0  0  0  0
  139.8270  158.0990  137.0550 O   0  0  0  0  0  0  0  0  0  0  0  0
  141.1670  157.7430  137.2640 C   0  0  0  0  0  0  0  0  0  0  0  0
  142.0870  158.5920  137.0910 O   0  0  0  0  0  0  0  0  0  0  0  0
  141.4930  156.3930  137.6350 N   0  0  0  0  0  0  0  0  0  0  0  0
  141.6900  155.8910  138.8910 C   0  0  0  0  0  0  0  0  0  0  0  0
  141.4440  156.6070  140.1650 C   0  0  0  0  0  0  0  0  0  0  0  0
  142.1040  157.8600  140.4160 N   0  0  0  0  0  0  0  0  0  0  0  0
  140.6910  156.1030  141.0540 O   0  0  0  0  0  0  0  0  0  0  0  0
  142.0880  154.5560  138.8270 C   0  0  0  0  0  0  0  0  0  0  0  0
  142.1210  154.2470  137.4850 C   0  0  0  0  0  0  0  0  0  0  0  0
  142.4660  153.0580  136.8490 C   0  0  0  0  0  0  0  0  0  0  0  0
  142.4470  153.0300  135.4450 C   0  0  0  0  0  0  0  0  0  0  0  0
  142.0900  154.1860  134.7030 C   0  0  0  0  0  0  0  0  0  0  0  0
  142.1170  154.1640  133.1970 C   0  0  0  0  0  0  0  0  0  0  0  0
  143.5340  154.3030  132.6990 C   0  0  0  0  0  0  0  0  0  0  0  0
  144.1570  153.2890  132.4330 O   0  0  0  0  0  0  0  0  0  0  0  0
  144.1540  155.6140  132.5470 N   0  0  1  0  0  0  0  0  0  0  0  0
  143.3110  156.7160  133.0240 C   0  0  0  0  0  0  0  0  0  0  0  0
  144.2540  157.8520  133.4610 C   0  0  2  0  0  0  0  0  0  0  0  0
  144.1250  158.9680  132.6140 O   0  0  0  0  0  0  0  0  0  0  0  0
  145.6680  157.2720  133.3680 C   0  0  0  0  0  0  0  0  0  0  0  0
  145.4680  155.7650  133.2170 C   0  0  1  0  0  0  0  0  0  0  0  0
  145.5660  155.0870  134.5700 C   0  0  0  0  0  0  0  0  0  0  0  0
  144.8270  155.4010  135.4920 O   0  0  0  0  0  0  0  0  0  0  0  0
  141.7430  155.3760  135.3830 C   0  0  0  0  0  0  0  0  0  0  0  0
  141.7570  155.3720  136.7860 C   0  0  0  0  0  0  0  0  0  0  0  0
  139.3402  156.0455  133.7138 H   0  0  0  0  0  0  0  0  0  0  0  0
  138.7643  156.9485  132.2718 H   0  0  0  0  0  0  0  0  0  0  0  0
  140.3994  156.2048  132.2718 H   0  0  0  0  0  0  0  0  0  0  0  0
  138.1935  158.4355  135.8264 H   0  0  0  0  0  0  0  0  0  0  0  0
  139.0041  156.8471  135.6232 H   0  0  0  0  0  0  0  0  0  0  0  0
  141.6950  158.5470  141.0930 H   0  0  0  0  0  0  0  0  0  0  0  0
  142.3254  153.8904  139.6700 H   0  0  0  0  0  0  0  0  0  0  0  0
  142.7454  152.1662  137.4292 H   0  0  0  0  0  0  0  0  0  0  0  0
  142.7114  152.1030  134.9152 H   0  0  0  0  0  0  0  0  0  0  0  0
  141.6983  153.2115  132.8400 H   0  0  0  0  0  0  0  0  0  0  0  0
  141.5185  155.0042  132.8151 H   0  0  0  0  0  0  0  0  0  0  0  0
  144.3100  155.7900  131.5240 H   0  0  0  0  0  0  0  0  0  0  0  0
  142.6513  157.0635  132.2153 H   0  0  0  0  0  0  0  0  0  0  0  0
  142.6774  156.3895  133.8618 H   0  0  0  0  0  0  0  0  0  0  0  0
  144.0184  158.1994  134.4778 H   0  0  0  0  0  0  0  0  0  0  0  0
  143.1560  159.0660  132.4130 H   0  0  0  0  0  0  0  0  0  0  0  0
  146.1971  157.6812  132.4947 H   0  0  0  0  0  0  0  0  0  0  0  0
  146.2759  157.5218  134.2501 H   0  0  0  0  0  0  0  0  0  0  0  0
  146.2438  155.2736  132.6115 H   0  0  0  0  0  0  0  0  0  0  0  0
  146.3163  154.2976  134.7248 H   0  0  0  0  0  0  0  0  0  0  0  0
  141.4685  156.2836  134.8253 H   0  0  0  0  0  0  0  0  0  0  0  0
  1  2  1  0
  2  3  1  0
  3  4  1  0
  4  5  2  0
  4  6  1  0
  6  7  1  0
  7  8  1  0
  8  9  1  0
  9 10  1  0
 10 11  2  0
 10 12  1  0
 12 13  1  0
 13 14  1  0
 14 15  1  0
 14 16  2  0
 13 17  2  0
 17 18  1  0
 18 19  2  0
 19 20  1  0
 20 21  2  0
 21 22  1  0
 22 23  1  0
 23 24  2  0
 23 25  1  0
 25 26  1  0
 26 27  1  0
 27 28  1  0
 27 29  1  0
 29 30  1  0
 30 31  1  0
 31 32  2  0
 21 33  1  0
 33 34  2  0
  7  2  2  0
 34 12  1  0
 34 18  1  0
 30 25  1  0
  1 35  1  0
  1 36  1  0
  1 37  1  0
  8 38  1  0
  8 39  1  0
 15 40  1  0
 17 41  1  0
 19 42  1  0
 20 43  1  0
 22 44  1  0
 22 45  1  0
 25 46  1  6
 26 47  1  0
 26 48  1  0
 27 49  1  1
 28 50  1  0
 29 51  1  0
 29 52  1  0
 30 53  1  6
 31 54  1  0
 33 55  1  0
M  CHG  2  15  -1  25   1
M  END
>  <UniqueID>  (71) 
71

>  <SMILES>  (71) 
Cc1oc(=O)oc1COC(=O)n1c(C([NH-])=O)cc2ccc(CC(=O)[N@H+]3C[C@H](O)C[C@H]3C=O)cc21

>  <Energy>  (71) 
132.57729124831292

>  <Genealogy>  (71) 
Cc1oc(=O)oc1COC(=O)n1c(C([NH-])=O)cc2ccc(CC(=O)[NH+]3C[C@H](O)C[C@H]3C=O)cc21 (protonated)
Cc1oc(=O)oc1COC(=O)n1c(C([NH-])=O)cc2ccc(CC(=O)[N@H+]3C[C@H](O)C[C@H]3C=O)cc21 (chirality)
Cc1oc(=O)oc1COC(=O)n1c(C([NH-])=O)cc2ccc(CC(=O)[N@H+]3C[C@H](O)C[C@H]3C=O)cc21 (3D coordinates assigned)
Cc1oc(=O)oc1COC(=O)n1c(C([NH-])=O)cc2ccc(CC(=O)[N@H+]3C[C@H](O)C[C@H]3C=O)cc21 (nonaromatic ring conformer: 132.57729124831292 kcal/mol)

>  <smiles>  (71) 
Cc1oc(=O)oc1COC(=O)n1c(C(N)=O)cc2ccc(CC(=O)N3C[C@H](O)C[C@H]3C=O)cc21

>  <score_type>  (71) 
oracle

>  <origin>  (71) 
adg

>  <m_score__min__energy>  (71) 
-7.9100000000000001

>  <m_primary>  (71) 
energy

$$$$
71:0
     RDKit          3D

 47 49  0  0  0  0  0  0  0  0999 V2000
  139.4510  158.1870  136.7610 N   0  0  0  0  0  0  0  0  0  0  0  0
  140.7930  157.7050  136.7890 C   0  0  0  0  0  0  0  0  0  0  0  0
  141.6620  158.3380  137.4430 O   0  0  0  0  0  0  0  0  0  0  0  0
  141.1580  156.5000  136.0150 C   0  0  0  0  0  0  0  0  0  0  0  0
  142.0270  155.5180  136.4860 C   0  0  0  0  0  0  0  0  0  0  0  0
  142.0300  154.5390  135.5200 C   0  0  0  0  0  0  0  0  0  0  0  0
  142.7260  153.3350  135.4670 C   0  0  0  0  0  0  0  0  0  0  0  0
  142.5570  152.5260  134.3320 C   0  0  0  0  0  0  0  0  0  0  0  0
  141.7110  152.9340  133.2690 C   0  0  0  0  0  0  0  0  0  0  0  0
  141.5350  152.0840  132.1160 N   0  0  0  0  0  0  0  0  0  0  0  0
  140.8860  150.8130  132.4950 C   0  0  2  0  0  0  0  0  0  0  0  0
  141.6430  149.6130  131.9650 C   0  0  0  0  0  0  0  0  0  0  0  0
  140.5760  148.5440  131.8080 C   0  0  0  0  0  0  0  0  0  0  0  0
  139.2720  149.2050  131.6980 N   0  0  0  0  0  0  0  0  0  0  0  0
  139.4960  150.6400  131.8890 C   0  0  0  0  0  0  0  0  0  0  0  0
  141.0190  154.1640  133.3620 C   0  0  0  0  0  0  0  0  0  0  0  0
  141.1910  154.9410  134.5130 C   0  0  0  0  0  0  0  0  0  0  0  0
  140.6470  156.1440  134.8020 N   0  0  0  0  0  0  0  0  0  0  0  0
  139.7770  156.9110  133.9560 C   0  0  0  0  0  0  0  0  0  0  0  0
  139.1220  156.3370  133.0430 O   0  0  0  0  0  0  0  0  0  0  0  0
  139.6720  158.2950  134.1370 O   0  0  0  0  0  0  0  0  0  0  0  0
  139.7500  159.2370  133.0700 C   0  0  0  0  0  0  0  0  0  0  0  0
  141.0460  160.0490  133.1670 C   0  0  0  0  0  0  0  0  0  0  0  0
  141.7410  159.8530  134.5180 C   0  0  0  0  0  0  0  0  0  0  0  0
  140.9050  160.2410  135.5740 O   0  0  0  0  0  0  0  0  0  0  0  0
  139.1870  159.0050  136.1700 H   0  0  0  0  0  0  0  0  0  0  0  0
  142.5911  155.5244  137.4303 H   0  0  0  0  0  0  0  0  0  0  0  0
  143.3883  153.0266  136.2893 H   0  0  0  0  0  0  0  0  0  0  0  0
  143.0870  151.5643  134.2663 H   0  0  0  0  0  0  0  0  0  0  0  0
  140.9760  152.5790  131.3810 H   0  0  0  0  0  0  0  0  0  0  0  0
  142.4750  151.8790  131.7040 H   0  0  0  0  0  0  0  0  0  0  0  0
  140.8547  150.8621  133.5935 H   0  0  0  0  0  0  0  0  0  0  0  0
  142.1113  149.8429  130.9966 H   0  0  0  0  0  0  0  0  0  0  0  0
  142.4601  149.3002  132.6317 H   0  0  0  0  0  0  0  0  0  0  0  0
  140.7715  147.9544  130.9002 H   0  0  0  0  0  0  0  0  0  0  0  0
  140.5859  147.8694  132.6768 H   0  0  0  0  0  0  0  0  0  0  0  0
  138.8920  149.0480  130.7350 H   0  0  0  0  0  0  0  0  0  0  0  0
  139.4412  151.1603  130.9214 H   0  0  0  0  0  0  0  0  0  0  0  0
  138.7292  151.0659  132.5529 H   0  0  0  0  0  0  0  0  0  0  0  0
  140.3607  154.5021  132.5482 H   0  0  0  0  0  0  0  0  0  0  0  0
  139.7300  158.6999  132.1103 H   0  0  0  0  0  0  0  0  0  0  0  0
  138.8932  159.9236  133.1373 H   0  0  0  0  0  0  0  0  0  0  0  0
  141.7280  159.7279  132.3659 H   0  0  0  0  0  0  0  0  0  0  0  0
  140.7903  161.1141  133.0656 H   0  0  0  0  0  0  0  0  0  0  0  0
  142.0021  158.7911  134.6375 H   0  0  0  0  0  0  0  0  0  0  0  0
  142.6463  160.4774  134.5402 H   0  0  0  0  0  0  0  0  0  0  0  0
  140.4060  159.4290  135.8550 H   0  0  0  0  0  0  0  0  0  0  0  0
  1  2  1  0
  2  3  2  0
  2  4  1  0
  4  5  2  0
  5  6  1  0
  6  7  2  0
  7  8  1  0
  8  9  2  0
  9 10  1  0
 10 11  1  0
 11 12  1  0
 12 13  1  0
 13 14  1  0
 14 15  1  0
  9 16  1  0
 16 17  2  0
 17 18  1  0
 18 19  1  0
 19 20  2  0
 19 21  1  0
 21 22  1  0
 22 23  1  0
 23 24  1  0
 24 25  1  0
 18  4  1  0
 17  6  1  0
 15 11  1  0
  1 26  1  0
  5 27  1  0
  7 28  1  0
  8 29  1  0
 10 30  1  0
 10 31  1  0
 11 32  1  1
 12 33  1  0
 12 34  1  0
 13 35  1  0
 13 36  1  0
 14 37  1  0
 15 38  1  0
 15 39  1  0
 16 40  1  0
 22 41  1  0
 22 42  1  0
 23 43  1  0
 23 44  1  0
 24 45  1  0
 24 46  1  0
 25 47  1  0
M  CHG  2   1  -1  10   1
M  END
>  <UniqueID>  (72) 
72

>  <SMILES>  (72) 
[NH-]C(=O)c1cc2ccc([NH2+][C@@H]3CCNC3)cc2n1C(=O)OCCCO

>  <Energy>  (72) 
83.04432409686169

>  <Genealogy>  (72) 
[NH-]C(=O)c1cc2ccc([NH2+]C3CCNC3)cc2n1C(=O)OCCCO (protonated)
[NH-]C(=O)c1cc2ccc([NH2+][C@@H]3CCNC3)cc2n1C(=O)OCCCO (chirality)
[NH-]C(=O)c1cc2ccc([NH2+][C@@H]3CCNC3)cc2n1C(=O)OCCCO (3D coordinates assigned)
[NH-]C(=O)c1cc2ccc([NH2+][C@@H]3CCNC3)cc2n1C(=O)OCCCO (nonaromatic ring conformer: 83.04432409686169 kcal/mol)

>  <smiles>  (72) 
NC(=O)c1cc2ccc(NC3CCNC3)cc2n1C(=O)OCCCO

>  <score_type>  (72) 
oracle

>  <origin>  (72) 
adg

>  <m_score__min__energy>  (72) 
-6.5099999999999998

>  <m_primary>  (72) 
energy

$$$$
72:0
     RDKit          3D

 41 43  0  0  0  0  0  0  0  0999 V2000
  141.4570  158.4810  132.9500 C   0  0  0  0  0  0  0  0  0  0  0  0
  142.8690  158.4370  133.1150 O   0  0  0  0  0  0  0  0  0  0  0  0
  143.5550  159.2970  133.9780 C   0  0  0  0  0  0  0  0  0  0  0  0
  142.9480  159.8600  134.9310 O   0  0  0  0  0  0  0  0  0  0  0  0
  144.9510  159.5580  133.7620 N   0  0  0  0  0  0  0  0  0  0  0  0
  145.5860  160.7660  133.7430 C   0  0  0  0  0  0  0  0  0  0  0  0
  144.9800  162.0720  134.0770 C   0  0  0  0  0  0  0  0  0  0  0  0
  143.6590  162.3740  133.6330 N   0  0  0  0  0  0  0  0  0  0  0  0
  145.6260  162.9400  134.7200 O   0  0  0  0  0  0  0  0  0  0  0  0
  146.9370  160.6020  133.4440 C   0  0  0  0  0  0  0  0  0  0  0  0
  147.1140  159.2460  133.2860 C   0  0  0  0  0  0  0  0  0  0  0  0
  148.2620  158.5250  132.9720 C   0  0  0  0  0  0  0  0  0  0  0  0
  148.1500  157.1310  132.8490 C   0  0  0  0  0  0  0  0  0  0  0  0
  146.9010  156.4860  133.0350 C   0  0  0  0  0  0  0  0  0  0  0  0
  146.7960  154.9880  132.8890 C   0  0  0  0  0  0  0  0  0  0  0  0
  148.1490  154.2680  133.1200 C   0  0  2  0  0  0  0  0  0  0  0  0
  148.4670  153.4240  131.9470 N   0  0  0  0  0  0  0  0  0  0  0  0
  149.6410  152.5740  132.1890 C   0  0  0  0  0  0  0  0  0  0  0  0
  149.3330  151.5690  133.3000 C   0  0  0  0  0  0  0  0  0  0  0  0
  148.8470  152.2370  134.4600 O   0  0  0  0  0  0  0  0  0  0  0  0
  148.1490  153.4450  134.3980 C   0  0  0  0  0  0  0  0  0  0  0  0
  147.6300  153.9000  135.4500 O   0  0  0  0  0  0  0  0  0  0  0  0
  145.7550  157.2540  133.3450 C   0  0  0  0  0  0  0  0  0  0  0  0
  145.9010  158.6400  133.4820 C   0  0  0  0  0  0  0  0  0  0  0  0
  140.9727  158.4961  133.9375 H   0  0  0  0  0  0  0  0  0  0  0  0
  141.1811  159.3882  132.3924 H   0  0  0  0  0  0  0  0  0  0  0  0
  141.1251  157.5928  132.3924 H   0  0  0  0  0  0  0  0  0  0  0  0
  142.8630  161.7300  133.8390 H   0  0  0  0  0  0  0  0  0  0  0  0
  147.7001  161.3890  133.3534 H   0  0  0  0  0  0  0  0  0  0  0  0
  149.2272  159.0315  132.8247 H   0  0  0  0  0  0  0  0  0  0  0  0
  149.0405  156.5328  132.6058 H   0  0  0  0  0  0  0  0  0  0  0  0
  146.0680  154.6131  133.6235 H   0  0  0  0  0  0  0  0  0  0  0  0
  146.4790  154.7762  131.8572 H   0  0  0  0  0  0  0  0  0  0  0  0
  148.9285  155.0348  133.2397 H   0  0  0  0  0  0  0  0  0  0  0  0
  148.6760  154.0430  131.1280 H   0  0  0  0  0  0  0  0  0  0  0  0
  147.6470  152.8210  131.7000 H   0  0  0  0  0  0  0  0  0  0  0  0
  149.8957  152.0318  131.2664 H   0  0  0  0  0  0  0  0  0  0  0  0
  150.4890  153.2045  132.4945 H   0  0  0  0  0  0  0  0  0  0  0  0
  148.5704  150.8602  132.9450 H   0  0  0  0  0  0  0  0  0  0  0  0
  150.2581  151.0340  133.5605 H   0  0  0  0  0  0  0  0  0  0  0  0
  144.7735  156.7748  133.4753 H   0  0  0  0  0  0  0  0  0  0  0  0
  1  2  1  0
  2  3  1  0
  3  4  2  0
  3  5  1  0
  5  6  1  0
  6  7  1  0
  7  8  1  0
  7  9  2  0
  6 10  2  0
 10 11  1  0
 11 12  2  0
 12 13  1  0
 13 14  2  0
 14 15  1  0
 15 16  1  0
 16 17  1  0
 17 18  1  0
 18 19  1  0
 19 20  1  0
 20 21  1  0
 21 22  2  0
 14 23  1  0
 23 24  2  0
 24  5  1  0
 24 11  1  0
 21 16  1  0
  1 25  1  0
  1 26  1  0
  1 27  1  0
  8 28  1  0
 10 29  1  0
 12 30  1  0
 13 31  1  0
 15 32  1  0
 15 33  1  0
 16 34  1  1
 17 35  1  0
 17 36  1  0
 18 37  1  0
 18 38  1  0
 19 39  1  0
 19 40  1  0
 23 41  1  0
M  CHG  2   8  -1  17   1
M  END
>  <UniqueID>  (73) 
73

>  <SMILES>  (73) 
COC(=O)n1c(C([NH-])=O)cc2ccc(C[C@@H]3[NH2+]CCOC3=O)cc21

>  <Energy>  (73) 
80.46657059836336

>  <Genealogy>  (73) 
COC(=O)n1c(C([NH-])=O)cc2ccc(C[C@@H]3[NH2+]CCOC3=O)cc21 (protonated)
COC(=O)n1c(C([NH-])=O)cc2ccc(C[C@@H]3[NH2+]CCOC3=O)cc21 (3D coordinates assigned)
COC(=O)n1c(C([NH-])=O)cc2ccc(C[C@@H]3[NH2+]CCOC3=O)cc21 (nonaromatic ring conformer: 80.46657059836336 kcal/mol)

>  <smiles>  (73) 
COC(=O)n1c(C(N)=O)cc2ccc(C[C@@H]3NCCOC3=O)cc21

>  <score_type>  (73) 
oracle

>  <origin>  (73) 
adg

>  <m_score__min__energy>  (73) 
-6.6100000000000003

>  <m_primary>  (73) 
energy

$$$$
73:0
     RDKit          3D

 47 48  0  0  0  0  0  0  0  0999 V2000
  139.4310  158.6780  132.4450 C   0  0  0  0  0  0  0  0  0  0  0  0
  139.0780  157.6480  133.5060 C   0  0  0  0  0  0  0  0  0  0  0  0
  139.2770  158.2090  134.7990 O   0  0  0  0  0  0  0  0  0  0  0  0
  140.4970  158.1230  135.4780 C   0  0  0  0  0  0  0  0  0  0  0  0
  140.6750  158.7590  136.5540 O   0  0  0  0  0  0  0  0  0  0  0  0
  141.6110  157.3120  134.8740 C   0  0  2  0  0  0  0  0  0  0  0  0
  142.0940  156.2030  135.8190 C   0  0  0  0  0  0  0  0  0  0  0  0
  142.7560  158.2110  134.4580 C   0  0  0  0  0  0  0  0  0  0  0  0
  142.5770  159.6180  134.4270 C   0  0  0  0  0  0  0  0  0  0  0  0
  143.6300  160.4700  134.0550 C   0  0  0  0  0  0  0  0  0  0  0  0
  144.8470  159.8920  133.7100 C   0  0  0  0  0  0  0  0  0  0  0  0
  146.0370  160.4830  133.3510 C   0  0  0  0  0  0  0  0  0  0  0  0
  146.9200  159.4290  133.1350 C   0  0  0  0  0  0  0  0  0  0  0  0
  148.3110  159.6140  132.6750 C   0  0  0  0  0  0  0  0  0  0  0  0
  149.3990  158.9500  133.3210 N   0  0  0  0  0  0  0  0  0  0  0  0
  148.5380  160.3250  131.6600 O   0  0  0  0  0  0  0  0  0  0  0  0
  146.3080  158.2330  133.3630 N   0  0  0  0  0  0  0  0  0  0  0  0
  146.9030  156.9260  133.3620 C   0  0  0  0  0  0  0  0  0  0  0  0
  147.7860  156.6370  134.2150 O   0  0  0  0  0  0  0  0  0  0  0  0
  146.4960  155.9780  132.4170 O   0  0  0  0  0  0  0  0  0  0  0  0
  145.7700  154.7940  132.7440 C   0  0  0  0  0  0  0  0  0  0  0  0
  145.5580  154.7100  134.2590 C   0  0  0  0  0  0  0  0  0  0  0  0
  144.4280  154.8230  132.0180 C   0  0  0  0  0  0  0  0  0  0  0  0
  145.0360  158.5340  133.7120 C   0  0  0  0  0  0  0  0  0  0  0  0
  144.0120  157.6630  134.0990 C   0  0  0  0  0  0  0  0  0  0  0  0
  139.7508  159.6111  132.9319 H   0  0  0  0  0  0  0  0  0  0  0  0
  140.2484  158.2929  131.8177 H   0  0  0  0  0  0  0  0  0  0  0  0
  138.5492  158.8753  131.8177 H   0  0  0  0  0  0  0  0  0  0  0  0
  138.0246  157.3521  133.3932 H   0  0  0  0  0  0  0  0  0  0  0  0
  139.7226  156.7646  133.3872 H   0  0  0  0  0  0  0  0  0  0  0  0
  141.2116  156.8161  133.9770 H   0  0  0  0  0  0  0  0  0  0  0  0
  141.9544  156.5235  136.8620 H   0  0  0  0  0  0  0  0  0  0  0  0
  141.5134  155.2868  135.6361 H   0  0  0  0  0  0  0  0  0  0  0  0
  143.1603  156.0040  135.6361 H   0  0  0  0  0  0  0  0  0  0  0  0
  141.6011  160.0472  134.6978 H   0  0  0  0  0  0  0  0  0  0  0  0
  143.4961  161.5617  134.0371 H   0  0  0  0  0  0  0  0  0  0  0  0
  146.2457  161.5588  133.2552 H   0  0  0  0  0  0  0  0  0  0  0  0
  150.3780  159.1240  133.0080 H   0  0  0  0  0  0  0  0  0  0  0  0
  149.2300  158.2220  134.0500 H   0  0  0  0  0  0  0  0  0  0  0  0
  146.3384  153.9073  132.4269 H   0  0  0  0  0  0  0  0  0  0  0  0
  146.4607  155.0677  134.7759 H   0  0  0  0  0  0  0  0  0  0  0  0
  144.6997  155.3360  134.5444 H   0  0  0  0  0  0  0  0  0  0  0  0
  145.3614  153.6660  134.5444 H   0  0  0  0  0  0  0  0  0  0  0  0
  143.6123  154.8406  132.7558 H   0  0  0  0  0  0  0  0  0  0  0  0
  144.3716  155.7226  131.3875 H   0  0  0  0  0  0  0  0  0  0  0  0
  144.3328  153.9267  131.3875 H   0  0  0  0  0  0  0  0  0  0  0  0
  144.1785  156.5760  134.1240 H   0  0  0  0  0  0  0  0  0  0  0  0
  1  2  1  0
  2  3  1  0
  3  4  1  0
  4  5  2  0
  4  6  1  0
  6  7  1  0
  6  8  1  0
  8  9  2  0
  9 10  1  0
 10 11  2  0
 11 12  1  0
 12 13  2  0
 13 14  1  0
 14 15  1  0
 14 16  2  0
 13 17  1  0
 17 18  1  0
 18 19  2  0
 18 20  1  0
 20 21  1  0
 21 22  1  0
 21 23  1  0
 17 24  1  0
 24 25  2  0
 25  8  1  0
 24 11  1  0
  1 26  1  0
  1 27  1  0
  1 28  1  0
  2 29  1  0
  2 30  1  0
  6 31  1  6
  7 32  1  0
  7 33  1  0
  7 34  1  0
  9 35  1  0
 10 36  1  0
 12 37  1  0
 15 38  1  0
 15 39  1  0
 21 40  1  0
 22 41  1  0
 22 42  1  0
 22 43  1  0
 23 44  1  0
 23 45  1  0
 23 46  1  0
 25 47  1  0
M  END
>  <UniqueID>  (74) 
74

>  <SMILES>  (74) 
CCOC(=O)[C@H](C)c1ccc2cc(C(N)=O)n(C(=O)OC(C)C)c2c1

>  <Energy>  (74) 
72.38435541380882

>  <Genealogy>  (74) 
CCOC(=O)[C@H](C)c1ccc2cc(C(N)=O)n(C(=O)OC(C)C)c2c1 (chirality)
CCOC(=O)[C@H](C)c1ccc2cc(C(N)=O)n(C(=O)OC(C)C)c2c1 (3D coordinates assigned)
CCOC(=O)[C@H](C)c1ccc2cc(C(N)=O)n(C(=O)OC(C)C)c2c1 (optimized conformer: 72.38435541380882 kcal/mol)

>  <smiles>  (74) 
CCOC(=O)C(C)c1ccc2cc(C(N)=O)n(C(=O)OC(C)C)c2c1

>  <score_type>  (74) 
oracle

>  <origin>  (74) 
adg

>  <m_score__min__energy>  (74) 
-7.1100000000000003

>  <m_primary>  (74) 
energy

$$$$
74:0
     RDKit          3D

 42 44  0  0  0  0  0  0  0  0999 V2000
  141.4180  154.3980  133.6540 C   0  0  0  0  0  0  0  0  0  0  0  0
  142.7880  153.8550  133.4180 C   0  0  0  0  0  0  0  0  0  0  0  0
  143.0610  152.8260  132.6490 O   0  0  0  0  0  0  0  0  0  0  0  0
  144.3640  152.6720  132.7050 C   0  0  0  0  0  0  0  0  0  0  0  0
  144.9860  151.7710  132.0840 O   0  0  0  0  0  0  0  0  0  0  0  0
  144.9460  153.5600  133.4780 O   0  0  0  0  0  0  0  0  0  0  0  0
  143.9820  154.3210  133.9410 C   0  0  0  0  0  0  0  0  0  0  0  0
  144.1900  155.4790  134.8670 C   0  0  0  0  0  0  0  0  0  0  0  0
  143.3920  156.5860  134.4570 O   0  0  0  0  0  0  0  0  0  0  0  0
  143.6760  157.3600  133.3250 C   0  0  0  0  0  0  0  0  0  0  0  0
  142.9200  157.3130  132.3150 O   0  0  0  0  0  0  0  0  0  0  0  0
  144.8480  158.1870  133.3040 N   0  0  0  0  0  0  0  0  0  0  0  0
  144.9250  159.5290  133.5290 C   0  0  0  0  0  0  0  0  0  0  0  0
  143.7790  160.4520  133.6750 C   0  0  0  0  0  0  0  0  0  0  0  0
  142.4630  160.0480  133.3090 N   0  0  0  0  0  0  0  0  0  0  0  0
  143.9740  161.6280  134.0840 O   0  0  0  0  0  0  0  0  0  0  0  0
  146.2540  159.9490  133.5250 C   0  0  0  0  0  0  0  0  0  0  0  0
  146.9940  158.8150  133.2840 C   0  0  0  0  0  0  0  0  0  0  0  0
  148.3730  158.6510  133.1840 C   0  0  0  0  0  0  0  0  0  0  0  0
  148.8670  157.3560  132.9560 C   0  0  0  0  0  0  0  0  0  0  0  0
  147.9810  156.2540  132.8480 C   0  0  0  0  0  0  0  0  0  0  0  0
  148.5250  154.8730  132.5880 C   0  0  0  0  0  0  0  0  0  0  0  0
  147.9080  153.8340  133.5300 C   0  0  0  0  0  0  0  0  0  0  0  0
  147.2690  152.7600  132.7750 N   0  0  0  0  0  0  0  0  0  0  0  0
  146.5870  156.4610  132.9490 C   0  0  0  0  0  0  0  0  0  0  0  0
  146.1230  157.7650  133.1560 C   0  0  0  0  0  0  0  0  0  0  0  0
  141.2339  154.4710  134.7360 H   0  0  0  0  0  0  0  0  0  0  0  0
  141.3361  155.3966  133.2000 H   0  0  0  0  0  0  0  0  0  0  0  0
  140.6743  153.7267  133.2000 H   0  0  0  0  0  0  0  0  0  0  0  0
  143.9051  155.1839  135.8877 H   0  0  0  0  0  0  0  0  0  0  0  0
  145.2500  155.7720  134.8430 H   0  0  0  0  0  0  0  0  0  0  0  0
  142.3050  159.3750  132.5260 H   0  0  0  0  0  0  0  0  0  0  0  0
  146.6310  160.9705  133.6814 H   0  0  0  0  0  0  0  0  0  0  0  0
  149.0545  159.5090  133.2806 H   0  0  0  0  0  0  0  0  0  0  0  0
  149.9510  157.1952  132.8603 H   0  0  0  0  0  0  0  0  0  0  0  0
  148.2992  154.5908  131.5491 H   0  0  0  0  0  0  0  0  0  0  0  0
  149.6106  154.8934  132.7640 H   0  0  0  0  0  0  0  0  0  0  0  0
  148.6996  153.4072  134.1634 H   0  0  0  0  0  0  0  0  0  0  0  0
  147.1458  154.3299  134.1490 H   0  0  0  0  0  0  0  0  0  0  0  0
  146.6250  153.2000  132.0790 H   0  0  0  0  0  0  0  0  0  0  0  0
  146.6620  152.2140  133.4290 H   0  0  0  0  0  0  0  0  0  0  0  0
  145.8843  155.6187  132.8670 H   0  0  0  0  0  0  0  0  0  0  0  0
  1  2  1  0
  2  3  1  0
  3  4  1  0
  4  5  2  0
  4  6  1  0
  6  7  1  0
  7  8  1  0
  8  9  1  0
  9 10  1  0
 10 11  2  0
 10 12  1  0
 12 13  1  0
 13 14  1  0
 14 15  1  0
 14 16  2  0
 13 17  2  0
 17 18  1  0
 18 19  2  0
 19 20  1  0
 20 21  2  0
 21 22  1  0
 22 23  1  0
 23 24  1  0
 21 25  1  0
 25 26  2  0
  7  2  2  0
 26 12  1  0
 26 18  1  0
  1 27  1  0
  1 28  1  0
  1 29  1  0
  8 30  1  0
  8 31  1  0
 15 32  1  0
 17 33  1  0
 19 34  1  0
 20 35  1  0
 22 36  1  0
 22 37  1  0
 23 38  1  0
 23 39  1  0
 24 40  1  0
 24 41  1  0
 25 42  1  0
M  CHG  1  15  -1
M  END
>  <UniqueID>  (75) 
75

>  <SMILES>  (75) 
Cc1oc(=O)oc1COC(=O)n1c(C([NH-])=O)cc2ccc(CCN)cc21

>  <Energy>  (75) 
108.97869839348729

>  <Genealogy>  (75) 
Cc1oc(=O)oc1COC(=O)n1c(C([NH-])=O)cc2ccc(CCN)cc21 (protonated)
Cc1oc(=O)oc1COC(=O)n1c(C([NH-])=O)cc2ccc(CCN)cc21 (3D coordinates assigned)
Cc1oc(=O)oc1COC(=O)n1c(C([NH-])=O)cc2ccc(CCN)cc21 (optimized conformer: 108.97869839348729 kcal/mol)

>  <smiles>  (75) 
Cc1oc(=O)oc1COC(=O)n1c(C(N)=O)cc2ccc(CCN)cc21

>  <score_type>  (75) 
oracle

>  <origin>  (75) 
adg

>  <m_score__min__energy>  (75) 
-6.6200000000000001

>  <m_primary>  (75) 
energy

$$$$
75:0
     RDKit          3D

 32 33  0  0  0  0  0  0  0  0999 V2000
  142.2910  158.7870  133.2610 C   0  0  0  0  0  0  0  0  0  0  0  0
  143.2100  159.5320  134.1750 C   0  0  0  0  0  0  0  0  0  0  0  0
  142.7350  160.1090  135.1900 O   0  0  0  0  0  0  0  0  0  0  0  0
  144.6090  159.6540  133.8760 N   0  0  0  0  0  0  0  0  0  0  0  0
  145.3830  160.7770  133.9030 C   0  0  0  0  0  0  0  0  0  0  0  0
  144.8960  162.1540  134.1210 C   0  0  0  0  0  0  0  0  0  0  0  0
  143.5740  162.5110  133.7230 N   0  0  0  0  0  0  0  0  0  0  0  0
  145.6240  163.0130  134.6850 O   0  0  0  0  0  0  0  0  0  0  0  0
  146.7080  160.4630  133.6090 C   0  0  0  0  0  0  0  0  0  0  0  0
  146.7210  159.1040  133.3880 C   0  0  0  0  0  0  0  0  0  0  0  0
  147.7780  158.2570  133.0630 C   0  0  0  0  0  0  0  0  0  0  0  0
  147.5010  156.8870  132.9110 C   0  0  0  0  0  0  0  0  0  0  0  0
  146.1850  156.3980  133.0900 C   0  0  0  0  0  0  0  0  0  0  0  0
  145.9160  154.9940  132.9390 C   0  0  0  0  0  0  0  0  0  0  0  0
  145.6890  153.8160  132.8140 C   0  0  0  0  0  0  0  0  0  0  0  0
  145.4140  152.3810  132.6580 C   0  0  0  0  0  0  0  0  0  0  0  0
  146.1170  151.8460  131.4940 N   0  0  0  0  0  0  0  0  0  0  0  0
  145.1380  157.2820  133.4200 C   0  0  0  0  0  0  0  0  0  0  0  0
  145.4420  158.6410  133.5530 C   0  0  0  0  0  0  0  0  0  0  0  0
  141.5731  158.2050  133.8575 H   0  0  0  0  0  0  0  0  0  0  0  0
  141.7463  159.5016  132.6265 H   0  0  0  0  0  0  0  0  0  0  0  0
  142.8775  158.1062  132.6265 H   0  0  0  0  0  0  0  0  0  0  0  0
  142.7620  161.8930  133.9440 H   0  0  0  0  0  0  0  0  0  0  0  0
  147.5625  161.1541  133.5631 H   0  0  0  0  0  0  0  0  0  0  0  0
  148.7975  158.6478  132.9295 H   0  0  0  0  0  0  0  0  0  0  0  0
  148.3122  156.1909  132.6513 H   0  0  0  0  0  0  0  0  0  0  0  0
  145.7504  151.8484  133.5598 H   0  0  0  0  0  0  0  0  0  0  0  0
  144.3325  152.2408  132.5144 H   0  0  0  0  0  0  0  0  0  0  0  0
  146.2070  150.8060  131.5740 H   0  0  0  0  0  0  0  0  0  0  0  0
  147.0660  152.2790  131.4150 H   0  0  0  0  0  0  0  0  0  0  0  0
  145.5690  152.0720  130.6320 H   0  0  0  0  0  0  0  0  0  0  0  0
  144.1120  156.9141  133.5686 H   0  0  0  0  0  0  0  0  0  0  0  0
  1  2  1  0
  2  3  2  0
  2  4  1  0
  4  5  1  0
  5  6  1  0
  6  7  1  0
  6  8  2  0
  5  9  2  0
  9 10  1  0
 10 11  2  0
 11 12  1  0
 12 13  2  0
 13 14  1  0
 14 15  3  0
 15 16  1  0
 16 17  1  0
 13 18  1  0
 18 19  2  0
 19  4  1  0
 19 10  1  0
  1 20  1  0
  1 21  1  0
  1 22  1  0
  7 23  1  0
  9 24  1  0
 11 25  1  0
 12 26  1  0
 16 27  1  0
 16 28  1  0
 17 29  1  0
 17 30  1  0
 17 31  1  0
 18 32  1  0
M  CHG  2   7  -1  17   1
M  END
>  <UniqueID>  (76) 
76

>  <SMILES>  (76) 
CC(=O)n1c(C([NH-])=O)cc2ccc(C#CC[NH3+])cc21

>  <Energy>  (76) 
65.14127890840345

>  <Genealogy>  (76) 
CC(=O)n1c(C([NH-])=O)cc2ccc(C#CC[NH3+])cc21 (protonated)
CC(=O)n1c(C([NH-])=O)cc2ccc(C#CC[NH3+])cc21 (3D coordinates assigned)
CC(=O)n1c(C([NH-])=O)cc2ccc(C#CC[NH3+])cc21 (optimized conformer: 65.14127890840345 kcal/mol)

>  <smiles>  (76) 
CC(=O)n1c(C(N)=O)cc2ccc(C#CCN)cc21

>  <score_type>  (76) 
oracle

>  <origin>  (76) 
adg

>  <m_score__min__energy>  (76) 
-6.9699999999999998

>  <m_primary>  (76) 
energy

$$$$
76:0
     RDKit          3D

 42 43  0  0  0  0  0  0  0  0999 V2000
  147.5320  154.6650  135.1170 C   0  0  0  0  0  0  0  0  0  0  0  0
  148.0700  154.2330  133.7860 C   0  0  0  0  0  0  0  0  0  0  0  0
  148.8060  153.2590  133.7270 O   0  0  0  0  0  0  0  0  0  0  0  0
  147.7070  154.9640  132.5220 C   0  0  0  0  0  0  0  0  0  0  0  0
  147.5790  156.4370  132.7950 C   0  0  0  0  0  0  0  0  0  0  0  0
  148.7130  157.2820  132.7010 C   0  0  0  0  0  0  0  0  0  0  0  0
  148.5930  158.6660  132.9080 C   0  0  0  0  0  0  0  0  0  0  0  0
  147.3320  159.1740  133.2050 C   0  0  0  0  0  0  0  0  0  0  0  0
  146.9280  160.4720  133.4130 C   0  0  0  0  0  0  0  0  0  0  0  0
  145.5560  160.4010  133.6430 C   0  0  0  0  0  0  0  0  0  0  0  0
  144.7270  161.5730  133.9920 C   0  0  0  0  0  0  0  0  0  0  0  0
  143.3260  161.5850  133.7320 N   0  0  0  0  0  0  0  0  0  0  0  0
  145.2550  162.5600  134.5700 O   0  0  0  0  0  0  0  0  0  0  0  0
  145.1260  159.1090  133.5730 N   0  0  0  0  0  0  0  0  0  0  0  0
  143.7740  158.6300  133.6460 C   0  0  0  0  0  0  0  0  0  0  0  0
  143.2770  158.0150  132.6650 O   0  0  0  0  0  0  0  0  0  0  0  0
  143.0170  158.8770  134.8000 O   0  0  0  0  0  0  0  0  0  0  0  0
  141.6000  158.7010  134.9430 C   0  0  0  0  0  0  0  0  0  0  0  0
  141.1990  159.3280  136.2860 C   0  0  0  0  0  0  0  0  0  0  0  0
  140.8470  159.4230  133.8110 C   0  0  0  0  0  0  0  0  0  0  0  0
  141.2380  157.2020  134.9670 C   0  0  0  0  0  0  0  0  0  0  0  0
  146.2250  158.3700  133.3060 C   0  0  0  0  0  0  0  0  0  0  0  0
  146.3130  156.9900  133.0870 C   0  0  0  0  0  0  0  0  0  0  0  0
  148.1184  154.1942  135.9198 H   0  0  0  0  0  0  0  0  0  0  0  0
  147.6038  155.7592  135.2039 H   0  0  0  0  0  0  0  0  0  0  0  0
  146.4791  154.3586  135.2039 H   0  0  0  0  0  0  0  0  0  0  0  0
  148.4920  154.8005  131.7690 H   0  0  0  0  0  0  0  0  0  0  0  0
  146.7451  154.5822  132.1492 H   0  0  0  0  0  0  0  0  0  0  0  0
  149.6963  156.8498  132.4637 H   0  0  0  0  0  0  0  0  0  0  0  0
  149.4688  159.3279  132.8375 H   0  0  0  0  0  0  0  0  0  0  0  0
  147.5556  161.3753  133.4004 H   0  0  0  0  0  0  0  0  0  0  0  0
  142.7880  160.6950  133.6400 H   0  0  0  0  0  0  0  0  0  0  0  0
  141.5920  158.7135  137.1094 H   0  0  0  0  0  0  0  0  0  0  0  0
  141.6155  160.3437  136.3554 H   0  0  0  0  0  0  0  0  0  0  0  0
  140.1022  159.3759  136.3554 H   0  0  0  0  0  0  0  0  0  0  0  0
  140.1172  160.1228  134.2442 H   0  0  0  0  0  0  0  0  0  0  0  0
  141.5645  159.9794  133.1900 H   0  0  0  0  0  0  0  0  0  0  0  0
  140.3213  158.6828  133.1900 H   0  0  0  0  0  0  0  0  0  0  0  0
  141.1557  156.8613  136.0097 H   0  0  0  0  0  0  0  0  0  0  0  0
  140.2770  157.0486  134.4542 H   0  0  0  0  0  0  0  0  0  0  0  0
  142.0231  156.6269  134.4542 H   0  0  0  0  0  0  0  0  0  0  0  0
  145.4182  156.3525  133.1411 H   0  0  0  0  0  0  0  0  0  0  0  0
  1  2  1  0
  2  3  2  0
  2  4  1  0
  4  5  1  0
  5  6  2  0
  6  7  1  0
  7  8  2  0
  8  9  1  0
  9 10  2  0
 10 11  1  0
 11 12  1  0
 11 13  2  0
 10 14  1  0
 14 15  1  0
 15 16  2  0
 15 17  1  0
 17 18  1  0
 18 19  1  0
 18 20  1  0
 18 21  1  0
 14 22  1  0
 22 23  2  0
 23  5  1  0
 22  8  1  0
  1 24  1  0
  1 25  1  0
  1 26  1  0
  4 27  1  0
  4 28  1  0
  6 29  1  0
  7 30  1  0
  9 31  1  0
 12 32  1  0
 19 33  1  0
 19 34  1  0
 19 35  1  0
 20 36  1  0
 20 37  1  0
 20 38  1  0
 21 39  1  0
 21 40  1  0
 21 41  1  0
 23 42  1  0
M  CHG  1  12  -1
M  END
>  <UniqueID>  (77) 
77

>  <SMILES>  (77) 
CC(=O)Cc1ccc2cc(C([NH-])=O)n(C(=O)OC(C)(C)C)c2c1

>  <Energy>  (77) 
71.58356328008762

>  <Genealogy>  (77) 
CC(=O)Cc1ccc2cc(C([NH-])=O)n(C(=O)OC(C)(C)C)c2c1 (protonated)
CC(=O)Cc1ccc2cc(C([NH-])=O)n(C(=O)OC(C)(C)C)c2c1 (3D coordinates assigned)
CC(=O)Cc1ccc2cc(C([NH-])=O)n(C(=O)OC(C)(C)C)c2c1 (optimized conformer: 71.58356328008762 kcal/mol)

>  <smiles>  (77) 
CC(=O)Cc1ccc2cc(C(N)=O)n(C(=O)OC(C)(C)C)c2c1

>  <score_type>  (77) 
oracle

>  <origin>  (77) 
adg

>  <m_score__min__energy>  (77) 
-7.54

>  <m_primary>  (77) 
energy

$$$$
77:0
     RDKit          3D

 33 34  0  0  0  0  0  0  0  0999 V2000
  141.4970  156.3470  132.9850 N   0  0  0  0  0  0  0  0  0  0  0  0
  142.0820  157.0620  134.0720 C   0  0  0  0  0  0  0  0  0  0  0  0
  141.4920  157.0830  135.1840 O   0  0  0  0  0  0  0  0  0  0  0  0
  143.3870  157.7310  133.8940 C   0  0  0  0  0  0  0  0  0  0  0  0
  143.5720  159.1040  134.0410 C   0  0  0  0  0  0  0  0  0  0  0  0
  144.8870  159.3340  133.7080 C   0  0  0  0  0  0  0  0  0  0  0  0
  145.6110  160.5220  133.6830 C   0  0  0  0  0  0  0  0  0  0  0  0
  146.9660  160.4610  133.3210 C   0  0  0  0  0  0  0  0  0  0  0  0
  147.5750  159.2190  133.0090 C   0  0  0  0  0  0  0  0  0  0  0  0
  149.0180  159.1700  132.6020 C   0  0  0  0  0  0  0  0  0  0  0  0
  149.2000  159.7680  130.7690 Br  0  0  0  0  0  0  0  0  0  0  0  0
  146.8060  158.0340  133.0330 C   0  0  0  0  0  0  0  0  0  0  0  0
  145.4530  158.1280  133.3800 C   0  0  0  0  0  0  0  0  0  0  0  0
  144.5440  157.1330  133.4910 N   0  0  0  0  0  0  0  0  0  0  0  0
  144.7870  155.7300  133.3000 C   0  0  0  0  0  0  0  0  0  0  0  0
  145.6740  155.1460  133.9820 O   0  0  0  0  0  0  0  0  0  0  0  0
  144.0210  155.0120  132.3760 O   0  0  0  0  0  0  0  0  0  0  0  0
  143.7580  153.6190  132.5060 C   0  0  0  0  0  0  0  0  0  0  0  0
  142.3850  153.3620  132.2300 O   0  0  0  0  0  0  0  0  0  0  0  0
  141.4650  153.0260  133.2260 C   0  0  0  0  0  0  0  0  0  0  0  0
  140.6030  153.8630  133.6140 O   0  0  0  0  0  0  0  0  0  0  0  0
  141.5010  151.6910  133.8270 C   0  0  0  0  0  0  0  0  0  0  0  0
  141.8750  150.7020  133.1450 O   0  0  0  0  0  0  0  0  0  0  0  0
  141.1210  151.5100  135.1510 O   0  0  0  0  0  0  0  0  0  0  0  0
  141.8890  155.4310  132.6730 H   0  0  0  0  0  0  0  0  0  0  0  0
  142.8248  159.8470  134.3566 H   0  0  0  0  0  0  0  0  0  0  0  0
  145.1358  161.4804  133.9392 H   0  0  0  0  0  0  0  0  0  0  0  0
  147.5609  161.3853  133.2790 H   0  0  0  0  0  0  0  0  0  0  0  0
  149.6062  159.8259  133.2607 H   0  0  0  0  0  0  0  0  0  0  0  0
  149.3853  158.1366  132.6862 H   0  0  0  0  0  0  0  0  0  0  0  0
  147.2587  157.0625  132.7854 H   0  0  0  0  0  0  0  0  0  0  0  0
  144.3846  153.0607  131.7949 H   0  0  0  0  0  0  0  0  0  0  0  0
  143.9893  153.2989  133.5327 H   0  0  0  0  0  0  0  0  0  0  0  0
  1  2  1  0
  2  3  2  0
  2  4  1  0
  4  5  2  0
  5  6  1  0
  6  7  2  0
  7  8  1  0
  8  9  2  0
  9 10  1  0
 10 11  1  0
  9 12  1  0
 12 13  2  0
 13 14  1  0
 14 15  1  0
 15 16  2  0
 15 17  1  0
 17 18  1  0
 18 19  1  0
 19 20  1  0
 20 21  2  0
 20 22  1  0
 22 23  2  0
 22 24  1  0
 14  4  1  0
 13  6  1  0
  1 25  1  0
  5 26  1  0
  7 27  1  0
  8 28  1  0
 10 29  1  0
 10 30  1  0
 12 31  1  0
 18 32  1  0
 18 33  1  0
M  CHG  2   1  -1  24  -1
M  END
>  <UniqueID>  (78) 
78

>  <SMILES>  (78) 
[NH-]C(=O)c1cc2ccc(CBr)cc2n1C(=O)OCOC(=O)C(=O)[O-]

>  <Energy>  (78) 
66.23949523277874

>  <Genealogy>  (78) 
[NH-]C(=O)c1cc2ccc(CBr)cc2n1C(=O)OCOC(=O)C(=O)[O-] (protonated)
[NH-]C(=O)c1cc2ccc(CBr)cc2n1C(=O)OCOC(=O)C(=O)[O-] (3D coordinates assigned)
[NH-]C(=O)c1cc2ccc(CBr)cc2n1C(=O)OCOC(=O)C(=O)[O-] (optimized conformer: 66.23949523277874 kcal/mol)

>  <smiles>  (78) 
NC(=O)c1cc2ccc(CBr)cc2n1C(=O)OCOC(=O)C(=O)O

>  <score_type>  (78) 
oracle

>  <origin>  (78) 
adg

>  <m_score__min__energy>  (78) 
-6.5800000000000001

>  <m_primary>  (78) 
energy

$$$$
78:0
     RDKit          3D

 49 50  0  0  0  0  0  0  0  0999 V2000
  139.1430  157.5000  133.8920 C   0  0  0  0  0  0  0  0  0  0  0  0
  139.4330  157.5690  135.2840 O   0  0  0  0  0  0  0  0  0  0  0  0
  140.7390  157.6290  135.7780 C   0  0  0  0  0  0  0  0  0  0  0  0
  141.0200  158.3570  136.7700 O   0  0  0  0  0  0  0  0  0  0  0  0
  141.8160  156.8380  135.1100 C   0  0  0  0  0  0  0  0  0  0  0  0
  142.8340  157.7510  134.4840 C   0  0  0  0  0  0  0  0  0  0  0  0
  142.4680  159.0630  134.0920 C   0  0  0  0  0  0  0  0  0  0  0  0
  143.4210  159.9380  133.5450 C   0  0  0  0  0  0  0  0  0  0  0  0
  144.7220  159.4690  133.3850 C   0  0  0  0  0  0  0  0  0  0  0  0
  145.8430  160.1170  132.9210 C   0  0  0  0  0  0  0  0  0  0  0  0
  146.8720  159.1780  132.9950 C   0  0  0  0  0  0  0  0  0  0  0  0
  148.2660  159.4290  132.5570 C   0  0  0  0  0  0  0  0  0  0  0  0
  149.3670  158.8060  133.2210 N   0  0  0  0  0  0  0  0  0  0  0  0
  148.4980  160.2110  131.5970 O   0  0  0  0  0  0  0  0  0  0  0  0
  146.3960  157.9910  133.4710 N   0  0  0  0  0  0  0  0  0  0  0  0
  147.1370  156.7870  133.7170 C   0  0  0  0  0  0  0  0  0  0  0  0
  147.8140  156.6660  134.7730 O   0  0  0  0  0  0  0  0  0  0  0  0
  147.0930  155.4290  132.5420 S   0  0  0  0  0  0  0  0  0  0  0  0
  148.6340  154.6380  133.1310 C   0  0  0  0  0  0  0  0  0  0  0  0
  149.1120  153.4920  132.2280 C   0  0  0  0  0  0  0  0  0  0  0  0
  148.2510  152.2220  132.3450 C   0  0  0  0  0  0  0  0  0  0  0  0
  149.1060  151.0150  132.4020 N   0  0  0  0  0  0  0  0  0  0  0  0
  149.9740  151.0480  133.5890 C   0  0  0  0  0  0  0  0  0  0  0  0
  149.9360  150.9000  131.1900 C   0  0  0  0  0  0  0  0  0  0  0  0
  145.0820  158.1900  133.7160 C   0  0  0  0  0  0  0  0  0  0  0  0
  144.1590  157.3020  134.2830 C   0  0  0  0  0  0  0  0  0  0  0  0
  138.0818  157.2475  133.7506 H   0  0  0  0  0  0  0  0  0  0  0  0
  139.3537  158.4733  133.4249 H   0  0  0  0  0  0  0  0  0  0  0  0
  139.7695  156.7258  133.4249 H   0  0  0  0  0  0  0  0  0  0  0  0
  142.3126  156.2011  135.8568 H   0  0  0  0  0  0  0  0  0  0  0  0
  141.3634  156.2187  134.3216 H   0  0  0  0  0  0  0  0  0  0  0  0
  141.4281  159.3991  134.2173 H   0  0  0  0  0  0  0  0  0  0  0  0
  143.1477  160.9624  133.2520 H   0  0  0  0  0  0  0  0  0  0  0  0
  145.9133  161.1560  132.5666 H   0  0  0  0  0  0  0  0  0  0  0  0
  150.3450  159.0200  132.9230 H   0  0  0  0  0  0  0  0  0  0  0  0
  149.2240  158.0990  133.9750 H   0  0  0  0  0  0  0  0  0  0  0  0
  149.4244  155.4019  133.1735 H   0  0  0  0  0  0  0  0  0  0  0  0
  148.4211  154.2063  134.1201 H   0  0  0  0  0  0  0  0  0  0  0  0
  149.0851  153.8365  131.1837 H   0  0  0  0  0  0  0  0  0  0  0  0
  150.1290  153.2259  132.5519 H   0  0  0  0  0  0  0  0  0  0  0  0
  147.6453  152.2793  133.2614 H   0  0  0  0  0  0  0  0  0  0  0  0
  147.5996  152.1531  131.4613 H   0  0  0  0  0  0  0  0  0  0  0  0
  149.3540  151.0244  134.4974 H   0  0  0  0  0  0  0  0  0  0  0  0
  150.6427  150.1746  133.5787 H   0  0  0  0  0  0  0  0  0  0  0  0
  150.5744  151.9696  133.5787 H   0  0  0  0  0  0  0  0  0  0  0  0
  150.9875  150.7543  131.4782 H   0  0  0  0  0  0  0  0  0  0  0  0
  149.5968  150.0403  130.5935 H   0  0  0  0  0  0  0  0  0  0  0  0
  149.8433  151.8196  130.5935 H   0  0  0  0  0  0  0  0  0  0  0  0
  144.4577  156.2815  134.5646 H   0  0  0  0  0  0  0  0  0  0  0  0
  1  2  1  0
  2  3  1  0
  3  4  2  0
  3  5  1  0
  5  6  1  0
  6  7  2  0
  7  8  1  0
  8  9  2  0
  9 10  1  0
 10 11  2  0
 11 12  1  0
 12 13  1  0
 12 14  2  0
 11 15  1  0
 15 16  1  0
 16 17  2  0
 16 18  1  0
 18 19  1  0
 19 20  1  0
 20 21  1  0
 21 22  1  0
 22 23  1  0
 22 24  1  0
 15 25  1  0
 25 26  2  0
 26  6  1  0
 25  9  1  0
  1 27  1  0
  1 28  1  0
  1 29  1  0
  5 30  1  0
  5 31  1  0
  7 32  1  0
  8 33  1  0
 10 34  1  0
 13 35  1  0
 13 36  1  0
 19 37  1  0
 19 38  1  0
 20 39  1  0
 20 40  1  0
 21 41  1  0
 21 42  1  0
 23 43  1  0
 23 44  1  0
 23 45  1  0
 24 46  1  0
 24 47  1  0
 24 48  1  0
 26 49  1  0
M  END
>  <UniqueID>  (79) 
79

>  <SMILES>  (79) 
COC(=O)Cc1ccc2cc(C(N)=O)n(C(=O)SCCCN(C)C)c2c1

>  <Energy>  (79) 
73.2438160767625

>  <Genealogy>  (79) 
COC(=O)Cc1ccc2cc(C(N)=O)n(C(=O)SCCCN(C)C)c2c1 (3D coordinates assigned)
COC(=O)Cc1ccc2cc(C(N)=O)n(C(=O)SCCCN(C)C)c2c1 (optimized conformer: 73.2438160767625 kcal/mol)

>  <smiles>  (79) 
COC(=O)Cc1ccc2cc(C(N)=O)n(C(=O)SCCCN(C)C)c2c1

>  <score_type>  (79) 
oracle

>  <origin>  (79) 
adg

>  <m_score__min__energy>  (79) 
-7.8700000000000001

>  <m_primary>  (79) 
energy

$$$$
79:0
     RDKit          3D

 40 41  0  0  0  0  0  0  0  0999 V2000
  139.7090  147.0630  130.3550 C   0  0  0  0  0  0  0  0  0  0  0  0
  138.4580  147.6720  130.1250 O   0  0  0  0  0  0  0  0  0  0  0  0
  138.5860  149.0710  130.2740 C   0  0  0  0  0  0  0  0  0  0  0  0
  139.0000  149.3910  131.7140 C   0  0  0  0  0  0  0  0  0  0  0  0
  140.1980  150.3420  131.7580 C   0  0  0  0  0  0  0  0  0  0  0  0
  141.0810  149.9510  132.8040 O   0  0  0  0  0  0  0  0  0  0  0  0
  141.6130  150.8480  133.7350 C   0  0  0  0  0  0  0  0  0  0  0  0
  141.1900  150.8660  134.9230 O   0  0  0  0  0  0  0  0  0  0  0  0
  142.6930  151.8000  133.3150 C   0  0  0  0  0  0  0  0  0  0  0  0
  142.5690  153.1080  134.0560 C   0  0  0  0  0  0  0  0  0  0  0  0
  143.3990  153.3800  135.1720 C   0  0  0  0  0  0  0  0  0  0  0  0
  143.2260  154.5540  135.9230 C   0  0  0  0  0  0  0  0  0  0  0  0
  142.2050  155.4230  135.5480 C   0  0  0  0  0  0  0  0  0  0  0  0
  141.7980  156.6090  136.1180 C   0  0  0  0  0  0  0  0  0  0  0  0
  140.7060  157.0270  135.3620 C   0  0  0  0  0  0  0  0  0  0  0  0
  139.8840  158.2050  135.7080 C   0  0  0  0  0  0  0  0  0  0  0  0
  140.4630  159.3370  136.3510 N   0  0  0  0  0  0  0  0  0  0  0  0
  138.6680  158.2340  135.3820 O   0  0  0  0  0  0  0  0  0  0  0  0
  140.4560  156.1430  134.3530 N   0  0  0  0  0  0  0  0  0  0  0  0
  139.4570  156.2450  133.3260 C   0  0  0  0  0  0  0  0  0  0  0  0
  139.2040  157.3570  132.7930 O   0  0  0  0  0  0  0  0  0  0  0  0
  138.7460  155.1200  132.9260 O   0  0  0  0  0  0  0  0  0  0  0  0
  141.3830  155.1680  134.4820 C   0  0  0  0  0  0  0  0  0  0  0  0
  141.5580  154.0260  133.6940 C   0  0  0  0  0  0  0  0  0  0  0  0
  139.8822  146.9787  131.4380 H   0  0  0  0  0  0  0  0  0  0  0  0
  139.7172  146.0601  129.9032 H   0  0  0  0  0  0  0  0  0  0  0  0
  140.5034  147.6752  129.9032 H   0  0  0  0  0  0  0  0  0  0  0  0
  139.3522  149.4459  129.5794 H   0  0  0  0  0  0  0  0  0  0  0  0
  137.6237  149.5549  130.0510 H   0  0  0  0  0  0  0  0  0  0  0  0
  138.1518  149.8612  132.2331 H   0  0  0  0  0  0  0  0  0  0  0  0
  139.2893  148.4505  132.2057 H   0  0  0  0  0  0  0  0  0  0  0  0
  140.7306  150.3043  130.7963 H   0  0  0  0  0  0  0  0  0  0  0  0
  139.8438  151.3668  131.9434 H   0  0  0  0  0  0  0  0  0  0  0  0
  143.6738  151.3526  133.5339 H   0  0  0  0  0  0  0  0  0  0  0  0
  142.5938  151.9938  132.2368 H   0  0  0  0  0  0  0  0  0  0  0  0
  144.1862  152.6648  135.4526 H   0  0  0  0  0  0  0  0  0  0  0  0
  143.8768  154.7799  136.7806 H   0  0  0  0  0  0  0  0  0  0  0  0
  142.2416  157.1180  136.9864 H   0  0  0  0  0  0  0  0  0  0  0  0
  139.8780  159.9850  136.9240 H   0  0  0  0  0  0  0  0  0  0  0  0
  140.9236  153.8468  132.8134 H   0  0  0  0  0  0  0  0  0  0  0  0
  1  2  1  0
  2  3  1  0
  3  4  1  0
  4  5  1  0
  5  6  1  0
  6  7  1  0
  7  8  2  0
  7  9  1  0
  9 10  1  0
 10 11  2  0
 11 12  1  0
 12 13  2  0
 13 14  1  0
 14 15  2  0
 15 16  1  0
 16 17  1  0
 16 18  2  0
 15 19  1  0
 19 20  1  0
 20 21  2  0
 20 22  1  0
 19 23  1  0
 23 24  2  0
 24 10  1  0
 23 13  1  0
  1 25  1  0
  1 26  1  0
  1 27  1  0
  3 28  1  0
  3 29  1  0
  4 30  1  0
  4 31  1  0
  5 32  1  0
  5 33  1  0
  9 34  1  0
  9 35  1  0
 11 36  1  0
 12 37  1  0
 14 38  1  0
 17 39  1  0
 24 40  1  0
M  CHG  2  17  -1  22  -1
M  END
>  <UniqueID>  (80) 
80

>  <SMILES>  (80) 
COCCCOC(=O)Cc1ccc2cc(C([NH-])=O)n(C(=O)[O-])c2c1

>  <Energy>  (80) 
70.42232068132917

>  <Genealogy>  (80) 
COCCCOC(=O)Cc1ccc2cc(C([NH-])=O)n(C(=O)[O-])c2c1 (protonated)
COCCCOC(=O)Cc1ccc2cc(C([NH-])=O)n(C(=O)[O-])c2c1 (3D coordinates assigned)
COCCCOC(=O)Cc1ccc2cc(C([NH-])=O)n(C(=O)[O-])c2c1 (optimized conformer: 70.42232068132917 kcal/mol)

>  <smiles>  (80) 
COCCCOC(=O)Cc1ccc2cc(C(N)=O)n(C(=O)O)c2c1

>  <score_type>  (80) 
oracle

>  <origin>  (80) 
adg

>  <m_score__min__energy>  (80) 
-6.5700000000000003

>  <m_primary>  (80) 
energy

$$$$
80:0
     RDKit          3D

 41 42  0  0  0  0  0  0  0  0999 V2000
  149.2910  161.3710  130.4480 C   0  0  0  0  0  0  0  0  0  0  0  0
  149.7980  160.1380  130.5180 C   0  0  0  0  0  0  0  0  0  0  0  0
  148.9820  158.9860  131.0190 C   0  0  0  0  0  0  0  0  0  0  0  0
  148.1180  159.4300  132.0600 O   0  0  0  0  0  0  0  0  0  0  0  0
  147.8480  158.6670  133.1990 C   0  0  0  0  0  0  0  0  0  0  0  0
  148.6170  158.7260  134.1970 O   0  0  0  0  0  0  0  0  0  0  0  0
  146.6940  157.8100  133.2300 N   0  0  0  0  0  0  0  0  0  0  0  0
  145.4070  158.1650  133.5030 C   0  0  0  0  0  0  0  0  0  0  0  0
  144.9040  159.5440  133.6650 C   0  0  0  0  0  0  0  0  0  0  0  0
  145.5240  160.6410  132.9930 N   0  0  0  0  0  0  0  0  0  0  0  0
  143.8750  159.7500  134.3630 O   0  0  0  0  0  0  0  0  0  0  0  0
  144.5890  157.0410  133.5600 C   0  0  0  0  0  0  0  0  0  0  0  0
  145.4200  155.9760  133.2970 C   0  0  0  0  0  0  0  0  0  0  0  0
  145.1360  154.6190  133.2410 C   0  0  0  0  0  0  0  0  0  0  0  0
  146.1930  153.7310  132.9850 C   0  0  0  0  0  0  0  0  0  0  0  0
  147.5260  154.2030  132.7970 C   0  0  0  0  0  0  0  0  0  0  0  0
  148.6240  153.2790  132.5410 N   0  0  0  0  0  0  0  0  0  0  0  0
  149.9690  153.7930  132.2450 C   0  0  0  0  0  0  0  0  0  0  0  0
  148.4350  151.8180  132.5480 C   0  0  0  0  0  0  0  0  0  0  0  0
  149.4750  151.1210  133.4340 C   0  0  0  0  0  0  0  0  0  0  0  0
  149.0640  149.8340  133.7290 F   0  0  0  0  0  0  0  0  0  0  0  0
  149.6120  151.8250  134.6160 F   0  0  0  0  0  0  0  0  0  0  0  0
  150.7030  151.0650  132.8010 F   0  0  0  0  0  0  0  0  0  0  0  0
  147.7620  155.6020  132.8710 C   0  0  0  0  0  0  0  0  0  0  0  0
  146.6840  156.4640  133.1040 C   0  0  0  0  0  0  0  0  0  0  0  0
  149.9108  162.2003  130.0764 H   0  0  0  0  0  0  0  0  0  0  0  0
  148.2534  161.5577  130.7619 H   0  0  0  0  0  0  0  0  0  0  0  0
  150.8369  159.9643  130.2011 H   0  0  0  0  0  0  0  0  0  0  0  0
  148.3808  158.5769  130.1937 H   0  0  0  0  0  0  0  0  0  0  0  0
  149.6522  158.2054  131.4083 H   0  0  0  0  0  0  0  0  0  0  0  0
  145.1790  161.6140  133.1500 H   0  0  0  0  0  0  0  0  0  0  0  0
  146.2680  160.4840  132.2760 H   0  0  0  0  0  0  0  0  0  0  0  0
  143.5097  157.0102  133.7702 H   0  0  0  0  0  0  0  0  0  0  0  0
  144.1112  154.2492  133.3929 H   0  0  0  0  0  0  0  0  0  0  0  0
  145.9895  152.6515  132.9284 H   0  0  0  0  0  0  0  0  0  0  0  0
  150.4996  153.9958  133.1870 H   0  0  0  0  0  0  0  0  0  0  0  0
  150.5276  153.0450  131.6632 H   0  0  0  0  0  0  0  0  0  0  0  0
  149.8863  154.7229  131.6632 H   0  0  0  0  0  0  0  0  0  0  0  0
  147.4291  151.5895  132.9302 H   0  0  0  0  0  0  0  0  0  0  0  0
  148.5558  151.4494  131.5187 H   0  0  0  0  0  0  0  0  0  0  0  0
  148.7789  156.0027  132.7468 H   0  0  0  0  0  0  0  0  0  0  0  0
  1  2  2  0
  2  3  1  0
  3  4  1  0
  4  5  1  0
  5  6  2  0
  5  7  1  0
  7  8  1  0
  8  9  1  0
  9 10  1  0
  9 11  2  0
  8 12  2  0
 12 13  1  0
 13 14  2  0
 14 15  1  0
 15 16  2  0
 16 17  1  0
 17 18  1  0
 17 19  1  0
 19 20  1  0
 20 21  1  0
 20 22  1  0
 20 23  1  0
 16 24  1  0
 24 25  2  0
 25  7  1  0
 25 13  1  0
  1 26  1  0
  1 27  1  0
  2 28  1  0
  3 29  1  0
  3 30  1  0
 10 31  1  0
 10 32  1  0
 12 33  1  0
 14 34  1  0
 15 35  1  0
 18 36  1  0
 18 37  1  0
 18 38  1  0
 19 39  1  0
 19 40  1  0
 24 41  1  0
M  END
>  <UniqueID>  (81) 
81

>  <SMILES>  (81) 
C=CCOC(=O)n1c(C(N)=O)cc2ccc(N(C)CC(F)(F)F)cc21

>  <Energy>  (81) 
76.38345322044123

>  <Genealogy>  (81) 
C=CCOC(=O)n1c(C(N)=O)cc2ccc(N(C)CC(F)(F)F)cc21 (3D coordinates assigned)
C=CCOC(=O)n1c(C(N)=O)cc2ccc(N(C)CC(F)(F)F)cc21 (optimized conformer: 76.38345322044123 kcal/mol)

>  <smiles>  (81) 
C=CCOC(=O)n1c(C(N)=O)cc2ccc(N(C)CC(F)(F)F)cc21

>  <score_type>  (81) 
oracle

>  <origin>  (81) 
adg

>  <m_score__min__energy>  (81) 
-6.3700000000000001

>  <m_primary>  (81) 
energy

$$$$
81:0
     RDKit          3D

 47 48  0  0  0  0  0  0  0  0999 V2000
  140.6350  154.2160  133.2920 C   0  0  0  0  0  0  0  0  0  0  0  0
  140.6260  155.7370  133.3830 C   0  0  0  0  0  0  0  0  0  0  0  0
  139.2900  156.2360  133.3650 O   0  0  0  0  0  0  0  0  0  0  0  0
  138.9550  157.5510  133.7050 C   0  0  0  0  0  0  0  0  0  0  0  0
  138.2030  158.2360  132.9560 O   0  0  0  0  0  0  0  0  0  0  0  0
  139.4560  158.0910  134.8940 O   0  0  0  0  0  0  0  0  0  0  0  0
  140.5500  159.0040  134.9410 C   0  0  0  0  0  0  0  0  0  0  0  0
  140.6840  159.7520  133.6140 C   0  0  0  0  0  0  0  0  0  0  0  0
  142.0510  160.2260  133.4290 N   0  0  0  0  0  0  0  0  0  0  0  0
  143.1930  159.3620  133.3670 C   0  0  0  0  0  0  0  0  0  0  0  0
  143.1030  158.2430  132.7880 O   0  0  0  0  0  0  0  0  0  0  0  0
  144.4770  159.7410  134.0700 C   0  0  2  0  0  0  0  0  0  0  0  0
  144.8540  161.2100  133.8350 C   0  0  0  0  0  0  0  0  0  0  0  0
  145.6230  158.8380  133.6550 C   0  0  0  0  0  0  0  0  0  0  0  0
  146.7110  159.3690  132.9160 C   0  0  0  0  0  0  0  0  0  0  0  0
  147.7860  158.5510  132.5310 C   0  0  0  0  0  0  0  0  0  0  0  0
  147.7430  157.2070  132.8880 C   0  0  0  0  0  0  0  0  0  0  0  0
  148.6630  156.2070  132.6690 C   0  0  0  0  0  0  0  0  0  0  0  0
  148.1110  155.0680  133.2460 C   0  0  0  0  0  0  0  0  0  0  0  0
  148.7470  153.7380  133.1830 C   0  0  0  0  0  0  0  0  0  0  0  0
  148.0980  152.5820  133.7170 N   0  0  0  0  0  0  0  0  0  0  0  0
  149.8530  153.6080  132.5950 O   0  0  0  0  0  0  0  0  0  0  0  0
  146.9030  155.3500  133.8120 N   0  0  0  0  0  0  0  0  0  0  0  0
  146.0910  154.4720  134.6110 C   0  0  0  0  0  0  0  0  0  0  0  0
  146.5470  153.9630  135.6680 O   0  0  0  0  0  0  0  0  0  0  0  0
  144.7930  154.1680  134.2180 O   0  0  0  0  0  0  0  0  0  0  0  0
  146.6910  156.6660  133.5810 C   0  0  0  0  0  0  0  0  0  0  0  0
  145.6160  157.4630  133.9940 C   0  0  0  0  0  0  0  0  0  0  0  0
  140.6375  153.7881  134.3054 H   0  0  0  0  0  0  0  0  0  0  0  0
  139.7388  153.8757  132.7525 H   0  0  0  0  0  0  0  0  0  0  0  0
  141.5351  153.8863  132.7525 H   0  0  0  0  0  0  0  0  0  0  0  0
  141.1139  156.0455  134.3194 H   0  0  0  0  0  0  0  0  0  0  0  0
  141.1676  156.1459  132.5173 H   0  0  0  0  0  0  0  0  0  0  0  0
  140.3805  159.7301  135.7498 H   0  0  0  0  0  0  0  0  0  0  0  0
  141.4758  158.4391  135.1248 H   0  0  0  0  0  0  0  0  0  0  0  0
  140.4214  159.0741  132.7885 H   0  0  0  0  0  0  0  0  0  0  0  0
  140.0061  160.6182  133.6245 H   0  0  0  0  0  0  0  0  0  0  0  0
  144.2935  159.6067  135.1463 H   0  0  0  0  0  0  0  0  0  0  0  0
  144.9835  161.7148  134.8037 H   0  0  0  0  0  0  0  0  0  0  0  0
  145.7943  161.2608  133.2664 H   0  0  0  0  0  0  0  0  0  0  0  0
  144.0544  161.7073  133.2664 H   0  0  0  0  0  0  0  0  0  0  0  0
  146.7129  160.4341  132.6411 H   0  0  0  0  0  0  0  0  0  0  0  0
  148.6356  158.9604  131.9648 H   0  0  0  0  0  0  0  0  0  0  0  0
  149.6286  156.2906  132.1488 H   0  0  0  0  0  0  0  0  0  0  0  0
  148.5720  151.6530  133.6850 H   0  0  0  0  0  0  0  0  0  0  0  0
  147.1160  152.6290  134.0660 H   0  0  0  0  0  0  0  0  0  0  0  0
  144.7842  157.0303  134.5693 H   0  0  0  0  0  0  0  0  0  0  0  0
  1  2  1  0
  2  3  1  0
  3  4  1  0
  4  5  2  0
  4  6  1  0
  6  7  1  0
  7  8  1  0
  8  9  1  0
  9 10  1  0
 10 11  2  0
 10 12  1  0
 12 13  1  0
 12 14  1  0
 14 15  2  0
 15 16  1  0
 16 17  2  0
 17 18  1  0
 18 19  2  0
 19 20  1  0
 20 21  1  0
 20 22  2  0
 19 23  1  0
 23 24  1  0
 24 25  2  0
 24 26  1  0
 23 27  1  0
 27 28  2  0
 28 14  1  0
 27 17  1  0
  1 29  1  0
  1 30  1  0
  1 31  1  0
  2 32  1  0
  2 33  1  0
  7 34  1  0
  7 35  1  0
  8 36  1  0
  8 37  1  0
 12 38  1  1
 13 39  1  0
 13 40  1  0
 13 41  1  0
 15 42  1  0
 16 43  1  0
 18 44  1  0
 21 45  1  0
 21 46  1  0
 28 47  1  0
M  CHG  2   9  -1  26  -1
M  END
>  <UniqueID>  (82) 
82

>  <SMILES>  (82) 
CCOC(=O)OCC[N-]C(=O)[C@H](C)c1ccc2cc(C(N)=O)n(C(=O)[O-])c2c1

>  <Energy>  (82) 
77.31075384304518

>  <Genealogy>  (82) 
CCOC(=O)OCC[N-]C(=O)C(C)c1ccc2cc(C(N)=O)n(C(=O)[O-])c2c1 (protonated)
CCOC(=O)OCC[N-]C(=O)[C@H](C)c1ccc2cc(C(N)=O)n(C(=O)[O-])c2c1 (chirality)
CCOC(=O)OCC[N-]C(=O)[C@H](C)c1ccc2cc(C(N)=O)n(C(=O)[O-])c2c1 (3D coordinates assigned)
CCOC(=O)OCC[N-]C(=O)[C@H](C)c1ccc2cc(C(N)=O)n(C(=O)[O-])c2c1 (optimized conformer: 77.31075384304518 kcal/mol)

>  <smiles>  (82) 
CCOC(=O)OCCNC(=O)C(C)c1ccc2cc(C(N)=O)n(C(=O)O)c2c1

>  <score_type>  (82) 
oracle

>  <origin>  (82) 
adg

>  <m_score__min__energy>  (82) 
-6.8600000000000003

>  <m_primary>  (82) 
energy

$$$$
82:0
     RDKit          3D

 40 41  0  0  0  0  0  0  0  0999 V2000
  149.9800  160.0930  129.3710 C   0  0  0  0  0  0  0  0  0  0  0  0
  149.0250  161.0200  130.0010 N   0  0  0  0  0  0  0  0  0  0  0  0
  149.6050  162.3720  130.0540 C   0  0  0  0  0  0  0  0  0  0  0  0
  148.6470  160.5510  131.3530 C   0  0  0  0  0  0  0  0  0  0  0  0
  149.5220  159.3630  131.7670 C   0  0  0  0  0  0  0  0  0  0  0  0
  148.9750  158.6960  133.0020 C   0  0  0  0  0  0  0  0  0  0  0  0
  149.0400  159.2820  134.0730 O   0  0  0  0  0  0  0  0  0  0  0  0
  148.3660  157.3200  132.9490 C   0  0  0  0  0  0  0  0  0  0  0  0
  146.8740  157.3980  133.1400 C   0  0  0  0  0  0  0  0  0  0  0  0
  146.0950  156.2150  133.1040 C   0  0  0  0  0  0  0  0  0  0  0  0
  144.7080  156.2630  133.3110 C   0  0  0  0  0  0  0  0  0  0  0  0
  144.1290  157.5040  133.5570 C   0  0  0  0  0  0  0  0  0  0  0  0
  142.8090  157.8360  133.7610 C   0  0  0  0  0  0  0  0  0  0  0  0
  142.8000  159.2180  133.9350 C   0  0  0  0  0  0  0  0  0  0  0  0
  141.5820  159.9860  134.2690 C   0  0  0  0  0  0  0  0  0  0  0  0
  141.0030  160.8860  133.3290 N   0  0  0  0  0  0  0  0  0  0  0  0
  141.0770  159.8850  135.4190 O   0  0  0  0  0  0  0  0  0  0  0  0
  144.0620  159.7230  133.8320 N   0  0  0  0  0  0  0  0  0  0  0  0
  144.4520  161.1050  133.8300 C   0  0  0  0  0  0  0  0  0  0  0  0
  143.6040  162.0060  133.6060 O   0  0  0  0  0  0  0  0  0  0  0  0
  145.7670  161.4630  134.1050 O   0  0  0  0  0  0  0  0  0  0  0  0
  144.8660  158.6580  133.6080 C   0  0  0  0  0  0  0  0  0  0  0  0
  146.2500  158.6420  133.3930 C   0  0  0  0  0  0  0  0  0  0  0  0
  150.5362  159.5531  130.1515 H   0  0  0  0  0  0  0  0  0  0  0  0
  149.4330  159.3722  128.7454 H   0  0  0  0  0  0  0  0  0  0  0  0
  150.6842  160.6612  128.7454 H   0  0  0  0  0  0  0  0  0  0  0  0
  149.7347  162.6744  131.1036 H   0  0  0  0  0  0  0  0  0  0  0  0
  150.5822  162.3718  129.5490 H   0  0  0  0  0  0  0  0  0  0  0  0
  148.9314  163.0800  129.5490 H   0  0  0  0  0  0  0  0  0  0  0  0
  148.7840  161.3711  132.0732 H   0  0  0  0  0  0  0  0  0  0  0  0
  147.5941  160.2330  131.3403 H   0  0  0  0  0  0  0  0  0  0  0  0
  149.5491  158.6323  130.9452 H   0  0  0  0  0  0  0  0  0  0  0  0
  150.5345  159.7325  131.9868 H   0  0  0  0  0  0  0  0  0  0  0  0
  148.5829  156.8652  131.9712 H   0  0  0  0  0  0  0  0  0  0  0  0
  148.7972  156.7079  133.7549 H   0  0  0  0  0  0  0  0  0  0  0  0
  146.5830  155.2481  132.9116 H   0  0  0  0  0  0  0  0  0  0  0  0
  144.0977  155.3484  133.2798 H   0  0  0  0  0  0  0  0  0  0  0  0
  141.9453  157.1552  133.7821 H   0  0  0  0  0  0  0  0  0  0  0  0
  141.5350  161.7120  132.9780 H   0  0  0  0  0  0  0  0  0  0  0  0
  146.8362  159.5724  133.4202 H   0  0  0  0  0  0  0  0  0  0  0  0
  1  2  1  0
  2  3  1  0
  2  4  1  0
  4  5  1  0
  5  6  1  0
  6  7  2  0
  6  8  1  0
  8  9  1  0
  9 10  2  0
 10 11  1  0
 11 12  2  0
 12 13  1  0
 13 14  2  0
 14 15  1  0
 15 16  1  0
 15 17  2  0
 14 18  1  0
 18 19  1  0
 19 20  2  0
 19 21  1  0
 18 22  1  0
 22 23  2  0
 23  9  1  0
 22 12  1  0
  1 24  1  0
  1 25  1  0
  1 26  1  0
  3 27  1  0
  3 28  1  0
  3 29  1  0
  4 30  1  0
  4 31  1  0
  5 32  1  0
  5 33  1  0
  8 34  1  0
  8 35  1  0
 10 36  1  0
 11 37  1  0
 13 38  1  0
 16 39  1  0
 23 40  1  0
M  CHG  2  16  -1  21  -1
M  END
>  <UniqueID>  (83) 
83

>  <SMILES>  (83) 
CN(C)CCC(=O)Cc1ccc2cc(C([NH-])=O)n(C(=O)[O-])c2c1

>  <Energy>  (83) 
73.00023801532595

>  <Genealogy>  (83) 
CN(C)CCC(=O)Cc1ccc2cc(C([NH-])=O)n(C(=O)[O-])c2c1 (protonated)
CN(C)CCC(=O)Cc1ccc2cc(C([NH-])=O)n(C(=O)[O-])c2c1 (3D coordinates assigned)
CN(C)CCC(=O)Cc1ccc2cc(C([NH-])=O)n(C(=O)[O-])c2c1 (optimized conformer: 73.00023801532595 kcal/mol)

>  <smiles>  (83) 
CN(C)CCC(=O)Cc1ccc2cc(C(N)=O)n(C(=O)O)c2c1

>  <score_type>  (83) 
oracle

>  <origin>  (83) 
adg

>  <m_score__min__energy>  (83) 
-6.9900000000000002

>  <m_primary>  (83) 
energy

$$$$
83:0
     RDKit          3D

 32 34  0  0  0  0  0  0  0  0999 V2000
  140.4510  159.0990  136.3360 N   0  0  0  0  0  0  0  0  0  0  0  0
  140.7110  158.7420  134.9810 C   0  0  0  0  0  0  0  0  0  0  0  0
  139.7440  158.5380  134.2000 O   0  0  0  0  0  0  0  0  0  0  0  0
  142.0940  158.5510  134.4960 C   0  0  0  0  0  0  0  0  0  0  0  0
  142.7620  157.3300  134.5530 C   0  0  0  0  0  0  0  0  0  0  0  0
  144.0340  157.5880  134.0970 C   0  0  0  0  0  0  0  0  0  0  0  0
  145.1170  156.7280  133.9320 C   0  0  0  0  0  0  0  0  0  0  0  0
  146.3070  157.2640  133.4110 C   0  0  0  0  0  0  0  0  0  0  0  0
  146.3870  158.6310  133.0610 C   0  0  0  0  0  0  0  0  0  0  0  0
  147.5990  159.1600  132.5210 N   0  0  0  0  0  0  0  0  0  0  0  0
  148.7800  158.6560  131.7960 C   0  0  0  0  0  0  0  0  0  0  0  0
  149.4760  159.9790  131.6880 C   0  0  0  0  0  0  0  0  0  0  0  0
  149.6060  160.5040  130.2820 C   0  0  0  0  0  0  0  0  0  0  0  0
  149.7280  159.7180  129.3040 O   0  0  0  0  0  0  0  0  0  0  0  0
  149.5900  161.8740  130.0600 O   0  0  0  0  0  0  0  0  0  0  0  0
  148.2690  160.4720  132.4270 C   0  0  0  0  0  0  0  0  0  0  0  0
  145.2710  159.4740  133.2400 C   0  0  0  0  0  0  0  0  0  0  0  0
  144.1030  158.9200  133.7790 C   0  0  0  0  0  0  0  0  0  0  0  0
  142.9180  159.5260  134.0150 N   0  0  0  0  0  0  0  0  0  0  0  0
  142.5910  160.8940  133.7250 C   0  0  0  0  0  0  0  0  0  0  0  0
  143.4880  161.7770  133.7260 O   0  0  0  0  0  0  0  0  0  0  0  0
  141.2750  161.2610  133.4660 O   0  0  0  0  0  0  0  0  0  0  0  0
  139.4820  159.0570  136.7260 H   0  0  0  0  0  0  0  0  0  0  0  0
  142.3581  156.3643  134.8910 H   0  0  0  0  0  0  0  0  0  0  0  0
  145.0433  155.6639  134.2008 H   0  0  0  0  0  0  0  0  0  0  0  0
  147.1838  156.6140  133.2744 H   0  0  0  0  0  0  0  0  0  0  0  0
  149.3540  157.9205  132.3786 H   0  0  0  0  0  0  0  0  0  0  0  0
  148.5973  158.1079  130.8599 H   0  0  0  0  0  0  0  0  0  0  0  0
  150.5122  160.1587  132.0104 H   0  0  0  0  0  0  0  0  0  0  0  0
  148.5169  160.8941  133.4121 H   0  0  0  0  0  0  0  0  0  0  0  0
  147.7004  161.2940  131.9676 H   0  0  0  0  0  0  0  0  0  0  0  0
  145.3165  160.5378  132.9638 H   0  0  0  0  0  0  0  0  0  0  0  0
  1  2  1  0
  2  3  2  0
  2  4  1  0
  4  5  2  0
  5  6  1  0
  6  7  2  0
  7  8  1  0
  8  9  2  0
  9 10  1  0
 10 11  1  0
 11 12  1  0
 12 13  1  0
 13 14  2  0
 13 15  1  0
 12 16  1  0
  9 17  1  0
 17 18  2  0
 18 19  1  0
 19 20  1  0
 20 21  2  0
 20 22  1  0
 19  4  1  0
 18  6  1  0
 16 10  1  0
  1 23  1  0
  5 24  1  0
  7 25  1  0
  8 26  1  0
 11 27  1  0
 11 28  1  0
 12 29  1  0
 16 30  1  0
 16 31  1  0
 17 32  1  0
M  CHG  3   1  -1  15  -1  22  -1
M  END
>  <UniqueID>  (84) 
84

>  <SMILES>  (84) 
[NH-]C(=O)c1cc2ccc(N3CC(C(=O)[O-])C3)cc2n1C(=O)[O-]

>  <Energy>  (84) 
118.54480059866226

>  <Genealogy>  (84) 
[NH-]C(=O)c1cc2ccc(N3CC(C(=O)[O-])C3)cc2n1C(=O)[O-] (protonated)
[NH-]C(=O)c1cc2ccc(N3CC(C(=O)[O-])C3)cc2n1C(=O)[O-] (3D coordinates assigned)
[NH-]C(=O)c1cc2ccc(N3CC(C(=O)[O-])C3)cc2n1C(=O)[O-] (nonaromatic ring conformer: 118.54480059866226 kcal/mol)

>  <smiles>  (84) 
NC(=O)c1cc2ccc(N3CC(C(=O)O)C3)cc2n1C(=O)O

>  <score_type>  (84) 
oracle

>  <origin>  (84) 
adg

>  <m_score__min__energy>  (84) 
-7.1299999999999999

>  <m_primary>  (84) 
energy

$$$$
84:0
     RDKit          3D

 29 30  0  0  0  0  0  0  0  0999 V2000
  141.5280  160.9480  133.6770 N   0  0  0  0  0  0  0  0  0  0  0  0
  142.3340  160.0850  134.4740 C   0  0  0  0  0  0  0  0  0  0  0  0
  141.8470  159.5790  135.5200 O   0  0  0  0  0  0  0  0  0  0  0  0
  143.7070  159.7300  134.0600 C   0  0  0  0  0  0  0  0  0  0  0  0
  144.1140  158.4230  133.8010 C   0  0  0  0  0  0  0  0  0  0  0  0
  145.4130  158.5270  133.3610 C   0  0  0  0  0  0  0  0  0  0  0  0
  146.3100  157.5330  132.9800 C   0  0  0  0  0  0  0  0  0  0  0  0
  147.6060  157.9240  132.6040 C   0  0  0  0  0  0  0  0  0  0  0  0
  147.9790  159.2910  132.6160 C   0  0  0  0  0  0  0  0  0  0  0  0
  149.3870  159.6900  132.2560 C   0  0  0  0  0  0  0  0  0  0  0  0
  149.4060  160.7380  131.1380 C   0  0  0  0  0  0  0  0  0  0  0  0
  149.5540  160.1060  129.8320 N   0  0  0  0  0  0  0  0  0  0  0  0
  149.1640  158.9340  129.6560 O   0  0  0  0  0  0  0  0  0  0  0  0
  149.9700  160.8510  128.7520 O   0  0  0  0  0  0  0  0  0  0  0  0
  147.0440  160.2710  133.0150 C   0  0  0  0  0  0  0  0  0  0  0  0
  145.7550  159.8550  133.3690 C   0  0  0  0  0  0  0  0  0  0  0  0
  144.7170  160.6080  133.8000 N   0  0  0  0  0  0  0  0  0  0  0  0
  144.7310  162.0250  134.0330 C   0  0  0  0  0  0  0  0  0  0  0  0
  145.5410  162.5260  134.8570 O   0  0  0  0  0  0  0  0  0  0  0  0
  143.8320  162.8540  133.3740 O   0  0  0  0  0  0  0  0  0  0  0  0
  141.9000  161.8580  133.3230 H   0  0  0  0  0  0  0  0  0  0  0  0
  143.5224  157.5036  133.9225 H   0  0  0  0  0  0  0  0  0  0  0  0
  146.0132  156.4738  132.9735 H   0  0  0  0  0  0  0  0  0  0  0  0
  148.3378  157.1620  132.2975 H   0  0  0  0  0  0  0  0  0  0  0  0
  149.8785  160.1086  133.1466 H   0  0  0  0  0  0  0  0  0  0  0  0
  149.9184  158.7954  131.8992 H   0  0  0  0  0  0  0  0  0  0  0  0
  148.4629  161.3037  131.1591 H   0  0  0  0  0  0  0  0  0  0  0  0
  150.2618  161.4095  131.3015 H   0  0  0  0  0  0  0  0  0  0  0  0
  147.3216  161.3349  133.0469 H   0  0  0  0  0  0  0  0  0  0  0  0
  1  2  1  0
  2  3  2  0
  2  4  1  0
  4  5  2  0
  5  6  1  0
  6  7  2  0
  7  8  1  0
  8  9  2  0
  9 10  1  0
 10 11  1  0
 11 12  1  0
 12 13  2  0
 12 14  1  0
  9 15  1  0
 15 16  2  0
 16 17  1  0
 17 18  1  0
 18 19  2  0
 18 20  1  0
 17  4  1  0
 16  6  1  0
  1 21  1  0
  5 22  1  0
  7 23  1  0
  8 24  1  0
 10 25  1  0
 10 26  1  0
 11 27  1  0
 11 28  1  0
 15 29  1  0
M  CHG  4   1  -1  12   1  14  -1  20  -1
M  END
>  <UniqueID>  (85) 
85

>  <SMILES>  (85) 
[NH-]C(=O)c1cc2ccc(CC[N+](=O)[O-])cc2n1C(=O)[O-]

>  <Energy>  (85) 
65.56013870212884

>  <Genealogy>  (85) 
[NH-]C(=O)c1cc2ccc(CC[N+](=O)[O-])cc2n1C(=O)[O-] (protonated)
[NH-]C(=O)c1cc2ccc(CC[N+](=O)[O-])cc2n1C(=O)[O-] (3D coordinates assigned)
[NH-]C(=O)c1cc2ccc(CC[N+](=O)[O-])cc2n1C(=O)[O-] (optimized conformer: 65.56013870212884 kcal/mol)

>  <smiles>  (85) 
NC(=O)c1cc2ccc(CC[N+](=O)[O-])cc2n1C(=O)O

>  <score_type>  (85) 
oracle

>  <origin>  (85) 
adg

>  <m_score__min__energy>  (85) 
-6.71

>  <m_primary>  (85) 
energy

$$$$
85:0
     RDKit          3D

 35 37  0  0  0  0  0  0  0  0999 V2000
  139.0550  157.8640  132.4400 N   0  0  0  0  0  0  0  0  0  0  0  0
  139.9940  157.2330  133.3110 C   0  0  0  0  0  0  0  0  0  0  0  0
  139.5880  156.3740  134.1390 O   0  0  0  0  0  0  0  0  0  0  0  0
  141.4200  157.6160  133.3040 C   0  0  0  0  0  0  0  0  0  0  0  0
  142.4600  156.6920  133.3180 C   0  0  0  0  0  0  0  0  0  0  0  0
  143.6120  157.4410  133.3710 C   0  0  0  0  0  0  0  0  0  0  0  0
  144.9420  157.0350  133.3950 C   0  0  0  0  0  0  0  0  0  0  0  0
  145.9340  158.0290  133.4140 C   0  0  0  0  0  0  0  0  0  0  0  0
  145.5830  159.4010  133.3900 C   0  0  0  0  0  0  0  0  0  0  0  0
  146.6580  160.4530  133.4350 C   0  0  0  0  0  0  0  0  0  0  0  0
  147.7730  160.0800  132.5490 N   0  0  0  0  0  0  0  0  0  0  0  0
  147.7360  160.4750  131.2380 C   0  0  0  0  0  0  0  0  0  0  0  0
  148.7580  160.1170  130.3560 C   0  0  0  0  0  0  0  0  0  0  0  0
  149.8200  159.3440  130.8160 C   0  0  0  0  0  0  0  0  0  0  0  0
  149.8520  158.9360  132.1480 C   0  0  0  0  0  0  0  0  0  0  0  0
  148.8140  159.3100  133.0090 C   0  0  0  0  0  0  0  0  0  0  0  0
  148.8520  158.9280  134.2110 O   0  0  0  0  0  0  0  0  0  0  0  0
  144.2210  159.7760  133.3680 C   0  0  0  0  0  0  0  0  0  0  0  0
  143.2520  158.7660  133.3750 C   0  0  0  0  0  0  0  0  0  0  0  0
  141.9050  158.8910  133.3310 N   0  0  0  0  0  0  0  0  0  0  0  0
  141.1580  160.1140  133.2170 C   0  0  0  0  0  0  0  0  0  0  0  0
  141.3930  161.0760  133.9940 O   0  0  0  0  0  0  0  0  0  0  0  0
  140.1670  160.2460  132.2530 O   0  0  0  0  0  0  0  0  0  0  0  0
  138.0580  157.5530  132.4310 H   0  0  0  0  0  0  0  0  0  0  0  0
  139.3240  158.6930  131.8670 H   0  0  0  0  0  0  0  0  0  0  0  0
  142.3782  155.5954  133.2921 H   0  0  0  0  0  0  0  0  0  0  0  0
  145.2088  155.9679  133.3990 H   0  0  0  0  0  0  0  0  0  0  0  0
  146.9946  157.7390  133.4479 H   0  0  0  0  0  0  0  0  0  0  0  0
  146.2386  161.4151  133.1057 H   0  0  0  0  0  0  0  0  0  0  0  0
  147.0325  160.5391  134.4657 H   0  0  0  0  0  0  0  0  0  0  0  0
  146.8922  161.0807  130.8759 H   0  0  0  0  0  0  0  0  0  0  0  0
  148.7238  160.4434  129.3061 H   0  0  0  0  0  0  0  0  0  0  0  0
  150.6309  159.0562  130.1307 H   0  0  0  0  0  0  0  0  0  0  0  0
  150.6871  158.3244  132.5201 H   0  0  0  0  0  0  0  0  0  0  0  0
  143.9291  160.8363  133.3459 H   0  0  0  0  0  0  0  0  0  0  0  0
  1  2  1  0
  2  3  2  0
  2  4  1  0
  4  5  2  0
  5  6  1  0
  6  7  2  0
  7  8  1  0
  8  9  2  0
  9 10  1  0
 10 11  1  0
 11 12  1  0
 12 13  2  0
 13 14  1  0
 14 15  2  0
 15 16  1  0
 16 17  2  0
  9 18  1  0
 18 19  2  0
 19 20  1  0
 20 21  1  0
 21 22  2  0
 21 23  1  0
 20  4  1  0
 19  6  1  0
 16 11  1  0
  1 24  1  0
  1 25  1  0
  5 26  1  0
  7 27  1  0
  8 28  1  0
 10 29  1  0
 10 30  1  0
 12 31  1  0
 13 32  1  0
 14 33  1  0
 15 34  1  0
 18 35  1  0
M  CHG  1  23  -1
M  END
>  <UniqueID>  (86) 
86

>  <SMILES>  (86) 
NC(=O)c1cc2ccc(Cn3ccccc3=O)cc2n1C(=O)[O-]

>  <Energy>  (86) 
79.33710408113596

>  <Genealogy>  (86) 
NC(=O)c1cc2ccc(Cn3ccccc3=O)cc2n1C(=O)[O-] (protonated)
NC(=O)c1cc2ccc(Cn3ccccc3=O)cc2n1C(=O)[O-] (3D coordinates assigned)
NC(=O)c1cc2ccc(Cn3ccccc3=O)cc2n1C(=O)[O-] (optimized conformer: 79.33710408113596 kcal/mol)

>  <smiles>  (86) 
NC(=O)c1cc2ccc(Cn3ccccc3=O)cc2n1C(=O)O

>  <score_type>  (86) 
oracle

>  <origin>  (86) 
adg

>  <m_score__min__energy>  (86) 
-7.4000000000000004

>  <m_primary>  (86) 
energy

$$$$
86:0
     RDKit          3D

 43 46  0  0  0  0  0  0  0  0999 V2000
  140.3590  155.2450  138.5710 C   0  0  0  0  0  0  0  0  0  0  0  0
  140.9350  156.4530  137.9120 C   0  0  0  0  0  0  0  0  0  0  0  0
  140.6070  157.6910  138.1970 O   0  0  0  0  0  0  0  0  0  0  0  0
  141.3360  158.4470  137.4080 C   0  0  0  0  0  0  0  0  0  0  0  0
  141.2890  159.7040  137.4060 O   0  0  0  0  0  0  0  0  0  0  0  0
  142.1240  157.7460  136.6240 O   0  0  0  0  0  0  0  0  0  0  0  0
  141.8910  156.4870  136.9140 C   0  0  0  0  0  0  0  0  0  0  0  0
  142.5810  155.3250  136.2800 C   0  0  0  0  0  0  0  0  0  0  0  0
  142.9700  155.6790  134.9580 O   0  0  0  0  0  0  0  0  0  0  0  0
  142.1180  156.3360  134.0670 C   0  0  0  0  0  0  0  0  0  0  0  0
  141.3110  155.6750  133.3570 O   0  0  0  0  0  0  0  0  0  0  0  0
  142.1640  157.7700  133.9660 N   0  0  0  0  0  0  0  0  0  0  0  0
  141.1300  158.6400  134.1470 C   0  0  0  0  0  0  0  0  0  0  0  0
  139.7100  158.2750  134.3190 C   0  0  0  0  0  0  0  0  0  0  0  0
  139.0430  158.4680  135.5670 N   0  0  0  0  0  0  0  0  0  0  0  0
  139.0900  157.7340  133.3660 O   0  0  0  0  0  0  0  0  0  0  0  0
  141.5810  159.9560  134.1030 C   0  0  0  0  0  0  0  0  0  0  0  0
  142.9340  159.8690  133.8730 C   0  0  0  0  0  0  0  0  0  0  0  0
  143.8860  160.8780  133.7590 C   0  0  0  0  0  0  0  0  0  0  0  0
  145.2250  160.5000  133.5640 C   0  0  0  0  0  0  0  0  0  0  0  0
  145.5840  159.1330  133.4840 C   0  0  0  0  0  0  0  0  0  0  0  0
  147.0270  158.7430  133.3250 C   0  0  0  0  0  0  0  0  0  0  0  0
  147.4730  157.4590  133.8820 C   0  0  0  0  0  0  0  0  0  0  0  0
  147.8240  156.4480  134.3220 N   0  0  0  0  0  0  0  0  0  0  0  0
  148.0490  159.8710  133.3700 C   0  0  0  0  0  0  0  0  0  0  0  0
  147.7260  159.1900  132.0470 C   0  0  0  0  0  0  0  0  0  0  0  0
  144.5940  158.1360  133.6260 C   0  0  0  0  0  0  0  0  0  0  0  0
  143.2630  158.5400  133.7970 C   0  0  0  0  0  0  0  0  0  0  0  0
  140.4146  155.3616  139.6634 H   0  0  0  0  0  0  0  0  0  0  0  0
  139.3081  155.1279  138.2678 H   0  0  0  0  0  0  0  0  0  0  0  0
  140.9295  154.3547  138.2678 H   0  0  0  0  0  0  0  0  0  0  0  0
  143.4723  155.0604  136.8678 H   0  0  0  0  0  0  0  0  0  0  0  0
  141.8994  154.4622  136.2472 H   0  0  0  0  0  0  0  0  0  0  0  0
  139.5690  158.7600  136.4200 H   0  0  0  0  0  0  0  0  0  0  0  0
  138.0250  158.2510  135.6570 H   0  0  0  0  0  0  0  0  0  0  0  0
  140.9826  160.8708  134.2260 H   0  0  0  0  0  0  0  0  0  0  0  0
  143.5990  161.9382  133.8197 H   0  0  0  0  0  0  0  0  0  0  0  0
  146.0017  161.2735  133.4726 H   0  0  0  0  0  0  0  0  0  0  0  0
  147.7194  160.9047  133.5512 H   0  0  0  0  0  0  0  0  0  0  0  0
  148.9693  160.0642  133.9408 H   0  0  0  0  0  0  0  0  0  0  0  0
  147.1629  159.7316  131.2726 H   0  0  0  0  0  0  0  0  0  0  0  0
  148.3159  158.6874  131.2664 H   0  0  0  0  0  0  0  0  0  0  0  0
  144.8609  157.0691  133.6030 H   0  0  0  0  0  0  0  0  0  0  0  0
  1  2  1  0
  2  3  1  0
  3  4  1  0
  4  5  2  0
  4  6  1  0
  6  7  1  0
  7  8  1  0
  8  9  1  0
  9 10  1  0
 10 11  2  0
 10 12  1  0
 12 13  1  0
 13 14  1  0
 14 15  1  0
 14 16  2  0
 13 17  2  0
 17 18  1  0
 18 19  2  0
 19 20  1  0
 20 21  2  0
 21 22  1  0
 22 23  1  0
 23 24  3  0
 22 25  1  0
 25 26  1  0
 21 27  1  0
 27 28  2  0
  7  2  2  0
 28 12  1  0
 28 18  1  0
 26 22  1  0
  1 29  1  0
  1 30  1  0
  1 31  1  0
  8 32  1  0
  8 33  1  0
 15 34  1  0
 15 35  1  0
 17 36  1  0
 19 37  1  0
 20 38  1  0
 25 39  1  0
 25 40  1  0
 26 41  1  0
 26 42  1  0
 27 43  1  0
M  END
>  <UniqueID>  (87) 
87

>  <SMILES>  (87) 
Cc1oc(=O)oc1COC(=O)n1c(C(N)=O)cc2ccc(C3(C#N)CC3)cc21

>  <Energy>  (87) 
379.3846008504013

>  <Genealogy>  (87) 
Cc1oc(=O)oc1COC(=O)n1c(C(N)=O)cc2ccc(C3(C#N)CC3)cc21 (3D coordinates assigned)
Cc1oc(=O)oc1COC(=O)n1c(C(N)=O)cc2ccc(C3(C#N)CC3)cc21 (nonaromatic ring conformer: 379.3846008504013 kcal/mol)

>  <smiles>  (87) 
Cc1oc(=O)oc1COC(=O)n1c(C(N)=O)cc2ccc(C3(C#N)CC3)cc21

>  <score_type>  (87) 
oracle

>  <origin>  (87) 
adg

>  <m_score__min__energy>  (87) 
-8.2899999999999991

>  <m_primary>  (87) 
energy

$$$$
87:0
     RDKit          3D

 29 30  0  0  0  0  0  0  0  0999 V2000
  141.6720  159.5560  135.6400 N   0  0  0  0  0  0  0  0  0  0  0  0
  142.2430  160.1400  134.4690 C   0  0  0  0  0  0  0  0  0  0  0  0
  141.5530  160.9330  133.7750 O   0  0  0  0  0  0  0  0  0  0  0  0
  143.6160  159.7730  134.0630 C   0  0  0  0  0  0  0  0  0  0  0  0
  144.0010  158.4650  133.7780 C   0  0  0  0  0  0  0  0  0  0  0  0
  145.3120  158.5500  133.3740 C   0  0  0  0  0  0  0  0  0  0  0  0
  146.1960  157.5470  132.9870 C   0  0  0  0  0  0  0  0  0  0  0  0
  147.5090  157.9160  132.6510 C   0  0  0  0  0  0  0  0  0  0  0  0
  147.9160  159.2700  132.7240 C   0  0  0  0  0  0  0  0  0  0  0  0
  149.3150  159.6590  132.3330 C   0  0  0  0  0  0  0  0  0  0  0  0
  149.3790  159.9470  130.8590 C   0  0  0  0  0  0  0  0  0  0  0  0
  149.1970  159.0390  130.0630 O   0  0  0  0  0  0  0  0  0  0  0  0
  149.6170  161.3450  130.3590 C   0  0  0  0  0  0  0  0  0  0  0  0
  148.5610  162.1550  130.7350 F   0  0  0  0  0  0  0  0  0  0  0  0
  149.7310  161.3500  128.9770 F   0  0  0  0  0  0  0  0  0  0  0  0
  146.9870  160.2640  133.1100 C   0  0  0  0  0  0  0  0  0  0  0  0
  145.6800  159.8700  133.4200 C   0  0  0  0  0  0  0  0  0  0  0  0
  144.6480  160.6360  133.8400 N   0  0  0  0  0  0  0  0  0  0  0  0
  144.6770  162.0550  134.0560 C   0  0  0  0  0  0  0  0  0  0  0  0
  143.9320  162.8210  133.3870 O   0  0  0  0  0  0  0  0  0  0  0  0
  145.5280  162.6020  135.0100 O   0  0  0  0  0  0  0  0  0  0  0  0
  141.0610  160.1160  136.2770 H   0  0  0  0  0  0  0  0  0  0  0  0
  143.3861  157.5565  133.8591 H   0  0  0  0  0  0  0  0  0  0  0  0
  145.8756  156.4955  132.9455 H   0  0  0  0  0  0  0  0  0  0  0  0
  148.2265  157.1470  132.3287 H   0  0  0  0  0  0  0  0  0  0  0  0
  149.6123  160.5582  132.8925 H   0  0  0  0  0  0  0  0  0  0  0  0
  149.9979  158.8291  132.5673 H   0  0  0  0  0  0  0  0  0  0  0  0
  150.5525  161.7243  130.7960 H   0  0  0  0  0  0  0  0  0  0  0  0
  147.2844  161.3216  133.1653 H   0  0  0  0  0  0  0  0  0  0  0  0
  1  2  1  0
  2  3  2  0
  2  4  1  0
  4  5  2  0
  5  6  1  0
  6  7  2  0
  7  8  1  0
  8  9  2  0
  9 10  1  0
 10 11  1  0
 11 12  2  0
 11 13  1  0
 13 14  1  0
 13 15  1  0
  9 16  1  0
 16 17  2  0
 17 18  1  0
 18 19  1  0
 19 20  2  0
 19 21  1  0
 18  4  1  0
 17  6  1  0
  1 22  1  0
  5 23  1  0
  7 24  1  0
  8 25  1  0
 10 26  1  0
 10 27  1  0
 13 28  1  0
 16 29  1  0
M  CHG  2   1  -1  21  -1
M  END
>  <UniqueID>  (88) 
88

>  <SMILES>  (88) 
[NH-]C(=O)c1cc2ccc(CC(=O)C(F)F)cc2n1C(=O)[O-]

>  <Energy>  (88) 
65.66438273403847

>  <Genealogy>  (88) 
[NH-]C(=O)c1cc2ccc(CC(=O)C(F)F)cc2n1C(=O)[O-] (protonated)
[NH-]C(=O)c1cc2ccc(CC(=O)C(F)F)cc2n1C(=O)[O-] (3D coordinates assigned)
[NH-]C(=O)c1cc2ccc(CC(=O)C(F)F)cc2n1C(=O)[O-] (optimized conformer: 65.66438273403847 kcal/mol)

>  <smiles>  (88) 
NC(=O)c1cc2ccc(CC(=O)C(F)F)cc2n1C(=O)O

>  <score_type>  (88) 
oracle

>  <origin>  (88) 
adg

>  <m_score__min__energy>  (88) 
-6.3899999999999997

>  <m_primary>  (88) 
energy

$$$$
88:0
     RDKit          3D

 25 26  0  0  0  0  0  0  0  0999 V2000
  141.6240  160.5980  133.8390 N   0  0  0  0  0  0  0  0  0  0  0  0
  142.5150  159.7310  134.5410 C   0  0  0  0  0  0  0  0  0  0  0  0
  142.1530  159.2340  135.6410 O   0  0  0  0  0  0  0  0  0  0  0  0
  143.8760  159.4600  134.0370 C   0  0  0  0  0  0  0  0  0  0  0  0
  144.3400  158.1830  133.7390 C   0  0  0  0  0  0  0  0  0  0  0  0
  145.6550  158.3510  133.3710 C   0  0  0  0  0  0  0  0  0  0  0  0
  146.5930  157.4120  132.9530 C   0  0  0  0  0  0  0  0  0  0  0  0
  147.8700  157.8700  132.5920 C   0  0  0  0  0  0  0  0  0  0  0  0
  148.1850  159.2500  132.6550 C   0  0  0  0  0  0  0  0  0  0  0  0
  149.5370  159.7330  132.2190 C   0  0  0  0  0  0  0  0  0  0  0  0
  149.4930  160.1640  130.4930 Cl  0  0  0  0  0  0  0  0  0  0  0  0
  147.2030  160.1770  133.0700 C   0  0  0  0  0  0  0  0  0  0  0  0
  145.9450  159.6910  133.4440 C   0  0  0  0  0  0  0  0  0  0  0  0
  144.8570  160.3870  133.8490 N   0  0  0  0  0  0  0  0  0  0  0  0
  144.7310  161.8170  133.9330 C   0  0  0  0  0  0  0  0  0  0  0  0
  145.6150  162.5040  134.5100 O   0  0  0  0  0  0  0  0  0  0  0  0
  143.6330  162.4580  133.3720 O   0  0  0  0  0  0  0  0  0  0  0  0
  140.6540  160.7490  134.1920 H   0  0  0  0  0  0  0  0  0  0  0  0
  141.9500  161.1530  133.0170 H   0  0  0  0  0  0  0  0  0  0  0  0
  143.7758  157.2399  133.7873 H   0  0  0  0  0  0  0  0  0  0  0  0
  146.3413  156.3422  132.9068 H   0  0  0  0  0  0  0  0  0  0  0  0
  148.6326  157.1513  132.2573 H   0  0  0  0  0  0  0  0  0  0  0  0
  149.8171  160.6177  132.8096 H   0  0  0  0  0  0  0  0  0  0  0  0
  150.2769  158.9343  132.3759 H   0  0  0  0  0  0  0  0  0  0  0  0
  147.4219  161.2546  133.0985 H   0  0  0  0  0  0  0  0  0  0  0  0
  1  2  1  0
  2  3  2  0
  2  4  1  0
  4  5  2  0
  5  6  1  0
  6  7  2  0
  7  8  1  0
  8  9  2  0
  9 10  1  0
 10 11  1  0
  9 12  1  0
 12 13  2  0
 13 14  1  0
 14 15  1  0
 15 16  2  0
 15 17  1  0
 14  4  1  0
 13  6  1  0
  1 18  1  0
  1 19  1  0
  5 20  1  0
  7 21  1  0
  8 22  1  0
 10 23  1  0
 10 24  1  0
 12 25  1  0
M  CHG  1  17  -1
M  END
>  <UniqueID>  (89) 
89

>  <SMILES>  (89) 
NC(=O)c1cc2ccc(CCl)cc2n1C(=O)[O-]

>  <Energy>  (89) 
64.5370103107832

>  <Genealogy>  (89) 
NC(=O)c1cc2ccc(CCl)cc2n1C(=O)[O-] (protonated)
NC(=O)c1cc2ccc(CCl)cc2n1C(=O)[O-] (3D coordinates assigned)
NC(=O)c1cc2ccc(CCl)cc2n1C(=O)[O-] (optimized conformer: 64.5370103107832 kcal/mol)

>  <smiles>  (89) 
NC(=O)c1cc2ccc(CCl)cc2n1C(=O)O

>  <score_type>  (89) 
oracle

>  <origin>  (89) 
adg

>  <m_score__min__energy>  (89) 
-5.9699999999999998

>  <m_primary>  (89) 
energy

$$$$
89:0
     RDKit          3D

 48 49  0  0  0  0  0  0  0  0999 V2000
  139.3960  155.9290  132.9710 C   0  0  0  0  0  0  0  0  0  0  0  0
  139.0870  157.1230  133.4860 C   0  0  0  0  0  0  0  0  0  0  0  0
  139.8900  158.3430  133.1550 C   0  0  0  0  0  0  0  0  0  0  0  0
  140.7250  158.6750  134.2600 O   0  0  0  0  0  0  0  0  0  0  0  0
  141.8300  157.9060  134.6330 C   0  0  0  0  0  0  0  0  0  0  0  0
  142.9280  158.0330  134.0230 O   0  0  0  0  0  0  0  0  0  0  0  0
  141.7060  156.9490  135.6980 N   0  0  0  0  0  0  0  0  0  0  0  0
  141.4830  157.1950  137.0200 C   0  0  0  0  0  0  0  0  0  0  0  0
  141.1580  158.5130  137.6070 C   0  0  0  0  0  0  0  0  0  0  0  0
  140.2340  159.3920  136.9620 N   0  0  0  0  0  0  0  0  0  0  0  0
  141.7190  158.8890  138.6710 O   0  0  0  0  0  0  0  0  0  0  0  0
  141.5110  156.0070  137.7490 C   0  0  0  0  0  0  0  0  0  0  0  0
  141.7560  155.0180  136.8260 C   0  0  0  0  0  0  0  0  0  0  0  0
  141.9110  153.6460  137.0040 C   0  0  0  0  0  0  0  0  0  0  0  0
  142.2080  152.8630  135.8760 C   0  0  0  0  0  0  0  0  0  0  0  0
  142.3410  153.4620  134.5980 C   0  0  0  0  0  0  0  0  0  0  0  0
  142.7420  152.6320  133.4100 C   0  0  0  0  0  0  0  0  0  0  0  0
  141.2620  151.9310  132.6190 P   0  0  0  0  0  0  0  0  0  0  0  0
  139.9670  152.7100  132.6100 O   0  0  0  0  0  0  0  0  0  0  0  0
  141.3480  150.4090  131.8650 O   0  0  0  0  0  0  0  0  0  0  0  0
  140.4530  149.5510  132.5300 C   0  0  0  0  0  0  0  0  0  0  0  0
  139.8480  148.5620  131.5300 C   0  0  0  0  0  0  0  0  0  0  0  0
  138.6900  149.1500  130.7060 C   0  0  0  0  0  0  0  0  0  0  0  0
  138.7590  148.7640  129.2290 C   0  0  0  0  0  0  0  0  0  0  0  0
  142.1720  154.8560  134.4560 C   0  0  0  0  0  0  0  0  0  0  0  0
  141.8680  155.6110  135.5940 C   0  0  0  0  0  0  0  0  0  0  0  0
  138.7921  155.0462  133.2280 H   0  0  0  0  0  0  0  0  0  0  0  0
  140.2542  155.8291  132.2901 H   0  0  0  0  0  0  0  0  0  0  0  0
  138.2267  157.2112  134.1658 H   0  0  0  0  0  0  0  0  0  0  0  0
  140.5135  158.1431  132.2711 H   0  0  0  0  0  0  0  0  0  0  0  0
  139.2116  159.1824  132.9424 H   0  0  0  0  0  0  0  0  0  0  0  0
  139.7040  159.0950  136.1140 H   0  0  0  0  0  0  0  0  0  0  0  0
  140.0450  160.3390  137.3600 H   0  0  0  0  0  0  0  0  0  0  0  0
  141.3675  155.8865  138.8329 H   0  0  0  0  0  0  0  0  0  0  0  0
  141.8041  153.1885  137.9986 H   0  0  0  0  0  0  0  0  0  0  0  0
  142.3384  151.7762  135.9853 H   0  0  0  0  0  0  0  0  0  0  0  0
  143.2774  153.2646  132.6867 H   0  0  0  0  0  0  0  0  0  0  0  0
  143.3971  151.8137  133.7436 H   0  0  0  0  0  0  0  0  0  0  0  0
  140.9913  148.9965  133.3128 H   0  0  0  0  0  0  0  0  0  0  0  0
  139.6483  150.1462  132.9863 H   0  0  0  0  0  0  0  0  0  0  0  0
  140.6394  148.2401  130.8371 H   0  0  0  0  0  0  0  0  0  0  0  0
  139.4364  147.7250  132.1131 H   0  0  0  0  0  0  0  0  0  0  0  0
  137.7404  148.7818  131.1216 H   0  0  0  0  0  0  0  0  0  0  0  0
  138.7637  150.2459  130.7659 H   0  0  0  0  0  0  0  0  0  0  0  0
  138.9519  147.6847  129.1407 H   0  0  0  0  0  0  0  0  0  0  0  0
  137.8032  149.0067  128.7416 H   0  0  0  0  0  0  0  0  0  0  0  0
  139.5715  149.3228  128.7416 H   0  0  0  0  0  0  0  0  0  0  0  0
  142.2769  155.3380  133.4728 H   0  0  0  0  0  0  0  0  0  0  0  0
  1  2  2  0
  2  3  1  0
  3  4  1  0
  4  5  1  0
  5  6  2  0
  5  7  1  0
  7  8  1  0
  8  9  1  0
  9 10  1  0
  9 11  2  0
  8 12  2  0
 12 13  1  0
 13 14  2  0
 14 15  1  0
 15 16  2  0
 16 17  1  0
 17 18  1  0
 18 19  2  0
 18 20  1  0
 20 21  1  0
 21 22  1  0
 22 23  1  0
 23 24  1  0
 16 25  1  0
 25 26  2  0
 26  7  1  0
 26 13  1  0
  1 27  1  0
  1 28  1  0
  2 29  1  0
  3 30  1  0
  3 31  1  0
 10 32  1  0
 10 33  1  0
 12 34  1  0
 14 35  1  0
 15 36  1  0
 17 37  1  0
 17 38  1  0
 21 39  1  0
 21 40  1  0
 22 41  1  0
 22 42  1  0
 23 43  1  0
 23 44  1  0
 24 45  1  0
 24 46  1  0
 24 47  1  0
 25 48  1  0
M  CHG  1  18   1
M  END
>  <UniqueID>  (90) 
90

>  <SMILES>  (90) 
C=CCOC(=O)n1c(C(N)=O)cc2ccc(C[P+](=O)OCCCC)cc21

>  <Energy>  (90) 
90.53432802780799

>  <Genealogy>  (90) 
C=CCOC(=O)n1c(C(N)=O)cc2ccc(C[P+](=O)OCCCC)cc21 (chirality)
C=CCOC(=O)n1c(C(N)=O)cc2ccc(C[P+](=O)OCCCC)cc21 (3D coordinates assigned)
C=CCOC(=O)n1c(C(N)=O)cc2ccc(C[P+](=O)OCCCC)cc21 (optimized conformer: 90.53432802780799 kcal/mol)

>  <smiles>  (90) 
C=CCOC(=O)n1c(C(N)=O)cc2ccc(C[P+](=O)OCCCC)cc21

>  <score_type>  (90) 
oracle

>  <origin>  (90) 
adg

>  <m_score__min__energy>  (90) 
-7.4400000000000004

>  <m_primary>  (90) 
energy

$$$$
90:0
     RDKit          3D

 30 31  0  0  0  0  0  0  0  0999 V2000
  140.4260  158.9290  133.8230 C   0  0  0  0  0  0  0  0  0  0  0  0
  141.5350  158.5540  134.8160 C   0  0  2  0  0  0  0  0  0  0  0  0
  141.2360  159.0530  136.2040 C   0  0  0  0  0  0  0  0  0  0  0  0
  140.6330  160.1440  136.3830 O   0  0  0  0  0  0  0  0  0  0  0  0
  141.6770  158.3280  137.3040 O   0  0  0  0  0  0  0  0  0  0  0  0
  142.8860  159.0540  134.3470 C   0  0  0  0  0  0  0  0  0  0  0  0
  143.1210  160.4410  134.1490 C   0  0  0  0  0  0  0  0  0  0  0  0
  144.3770  160.9060  133.7260 C   0  0  0  0  0  0  0  0  0  0  0  0
  145.3760  159.9660  133.4980 C   0  0  0  0  0  0  0  0  0  0  0  0
  146.6870  160.1460  133.1200 C   0  0  0  0  0  0  0  0  0  0  0  0
  147.2300  158.8680  133.0580 C   0  0  0  0  0  0  0  0  0  0  0  0
  148.6160  158.5960  132.6290 C   0  0  0  0  0  0  0  0  0  0  0  0
  148.9380  157.4360  131.8590 N   0  0  0  0  0  0  0  0  0  0  0  0
  149.5220  159.4290  132.8970 O   0  0  0  0  0  0  0  0  0  0  0  0
  146.3000  157.9300  133.3980 N   0  0  0  0  0  0  0  0  0  0  0  0
  146.5040  156.5170  133.5630 C   0  0  0  0  0  0  0  0  0  0  0  0
  146.7270  155.7850  132.5630 O   0  0  0  0  0  0  0  0  0  0  0  0
  146.4600  155.9410  134.8270 O   0  0  0  0  0  0  0  0  0  0  0  0
  145.1670  158.6200  133.6620 C   0  0  0  0  0  0  0  0  0  0  0  0
  143.9310  158.1320  134.1040 C   0  0  0  0  0  0  0  0  0  0  0  0
  139.5256  159.2335  134.3767 H   0  0  0  0  0  0  0  0  0  0  0  0
  140.7665  159.7619  133.1904 H   0  0  0  0  0  0  0  0  0  0  0  0
  140.1912  158.0603  133.1904 H   0  0  0  0  0  0  0  0  0  0  0  0
  141.5706  157.4554  134.8574 H   0  0  0  0  0  0  0  0  0  0  0  0
  142.3085  161.1603  134.3294 H   0  0  0  0  0  0  0  0  0  0  0  0
  144.5645  161.9800  133.5797 H   0  0  0  0  0  0  0  0  0  0  0  0
  147.1965  161.0983  132.9114 H   0  0  0  0  0  0  0  0  0  0  0  0
  149.9300  157.2400  131.5970 H   0  0  0  0  0  0  0  0  0  0  0  0
  148.1900  156.8180  131.4770 H   0  0  0  0  0  0  0  0  0  0  0  0
  143.7759  157.0541  134.2590 H   0  0  0  0  0  0  0  0  0  0  0  0
  1  2  1  0
  2  3  1  0
  3  4  2  0
  3  5  1  0
  2  6  1  0
  6  7  2  0
  7  8  1  0
  8  9  2  0
  9 10  1  0
 10 11  2  0
 11 12  1  0
 12 13  1  0
 12 14  2  0
 11 15  1  0
 15 16  1  0
 16 17  2  0
 16 18  1  0
 15 19  1  0
 19 20  2  0
 20  6  1  0
 19  9  1  0
  1 21  1  0
  1 22  1  0
  1 23  1  0
  2 24  1  1
  7 25  1  0
  8 26  1  0
 10 27  1  0
 13 28  1  0
 13 29  1  0
 20 30  1  0
M  CHG  2   5  -1  18  -1
M  END
>  <UniqueID>  (91) 
91

>  <SMILES>  (91) 
C[C@H](C(=O)[O-])c1ccc2cc(C(N)=O)n(C(=O)[O-])c2c1

>  <Energy>  (91) 
69.30695474987196

>  <Genealogy>  (91) 
CC(C(=O)[O-])c1ccc2cc(C(N)=O)n(C(=O)[O-])c2c1 (protonated)
C[C@H](C(=O)[O-])c1ccc2cc(C(N)=O)n(C(=O)[O-])c2c1 (chirality)
C[C@H](C(=O)[O-])c1ccc2cc(C(N)=O)n(C(=O)[O-])c2c1 (3D coordinates assigned)
C[C@H](C(=O)[O-])c1ccc2cc(C(N)=O)n(C(=O)[O-])c2c1 (optimized conformer: 69.30695474987196 kcal/mol)

>  <smiles>  (91) 
CC(C(=O)O)c1ccc2cc(C(N)=O)n(C(=O)O)c2c1

>  <score_type>  (91) 
oracle

>  <origin>  (91) 
adg

>  <m_score__min__energy>  (91) 
-6.3300000000000001

>  <m_primary>  (91) 
energy

$$$$
91:0
     RDKit          3D

 56 58  0  0  0  0  0  0  0  0999 V2000
  138.5020  160.4600  131.0280 C   0  0  0  0  0  0  0  0  0  0  0  0
  139.1140  159.0910  130.7550 C   0  0  0  0  0  0  0  0  0  0  0  0
  139.8770  158.6500  131.8750 O   0  0  0  0  0  0  0  0  0  0  0  0
  139.3040  158.1970  133.0710 C   0  0  0  0  0  0  0  0  0  0  0  0
  138.0510  158.2360  133.2290 O   0  0  0  0  0  0  0  0  0  0  0  0
  140.2120  157.7140  134.1870 C   0  0  0  0  0  0  0  0  0  0  0  0
  140.4420  156.1900  134.0940 C   0  0  0  0  0  0  0  0  0  0  0  0
  139.4820  158.0170  135.5140 C   0  0  0  0  0  0  0  0  0  0  0  0
  141.5760  158.4140  134.0690 C   0  0  0  0  0  0  0  0  0  0  0  0
  141.6160  159.8230  133.8620 C   0  0  0  0  0  0  0  0  0  0  0  0
  142.8330  160.5050  133.7080 C   0  0  0  0  0  0  0  0  0  0  0  0
  144.0050  159.7640  133.7520 C   0  0  0  0  0  0  0  0  0  0  0  0
  145.3130  160.1720  133.6260 C   0  0  0  0  0  0  0  0  0  0  0  0
  146.0690  159.0110  133.7350 C   0  0  0  0  0  0  0  0  0  0  0  0
  147.5400  159.0040  133.7230 C   0  0  0  0  0  0  0  0  0  0  0  0
  148.2640  157.8020  133.9800 N   0  0  0  0  0  0  0  0  0  0  0  0
  148.1620  160.0570  133.4250 O   0  0  0  0  0  0  0  0  0  0  0  0
  145.2700  157.9270  133.9420 N   0  0  0  0  0  0  0  0  0  0  0  0
  145.6870  156.5870  134.2660 C   0  0  0  0  0  0  0  0  0  0  0  0
  146.4800  156.3880  135.2260 O   0  0  0  0  0  0  0  0  0  0  0  0
  145.2110  155.4780  133.4960 N   0  0  0  0  0  0  0  0  0  0  0  0
  145.9460  154.8760  132.3890 C   0  0  0  0  0  0  0  0  0  0  0  0
  147.3230  155.5300  132.2380 C   0  0  0  0  0  0  0  0  0  0  0  0
  148.2740  154.9940  133.2320 N   0  0  0  0  0  0  0  0  0  0  0  0
  149.3290  154.2000  132.5850 C   0  0  0  0  0  0  0  0  0  0  0  0
  148.8570  152.9030  133.2130 C   0  0  0  0  0  0  0  0  0  0  0  0
  147.7860  153.7570  133.8630 C   0  0  0  0  0  0  0  0  0  0  0  0
  144.0040  158.4080  133.9450 C   0  0  0  0  0  0  0  0  0  0  0  0
  142.8050  157.6980  134.0880 C   0  0  0  0  0  0  0  0  0  0  0  0
  138.4306  160.6198  132.1140 H   0  0  0  0  0  0  0  0  0  0  0  0
  139.1368  161.2407  130.5835 H   0  0  0  0  0  0  0  0  0  0  0  0
  137.4969  160.5076  130.5835 H   0  0  0  0  0  0  0  0  0  0  0  0
  138.3088  158.3677  130.5588 H   0  0  0  0  0  0  0  0  0  0  0  0
  139.7782  159.1674  129.8815 H   0  0  0  0  0  0  0  0  0  0  0  0
  140.5059  155.7663  135.1071 H   0  0  0  0  0  0  0  0  0  0  0  0
  139.6039  155.7250  133.5543 H   0  0  0  0  0  0  0  0  0  0  0  0
  141.3800  155.9930  133.5543 H   0  0  0  0  0  0  0  0  0  0  0  0
  140.1316  157.7474  136.3597 H   0  0  0  0  0  0  0  0  0  0  0  0
  139.2415  159.0892  135.5637 H   0  0  0  0  0  0  0  0  0  0  0  0
  138.5529  157.4302  135.5637 H   0  0  0  0  0  0  0  0  0  0  0  0
  140.6732  160.3883  133.8220 H   0  0  0  0  0  0  0  0  0  0  0  0
  142.8568  161.5943  133.5569 H   0  0  0  0  0  0  0  0  0  0  0  0
  145.6812  161.1970  133.4721 H   0  0  0  0  0  0  0  0  0  0  0  0
  147.7610  156.8980  134.1240 H   0  0  0  0  0  0  0  0  0  0  0  0
  149.3070  157.8080  133.9900 H   0  0  0  0  0  0  0  0  0  0  0  0
  146.0755  153.8010  132.5830 H   0  0  0  0  0  0  0  0  0  0  0  0
  145.3767  155.0288  131.4602 H   0  0  0  0  0  0  0  0  0  0  0  0
  147.7078  155.3295  131.2272 H   0  0  0  0  0  0  0  0  0  0  0  0
  147.2172  156.6126  132.4018 H   0  0  0  0  0  0  0  0  0  0  0  0
  149.2648  154.2017  131.4869 H   0  0  0  0  0  0  0  0  0  0  0  0
  150.3774  154.5026  132.7240 H   0  0  0  0  0  0  0  0  0  0  0  0
  148.4866  152.1478  132.5041 H   0  0  0  0  0  0  0  0  0  0  0  0
  149.5213  152.2384  133.7848 H   0  0  0  0  0  0  0  0  0  0  0  0
  146.7651  153.4844  133.5572 H   0  0  0  0  0  0  0  0  0  0  0  0
  147.6801  153.7287  134.9575 H   0  0  0  0  0  0  0  0  0  0  0  0
  142.8137  156.6051  134.2129 H   0  0  0  0  0  0  0  0  0  0  0  0
  1  2  1  0
  2  3  1  0
  3  4  1  0
  4  5  2  0
  4  6  1  0
  6  7  1  0
  6  8  1  0
  6  9  1  0
  9 10  2  0
 10 11  1  0
 11 12  2  0
 12 13  1  0
 13 14  2  0
 14 15  1  0
 15 16  1  0
 15 17  2  0
 14 18  1  0
 18 19  1  0
 19 20  2  0
 19 21  1  0
 21 22  1  0
 22 23  1  0
 23 24  1  0
 24 25  1  0
 25 26  1  0
 26 27  1  0
 18 28  1  0
 28 29  2  0
 29  9  1  0
 28 12  1  0
 27 24  1  0
  1 30  1  0
  1 31  1  0
  1 32  1  0
  2 33  1  0
  2 34  1  0
  7 35  1  0
  7 36  1  0
  7 37  1  0
  8 38  1  0
  8 39  1  0
  8 40  1  0
 10 41  1  0
 11 42  1  0
 13 43  1  0
 16 44  1  0
 16 45  1  0
 22 46  1  0
 22 47  1  0
 23 48  1  0
 23 49  1  0
 25 50  1  0
 25 51  1  0
 26 52  1  0
 26 53  1  0
 27 54  1  0
 27 55  1  0
 29 56  1  0
M  CHG  1  21  -1
M  END
>  <UniqueID>  (92) 
92

>  <SMILES>  (92) 
CCOC(=O)C(C)(C)c1ccc2cc(C(N)=O)n(C(=O)[N-]CCN3CCC3)c2c1

>  <Energy>  (92) 
162.70837626745848

>  <Genealogy>  (92) 
CCOC(=O)C(C)(C)c1ccc2cc(C(N)=O)n(C(=O)[N-]CCN3CCC3)c2c1 (protonated)
CCOC(=O)C(C)(C)c1ccc2cc(C(N)=O)n(C(=O)[N-]CCN3CCC3)c2c1 (3D coordinates assigned)
CCOC(=O)C(C)(C)c1ccc2cc(C(N)=O)n(C(=O)[N-]CCN3CCC3)c2c1 (nonaromatic ring conformer: 162.70837626745848 kcal/mol)

>  <smiles>  (92) 
CCOC(=O)C(C)(C)c1ccc2cc(C(N)=O)n(C(=O)NCCN3CCC3)c2c1

>  <score_type>  (92) 
oracle

>  <origin>  (92) 
adg

>  <m_score__min__energy>  (92) 
-8.6500000000000004

>  <m_primary>  (92) 
energy

$$$$
92:0
     RDKit          3D

 38 39  0  0  0  0  0  0  0  0999 V2000
  149.6260  151.1910  135.7010 C   0  0  0  0  0  0  0  0  0  0  0  0
  149.5950  150.3520  134.4260 C   0  0  0  0  0  0  0  0  0  0  0  0
  150.2890  151.0830  133.2680 C   0  0  0  0  0  0  0  0  0  0  0  0
  149.2770  151.6680  132.2840 C   0  0  0  0  0  0  0  0  0  0  0  0
  148.3860  152.5430  132.9660 O   0  0  0  0  0  0  0  0  0  0  0  0
  148.3240  153.9150  132.7080 C   0  0  0  0  0  0  0  0  0  0  0  0
  149.3420  154.5270  132.2800 O   0  0  0  0  0  0  0  0  0  0  0  0
  147.0990  154.6320  132.9380 N   0  0  0  0  0  0  0  0  0  0  0  0
  145.8280  154.1420  132.8840 C   0  0  0  0  0  0  0  0  0  0  0  0
  145.4540  152.7220  132.7310 C   0  0  0  0  0  0  0  0  0  0  0  0
  146.1520  151.8660  131.8260 N   0  0  0  0  0  0  0  0  0  0  0  0
  144.5400  152.2430  133.4520 O   0  0  0  0  0  0  0  0  0  0  0  0
  144.8990  155.1640  133.0500 C   0  0  0  0  0  0  0  0  0  0  0  0
  145.6450  156.3070  133.2260 C   0  0  0  0  0  0  0  0  0  0  0  0
  145.2310  157.6210  133.4140 C   0  0  0  0  0  0  0  0  0  0  0  0
  146.2180  158.6140  133.5270 C   0  0  0  0  0  0  0  0  0  0  0  0
  147.5950  158.2780  133.4600 C   0  0  0  0  0  0  0  0  0  0  0  0
  148.6450  159.3590  133.5200 C   0  0  0  0  0  0  0  0  0  0  0  0
  149.6280  159.1400  132.5710 F   0  0  0  0  0  0  0  0  0  0  0  0
  148.0800  160.6010  133.2800 F   0  0  0  0  0  0  0  0  0  0  0  0
  149.2230  159.3620  134.7760 F   0  0  0  0  0  0  0  0  0  0  0  0
  147.9740  156.9330  133.2400 C   0  0  0  0  0  0  0  0  0  0  0  0
  146.9700  155.9610  133.1540 C   0  0  0  0  0  0  0  0  0  0  0  0
  149.6015  150.5269  136.5776 H   0  0  0  0  0  0  0  0  0  0  0  0
  150.5470  151.7921  135.7221 H   0  0  0  0  0  0  0  0  0  0  0  0
  148.7519  151.8585  135.7221 H   0  0  0  0  0  0  0  0  0  0  0  0
  150.1116  149.3985  134.6104 H   0  0  0  0  0  0  0  0  0  0  0  0
  148.5453  150.1749  134.1490 H   0  0  0  0  0  0  0  0  0  0  0  0
  150.9016  151.8997  133.6776 H   0  0  0  0  0  0  0  0  0  0  0  0
  150.9132  150.3561  132.7276 H   0  0  0  0  0  0  0  0  0  0  0  0
  149.8108  152.2283  131.5022 H   0  0  0  0  0  0  0  0  0  0  0  0
  148.7011  150.8491  131.8282 H   0  0  0  0  0  0  0  0  0  0  0  0
  145.8500  150.8740  131.7030 H   0  0  0  0  0  0  0  0  0  0  0  0
  147.0190  152.1870  131.3400 H   0  0  0  0  0  0  0  0  0  0  0  0
  143.8025  155.0771  133.0423 H   0  0  0  0  0  0  0  0  0  0  0  0
  144.1624  157.8753  133.4725 H   0  0  0  0  0  0  0  0  0  0  0  0
  145.9203  159.6634  133.6689 H   0  0  0  0  0  0  0  0  0  0  0  0
  149.0340  156.6569  133.1387 H   0  0  0  0  0  0  0  0  0  0  0  0
  1  2  1  0
  2  3  1  0
  3  4  1  0
  4  5  1  0
  5  6  1  0
  6  7  2  0
  6  8  1  0
  8  9  1  0
  9 10  1  0
 10 11  1  0
 10 12  2  0
  9 13  2  0
 13 14  1  0
 14 15  2  0
 15 16  1  0
 16 17  2  0
 17 18  1  0
 18 19  1  0
 18 20  1  0
 18 21  1  0
 17 22  1  0
 22 23  2  0
 23  8  1  0
 23 14  1  0
  1 24  1  0
  1 25  1  0
  1 26  1  0
  2 27  1  0
  2 28  1  0
  3 29  1  0
  3 30  1  0
  4 31  1  0
  4 32  1  0
 11 33  1  0
 11 34  1  0
 13 35  1  0
 15 36  1  0
 16 37  1  0
 22 38  1  0
M  END
>  <UniqueID>  (93) 
93

>  <SMILES>  (93) 
CCCCOC(=O)n1c(C(N)=O)cc2ccc(C(F)(F)F)cc21

>  <Energy>  (93) 
68.6028206790229

>  <Genealogy>  (93) 
CCCCOC(=O)n1c(C(N)=O)cc2ccc(C(F)(F)F)cc21 (3D coordinates assigned)
CCCCOC(=O)n1c(C(N)=O)cc2ccc(C(F)(F)F)cc21 (optimized conformer: 68.6028206790229 kcal/mol)

>  <smiles>  (93) 
CCCCOC(=O)n1c(C(N)=O)cc2ccc(C(F)(F)F)cc21

>  <score_type>  (93) 
oracle

>  <origin>  (93) 
adg

>  <m_score__min__energy>  (93) 
-6.5599999999999996

>  <m_primary>  (93) 
energy

$$$$
93:0
     RDKit          3D

 45 47  0  0  0  0  0  0  0  0999 V2000
  145.7530  155.3950  134.3890 C   0  0  0  0  0  0  0  0  0  0  0  0
  146.1720  156.3000  133.2740 C   0  0  0  0  0  0  0  0  0  0  0  0
  146.7300  155.8060  132.2580 O   0  0  0  0  0  0  0  0  0  0  0  0
  145.9930  157.7230  133.3700 N   0  0  0  0  0  0  0  0  0  0  0  0
  146.9360  158.6980  133.2370 C   0  0  0  0  0  0  0  0  0  0  0  0
  148.3920  158.4700  133.1110 C   0  0  0  0  0  0  0  0  0  0  0  0
  148.9140  157.6200  132.0880 N   0  0  0  0  0  0  0  0  0  0  0  0
  149.1910  159.0480  133.8940 O   0  0  0  0  0  0  0  0  0  0  0  0
  146.3490  159.9590  133.3370 C   0  0  0  0  0  0  0  0  0  0  0  0
  145.0090  159.7210  133.5440 C   0  0  0  0  0  0  0  0  0  0  0  0
  143.9560  160.6130  133.7130 C   0  0  0  0  0  0  0  0  0  0  0  0
  142.6660  160.0860  133.8940 C   0  0  0  0  0  0  0  0  0  0  0  0
  142.4460  158.6820  133.9020 C   0  0  0  0  0  0  0  0  0  0  0  0
  141.0520  158.0960  134.0920 C   0  0  2  0  0  0  0  0  0  0  0  0
  140.0970  158.7530  133.1170 C   0  0  0  0  0  0  0  0  0  0  0  0
  140.0200  160.1020  132.7680 C   0  0  0  0  0  0  0  0  0  0  0  0
  139.0640  160.3680  131.7800 C   0  0  0  0  0  0  0  0  0  0  0  0
  138.3920  159.2390  131.3340 C   0  0  0  0  0  0  0  0  0  0  0  0
  138.9910  157.9100  132.1680 S   0  0  0  0  0  0  0  0  0  0  0  0
  140.5560  158.0650  135.5900 C   0  0  0  0  0  0  0  0  0  0  0  0
  139.1490  158.1340  135.6100 O   0  0  0  0  0  0  0  0  0  0  0  0
  141.0120  156.7350  136.2800 C   0  0  0  0  0  0  0  0  0  0  0  0
  140.8890  155.6570  135.4200 F   0  0  0  0  0  0  0  0  0  0  0  0
  142.3410  156.8060  136.6570 F   0  0  0  0  0  0  0  0  0  0  0  0
  140.2490  156.4810  137.4070 F   0  0  0  0  0  0  0  0  0  0  0  0
  141.1350  159.2920  136.3710 C   0  0  0  0  0  0  0  0  0  0  0  0
  140.6050  159.3570  137.6460 F   0  0  0  0  0  0  0  0  0  0  0  0
  142.5100  159.1980  136.5060 F   0  0  0  0  0  0  0  0  0  0  0  0
  140.8440  160.4740  135.7110 F   0  0  0  0  0  0  0  0  0  0  0  0
  143.5480  157.8110  133.7250 C   0  0  0  0  0  0  0  0  0  0  0  0
  144.8210  158.3650  133.5600 C   0  0  0  0  0  0  0  0  0  0  0  0
  145.9751  155.8747  135.3537 H   0  0  0  0  0  0  0  0  0  0  0  0
  144.6729  155.1998  134.3166 H   0  0  0  0  0  0  0  0  0  0  0  0
  146.3030  154.4451  134.3166 H   0  0  0  0  0  0  0  0  0  0  0  0
  148.2840  157.0780  131.4570 H   0  0  0  0  0  0  0  0  0  0  0  0
  149.9460  157.4970  131.9860 H   0  0  0  0  0  0  0  0  0  0  0  0
  146.8499  160.9357  133.2657 H   0  0  0  0  0  0  0  0  0  0  0  0
  144.1277  161.6995  133.7052 H   0  0  0  0  0  0  0  0  0  0  0  0
  141.8150  160.7694  134.0313 H   0  0  0  0  0  0  0  0  0  0  0  0
  141.0924  157.0239  133.8493 H   0  0  0  0  0  0  0  0  0  0  0  0
  140.6490  160.8805  133.2245 H   0  0  0  0  0  0  0  0  0  0  0  0
  138.8643  161.3783  131.3933 H   0  0  0  0  0  0  0  0  0  0  0  0
  137.6036  159.2180  130.5672 H   0  0  0  0  0  0  0  0  0  0  0  0
  138.8720  158.6730  136.3970 H   0  0  0  0  0  0  0  0  0  0  0  0
  143.4055  156.7203  133.7175 H   0  0  0  0  0  0  0  0  0  0  0  0
  1  2  1  0
  2  3  2  0
  2  4  1  0
  4  5  1  0
  5  6  1  0
  6  7  1  0
  6  8  2  0
  5  9  2  0
  9 10  1  0
 10 11  2  0
 11 12  1  0
 12 13  2  0
 13 14  1  0
 14 15  1  0
 15 16  2  0
 16 17  1  0
 17 18  2  0
 18 19  1  0
 14 20  1  0
 20 21  1  0
 20 22  1  0
 22 23  1  0
 22 24  1  0
 22 25  1  0
 20 26  1  0
 26 27  1  0
 26 28  1  0
 26 29  1  0
 13 30  1  0
 30 31  2  0
 31  4  1  0
 31 10  1  0
 19 15  1  0
  1 32  1  0
  1 33  1  0
  1 34  1  0
  7 35  1  0
  7 36  1  0
  9 37  1  0
 11 38  1  0
 12 39  1  0
 14 40  1  6
 16 41  1  0
 17 42  1  0
 18 43  1  0
 21 44  1  0
 30 45  1  0
M  END
>  <UniqueID>  (94) 
94

>  <SMILES>  (94) 
CC(=O)n1c(C(N)=O)cc2ccc([C@H](c3cccs3)C(O)(C(F)(F)F)C(F)(F)F)cc21

>  <Energy>  (94) 
118.80067483938468

>  <Genealogy>  (94) 
CC(=O)n1c(C(N)=O)cc2ccc([C@H](c3cccs3)C(O)(C(F)(F)F)C(F)(F)F)cc21 (chirality)
CC(=O)n1c(C(N)=O)cc2ccc([C@H](c3cccs3)C(O)(C(F)(F)F)C(F)(F)F)cc21 (3D coordinates assigned)
CC(=O)n1c(C(N)=O)cc2ccc([C@H](c3cccs3)C(O)(C(F)(F)F)C(F)(F)F)cc21 (optimized conformer: 118.80067483938468 kcal/mol)

>  <smiles>  (94) 
CC(=O)n1c(C(N)=O)cc2ccc(C(c3cccs3)C(O)(C(F)(F)F)C(F)(F)F)cc21

>  <score_type>  (94) 
oracle

>  <origin>  (94) 
adg

>  <m_score__min__energy>  (94) 
-8.3800000000000008

>  <m_primary>  (94) 
energy

$$$$
94:0
     RDKit          3D

 58 60  0  0  0  0  0  0  0  0999 V2000
  138.4040  149.2230  130.8450 C   0  0  0  0  0  0  0  0  0  0  0  0
  139.1840  148.0610  130.6860 O   0  0  0  0  0  0  0  0  0  0  0  0
  140.5530  148.3960  130.7660 C   0  0  0  0  0  0  0  0  0  0  0  0
  140.8750  148.9530  132.1590 C   0  0  0  0  0  0  0  0  0  0  0  0
  141.6470  150.2130  132.0680 N   0  0  0  0  0  0  0  0  0  0  0  0
  141.0640  151.2270  132.9670 C   0  0  0  0  0  0  0  0  0  0  0  0
  143.0790  149.9970  132.3850 C   0  0  0  0  0  0  0  0  0  0  0  0
  143.7830  151.3260  132.6930 C   0  0  0  0  0  0  0  0  0  0  0  0
  145.1250  151.3200  132.2030 O   0  0  0  0  0  0  0  0  0  0  0  0
  146.1660  152.1460  132.6570 C   0  0  0  0  0  0  0  0  0  0  0  0
  147.4660  151.8620  132.2280 C   0  0  0  0  0  0  0  0  0  0  0  0
  148.5390  152.6490  132.6480 C   0  0  0  0  0  0  0  0  0  0  0  0
  148.3210  153.7420  133.4890 C   0  0  0  0  0  0  0  0  0  0  0  0
  147.0210  154.0590  133.9190 C   0  0  0  0  0  0  0  0  0  0  0  0
  146.7900  155.2310  134.8000 C   0  0  0  0  0  0  0  0  0  0  0  0
  147.2130  155.2160  135.9880 O   0  0  0  0  0  0  0  0  0  0  0  0
  146.0560  156.3750  134.3350 N   0  0  0  0  0  0  0  0  0  0  0  0
  144.7310  156.6480  134.4970 C   0  0  0  0  0  0  0  0  0  0  0  0
  143.7340  155.7410  135.1050 C   0  0  0  0  0  0  0  0  0  0  0  0
  144.1070  154.9030  136.1990 N   0  0  0  0  0  0  0  0  0  0  0  0
  142.5470  155.7160  134.6870 O   0  0  0  0  0  0  0  0  0  0  0  0
  144.4200  157.8880  133.9430 C   0  0  0  0  0  0  0  0  0  0  0  0
  145.6020  158.3610  133.4190 C   0  0  0  0  0  0  0  0  0  0  0  0
  145.8770  159.5460  132.7440 C   0  0  0  0  0  0  0  0  0  0  0  0
  147.1970  159.7700  132.3150 C   0  0  0  0  0  0  0  0  0  0  0  0
  148.2120  158.8150  132.5760 C   0  0  0  0  0  0  0  0  0  0  0  0
  149.6150  159.0470  132.0910 C   0  0  0  0  0  0  0  0  0  0  0  0
  149.6000  159.8890  130.8560 C   0  0  0  0  0  0  0  0  0  0  0  0
  149.5930  159.3430  129.7200 O   0  0  0  0  0  0  0  0  0  0  0  0
  149.6530  161.2740  130.9580 O   0  0  0  0  0  0  0  0  0  0  0  0
  147.8930  157.6220  133.2580 C   0  0  0  0  0  0  0  0  0  0  0  0
  146.5720  157.4250  133.6670 C   0  0  0  0  0  0  0  0  0  0  0  0
  145.9480  153.2440  133.5110 C   0  0  0  0  0  0  0  0  0  0  0  0
  138.2662  149.4283  131.9169 H   0  0  0  0  0  0  0  0  0  0  0  0
  138.9141  150.0747  130.3712 H   0  0  0  0  0  0  0  0  0  0  0  0
  137.4226  149.0735  130.3712 H   0  0  0  0  0  0  0  0  0  0  0  0
  141.1596  147.4966  130.5839 H   0  0  0  0  0  0  0  0  0  0  0  0
  140.7832  149.1601  130.0089 H   0  0  0  0  0  0  0  0  0  0  0  0
  139.9336  149.1471  132.6939 H   0  0  0  0  0  0  0  0  0  0  0  0
  141.4825  148.2112  132.6982 H   0  0  0  0  0  0  0  0  0  0  0  0
  141.2341  150.9311  134.0127 H   0  0  0  0  0  0  0  0  0  0  0  0
  141.5402  152.2007  132.7793 H   0  0  0  0  0  0  0  0  0  0  0  0
  139.9830  151.3053  132.7793 H   0  0  0  0  0  0  0  0  0  0  0  0
  143.1574  149.3372  133.2617 H   0  0  0  0  0  0  0  0  0  0  0  0
  143.5651  149.5382  131.5114 H   0  0  0  0  0  0  0  0  0  0  0  0
  143.2287  152.1463  132.2136 H   0  0  0  0  0  0  0  0  0  0  0  0
  143.8088  151.4643  133.7840 H   0  0  0  0  0  0  0  0  0  0  0  0
  147.6444  151.0112  131.5539 H   0  0  0  0  0  0  0  0  0  0  0  0
  149.5594  152.4076  132.3156 H   0  0  0  0  0  0  0  0  0  0  0  0
  149.1712  154.3583  133.8168 H   0  0  0  0  0  0  0  0  0  0  0  0
  145.0370  155.0150  136.6610 H   0  0  0  0  0  0  0  0  0  0  0  0
  143.4382  158.3839  133.9275 H   0  0  0  0  0  0  0  0  0  0  0  0
  145.0856  160.2854  132.5518 H   0  0  0  0  0  0  0  0  0  0  0  0
  147.4445  160.6942  131.7722 H   0  0  0  0  0  0  0  0  0  0  0  0
  150.1903  159.5614  132.8748 H   0  0  0  0  0  0  0  0  0  0  0  0
  150.0804  158.0775  131.8596 H   0  0  0  0  0  0  0  0  0  0  0  0
  148.6652  156.8658  133.4626 H   0  0  0  0  0  0  0  0  0  0  0  0
  144.9299  153.4671  133.8627 H   0  0  0  0  0  0  0  0  0  0  0  0
  1  2  1  0
  2  3  1  0
  3  4  1  0
  4  5  1  0
  5  6  1  0
  5  7  1  0
  7  8  1  0
  8  9  1  0
  9 10  1  0
 10 11  2  0
 11 12  1  0
 12 13  2  0
 13 14  1  0
 14 15  1  0
 15 16  2  0
 15 17  1  0
 17 18  1  0
 18 19  1  0
 19 20  1  0
 19 21  2  0
 18 22  2  0
 22 23  1  0
 23 24  2  0
 24 25  1  0
 25 26  2  0
 26 27  1  0
 27 28  1  0
 28 29  2  0
 28 30  1  0
 26 31  1  0
 31 32  2  0
 14 33  2  0
 33 10  1  0
 32 17  1  0
 32 23  1  0
  1 34  1  0
  1 35  1  0
  1 36  1  0
  3 37  1  0
  3 38  1  0
  4 39  1  0
  4 40  1  0
  6 41  1  0
  6 42  1  0
  6 43  1  0
  7 44  1  0
  7 45  1  0
  8 46  1  0
  8 47  1  0
 11 48  1  0
 12 49  1  0
 13 50  1  0
 20 51  1  0
 22 52  1  0
 24 53  1  0
 25 54  1  0
 27 55  1  0
 27 56  1  0
 31 57  1  0
 33 58  1  0
M  CHG  2  20  -1  30  -1
M  END
>  <UniqueID>  (95) 
95

>  <SMILES>  (95) 
COCCN(C)CCOc1cccc(C(=O)n2c(C([NH-])=O)cc3ccc(CC(=O)[O-])cc32)c1

>  <Energy>  (95) 
96.58649673604059

>  <Genealogy>  (95) 
COCCN(C)CCOc1cccc(C(=O)n2c(C([NH-])=O)cc3ccc(CC(=O)[O-])cc32)c1 (protonated)
COCCN(C)CCOc1cccc(C(=O)n2c(C([NH-])=O)cc3ccc(CC(=O)[O-])cc32)c1 (3D coordinates assigned)
COCCN(C)CCOc1cccc(C(=O)n2c(C([NH-])=O)cc3ccc(CC(=O)[O-])cc32)c1 (optimized conformer: 96.58649673604059 kcal/mol)

>  <smiles>  (95) 
COCCN(C)CCOc1cccc(C(=O)n2c(C(N)=O)cc3ccc(CC(=O)O)cc32)c1

>  <score_type>  (95) 
oracle

>  <origin>  (95) 
adg

>  <m_score__min__energy>  (95) 
-8.7599999999999998

>  <m_primary>  (95) 
energy

$$$$
95:0
     RDKit          3D

 77 81  0  0  0  0  0  0  0  0999 V2000
  148.0510  153.3890  133.5400 C   0  0  0  0  0  0  0  0  0  0  0  0
  146.9070  153.4340  134.3900 O   0  0  0  0  0  0  0  0  0  0  0  0
  146.7680  154.3740  135.4200 C   0  0  0  0  0  0  0  0  0  0  0  0
  146.1390  155.4520  135.2310 O   0  0  0  0  0  0  0  0  0  0  0  0
  147.3630  154.0970  136.7640 C   0  0  0  0  0  0  0  0  0  0  0  0
  146.4200  153.2730  137.5920 C   0  0  0  0  0  0  0  0  0  0  0  0
  146.9360  152.4040  138.5940 C   0  0  0  0  0  0  0  0  0  0  0  0
  146.0700  151.6280  139.3860 C   0  0  0  0  0  0  0  0  0  0  0  0
  144.7040  151.7670  139.1730 C   0  0  0  0  0  0  0  0  0  0  0  0
  143.6390  151.1650  139.8130 C   0  0  0  0  0  0  0  0  0  0  0  0
  142.5060  151.6850  139.2010 C   0  0  0  0  0  0  0  0  0  0  0  0
  141.1270  151.3670  139.6120 C   0  0  0  0  0  0  0  0  0  0  0  0
  140.1050  151.1830  138.6460 N   0  0  0  0  0  0  0  0  0  0  0  0
  140.8900  151.1180  140.8240 O   0  0  0  0  0  0  0  0  0  0  0  0
  142.8420  152.5950  138.2510 N   0  0  0  0  0  0  0  0  0  0  0  0
  141.9570  153.4220  137.4780 C   0  0  0  0  0  0  0  0  0  0  0  0
  142.2830  153.7520  136.3110 O   0  0  0  0  0  0  0  0  0  0  0  0
  140.7570  153.9050  138.0240 O   0  0  0  0  0  0  0  0  0  0  0  0
  140.6630  154.4670  139.3380 C   0  0  0  0  0  0  0  0  0  0  0  0
  141.8610  155.3680  139.6460 C   0  0  0  0  0  0  0  0  0  0  0  0
  142.0940  156.4390  138.5780 C   0  0  0  0  0  0  0  0  0  0  0  0
  141.7640  157.7040  139.0970 O   0  0  0  0  0  0  0  0  0  0  0  0
  141.1610  158.6930  137.8450 P   0  0  1  0  0  0  0  0  0  0  0  0
  139.9820  158.0300  137.1630 O   0  0  0  0  0  0  0  0  0  0  0  0
  140.6070  160.1400  138.5330 O   0  0  0  0  0  0  0  0  0  0  0  0
  142.3630  159.0230  136.6630 O   0  0  0  0  0  0  0  0  0  0  0  0
  141.7530  159.3250  135.4190 C   0  0  0  0  0  0  0  0  0  0  0  0
  141.9750  158.1770  134.4170 C   0  0  2  0  0  0  0  0  0  0  0  0
  141.9880  158.6380  133.0820 O   0  0  0  0  0  0  0  0  0  0  0  0
  141.5540  157.5640  132.2680 C   0  0  0  0  0  0  0  0  0  0  0  0
  141.2120  156.3620  133.1650 C   0  0  1  0  0  0  0  0  0  0  0  0
  142.3120  155.3800  133.2790 N   0  0  0  0  0  0  0  0  0  0  0  0
  143.6280  155.7030  133.4020 C   0  0  0  0  0  0  0  0  0  0  0  0
  144.4550  154.6410  133.2280 N   0  0  0  0  0  0  0  0  0  0  0  0
  143.6210  153.6130  133.0130 C   0  0  0  0  0  0  0  0  0  0  0  0
  143.8990  152.2710  132.7650 C   0  0  0  0  0  0  0  0  0  0  0  0
  145.2370  151.7810  132.6430 N   0  0  0  0  0  0  0  0  0  0  0  0
  142.8370  151.4280  132.6090 N   0  0  0  0  0  0  0  0  0  0  0  0
  141.5480  151.8840  132.6380 C   0  0  0  0  0  0  0  0  0  0  0  0
  141.2880  153.2120  132.8480 N   0  0  0  0  0  0  0  0  0  0  0  0
  142.3390  154.0490  133.0510 C   0  0  0  0  0  0  0  0  0  0  0  0
  140.9390  157.0500  134.4960 C   0  0  2  0  0  0  0  0  0  0  0  0
  139.4780  157.5770  134.5410 C   0  0  0  0  0  0  0  0  0  0  0  0
  141.2070  156.2240  135.6030 O   0  0  0  0  0  0  0  0  0  0  0  0
  144.1920  152.6290  138.2290 C   0  0  0  0  0  0  0  0  0  0  0  0
  145.0260  153.3920  137.4060 C   0  0  0  0  0  0  0  0  0  0  0  0
  148.9629  153.3531  134.1541 H   0  0  0  0  0  0  0  0  0  0  0  0
  148.0010  152.4921  132.9051 H   0  0  0  0  0  0  0  0  0  0  0  0
  148.0716  154.2870  132.9051 H   0  0  0  0  0  0  0  0  0  0  0  0
  148.3079  153.5484  136.6364 H   0  0  0  0  0  0  0  0  0  0  0  0
  147.5480  155.0523  137.2770 H   0  0  0  0  0  0  0  0  0  0  0  0
  148.0228  152.3384  138.7508 H   0  0  0  0  0  0  0  0  0  0  0  0
  146.4604  150.9360  140.1467 H   0  0  0  0  0  0  0  0  0  0  0  0
  143.6793  150.4313  140.6316 H   0  0  0  0  0  0  0  0  0  0  0  0
  139.8400  151.9320  137.9660 H   0  0  0  0  0  0  0  0  0  0  0  0
  139.7403  155.0618  139.4079 H   0  0  0  0  0  0  0  0  0  0  0  0
  140.6522  153.6435  140.0672 H   0  0  0  0  0  0  0  0  0  0  0  0
  141.6854  155.8671  140.6104 H   0  0  0  0  0  0  0  0  0  0  0  0
  142.7557  154.7285  139.6714 H   0  0  0  0  0  0  0  0  0  0  0  0
  143.1520  156.4316  138.2771 H   0  0  0  0  0  0  0  0  0  0  0  0
  141.4606  156.2266  137.7041 H   0  0  0  0  0  0  0  0  0  0  0  0
  140.6731  159.4693  135.5709 H   0  0  0  0  0  0  0  0  0  0  0  0
  142.2049  160.2427  135.0146 H   0  0  0  0  0  0  0  0  0  0  0  0
  142.9541  157.7704  134.7104 H   0  0  0  0  0  0  0  0  0  0  0  0
  140.6610  157.8677  131.7020 H   0  0  0  0  0  0  0  0  0  0  0  0
  142.3513  157.2864  131.5628 H   0  0  0  0  0  0  0  0  0  0  0  0
  140.3786  155.7591  132.7753 H   0  0  0  0  0  0  0  0  0  0  0  0
  143.9850  156.7204  133.6200 H   0  0  0  0  0  0  0  0  0  0  0  0
  145.4980  154.6350  133.2500 H   0  0  0  0  0  0  0  0  0  0  0  0
  145.4780  151.1230  131.8670 H   0  0  0  0  0  0  0  0  0  0  0  0
  145.8720  151.8120  133.4750 H   0  0  0  0  0  0  0  0  0  0  0  0
  140.7154  151.1801  132.4918 H   0  0  0  0  0  0  0  0  0  0  0  0
  139.1615  157.6912  135.5883 H   0  0  0  0  0  0  0  0  0  0  0  0
  139.4238  158.5513  134.0333 H   0  0  0  0  0  0  0  0  0  0  0  0
  138.8144  156.8616  134.0333 H   0  0  0  0  0  0  0  0  0  0  0  0
  141.5490  156.8060  136.3290 H   0  0  0  0  0  0  0  0  0  0  0  0
  144.6098  154.0623  136.6396 H   0  0  0  0  0  0  0  0  0  0  0  0
  1  2  1  0
  2  3  1  0
  3  4  2  0
  3  5  1  0
  5  6  1  0
  6  7  2  0
  7  8  1  0
  8  9  2  0
  9 10  1  0
 10 11  2  0
 11 12  1  0
 12 13  1  0
 12 14  2  0
 11 15  1  0
 15 16  1  0
 16 17  2  0
 16 18  1  0
 18 19  1  0
 19 20  1  0
 20 21  1  0
 21 22  1  0
 22 23  1  0
 23 24  2  0
 23 25  1  1
 23 26  1  0
 26 27  1  0
 27 28  1  0
 28 29  1  0
 29 30  1  0
 30 31  1  0
 31 32  1  0
 32 33  1  0
 33 34  2  0
 34 35  1  0
 35 36  2  0
 36 37  1  0
 36 38  1  0
 38 39  2  0
 39 40  1  0
 40 41  2  0
 31 42  1  0
 42 43  1  0
 42 44  1  1
 15 45  1  0
 45 46  2  0
 46  6  1  0
 45  9  1  0
 42 28  1  0
 41 32  1  0
 41 35  1  0
  1 47  1  0
  1 48  1  0
  1 49  1  0
  5 50  1  0
  5 51  1  0
  7 52  1  0
  8 53  1  0
 10 54  1  0
 13 55  1  0
 19 56  1  0
 19 57  1  0
 20 58  1  0
 20 59  1  0
 21 60  1  0
 21 61  1  0
 27 62  1  0
 27 63  1  0
 28 64  1  1
 30 65  1  0
 30 66  1  0
 31 67  1  6
 33 68  1  0
 34 69  1  0
 37 70  1  0
 37 71  1  0
 39 72  1  0
 43 73  1  0
 43 74  1  0
 43 75  1  0
 44 76  1  0
 46 77  1  0
M  CHG  3  13  -1  25  -1  34   1
M  END
>  <UniqueID>  (96) 
96

>  <SMILES>  (96) 
COC(=O)Cc1ccc2cc(C([NH-])=O)n(C(=O)OCCCO[P@@](=O)([O-])OC[C@@H]3OC[C@@H](n4c[nH+]c5c(N)ncnc54)[C@@]3(C)O)c2c1

>  <Energy>  (96) 
172.6754181604234

>  <Genealogy>  (96) 
COC(=O)Cc1ccc2cc(C([NH-])=O)n(C(=O)OCCCOP(=O)([O-])OC[C@@H]3OC[C@@H](n4c[nH+]c5c(N)ncnc54)[C@@]3(C)O)c2c1 (protonated)
COC(=O)Cc1ccc2cc(C([NH-])=O)n(C(=O)OCCCO[P@@](=O)([O-])OC[C@@H]3OC[C@@H](n4c[nH+]c5c(N)ncnc54)[C@@]3(C)O)c2c1 (chirality)
COC(=O)Cc1ccc2cc(C([NH-])=O)n(C(=O)OCCCO[P@@](=O)([O-])OC[C@@H]3OC[C@@H](n4c[nH+]c5c(N)ncnc54)[C@@]3(C)O)c2c1 (3D coordinates assigned)
COC(=O)Cc1ccc2cc(C([NH-])=O)n(C(=O)OCCCO[P@@](=O)([O-])OC[C@@H]3OC[C@@H](n4c[nH+]c5c(N)ncnc54)[C@@]3(C)O)c2c1 (nonaromatic ring conformer: 172.6754181604234 kcal/mol)

>  <smiles>  (96) 
COC(=O)Cc1ccc2cc(C(N)=O)n(C(=O)OCCCOP(=O)(O)OC[C@@H]3OC[C@@H](n4cnc5c(N)ncnc54)[C@@]3(C)O)c2c1

>  <score_type>  (96) 
oracle

>  <origin>  (96) 
adg

>  <m_score__min__energy>  (96) 
-8.8800000000000008

>  <m_primary>  (96) 
energy

$$$$
96:0
     RDKit          3D

 55 57  0  0  0  0  0  0  0  0999 V2000
  140.6705  153.7448  133.2324 H   0  0  0  0  0  0  0  0  0  0  0  0
  141.6790  153.3500  133.0400 C   0  0  0  0  0  0  0  0  0  0  0  0
  141.8700  152.7428  132.1429 H   0  0  0  0  0  0  0  0  0  0  0  0
  142.6720  153.6080  133.8960 C   0  0  0  0  0  0  0  0  0  0  0  0
  142.4677  154.2165  134.7893 H   0  0  0  0  0  0  0  0  0  0  0  0
  144.0620  153.0850  133.6650 C   0  0  0  0  0  0  0  0  0  0  0  0
  144.2600  152.2635  134.3692 H   0  0  0  0  0  0  0  0  0  0  0  0
  144.1361  152.7261  132.6278 H   0  0  0  0  0  0  0  0  0  0  0  0
  145.0290  154.1140  133.8630 O   0  0  0  0  0  0  0  0  0  0  0  0
  145.4100  155.0160  132.8630 C   0  0  0  0  0  0  0  0  0  0  0  0
  144.6550  155.2240  131.8730 O   0  0  0  0  0  0  0  0  0  0  0  0
  146.6650  155.7060  132.9640 N   0  0  0  0  0  0  0  0  0  0  0  0
  147.9160  155.1740  132.8620 C   0  0  0  0  0  0  0  0  0  0  0  0
  148.2380  153.7350  132.7900 C   0  0  0  0  0  0  0  0  0  0  0  0
  149.2760  153.3630  132.1800 O   0  0  0  0  0  0  0  0  0  0  0  0
  147.4270  152.7600  133.4480 N   0  0  0  0  0  0  0  0  0  0  0  0
  146.6670  153.0440  134.1050 H   0  0  0  0  0  0  0  0  0  0  0  0
  147.6390  151.7440  133.3400 H   0  0  0  0  0  0  0  0  0  0  0  0
  148.8800  156.1780  132.8790 C   0  0  0  0  0  0  0  0  0  0  0  0
  149.9708  156.0572  132.8044 H   0  0  0  0  0  0  0  0  0  0  0  0
  148.1770  157.3540  133.0090 C   0  0  0  0  0  0  0  0  0  0  0  0
  148.6320  158.6670  133.0540 C   0  0  0  0  0  0  0  0  0  0  0  0
  149.7076  158.8956  133.0232 H   0  0  0  0  0  0  0  0  0  0  0  0
  147.6760  159.6930  133.1400 C   0  0  0  0  0  0  0  0  0  0  0  0
  148.0076  160.7409  133.1847 H   0  0  0  0  0  0  0  0  0  0  0  0
  146.2910  159.3970  133.1700 C   0  0  0  0  0  0  0  0  0  0  0  0
  145.3450  160.4830  133.2290 N   0  0  0  0  0  0  0  0  0  0  0  0
  145.1920  161.0600  132.3690 H   0  0  0  0  0  0  0  0  0  0  0  0
  144.5880  160.8540  134.4250 C   0  0  0  0  0  0  0  0  0  0  0  0
  145.1817  160.6096  135.3182 H   0  0  0  0  0  0  0  0  0  0  0  0
  144.3778  161.9332  134.3895 H   0  0  0  0  0  0  0  0  0  0  0  0
  143.2840  160.1100  134.4810 C   0  0  0  0  0  0  0  0  0  0  0  0
  143.1515  159.3001  135.2134 H   0  0  0  0  0  0  0  0  0  0  0  0
  142.2810  160.4210  133.6500 C   0  0  0  0  0  0  0  0  0  0  0  0
  142.4215  161.2329  132.9212 H   0  0  0  0  0  0  0  0  0  0  0  0
  140.9670  159.6890  133.6870 C   0  0  0  0  0  0  0  0  0  0  0  0
  140.8982  159.1166  134.6238 H   0  0  0  0  0  0  0  0  0  0  0  0
  140.1501  160.4233  133.6291 H   0  0  0  0  0  0  0  0  0  0  0  0
  140.8560  158.7600  132.5400 N   0  0  0  0  0  0  0  0  0  0  0  0
  139.8520  159.2070  131.5460 C   0  0  0  0  0  0  0  0  0  0  0  0
  139.7713  160.3029  131.5962 H   0  0  0  0  0  0  0  0  0  0  0  0
  140.1918  158.8681  130.5562 H   0  0  0  0  0  0  0  0  0  0  0  0
  138.4560  158.5980  131.7920 C   0  0  0  0  0  0  0  0  0  0  0  0
  137.6869  159.3307  131.5063 H   0  0  0  0  0  0  0  0  0  0  0  0
  138.3567  157.6849  131.1867 H   0  0  0  0  0  0  0  0  0  0  0  0
  138.2920  158.2610  133.1510 O   0  0  0  0  0  0  0  0  0  0  0  0
  139.1490  157.1840  133.4890 C   0  0  0  0  0  0  0  0  0  0  0  0
  139.1844  157.0956  134.5849 H   0  0  0  0  0  0  0  0  0  0  0  0
  138.7405  156.2791  133.0153 H   0  0  0  0  0  0  0  0  0  0  0  0
  140.5930  157.3680  132.9630 C   0  0  0  0  0  0  0  0  0  0  0  0
  141.2990  157.1007  133.7631 H   0  0  0  0  0  0  0  0  0  0  0  0
  140.7202  156.7168  132.0856 H   0  0  0  0  0  0  0  0  0  0  0  0
  145.8680  158.0450  133.1260 C   0  0  0  0  0  0  0  0  0  0  0  0
  144.7984  157.7890  133.1456 H   0  0  0  0  0  0  0  0  0  0  0  0
  146.8430  157.0430  133.0570 C   0  0  0  0  0  0  0  0  0  0  0  0
  1  2  1  0
  2  3  1  0
  2  4  2  0
  4  5  1  0
  4  6  1  0
  6  7  1  0
  6  8  1  0
  6  9  1  0
  9 10  1  0
 10 11  2  0
 10 12  1  0
 12 13  1  0
 13 14  1  0
 14 15  2  0
 14 16  1  0
 16 17  1  0
 16 18  1  0
 13 19  2  0
 19 20  1  0
 19 21  1  0
 21 22  2  0
 22 23  1  0
 22 24  1  0
 24 25  1  0
 24 26  2  0
 26 27  1  0
 27 28  1  0
 27 29  1  0
 29 30  1  0
 29 31  1  0
 29 32  1  0
 32 33  1  0
 32 34  2  0
 34 35  1  0
 34 36  1  0
 36 37  1  0
 36 38  1  0
 36 39  1  0
 39 40  1  0
 40 41  1  0
 40 42  1  0
 40 43  1  0
 43 44  1  0
 43 45  1  0
 43 46  1  0
 46 47  1  0
 47 48  1  0
 47 49  1  0
 47 50  1  0
 50 51  1  0
 50 52  1  0
 26 53  1  0
 53 54  1  0
 53 55  2  0
 55 12  1  0
 55 21  1  0
 50 39  1  0
M  END
>  <UniqueID>  (97) 
97

>  <SMILES>  (97) 
C=CCOC(=O)n1c(C(N)=O)cc2ccc(NC/C=C/CN3CCOCC3)cc21

>  <Energy>  (97) 
98.89564517242769

>  <Genealogy>  (97) 
C=CCOC(=O)n1c(C(N)=O)cc2ccc(NC/C=C/CN3CCOCC3)cc21 (cis-trans isomerization)
C=CCOC(=O)n1c(C(N)=O)cc2ccc(NC/C=C/CN3CCOCC3)cc21 (3D coordinates assigned)
C=CCOC(=O)n1c(C(N)=O)cc2ccc(NC/C=C/CN3CCOCC3)cc21 (nonaromatic ring conformer: 98.89564517242769 kcal/mol)

>  <smiles>  (97) 
C=CCOC(=O)n1c(C(N)=O)cc2ccc(NCC=CCN3CCOCC3)cc21

>  <score_type>  (97) 
oracle

>  <origin>  (97) 
adg

>  <m_score__min__energy>  (97) 
-8.6099999999999994

>  <m_primary>  (97) 
energy

$$$$
97:0
     RDKit          3D

 52 54  0  0  0  0  0  0  0  0999 V2000
  138.6840  158.6200  131.6300 C   0  0  0  0  0  0  0  0  0  0  0  0
  139.9020  159.0580  132.4360 C   0  0  0  0  0  0  0  0  0  0  0  0
  140.4410  157.9580  133.1670 O   0  0  0  0  0  0  0  0  0  0  0  0
  139.9960  157.5870  134.4410 C   0  0  0  0  0  0  0  0  0  0  0  0
  138.8540  157.9400  134.8470 O   0  0  0  0  0  0  0  0  0  0  0  0
  140.8330  156.7740  135.2780 N   0  0  0  0  0  0  0  0  0  0  0  0
  141.3040  157.0620  136.5240 C   0  0  0  0  0  0  0  0  0  0  0  0
  141.1760  158.3570  137.2240 C   0  0  0  0  0  0  0  0  0  0  0  0
  140.4790  159.4480  136.6280 N   0  0  0  0  0  0  0  0  0  0  0  0
  141.7280  158.5180  138.3450 O   0  0  0  0  0  0  0  0  0  0  0  0
  142.0170  155.9810  137.0390 C   0  0  0  0  0  0  0  0  0  0  0  0
  141.9770  155.0170  136.0570 C   0  0  0  0  0  0  0  0  0  0  0  0
  142.5210  153.7360  136.0370 C   0  0  0  0  0  0  0  0  0  0  0  0
  142.3040  152.9470  134.8950 C   0  0  0  0  0  0  0  0  0  0  0  0
  141.5450  153.4440  133.8070 C   0  0  0  0  0  0  0  0  0  0  0  0
  141.3300  152.5960  132.5780 C   0  0  0  0  0  0  0  0  0  0  0  0
  141.7380  151.1300  132.8070 C   0  0  0  0  0  0  0  0  0  0  0  0
  140.5460  150.1410  132.8330 C   0  0  0  0  0  0  0  0  0  0  0  0
  140.9950  148.7240  132.3930 C   0  0  0  0  0  0  0  0  0  0  0  0
  140.6930  148.4800  130.9110 C   0  0  0  0  0  0  0  0  0  0  0  0
  139.2370  148.5300  130.6330 N   0  0  0  0  0  0  0  0  0  0  0  0
  138.9980  148.7690  129.2020 C   0  0  0  0  0  0  0  0  0  0  0  0
  138.4880  149.4970  131.4760 C   0  0  0  0  0  0  0  0  0  0  0  0
  139.3640  150.6560  131.9700 C   0  0  0  0  0  0  0  0  0  0  0  0
  141.0080  154.7490  133.8650 C   0  0  0  0  0  0  0  0  0  0  0  0
  141.2560  155.5200  135.0050 C   0  0  0  0  0  0  0  0  0  0  0  0
  137.8753  158.3292  132.3165 H   0  0  0  0  0  0  0  0  0  0  0  0
  138.3451  159.4526  130.9960 H   0  0  0  0  0  0  0  0  0  0  0  0
  138.9530  157.7623  130.9960 H   0  0  0  0  0  0  0  0  0  0  0  0
  140.6689  159.4470  131.7500 H   0  0  0  0  0  0  0  0  0  0  0  0
  139.5954  159.8402  133.1461 H   0  0  0  0  0  0  0  0  0  0  0  0
  139.4730  159.3620  136.3610 H   0  0  0  0  0  0  0  0  0  0  0  0
  142.5074  155.9126  138.0212 H   0  0  0  0  0  0  0  0  0  0  0  0
  143.1026  153.3534  136.8887 H   0  0  0  0  0  0  0  0  0  0  0  0
  142.7277  151.9331  134.8452 H   0  0  0  0  0  0  0  0  0  0  0  0
  140.2646  152.6292  132.3062 H   0  0  0  0  0  0  0  0  0  0  0  0
  141.9605  153.0010  131.7727 H   0  0  0  0  0  0  0  0  0  0  0  0
  142.4189  150.8299  131.9969 H   0  0  0  0  0  0  0  0  0  0  0  0
  142.2124  151.0828  133.7983 H   0  0  0  0  0  0  0  0  0  0  0  0
  140.1861  150.0729  133.8702 H   0  0  0  0  0  0  0  0  0  0  0  0
  142.0777  148.6233  132.5595 H   0  0  0  0  0  0  0  0  0  0  0  0
  140.4396  147.9835  132.9872 H   0  0  0  0  0  0  0  0  0  0  0  0
  141.1971  149.2530  130.3124 H   0  0  0  0  0  0  0  0  0  0  0  0
  141.0585  147.4767  130.6470 H   0  0  0  0  0  0  0  0  0  0  0  0
  138.2247  149.5423  129.0835 H   0  0  0  0  0  0  0  0  0  0  0  0
  139.9303  149.1068  128.7259 H   0  0  0  0  0  0  0  0  0  0  0  0
  138.6602  147.8367  128.7259 H   0  0  0  0  0  0  0  0  0  0  0  0
  137.6583  149.9107  130.8840 H   0  0  0  0  0  0  0  0  0  0  0  0
  138.1256  148.9542  132.3614 H   0  0  0  0  0  0  0  0  0  0  0  0
  139.7645  151.1982  131.1008 H   0  0  0  0  0  0  0  0  0  0  0  0
  138.7441  151.3197  132.5908 H   0  0  0  0  0  0  0  0  0  0  0  0
  140.4092  155.1492  133.0336 H   0  0  0  0  0  0  0  0  0  0  0  0
  1  2  1  0
  2  3  1  0
  3  4  1  0
  4  5  2  0
  4  6  1  0
  6  7  1  0
  7  8  1  0
  8  9  1  0
  8 10  2  0
  7 11  2  0
 11 12  1  0
 12 13  2  0
 13 14  1  0
 14 15  2  0
 15 16  1  0
 16 17  1  0
 17 18  1  0
 18 19  1  0
 19 20  1  0
 20 21  1  0
 21 22  1  0
 21 23  1  0
 23 24  1  0
 15 25  1  0
 25 26  2  0
 26  6  1  0
 26 12  1  0
 24 18  1  0
  1 27  1  0
  1 28  1  0
  1 29  1  0
  2 30  1  0
  2 31  1  0
  9 32  1  0
 11 33  1  0
 13 34  1  0
 14 35  1  0
 16 36  1  0
 16 37  1  0
 17 38  1  0
 17 39  1  0
 18 40  1  0
 19 41  1  0
 19 42  1  0
 20 43  1  0
 20 44  1  0
 22 45  1  0
 22 46  1  0
 22 47  1  0
 23 48  1  0
 23 49  1  0
 24 50  1  0
 24 51  1  0
 25 52  1  0
M  CHG  1   9  -1
M  END
>  <UniqueID>  (98) 
98

>  <SMILES>  (98) 
CCOC(=O)n1c(C([NH-])=O)cc2ccc(CCC3CCN(C)CC3)cc21

>  <Energy>  (98) 
91.89372261661035

>  <Genealogy>  (98) 
CCOC(=O)n1c(C([NH-])=O)cc2ccc(CCC3CCN(C)CC3)cc21 (protonated)
CCOC(=O)n1c(C([NH-])=O)cc2ccc(CCC3CCN(C)CC3)cc21 (3D coordinates assigned)
CCOC(=O)n1c(C([NH-])=O)cc2ccc(CCC3CCN(C)CC3)cc21 (nonaromatic ring conformer: 91.89372261661035 kcal/mol)

>  <smiles>  (98) 
CCOC(=O)n1c(C(N)=O)cc2ccc(CCC3CCN(C)CC3)cc21

>  <score_type>  (98) 
oracle

>  <origin>  (98) 
adg

>  <m_score__min__energy>  (98) 
-8.8200000000000003

>  <m_primary>  (98) 
energy

$$$$
98:0
     RDKit          3D

 38 40  0  0  0  0  0  0  0  0999 V2000
  140.6580  159.7590  134.5130 N   0  0  0  0  0  0  0  0  0  0  0  0
  141.2560  158.9920  133.4690 C   0  0  0  0  0  0  0  0  0  0  0  0
  140.5530  158.6430  132.4820 O   0  0  0  0  0  0  0  0  0  0  0  0
  142.6960  158.6520  133.5020 C   0  0  0  0  0  0  0  0  0  0  0  0
  143.1800  157.3480  133.3730 C   0  0  0  0  0  0  0  0  0  0  0  0
  144.5530  157.4680  133.3660 C   0  0  0  0  0  0  0  0  0  0  0  0
  145.5390  156.4850  133.2790 C   0  0  0  0  0  0  0  0  0  0  0  0
  146.8840  156.8930  133.3330 C   0  0  0  0  0  0  0  0  0  0  0  0
  147.2180  158.2650  133.4740 C   0  0  0  0  0  0  0  0  0  0  0  0
  148.6600  158.6800  133.5880 C   0  0  0  0  0  0  0  0  0  0  0  0
  149.3400  158.5720  132.2480 C   0  0  0  0  0  0  0  0  0  0  0  0
  149.9190  157.4890  131.9520 O   0  0  0  0  0  0  0  0  0  0  0  0
  149.3550  159.6630  131.3070 N   0  0  0  0  0  0  0  0  0  0  0  0
  149.9160  159.5320  129.9740 C   0  0  0  0  0  0  0  0  0  0  0  0
  149.5960  160.8400  129.2590 C   0  0  0  0  0  0  0  0  0  0  0  0
  149.1920  161.8330  130.3470 C   0  0  0  0  0  0  0  0  0  0  0  0
  148.8220  160.9940  131.5630 C   0  0  0  0  0  0  0  0  0  0  0  0
  146.1900  159.2340  133.5680 C   0  0  0  0  0  0  0  0  0  0  0  0
  144.8590  158.8010  133.4910 C   0  0  0  0  0  0  0  0  0  0  0  0
  143.7300  159.5420  133.5800 N   0  0  0  0  0  0  0  0  0  0  0  0
  143.6590  160.9630  133.7980 C   0  0  0  0  0  0  0  0  0  0  0  0
  142.6000  161.5990  133.5390 O   0  0  0  0  0  0  0  0  0  0  0  0
  144.7520  161.6450  134.3220 O   0  0  0  0  0  0  0  0  0  0  0  0
  140.9990  160.7210  134.7370 H   0  0  0  0  0  0  0  0  0  0  0  0
  142.5908  156.4225  133.2939 H   0  0  0  0  0  0  0  0  0  0  0  0
  145.2727  155.4231  133.1715 H   0  0  0  0  0  0  0  0  0  0  0  0
  147.6845  156.1416  133.2653 H   0  0  0  0  0  0  0  0  0  0  0  0
  148.7118  159.7212  133.9389 H   0  0  0  0  0  0  0  0  0  0  0  0
  149.1688  158.0169  134.3032 H   0  0  0  0  0  0  0  0  0  0  0  0
  151.0043  159.3819  130.0294 H   0  0  0  0  0  0  0  0  0  0  0  0
  149.4965  158.6659  129.4412 H   0  0  0  0  0  0  0  0  0  0  0  0
  150.4816  161.2058  128.7188 H   0  0  0  0  0  0  0  0  0  0  0  0
  148.7923  160.7064  128.5199 H   0  0  0  0  0  0  0  0  0  0  0  0
  150.0321  162.5020  130.5852 H   0  0  0  0  0  0  0  0  0  0  0  0
  148.3529  162.4665  130.0236 H   0  0  0  0  0  0  0  0  0  0  0  0
  149.2730  161.4184  132.4722 H   0  0  0  0  0  0  0  0  0  0  0  0
  147.7337  160.9697  131.7208 H   0  0  0  0  0  0  0  0  0  0  0  0
  146.4297  160.2996  133.6981 H   0  0  0  0  0  0  0  0  0  0  0  0
  1  2  1  0
  2  3  2  0
  2  4  1  0
  4  5  2  0
  5  6  1  0
  6  7  2  0
  7  8  1  0
  8  9  2  0
  9 10  1  0
 10 11  1  0
 11 12  2  0
 11 13  1  0
 13 14  1  0
 14 15  1  0
 15 16  1  0
 16 17  1  0
  9 18  1  0
 18 19  2  0
 19 20  1  0
 20 21  1  0
 21 22  2  0
 21 23  1  0
 20  4  1  0
 19  6  1  0
 17 13  1  0
  1 24  1  0
  5 25  1  0
  7 26  1  0
  8 27  1  0
 10 28  1  0
 10 29  1  0
 14 30  1  0
 14 31  1  0
 15 32  1  0
 15 33  1  0
 16 34  1  0
 16 35  1  0
 17 36  1  0
 17 37  1  0
 18 38  1  0
M  CHG  2   1  -1  23  -1
M  END
>  <UniqueID>  (99) 
99

>  <SMILES>  (99) 
[NH-]C(=O)c1cc2ccc(CC(=O)N3CCCC3)cc2n1C(=O)[O-]

>  <Energy>  (99) 
77.47039147846726

>  <Genealogy>  (99) 
[NH-]C(=O)c1cc2ccc(CC(=O)N3CCCC3)cc2n1C(=O)[O-] (protonated)
[NH-]C(=O)c1cc2ccc(CC(=O)N3CCCC3)cc2n1C(=O)[O-] (3D coordinates assigned)
[NH-]C(=O)c1cc2ccc(CC(=O)N3CCCC3)cc2n1C(=O)[O-] (nonaromatic ring conformer: 77.47039147846726 kcal/mol)

>  <smiles>  (99) 
NC(=O)c1cc2ccc(CC(=O)N3CCCC3)cc2n1C(=O)O

>  <score_type>  (99) 
oracle

>  <origin>  (99) 
adg

>  <m_score__min__energy>  (99) 
-7.96

>  <m_primary>  (99) 
energy

$$$$
